AV-unprocessed.smi:3191|AV-procd|sdf|12198|dock9
  -GOLD-   2272018 33D 1   1.00000     0.00000
 Structure written by MMmdl.
 35 36  0  0  0  0  0  0  0  0  1 V2000
  152.3226  142.0868  160.6412 C   0  0  0  0  0  0  0  0  0  0  0  0
  152.0151  143.1854  159.7465 N   0  0  0  0  0  0  0  0  0  0  0  0
  152.3869  144.4649  159.8885 C   0  0  0  0  0  0  0  0  0  0  0  0
  151.9665  145.2708  158.9227 N   0  0  0  0  0  0  0  0  0  0  0  0
  151.2530  144.4276  158.0753 C   0  0  0  0  0  0  0  0  0  0  0  0
  151.2742  143.1415  158.5680 C   0  0  0  0  0  0  0  0  0  0  0  0
  150.6659  141.8934  158.0144 C   0  0  0  0  0  0  0  0  0  0  0  0
  151.0141  141.6644  156.5350 C   0  0  0  0  0  0  0  0  0  0  0  0
  149.8719  141.9308  155.6692 N   0  0  0  0  0  0  0  0  0  0  0  0
  149.4369  141.1129  154.6986 C   0  0  0  0  0  0  0  0  0  0  0  0
  149.9821  140.0394  154.4376 O   0  0  0  0  0  0  0  0  0  0  0  0
  148.2364  141.6317  153.9695 C   0  0  1  0  0  0  0  0  0  0  0  0
  146.9979  140.7605  153.9230 C   0  0  0  0  0  0  0  0  0  0  0  0
  146.9808  142.0330  154.7406 C   0  0  0  0  0  0  0  0  0  0  0  0
  146.8766  141.9434  156.2585 C   0  0  0  0  0  0  0  0  0  0  0  0
  146.1964  143.2348  154.2436 C   0  0  0  0  0  0  0  0  0  0  0  0
  148.4527  142.2192  153.0781 H   0  0  0  0  0  0  0  0  0  0  0  0
  152.9329  142.4372  161.4742 H   0  0  0  0  0  0  0  0  0  0  0  0
  152.8708  141.3130  160.1037 H   0  0  0  0  0  0  0  0  0  0  0  0
  151.3986  141.6630  161.0350 H   0  0  0  0  0  0  0  0  0  0  0  0
  152.9802  144.8158  160.7203 H   0  0  0  0  0  0  0  0  0  0  0  0
  150.7838  144.8073  157.1796 H   0  0  0  0  0  0  0  0  0  0  0  0
  150.9859  141.0384  158.6108 H   0  0  0  0  0  0  0  0  0  0  0  0
  149.5823  141.9428  158.1267 H   0  0  0  0  0  0  0  0  0  0  0  0
  151.8292  142.3257  156.2397 H   0  0  0  0  0  0  0  0  0  0  0  0
  151.3709  140.6457  156.3749 H   0  0  0  0  0  0  0  0  0  0  0  0
  149.3737  142.7958  155.8218 H   0  0  0  0  0  0  0  0  0  0  0  0
  146.4451  140.7444  152.9860 H   0  0  0  0  0  0  0  0  0  0  0  0
  147.0040  139.8141  154.4611 H   0  0  0  0  0  0  0  0  0  0  0  0
  145.8386  142.0493  156.5753 H   0  0  0  0  0  0  0  0  0  0  0  0
  147.4624  142.7361  156.7243 H   0  0  0  0  0  0  0  0  0  0  0  0
  147.2325  140.9837  156.6311 H   0  0  0  0  0  0  0  0  0  0  0  0
  145.1435  143.1400  154.5107 H   0  0  0  0  0  0  0  0  0  0  0  0
  146.2648  143.3211  153.1587 H   0  0  0  0  0  0  0  0  0  0  0  0
  146.5876  144.1518  154.6853 H   0  0  0  0  0  0  0  0  0  0  0  0
  1  2  1  0  0  0  0
  1 18  1  0  0  0  0
  1 19  1  0  0  0  0
  1 20  1  0  0  0  0
  2  6  1  0  0  0  0
  2  3  1  0  0  0  0
  3  4  2  0  0  0  0
  3 21  1  0  0  0  0
  4  5  1  0  0  0  0
  5  6  2  0  0  0  0
  5 22  1  0  0  0  0
  6  7  1  0  0  0  0
  7  8  1  0  0  0  0
  7 23  1  0  0  0  0
  7 24  1  0  0  0  0
  8  9  1  0  0  0  0
  8 25  1  0  0  0  0
  8 26  1  0  0  0  0
  9 10  1  0  0  0  0
  9 27  1  0  0  0  0
 10 11  2  0  0  0  0
 10 12  1  0  0  0  0
 12 17  1  0  0  0  0
 12 14  1  0  0  0  0
 12 13  1  0  0  0  0
 13 14  1  0  0  0  0
 13 28  1  0  0  0  0
 13 29  1  0  0  0  0
 14 15  1  0  0  0  0
 14 16  1  0  0  0  0
 15 30  1  0  0  0  0
 15 31  1  0  0  0  0
 15 32  1  0  0  0  0
 16 33  1  0  0  0  0
 16 34  1  0  0  0  0
 16 35  1  0  0  0  0
M  END
> <s_m_source_file>
AV-unprocessed.smi

> <i_m_source_file_index>
3191

> <i_lp_mmshare_version>
43012

> <i_f3d_flags>
0

> <s_epik_input>
W0NIM11uMVtjSF1uW2NIXWMxW0NIMl1bQ0gyXVtOSF1DKD1PKVtDQEBIXShbQ0gyXTIpQzIoW0NIM10pW0NIM10=

> <s_epik_cmdline>
J2VwaWtfcHl0aG9uJywgJy1waCcsICc3LjAnLCAnLXRuJywgJzgnLCAnLW1hJywgJzIwMCcsICctbWV0YWxfYmluZGluZycsICctaW1hZScsICc8aW5maWxlLm1hZT4nLCAnLW9tYWUnLCAnPG91dGZpbGUubWFlPic=

> <r_lp_tautomer_probability>
1

> <r_epik_Ionization_Penalty>
0.874249

> <r_epik_Ionization_Penalty_Charging>
0.874249

> <r_epik_Ionization_Penalty_Neutral>
1.97773e-08

> <r_epik_State_Penalty>
0.911868

> <r_epik_Charging_Adjusted_Penalty>
1.78612

> <i_epik_Tot_Q>
0

> <i_epik_Tot_abs_Q>
0

> <r_epik_Metal_State_Penalty>
0.361186

> <b_epik_Metal_Only>
0

> <s_lp_Force_Field>
OPLS_2005

> <r_lp_Energy>
11.7772

> <b_lp_Chiralities_Consistent>
1

> <s_lp_Variant>
AV-unprocessed.smi:3191-3

> <Gold.Version>
5.8.1

> <Gold.Id.Protein>
6NUR|6NUR_protein|mol2

> <Gold.PLP.Fitness>
47.6628

> <Gold.PLP.PLP>
-39.6261

> <Gold.PLP.part.hbond>
-2.0000

> <Gold.PLP.part.metal>
0.0000

> <Gold.PLP.part.buried>
-5.1406

> <Gold.PLP.part.nonpolar>
-32.3874

> <Gold.PLP.part.repulsive>
0.3514

> <Gold.PLP.ligand.clash>
0.0000

> <Gold.PLP.ligand.torsion>
0.5157

> <Gold.PLP.Chemscore.Hbond>
1.9920

> <Gold.PLP.Chemscore.CHOScore>
1.0000

> <Gold.PLP.Chemscore.Metal>
0.0000

> <Gold.Chemscore.Hbonds>
donor molecule, donor type, donor heavy atom, donor atom, acceptor molecule, acceptor atom, score
      L1  H     9    27       P1  8028  1.00
      P1  H  7989  7998       L1    11  0.68
      L1  C     5    22       P1  8028  1.00

> <Gold.PLP.Chemscore.Internal.Correction>
0.0921

> <Gold.Rescore>
     Score         DG    S(hbond)    S(metal)    S(lipo)     H(rot)  DE(clash)    DE(int)     intcor
     14.02     -14.97       1.54        0.00      74.22       1.69       0.30       0.66       ----

> <Gold.Chemscore.Fitness>
14.0158

> <Gold.Chemscore.DG>
-14.9714

> <Gold.Chemscore.ZeroCoef>
-5.4800

> <Gold.Chemscore.Hbond>
1.5386

> <Gold.Chemscore.Metal>
0.0000

> <Gold.Chemscore.Lipo>
74.2199

> <Gold.Chemscore.Internal_Hbond>
0.0000

> <Gold.Chemscore.DEClash>
0.2984

> <Gold.Chemscore.DEInternal>
0.6572

> <Gold.Chemscore.Rot>
1.6919

> <Gold.Chemscore.Internal.Correction>
   9.000000E+99

> <Gold.Chemscore.Hbonds>
donor molecule, donor type, donor heavy atom, donor atom, acceptor molecule, acceptor atom, score
      L1  H     9    27       P1  8028  0.96
      P1  H  7989  7998       L1    11  0.08

> <Gold.Chemscore.Hbond.Weighted>
-5.1388

> <Gold.Chemscore.Metal.Weighted>
-0.0000

> <Gold.Chemscore.Lipo.Weighted>
-8.6837

> <Gold.Chemscore.Internal_Hbond.Weighted>
0.0000

> <Gold.Chemscore.DEClash.Weighted>
0.2984

> <Gold.Chemscore.DEInternal.Weighted>
0.6572

> <Gold.Chemscore.Rot.Weighted>
4.3312

> <Gold.Chemscore.Internal.Correction.Weighted>
   9.000000E+99

> <Gold.Protein.RotatedTorsions>
[ 6907 6896 6895 6894 ] final  113.33 input  -60.11 | X-H torsion
[ 7974 7965 7964 7962 ] final  151.25 input  175.53 | X-H torsion
[ 8008 7997 7996 7995 ] final  169.59 input   59.86 | X-H torsion
[ 10167 10162 10161 10158 ] final  -10.79 input  -65.29 | X-H torsion
[ 10718 10713 10712 10709 ] final  141.50 input   66.30 | X-H torsion
[ 10763 10752 10751 10750 ] final   55.04 input  -60.55 | X-H torsion
[ 11005 11000 10999 10996 ] final   43.93 input  -57.11 | X-H torsion

> <Gold.Protein.ActiveResidues>
 VAL166  LYS551  ARG553  GLY616  TRP617  ASP618  TYR619  PRO620  LYS621  CYS622 
 ASP623  PHE694  ASN695  SER759  ASP760  ASP761  ALA762  ILE779  LEU786  VAL792 
 PHE793  MET794  SER795  GLU796  ALA797  LYS798  CYS799  TRP800  GLU811  SER814 

> <Gold.Protein.RotatedAtoms>
  152.4867  133.8390  159.7142 H   0  0  0  0  0  0  0  0  0  0  0  0  # atno 6907 bound_to 6896
  150.8959  133.7172  159.2898 H   0  0  0  0  0  0  0  0  0  0  0  0  # atno 6908 bound_to 6896
  151.4630  135.1044  159.9782 H   0  0  0  0  0  0  0  0  0  0  0  0  # atno 6909 bound_to 6896
  144.8306  139.6513  143.6060 H   0  0  0  0  0  0  0  0  0  0  0  0  # atno 7974 bound_to 7965
  156.1443  140.1560  156.8872 H   0  0  0  0  0  0  0  0  0  0  0  0  # atno 8008 bound_to 7997
  154.5014  140.0824  156.7844 H   0  0  0  0  0  0  0  0  0  0  0  0  # atno 8009 bound_to 7997
  155.4019  140.3415  155.4260 H   0  0  0  0  0  0  0  0  0  0  0  0  # atno 8010 bound_to 7997
  140.7122  143.5710  150.9092 H   0  0  0  0  0  0  0  0  0  0  0  0  # atno 10167 bound_to 10162
  157.3913  131.1005  151.0644 H   0  0  0  0  0  0  0  0  0  0  0  0  # atno 10718 bound_to 10713
  152.9812  135.5724  154.5002 H   0  0  0  0  0  0  0  0  0  0  0  0  # atno 10763 bound_to 10752
  154.4523  135.2779  155.1774 H   0  0  0  0  0  0  0  0  0  0  0  0  # atno 10764 bound_to 10752
  154.3397  135.6232  153.5644 H   0  0  0  0  0  0  0  0  0  0  0  0  # atno 10765 bound_to 10752
  140.1599  134.4355  155.8325 H   0  0  0  0  0  0  0  0  0  0  0  0  # atno 11005 bound_to 11000
  146.2609  139.6408  142.9362 LP  0  0  0  0  0  0  0  0  0  0  0  0  # atno 17320 bound_to 7965
  145.4904  141.0438  143.2596 LP  0  0  0  0  0  0  0  0  0  0  0  0  # atno 17321 bound_to 7965
  139.9436  143.6353  152.3047 LP  0  0  0  0  0  0  0  0  0  0  0  0  # atno 17342 bound_to 10162
  139.6847  144.7652  151.1546 LP  0  0  0  0  0  0  0  0  0  0  0  0  # atno 17343 bound_to 10162
  157.1677  130.6253  149.5630 LP  0  0  0  0  0  0  0  0  0  0  0  0  # atno 17370 bound_to 10713
  155.9799  130.4796  150.6741 LP  0  0  0  0  0  0  0  0  0  0  0  0  # atno 17371 bound_to 10713
  141.2208  133.6908  156.7574 LP  0  0  0  0  0  0  0  0  0  0  0  0  # atno 17394 bound_to 11000
  140.2503  134.8546  157.3660 LP  0  0  0  0  0  0  0  0  0  0  0  0  # atno 17395 bound_to 11000

$$$$
