AV-unprocessed.smi:2518|AV-procd|sdf|9901|dock3
  -GOLD-   2272013533D 1   1.00000     0.00000
 Structure written by MMmdl.
 41 43  0  0  0  0  0  0  0  0  1 V2000
  152.7268  143.3123  162.2578 C   0  0  0  0  0  0  0  0  0  0  0  0
  152.9224  142.2631  161.1830 C   0  0  0  0  0  0  0  0  0  0  0  0
  152.0925  142.2413  160.0446 C   0  0  0  0  0  0  0  0  0  0  0  0
  152.2819  141.2609  159.0519 C   0  0  0  0  0  0  0  0  0  0  0  0
  153.2965  140.2900  159.1784 C   0  0  0  0  0  0  0  0  0  0  0  0
  153.4085  139.3668  158.1612 O   0  0  0  0  0  0  0  0  0  0  0  0
  152.3944  139.3347  157.1650 C   0  0  0  0  0  0  0  0  0  0  0  0
  152.7845  138.3027  156.0958 C   0  0  2  0  0  0  0  0  0  0  0  0
  154.1928  138.3129  155.9614 O   0  0  0  0  0  0  0  0  0  0  0  0
  152.1400  138.6180  154.7312 C   0  0  0  0  0  0  0  0  0  0  0  0
  150.6920  138.4732  154.7501 N   0  0  0  0  0  0  0  0  0  0  0  0
  149.9108  139.5542  154.4931 N   0  0  0  0  0  0  0  0  0  0  0  0
  148.6544  139.1252  154.5920 C   0  0  0  0  0  0  0  0  0  0  0  0
  148.5877  137.7435  154.9207 C   0  0  0  0  0  0  0  0  0  0  0  0
  147.5106  136.7872  155.1513 C   0  0  0  0  0  0  0  0  0  0  0  0
  147.8278  135.5666  155.4494 N   0  0  0  0  0  0  0  0  0  0  0  0
  149.1639  135.1628  155.5504 N   0  0  0  0  0  0  0  0  0  0  0  0
  149.3217  133.7510  155.8978 C   0  0  0  0  0  0  0  0  0  0  0  0
  150.2450  135.9771  155.3436 C   0  0  0  0  0  0  0  0  0  0  0  0
  151.4169  135.6084  155.4217 O   0  0  0  0  0  0  0  0  0  0  0  0
  149.8904  137.3778  155.0072 C   0  0  0  0  0  0  0  0  0  0  0  0
  154.1296  140.3193  160.3253 C   0  0  0  0  0  0  0  0  0  0  0  0
  153.9406  141.2993  161.3193 C   0  0  0  0  0  0  0  0  0  0  0  0
  151.9208  144.0005  162.0010 H   0  0  0  0  0  0  0  0  0  0  0  0
  153.6403  143.8924  162.3903 H   0  0  0  0  0  0  0  0  0  0  0  0
  152.4803  142.8378  163.2079 H   0  0  0  0  0  0  0  0  0  0  0  0
  151.3077  142.9743  159.9276 H   0  0  0  0  0  0  0  0  0  0  0  0
  151.6392  141.2524  158.1838 H   0  0  0  0  0  0  0  0  0  0  0  0
  151.4587  139.0303  157.6371 H   0  0  0  0  0  0  0  0  0  0  0  0
  152.2382  140.3170  156.7146 H   0  0  0  0  0  0  0  0  0  0  0  0
  152.4678  137.3085  156.4142 H   0  0  0  0  0  0  0  0  0  0  0  0
  154.4519  139.1493  155.6056 H   0  0  0  0  0  0  0  0  0  0  0  0
  152.3731  139.6435  154.4408 H   0  0  0  0  0  0  0  0  0  0  0  0
  152.5570  137.9843  153.9492 H   0  0  0  0  0  0  0  0  0  0  0  0
  147.8464  139.8222  154.4263 H   0  0  0  0  0  0  0  0  0  0  0  0
  146.4686  137.0975  155.0739 H   0  0  0  0  0  0  0  0  0  0  0  0
  150.3569  133.4509  156.0638 H   0  0  0  0  0  0  0  0  0  0  0  0
  148.9207  133.1233  155.1011 H   0  0  0  0  0  0  0  0  0  0  0  0
  148.7700  133.5253  156.8113 H   0  0  0  0  0  0  0  0  0  0  0  0
  154.9224  139.6008  160.4668 H   0  0  0  0  0  0  0  0  0  0  0  0
  154.5814  141.3090  162.1890 H   0  0  0  0  0  0  0  0  0  0  0  0
  1  2  1  0  0  0  0
  1 24  1  0  0  0  0
  1 25  1  0  0  0  0
  1 26  1  0  0  0  0
  2 23  1  0  0  0  0
  2  3  2  0  0  0  0
  3  4  1  0  0  0  0
  3 27  1  0  0  0  0
  4  5  2  0  0  0  0
  4 28  1  0  0  0  0
  5  6  1  0  0  0  0
  5 22  1  0  0  0  0
  6  7  1  0  0  0  0
  7  8  1  0  0  0  0
  7 29  1  0  0  0  0
  7 30  1  0  0  0  0
  8  9  1  0  0  0  0
  8 10  1  0  0  0  0
  8 31  1  0  0  0  0
  9 32  1  0  0  0  0
 10 11  1  0  0  0  0
 10 33  1  0  0  0  0
 10 34  1  0  0  0  0
 11 21  1  0  0  0  0
 11 12  1  0  0  0  0
 12 13  2  0  0  0  0
 13 14  1  0  0  0  0
 13 35  1  0  0  0  0
 14 21  2  0  0  0  0
 14 15  1  0  0  0  0
 15 16  2  0  0  0  0
 15 36  1  0  0  0  0
 16 17  1  0  0  0  0
 17 18  1  0  0  0  0
 17 19  1  0  0  0  0
 18 37  1  0  0  0  0
 18 38  1  0  0  0  0
 18 39  1  0  0  0  0
 19 20  2  0  0  0  0
 19 21  1  0  0  0  0
 22 23  2  0  0  0  0
 22 40  1  0  0  0  0
 23 41  1  0  0  0  0
M  END
> <s_m_source_file>
AV-unprocessed.smi

> <i_m_source_file_index>
2518

> <i_lp_mmshare_version>
43012

> <i_f3d_flags>
0

> <s_epik_input>
W0NIM11jMVtjSF1bY0hdYyhbY0hdW2NIXTEpT1tDSDJdW0NASF0oW09IXSlbQ0gyXW4obltjSF0yKWMoYzIzKWMoPU8pbihbQ0gzXSluW2NIXTM=

> <s_epik_cmdline>
J2VwaWtfcHl0aG9uJywgJy1waCcsICc3LjAnLCAnLXRuJywgJzgnLCAnLW1hJywgJzIwMCcsICctbWV0YWxfYmluZGluZycsICctaW1hZScsICc8aW5maWxlLm1hZT4nLCAnLW9tYWUnLCAnPG91dGZpbGUubWFlPic=

> <r_lp_tautomer_probability>
1

> <r_epik_Ionization_Penalty>
2.246e-06

> <r_epik_Ionization_Penalty_Charging>
1.41975e-10

> <r_epik_Ionization_Penalty_Neutral>
2.24586e-06

> <r_epik_State_Penalty>
-0

> <r_epik_Charging_Adjusted_Penalty>
1.41975e-10

> <i_epik_Tot_Q>
0

> <i_epik_Tot_abs_Q>
0

> <r_epik_Metal_State_Penalty>
-0

> <b_epik_Metal_Only>
0

> <s_lp_Force_Field>
OPLS_2005

> <r_lp_Energy>
32.1328

> <b_lp_Chiralities_Consistent>
1

> <s_lp_Variant>
AV-unprocessed.smi:2518-1

> <Gold.Version>
5.8.1

> <Gold.Id.Protein>
6NUR|6NUR_protein|mol2

> <Gold.PLP.Fitness>
48.6896

> <Gold.PLP.PLP>
-42.5485

> <Gold.PLP.part.hbond>
-3.8702

> <Gold.PLP.part.metal>
0.0000

> <Gold.PLP.part.buried>
-3.9650

> <Gold.PLP.part.nonpolar>
-35.5488

> <Gold.PLP.part.repulsive>
0.3356

> <Gold.PLP.ligand.clash>
1.8471

> <Gold.PLP.ligand.torsion>
0.3928

> <Gold.PLP.Chemscore.Hbond>
2.8960

> <Gold.PLP.Chemscore.CHOScore>
0.0000

> <Gold.PLP.Chemscore.Metal>
0.0000

> <Gold.Chemscore.Hbonds>
donor molecule, donor type, donor heavy atom, donor atom, acceptor molecule, acceptor atom, score
      P1  H  7989  7998       L1    12  0.10
      P1  H  7997  8009       L1     6  0.90
      P1  H 10752 10764       L1    20  1.00

> <Gold.PLP.Chemscore.Internal.Correction>
0.0858

> <Gold.Rescore>
     Score         DG    S(hbond)    S(metal)    S(lipo)     H(rot)  DE(clash)    DE(int)     intcor
     17.72     -18.71       1.92        0.00     109.76       2.35       0.12       0.86       ----

> <Gold.Chemscore.Fitness>
17.7202

> <Gold.Chemscore.DG>
-18.7082

> <Gold.Chemscore.ZeroCoef>
-5.4800

> <Gold.Chemscore.Hbond>
1.9161

> <Gold.Chemscore.Metal>
0.0000

> <Gold.Chemscore.Lipo>
109.7608

> <Gold.Chemscore.Internal_Hbond>
0.0000

> <Gold.Chemscore.DEClash>
0.1232

> <Gold.Chemscore.DEInternal>
0.8649

> <Gold.Chemscore.Rot>
2.3490

> <Gold.Chemscore.Internal.Correction>
   9.000000E+99

> <Gold.Chemscore.Hbonds>
donor molecule, donor type, donor heavy atom, donor atom, acceptor molecule, acceptor atom, score
      P1  H  7989  7998       L1    12  0.02
      P1  H  7997  8009       L1     6  0.13
      P1  H 10752 10764       L1    20  0.99

> <Gold.Chemscore.Hbond.Weighted>
-6.3997

> <Gold.Chemscore.Metal.Weighted>
-0.0000

> <Gold.Chemscore.Lipo.Weighted>
-12.8420

> <Gold.Chemscore.Internal_Hbond.Weighted>
0.0000

> <Gold.Chemscore.DEClash.Weighted>
0.1232

> <Gold.Chemscore.DEInternal.Weighted>
0.8649

> <Gold.Chemscore.Rot.Weighted>
6.0136

> <Gold.Chemscore.Internal.Correction.Weighted>
   9.000000E+99

> <Gold.Protein.RotatedTorsions>
[ 6907 6896 6895 6894 ] final -171.29 input  -60.11 | X-H torsion
[ 7974 7965 7964 7962 ] final   10.02 input  175.53 | X-H torsion
[ 8008 7997 7996 7995 ] final  128.11 input   59.86 | X-H torsion
[ 10167 10162 10161 10158 ] final   43.03 input  -65.29 | X-H torsion
[ 10718 10713 10712 10709 ] final  131.90 input   66.30 | X-H torsion
[ 10763 10752 10751 10750 ] final  -57.90 input  -60.55 | X-H torsion
[ 11005 11000 10999 10996 ] final  172.66 input  -57.11 | X-H torsion

> <Gold.Protein.ActiveResidues>
 VAL166  LYS551  ARG553  GLY616  TRP617  ASP618  TYR619  PRO620  LYS621  CYS622 
 ASP623  PHE694  ASN695  SER759  ASP760  ASP761  ALA762  ILE779  LEU786  VAL792 
 PHE793  MET794  SER795  GLU796  ALA797  LYS798  CYS799  TRP800  GLU811  SER814 

> <Gold.Protein.RotatedAtoms>
  151.5214  133.3466  159.2901 H   0  0  0  0  0  0  0  0  0  0  0  0  # atno 6907 bound_to 6896
  150.8650  134.8014  159.7123 H   0  0  0  0  0  0  0  0  0  0  0  0  # atno 6908 bound_to 6896
  152.4657  134.5089  159.9799 H   0  0  0  0  0  0  0  0  0  0  0  0  # atno 6909 bound_to 6896
  146.2395  139.9696  142.8448 H   0  0  0  0  0  0  0  0  0  0  0  0  # atno 7974 bound_to 7965
  156.2907  140.2653  156.2382 H   0  0  0  0  0  0  0  0  0  0  0  0  # atno 8008 bound_to 7997
  155.0004  140.0388  157.2376 H   0  0  0  0  0  0  0  0  0  0  0  0  # atno 8009 bound_to 7997
  154.7606  140.2760  155.6222 H   0  0  0  0  0  0  0  0  0  0  0  0  # atno 8010 bound_to 7997
  140.3485  144.2381  150.6148 H   0  0  0  0  0  0  0  0  0  0  0  0  # atno 10167 bound_to 10162
  157.4923  131.1091  150.9540 H   0  0  0  0  0  0  0  0  0  0  0  0  # atno 10718 bound_to 10713
  154.2297  135.6363  153.5171 H   0  0  0  0  0  0  0  0  0  0  0  0  # atno 10763 bound_to 10752
  152.9951  135.5516  154.6025 H   0  0  0  0  0  0  0  0  0  0  0  0  # atno 10764 bound_to 10752
  154.5505  135.2901  155.0987 H   0  0  0  0  0  0  0  0  0  0  0  0  # atno 10765 bound_to 10752
  140.3321  134.7349  157.4141 H   0  0  0  0  0  0  0  0  0  0  0  0  # atno 11005 bound_to 11000
  145.1694  140.9713  143.4331 LP  0  0  0  0  0  0  0  0  0  0  0  0  # atno 17320 bound_to 7965
  145.0043  139.3569  143.6152 LP  0  0  0  0  0  0  0  0  0  0  0  0  # atno 17321 bound_to 7965
  140.5242  143.2258  151.8341 LP  0  0  0  0  0  0  0  0  0  0  0  0  # atno 17342 bound_to 10162
  139.4830  144.4800  151.9319 LP  0  0  0  0  0  0  0  0  0  0  0  0  # atno 17343 bound_to 10162
  157.0238  130.5684  149.5334 LP  0  0  0  0  0  0  0  0  0  0  0  0  # atno 17370 bound_to 10713
  156.0180  130.5275  150.8193 LP  0  0  0  0  0  0  0  0  0  0  0  0  # atno 17371 bound_to 10713
  140.0852  134.5676  155.8499 LP  0  0  0  0  0  0  0  0  0  0  0  0  # atno 17394 bound_to 11000
  141.2061  133.6652  156.6219 LP  0  0  0  0  0  0  0  0  0  0  0  0  # atno 17395 bound_to 11000

$$$$
