AV-unprocessed.smi:282|AV-procd|sdf|2123|dock8
  -GOLD-   2262021423D 1   1.00000     0.00000
 Structure written by MMmdl.
 65 69  0  0  0  0  0  0  0  0  2 V2000
  149.2556  129.1819  153.4254 C   0  0  0  0  0  0  0  0  0  0  0  0
  148.0658  129.4518  154.3612 C   0  0  0  0  0  0  0  0  0  0  0  0
  147.1885  130.6733  153.9791 C   0  0  2  0  0  0  0  0  0  0  0  0
  146.5605  130.4927  152.5797 C   0  0  0  0  0  0  0  0  0  0  0  0
  145.7335  131.6595  152.1878 N   0  3  2  0  0  0  0  0  0  0  0  0
  145.0751  131.4523  150.8721 C   0  0  0  0  0  0  0  0  0  0  0  0
  144.1503  132.6266  150.5170 C   0  0  0  0  0  0  0  0  0  0  0  0
  144.9258  133.9485  150.5302 C   0  0  0  0  0  0  0  0  0  0  0  0
  145.6070  134.1370  151.8912 C   0  0  0  0  0  0  0  0  0  0  0  0
  146.5033  132.9339  152.2487 C   0  0  1  0  0  0  0  0  0  0  0  0
  147.1246  133.1211  153.6444 C   0  0  0  0  0  0  0  0  0  0  0  0
  147.8999  131.9565  154.0613 N   0  0  0  0  0  0  0  0  0  0  0  0
  148.5515  132.2289  155.2165 C   0  0  0  0  0  0  0  0  0  0  0  0
  149.8909  132.4605  155.2102 N   0  0  0  0  0  0  0  0  0  0  0  0
  150.5291  132.7124  156.3571 C   0  0  0  0  0  0  0  0  0  0  0  0
  150.0306  132.7726  157.5941 N   0  0  0  0  0  0  0  0  0  0  0  0
  148.6879  132.5316  157.6019 C   0  0  0  0  0  0  0  0  0  0  0  0
  147.8802  132.2451  156.4668 C   0  0  0  0  0  0  0  0  0  0  0  0
  146.5632  132.0396  156.8548 N   0  0  0  0  0  0  0  0  0  0  0  0
  146.5897  132.1974  158.1504 C   0  0  0  0  0  0  0  0  0  0  0  0
  147.8211  132.5137  158.6815 N   0  0  0  0  0  0  0  0  0  0  0  0
  148.1313  132.7459  160.0854 C   0  0  0  0  0  0  0  0  0  0  0  0
  147.3806  133.9486  160.7319 C   0  0  0  0  0  0  0  0  0  0  0  0
  145.8397  133.7566  160.6359 C   0  0  0  0  0  0  0  0  0  0  0  0
  145.3799  132.6947  161.4479 O   0  0  0  0  0  0  0  0  0  0  0  0
  147.8416  134.0768  162.2058 C   0  0  0  0  0  0  0  0  0  0  0  0
  147.3943  135.3946  162.8640 C   0  0  0  0  0  0  0  0  0  0  0  0
  147.8667  136.5002  162.1054 O   0  0  0  0  0  0  0  0  0  0  0  0
  147.3448  136.5251  160.7836 C   0  0  0  0  0  0  0  0  0  0  0  0
  147.7833  135.2634  160.0175 C   0  0  0  0  0  0  0  0  0  0  0  0
  149.8432  128.3390  153.7895 H   0  0  0  0  0  0  0  0  0  0  0  0
  149.9233  130.0412  153.3649 H   0  0  0  0  0  0  0  0  0  0  0  0
  148.9306  128.9354  152.4153 H   0  0  0  0  0  0  0  0  0  0  0  0
  147.4372  128.5613  154.3926 H   0  0  0  0  0  0  0  0  0  0  0  0
  148.4433  129.5650  155.3774 H   0  0  0  0  0  0  0  0  0  0  0  0
  146.3637  130.7179  154.6923 H   0  0  0  0  0  0  0  0  0  0  0  0
  147.3373  130.3565  151.8265 H   0  0  0  0  0  0  0  0  0  0  0  0
  145.9454  129.5919  152.5669 H   0  0  0  0  0  0  0  0  0  0  0  0
  145.8351  131.3296  150.0987 H   0  0  0  0  0  0  0  0  0  0  0  0
  144.4954  130.5286  150.8953 H   0  0  0  0  0  0  0  0  0  0  0  0
  143.7035  132.4666  149.5354 H   0  0  0  0  0  0  0  0  0  0  0  0
  143.3254  132.6750  151.2292 H   0  0  0  0  0  0  0  0  0  0  0  0
  145.6751  133.9476  149.7375 H   0  0  0  0  0  0  0  0  0  0  0  0
  144.2539  134.7825  150.3258 H   0  0  0  0  0  0  0  0  0  0  0  0
  146.1981  135.0537  151.8812 H   0  0  0  0  0  0  0  0  0  0  0  0
  144.8446  134.2709  152.6600 H   0  0  0  0  0  0  0  0  0  0  0  0
  147.3115  132.8724  151.5173 H   0  0  0  0  0  0  0  0  0  0  0  0
  147.7608  134.0078  153.6411 H   0  0  0  0  0  0  0  0  0  0  0  0
  146.3371  133.3010  154.3787 H   0  0  0  0  0  0  0  0  0  0  0  0
  151.5910  132.8909  156.2722 H   0  0  0  0  0  0  0  0  0  0  0  0
  145.7028  132.0946  158.7588 H   0  0  0  0  0  0  0  0  0  0  0  0
  147.9148  131.8273  160.6322 H   0  0  0  0  0  0  0  0  0  0  0  0
  149.2100  132.8864  160.1691 H   0  0  0  0  0  0  0  0  0  0  0  0
  145.3020  134.6538  160.9375 H   0  0  0  0  0  0  0  0  0  0  0  0
  145.5357  133.5616  159.6074 H   0  0  0  0  0  0  0  0  0  0  0  0
  145.7068  132.8243  162.3252 H   0  0  0  0  0  0  0  0  0  0  0  0
  147.4900  133.2304  162.7963 H   0  0  0  0  0  0  0  0  0  0  0  0
  148.9308  134.0350  162.2489 H   0  0  0  0  0  0  0  0  0  0  0  0
  146.3105  135.4435  162.9712 H   0  0  0  0  0  0  0  0  0  0  0  0
  147.8085  135.4634  163.8701 H   0  0  0  0  0  0  0  0  0  0  0  0
  146.2592  136.6247  160.8081 H   0  0  0  0  0  0  0  0  0  0  0  0
  147.7246  137.4132  160.2781 H   0  0  0  0  0  0  0  0  0  0  0  0
  148.8679  135.2985  159.9086 H   0  0  0  0  0  0  0  0  0  0  0  0
  147.3756  135.2936  159.0067 H   0  0  0  0  0  0  0  0  0  0  0  0
  144.9961  131.7353  152.8738 H   0  0  0  0  0  0  0  0  0  0  0  0
  1  2  1  0  0  0  0
  1 31  1  0  0  0  0
  1 32  1  0  0  0  0
  1 33  1  0  0  0  0
  2  3  1  0  0  0  0
  2 34  1  0  0  0  0
  2 35  1  0  0  0  0
  3 12  1  0  0  0  0
  3  4  1  0  0  0  0
  3 36  1  0  0  0  0
  4  5  1  0  0  0  0
  4 37  1  0  0  0  0
  4 38  1  0  0  0  0
  5 10  1  0  0  0  0
  5  6  1  0  0  0  0
  5 65  1  0  0  0  0
  6  7  1  0  0  0  0
  6 39  1  0  0  0  0
  6 40  1  0  0  0  0
  7  8  1  0  0  0  0
  7 41  1  0  0  0  0
  7 42  1  0  0  0  0
  8  9  1  0  0  0  0
  8 43  1  0  0  0  0
  8 44  1  0  0  0  0
  9 10  1  0  0  0  0
  9 45  1  0  0  0  0
  9 46  1  0  0  0  0
 10 11  1  0  0  0  0
 10 47  1  0  0  0  0
 11 12  1  0  0  0  0
 11 48  1  0  0  0  0
 11 49  1  0  0  0  0
 12 13  1  0  0  0  0
 13 18  1  0  0  0  0
 13 14  2  0  0  0  0
 14 15  1  0  0  0  0
 15 16  2  0  0  0  0
 15 50  1  0  0  0  0
 16 17  1  0  0  0  0
 17 21  1  0  0  0  0
 17 18  2  0  0  0  0
 18 19  1  0  0  0  0
 19 20  2  0  0  0  0
 20 21  1  0  0  0  0
 20 51  1  0  0  0  0
 21 22  1  0  0  0  0
 22 23  1  0  0  0  0
 22 52  1  0  0  0  0
 22 53  1  0  0  0  0
 23 30  1  0  0  0  0
 23 24  1  0  0  0  0
 23 26  1  0  0  0  0
 24 25  1  0  0  0  0
 24 54  1  0  0  0  0
 24 55  1  0  0  0  0
 25 56  1  0  0  0  0
 26 27  1  0  0  0  0
 26 57  1  0  0  0  0
 26 58  1  0  0  0  0
 27 28  1  0  0  0  0
 27 59  1  0  0  0  0
 27 60  1  0  0  0  0
 28 29  1  0  0  0  0
 29 30  1  0  0  0  0
 29 61  1  0  0  0  0
 29 62  1  0  0  0  0
 30 63  1  0  0  0  0
 30 64  1  0  0  0  0
M  CHG  1   5   1
M  END
> <s_m_source_file>
AV-unprocessed.smi

> <i_m_source_file_index>
282

> <i_lp_mmshare_version>
43012

> <i_f3d_flags>
0

> <s_epik_input>
W0NIMl0xW0NIMl1bQ0gyXVtDSDJdW0NAQEhdKE4xMilbQ0gyXU4oW0NAQEhdKFtDSDJdMilbQ0gyXVtDSDNdKWMobltjSF1uMyljKGMzNCluW2NIXW40W0NIMl1DNShbQ0gyXVtPSF0pW0NIMl1bQ0gyXU9bQ0gyXVtDSDJdNQ==

> <s_epik_cmdline>
J2VwaWtfcHl0aG9uJywgJy1waCcsICc3LjAnLCAnLXRuJywgJzgnLCAnLW1hJywgJzIwMCcsICctbWV0YWxfYmluZGluZycsICctaW1hZScsICc8aW5maWxlLm1hZT4nLCAnLW9tYWUnLCAnPG91dGZpbGUubWFlPic=

> <r_lp_tautomer_probability>
1

> <r_epik_Ionization_Penalty>
0.00308583

> <r_epik_Ionization_Penalty_Charging>
0.00300384

> <r_epik_Ionization_Penalty_Neutral>
8.19894e-05

> <r_epik_State_Penalty>
-0

> <r_epik_Charging_Adjusted_Penalty>
0.00300384

> <i_epik_Tot_Q>
1

> <i_epik_Tot_abs_Q>
1

> <r_epik_Metal_State_Penalty>
-0

> <b_epik_Metal_Only>
0

> <s_lp_Force_Field>
OPLS_2005

> <r_lp_Energy>
57.4125

> <b_lp_Chiralities_Consistent>
1

> <s_lp_Variant>
AV-unprocessed.smi:282-7

> <Gold.Version>
5.8.1

> <Gold.Id.Protein>
6NUR|6NUR_protein|mol2

> <Gold.PLP.Fitness>
45.0959

> <Gold.PLP.PLP>
-39.4267

> <Gold.PLP.part.hbond>
-2.0000

> <Gold.PLP.part.metal>
0.0000

> <Gold.PLP.part.buried>
-7.0289

> <Gold.PLP.part.nonpolar>
-30.5029

> <Gold.PLP.part.repulsive>
0.1027

> <Gold.PLP.ligand.clash>
0.0000

> <Gold.PLP.ligand.torsion>
0.2680

> <Gold.PLP.Chemscore.Hbond>
2.0000

> <Gold.PLP.Chemscore.CHOScore>
0.0000

> <Gold.PLP.Chemscore.Metal>
0.0000

> <Gold.Chemscore.Hbonds>
donor molecule, donor type, donor heavy atom, donor atom, acceptor molecule, acceptor atom, score
      P1  H  6896  6908       L1    16  0.98
      P1  H  6931  6943       L1    28  0.69

> <Gold.PLP.Chemscore.Internal.Correction>
0.2052

> <Gold.Rescore>
     Score         DG    S(hbond)    S(metal)    S(lipo)     H(rot)  DE(clash)    DE(int)     intcor
     16.79     -17.10       1.90        0.00      98.72       2.46       0.02       0.28       ----

> <Gold.Chemscore.Fitness>
16.7920

> <Gold.Chemscore.DG>
-17.0956

> <Gold.Chemscore.ZeroCoef>
-5.4800

> <Gold.Chemscore.Hbond>
1.9032

> <Gold.Chemscore.Metal>
0.0000

> <Gold.Chemscore.Lipo>
98.7206

> <Gold.Chemscore.Internal_Hbond>
0.0000

> <Gold.Chemscore.DEClash>
0.0202

> <Gold.Chemscore.DEInternal>
0.2833

> <Gold.Chemscore.Rot>
2.4576

> <Gold.Chemscore.Internal.Correction>
   9.000000E+99

> <Gold.Chemscore.Hbonds>
donor molecule, donor type, donor heavy atom, donor atom, acceptor molecule, acceptor atom, score
      P1  H  6896  6908       L1    16  0.90
      P1  H  6931  6943       L1    28  0.12

> <Gold.Chemscore.Hbond.Weighted>
-6.3568

> <Gold.Chemscore.Metal.Weighted>
-0.0000

> <Gold.Chemscore.Lipo.Weighted>
-11.5503

> <Gold.Chemscore.Internal_Hbond.Weighted>
0.0000

> <Gold.Chemscore.DEClash.Weighted>
0.0202

> <Gold.Chemscore.DEInternal.Weighted>
0.2833

> <Gold.Chemscore.Rot.Weighted>
6.2915

> <Gold.Chemscore.Internal.Correction.Weighted>
   9.000000E+99

> <Gold.Protein.RotatedTorsions>
[ 6907 6896 6895 6894 ] final   99.93 input  -60.11 | X-H torsion
[ 7974 7965 7964 7962 ] final -121.80 input  175.53 | X-H torsion
[ 8008 7997 7996 7995 ] final -154.30 input   59.86 | X-H torsion
[ 10167 10162 10161 10158 ] final   -5.91 input  -65.29 | X-H torsion
[ 10718 10713 10712 10709 ] final  151.59 input   66.30 | X-H torsion
[ 10763 10752 10751 10750 ] final  156.86 input  -60.55 | X-H torsion
[ 11005 11000 10999 10996 ] final   62.09 input  -57.11 | X-H torsion

> <Gold.Protein.ActiveResidues>
 VAL166  LYS551  ARG553  GLY616  TRP617  ASP618  TYR619  PRO620  LYS621  CYS622 
 ASP623  PHE694  ASN695  SER759  ASP760  ASP761  ALA762  ILE779  LEU786  VAL792 
 PHE793  MET794  SER795  GLU796  ALA797  LYS798  CYS799  TRP800  GLU811  SER814 

> <Gold.Protein.RotatedAtoms>
  152.5382  134.0354  159.8043 H   0  0  0  0  0  0  0  0  0  0  0  0  # atno 6907 bound_to 6896
  151.0518  133.5610  159.2649 H   0  0  0  0  0  0  0  0  0  0  0  0  # atno 6908 bound_to 6896
  151.2541  135.0640  159.9127 H   0  0  0  0  0  0  0  0  0  0  0  0  # atno 6909 bound_to 6896
  145.0364  140.8109  143.4292 H   0  0  0  0  0  0  0  0  0  0  0  0  # atno 7974 bound_to 7965
  155.6843  140.0748  157.2473 H   0  0  0  0  0  0  0  0  0  0  0  0  # atno 8008 bound_to 7997
  154.4100  140.1676  156.2068 H   0  0  0  0  0  0  0  0  0  0  0  0  # atno 8009 bound_to 7997
  155.9507  140.3377  155.6409 H   0  0  0  0  0  0  0  0  0  0  0  0  # atno 8010 bound_to 7997
  140.6979  143.6255  150.8572 H   0  0  0  0  0  0  0  0  0  0  0  0  # atno 10167 bound_to 10162
  157.2687  131.0812  151.1615 H   0  0  0  0  0  0  0  0  0  0  0  0  # atno 10718 bound_to 10713
  154.1910  135.2795  155.3022 H   0  0  0  0  0  0  0  0  0  0  0  0  # atno 10763 bound_to 10752
  154.5929  135.5554  153.7299 H   0  0  0  0  0  0  0  0  0  0  0  0  # atno 10764 bound_to 10752
  153.0112  135.6372  154.2049 H   0  0  0  0  0  0  0  0  0  0  0  0  # atno 10765 bound_to 10752
  140.0116  134.6288  155.9772 H   0  0  0  0  0  0  0  0  0  0  0  0  # atno 11005 bound_to 11000
  145.1704  139.2408  143.5345 LP  0  0  0  0  0  0  0  0  0  0  0  0  # atno 17320 bound_to 7965
  146.3504  140.1453  142.8593 LP  0  0  0  0  0  0  0  0  0  0  0  0  # atno 17321 bound_to 7965
  139.9974  143.5781  152.2888 LP  0  0  0  0  0  0  0  0  0  0  0  0  # atno 17342 bound_to 10162
  139.6458  144.7658  151.2247 LP  0  0  0  0  0  0  0  0  0  0  0  0  # atno 17343 bound_to 10162
  157.3095  130.6883  149.6208 LP  0  0  0  0  0  0  0  0  0  0  0  0  # atno 17370 bound_to 10713
  155.9663  130.4368  150.5147 LP  0  0  0  0  0  0  0  0  0  0  0  0  # atno 17371 bound_to 10713
  141.1714  133.6537  156.4667 LP  0  0  0  0  0  0  0  0  0  0  0  0  # atno 17394 bound_to 11000
  140.4545  134.6898  157.5056 LP  0  0  0  0  0  0  0  0  0  0  0  0  # atno 17395 bound_to 11000

$$$$
