AV-unprocessed.smi:1965|AV-procd|sdf|7943|dock2
  -GOLD-   2272010113D 1   1.00000     0.00000
 Structure written by MMmdl.
 36 38  0  0  0  0  0  0  0  0  3 V2000
  146.9289  140.0220  155.1416 O   0  0  0  0  0  0  0  0  0  0  0  0
  147.8962  139.9438  154.3855 C   0  0  0  0  0  0  0  0  0  0  0  0
  149.1373  140.3959  154.7031 N   0  5  0  0  0  0  0  0  0  0  0  0
  150.2258  139.6048  154.6657 C   0  0  0  0  0  0  0  0  0  0  0  0
  151.4704  140.0643  154.8386 N   0  0  0  0  0  0  0  0  0  0  0  0
  152.4467  139.0704  154.7506 C   0  0  0  0  0  0  0  0  0  0  0  0
  151.9334  137.8247  154.5050 C   0  0  0  0  0  0  0  0  0  0  0  0
  150.1975  137.8618  154.3831 S   0  0  0  0  0  0  0  0  0  0  0  0
  147.7307  139.3842  153.1733 N   0  0  0  0  0  0  0  0  0  0  0  0
  146.4959  138.8254  152.6340 C   0  0  1  0  0  0  0  0  0  0  0  0
  146.5160  138.6474  151.1003 C   0  0  0  0  0  0  0  0  0  0  0  0
  145.9750  137.2348  150.8571 C   0  0  0  0  0  0  0  0  0  0  0  0
  146.3954  136.5043  152.0592 N   0  3  2  0  0  0  0  0  0  0  0  0
  145.8212  135.1645  152.3000 C   0  0  0  0  0  0  0  0  0  0  0  0
  146.5206  134.5401  153.5267 C   0  0  0  0  0  0  0  0  0  0  0  0
  146.4858  135.4739  154.7575 C   0  0  0  0  0  0  0  0  0  0  0  0
  146.9913  136.8897  154.4097 C   0  0  0  0  0  0  0  0  0  0  0  0
  146.2031  137.4190  153.1969 C   0  0  1  0  0  0  0  0  0  0  0  0
  153.4848  139.3399  154.8762 H   0  0  0  0  0  0  0  0  0  0  0  0
  152.4657  136.8920  154.3944 H   0  0  0  0  0  0  0  0  0  0  0  0
  148.5449  139.3390  152.5782 H   0  0  0  0  0  0  0  0  0  0  0  0
  145.6726  139.4844  152.9161 H   0  0  0  0  0  0  0  0  0  0  0  0
  145.9317  139.4094  150.5839 H   0  0  0  0  0  0  0  0  0  0  0  0
  147.5387  138.7102  150.7246 H   0  0  0  0  0  0  0  0  0  0  0  0
  144.8856  137.2471  150.7953 H   0  0  0  0  0  0  0  0  0  0  0  0
  146.3695  136.7842  149.9459 H   0  0  0  0  0  0  0  0  0  0  0  0
  144.7452  135.2414  152.4636 H   0  0  0  0  0  0  0  0  0  0  0  0
  145.9719  134.5368  151.4211 H   0  0  0  0  0  0  0  0  0  0  0  0
  146.0615  133.5819  153.7716 H   0  0  0  0  0  0  0  0  0  0  0  0
  147.5600  134.3258  153.2738 H   0  0  0  0  0  0  0  0  0  0  0  0
  145.4632  135.5379  155.1314 H   0  0  0  0  0  0  0  0  0  0  0  0
  147.0827  135.0514  155.5662 H   0  0  0  0  0  0  0  0  0  0  0  0
  146.8664  137.5536  155.2660 H   0  0  0  0  0  0  0  0  0  0  0  0
  148.0591  136.8560  154.1880 H   0  0  0  0  0  0  0  0  0  0  0  0
  145.1411  137.4038  153.4522 H   0  0  0  0  0  0  0  0  0  0  0  0
  147.3937  136.3818  151.9662 H   0  0  0  0  0  0  0  0  0  0  0  0
  1  2  2  0  0  0  0
  2  3  1  0  0  0  0
  2  9  1  0  0  0  0
  3  4  1  0  0  0  0
  4  8  1  0  0  0  0
  4  5  2  0  0  0  0
  5  6  1  0  0  0  0
  6  7  2  0  0  0  0
  6 19  1  0  0  0  0
  7  8  1  0  0  0  0
  7 20  1  0  0  0  0
  9 10  1  0  0  0  0
  9 21  1  0  0  0  0
 10 18  1  0  0  0  0
 10 11  1  0  0  0  0
 10 22  1  0  0  0  0
 11 12  1  0  0  0  0
 11 23  1  0  0  0  0
 11 24  1  0  0  0  0
 12 13  1  0  0  0  0
 12 25  1  0  0  0  0
 12 26  1  0  0  0  0
 13 18  1  0  0  0  0
 13 14  1  0  0  0  0
 13 36  1  0  0  0  0
 14 15  1  0  0  0  0
 14 27  1  0  0  0  0
 14 28  1  0  0  0  0
 15 16  1  0  0  0  0
 15 29  1  0  0  0  0
 15 30  1  0  0  0  0
 16 17  1  0  0  0  0
 16 31  1  0  0  0  0
 16 32  1  0  0  0  0
 17 18  1  0  0  0  0
 17 33  1  0  0  0  0
 17 34  1  0  0  0  0
 18 35  1  0  0  0  0
M  CHG  1   3  -1
M  CHG  1  13   1
M  END
> <s_m_source_file>
AV-unprocessed.smi

> <i_m_source_file_index>
1965

> <i_lp_mmshare_version>
43012

> <i_f3d_flags>
0

> <s_epik_input>
czFbY0hdW2NIXW5jMVtOSF1DKD1PKVtOSF1bQ0BIXShbQ0gyXVtDSDJdMilbQ0BASF0oTjIzKVtDSDJdW0NIMl1bQ0gyXVtDSDJdMw==

> <s_epik_cmdline>
J2VwaWtfcHl0aG9uJywgJy1waCcsICc3LjAnLCAnLXRuJywgJzgnLCAnLW1hJywgJzIwMCcsICctbWV0YWxfYmluZGluZycsICctaW1hZScsICc8aW5maWxlLm1hZT4nLCAnLW9tYWUnLCAnPG91dGZpbGUubWFlPic=

> <r_lp_tautomer_probability>
1

> <r_epik_Ionization_Penalty>
7.4116

> <r_epik_Ionization_Penalty_Charging>
6.13869

> <r_epik_Ionization_Penalty_Neutral>
1.27291

> <r_epik_State_Penalty>
6.13761

> <r_epik_Charging_Adjusted_Penalty>
12.2763

> <i_epik_Tot_Q>
0

> <i_epik_Tot_abs_Q>
2

> <r_epik_Metal_State_Penalty>
2.08142

> <b_epik_Metal_Only>
1

> <s_lp_Force_Field>
OPLS_2005

> <r_lp_Energy>
32.5812

> <b_lp_Chiralities_Consistent>
1

> <s_lp_Variant>
AV-unprocessed.smi:1965-12

> <Gold.Version>
5.8.1

> <Gold.Id.Protein>
6NUR|6NUR_protein|mol2

> <Gold.PLP.Fitness>
35.7767

> <Gold.PLP.PLP>
-25.3076

> <Gold.PLP.part.hbond>
-3.0000

> <Gold.PLP.part.metal>
0.0000

> <Gold.PLP.part.buried>
4.9709

> <Gold.PLP.part.nonpolar>
-28.2548

> <Gold.PLP.part.repulsive>
0.2931

> <Gold.PLP.ligand.clash>
0.0000

> <Gold.PLP.ligand.torsion>
0.7688

> <Gold.PLP.Chemscore.Hbond>
4.0000

> <Gold.PLP.Chemscore.CHOScore>
0.0000

> <Gold.PLP.Chemscore.Metal>
0.0000

> <Gold.Chemscore.Hbonds>
donor molecule, donor type, donor heavy atom, donor atom, acceptor molecule, acceptor atom, score
      L1  H     9    21       P1  7957  1.00
      L1  H    13    36       P1  7948  2.00
      P1  H  7989  7998       L1     5  1.00

> <Gold.PLP.Chemscore.Internal.Correction>
0.0067

> <Gold.Rescore>
     Score         DG    S(hbond)    S(metal)    S(lipo)     H(rot)  DE(clash)    DE(int)     intcor
     16.70     -19.61       2.75        0.00      64.17       1.00       1.99       0.92       ----

> <Gold.Chemscore.Fitness>
16.7025

> <Gold.Chemscore.DG>
-19.6143

> <Gold.Chemscore.ZeroCoef>
-5.4800

> <Gold.Chemscore.Hbond>
2.7504

> <Gold.Chemscore.Metal>
0.0000

> <Gold.Chemscore.Lipo>
64.1716

> <Gold.Chemscore.Internal_Hbond>
0.0000

> <Gold.Chemscore.DEClash>
1.9895

> <Gold.Chemscore.DEInternal>
0.9223

> <Gold.Chemscore.Rot>
1.0000

> <Gold.Chemscore.Internal.Correction>
   9.000000E+99

> <Gold.Chemscore.Hbonds>
donor molecule, donor type, donor heavy atom, donor atom, acceptor molecule, acceptor atom, score
      L1  H     9    21       P1  7957  0.95
      L1  H    13    36       P1  7948  0.95
      P1  H  7989  7998       L1     5  0.10

> <Gold.Chemscore.Hbond.Weighted>
-9.1863

> <Gold.Chemscore.Metal.Weighted>
-0.0000

> <Gold.Chemscore.Lipo.Weighted>
-7.5081

> <Gold.Chemscore.Internal_Hbond.Weighted>
0.0000

> <Gold.Chemscore.DEClash.Weighted>
1.9895

> <Gold.Chemscore.DEInternal.Weighted>
0.9223

> <Gold.Chemscore.Rot.Weighted>
2.5600

> <Gold.Chemscore.Internal.Correction.Weighted>
   9.000000E+99

> <Gold.Protein.RotatedTorsions>
[ 6907 6896 6895 6894 ] final -142.39 input  -60.11 | X-H torsion
[ 7974 7965 7964 7962 ] final  135.44 input  175.53 | X-H torsion
[ 8008 7997 7996 7995 ] final   16.09 input   59.86 | X-H torsion
[ 10167 10162 10161 10158 ] final -121.60 input  -65.29 | X-H torsion
[ 10718 10713 10712 10709 ] final  130.25 input   66.30 | X-H torsion
[ 10763 10752 10751 10750 ] final  -48.05 input  -60.55 | X-H torsion
[ 11005 11000 10999 10996 ] final -173.49 input  -57.11 | X-H torsion

> <Gold.Protein.ActiveResidues>
 VAL166  LYS551  ARG553  GLY616  TRP617  ASP618  TYR619  PRO620  LYS621  CYS622 
 ASP623  PHE694  ASN695  SER759  ASP760  ASP761  ALA762  ILE779  LEU786  VAL792 
 PHE793  MET794  SER795  GLU796  ALA797  LYS798  CYS799  TRP800  GLU811  SER814 

> <Gold.Protein.RotatedAtoms>
  151.0864  133.5349  159.2617 H   0  0  0  0  0  0  0  0  0  0  0  0  # atno 6907 bound_to 6896
  151.2233  135.0526  159.8968 H   0  0  0  0  0  0  0  0  0  0  0  0  # atno 6908 bound_to 6896
  152.5429  134.0664  159.8228 H   0  0  0  0  0  0  0  0  0  0  0  0  # atno 6909 bound_to 6896
  144.9663  139.4654  143.5455 H   0  0  0  0  0  0  0  0  0  0  0  0  # atno 7974 bound_to 7965
  154.8720  140.2960  155.5476 H   0  0  0  0  0  0  0  0  0  0  0  0  # atno 8008 bound_to 7997
  156.3021  140.2458  156.3643 H   0  0  0  0  0  0  0  0  0  0  0  0  # atno 8009 bound_to 7997
  154.8807  140.0398  157.1769 H   0  0  0  0  0  0  0  0  0  0  0  0  # atno 8010 bound_to 7997
  140.0233  143.5322  152.2211 H   0  0  0  0  0  0  0  0  0  0  0  0  # atno 10167 bound_to 10162
  157.5079  131.1096  150.9335 H   0  0  0  0  0  0  0  0  0  0  0  0  # atno 10718 bound_to 10713
  154.0714  135.6604  153.4825 H   0  0  0  0  0  0  0  0  0  0  0  0  # atno 10763 bound_to 10752
  153.0389  135.5158  154.7563 H   0  0  0  0  0  0  0  0  0  0  0  0  # atno 10764 bound_to 10752
  154.6630  135.3018  154.9810 H   0  0  0  0  0  0  0  0  0  0  0  0  # atno 10765 bound_to 10752
  140.4851  134.6038  157.4934 H   0  0  0  0  0  0  0  0  0  0  0  0  # atno 11005 bound_to 11000
  146.3369  139.8846  142.8819 LP  0  0  0  0  0  0  0  0  0  0  0  0  # atno 17320 bound_to 7965
  145.2625  141.0082  143.3818 LP  0  0  0  0  0  0  0  0  0  0  0  0  # atno 17321 bound_to 7965
  139.6125  144.7612  151.2920 LP  0  0  0  0  0  0  0  0  0  0  0  0  # atno 17342 bound_to 10162
  140.7333  143.6798  150.8011 LP  0  0  0  0  0  0  0  0  0  0  0  0  # atno 17343 bound_to 10162
  156.9985  130.5590  149.5309 LP  0  0  0  0  0  0  0  0  0  0  0  0  # atno 17370 bound_to 10713
  156.0270  130.5363  150.8433 LP  0  0  0  0  0  0  0  0  0  0  0  0  # atno 17371 bound_to 10713
  139.9802  134.7149  155.9873 LP  0  0  0  0  0  0  0  0  0  0  0  0  # atno 17394 bound_to 11000
  141.1512  133.6548  156.4018 LP  0  0  0  0  0  0  0  0  0  0  0  0  # atno 17395 bound_to 11000

$$$$
