AV-unprocessed.smi:2871|AV-procd|sdf|11033|dock3
  -GOLD-   2272015493D 1   1.00000     0.00000
 Structure written by MMmdl.
 38 40  0  0  0  0  0  0  0  0  1 V2000
  152.0592  145.0025  159.8689 C   0  0  0  0  0  0  0  0  0  0  0  0
  152.1598  143.6188  160.3147 N   0  0  0  0  0  0  0  0  0  0  0  0
  152.6053  143.3151  161.6706 C   0  0  0  0  0  0  0  0  0  0  0  0
  151.7864  142.5670  159.4490 C   0  0  0  0  0  0  0  0  0  0  0  0
  152.3016  141.2555  159.5931 C   0  0  0  0  0  0  0  0  0  0  0  0
  151.8570  140.2860  158.6659 C   0  0  0  0  0  0  0  0  0  0  0  0
  152.3358  138.8429  158.7131 C   0  0  0  0  0  0  0  0  0  0  0  0
  153.2155  138.6483  159.6965 F   0  0  0  0  0  0  0  0  0  0  0  0
  151.2969  138.0309  158.9095 F   0  0  0  0  0  0  0  0  0  0  0  0
  152.9180  138.5246  157.5568 F   0  0  0  0  0  0  0  0  0  0  0  0
  150.9809  140.5964  157.6843 N   0  0  0  0  0  0  0  0  0  0  0  0
  150.5533  141.8572  157.6300 C   0  0  0  0  0  0  0  0  0  0  0  0
  149.6626  142.1412  156.6112 N   0  0  0  0  0  0  0  0  0  0  0  0
  148.8765  141.1418  155.8983 C   0  0  1  0  0  0  0  0  0  0  0  0
  147.6239  141.7244  155.2318 C   0  0  0  0  0  0  0  0  0  0  0  0
  147.8164  141.2984  153.7711 C   0  0  2  0  0  0  0  0  0  0  0  0
  147.6762  139.7816  153.5829 C   0  0  0  0  0  0  0  0  0  0  0  0
  148.9774  139.2685  154.1993 C   0  0  0  0  0  0  0  0  0  0  0  0
  149.6306  140.5688  154.6867 C   0  0  1  0  0  0  0  0  0  0  0  0
  149.2199  141.4495  153.6529 O   0  0  0  0  0  0  0  0  0  0  0  0
  150.9074  142.8461  158.4565 N   0  0  0  0  0  0  0  0  0  0  0  0
  152.6833  145.1689  158.9901 H   0  0  0  0  0  0  0  0  0  0  0  0
  152.3871  145.6943  160.6446 H   0  0  0  0  0  0  0  0  0  0  0  0
  151.0275  145.2496  159.6163 H   0  0  0  0  0  0  0  0  0  0  0  0
  153.5046  142.6988  161.6484 H   0  0  0  0  0  0  0  0  0  0  0  0
  151.8304  142.7768  162.2175 H   0  0  0  0  0  0  0  0  0  0  0  0
  152.8360  144.2236  162.2269 H   0  0  0  0  0  0  0  0  0  0  0  0
  153.0029  140.9935  160.3703 H   0  0  0  0  0  0  0  0  0  0  0  0
  149.4974  143.1146  156.4002 H   0  0  0  0  0  0  0  0  0  0  0  0
  148.6205  140.3389  156.5910 H   0  0  0  0  0  0  0  0  0  0  0  0
  146.7006  141.3358  155.6627 H   0  0  0  0  0  0  0  0  0  0  0  0
  147.5977  142.8128  155.3045 H   0  0  0  0  0  0  0  0  0  0  0  0
  147.2394  141.8891  153.0591 H   0  0  0  0  0  0  0  0  0  0  0  0
  146.7878  139.3846  154.0754 H   0  0  0  0  0  0  0  0  0  0  0  0
  147.6263  139.5227  152.5248 H   0  0  0  0  0  0  0  0  0  0  0  0
  148.8124  138.5548  155.0070 H   0  0  0  0  0  0  0  0  0  0  0  0
  149.5955  138.7875  153.4403 H   0  0  0  0  0  0  0  0  0  0  0  0
  150.7106  140.4914  154.8181 H   0  0  0  0  0  0  0  0  0  0  0  0
  1  2  1  0  0  0  0
  1 22  1  0  0  0  0
  1 23  1  0  0  0  0
  1 24  1  0  0  0  0
  2  3  1  0  0  0  0
  2  4  1  0  0  0  0
  3 25  1  0  0  0  0
  3 26  1  0  0  0  0
  3 27  1  0  0  0  0
  4 21  1  0  0  0  0
  4  5  2  0  0  0  0
  5  6  1  0  0  0  0
  5 28  1  0  0  0  0
  6  7  1  0  0  0  0
  6 11  2  0  0  0  0
  7  8  1  0  0  0  0
  7  9  1  0  0  0  0
  7 10  1  0  0  0  0
 11 12  1  0  0  0  0
 12 13  1  0  0  0  0
 12 21  2  0  0  0  0
 13 14  1  0  0  0  0
 13 29  1  0  0  0  0
 14 19  1  0  0  0  0
 14 15  1  0  0  0  0
 14 30  1  0  0  0  0
 15 16  1  0  0  0  0
 15 31  1  0  0  0  0
 15 32  1  0  0  0  0
 16 20  1  0  0  0  0
 16 17  1  0  0  0  0
 16 33  1  0  0  0  0
 17 18  1  0  0  0  0
 17 34  1  0  0  0  0
 17 35  1  0  0  0  0
 18 19  1  0  0  0  0
 18 36  1  0  0  0  0
 18 37  1  0  0  0  0
 19 20  1  0  0  0  0
 19 38  1  0  0  0  0
M  END
> <s_m_source_file>
AV-unprocessed.smi

> <i_m_source_file_index>
2871

> <i_lp_mmshare_version>
43012

> <i_f3d_flags>
0

> <s_epik_input>
W0NIM11OKFtDSDNdKWMxW2NIXWMoQyhGKShGKUYpbmMobjEpW05IXVtDQEhdKFtDSDJdW0NAQEhdMjMpW0NAQEhdKE8zKVtDSDJdW0NIMl0y

> <s_epik_cmdline>
J2VwaWtfcHl0aG9uJywgJy1waCcsICc3LjAnLCAnLXRuJywgJzgnLCAnLW1hJywgJzIwMCcsICctbWV0YWxfYmluZGluZycsICctaW1hZScsICc8aW5maWxlLm1hZT4nLCAnLW9tYWUnLCAnPG91dGZpbGUubWFlPic=

> <r_lp_tautomer_probability>
1

> <r_epik_Ionization_Penalty>
0.00695968

> <r_epik_Ionization_Penalty_Charging>
0

> <r_epik_Ionization_Penalty_Neutral>
0.00695968

> <r_epik_State_Penalty>
0.0050343

> <r_epik_Charging_Adjusted_Penalty>
0.0050343

> <i_epik_Tot_Q>
0

> <i_epik_Tot_abs_Q>
0

> <r_epik_Metal_State_Penalty>
-0

> <b_epik_Metal_Only>
0

> <s_lp_Force_Field>
OPLS_2005

> <r_lp_Energy>
32.5699

> <b_lp_Chiralities_Consistent>
1

> <s_lp_Variant>
AV-unprocessed.smi:2871-4

> <Gold.Version>
5.8.1

> <Gold.Id.Protein>
6NUR|6NUR_protein|mol2

> <Gold.PLP.Fitness>
45.2371

> <Gold.PLP.PLP>
-41.0675

> <Gold.PLP.part.hbond>
-3.0000

> <Gold.PLP.part.metal>
0.0000

> <Gold.PLP.part.buried>
-5.7426

> <Gold.PLP.part.nonpolar>
-33.9835

> <Gold.PLP.part.repulsive>
1.8983

> <Gold.PLP.ligand.clash>
0.0000

> <Gold.PLP.ligand.torsion>
0.7007

> <Gold.PLP.Chemscore.Hbond>
1.8480

> <Gold.PLP.Chemscore.CHOScore>
0.0000

> <Gold.PLP.Chemscore.Metal>
0.0000

> <Gold.Chemscore.Hbonds>
donor molecule, donor type, donor heavy atom, donor atom, acceptor molecule, acceptor atom, score
      L1  H    13    29       P1  8028  1.00
      P1  H  8011  8017       L1    20  0.82

> <Gold.PLP.Chemscore.Internal.Correction>
0.0270

> <Gold.Rescore>
     Score         DG    S(hbond)    S(metal)    S(lipo)     H(rot)  DE(clash)    DE(int)     intcor
     17.05     -18.41       1.84        0.00      79.78       1.00       0.56       0.79       ----

> <Gold.Chemscore.Fitness>
17.0505

> <Gold.Chemscore.DG>
-18.4068

> <Gold.Chemscore.ZeroCoef>
-5.4800

> <Gold.Chemscore.Hbond>
1.8420

> <Gold.Chemscore.Metal>
0.0000

> <Gold.Chemscore.Lipo>
79.7825

> <Gold.Chemscore.Internal_Hbond>
0.0000

> <Gold.Chemscore.DEClash>
0.5640

> <Gold.Chemscore.DEInternal>
0.7922

> <Gold.Chemscore.Rot>
1.0000

> <Gold.Chemscore.Internal.Correction>
   9.000000E+99

> <Gold.Chemscore.Hbonds>
donor molecule, donor type, donor heavy atom, donor atom, acceptor molecule, acceptor atom, score
      L1  H    13    29       P1  8028  1.00
      P1  H  8011  8017       L1    20  0.77

> <Gold.Chemscore.Hbond.Weighted>
-6.1522

> <Gold.Chemscore.Metal.Weighted>
-0.0000

> <Gold.Chemscore.Lipo.Weighted>
-9.3345

> <Gold.Chemscore.Internal_Hbond.Weighted>
0.0000

> <Gold.Chemscore.DEClash.Weighted>
0.5640

> <Gold.Chemscore.DEInternal.Weighted>
0.7922

> <Gold.Chemscore.Rot.Weighted>
2.5600

> <Gold.Chemscore.Internal.Correction.Weighted>
   9.000000E+99

> <Gold.Protein.RotatedTorsions>
[ 6907 6896 6895 6894 ] final -112.93 input  -60.11 | X-H torsion
[ 7974 7965 7964 7962 ] final  179.69 input  175.53 | X-H torsion
[ 8008 7997 7996 7995 ] final  164.27 input   59.86 | X-H torsion
[ 10167 10162 10161 10158 ] final  119.11 input  -65.29 | X-H torsion
[ 10718 10713 10712 10709 ] final   20.77 input   66.30 | X-H torsion
[ 10763 10752 10751 10750 ] final   58.05 input  -60.55 | X-H torsion
[ 11005 11000 10999 10996 ] final  117.09 input  -57.11 | X-H torsion

> <Gold.Protein.ActiveResidues>
 VAL166  LYS551  ARG553  GLY616  TRP617  ASP618  TYR619  PRO620  LYS621  CYS622 
 ASP623  PHE694  ASN695  SER759  ASP760  ASP761  ALA762  ILE779  LEU786  VAL792 
 PHE793  MET794  SER795  GLU796  ALA797  LYS798  CYS799  TRP800  GLU811  SER814 

> <Gold.Protein.RotatedAtoms>
  150.7793  133.9017  159.3343 H   0  0  0  0  0  0  0  0  0  0  0  0  # atno 6907 bound_to 6896
  151.6884  135.0948  160.0238 H   0  0  0  0  0  0  0  0  0  0  0  0  # atno 6908 bound_to 6896
  152.3840  133.6546  159.6219 H   0  0  0  0  0  0  0  0  0  0  0  0  # atno 6909 bound_to 6896
  144.7143  140.0587  143.6433 H   0  0  0  0  0  0  0  0  0  0  0  0  # atno 7974 bound_to 7965
  156.1893  140.1701  156.8124 H   0  0  0  0  0  0  0  0  0  0  0  0  # atno 8008 bound_to 7997
  154.5451  140.0728  156.8608 H   0  0  0  0  0  0  0  0  0  0  0  0  # atno 8009 bound_to 7997
  155.3137  140.3369  155.4245 H   0  0  0  0  0  0  0  0  0  0  0  0  # atno 8010 bound_to 7997
  139.6068  144.7072  151.2936 H   0  0  0  0  0  0  0  0  0  0  0  0  # atno 10167 bound_to 10162
  157.1292  130.6583  149.5946 H   0  0  0  0  0  0  0  0  0  0  0  0  # atno 10718 bound_to 10713
  152.9862  135.5620  154.5489 H   0  0  0  0  0  0  0  0  0  0  0  0  # atno 10763 bound_to 10752
  154.4930  135.2793  155.1484 H   0  0  0  0  0  0  0  0  0  0  0  0  # atno 10764 bound_to 10752
  154.2945  135.6319  153.5452 H   0  0  0  0  0  0  0  0  0  0  0  0  # atno 10765 bound_to 10752
  139.9063  134.9606  156.7298 H   0  0  0  0  0  0  0  0  0  0  0  0  # atno 11005 bound_to 11000
  145.9883  139.2994  143.1000 LP  0  0  0  0  0  0  0  0  0  0  0  0  # atno 17320 bound_to 7965
  145.8932  140.9290  143.0541 LP  0  0  0  0  0  0  0  0  0  0  0  0  # atno 17321 bound_to 7965
  140.7290  143.6919  150.7915 LP  0  0  0  0  0  0  0  0  0  0  0  0  # atno 17342 bound_to 10162
  140.0506  143.5253  152.2675 LP  0  0  0  0  0  0  0  0  0  0  0  0  # atno 17343 bound_to 10162
  155.9811  130.4817  150.6812 LP  0  0  0  0  0  0  0  0  0  0  0  0  # atno 17370 bound_to 10713
  157.4408  131.0861  151.0945 LP  0  0  0  0  0  0  0  0  0  0  0  0  # atno 17371 bound_to 10713
  140.6934  133.9370  155.7980 LP  0  0  0  0  0  0  0  0  0  0  0  0  # atno 17394 bound_to 11000
  141.0425  134.0601  157.3885 LP  0  0  0  0  0  0  0  0  0  0  0  0  # atno 17395 bound_to 11000

$$$$
