AV-unprocessed.smi:2355|AV-procd|sdf|9392|dock8
  -GOLD-   2272013 23D 1   1.00000     0.00000
 Structure written by MMmdl.
 49 50  0  0  0  0  0  0  0  0  2 V2000
  151.0596  145.2551  159.6087 C   0  0  0  0  0  0  0  0  0  0  0  0
  151.5428  143.8525  159.3063 C   0  0  0  0  0  0  0  0  0  0  0  0
  150.8246  143.0154  158.4313 C   0  0  0  0  0  0  0  0  0  0  0  0
  151.3220  141.7193  158.1930 C   0  0  0  0  0  0  0  0  0  0  0  0
  150.6010  140.7665  157.2629 C   0  0  0  0  0  0  0  0  0  0  0  0
  152.4491  141.2461  158.7666 N   0  0  0  0  0  0  0  0  0  0  0  0
  153.1502  142.0445  159.6095 C   0  0  0  0  0  0  0  0  0  0  0  0
  154.3445  141.6406  160.2637 N   0  0  0  0  0  0  0  0  0  0  0  0
  155.0440  140.5073  160.0811 C   0  0  0  0  0  0  0  0  0  0  0  0
  154.7768  139.6306  159.2583 O   0  0  0  0  0  0  0  0  0  0  0  0
  156.0806  140.4291  160.9300 N   0  0  0  0  0  0  0  0  0  0  0  0
  157.0345  139.3205  161.0165 C   0  0  1  0  0  0  0  0  0  0  0  0
  158.3714  139.7514  160.3905 C   0  0  0  0  0  0  0  0  0  0  0  0
  157.1746  138.7825  162.4732 C   0  0  1  0  0  0  0  0  0  0  0  0
  157.7675  139.8554  163.4206 C   0  0  0  0  0  0  0  0  0  0  0  0
  155.8695  138.2117  162.9446 N   0  3  0  0  0  0  0  0  0  0  0  0
  155.2767  137.2521  161.9767 C   0  0  0  0  0  0  0  0  0  0  0  0
  153.8643  136.8396  162.4203 C   0  0  0  0  0  0  0  0  0  0  0  0
  153.9276  136.2624  163.7169 O   0  0  0  0  0  0  0  0  0  0  0  0
  154.4133  137.1875  164.6798 C   0  0  0  0  0  0  0  0  0  0  0  0
  155.8412  137.6272  164.3120 C   0  0  0  0  0  0  0  0  0  0  0  0
  152.7207  143.3581  159.9020 C   0  0  0  0  0  0  0  0  0  0  0  0
  150.3322  145.5881  158.8680 H   0  0  0  0  0  0  0  0  0  0  0  0
  151.8940  145.9569  159.6038 H   0  0  0  0  0  0  0  0  0  0  0  0
  150.5888  145.2868  160.5913 H   0  0  0  0  0  0  0  0  0  0  0  0
  149.9166  143.3573  157.9560 H   0  0  0  0  0  0  0  0  0  0  0  0
  149.7911  141.2685  156.7334 H   0  0  0  0  0  0  0  0  0  0  0  0
  150.1768  139.9361  157.8276 H   0  0  0  0  0  0  0  0  0  0  0  0
  151.2909  140.3622  156.5215 H   0  0  0  0  0  0  0  0  0  0  0  0
  154.6910  142.2779  160.9656 H   0  0  0  0  0  0  0  0  0  0  0  0
  156.2237  141.1966  161.5706 H   0  0  0  0  0  0  0  0  0  0  0  0
  156.6733  138.5135  160.3787 H   0  0  0  0  0  0  0  0  0  0  0  0
  159.1138  138.9563  160.4632 H   0  0  0  0  0  0  0  0  0  0  0  0
  158.7834  140.6408  160.8671 H   0  0  0  0  0  0  0  0  0  0  0  0
  158.2459  139.9831  159.3320 H   0  0  0  0  0  0  0  0  0  0  0  0
  157.8952  137.9628  162.4619 H   0  0  0  0  0  0  0  0  0  0  0  0
  158.7229  140.2292  163.0551 H   0  0  0  0  0  0  0  0  0  0  0  0
  157.9719  139.4519  164.4123 H   0  0  0  0  0  0  0  0  0  0  0  0
  157.1032  140.7126  163.5336 H   0  0  0  0  0  0  0  0  0  0  0  0
  155.2205  137.6895  160.9809 H   0  0  0  0  0  0  0  0  0  0  0  0
  155.9139  136.3700  161.8990 H   0  0  0  0  0  0  0  0  0  0  0  0
  153.1875  137.6958  162.4184 H   0  0  0  0  0  0  0  0  0  0  0  0
  153.4525  136.1056  161.7276 H   0  0  0  0  0  0  0  0  0  0  0  0
  153.7464  138.0491  164.7423 H   0  0  0  0  0  0  0  0  0  0  0  0
  154.4083  136.7113  165.6601 H   0  0  0  0  0  0  0  0  0  0  0  0
  156.5232  136.7772  164.3657 H   0  0  0  0  0  0  0  0  0  0  0  0
  156.1617  138.3572  165.0547 H   0  0  0  0  0  0  0  0  0  0  0  0
  153.2866  143.9833  160.5776 H   0  0  0  0  0  0  0  0  0  0  0  0
  155.2360  138.9984  162.9820 H   0  0  0  0  0  0  0  0  0  0  0  0
  1  2  1  0  0  0  0
  1 23  1  0  0  0  0
  1 24  1  0  0  0  0
  1 25  1  0  0  0  0
  2 22  1  0  0  0  0
  2  3  2  0  0  0  0
  3  4  1  0  0  0  0
  3 26  1  0  0  0  0
  4  5  1  0  0  0  0
  4  6  2  0  0  0  0
  5 27  1  0  0  0  0
  5 28  1  0  0  0  0
  5 29  1  0  0  0  0
  6  7  1  0  0  0  0
  7  8  1  0  0  0  0
  7 22  2  0  0  0  0
  8  9  1  0  0  0  0
  8 30  1  0  0  0  0
  9 10  2  0  0  0  0
  9 11  1  0  0  0  0
 11 12  1  0  0  0  0
 11 31  1  0  0  0  0
 12 13  1  0  0  0  0
 12 14  1  0  0  0  0
 12 32  1  0  0  0  0
 13 33  1  0  0  0  0
 13 34  1  0  0  0  0
 13 35  1  0  0  0  0
 14 15  1  0  0  0  0
 14 16  1  0  0  0  0
 14 36  1  0  0  0  0
 15 37  1  0  0  0  0
 15 38  1  0  0  0  0
 15 39  1  0  0  0  0
 16 21  1  0  0  0  0
 16 17  1  0  0  0  0
 16 49  1  0  0  0  0
 17 18  1  0  0  0  0
 17 40  1  0  0  0  0
 17 41  1  0  0  0  0
 18 19  1  0  0  0  0
 18 42  1  0  0  0  0
 18 43  1  0  0  0  0
 19 20  1  0  0  0  0
 20 21  1  0  0  0  0
 20 44  1  0  0  0  0
 20 45  1  0  0  0  0
 21 46  1  0  0  0  0
 21 47  1  0  0  0  0
 22 48  1  0  0  0  0
M  CHG  1  16   1
M  END
> <s_m_source_file>
AV-unprocessed.smi

> <i_m_source_file_index>
2355

> <i_lp_mmshare_version>
43012

> <i_f3d_flags>
0

> <s_epik_input>
W0NIM11jMVtjSF1jKFtDSDNdKW5jKFtjSF0xKVtOSF1DKD1PKVtOSF1bQ0BIXShbQ0gzXSlbQ0BIXShbQ0gzXSlOMltDSDJdW0NIMl1PW0NIMl1bQ0gyXTI=

> <s_epik_cmdline>
J2VwaWtfcHl0aG9uJywgJy1waCcsICc3LjAnLCAnLXRuJywgJzgnLCAnLW1hJywgJzIwMCcsICctbWV0YWxfYmluZGluZycsICctaW1hZScsICc8aW5maWxlLm1hZT4nLCAnLW9tYWUnLCAnPG91dGZpbGUubWFlPic=

> <r_epik_Ionization_Penalty>
0.602711

> <r_epik_Ionization_Penalty_Charging>
0.602531

> <r_epik_Ionization_Penalty_Neutral>
0.000180055

> <r_epik_State_Penalty>
0.617039

> <r_epik_Charging_Adjusted_Penalty>
1.21957

> <i_epik_Tot_Q>
1

> <i_epik_Tot_abs_Q>
1

> <r_epik_Metal_State_Penalty>
0.617075

> <b_epik_Metal_Only>
0

> <s_lp_Force_Field>
OPLS_2005

> <r_lp_Energy>
30.3549

> <b_lp_Chiralities_Consistent>
1

> <s_lp_Variant>
AV-unprocessed.smi:2355-8

> <Gold.Version>
5.8.1

> <Gold.Id.Protein>
6NUR|6NUR_protein|mol2

> <Gold.PLP.Fitness>
41.4470

> <Gold.PLP.PLP>
-38.6849

> <Gold.PLP.part.hbond>
-2.0201

> <Gold.PLP.part.metal>
0.0000

> <Gold.PLP.part.buried>
-6.4285

> <Gold.PLP.part.nonpolar>
-30.5145

> <Gold.PLP.part.repulsive>
0.1205

> <Gold.PLP.ligand.clash>
0.0000

> <Gold.PLP.ligand.torsion>
0.1873

> <Gold.PLP.Chemscore.Hbond>
1.0000

> <Gold.PLP.Chemscore.CHOScore>
0.0000

> <Gold.PLP.Chemscore.Metal>
0.0000

> <Gold.Chemscore.Hbonds>
donor molecule, donor type, donor heavy atom, donor atom, acceptor molecule, acceptor atom, score
      P1  H  7997  8009       L1    10  1.00

> <Gold.PLP.Chemscore.Internal.Correction>
0.1367

> <Gold.Rescore>
     Score         DG    S(hbond)    S(metal)    S(lipo)     H(rot)  DE(clash)    DE(int)     intcor
     15.09     -16.69       0.97        0.00      99.84       1.45       0.12       1.49       ----

> <Gold.Chemscore.Fitness>
15.0862

> <Gold.Chemscore.DG>
-16.6893

> <Gold.Chemscore.ZeroCoef>
-5.4800

> <Gold.Chemscore.Hbond>
0.9673

> <Gold.Chemscore.Metal>
0.0000

> <Gold.Chemscore.Lipo>
99.8366

> <Gold.Chemscore.Internal_Hbond>
0.0000

> <Gold.Chemscore.DEClash>
0.1177

> <Gold.Chemscore.DEInternal>
1.4854

> <Gold.Chemscore.Rot>
1.4462

> <Gold.Chemscore.Internal.Correction>
   9.000000E+99

> <Gold.Chemscore.Hbonds>
donor molecule, donor type, donor heavy atom, donor atom, acceptor molecule, acceptor atom, score
      P1  H  7997  8009       L1    10  0.89

> <Gold.Chemscore.Hbond.Weighted>
-3.2307

> <Gold.Chemscore.Metal.Weighted>
-0.0000

> <Gold.Chemscore.Lipo.Weighted>
-11.6809

> <Gold.Chemscore.Internal_Hbond.Weighted>
0.0000

> <Gold.Chemscore.DEClash.Weighted>
0.1177

> <Gold.Chemscore.DEInternal.Weighted>
1.4854

> <Gold.Chemscore.Rot.Weighted>
3.7023

> <Gold.Chemscore.Internal.Correction.Weighted>
   9.000000E+99

> <Gold.Protein.RotatedTorsions>
[ 6907 6896 6895 6894 ] final   16.38 input  -60.11 | X-H torsion
[ 7974 7965 7964 7962 ] final   85.52 input  175.53 | X-H torsion
[ 8008 7997 7996 7995 ] final  110.06 input   59.86 | X-H torsion
[ 10167 10162 10161 10158 ] final  -11.33 input  -65.29 | X-H torsion
[ 10718 10713 10712 10709 ] final  162.86 input   66.30 | X-H torsion
[ 10763 10752 10751 10750 ] final  114.78 input  -60.55 | X-H torsion
[ 11005 11000 10999 10996 ] final  159.72 input  -57.11 | X-H torsion

> <Gold.Protein.ActiveResidues>
 VAL166  LYS551  ARG553  GLY616  TRP617  ASP618  TYR619  PRO620  LYS621  CYS622 
 ASP623  PHE694  ASN695  SER759  ASP760  ASP761  ALA762  ILE779  LEU786  VAL792 
 PHE793  MET794  SER795  GLU796  ALA797  LYS798  CYS799  TRP800  GLU811  SER814 

> <Gold.Protein.RotatedAtoms>
  151.8330  135.0615  160.0438 H   0  0  0  0  0  0  0  0  0  0  0  0  # atno 6907 bound_to 6896
  152.2866  133.5517  159.5539 H   0  0  0  0  0  0  0  0  0  0  0  0  # atno 6908 bound_to 6896
  150.7212  134.0404  159.3806 H   0  0  0  0  0  0  0  0  0  0  0  0  # atno 6909 bound_to 6896
  145.5845  139.2329  143.2334 H   0  0  0  0  0  0  0  0  0  0  0  0  # atno 7974 bound_to 7965
  156.2025  140.3046  155.9557 H   0  0  0  0  0  0  0  0  0  0  0  0  # atno 8008 bound_to 7997
  155.2920  140.0442  157.3040 H   0  0  0  0  0  0  0  0  0  0  0  0  # atno 8009 bound_to 7997
  154.5589  140.2314  155.8374 H   0  0  0  0  0  0  0  0  0  0  0  0  # atno 8010 bound_to 7997
  140.7136  143.5651  150.9153 H   0  0  0  0  0  0  0  0  0  0  0  0  # atno 10167 bound_to 10162
  157.1167  131.0482  151.2433 H   0  0  0  0  0  0  0  0  0  0  0  0  # atno 10718 bound_to 10713
  153.5124  135.3615  155.2593 H   0  0  0  0  0  0  0  0  0  0  0  0  # atno 10763 bound_to 10752
  154.8741  135.4026  154.3353 H   0  0  0  0  0  0  0  0  0  0  0  0  # atno 10764 bound_to 10752
  153.4009  135.7075  153.6494 H   0  0  0  0  0  0  0  0  0  0  0  0  # atno 10765 bound_to 10752
  140.1989  134.8352  157.2996 H   0  0  0  0  0  0  0  0  0  0  0  0  # atno 11005 bound_to 11000
  146.1692  140.6671  142.9241 LP  0  0  0  0  0  0  0  0  0  0  0  0  # atno 17320 bound_to 7965
  144.7379  140.4860  143.6890 LP  0  0  0  0  0  0  0  0  0  0  0  0  # atno 17321 bound_to 7965
  139.9377  143.6419  152.3061 LP  0  0  0  0  0  0  0  0  0  0  0  0  # atno 17342 bound_to 10162
  139.6892  144.7648  151.1469 LP  0  0  0  0  0  0  0  0  0  0  0  0  # atno 17343 bound_to 10162
  157.4512  130.7599  149.7153 LP  0  0  0  0  0  0  0  0  0  0  0  0  # atno 17370 bound_to 10713
  155.9838  130.3997  150.3345 LP  0  0  0  0  0  0  0  0  0  0  0  0  # atno 17371 bound_to 10713
  140.2076  134.4178  155.7629 LP  0  0  0  0  0  0  0  0  0  0  0  0  # atno 17394 bound_to 11000
  141.2227  133.7102  156.8285 LP  0  0  0  0  0  0  0  0  0  0  0  0  # atno 17395 bound_to 11000

$$$$
