AV-unprocessed.smi:276|AV-procd|sdf|2078|dock8
  -GOLD-   2262021343D 1   1.00000     0.00000
 Structure written by MMmdl.
 57 61  0  0  0  0  0  0  0  0  1 V2000
  144.1488  134.6442  162.8633 C   0  0  0  0  0  0  0  0  0  0  0  0
  145.5445  134.5171  162.6528 O   0  0  0  0  0  0  0  0  0  0  0  0
  145.9311  134.8475  161.3280 C   0  0  2  0  0  0  0  0  0  0  0  0
  147.3026  134.2759  160.9341 C   0  0  0  0  0  0  0  0  0  0  0  0
  147.7909  135.6930  160.5996 C   0  0  1  0  0  0  0  0  0  0  0  0
  147.9899  135.9310  159.1602 N   0  0  0  0  0  0  0  0  0  0  0  0
  147.2567  135.1846  158.1376 C   0  0  0  0  0  0  0  0  0  0  0  0
  148.5264  137.1218  158.7731 C   0  0  0  0  0  0  0  0  0  0  0  0
  147.7706  137.9848  158.0411 N   0  0  0  0  0  0  0  0  0  0  0  0
  148.2703  139.1539  157.6329 C   0  0  0  0  0  0  0  0  0  0  0  0
  149.4853  139.6602  157.8450 N   0  0  0  0  0  0  0  0  0  0  0  0
  150.2493  138.8102  158.5883 C   0  0  0  0  0  0  0  0  0  0  0  0
  149.8555  137.5355  159.0889 C   0  0  0  0  0  0  0  0  0  0  0  0
  150.9046  136.9755  159.8118 N   0  0  0  0  0  0  0  0  0  0  0  0
  151.8595  137.8616  159.7373 C   0  0  0  0  0  0  0  0  0  0  0  0
  151.5500  138.9942  159.0217 N   0  0  0  0  0  0  0  0  0  0  0  0
  152.4165  140.1359  158.7862 C   0  0  0  0  0  0  0  0  0  0  0  0
  151.6433  141.3724  158.2857 C   0  0  2  0  0  0  0  0  0  0  0  0
  151.3350  141.2112  156.9140 O   0  0  0  0  0  0  0  0  0  0  0  0
  152.4478  142.6732  158.4666 C   0  0  1  0  0  0  0  0  0  0  0  0
  151.7579  143.9258  157.9234 C   0  0  0  0  0  0  0  0  0  0  0  0
  152.4274  145.0161  158.7272 C   0  0  0  0  0  0  0  0  0  0  0  0
  152.5650  144.3553  160.0954 C   0  0  0  0  0  0  0  0  0  0  0  0
  152.6394  142.9524  159.8520 O   0  0  0  0  0  0  0  0  0  0  0  0
  146.4928  136.2787  161.1910 C   0  0  0  0  0  0  0  0  0  0  0  0
  146.5688  137.2153  162.4107 C   0  0  0  0  0  0  0  0  0  0  0  0
  145.3195  137.9253  161.8853 C   0  0  0  0  0  0  0  0  0  0  0  0
  145.6675  137.3800  160.4985 C   0  0  0  0  0  0  0  0  0  0  0  0
  143.9080  134.3761  163.8920 H   0  0  0  0  0  0  0  0  0  0  0  0
  143.5842  133.9846  162.2033 H   0  0  0  0  0  0  0  0  0  0  0  0
  143.8187  135.6705  162.6972 H   0  0  0  0  0  0  0  0  0  0  0  0
  145.1541  134.6414  160.5902 H   0  0  0  0  0  0  0  0  0  0  0  0
  147.8415  133.8458  161.7793 H   0  0  0  0  0  0  0  0  0  0  0  0
  147.2713  133.5775  160.0974 H   0  0  0  0  0  0  0  0  0  0  0  0
  148.6636  135.9359  161.2079 H   0  0  0  0  0  0  0  0  0  0  0  0
  146.8061  135.8547  157.4042 H   0  0  0  0  0  0  0  0  0  0  0  0
  146.4500  134.5906  158.5618 H   0  0  0  0  0  0  0  0  0  0  0  0
  147.9298  134.5044  157.6158 H   0  0  0  0  0  0  0  0  0  0  0  0
  147.6007  139.7716  157.0529 H   0  0  0  0  0  0  0  0  0  0  0  0
  152.8208  137.7139  160.2081 H   0  0  0  0  0  0  0  0  0  0  0  0
  152.9337  140.3654  159.7186 H   0  0  0  0  0  0  0  0  0  0  0  0
  153.1862  139.8494  158.0684 H   0  0  0  0  0  0  0  0  0  0  0  0
  150.7024  141.4528  158.8321 H   0  0  0  0  0  0  0  0  0  0  0  0
  152.0827  141.4837  156.4042 H   0  0  0  0  0  0  0  0  0  0  0  0
  153.4329  142.5781  158.0064 H   0  0  0  0  0  0  0  0  0  0  0  0
  151.8860  144.0504  156.8477 H   0  0  0  0  0  0  0  0  0  0  0  0
  150.6891  143.9037  158.1410 H   0  0  0  0  0  0  0  0  0  0  0  0
  153.4131  145.2331  158.3131 H   0  0  0  0  0  0  0  0  0  0  0  0
  151.8556  145.9440  158.7558 H   0  0  0  0  0  0  0  0  0  0  0  0
  153.4400  144.7115  160.6393 H   0  0  0  0  0  0  0  0  0  0  0  0
  151.6831  144.5530  160.7058 H   0  0  0  0  0  0  0  0  0  0  0  0
  146.4502  136.7421  163.3853 H   0  0  0  0  0  0  0  0  0  0  0  0
  147.4504  137.8584  162.3889 H   0  0  0  0  0  0  0  0  0  0  0  0
  144.3953  137.5047  162.2853 H   0  0  0  0  0  0  0  0  0  0  0  0
  145.3422  139.0121  161.9690 H   0  0  0  0  0  0  0  0  0  0  0  0
  146.2747  138.0787  159.9217 H   0  0  0  0  0  0  0  0  0  0  0  0
  144.8125  137.0236  159.9236 H   0  0  0  0  0  0  0  0  0  0  0  0
  1  2  1  0  0  0  0
  1 29  1  0  0  0  0
  1 30  1  0  0  0  0
  1 31  1  0  0  0  0
  2  3  1  0  0  0  0
  3 25  1  0  0  0  0
  3  4  1  0  0  0  0
  3 32  1  0  0  0  0
  4  5  1  0  0  0  0
  4 33  1  0  0  0  0
  4 34  1  0  0  0  0
  5  6  1  0  0  0  0
  5 25  1  0  0  0  0
  5 35  1  0  0  0  0
  6  7  1  0  0  0  0
  6  8  1  0  0  0  0
  7 36  1  0  0  0  0
  7 37  1  0  0  0  0
  7 38  1  0  0  0  0
  8 13  1  0  0  0  0
  8  9  2  0  0  0  0
  9 10  1  0  0  0  0
 10 11  2  0  0  0  0
 10 39  1  0  0  0  0
 11 12  1  0  0  0  0
 12 16  1  0  0  0  0
 12 13  2  0  0  0  0
 13 14  1  0  0  0  0
 14 15  2  0  0  0  0
 15 16  1  0  0  0  0
 15 40  1  0  0  0  0
 16 17  1  0  0  0  0
 17 18  1  0  0  0  0
 17 41  1  0  0  0  0
 17 42  1  0  0  0  0
 18 19  1  0  0  0  0
 18 20  1  0  0  0  0
 18 43  1  0  0  0  0
 19 44  1  0  0  0  0
 20 24  1  0  0  0  0
 20 21  1  0  0  0  0
 20 45  1  0  0  0  0
 21 22  1  0  0  0  0
 21 46  1  0  0  0  0
 21 47  1  0  0  0  0
 22 23  1  0  0  0  0
 22 48  1  0  0  0  0
 22 49  1  0  0  0  0
 23 24  1  0  0  0  0
 23 50  1  0  0  0  0
 23 51  1  0  0  0  0
 25 28  1  0  0  0  0
 25 26  1  0  0  0  0
 26 27  1  0  0  0  0
 26 52  1  0  0  0  0
 26 53  1  0  0  0  0
 27 28  1  0  0  0  0
 27 54  1  0  0  0  0
 27 55  1  0  0  0  0
 28 56  1  0  0  0  0
 28 57  1  0  0  0  0
M  END
> <s_m_source_file>
AV-unprocessed.smi

> <i_m_source_file_index>
276

> <i_lp_mmshare_version>
43012

> <i_f3d_flags>
0

> <s_epik_input>
W0NIMl0xW0NIMl1bQ0gyXUMxMltDQEhdKE9bQ0gzXSlbQ0gyXVtDQEhdMk4oW0NIM10pYyhuW2NIXW4zKWMoYzM0KW5bY0hdbjRbQ0gyXVtDQEhdKFtPSF0pW0NAQEhdNVtDSDJdW0NIMl1bQ0gyXU81

> <s_epik_cmdline>
J2VwaWtfcHl0aG9uJywgJy1waCcsICc3LjAnLCAnLXRuJywgJzgnLCAnLW1hJywgJzIwMCcsICctbWV0YWxfYmluZGluZycsICctaW1hZScsICc8aW5maWxlLm1hZT4nLCAnLW9tYWUnLCAnPG91dGZpbGUubWFlPic=

> <r_lp_tautomer_probability>
1

> <r_epik_Ionization_Penalty>
0.00204117

> <r_epik_Ionization_Penalty_Charging>
0

> <r_epik_Ionization_Penalty_Neutral>
0.00204117

> <r_epik_State_Penalty>
0.00127401

> <r_epik_Charging_Adjusted_Penalty>
0.00127401

> <i_epik_Tot_Q>
0

> <i_epik_Tot_abs_Q>
0

> <r_epik_Metal_State_Penalty>
-0

> <b_epik_Metal_Only>
0

> <s_lp_Force_Field>
OPLS_2005

> <r_lp_Energy>
56.66

> <b_lp_Chiralities_Consistent>
1

> <s_lp_Variant>
AV-unprocessed.smi:276-9

> <Gold.Version>
5.8.1

> <Gold.Id.Protein>
6NUR|6NUR_protein|mol2

> <Gold.PLP.Fitness>
47.6314

> <Gold.PLP.PLP>
-48.0891

> <Gold.PLP.part.hbond>
-1.4596

> <Gold.PLP.part.metal>
0.0000

> <Gold.PLP.part.buried>
-8.6932

> <Gold.PLP.part.nonpolar>
-37.9279

> <Gold.PLP.part.repulsive>
0.0213

> <Gold.PLP.ligand.clash>
0.0000

> <Gold.PLP.ligand.torsion>
2.2031

> <Gold.PLP.Chemscore.Hbond>
1.0000

> <Gold.PLP.Chemscore.CHOScore>
0.0000

> <Gold.PLP.Chemscore.Metal>
0.0000

> <Gold.Chemscore.Hbonds>
donor molecule, donor type, donor heavy atom, donor atom, acceptor molecule, acceptor atom, score
      P1  H  6896  6907       L1    14  1.00

> <Gold.PLP.Chemscore.Internal.Correction>
0.9485

> <Gold.Rescore>
     Score         DG    S(hbond)    S(metal)    S(lipo)     H(rot)  DE(clash)    DE(int)     intcor
     12.91     -16.41       0.99        0.00     118.86       2.46       0.03       3.47       ----

> <Gold.Chemscore.Fitness>
12.9057

> <Gold.Chemscore.DG>
-16.4056

> <Gold.Chemscore.ZeroCoef>
-5.4800

> <Gold.Chemscore.Hbond>
0.9916

> <Gold.Chemscore.Metal>
0.0000

> <Gold.Chemscore.Lipo>
118.8569

> <Gold.Chemscore.Internal_Hbond>
0.0000

> <Gold.Chemscore.DEClash>
0.0331

> <Gold.Chemscore.DEInternal>
3.4668

> <Gold.Chemscore.Rot>
2.4581

> <Gold.Chemscore.Internal.Correction>
   9.000000E+99

> <Gold.Chemscore.Hbonds>
donor molecule, donor type, donor heavy atom, donor atom, acceptor molecule, acceptor atom, score
      P1  H  6896  6907       L1    14  0.98

> <Gold.Chemscore.Hbond.Weighted>
-3.3120

> <Gold.Chemscore.Metal.Weighted>
-0.0000

> <Gold.Chemscore.Lipo.Weighted>
-13.9063

> <Gold.Chemscore.Internal_Hbond.Weighted>
0.0000

> <Gold.Chemscore.DEClash.Weighted>
0.0331

> <Gold.Chemscore.DEInternal.Weighted>
3.4668

> <Gold.Chemscore.Rot.Weighted>
6.2927

> <Gold.Chemscore.Internal.Correction.Weighted>
   9.000000E+99

> <Gold.Protein.RotatedTorsions>
[ 6907 6896 6895 6894 ] final  -15.76 input  -60.11 | X-H torsion
[ 7974 7965 7964 7962 ] final  171.93 input  175.53 | X-H torsion
[ 8008 7997 7996 7995 ] final  110.67 input   59.86 | X-H torsion
[ 10167 10162 10161 10158 ] final   77.89 input  -65.29 | X-H torsion
[ 10718 10713 10712 10709 ] final  -24.54 input   66.30 | X-H torsion
[ 10763 10752 10751 10750 ] final  -38.21 input  -60.55 | X-H torsion
[ 11005 11000 10999 10996 ] final   13.46 input  -57.11 | X-H torsion

> <Gold.Protein.ActiveResidues>
 VAL166  LYS551  ARG553  GLY616  TRP617  ASP618  TYR619  PRO620  LYS621  CYS622 
 ASP623  PHE694  ASN695  SER759  ASP760  ASP761  ALA762  ILE779  LEU786  VAL792 
 PHE793  MET794  SER795  GLU796  ALA797  LYS798  CYS799  TRP800  GLU811  SER814 

> <Gold.Protein.RotatedAtoms>
  151.3190  135.0814  159.9298 H   0  0  0  0  0  0  0  0  0  0  0  0  # atno 6907 bound_to 6896
  152.5261  133.9658  159.7749 H   0  0  0  0  0  0  0  0  0  0  0  0  # atno 6908 bound_to 6896
  150.9975  133.6036  159.2729 H   0  0  0  0  0  0  0  0  0  0  0  0  # atno 6909 bound_to 6896
  144.7281  139.9423  143.6429 H   0  0  0  0  0  0  0  0  0  0  0  0  # atno 7974 bound_to 7965
  156.2070  140.3034  155.9648 H   0  0  0  0  0  0  0  0  0  0  0  0  # atno 8008 bound_to 7997
  155.2818  140.0438  157.3033 H   0  0  0  0  0  0  0  0  0  0  0  0  # atno 8009 bound_to 7997
  154.5646  140.2330  155.8291 H   0  0  0  0  0  0  0  0  0  0  0  0  # atno 8010 bound_to 7997
  139.9767  144.5855  150.7936 H   0  0  0  0  0  0  0  0  0  0  0  0  # atno 10167 bound_to 10162
  156.4763  130.4535  149.6838 H   0  0  0  0  0  0  0  0  0  0  0  0  # atno 10718 bound_to 10713
  153.9091  135.6794  153.4752 H   0  0  0  0  0  0  0  0  0  0  0  0  # atno 10763 bound_to 10752
  153.1088  135.4793  154.8996 H   0  0  0  0  0  0  0  0  0  0  0  0  # atno 10764 bound_to 10752
  154.7536  135.3191  154.8466 H   0  0  0  0  0  0  0  0  0  0  0  0  # atno 10765 bound_to 10752
  140.4804  134.0941  155.7750 H   0  0  0  0  0  0  0  0  0  0  0  0  # atno 11005 bound_to 11000
  146.0775  139.3763  143.0485 LP  0  0  0  0  0  0  0  0  0  0  0  0  # atno 17320 bound_to 7965
  145.7886  140.9824  143.1061 LP  0  0  0  0  0  0  0  0  0  0  0  0  # atno 17321 bound_to 7965
  140.7503  143.2953  151.3221 LP  0  0  0  0  0  0  0  0  0  0  0  0  # atno 17342 bound_to 10162
  139.6440  144.0486  152.2576 LP  0  0  0  0  0  0  0  0  0  0  0  0  # atno 17343 bound_to 10162
  156.3567  130.7460  151.2427 LP  0  0  0  0  0  0  0  0  0  0  0  0  # atno 17370 bound_to 10713
  157.7487  131.0362  150.4397 LP  0  0  0  0  0  0  0  0  0  0  0  0  # atno 17371 bound_to 10713
  141.1534  133.8928  157.2041 LP  0  0  0  0  0  0  0  0  0  0  0  0  # atno 17394 bound_to 11000
  139.9830  135.0092  156.9794 LP  0  0  0  0  0  0  0  0  0  0  0  0  # atno 17395 bound_to 11000

$$$$
