AV-unprocessed.smi:1487|AV-procd|sdf|6013|dock1
  -GOLD-   22720 6113D 1   1.00000     0.00000
 Structure written by MMmdl.
 48 50  0  0  0  0  0  0  0  0  2 V2000
  152.8548  142.7926  161.7019 C   0  0  0  0  0  0  0  0  0  0  0  0
  152.3306  142.4873  160.3095 C   0  0  0  0  0  0  0  0  0  0  0  0
  152.6530  141.2488  159.7100 C   0  0  0  0  0  0  0  0  0  0  0  0
  152.1852  140.9265  158.4175 C   0  0  0  0  0  0  0  0  0  0  0  0
  152.3704  139.7877  157.6523 N   0  0  0  0  0  0  0  0  0  0  0  0
  151.6900  140.0905  156.5506 C   0  0  0  0  0  0  0  0  0  0  0  0
  151.0787  141.2900  156.5141 N   0  0  0  0  0  0  0  0  0  0  0  0
  150.2834  141.8300  155.4265 C   0  0  0  0  0  0  0  0  0  0  0  0
  149.4049  140.7631  154.7435 C   0  0  2  0  0  0  0  0  0  0  0  0
  150.2533  139.9879  153.9201 O   0  0  0  0  0  0  0  0  0  0  0  0
  148.2690  141.3661  153.8846 C   0  0  0  0  0  0  0  0  0  0  0  0
  147.3949  142.3020  154.6384 N   0  3  2  0  0  0  0  0  0  0  0  0
  147.1123  141.8149  156.0141 C   0  0  0  0  0  0  0  0  0  0  0  0
  146.3345  142.8628  156.8279 C   0  0  0  0  0  0  0  0  0  0  0  0
  145.0352  143.2583  156.1149 C   0  0  0  0  0  0  0  0  0  0  0  0
  145.3475  143.7285  154.6868 C   0  0  2  0  0  0  0  0  0  0  0  0
  144.1389  144.0010  154.0101 O   0  0  0  0  0  0  0  0  0  0  0  0
  146.1423  142.6567  153.9175 C   0  0  0  0  0  0  0  0  0  0  0  0
  151.3827  141.8860  157.7338 C   0  0  0  0  0  0  0  0  0  0  0  0
  151.0562  143.1222  158.3190 C   0  0  0  0  0  0  0  0  0  0  0  0
  151.5288  143.4268  159.6128 C   0  0  0  0  0  0  0  0  0  0  0  0
  151.1678  144.7626  160.2378 C   0  0  0  0  0  0  0  0  0  0  0  0
  153.4443  141.9646  162.0966 H   0  0  0  0  0  0  0  0  0  0  0  0
  152.0298  142.9727  162.3912 H   0  0  0  0  0  0  0  0  0  0  0  0
  153.4918  143.6771  161.6846 H   0  0  0  0  0  0  0  0  0  0  0  0
  153.2644  140.5332  160.2401 H   0  0  0  0  0  0  0  0  0  0  0  0
  151.6290  139.3992  155.7227 H   0  0  0  0  0  0  0  0  0  0  0  0
  149.6667  142.6410  155.8166 H   0  0  0  0  0  0  0  0  0  0  0  0
  150.9629  142.2806  154.7013 H   0  0  0  0  0  0  0  0  0  0  0  0
  148.9988  140.1126  155.5172 H   0  0  0  0  0  0  0  0  0  0  0  0
  150.0043  139.0792  153.9901 H   0  0  0  0  0  0  0  0  0  0  0  0
  148.6707  141.8908  153.0171 H   0  0  0  0  0  0  0  0  0  0  0  0
  147.6683  140.5448  153.4908 H   0  0  0  0  0  0  0  0  0  0  0  0
  146.5483  140.8819  155.9629 H   0  0  0  0  0  0  0  0  0  0  0  0
  148.0488  141.5913  156.5267 H   0  0  0  0  0  0  0  0  0  0  0  0
  146.1100  142.4724  157.8212 H   0  0  0  0  0  0  0  0  0  0  0  0
  146.9559  143.7470  156.9766 H   0  0  0  0  0  0  0  0  0  0  0  0
  144.3581  142.4032  156.0888 H   0  0  0  0  0  0  0  0  0  0  0  0
  144.5256  144.0448  156.6731 H   0  0  0  0  0  0  0  0  0  0  0  0
  145.9260  144.6525  154.7272 H   0  0  0  0  0  0  0  0  0  0  0  0
  144.0321  143.3741  153.3108 H   0  0  0  0  0  0  0  0  0  0  0  0
  146.3709  143.0338  152.9216 H   0  0  0  0  0  0  0  0  0  0  0  0
  145.5366  141.7588  153.7835 H   0  0  0  0  0  0  0  0  0  0  0  0
  150.4462  143.8301  157.7778 H   0  0  0  0  0  0  0  0  0  0  0  0
  150.5489  145.3611  159.5690 H   0  0  0  0  0  0  0  0  0  0  0  0
  152.0681  145.3351  160.4624 H   0  0  0  0  0  0  0  0  0  0  0  0
  150.6118  144.6131  161.1637 H   0  0  0  0  0  0  0  0  0  0  0  0
  147.9239  143.1550  154.7494 H   0  0  0  0  0  0  0  0  0  0  0  0
  1  2  1  0  0  0  0
  1 23  1  0  0  0  0
  1 24  1  0  0  0  0
  1 25  1  0  0  0  0
  2 21  1  0  0  0  0
  2  3  2  0  0  0  0
  3  4  1  0  0  0  0
  3 26  1  0  0  0  0
  4 19  2  0  0  0  0
  4  5  1  0  0  0  0
  5  6  2  0  0  0  0
  6  7  1  0  0  0  0
  6 27  1  0  0  0  0
  7  8  1  0  0  0  0
  7 19  1  0  0  0  0
  8  9  1  0  0  0  0
  8 28  1  0  0  0  0
  8 29  1  0  0  0  0
  9 10  1  0  0  0  0
  9 11  1  0  0  0  0
  9 30  1  0  0  0  0
 10 31  1  0  0  0  0
 11 12  1  0  0  0  0
 11 32  1  0  0  0  0
 11 33  1  0  0  0  0
 12 18  1  0  0  0  0
 12 13  1  0  0  0  0
 12 48  1  0  0  0  0
 13 14  1  0  0  0  0
 13 34  1  0  0  0  0
 13 35  1  0  0  0  0
 14 15  1  0  0  0  0
 14 36  1  0  0  0  0
 14 37  1  0  0  0  0
 15 16  1  0  0  0  0
 15 38  1  0  0  0  0
 15 39  1  0  0  0  0
 16 17  1  0  0  0  0
 16 18  1  0  0  0  0
 16 40  1  0  0  0  0
 17 41  1  0  0  0  0
 18 42  1  0  0  0  0
 18 43  1  0  0  0  0
 19 20  1  0  0  0  0
 20 21  2  0  0  0  0
 20 44  1  0  0  0  0
 21 22  1  0  0  0  0
 22 45  1  0  0  0  0
 22 46  1  0  0  0  0
 22 47  1  0  0  0  0
M  CHG  1  12   1
M  END
> <s_m_source_file>
AV-unprocessed.smi

> <i_m_source_file_index>
1487

> <i_lp_mmshare_version>
43012

> <i_f3d_flags>
0

> <s_epik_input>
W0NIM11jKFtjSF0xKWMoW0NIM10pW2NIXWMoYzEyKW4oW2NIXW4yKVtDSDJdW0NASF0oW09IXSlbQ0gyXU4zW0NIMl1bQ0gyXVtDSDJdW0NAQEhdKFtPSF0pW0NIMl0z

> <s_epik_cmdline>
J2VwaWtfcHl0aG9uJywgJy1waCcsICc3LjAnLCAnLXRuJywgJzgnLCAnLW1hJywgJzIwMCcsICctbWV0YWxfYmluZGluZycsICctaW1hZScsICc8aW5maWxlLm1hZT4nLCAnLW9tYWUnLCAnPG91dGZpbGUubWFlPic=

> <r_epik_Ionization_Penalty>
0.0940186

> <r_epik_Ionization_Penalty_Charging>
0.00679686

> <r_epik_Ionization_Penalty_Neutral>
0.0872218

> <r_epik_State_Penalty>
0.0799311

> <r_epik_Charging_Adjusted_Penalty>
0.086728

> <i_epik_Tot_Q>
1

> <i_epik_Tot_abs_Q>
1

> <r_epik_Metal_State_Penalty>
7.95545e-05

> <b_epik_Metal_Only>
0

> <s_lp_Force_Field>
OPLS_2005

> <r_lp_Energy>
23.9156

> <b_lp_Chiralities_Consistent>
1

> <s_lp_Variant>
AV-unprocessed.smi:1487-7

> <Gold.Version>
5.8.1

> <Gold.Id.Protein>
6NUR|6NUR_protein|mol2

> <Gold.PLP.Fitness>
61.7331

> <Gold.PLP.PLP>
-48.5588

> <Gold.PLP.part.hbond>
-4.9832

> <Gold.PLP.part.metal>
0.0000

> <Gold.PLP.part.buried>
-4.8534

> <Gold.PLP.part.nonpolar>
-38.3410

> <Gold.PLP.part.repulsive>
0.1141

> <Gold.PLP.ligand.clash>
0.0294

> <Gold.PLP.ligand.torsion>
0.5818

> <Gold.PLP.Chemscore.Hbond>
4.7490

> <Gold.PLP.Chemscore.CHOScore>
0.0000

> <Gold.PLP.Chemscore.Metal>
0.0000

> <Gold.Chemscore.Hbonds>
donor molecule, donor type, donor heavy atom, donor atom, acceptor molecule, acceptor atom, score
      L1  H    12    48       P1  8028  2.00
      L1  H    17    41       P1 10174  0.84
      P1  H  7989  7998       L1    10  0.96
      P1  H  7997  8009       L1     5  0.31

> <Gold.PLP.Chemscore.Internal.Correction>
0.1202

> <Gold.Rescore>
     Score         DG    S(hbond)    S(metal)    S(lipo)     H(rot)  DE(clash)    DE(int)     intcor
     17.95     -18.67       1.86        0.00     118.00       2.67       0.04       0.67       ----

> <Gold.Chemscore.Fitness>
17.9527

> <Gold.Chemscore.DG>
-18.6702

> <Gold.Chemscore.ZeroCoef>
-5.4800

> <Gold.Chemscore.Hbond>
1.8630

> <Gold.Chemscore.Metal>
0.0000

> <Gold.Chemscore.Lipo>
117.9999

> <Gold.Chemscore.Internal_Hbond>
0.0000

> <Gold.Chemscore.DEClash>
0.0440

> <Gold.Chemscore.DEInternal>
0.6735

> <Gold.Chemscore.Rot>
2.6712

> <Gold.Chemscore.Internal.Correction>
   9.000000E+99

> <Gold.Chemscore.Hbonds>
donor molecule, donor type, donor heavy atom, donor atom, acceptor molecule, acceptor atom, score
      L1  H    12    48       P1  8028  0.81
      L1  H    17    41       P1 10174  0.18
      P1  H  7989  7998       L1    10  0.72
      P1  H  7997  8009       L1     5  0.01

> <Gold.Chemscore.Hbond.Weighted>
-6.2225

> <Gold.Chemscore.Metal.Weighted>
-0.0000

> <Gold.Chemscore.Lipo.Weighted>
-13.8060

> <Gold.Chemscore.Internal_Hbond.Weighted>
0.0000

> <Gold.Chemscore.DEClash.Weighted>
0.0440

> <Gold.Chemscore.DEInternal.Weighted>
0.6735

> <Gold.Chemscore.Rot.Weighted>
6.8383

> <Gold.Chemscore.Internal.Correction.Weighted>
   9.000000E+99

> <Gold.Protein.RotatedTorsions>
[ 6907 6896 6895 6894 ] final -122.51 input  -60.11 | X-H torsion
[ 7974 7965 7964 7962 ] final   53.69 input  175.53 | X-H torsion
[ 8008 7997 7996 7995 ] final  178.66 input   59.86 | X-H torsion
[ 10167 10162 10161 10158 ] final   62.11 input  -65.29 | X-H torsion
[ 10718 10713 10712 10709 ] final -167.00 input   66.30 | X-H torsion
[ 10763 10752 10751 10750 ] final   12.46 input  -60.55 | X-H torsion
[ 11005 11000 10999 10996 ] final  -75.69 input  -57.11 | X-H torsion

> <Gold.Protein.ActiveResidues>
 VAL166  LYS551  ARG553  GLY616  TRP617  ASP618  TYR619  PRO620  LYS621  CYS622 
 ASP623  PHE694  ASN695  SER759  ASP760  ASP761  ALA762  ILE779  LEU786  VAL792 
 PHE793  MET794  SER795  GLU796  ALA797  LYS798  CYS799  TRP800  GLU811  SER814 

> <Gold.Protein.RotatedAtoms>
  150.8583  133.7682  159.3001 H   0  0  0  0  0  0  0  0  0  0  0  0  # atno 6907 bound_to 6896
  151.5333  135.1067  159.9917 H   0  0  0  0  0  0  0  0  0  0  0  0  # atno 6908 bound_to 6896
  152.4606  133.7771  159.6886 H   0  0  0  0  0  0  0  0  0  0  0  0  # atno 6909 bound_to 6896
  145.9686  139.4127  143.0204 H   0  0  0  0  0  0  0  0  0  0  0  0  # atno 7974 bound_to 7965
  156.0522  140.1328  157.0037 H   0  0  0  0  0  0  0  0  0  0  0  0  # atno 8008 bound_to 7997
  154.4440  140.1008  156.6463 H   0  0  0  0  0  0  0  0  0  0  0  0  # atno 8009 bound_to 7997
  155.5506  140.3463  155.4470 H   0  0  0  0  0  0  0  0  0  0  0  0  # atno 8010 bound_to 7997
  140.1474  144.4495  150.6778 H   0  0  0  0  0  0  0  0  0  0  0  0  # atno 10167 bound_to 10162
  156.6760  130.9103  151.3050 H   0  0  0  0  0  0  0  0  0  0  0  0  # atno 10718 bound_to 10713
  153.1820  135.6829  153.8465 H   0  0  0  0  0  0  0  0  0  0  0  0  # atno 10763 bound_to 10752
  153.7794  135.3184  155.3364 H   0  0  0  0  0  0  0  0  0  0  0  0  # atno 10764 bound_to 10752
  154.8065  135.4745  154.0502 H   0  0  0  0  0  0  0  0  0  0  0  0  # atno 10765 bound_to 10752
  141.1647  133.6956  156.7555 H   0  0  0  0  0  0  0  0  0  0  0  0  # atno 11005 bound_to 11000
  145.7938  140.9802  143.1035 LP  0  0  0  0  0  0  0  0  0  0  0  0  # atno 17320 bound_to 7965
  144.6831  139.9716  143.7482 LP  0  0  0  0  0  0  0  0  0  0  0  0  # atno 17321 bound_to 7965
  140.6723  143.2291  151.5594 LP  0  0  0  0  0  0  0  0  0  0  0  0  # atno 17342 bound_to 10162
  139.5442  144.2565  152.1410 LP  0  0  0  0  0  0  0  0  0  0  0  0  # atno 17343 bound_to 10162
  157.7060  130.9386  150.0934 LP  0  0  0  0  0  0  0  0  0  0  0  0  # atno 17370 bound_to 10713
  156.1903  130.3654  149.8918 LP  0  0  0  0  0  0  0  0  0  0  0  0  # atno 17371 bound_to 10713
  140.2572  134.8495  157.3724 LP  0  0  0  0  0  0  0  0  0  0  0  0  # atno 17394 bound_to 11000
  140.1646  134.4686  155.7872 LP  0  0  0  0  0  0  0  0  0  0  0  0  # atno 17395 bound_to 11000

$$$$
