AV-unprocessed.smi:1211|AV-procd|sdf|5080|dock9
  -GOLD-   22720 4133D 1   1.00000     0.00000
 Structure written by MMmdl.
 48 50  0  0  0  0  0  0  0  0  2 V2000
  147.6956  132.8600  152.4459 C   0  0  0  0  0  0  0  0  0  0  0  0
  146.4297  132.9553  151.6097 C   0  0  0  0  0  0  0  0  0  0  0  0
  145.8409  131.7731  151.1123 C   0  0  0  0  0  0  0  0  0  0  0  0
  144.6716  131.8623  150.3382 C   0  0  0  0  0  0  0  0  0  0  0  0
  144.1371  133.1383  150.0921 C   0  0  0  0  0  0  0  0  0  0  0  0
  144.6933  134.2733  150.5628 N   0  0  0  0  0  0  0  0  0  0  0  0
  145.8212  134.2045  151.3136 C   0  0  0  0  0  0  0  0  0  0  0  0
  146.4603  135.3598  151.8465 N   0  0  0  0  0  0  0  0  0  0  0  0
  145.9463  136.2996  152.6596 C   0  0  0  0  0  0  0  0  0  0  0  0
  144.7974  136.3114  153.1013 O   0  0  0  0  0  0  0  0  0  0  0  0
  146.8521  137.2494  152.9349 N   0  0  0  0  0  0  0  0  0  0  0  0
  146.6296  138.4096  153.7979 C   0  0  0  0  0  0  0  0  0  0  0  0
  147.9394  139.1854  154.1513 C   0  0  1  0  0  0  0  0  0  0  0  0
  149.1039  138.2264  154.0808 N   0  3  0  0  0  0  0  0  0  0  0  0
  150.4709  138.8186  154.0535 C   0  0  0  0  0  0  0  0  0  0  0  0
  151.5433  137.7298  153.8703 C   0  0  0  0  0  0  0  0  0  0  0  0
  151.4203  136.7428  154.8831 O   0  0  0  0  0  0  0  0  0  0  0  0
  150.1601  136.0923  154.8238 C   0  0  0  0  0  0  0  0  0  0  0  0
  149.0487  137.1213  155.0793 C   0  0  0  0  0  0  0  0  0  0  0  0
  148.0961  140.4173  153.2155 C   0  0  0  0  0  0  0  0  0  0  0  0
  147.0279  141.4507  153.5866 C   0  0  0  0  0  0  0  0  0  0  0  0
  146.7955  141.3455  155.3779 S   0  0  0  0  0  0  0  0  0  0  0  0
  147.7954  139.8404  155.5454 C   0  0  0  0  0  0  0  0  0  0  0  0
  148.0119  131.8238  152.5706 H   0  0  0  0  0  0  0  0  0  0  0  0
  147.5303  133.2810  153.4380 H   0  0  0  0  0  0  0  0  0  0  0  0
  148.5108  133.4039  151.9677 H   0  0  0  0  0  0  0  0  0  0  0  0
  146.2781  130.8072  151.3194 H   0  0  0  0  0  0  0  0  0  0  0  0
  144.1969  130.9761  149.9434 H   0  0  0  0  0  0  0  0  0  0  0  0
  143.2398  133.2518  149.5021 H   0  0  0  0  0  0  0  0  0  0  0  0
  147.4231  135.4819  151.5709 H   0  0  0  0  0  0  0  0  0  0  0  0
  147.7754  137.1478  152.5401 H   0  0  0  0  0  0  0  0  0  0  0  0
  145.8730  139.0622  153.3623 H   0  0  0  0  0  0  0  0  0  0  0  0
  146.1573  138.0351  154.7053 H   0  0  0  0  0  0  0  0  0  0  0  0
  150.5832  139.5069  153.2171 H   0  0  0  0  0  0  0  0  0  0  0  0
  150.6546  139.3765  154.9723 H   0  0  0  0  0  0  0  0  0  0  0  0
  151.4607  137.2665  152.8858 H   0  0  0  0  0  0  0  0  0  0  0  0
  152.5384  138.1712  153.9283 H   0  0  0  0  0  0  0  0  0  0  0  0
  150.0276  135.6008  153.8585 H   0  0  0  0  0  0  0  0  0  0  0  0
  150.1309  135.3127  155.5853 H   0  0  0  0  0  0  0  0  0  0  0  0
  149.1614  137.5198  156.0880 H   0  0  0  0  0  0  0  0  0  0  0  0
  148.0888  136.6091  155.0453 H   0  0  0  0  0  0  0  0  0  0  0  0
  149.0456  140.9217  153.3892 H   0  0  0  0  0  0  0  0  0  0  0  0
  148.0676  140.1605  152.1572 H   0  0  0  0  0  0  0  0  0  0  0  0
  147.3202  142.4595  153.2936 H   0  0  0  0  0  0  0  0  0  0  0  0
  146.0818  141.2304  153.0919 H   0  0  0  0  0  0  0  0  0  0  0  0
  147.3527  139.1734  156.2857 H   0  0  0  0  0  0  0  0  0  0  0  0
  148.7695  140.1469  155.9278 H   0  0  0  0  0  0  0  0  0  0  0  0
  149.0068  137.7828  153.1787 H   0  0  0  0  0  0  0  0  0  0  0  0
  1  2  1  0  0  0  0
  1 24  1  0  0  0  0
  1 25  1  0  0  0  0
  1 26  1  0  0  0  0
  2  7  1  0  0  0  0
  2  3  2  0  0  0  0
  3  4  1  0  0  0  0
  3 27  1  0  0  0  0
  4  5  2  0  0  0  0
  4 28  1  0  0  0  0
  5  6  1  0  0  0  0
  5 29  1  0  0  0  0
  6  7  2  0  0  0  0
  7  8  1  0  0  0  0
  8  9  1  0  0  0  0
  8 30  1  0  0  0  0
  9 10  2  0  0  0  0
  9 11  1  0  0  0  0
 11 12  1  0  0  0  0
 11 31  1  0  0  0  0
 12 13  1  0  0  0  0
 12 32  1  0  0  0  0
 12 33  1  0  0  0  0
 13 23  1  0  0  0  0
 13 14  1  0  0  0  0
 13 20  1  0  0  0  0
 14 19  1  0  0  0  0
 14 15  1  0  0  0  0
 14 48  1  0  0  0  0
 15 16  1  0  0  0  0
 15 34  1  0  0  0  0
 15 35  1  0  0  0  0
 16 17  1  0  0  0  0
 16 36  1  0  0  0  0
 16 37  1  0  0  0  0
 17 18  1  0  0  0  0
 18 19  1  0  0  0  0
 18 38  1  0  0  0  0
 18 39  1  0  0  0  0
 19 40  1  0  0  0  0
 19 41  1  0  0  0  0
 20 21  1  0  0  0  0
 20 42  1  0  0  0  0
 20 43  1  0  0  0  0
 21 22  1  0  0  0  0
 21 44  1  0  0  0  0
 21 45  1  0  0  0  0
 22 23  1  0  0  0  0
 23 46  1  0  0  0  0
 23 47  1  0  0  0  0
M  CHG  1  14   1
M  END
> <s_m_source_file>
AV-unprocessed.smi

> <i_m_source_file_index>
1211

> <i_lp_mmshare_version>
43012

> <i_f3d_flags>
0

> <s_epik_input>
W0NIM11jMVtjSF1bY0hdW2NIXW5jMVtOSF1DKD1PKVtOSF1bQ0gyXVtDQF0yKFtDSDJdW0NIMl1TW0NIMl0yKU4zW0NIMl1bQ0gyXU9bQ0gyXVtDSDJdMw==

> <s_epik_cmdline>
J2VwaWtfcHl0aG9uJywgJy1waCcsICc3LjAnLCAnLXRuJywgJzgnLCAnLW1hJywgJzIwMCcsICctbWV0YWxfYmluZGluZycsICctaW1hZScsICc8aW5maWxlLm1hZT4nLCAnLW9tYWUnLCAnPG91dGZpbGUubWFlPic=

> <r_epik_Ionization_Penalty>
2.03223

> <r_epik_Ionization_Penalty_Charging>
2.03219

> <r_epik_Ionization_Penalty_Neutral>
4.05816e-05

> <r_epik_State_Penalty>
2.16328

> <r_epik_Charging_Adjusted_Penalty>
4.19546

> <i_epik_Tot_Q>
1

> <i_epik_Tot_abs_Q>
1

> <r_epik_Metal_State_Penalty>
2.16328

> <b_epik_Metal_Only>
0

> <s_lp_Force_Field>
OPLS_2005

> <r_lp_Energy>
45.8952

> <b_lp_Chiralities_Consistent>
1

> <s_lp_Variant>
AV-unprocessed.smi:1211-3

> <Gold.Version>
5.8.1

> <Gold.Id.Protein>
6NUR|6NUR_protein|mol2

> <Gold.PLP.Fitness>
49.4550

> <Gold.PLP.PLP>
-34.2636

> <Gold.PLP.part.hbond>
-4.0000

> <Gold.PLP.part.metal>
0.0000

> <Gold.PLP.part.buried>
-0.9631

> <Gold.PLP.part.nonpolar>
-30.4763

> <Gold.PLP.part.repulsive>
0.5360

> <Gold.PLP.ligand.clash>
0.0000

> <Gold.PLP.ligand.torsion>
1.4498

> <Gold.PLP.Chemscore.Hbond>
4.9825

> <Gold.PLP.Chemscore.CHOScore>
1.0000

> <Gold.PLP.Chemscore.Metal>
0.0000

> <Gold.Chemscore.Hbonds>
donor molecule, donor type, donor heavy atom, donor atom, acceptor molecule, acceptor atom, score
      L1  H     8    30       P1  7948  1.00
      L1  H    11    31       P1  7948  1.00
      L1  H    14    48       P1  7948  2.00
      P1  H 10752 10765       L1    17  1.00
      L1  C     5    29       P1 10186  1.00

> <Gold.PLP.Chemscore.Internal.Correction>
0.1435

> <Gold.Rescore>
     Score         DG    S(hbond)    S(metal)    S(lipo)     H(rot)  DE(clash)    DE(int)     intcor
     20.82     -25.13       3.62        0.00      97.15       1.48       3.05       1.26       ----

> <Gold.Chemscore.Fitness>
20.8176

> <Gold.Chemscore.DG>
-25.1319

> <Gold.Chemscore.ZeroCoef>
-5.4800

> <Gold.Chemscore.Hbond>
3.6165

> <Gold.Chemscore.Metal>
0.0000

> <Gold.Chemscore.Lipo>
97.1507

> <Gold.Chemscore.Internal_Hbond>
0.0000

> <Gold.Chemscore.DEClash>
3.0513

> <Gold.Chemscore.DEInternal>
1.2630

> <Gold.Chemscore.Rot>
1.4820

> <Gold.Chemscore.Internal.Correction>
   9.000000E+99

> <Gold.Chemscore.Hbonds>
donor molecule, donor type, donor heavy atom, donor atom, acceptor molecule, acceptor atom, score
      L1  H     8    30       P1  7948  0.90
      L1  H    11    31       P1  7948  0.96
      L1  H    14    48       P1  7948  0.94
      P1  H 10752 10765       L1    17  0.58

> <Gold.Chemscore.Hbond.Weighted>
-12.0792

> <Gold.Chemscore.Metal.Weighted>
-0.0000

> <Gold.Chemscore.Lipo.Weighted>
-11.3666

> <Gold.Chemscore.Internal_Hbond.Weighted>
0.0000

> <Gold.Chemscore.DEClash.Weighted>
3.0513

> <Gold.Chemscore.DEInternal.Weighted>
1.2630

> <Gold.Chemscore.Rot.Weighted>
3.7939

> <Gold.Chemscore.Internal.Correction.Weighted>
   9.000000E+99

> <Gold.Protein.RotatedTorsions>
[ 6907 6896 6895 6894 ] final   43.53 input  -60.11 | X-H torsion
[ 7974 7965 7964 7962 ] final  -75.02 input  175.53 | X-H torsion
[ 8008 7997 7996 7995 ] final  -85.09 input   59.86 | X-H torsion
[ 10167 10162 10161 10158 ] final -175.17 input  -65.29 | X-H torsion
[ 10718 10713 10712 10709 ] final -135.63 input   66.30 | X-H torsion
[ 10763 10752 10751 10750 ] final -168.66 input  -60.55 | X-H torsion
[ 11005 11000 10999 10996 ] final -159.75 input  -57.11 | X-H torsion

> <Gold.Protein.ActiveResidues>
 VAL166  LYS551  ARG553  GLY616  TRP617  ASP618  TYR619  PRO620  LYS621  CYS622 
 ASP623  PHE694  ASN695  SER759  ASP760  ASP761  ALA762  ILE779  LEU786  VAL792 
 PHE793  MET794  SER795  GLU796  ALA797  LYS798  CYS799  TRP800  GLU811  SER814 

> <Gold.Protein.RotatedAtoms>
  152.2214  134.8409  160.0485 H   0  0  0  0  0  0  0  0  0  0  0  0  # atno 6907 bound_to 6896
  151.9191  133.3576  159.3899 H   0  0  0  0  0  0  0  0  0  0  0  0  # atno 6908 bound_to 6896
  150.7001  134.4578  159.5410 H   0  0  0  0  0  0  0  0  0  0  0  0  # atno 6909 bound_to 6896
  145.6315  140.9336  143.1084 H   0  0  0  0  0  0  0  0  0  0  0  0  # atno 7974 bound_to 7965
  154.6369  140.0596  156.9799 H   0  0  0  0  0  0  0  0  0  0  0  0  # atno 8008 bound_to 7997
  155.1577  140.3280  155.4399 H   0  0  0  0  0  0  0  0  0  0  0  0  # atno 8009 bound_to 7997
  156.2511  140.1936  156.6686 H   0  0  0  0  0  0  0  0  0  0  0  0  # atno 8010 bound_to 7997
  139.5595  144.1905  152.1215 H   0  0  0  0  0  0  0  0  0  0  0  0  # atno 10167 bound_to 10162
  156.2682  130.7250  151.1208 H   0  0  0  0  0  0  0  0  0  0  0  0  # atno 10718 bound_to 10713
  154.6605  135.2924  154.9873 H   0  0  0  0  0  0  0  0  0  0  0  0  # atno 10763 bound_to 10752
  154.0934  135.6587  153.4860 H   0  0  0  0  0  0  0  0  0  0  0  0  # atno 10764 bound_to 10752
  153.0427  135.5225  154.7554 H   0  0  0  0  0  0  0  0  0  0  0  0  # atno 10765 bound_to 10752
  140.6392  134.4570  157.5233 H   0  0  0  0  0  0  0  0  0  0  0  0  # atno 11005 bound_to 11000
  144.7192  139.8090  143.7388 LP  0  0  0  0  0  0  0  0  0  0  0  0  # atno 17320 bound_to 7965
  146.1353  139.4397  143.0143 LP  0  0  0  0  0  0  0  0  0  0  0  0  # atno 17321 bound_to 7965
  140.1416  144.5197  150.6741 LP  0  0  0  0  0  0  0  0  0  0  0  0  # atno 17342 bound_to 10162
  140.6873  143.2356  151.5227 LP  0  0  0  0  0  0  0  0  0  0  0  0  # atno 17343 bound_to 10162
  157.7275  131.0639  150.5863 LP  0  0  0  0  0  0  0  0  0  0  0  0  # atno 17370 bound_to 10713
  156.5957  130.4341  149.5918 LP  0  0  0  0  0  0  0  0  0  0  0  0  # atno 17371 bound_to 10713
  139.9087  134.8393  156.1610 LP  0  0  0  0  0  0  0  0  0  0  0  0  # atno 17394 bound_to 11000
  141.0619  133.6837  156.1970 LP  0  0  0  0  0  0  0  0  0  0  0  0  # atno 17395 bound_to 11000

$$$$
