AV-unprocessed.smi:1041|AV-procd|sdf|4532|dock10
  -GOLD-   22720 2553D 1   1.00000     0.00000
 Structure written by MMmdl.
 52 53  0  0  0  0  0  0  0  0  1 V2000
  151.3508  145.5397  158.3281 C   0  0  0  0  0  0  0  0  0  0  0  0
  151.8553  144.7256  159.3719 O   0  0  0  0  0  0  0  0  0  0  0  0
  152.0621  143.3834  158.9630 C   0  0  0  0  0  0  0  0  0  0  0  0
  150.7217  142.7688  158.5275 C   0  0  0  0  0  0  0  0  0  0  0  0
  150.7965  141.8170  157.4184 N   0  0  0  0  0  0  0  0  0  0  0  0
  149.5100  141.7289  156.7285 C   0  0  0  0  0  0  0  0  0  0  0  0
  149.5578  140.8007  155.5040 C   0  0  0  0  0  0  0  0  0  0  0  0
  150.0071  139.3844  155.9066 C   0  0  0  0  0  0  0  0  0  0  0  0
  150.0970  138.4578  154.6776 C   0  0  0  0  0  0  0  0  0  0  0  0
  149.5304  137.1405  154.9474 N   0  0  0  0  0  0  0  0  0  0  0  0
  150.2225  135.9968  155.0674 C   0  0  0  0  0  0  0  0  0  0  0  0
  151.4457  135.9253  154.9546 O   0  0  0  0  0  0  0  0  0  0  0  0
  149.4088  134.7409  155.3840 C   0  0  0  0  0  0  0  0  0  0  0  0
  150.1451  133.4125  155.2148 C   0  0  0  0  0  0  0  0  0  0  0  0
  149.7512  132.4539  154.3263 C   0  0  0  0  0  0  0  0  0  0  0  0
  148.5406  132.6161  153.4236 C   0  0  0  0  0  0  0  0  0  0  0  0
  150.4503  131.2464  154.1902 N   0  0  0  0  0  0  0  0  0  0  0  0
  151.4920  131.0445  154.9281 C   0  0  0  0  0  0  0  0  0  0  0  0
  152.3317  129.7857  154.8781 C   0  0  0  0  0  0  0  0  0  0  0  0
  151.9452  131.9807  155.8558 N   0  0  0  0  0  0  0  0  0  0  0  0
  151.3318  133.1681  156.0578 C   0  0  0  0  0  0  0  0  0  0  0  0
  151.7605  133.9532  156.9021 O   0  0  0  0  0  0  0  0  0  0  0  0
  151.3328  139.4860  156.6896 C   0  0  0  0  0  0  0  0  0  0  0  0
  151.2122  140.4819  157.8560 C   0  0  0  0  0  0  0  0  0  0  0  0
  152.7631  131.7667  156.4077 H   0  0  0  0  0  0  0  0  0  0  0  0
  151.2126  146.5579  158.6918 H   0  0  0  0  0  0  0  0  0  0  0  0
  150.3857  145.1745  157.9747 H   0  0  0  0  0  0  0  0  0  0  0  0
  152.0421  145.5744  157.4852 H   0  0  0  0  0  0  0  0  0  0  0  0
  152.7972  143.3372  158.1590 H   0  0  0  0  0  0  0  0  0  0  0  0
  152.4687  142.8061  159.7946 H   0  0  0  0  0  0  0  0  0  0  0  0
  150.2463  142.2946  159.3874 H   0  0  0  0  0  0  0  0  0  0  0  0
  150.0661  143.5924  158.2419 H   0  0  0  0  0  0  0  0  0  0  0  0
  148.7416  141.3803  157.4204 H   0  0  0  0  0  0  0  0  0  0  0  0
  149.2009  142.7223  156.4007 H   0  0  0  0  0  0  0  0  0  0  0  0
  148.5751  140.7631  155.0327 H   0  0  0  0  0  0  0  0  0  0  0  0
  150.2431  141.2123  154.7617 H   0  0  0  0  0  0  0  0  0  0  0  0
  149.2507  138.9762  156.5794 H   0  0  0  0  0  0  0  0  0  0  0  0
  149.5309  138.8897  153.8519 H   0  0  0  0  0  0  0  0  0  0  0  0
  151.1290  138.3841  154.3304 H   0  0  0  0  0  0  0  0  0  0  0  0
  148.5284  137.0960  155.0657 H   0  0  0  0  0  0  0  0  0  0  0  0
  149.0477  134.8137  156.4102 H   0  0  0  0  0  0  0  0  0  0  0  0
  148.5038  134.7567  154.7756 H   0  0  0  0  0  0  0  0  0  0  0  0
  148.6767  133.4596  152.7467 H   0  0  0  0  0  0  0  0  0  0  0  0
  147.6405  132.7856  154.0148 H   0  0  0  0  0  0  0  0  0  0  0  0
  148.3767  131.7249  152.8166 H   0  0  0  0  0  0  0  0  0  0  0  0
  151.7142  128.9141  155.0971 H   0  0  0  0  0  0  0  0  0  0  0  0
  153.1472  129.8160  155.6022 H   0  0  0  0  0  0  0  0  0  0  0  0
  152.7621  129.6609  153.8843 H   0  0  0  0  0  0  0  0  0  0  0  0
  151.6223  138.5106  157.0803 H   0  0  0  0  0  0  0  0  0  0  0  0
  152.1348  139.8031  156.0211 H   0  0  0  0  0  0  0  0  0  0  0  0
  152.1791  140.5338  158.3546 H   0  0  0  0  0  0  0  0  0  0  0  0
  150.5049  140.0963  158.5920 H   0  0  0  0  0  0  0  0  0  0  0  0
  1  2  1  0  0  0  0
  1 26  1  0  0  0  0
  1 27  1  0  0  0  0
  1 28  1  0  0  0  0
  2  3  1  0  0  0  0
  3  4  1  0  0  0  0
  3 29  1  0  0  0  0
  3 30  1  0  0  0  0
  4  5  1  0  0  0  0
  4 31  1  0  0  0  0
  4 32  1  0  0  0  0
  5 24  1  0  0  0  0
  5  6  1  0  0  0  0
  6  7  1  0  0  0  0
  6 33  1  0  0  0  0
  6 34  1  0  0  0  0
  7  8  1  0  0  0  0
  7 35  1  0  0  0  0
  7 36  1  0  0  0  0
  8  9  1  0  0  0  0
  8 23  1  0  0  0  0
  8 37  1  0  0  0  0
  9 10  1  0  0  0  0
  9 38  1  0  0  0  0
  9 39  1  0  0  0  0
 10 11  1  0  0  0  0
 10 40  1  0  0  0  0
 11 12  2  0  0  0  0
 11 13  1  0  0  0  0
 13 14  1  0  0  0  0
 13 41  1  0  0  0  0
 13 42  1  0  0  0  0
 14 21  1  0  0  0  0
 14 15  2  0  0  0  0
 15 16  1  0  0  0  0
 15 17  1  0  0  0  0
 16 43  1  0  0  0  0
 16 44  1  0  0  0  0
 16 45  1  0  0  0  0
 17 18  2  0  0  0  0
 18 19  1  0  0  0  0
 18 20  1  0  0  0  0
 19 46  1  0  0  0  0
 19 47  1  0  0  0  0
 19 48  1  0  0  0  0
 20 25  1  0  0  0  0
 20 21  1  0  0  0  0
 21 22  2  0  0  0  0
 23 24  1  0  0  0  0
 23 49  1  0  0  0  0
 23 50  1  0  0  0  0
 24 51  1  0  0  0  0
 24 52  1  0  0  0  0
M  END
> <s_m_source_file>
AV-unprocessed.smi

> <i_m_source_file_index>
1041

> <i_lp_mmshare_version>
43012

> <i_f3d_flags>
0

> <s_epik_input>
W0NIM11PW0NIMl1bQ0gyXU4xW0NIMl1bQ0gyXVtDSF0oW0NIMl1bQ0gyXTEpW0NIMl1bTkhdQyg9TylbQ0gyXWMyYyhbQ0gzXSluYyhbQ0gzXSlbbkhdYzI9Tw==

> <s_epik_cmdline>
J2VwaWtfcHl0aG9uJywgJy1waCcsICc3LjAnLCAnLXRuJywgJzgnLCAnLW1hJywgJzIwMCcsICctbWV0YWxfYmluZGluZycsICctaW1hZScsICc8aW5maWxlLm1hZT4nLCAnLW9tYWUnLCAnPG91dGZpbGUubWFlPic=

> <r_lp_tautomer_probability>
0.839158

> <r_epik_Ionization_Penalty>
2.47116

> <r_epik_Ionization_Penalty_Charging>
0.00036358

> <r_epik_Ionization_Penalty_Neutral>
2.4708

> <r_epik_State_Penalty>
2.72392

> <r_epik_Charging_Adjusted_Penalty>
2.72428

> <i_epik_Tot_Q>
0

> <i_epik_Tot_abs_Q>
0

> <r_epik_Metal_State_Penalty>
2.89755

> <b_epik_Metal_Only>
0

> <s_lp_Force_Field>
OPLS_2005

> <r_lp_Energy>
27.3294

> <b_lp_Chiralities_Consistent>
1

> <s_lp_Variant>
AV-unprocessed.smi:1041-5

> <Gold.Version>
5.8.1

> <Gold.Id.Protein>
6NUR|6NUR_protein|mol2

> <Gold.PLP.Fitness>
45.5840

> <Gold.PLP.PLP>
-42.7823

> <Gold.PLP.part.hbond>
-2.4016

> <Gold.PLP.part.metal>
0.0000

> <Gold.PLP.part.buried>
-5.6937

> <Gold.PLP.part.nonpolar>
-35.6712

> <Gold.PLP.part.repulsive>
0.2835

> <Gold.PLP.ligand.clash>
0.0000

> <Gold.PLP.ligand.torsion>
1.2670

> <Gold.PLP.Chemscore.Hbond>
1.7296

> <Gold.PLP.Chemscore.CHOScore>
0.0000

> <Gold.PLP.Chemscore.Metal>
0.0000

> <Gold.Chemscore.Hbonds>
donor molecule, donor type, donor heavy atom, donor atom, acceptor molecule, acceptor atom, score
      P1  H 10752 10764       L1    12  1.00

> <Gold.PLP.Chemscore.Internal.Correction>
0.1470

> <Gold.Rescore>
     Score         DG    S(hbond)    S(metal)    S(lipo)     H(rot)  DE(clash)    DE(int)     intcor
     15.39     -16.85       1.90        0.00      94.66       2.36       0.10       1.36       ----

> <Gold.Chemscore.Fitness>
15.3918

> <Gold.Chemscore.DG>
-16.8512

> <Gold.Chemscore.ZeroCoef>
-5.4800

> <Gold.Chemscore.Hbond>
1.8973

> <Gold.Chemscore.Metal>
0.0000

> <Gold.Chemscore.Lipo>
94.6608

> <Gold.Chemscore.Internal_Hbond>
0.0000

> <Gold.Chemscore.DEClash>
0.0973

> <Gold.Chemscore.DEInternal>
1.3621

> <Gold.Chemscore.Rot>
2.3598

> <Gold.Chemscore.Internal.Correction>
   9.000000E+99

> <Gold.Chemscore.Hbonds>
donor molecule, donor type, donor heavy atom, donor atom, acceptor molecule, acceptor atom, score
      P1  H  6896  6908       L1    22  0.01
      P1  H 10752 10764       L1    12  0.97

> <Gold.Chemscore.Hbond.Weighted>
-6.3369

> <Gold.Chemscore.Metal.Weighted>
-0.0000

> <Gold.Chemscore.Lipo.Weighted>
-11.0753

> <Gold.Chemscore.Internal_Hbond.Weighted>
0.0000

> <Gold.Chemscore.DEClash.Weighted>
0.0973

> <Gold.Chemscore.DEInternal.Weighted>
1.3621

> <Gold.Chemscore.Rot.Weighted>
6.0410

> <Gold.Chemscore.Internal.Correction.Weighted>
   9.000000E+99

> <Gold.Protein.RotatedTorsions>
[ 6907 6896 6895 6894 ] final  108.19 input  -60.11 | X-H torsion
[ 7974 7965 7964 7962 ] final  -50.09 input  175.53 | X-H torsion
[ 8008 7997 7996 7995 ] final -115.04 input   59.86 | X-H torsion
[ 10167 10162 10161 10158 ] final  145.43 input  -65.29 | X-H torsion
[ 10718 10713 10712 10709 ] final  -55.81 input   66.30 | X-H torsion
[ 10763 10752 10751 10750 ] final  -42.87 input  -60.55 | X-H torsion
[ 11005 11000 10999 10996 ] final  -90.28 input  -57.11 | X-H torsion

> <Gold.Protein.ActiveResidues>
 VAL166  LYS551  ARG553  GLY616  TRP617  ASP618  TYR619  PRO620  LYS621  CYS622 
 ASP623  PHE694  ASN695  SER759  ASP760  ASP761  ALA762  ILE779  LEU786  VAL792 
 PHE793  MET794  SER795  GLU796  ALA797  LYS798  CYS799  TRP800  GLU811  SER814 

> <Gold.Protein.RotatedAtoms>
  152.5122  133.9124  159.7494 H   0  0  0  0  0  0  0  0  0  0  0  0  # atno 6907 bound_to 6896
  150.9515  133.6536  159.2778 H   0  0  0  0  0  0  0  0  0  0  0  0  # atno 6908 bound_to 6896
  151.3813  135.0945  159.9549 H   0  0  0  0  0  0  0  0  0  0  0  0  # atno 6909 bound_to 6896
  145.9335  140.7727  142.9587 H   0  0  0  0  0  0  0  0  0  0  0  0  # atno 7974 bound_to 7965
  155.0457  140.0392  157.2526 H   0  0  0  0  0  0  0  0  0  0  0  0  # atno 8008 bound_to 7997
  154.7179  140.2706  155.6544 H   0  0  0  0  0  0  0  0  0  0  0  0  # atno 8009 bound_to 7997
  156.2808  140.2708  156.1841 H   0  0  0  0  0  0  0  0  0  0  0  0  # atno 8010 bound_to 7997
  139.4926  144.5902  151.6696 H   0  0  0  0  0  0  0  0  0  0  0  0  # atno 10167 bound_to 10162
  156.1338  130.4158  150.0221 H   0  0  0  0  0  0  0  0  0  0  0  0  # atno 10718 bound_to 10713
  153.9863  135.6711  153.4752 H   0  0  0  0  0  0  0  0  0  0  0  0  # atno 10763 bound_to 10752
  153.0725  135.4966  154.8332 H   0  0  0  0  0  0  0  0  0  0  0  0  # atno 10764 bound_to 10752
  154.7135  135.3102  154.9121 H   0  0  0  0  0  0  0  0  0  0  0  0  # atno 10765 bound_to 10752
  141.1569  133.7682  156.9715 H   0  0  0  0  0  0  0  0  0  0  0  0  # atno 11005 bound_to 11000
  144.6768  140.2165  143.7371 LP  0  0  0  0  0  0  0  0  0  0  0  0  # atno 17320 bound_to 7965
  145.8394  139.2123  143.1836 LP  0  0  0  0  0  0  0  0  0  0  0  0  # atno 17321 bound_to 7965
  140.5527  144.0398  150.6134 LP  0  0  0  0  0  0  0  0  0  0  0  0  # atno 17342 bound_to 10162
  140.3458  143.2992  152.0540 LP  0  0  0  0  0  0  0  0  0  0  0  0  # atno 17343 bound_to 10162
  156.8126  130.9330  151.3643 LP  0  0  0  0  0  0  0  0  0  0  0  0  # atno 17370 bound_to 10713
  157.6513  130.8887  149.9639 LP  0  0  0  0  0  0  0  0  0  0  0  0  # atno 17371 bound_to 10713
  140.1126  134.9467  157.2087 LP  0  0  0  0  0  0  0  0  0  0  0  0  # atno 17394 bound_to 11000
  140.3174  134.2955  155.7253 LP  0  0  0  0  0  0  0  0  0  0  0  0  # atno 17395 bound_to 11000

$$$$
