AV-unprocessed.smi:2966|AV-procd|sdf|11324|dock7
  -GOLD-   2272016233D 1   1.00000     0.00000
 Structure written by MMmdl.
 40 42  0  0  0  0  0  0  0  0  1 V2000
  157.5031  140.3930  159.8325 C   0  0  0  0  0  0  0  0  0  0  0  0
  156.3075  140.4712  160.5876 O   0  0  0  0  0  0  0  0  0  0  0  0
  155.2399  141.0555  159.8598 C   0  0  0  0  0  0  0  0  0  0  0  0
  153.8979  140.5382  160.3964 C   0  0  0  0  0  0  0  0  0  0  0  0
  152.7777  140.9601  159.5679 N   0  0  0  0  0  0  0  0  0  0  0  0
  151.8018  140.1943  159.0199 C   0  0  0  0  0  0  0  0  0  0  0  0
  151.7340  138.4501  159.2456 S   0  0  0  0  0  0  0  0  0  0  0  0
  150.2983  138.1295  158.1792 C   0  0  0  0  0  0  0  0  0  0  0  0
  149.8898  136.6569  158.0991 C   0  0  0  0  0  0  0  0  0  0  0  0
  149.4963  136.0521  159.0973 O   0  0  0  0  0  0  0  0  0  0  0  0
  149.9947  136.0889  156.8887 N   0  0  0  0  0  0  0  0  0  0  0  0
  149.6765  134.7319  156.5800 C   0  0  0  0  0  0  0  0  0  0  0  0
  150.8189  133.8043  156.2264 C   0  0  0  0  0  0  0  0  0  0  0  0
  149.8746  134.2694  155.1526 C   0  0  0  0  0  0  0  0  0  0  0  0
  150.8910  140.8462  158.2979 N   0  0  0  0  0  0  0  0  0  0  0  0
  151.3093  142.1590  158.3932 C   0  0  0  0  0  0  0  0  0  0  0  0
  150.7590  143.3411  157.8475 C   0  0  0  0  0  0  0  0  0  0  0  0
  151.3698  144.5896  158.0870 C   0  0  0  0  0  0  0  0  0  0  0  0
  152.5377  144.6740  158.8726 C   0  0  0  0  0  0  0  0  0  0  0  0
  153.1033  143.5084  159.4244 C   0  0  0  0  0  0  0  0  0  0  0  0
  152.4891  142.2650  159.1826 C   0  0  0  0  0  0  0  0  0  0  0  0
  158.2890  139.9423  160.4383 H   0  0  0  0  0  0  0  0  0  0  0  0
  157.8408  141.3835  159.5251 H   0  0  0  0  0  0  0  0  0  0  0  0
  157.3682  139.7764  158.9429 H   0  0  0  0  0  0  0  0  0  0  0  0
  155.2812  142.1425  159.9470 H   0  0  0  0  0  0  0  0  0  0  0  0
  155.3314  140.8099  158.8010 H   0  0  0  0  0  0  0  0  0  0  0  0
  153.9088  139.4485  160.4334 H   0  0  0  0  0  0  0  0  0  0  0  0
  153.7428  140.8741  161.4215 H   0  0  0  0  0  0  0  0  0  0  0  0
  149.4548  138.7159  158.5448 H   0  0  0  0  0  0  0  0  0  0  0  0
  150.5246  138.4836  157.1728 H   0  0  0  0  0  0  0  0  0  0  0  0
  150.3269  136.6619  156.1266 H   0  0  0  0  0  0  0  0  0  0  0  0
  148.8429  134.2793  157.1154 H   0  0  0  0  0  0  0  0  0  0  0  0
  151.8266  134.2157  156.2210 H   0  0  0  0  0  0  0  0  0  0  0  0
  150.7413  132.7685  156.5503 H   0  0  0  0  0  0  0  0  0  0  0  0
  149.1655  133.5441  154.7582 H   0  0  0  0  0  0  0  0  0  0  0  0
  150.2516  134.9910  154.4304 H   0  0  0  0  0  0  0  0  0  0  0  0
  149.8642  143.2874  157.2451 H   0  0  0  0  0  0  0  0  0  0  0  0
  150.9394  145.4868  157.6670 H   0  0  0  0  0  0  0  0  0  0  0  0
  152.9986  145.6343  159.0522 H   0  0  0  0  0  0  0  0  0  0  0  0
  153.9970  143.5698  160.0275 H   0  0  0  0  0  0  0  0  0  0  0  0
  1  2  1  0  0  0  0
  1 22  1  0  0  0  0
  1 23  1  0  0  0  0
  1 24  1  0  0  0  0
  2  3  1  0  0  0  0
  3  4  1  0  0  0  0
  3 25  1  0  0  0  0
  3 26  1  0  0  0  0
  4  5  1  0  0  0  0
  4 27  1  0  0  0  0
  4 28  1  0  0  0  0
  5 21  1  0  0  0  0
  5  6  1  0  0  0  0
  6  7  1  0  0  0  0
  6 15  2  0  0  0  0
  7  8  1  0  0  0  0
  8  9  1  0  0  0  0
  8 29  1  0  0  0  0
  8 30  1  0  0  0  0
  9 10  2  0  0  0  0
  9 11  1  0  0  0  0
 11 12  1  0  0  0  0
 11 31  1  0  0  0  0
 12 14  1  0  0  0  0
 12 13  1  0  0  0  0
 12 32  1  0  0  0  0
 13 14  1  0  0  0  0
 13 33  1  0  0  0  0
 13 34  1  0  0  0  0
 14 35  1  0  0  0  0
 14 36  1  0  0  0  0
 15 16  1  0  0  0  0
 16 21  2  0  0  0  0
 16 17  1  0  0  0  0
 17 18  2  0  0  0  0
 17 37  1  0  0  0  0
 18 19  1  0  0  0  0
 18 38  1  0  0  0  0
 19 20  2  0  0  0  0
 19 39  1  0  0  0  0
 20 21  1  0  0  0  0
 20 40  1  0  0  0  0
M  END
> <s_m_source_file>
AV-unprocessed.smi

> <i_m_source_file_index>
2966

> <i_lp_mmshare_version>
43012

> <i_f3d_flags>
0

> <s_epik_input>
W2NIXTFbY0hdW2NIXVtjSF1jKGMxMiluKFtDSDJdW0NIMl1PW0NIM10pYyhuMilTW0NIMl1DKD1PKVtOSF1bQ0hdM1tDSDJdW0NIMl0z

> <s_epik_cmdline>
J2VwaWtfcHl0aG9uJywgJy1waCcsICc3LjAnLCAnLXRuJywgJzgnLCAnLW1hJywgJzIwMCcsICctbWV0YWxfYmluZGluZycsICctaW1hZScsICc8aW5maWxlLm1hZT4nLCAnLW9tYWUnLCAnPG91dGZpbGUubWFlPic=

> <r_epik_Ionization_Penalty>
0.0369383

> <r_epik_Ionization_Penalty_Charging>
0

> <r_epik_Ionization_Penalty_Neutral>
0.0369383

> <r_epik_State_Penalty>
0.0308874

> <r_epik_Charging_Adjusted_Penalty>
0.0308874

> <i_epik_Tot_Q>
0

> <i_epik_Tot_abs_Q>
0

> <r_epik_Metal_State_Penalty>
0.0290633

> <b_epik_Metal_Only>
0

> <s_lp_Force_Field>
OPLS_2005

> <r_lp_Energy>
20.8616

> <b_lp_Chiralities_Consistent>
1

> <s_lp_Variant>
AV-unprocessed.smi:2966-1

> <Gold.Version>
5.8.1

> <Gold.Id.Protein>
6NUR|6NUR_protein|mol2

> <Gold.PLP.Fitness>
44.1497

> <Gold.PLP.PLP>
-41.5896

> <Gold.PLP.part.hbond>
-2.0000

> <Gold.PLP.part.metal>
0.0000

> <Gold.PLP.part.buried>
-5.1183

> <Gold.PLP.part.nonpolar>
-34.4119

> <Gold.PLP.part.repulsive>
0.0794

> <Gold.PLP.ligand.clash>
0.0000

> <Gold.PLP.ligand.torsion>
0.2895

> <Gold.PLP.Chemscore.Hbond>
1.0000

> <Gold.PLP.Chemscore.CHOScore>
0.0000

> <Gold.PLP.Chemscore.Metal>
0.0000

> <Gold.Chemscore.Hbonds>
donor molecule, donor type, donor heavy atom, donor atom, acceptor molecule, acceptor atom, score
      P1  H  6896  6908       L1    10  1.00

> <Gold.PLP.Chemscore.Internal.Correction>
0.1392

> <Gold.Rescore>
     Score         DG    S(hbond)    S(metal)    S(lipo)     H(rot)  DE(clash)    DE(int)     intcor
     16.42     -16.78       0.99        0.00     115.09       2.13       0.05       0.30       ----

> <Gold.Chemscore.Fitness>
16.4236

> <Gold.Chemscore.DG>
-16.7781

> <Gold.Chemscore.ZeroCoef>
-5.4800

> <Gold.Chemscore.Hbond>
0.9865

> <Gold.Chemscore.Metal>
0.0000

> <Gold.Chemscore.Lipo>
115.0903

> <Gold.Chemscore.Internal_Hbond>
0.0000

> <Gold.Chemscore.DEClash>
0.0515

> <Gold.Chemscore.DEInternal>
0.3029

> <Gold.Chemscore.Rot>
2.1338

> <Gold.Chemscore.Internal.Correction>
   9.000000E+99

> <Gold.Chemscore.Hbonds>
donor molecule, donor type, donor heavy atom, donor atom, acceptor molecule, acceptor atom, score
      P1  H  6896  6908       L1    10  0.77

> <Gold.Chemscore.Hbond.Weighted>
-3.2950

> <Gold.Chemscore.Metal.Weighted>
-0.0000

> <Gold.Chemscore.Lipo.Weighted>
-13.4656

> <Gold.Chemscore.Internal_Hbond.Weighted>
0.0000

> <Gold.Chemscore.DEClash.Weighted>
0.0515

> <Gold.Chemscore.DEInternal.Weighted>
0.3029

> <Gold.Chemscore.Rot.Weighted>
5.4626

> <Gold.Chemscore.Internal.Correction.Weighted>
   9.000000E+99

> <Gold.Protein.RotatedTorsions>
[ 6907 6896 6895 6894 ] final  164.89 input  -60.11 | X-H torsion
[ 7974 7965 7964 7962 ] final  -48.05 input  175.53 | X-H torsion
[ 8008 7997 7996 7995 ] final -109.46 input   59.86 | X-H torsion
[ 10167 10162 10161 10158 ] final   74.46 input  -65.29 | X-H torsion
[ 10718 10713 10712 10709 ] final -152.92 input   66.30 | X-H torsion
[ 10763 10752 10751 10750 ] final   96.57 input  -60.55 | X-H torsion
[ 11005 11000 10999 10996 ] final -151.48 input  -57.11 | X-H torsion

> <Gold.Protein.ActiveResidues>
 VAL166  LYS551  ARG553  GLY616  TRP617  ASP618  TYR619  PRO620  LYS621  CYS622 
 ASP623  PHE694  ASN695  SER759  ASP760  ASP761  ALA762  ILE779  LEU786  VAL792 
 PHE793  MET794  SER795  GLU796  ALA797  LYS798  CYS799  TRP800  GLU811  SER814 

> <Gold.Protein.RotatedAtoms>
  151.9029  133.3542  159.3836 H   0  0  0  0  0  0  0  0  0  0  0  0  # atno 6907 bound_to 6896
  150.7076  134.4810  159.5479 H   0  0  0  0  0  0  0  0  0  0  0  0  # atno 6908 bound_to 6896
  152.2402  134.8236  160.0512 H   0  0  0  0  0  0  0  0  0  0  0  0  # atno 6909 bound_to 6896
  145.9552  140.7533  142.9485 H   0  0  0  0  0  0  0  0  0  0  0  0  # atno 7974 bound_to 7965
  154.9596  140.0399  157.2184 H   0  0  0  0  0  0  0  0  0  0  0  0  # atno 8008 bound_to 7997
  154.7901  140.2834  155.5976 H   0  0  0  0  0  0  0  0  0  0  0  0  # atno 8009 bound_to 7997
  156.2948  140.2575  156.2746 H   0  0  0  0  0  0  0  0  0  0  0  0  # atno 8010 bound_to 7997
  140.0134  144.5596  150.7640 H   0  0  0  0  0  0  0  0  0  0  0  0  # atno 10167 bound_to 10162
  156.4789  130.8294  151.2521 H   0  0  0  0  0  0  0  0  0  0  0  0  # atno 10718 bound_to 10713
  153.2666  135.4214  155.0946 H   0  0  0  0  0  0  0  0  0  0  0  0  # atno 10763 bound_to 10752
  154.8440  135.3462  154.6303 H   0  0  0  0  0  0  0  0  0  0  0  0  # atno 10764 bound_to 10752
  153.6723  135.7043  153.5200 H   0  0  0  0  0  0  0  0  0  0  0  0  # atno 10765 bound_to 10752
  140.7291  134.3641  157.5170 H   0  0  0  0  0  0  0  0  0  0  0  0  # atno 11005 bound_to 11000
  144.6803  140.2500  143.7333 LP  0  0  0  0  0  0  0  0  0  0  0  0  # atno 17320 bound_to 7965
  145.8116  139.2005  143.1989 LP  0  0  0  0  0  0  0  0  0  0  0  0  # atno 17321 bound_to 7965
  140.7372  143.2762  151.3734 LP  0  0  0  0  0  0  0  0  0  0  0  0  # atno 17342 bound_to 10162
  139.6189  144.0947  152.2372 LP  0  0  0  0  0  0  0  0  0  0  0  0  # atno 17343 bound_to 10162
  157.7485  131.0051  150.3102 LP  0  0  0  0  0  0  0  0  0  0  0  0  # atno 17370 bound_to 10713
  156.3542  130.3836  149.7304 LP  0  0  0  0  0  0  0  0  0  0  0  0  # atno 17371 bound_to 10713
  139.8830  134.9006  156.2792 LP  0  0  0  0  0  0  0  0  0  0  0  0  # atno 17394 bound_to 11000
  140.9937  133.7193  156.0853 LP  0  0  0  0  0  0  0  0  0  0  0  0  # atno 17395 bound_to 11000

$$$$
