AV-unprocessed.smi:283|AV-procd|sdf|2127|dock3
  -GOLD-   2262021433D 1   1.00000     0.00000
 Structure written by MMmdl.
 48 51  0  0  0  0  0  0  0  0  1 V2000
  152.9723  140.1379  159.1856 C   0  0  0  0  0  0  0  0  0  0  0  0
  151.7309  140.9415  158.7569 C   0  0  2  0  0  0  0  0  0  0  0  0
  151.4667  140.7831  157.3270 N   0  0  0  0  0  0  0  0  0  0  0  0
  151.5533  139.5807  156.7157 C   0  0  0  0  0  0  0  0  0  0  0  0
  152.3453  139.3957  155.6279 N   0  0  0  0  0  0  0  0  0  0  0  0
  152.4128  138.1942  155.0476 C   0  0  0  0  0  0  0  0  0  0  0  0
  151.7854  137.0671  155.3891 N   0  0  0  0  0  0  0  0  0  0  0  0
  150.9908  137.2440  156.4843 C   0  0  0  0  0  0  0  0  0  0  0  0
  150.8257  138.4630  157.2000 C   0  0  0  0  0  0  0  0  0  0  0  0
  149.9483  138.2728  158.2591 N   0  0  0  0  0  0  0  0  0  0  0  0
  149.6161  137.0133  158.1706 C   0  0  0  0  0  0  0  0  0  0  0  0
  150.1964  136.3174  157.1331 N   0  0  0  0  0  0  0  0  0  0  0  0
  149.9962  134.8702  156.7936 C   0  0  1  0  0  0  0  0  0  0  0  0
  149.1816  134.2720  157.7596 O   0  0  0  0  0  0  0  0  0  0  0  0
  147.9908  133.7574  157.1635 C   0  0  2  0  0  0  0  0  0  0  0  0
  147.5258  132.5126  157.9335 C   0  0  0  0  0  0  0  0  0  0  0  0
  146.4180  131.9304  157.2809 O   0  0  0  0  0  0  0  0  0  0  0  0
  148.4309  133.4648  155.7282 C   0  0  1  0  0  0  0  0  0  0  0  0
  147.3517  133.3437  154.8215 O   0  0  0  0  0  0  0  0  0  0  0  0
  149.3342  134.6499  155.4196 C   0  0  1  0  0  0  0  0  0  0  0  0
  148.6116  135.7777  154.9480 O   0  0  0  0  0  0  0  0  0  0  0  0
  151.8923  142.4047  159.1667 C   0  0  0  0  0  0  0  0  0  0  0  0
  152.3603  142.7295  160.4622 C   0  0  0  0  0  0  0  0  0  0  0  0
  152.5049  144.0723  160.8584 C   0  0  0  0  0  0  0  0  0  0  0  0
  152.1769  145.1080  159.9655 C   0  0  0  0  0  0  0  0  0  0  0  0
  151.6994  144.7979  158.6791 C   0  0  0  0  0  0  0  0  0  0  0  0
  151.5516  143.4553  158.2765 C   0  0  0  0  0  0  0  0  0  0  0  0
  150.9425  143.1370  156.6895 Cl  0  0  0  0  0  0  0  0  0  0  0  0
  150.9929  134.4316  156.8568 H   0  0  0  0  0  0  0  0  0  0  0  0
  147.2165  134.5264  157.1559 H   0  0  0  0  0  0  0  0  0  0  0  0
  149.0195  132.5463  155.7060 H   0  0  0  0  0  0  0  0  0  0  0  0
  150.0965  134.3971  154.6819 H   0  0  0  0  0  0  0  0  0  0  0  0
  153.1385  140.2207  160.2600 H   0  0  0  0  0  0  0  0  0  0  0  0
  153.8698  140.5000  158.6832 H   0  0  0  0  0  0  0  0  0  0  0  0
  152.8710  139.0774  158.9559 H   0  0  0  0  0  0  0  0  0  0  0  0
  150.8619  140.5490  159.2838 H   0  0  0  0  0  0  0  0  0  0  0  0
  151.3014  141.6398  156.8189 H   0  0  0  0  0  0  0  0  0  0  0  0
  153.0619  138.1258  154.1873 H   0  0  0  0  0  0  0  0  0  0  0  0
  148.9319  136.5519  158.8678 H   0  0  0  0  0  0  0  0  0  0  0  0
  148.3205  131.7665  157.9581 H   0  0  0  0  0  0  0  0  0  0  0  0
  147.2754  132.7541  158.9670 H   0  0  0  0  0  0  0  0  0  0  0  0
  146.6064  131.0164  157.1308 H   0  0  0  0  0  0  0  0  0  0  0  0
  146.6599  133.9214  155.1080 H   0  0  0  0  0  0  0  0  0  0  0  0
  148.6675  135.7961  154.0048 H   0  0  0  0  0  0  0  0  0  0  0  0
  152.6082  141.9500  161.1673 H   0  0  0  0  0  0  0  0  0  0  0  0
  152.8656  144.3071  161.8490 H   0  0  0  0  0  0  0  0  0  0  0  0
  152.2858  146.1388  160.2682 H   0  0  0  0  0  0  0  0  0  0  0  0
  151.4416  145.5962  157.9985 H   0  0  0  0  0  0  0  0  0  0  0  0
  1  2  1  0  0  0  0
  1 33  1  0  0  0  0
  1 34  1  0  0  0  0
  1 35  1  0  0  0  0
  2  3  1  0  0  0  0
  2 22  1  0  0  0  0
  2 36  1  0  0  0  0
  3  4  1  0  0  0  0
  3 37  1  0  0  0  0
  4  9  1  0  0  0  0
  4  5  2  0  0  0  0
  5  6  1  0  0  0  0
  6  7  2  0  0  0  0
  6 38  1  0  0  0  0
  7  8  1  0  0  0  0
  8 12  1  0  0  0  0
  8  9  2  0  0  0  0
  9 10  1  0  0  0  0
 10 11  2  0  0  0  0
 11 12  1  0  0  0  0
 11 39  1  0  0  0  0
 12 13  1  0  0  0  0
 13 29  1  0  0  0  0
 13 20  1  0  0  0  0
 13 14  1  0  0  0  0
 14 15  1  0  0  0  0
 15 30  1  0  0  0  0
 15 16  1  0  0  0  0
 15 18  1  0  0  0  0
 16 17  1  0  0  0  0
 16 40  1  0  0  0  0
 16 41  1  0  0  0  0
 17 42  1  0  0  0  0
 18 31  1  0  0  0  0
 18 19  1  0  0  0  0
 18 20  1  0  0  0  0
 19 43  1  0  0  0  0
 20 32  1  0  0  0  0
 20 21  1  0  0  0  0
 21 44  1  0  0  0  0
 22 27  1  0  0  0  0
 22 23  2  0  0  0  0
 23 24  1  0  0  0  0
 23 45  1  0  0  0  0
 24 25  2  0  0  0  0
 24 46  1  0  0  0  0
 25 26  1  0  0  0  0
 25 47  1  0  0  0  0
 26 27  2  0  0  0  0
 26 48  1  0  0  0  0
 27 28  1  0  0  0  0
M  END
> <s_m_source_file>
AV-unprocessed.smi

> <i_m_source_file_index>
283

> <i_lp_mmshare_version>
43012

> <i_f3d_flags>
0

> <s_epik_input>
Q2xjMVtjSF1bY0hdW2NIXVtjSF1jMVtDQEhdKFtDSDNdKVtOSF1jKG5bY0hdbjIpYyhjMjMpbltjSF1uM1tDQEBIXTRPW0NASF0oW0NIMl1bT0hdKVtDQEBIXShbT0hdKVtDQEhdNFtPSF0=

> <s_epik_cmdline>
J2VwaWtfcHl0aG9uJywgJy1waCcsICc3LjAnLCAnLXRuJywgJzgnLCAnLW1hJywgJzIwMCcsICctbWV0YWxfYmluZGluZycsICctaW1hZScsICc8aW5maWxlLm1hZT4nLCAnLW9tYWUnLCAnPG91dGZpbGUubWFlPic=

> <r_lp_tautomer_probability>
1

> <r_epik_Ionization_Penalty>
0.000266407

> <r_epik_Ionization_Penalty_Charging>
0

> <r_epik_Ionization_Penalty_Neutral>
0.000266407

> <r_epik_State_Penalty>
-0

> <r_epik_Charging_Adjusted_Penalty>
0

> <i_epik_Tot_Q>
0

> <i_epik_Tot_abs_Q>
0

> <r_epik_Metal_State_Penalty>
-0

> <b_epik_Metal_Only>
0

> <s_epik_Chemistry_Notes>
This compound contains an acetal/aminal-like group ( X-CH(R)-Y where X, Y are N, S, or O) that may be acid/base labile, releasing an aldehyde.

> <s_lp_Force_Field>
OPLS_2005

> <r_lp_Energy>
51.5446

> <b_lp_Chiralities_Consistent>
1

> <s_lp_Variant>
AV-unprocessed.smi:283-3

> <Gold.Version>
5.8.1

> <Gold.Id.Protein>
6NUR|6NUR_protein|mol2

> <Gold.PLP.Fitness>
53.6495

> <Gold.PLP.PLP>
-45.0015

> <Gold.PLP.part.hbond>
-4.0000

> <Gold.PLP.part.metal>
0.0000

> <Gold.PLP.part.buried>
-5.3965

> <Gold.PLP.part.nonpolar>
-37.0756

> <Gold.PLP.part.repulsive>
0.1391

> <Gold.PLP.ligand.clash>
0.2230

> <Gold.PLP.ligand.torsion>
1.0236

> <Gold.PLP.Chemscore.Hbond>
3.6160

> <Gold.PLP.Chemscore.CHOScore>
0.0000

> <Gold.PLP.Chemscore.Metal>
0.0000

> <Gold.Chemscore.Hbonds>
donor molecule, donor type, donor heavy atom, donor atom, acceptor molecule, acceptor atom, score
      L1  H    21    44       P1  7948  0.60
      P1  H  6896  6907       L1    14  0.54
      P1  H  7997  8009       L1     5  0.54
      P1  H 10752 10765       L1     7  1.00

> <Gold.PLP.Chemscore.Internal.Correction>
0.0703

> <Gold.Rescore>
     Score         DG    S(hbond)    S(metal)    S(lipo)     H(rot)  DE(clash)    DE(int)     intcor
     14.90     -18.28       3.16        0.00     108.98       4.10       0.18       3.21       ----

> <Gold.Chemscore.Fitness>
14.8986

> <Gold.Chemscore.DG>
-18.2827

> <Gold.Chemscore.ZeroCoef>
-5.4800

> <Gold.Chemscore.Hbond>
3.1557

> <Gold.Chemscore.Metal>
0.0000

> <Gold.Chemscore.Lipo>
108.9789

> <Gold.Chemscore.Internal_Hbond>
0.0000

> <Gold.Chemscore.DEClash>
0.1766

> <Gold.Chemscore.DEInternal>
3.2075

> <Gold.Chemscore.Rot>
4.0968

> <Gold.Chemscore.Internal.Correction>
   9.000000E+99

> <Gold.Chemscore.Hbonds>
donor molecule, donor type, donor heavy atom, donor atom, acceptor molecule, acceptor atom, score
      L1  H    21    44       P1  7948  0.60
      P1  H  6896  6907       L1    14  0.10
      P1  H  7997  8009       L1     5  0.29
      P1  H 10752 10765       L1     7  0.46

> <Gold.Chemscore.Hbond.Weighted>
-10.5401

> <Gold.Chemscore.Metal.Weighted>
-0.0000

> <Gold.Chemscore.Lipo.Weighted>
-12.7505

> <Gold.Chemscore.Internal_Hbond.Weighted>
0.0000

> <Gold.Chemscore.DEClash.Weighted>
0.1766

> <Gold.Chemscore.DEInternal.Weighted>
3.2075

> <Gold.Chemscore.Rot.Weighted>
10.4879

> <Gold.Chemscore.Internal.Correction.Weighted>
   9.000000E+99

> <Gold.Protein.RotatedTorsions>
[ 6907 6896 6895 6894 ] final -110.19 input  -60.11 | X-H torsion
[ 7974 7965 7964 7962 ] final -106.70 input  175.53 | X-H torsion
[ 8008 7997 7996 7995 ] final -145.05 input   59.86 | X-H torsion
[ 10167 10162 10161 10158 ] final -176.56 input  -65.29 | X-H torsion
[ 10718 10713 10712 10709 ] final   12.10 input   66.30 | X-H torsion
[ 10763 10752 10751 10750 ] final -172.55 input  -60.55 | X-H torsion
[ 11005 11000 10999 10996 ] final -141.00 input  -57.11 | X-H torsion

> <Gold.Protein.ActiveResidues>
 VAL166  LYS551  ARG553  GLY616  TRP617  ASP618  TYR619  PRO620  LYS621  CYS622 
 ASP623  PHE694  ASN695  SER759  ASP760  ASP761  ALA762  ILE779  LEU786  VAL792 
 PHE793  MET794  SER795  GLU796  ALA797  LYS798  CYS799  TRP800  GLU811  SER814 

> <Gold.Protein.RotatedAtoms>
  150.7609  133.9419  159.3458 H   0  0  0  0  0  0  0  0  0  0  0  0  # atno 6907 bound_to 6896
  151.7328  135.0869  160.0312 H   0  0  0  0  0  0  0  0  0  0  0  0  # atno 6908 bound_to 6896
  152.3579  133.6222  159.6029 H   0  0  0  0  0  0  0  0  0  0  0  0  # atno 6909 bound_to 6896
  145.2145  140.9110  143.3295 H   0  0  0  0  0  0  0  0  0  0  0  0  # atno 7974 bound_to 7965
  155.5368  140.0604  157.2878 H   0  0  0  0  0  0  0  0  0  0  0  0  # atno 8008 bound_to 7997
  154.4465  140.1926  156.0595 H   0  0  0  0  0  0  0  0  0  0  0  0  # atno 8009 bound_to 7997
  156.0613  140.3272  155.7469 H   0  0  0  0  0  0  0  0  0  0  0  0  # atno 8010 bound_to 7997
  139.5523  144.2077  152.1099 H   0  0  0  0  0  0  0  0  0  0  0  0  # atno 10167 bound_to 10162
  157.0052  130.6095  149.5701 H   0  0  0  0  0  0  0  0  0  0  0  0  # atno 10718 bound_to 10713
  154.6180  135.2872  155.0358 H   0  0  0  0  0  0  0  0  0  0  0  0  # atno 10763 bound_to 10752
  154.1563  135.6495  153.4979 H   0  0  0  0  0  0  0  0  0  0  0  0  # atno 10764 bound_to 10752
  153.0223  135.5367  154.6959 H   0  0  0  0  0  0  0  0  0  0  0  0  # atno 10765 bound_to 10752
  140.8368  134.2451  157.4830 H   0  0  0  0  0  0  0  0  0  0  0  0  # atno 11005 bound_to 11000
  144.9824  139.3770  143.6255 LP  0  0  0  0  0  0  0  0  0  0  0  0  # atno 17320 bound_to 7965
  146.3390  139.8970  142.8800 LP  0  0  0  0  0  0  0  0  0  0  0  0  # atno 17321 bound_to 7965
  140.1574  144.5057  150.6652 LP  0  0  0  0  0  0  0  0  0  0  0  0  # atno 17342 bound_to 10162
  140.6789  143.2317  151.5436 LP  0  0  0  0  0  0  0  0  0  0  0  0  # atno 17343 bound_to 10162
  156.0156  130.5250  150.8125 LP  0  0  0  0  0  0  0  0  0  0  0  0  # atno 17370 bound_to 10713
  157.5361  131.0939  150.9890 LP  0  0  0  0  0  0  0  0  0  0  0  0  # atno 17371 bound_to 10713
  139.8704  134.9614  156.4397 LP  0  0  0  0  0  0  0  0  0  0  0  0  # atno 17394 bound_to 11000
  140.8939  133.7828  155.9603 LP  0  0  0  0  0  0  0  0  0  0  0  0  # atno 17395 bound_to 11000

$$$$
