AV-unprocessed.smi:964|AV-procd|sdf|4279|dock8
  -GOLD-   22720 2183D 1   1.00000     0.00000
 Structure written by MMmdl.
 20 20  0  0  0  0  0  0  0  0  2 V2000
  145.8109  136.7606  151.1666 C   0  0  0  0  0  0  0  0  0  0  0  0
  145.2232  135.4042  151.3629 C   0  0  0  0  0  0  0  0  0  0  0  0
  144.9203  134.6080  150.3276 N   0  0  0  0  0  0  0  0  0  0  0  0
  144.4359  133.5104  150.9275 C   0  0  0  0  0  0  0  0  0  0  0  0
  143.9521  132.3268  150.1552 C   0  0  0  0  0  0  0  0  0  0  0  0
  143.8073  132.6231  148.6562 C   0  0  0  0  0  0  0  0  0  0  0  0
  142.3925  132.6538  148.2490 N   0  3  0  0  0  0  0  0  0  0  0  0
  144.4226  133.6034  152.2604 N   0  0  0  0  0  0  0  0  0  0  0  0
  144.9436  134.8537  152.5481 N   0  0  0  0  0  0  0  0  0  0  0  0
  145.0356  134.7912  149.3413 H   0  0  0  0  0  0  0  0  0  0  0  0
  146.0652  137.2089  152.1275 H   0  0  0  0  0  0  0  0  0  0  0  0
  145.0967  137.4083  150.6578 H   0  0  0  0  0  0  0  0  0  0  0  0
  146.7172  136.6933  150.5644 H   0  0  0  0  0  0  0  0  0  0  0  0
  142.9922  132.0161  150.5701 H   0  0  0  0  0  0  0  0  0  0  0  0
  144.6421  131.4960  150.3104 H   0  0  0  0  0  0  0  0  0  0  0  0
  144.2592  133.5858  148.4145 H   0  0  0  0  0  0  0  0  0  0  0  0
  144.3270  131.8664  148.0677 H   0  0  0  0  0  0  0  0  0  0  0  0
  141.9021  133.3529  148.7888 H   0  0  0  0  0  0  0  0  0  0  0  0
  141.9745  131.7492  148.4148 H   0  0  0  0  0  0  0  0  0  0  0  0
  142.3262  132.8801  147.2669 H   0  0  0  0  0  0  0  0  0  0  0  0
  1 11  1  0  0  0  0
  1 12  1  0  0  0  0
  1 13  1  0  0  0  0
  1  2  1  0  0  0  0
  2  3  1  0  0  0  0
  2  9  2  0  0  0  0
  3 10  1  0  0  0  0
  3  4  1  0  0  0  0
  4  8  2  0  0  0  0
  4  5  1  0  0  0  0
  5  6  1  0  0  0  0
  5 14  1  0  0  0  0
  5 15  1  0  0  0  0
  6  7  1  0  0  0  0
  6 16  1  0  0  0  0
  6 17  1  0  0  0  0
  7 18  1  0  0  0  0
  7 19  1  0  0  0  0
  7 20  1  0  0  0  0
  8  9  1  0  0  0  0
M  CHG  1   7   1
M  END
> <s_m_source_file>
AV-unprocessed.smi

> <i_m_source_file_index>
964

> <i_lp_mmshare_version>
43012

> <i_f3d_flags>
0

> <s_epik_input>
W0NIM11jMW5jKG5bbkhdMSlbQ0gyXVtDSDJdW05IMl0=

> <s_epik_cmdline>
J2VwaWtfcHl0aG9uJywgJy1waCcsICc3LjAnLCAnLXRuJywgJzgnLCAnLW1hJywgJzIwMCcsICctbWV0YWxfYmluZGluZycsICctaW1hZScsICc8aW5maWxlLm1hZT4nLCAnLW9tYWUnLCAnPG91dGZpbGUubWFlPic=

> <r_lp_tautomer_probability>
0.0517155

> <r_epik_Ionization_Penalty>
0.0139864

> <r_epik_Ionization_Penalty_Charging>
0.00465044

> <r_epik_Ionization_Penalty_Neutral>
0.00933595

> <r_epik_State_Penalty>
2.23303

> <r_epik_Charging_Adjusted_Penalty>
2.23768

> <i_epik_Tot_Q>
1

> <i_epik_Tot_abs_Q>
1

> <r_epik_Metal_State_Penalty>
2.43351

> <b_epik_Metal_Only>
0

> <s_lp_Force_Field>
OPLS_2005

> <r_lp_Energy>
2.69796

> <b_lp_Chiralities_Consistent>
1

> <s_lp_Variant>
AV-unprocessed.smi:964-3

> <Gold.Version>
5.8.1

> <Gold.Id.Protein>
6NUR|6NUR_protein|mol2

> <Gold.PLP.Fitness>
34.6054

> <Gold.PLP.PLP>
-20.6205

> <Gold.PLP.part.hbond>
-4.0000

> <Gold.PLP.part.metal>
0.0000

> <Gold.PLP.part.buried>
-1.8489

> <Gold.PLP.part.nonpolar>
-15.9662

> <Gold.PLP.part.repulsive>
0.4453

> <Gold.PLP.ligand.clash>
0.0000

> <Gold.PLP.ligand.torsion>
0.4826

> <Gold.PLP.Chemscore.Hbond>
4.9833

> <Gold.PLP.Chemscore.CHOScore>
0.0000

> <Gold.PLP.Chemscore.Metal>
0.0000

> <Gold.Chemscore.Hbonds>
donor molecule, donor type, donor heavy atom, donor atom, acceptor molecule, acceptor atom, score
      L1  H     3    10       P1  7921  1.00
      L1  H     7    18       P1 10186  2.00
      L1  H     7    19       P1 10952  0.75
      L1  H     7    20       P1 10195  1.00

> <Gold.PLP.Chemscore.Internal.Correction>
0.0004

> <Gold.Rescore>
     Score         DG    S(hbond)    S(metal)    S(lipo)     H(rot)  DE(clash)    DE(int)     intcor
     17.80     -18.70       3.95        0.00      33.31       1.51       0.46       0.44       ----

> <Gold.Chemscore.Fitness>
17.8036

> <Gold.Chemscore.DG>
-18.7001

> <Gold.Chemscore.ZeroCoef>
-5.4800

> <Gold.Chemscore.Hbond>
3.9474

> <Gold.Chemscore.Metal>
0.0000

> <Gold.Chemscore.Lipo>
33.3057

> <Gold.Chemscore.Internal_Hbond>
0.0000

> <Gold.Chemscore.DEClash>
0.4564

> <Gold.Chemscore.DEInternal>
0.4402

> <Gold.Chemscore.Rot>
1.5082

> <Gold.Chemscore.Internal.Correction>
   9.000000E+99

> <Gold.Chemscore.Hbonds>
donor molecule, donor type, donor heavy atom, donor atom, acceptor molecule, acceptor atom, score
      L1  H     3    10       P1  7921  0.90
      L1  H     7    18       P1 10186  0.97
      L1  H     7    19       P1 10952  0.73
      L1  H     7    20       P1 10195  1.00

> <Gold.Chemscore.Hbond.Weighted>
-13.1845

> <Gold.Chemscore.Metal.Weighted>
-0.0000

> <Gold.Chemscore.Lipo.Weighted>
-3.8968

> <Gold.Chemscore.Internal_Hbond.Weighted>
0.0000

> <Gold.Chemscore.DEClash.Weighted>
0.4564

> <Gold.Chemscore.DEInternal.Weighted>
0.4402

> <Gold.Chemscore.Rot.Weighted>
3.8611

> <Gold.Chemscore.Internal.Correction.Weighted>
   9.000000E+99

> <Gold.Protein.RotatedTorsions>
[ 6907 6896 6895 6894 ] final -100.95 input  -60.11 | X-H torsion
[ 7974 7965 7964 7962 ] final   48.76 input  175.53 | X-H torsion
[ 8008 7997 7996 7995 ] final -116.79 input   59.86 | X-H torsion
[ 10167 10162 10161 10158 ] final   23.53 input  -65.29 | X-H torsion
[ 10718 10713 10712 10709 ] final  165.80 input   66.30 | X-H torsion
[ 10763 10752 10751 10750 ] final  -35.60 input  -60.55 | X-H torsion
[ 11005 11000 10999 10996 ] final -177.52 input  -57.11 | X-H torsion

> <Gold.Protein.ActiveResidues>
 VAL166  LYS551  ARG553  GLY616  TRP617  ASP618  TYR619  PRO620  LYS621  CYS622 
 ASP623  PHE694  ASN695  SER759  ASP760  ASP761  ALA762  ILE779  LEU786  VAL792 
 PHE793  MET794  SER795  GLU796  ALA797  LYS798  CYS799  TRP800  GLU811  SER814 

> <Gold.Protein.RotatedAtoms>
  150.7135  134.0808  159.3897 H   0  0  0  0  0  0  0  0  0  0  0  0  # atno 6907 bound_to 6896
  151.8792  135.0457  160.0496 H   0  0  0  0  0  0  0  0  0  0  0  0  # atno 6908 bound_to 6896
  152.2581  133.5237  159.5402 H   0  0  0  0  0  0  0  0  0  0  0  0  # atno 6909 bound_to 6896
  146.0174  139.4612  142.9918 H   0  0  0  0  0  0  0  0  0  0  0  0  # atno 7974 bound_to 7965
  155.0734  140.0393  157.2616 H   0  0  0  0  0  0  0  0  0  0  0  0  # atno 8008 bound_to 7997
  154.6964  140.2664  155.6737 H   0  0  0  0  0  0  0  0  0  0  0  0  # atno 8009 bound_to 7997
  156.2746  140.2749  156.1560 H   0  0  0  0  0  0  0  0  0  0  0  0  # atno 8010 bound_to 7997
  140.5262  143.9919  150.6441 H   0  0  0  0  0  0  0  0  0  0  0  0  # atno 10167 bound_to 10162
  157.0749  131.0376  151.2597 H   0  0  0  0  0  0  0  0  0  0  0  0  # atno 10718 bound_to 10713
  153.8660  135.6835  153.4778 H   0  0  0  0  0  0  0  0  0  0  0  0  # atno 10763 bound_to 10752
  153.1314  135.4696  154.9353 H   0  0  0  0  0  0  0  0  0  0  0  0  # atno 10764 bound_to 10752
  154.7736  135.3246  154.8087 H   0  0  0  0  0  0  0  0  0  0  0  0  # atno 10765 bound_to 10752
  140.4400  134.6440  157.4753 H   0  0  0  0  0  0  0  0  0  0  0  0  # atno 11005 bound_to 11000
  145.7247  141.0063  143.1383 LP  0  0  0  0  0  0  0  0  0  0  0  0  # atno 17320 bound_to 7965
  144.6976  139.8913  143.7453 LP  0  0  0  0  0  0  0  0  0  0  0  0  # atno 17321 bound_to 7965
  140.3282  143.3094  152.0715 LP  0  0  0  0  0  0  0  0  0  0  0  0  # atno 17342 bound_to 10162
  139.4939  144.6527  151.6640 LP  0  0  0  0  0  0  0  0  0  0  0  0  # atno 17343 bound_to 10162
  157.4847  130.7786  149.7449 LP  0  0  0  0  0  0  0  0  0  0  0  0  # atno 17370 bound_to 10713
  155.9940  130.3921  150.2878 LP  0  0  0  0  0  0  0  0  0  0  0  0  # atno 17371 bound_to 10713
  140.0076  134.6740  155.9431 LP  0  0  0  0  0  0  0  0  0  0  0  0  # atno 17394 bound_to 11000
  141.1709  133.6537  156.4649 LP  0  0  0  0  0  0  0  0  0  0  0  0  # atno 17395 bound_to 11000

$$$$
