AV-unprocessed.smi:1836|AV-procd|sdf|7480|dock6
  -GOLD-   22720 9173D 1   1.00000     0.00000
 Structure written by MMmdl.
 32 33  0  0  0  0  0  0  0  0  2 V2000
  152.4252  139.8945  158.4492 C   0  0  0  0  0  0  0  0  0  0  0  0
  151.1817  140.7288  158.1141 C   0  0  1  0  0  0  0  0  0  0  0  0
  151.5636  142.1940  157.8048 C   0  0  0  0  0  0  0  0  0  0  0  0
  151.8488  142.9641  159.0151 N   0  0  0  0  0  0  0  0  0  0  0  0
  152.7335  142.4342  160.0391 C   0  0  0  0  0  0  0  0  0  0  0  0
  152.5921  143.4023  161.2217 C   0  0  0  0  0  0  0  0  0  0  0  0
  151.9308  144.6605  160.6499 C   0  0  0  0  0  0  0  0  0  0  0  0
  151.4255  144.2041  159.2919 C   0  0  0  0  0  0  0  0  0  0  0  0
  150.7207  144.9105  158.5726 O   0  0  0  0  0  0  0  0  0  0  0  0
  150.5030  140.1088  156.9761 N   0  0  0  0  0  0  0  0  0  0  0  0
  151.0224  139.9033  155.7561 C   0  0  0  0  0  0  0  0  0  0  0  0
  152.1766  140.2607  155.5077 O   0  0  0  0  0  0  0  0  0  0  0  0
  150.1791  139.2785  154.9035 N   0  5  0  0  0  0  0  0  0  0  0  0
  149.0730  139.9089  154.4761 C   0  0  0  0  0  0  0  0  0  0  0  0
  148.9405  141.2440  154.5279 N   0  0  0  0  0  0  0  0  0  0  0  0
  147.7196  141.6904  154.0401 N   0  0  0  0  0  0  0  0  0  0  0  0
  146.9567  140.6746  153.6368 C   0  0  0  0  0  0  0  0  0  0  0  0
  147.6575  139.0805  153.8203 S   0  0  0  0  0  0  0  0  0  0  0  0
  152.9470  140.2988  159.3168 H   0  0  0  0  0  0  0  0  0  0  0  0
  153.1285  139.8768  157.6158 H   0  0  0  0  0  0  0  0  0  0  0  0
  152.1555  138.8633  158.6802 H   0  0  0  0  0  0  0  0  0  0  0  0
  150.5384  140.7072  158.9954 H   0  0  0  0  0  0  0  0  0  0  0  0
  152.4578  142.2146  157.1804 H   0  0  0  0  0  0  0  0  0  0  0  0
  150.7797  142.6771  157.2187 H   0  0  0  0  0  0  0  0  0  0  0  0
  152.4597  141.4157  160.3165 H   0  0  0  0  0  0  0  0  0  0  0  0
  153.7565  142.4237  159.6608 H   0  0  0  0  0  0  0  0  0  0  0  0
  151.9492  142.9642  161.9865 H   0  0  0  0  0  0  0  0  0  0  0  0
  153.5548  143.6186  161.6854 H   0  0  0  0  0  0  0  0  0  0  0  0
  151.1139  145.0189  161.2771 H   0  0  0  0  0  0  0  0  0  0  0  0
  152.6532  145.4662  160.5162 H   0  0  0  0  0  0  0  0  0  0  0  0
  149.5572  139.7915  157.1305 H   0  0  0  0  0  0  0  0  0  0  0  0
  145.9738  140.8647  153.2325 H   0  0  0  0  0  0  0  0  0  0  0  0
  1  2  1  0  0  0  0
  1 19  1  0  0  0  0
  1 20  1  0  0  0  0
  1 21  1  0  0  0  0
  2  3  1  0  0  0  0
  2 10  1  0  0  0  0
  2 22  1  0  0  0  0
  3  4  1  0  0  0  0
  3 23  1  0  0  0  0
  3 24  1  0  0  0  0
  4  8  1  0  0  0  0
  4  5  1  0  0  0  0
  5  6  1  0  0  0  0
  5 25  1  0  0  0  0
  5 26  1  0  0  0  0
  6  7  1  0  0  0  0
  6 27  1  0  0  0  0
  6 28  1  0  0  0  0
  7  8  1  0  0  0  0
  7 29  1  0  0  0  0
  7 30  1  0  0  0  0
  8  9  2  0  0  0  0
 10 11  1  0  0  0  0
 10 31  1  0  0  0  0
 11 12  2  0  0  0  0
 11 13  1  0  0  0  0
 13 14  1  0  0  0  0
 14 18  1  0  0  0  0
 14 15  2  0  0  0  0
 15 16  1  0  0  0  0
 16 17  2  0  0  0  0
 17 18  1  0  0  0  0
 17 32  1  0  0  0  0
M  CHG  1  13  -1
M  END
> <s_m_source_file>
AV-unprocessed.smi

> <i_m_source_file_index>
1836

> <i_lp_mmshare_version>
43012

> <i_f3d_flags>
0

> <s_epik_input>
Tz1DMVtDSDJdW0NIMl1bQ0gyXU4xW0NIMl1bQ0BASF0oW0NIM10pW05IXUMoPU8pW05IXWMybm5bY0hdczI=

> <s_epik_cmdline>
J2VwaWtfcHl0aG9uJywgJy1waCcsICc3LjAnLCAnLXRuJywgJzgnLCAnLW1hJywgJzIwMCcsICctbWV0YWxfYmluZGluZycsICctaW1hZScsICc8aW5maWxlLm1hZT4nLCAnLW9tYWUnLCAnPG91dGZpbGUubWFlPic=

> <r_lp_tautomer_probability>
1

> <r_epik_Ionization_Penalty>
3.44722

> <r_epik_Ionization_Penalty_Charging>
3.40341

> <r_epik_Ionization_Penalty_Neutral>
0.0438099

> <r_epik_State_Penalty>
3.40151

> <r_epik_Charging_Adjusted_Penalty>
6.80491

> <i_epik_Tot_Q>
-1

> <i_epik_Tot_abs_Q>
1

> <r_epik_Metal_State_Penalty>
0.49534

> <b_epik_Metal_Only>
1

> <s_lp_Force_Field>
OPLS_2005

> <r_lp_Energy>
17.1678

> <b_lp_Chiralities_Consistent>
1

> <s_lp_Variant>
AV-unprocessed.smi:1836-4

> <Gold.Version>
5.8.1

> <Gold.Id.Protein>
6NUR|6NUR_protein|mol2

> <Gold.PLP.Fitness>
38.6228

> <Gold.PLP.PLP>
-35.4614

> <Gold.PLP.part.hbond>
-2.0422

> <Gold.PLP.part.metal>
0.0000

> <Gold.PLP.part.buried>
-5.5492

> <Gold.PLP.part.nonpolar>
-29.5451

> <Gold.PLP.part.repulsive>
0.6125

> <Gold.PLP.ligand.clash>
0.0000

> <Gold.PLP.ligand.torsion>
1.0444

> <Gold.PLP.Chemscore.Hbond>
0.7609

> <Gold.PLP.Chemscore.CHOScore>
0.9396

> <Gold.PLP.Chemscore.Metal>
0.0000

> <Gold.Chemscore.Hbonds>
donor molecule, donor type, donor heavy atom, donor atom, acceptor molecule, acceptor atom, score
      P1  H  7989  7998       L1    12  0.30
      P1  H  7997  8008       L1    12  0.39
      L1  C    17    32       P1 10175  1.00

> <Gold.PLP.Chemscore.Internal.Correction>
0.1485

> <Gold.Rescore>
     Score         DG    S(hbond)    S(metal)    S(lipo)     H(rot)  DE(clash)    DE(int)     intcor
     10.12     -12.49       1.04        0.00      68.09       1.73       0.03       2.33       ----

> <Gold.Chemscore.Fitness>
10.1242

> <Gold.Chemscore.DG>
-12.4850

> <Gold.Chemscore.ZeroCoef>
-5.4800

> <Gold.Chemscore.Hbond>
1.0384

> <Gold.Chemscore.Metal>
0.0000

> <Gold.Chemscore.Lipo>
68.0880

> <Gold.Chemscore.Internal_Hbond>
0.0000

> <Gold.Chemscore.DEClash>
0.0340

> <Gold.Chemscore.DEInternal>
2.3268

> <Gold.Chemscore.Rot>
1.7302

> <Gold.Chemscore.Internal.Correction>
   9.000000E+99

> <Gold.Chemscore.Hbonds>
donor molecule, donor type, donor heavy atom, donor atom, acceptor molecule, acceptor atom, score
      P1  H  7989  7998       L1    12  0.03
      P1  H  7997  8008       L1    12  0.39

> <Gold.Chemscore.Hbond.Weighted>
-3.4681

> <Gold.Chemscore.Metal.Weighted>
-0.0000

> <Gold.Chemscore.Lipo.Weighted>
-7.9663

> <Gold.Chemscore.Internal_Hbond.Weighted>
0.0000

> <Gold.Chemscore.DEClash.Weighted>
0.0340

> <Gold.Chemscore.DEInternal.Weighted>
2.3268

> <Gold.Chemscore.Rot.Weighted>
4.4294

> <Gold.Chemscore.Internal.Correction.Weighted>
   9.000000E+99

> <Gold.Protein.RotatedTorsions>
[ 6907 6896 6895 6894 ] final -116.80 input  -60.11 | X-H torsion
[ 7974 7965 7964 7962 ] final  113.42 input  175.53 | X-H torsion
[ 8008 7997 7996 7995 ] final  -34.89 input   59.86 | X-H torsion
[ 10167 10162 10161 10158 ] final   52.98 input  -65.29 | X-H torsion
[ 10718 10713 10712 10709 ] final  128.96 input   66.30 | X-H torsion
[ 10763 10752 10751 10750 ] final   48.79 input  -60.55 | X-H torsion
[ 11005 11000 10999 10996 ] final  -33.39 input  -57.11 | X-H torsion

> <Gold.Protein.ActiveResidues>
 VAL166  LYS551  ARG553  GLY616  TRP617  ASP618  TYR619  PRO620  LYS621  CYS622 
 ASP623  PHE694  ASN695  SER759  ASP760  ASP761  ALA762  ILE779  LEU786  VAL792 
 PHE793  MET794  SER795  GLU796  ALA797  LYS798  CYS799  TRP800  GLU811  SER814 

> <Gold.Protein.RotatedAtoms>
  150.8085  133.8466  159.3193 H   0  0  0  0  0  0  0  0  0  0  0  0  # atno 6907 bound_to 6896
  151.6258  135.1026  160.0121 H   0  0  0  0  0  0  0  0  0  0  0  0  # atno 6908 bound_to 6896
  152.4176  133.7024  159.6488 H   0  0  0  0  0  0  0  0  0  0  0  0  # atno 6909 bound_to 6896
  145.2172  139.2879  143.4237 H   0  0  0  0  0  0  0  0  0  0  0  0  # atno 7974 bound_to 7965
  154.4109  140.1672  156.2123 H   0  0  0  0  0  0  0  0  0  0  0  0  # atno 8008 bound_to 7997
  155.9434  140.3406  155.6323 H   0  0  0  0  0  0  0  0  0  0  0  0  # atno 8009 bound_to 7997
  155.6961  140.0739  157.2419 H   0  0  0  0  0  0  0  0  0  0  0  0  # atno 8010 bound_to 7997
  140.2457  144.3535  150.6365 H   0  0  0  0  0  0  0  0  0  0  0  0  # atno 10167 bound_to 10162
  157.5198  131.1098  150.9171 H   0  0  0  0  0  0  0  0  0  0  0  0  # atno 10718 bound_to 10713
  152.9790  135.5933  154.3983 H   0  0  0  0  0  0  0  0  0  0  0  0  # atno 10763 bound_to 10752
  154.3631  135.2767  155.2310 H   0  0  0  0  0  0  0  0  0  0  0  0  # atno 10764 bound_to 10752
  154.4299  135.6039  153.6117 H   0  0  0  0  0  0  0  0  0  0  0  0  # atno 10765 bound_to 10752
  140.9631  133.7153  156.1401 H   0  0  0  0  0  0  0  0  0  0  0  0  # atno 11005 bound_to 11000
  146.3384  140.2466  142.8597 LP  0  0  0  0  0  0  0  0  0  0  0  0  # atno 17320 bound_to 7965
  144.9800  140.8450  143.5403 LP  0  0  0  0  0  0  0  0  0  0  0  0  # atno 17321 bound_to 7965
  140.6080  143.2168  151.6943 LP  0  0  0  0  0  0  0  0  0  0  0  0  # atno 17342 bound_to 10162
  139.5063  144.3688  152.0490 LP  0  0  0  0  0  0  0  0  0  0  0  0  # atno 17343 bound_to 10162
  156.9785  130.5518  149.5295 LP  0  0  0  0  0  0  0  0  0  0  0  0  # atno 17370 bound_to 10713
  156.0345  130.5434  150.8619 LP  0  0  0  0  0  0  0  0  0  0  0  0  # atno 17371 bound_to 10713
  140.7439  134.4119  157.5551 LP  0  0  0  0  0  0  0  0  0  0  0  0  # atno 17394 bound_to 11000
  139.8885  134.8855  156.2472 LP  0  0  0  0  0  0  0  0  0  0  0  0  # atno 17395 bound_to 11000

$$$$
