AV-unprocessed.smi:1180|AV-procd|sdf|4961|dock3
  -GOLD-   22720 3553D 1   1.00000     0.00000
 Structure written by MMmdl.
 38 39  0  0  0  0  0  0  0  0  1 V2000
  146.5884  138.6926  151.8115 C   0  0  0  0  0  0  0  0  0  0  0  0
  147.4169  139.6607  152.6296 C   0  0  0  0  0  0  0  0  0  0  0  0
  146.9755  140.7923  153.0711 N   0  0  0  0  0  0  0  0  0  0  0  0
  147.8389  141.6077  153.8162 C   0  0  0  0  0  0  0  0  0  0  0  0
  147.2501  142.9239  154.2936 C   0  0  0  0  0  0  0  0  0  0  0  0
  149.1233  141.2316  154.0865 C   0  0  0  0  0  0  0  0  0  0  0  0
  150.0906  142.0994  154.8912 C   0  0  0  0  0  0  0  0  0  0  0  0
  150.0270  141.9507  156.4140 C   0  0  0  0  0  0  0  0  0  0  0  0
  149.0534  141.4251  156.9549 O   0  0  0  0  0  0  0  0  0  0  0  0
  151.0796  142.4224  157.0965 N   0  0  0  0  0  0  0  0  0  0  0  0
  151.2098  142.3718  158.5470 C   0  0  0  0  0  0  0  0  0  0  0  0
  152.4965  143.0777  159.0184 C   0  0  1  0  0  0  0  0  0  0  0  0
  152.4290  144.5852  158.8501 C   0  0  0  0  0  0  0  0  0  0  0  0
  151.7653  145.0597  160.1442 C   0  0  0  0  0  0  0  0  0  0  0  0
  151.9488  144.0157  161.0967 O   0  0  0  0  0  0  0  0  0  0  0  0
  152.7320  142.9748  160.5268 C   0  0  0  0  0  0  0  0  0  0  0  0
  149.6163  139.9369  153.5779 C   0  0  0  0  0  0  0  0  0  0  0  0
  150.7536  139.5045  153.7572 O   0  0  0  0  0  0  0  0  0  0  0  0
  148.7171  139.2188  152.8683 N   0  0  0  0  0  0  0  0  0  0  0  0
  149.0075  138.3261  152.4970 H   0  0  0  0  0  0  0  0  0  0  0  0
  146.2383  139.1766  150.8994 H   0  0  0  0  0  0  0  0  0  0  0  0
  145.7186  138.3677  152.3830 H   0  0  0  0  0  0  0  0  0  0  0  0
  147.1620  137.8085  151.5300 H   0  0  0  0  0  0  0  0  0  0  0  0
  147.1924  142.9434  155.3821 H   0  0  0  0  0  0  0  0  0  0  0  0
  146.2426  143.0722  153.9026 H   0  0  0  0  0  0  0  0  0  0  0  0
  147.8619  143.7630  153.9622 H   0  0  0  0  0  0  0  0  0  0  0  0
  151.1083  141.8729  154.5720 H   0  0  0  0  0  0  0  0  0  0  0  0
  149.9499  143.1521  154.6433 H   0  0  0  0  0  0  0  0  0  0  0  0
  151.8385  142.8419  156.5792 H   0  0  0  0  0  0  0  0  0  0  0  0
  150.3385  142.8546  158.9921 H   0  0  0  0  0  0  0  0  0  0  0  0
  151.2010  141.3317  158.8775 H   0  0  0  0  0  0  0  0  0  0  0  0
  153.3446  142.6701  158.4663 H   0  0  0  0  0  0  0  0  0  0  0  0
  153.4400  144.9902  158.7897 H   0  0  0  0  0  0  0  0  0  0  0  0
  151.8918  144.9018  157.9554 H   0  0  0  0  0  0  0  0  0  0  0  0
  152.1959  145.9956  160.5005 H   0  0  0  0  0  0  0  0  0  0  0  0
  150.6957  145.2142  159.9989 H   0  0  0  0  0  0  0  0  0  0  0  0
  152.4723  142.0029  160.9467 H   0  0  0  0  0  0  0  0  0  0  0  0
  153.7812  143.1663  160.7568 H   0  0  0  0  0  0  0  0  0  0  0  0
  1  2  1  0  0  0  0
  1 21  1  0  0  0  0
  1 22  1  0  0  0  0
  1 23  1  0  0  0  0
  2 19  1  0  0  0  0
  2  3  2  0  0  0  0
  3  4  1  0  0  0  0
  4  5  1  0  0  0  0
  4  6  2  0  0  0  0
  5 24  1  0  0  0  0
  5 25  1  0  0  0  0
  5 26  1  0  0  0  0
  6  7  1  0  0  0  0
  6 17  1  0  0  0  0
  7  8  1  0  0  0  0
  7 27  1  0  0  0  0
  7 28  1  0  0  0  0
  8  9  2  0  0  0  0
  8 10  1  0  0  0  0
 10 11  1  0  0  0  0
 10 29  1  0  0  0  0
 11 12  1  0  0  0  0
 11 30  1  0  0  0  0
 11 31  1  0  0  0  0
 12 16  1  0  0  0  0
 12 13  1  0  0  0  0
 12 32  1  0  0  0  0
 13 14  1  0  0  0  0
 13 33  1  0  0  0  0
 13 34  1  0  0  0  0
 14 15  1  0  0  0  0
 14 35  1  0  0  0  0
 14 36  1  0  0  0  0
 15 16  1  0  0  0  0
 16 37  1  0  0  0  0
 16 38  1  0  0  0  0
 17 18  2  0  0  0  0
 17 19  1  0  0  0  0
 19 20  1  0  0  0  0
M  END
> <s_m_source_file>
AV-unprocessed.smi

> <i_m_source_file_index>
1180

> <i_lp_mmshare_version>
43012

> <i_f3d_flags>
0

> <s_epik_input>
W0NIM11jMW5jKFtDSDNdKWMoYyg9TylbbkhdMSlbQ0gyXUMoPU8pW05IXVtDSDJdW0NAQEhdMltDSDJdW0NIMl1PW0NIMl0y

> <s_epik_cmdline>
J2VwaWtfcHl0aG9uJywgJy1waCcsICc3LjAnLCAnLXRuJywgJzgnLCAnLW1hJywgJzIwMCcsICctbWV0YWxfYmluZGluZycsICctaW1hZScsICc8aW5maWxlLm1hZT4nLCAnLW9tYWUnLCAnPG91dGZpbGUubWFlPic=

> <r_lp_tautomer_probability>
0.839158

> <r_epik_Ionization_Penalty>
0.000395459

> <r_epik_Ionization_Penalty_Charging>
0.000363703

> <r_epik_Ionization_Penalty_Neutral>
3.17556e-05

> <r_epik_State_Penalty>
0.0471244

> <r_epik_Charging_Adjusted_Penalty>
0.0474881

> <i_epik_Tot_Q>
0

> <i_epik_Tot_abs_Q>
0

> <r_epik_Metal_State_Penalty>
0.225307

> <b_epik_Metal_Only>
0

> <s_lp_Force_Field>
OPLS_2005

> <r_lp_Energy>
22.3305

> <b_lp_Chiralities_Consistent>
1

> <s_lp_Variant>
AV-unprocessed.smi:1180-2

> <Gold.Version>
5.8.1

> <Gold.Id.Protein>
6NUR|6NUR_protein|mol2

> <Gold.PLP.Fitness>
44.2411

> <Gold.PLP.PLP>
-39.4575

> <Gold.PLP.part.hbond>
-3.0000

> <Gold.PLP.part.metal>
0.0000

> <Gold.PLP.part.buried>
1.4820

> <Gold.PLP.part.nonpolar>
-37.5069

> <Gold.PLP.part.repulsive>
0.6757

> <Gold.PLP.ligand.clash>
0.0000

> <Gold.PLP.ligand.torsion>
0.6181

> <Gold.PLP.Chemscore.Hbond>
2.0000

> <Gold.PLP.Chemscore.CHOScore>
0.0000

> <Gold.PLP.Chemscore.Metal>
0.0000

> <Gold.Chemscore.Hbonds>
donor molecule, donor type, donor heavy atom, donor atom, acceptor molecule, acceptor atom, score
      L1  H    19    20       P1  7948  0.70
      P1  H  7989  7998       L1    18  1.00

> <Gold.PLP.Chemscore.Internal.Correction>
0.0198

> <Gold.Rescore>
     Score         DG    S(hbond)    S(metal)    S(lipo)     H(rot)  DE(clash)    DE(int)     intcor
     15.81     -16.34       1.66        0.00      84.91       1.81       0.12       0.41       ----

> <Gold.Chemscore.Fitness>
15.8099

> <Gold.Chemscore.DG>
-16.3395

> <Gold.Chemscore.ZeroCoef>
-5.4800

> <Gold.Chemscore.Hbond>
1.6617

> <Gold.Chemscore.Metal>
0.0000

> <Gold.Chemscore.Lipo>
84.9071

> <Gold.Chemscore.Internal_Hbond>
0.0000

> <Gold.Chemscore.DEClash>
0.1214

> <Gold.Chemscore.DEInternal>
0.4082

> <Gold.Chemscore.Rot>
1.8065

> <Gold.Chemscore.Internal.Correction>
   9.000000E+99

> <Gold.Chemscore.Hbonds>
donor molecule, donor type, donor heavy atom, donor atom, acceptor molecule, acceptor atom, score
      L1  H    19    20       P1  7948  0.69
      P1  H  7989  7998       L1    18  0.24

> <Gold.Chemscore.Hbond.Weighted>
-5.5499

> <Gold.Chemscore.Metal.Weighted>
-0.0000

> <Gold.Chemscore.Lipo.Weighted>
-9.9341

> <Gold.Chemscore.Internal_Hbond.Weighted>
0.0000

> <Gold.Chemscore.DEClash.Weighted>
0.1214

> <Gold.Chemscore.DEInternal.Weighted>
0.4082

> <Gold.Chemscore.Rot.Weighted>
4.6246

> <Gold.Chemscore.Internal.Correction.Weighted>
   9.000000E+99

> <Gold.Protein.RotatedTorsions>
[ 6907 6896 6895 6894 ] final -101.90 input  -60.11 | X-H torsion
[ 7974 7965 7964 7962 ] final   -4.17 input  175.53 | X-H torsion
[ 8008 7997 7996 7995 ] final    0.83 input   59.86 | X-H torsion
[ 10167 10162 10161 10158 ] final   69.01 input  -65.29 | X-H torsion
[ 10718 10713 10712 10709 ] final -177.43 input   66.30 | X-H torsion
[ 10763 10752 10751 10750 ] final -143.05 input  -60.55 | X-H torsion
[ 11005 11000 10999 10996 ] final   16.98 input  -57.11 | X-H torsion

> <Gold.Protein.ActiveResidues>
 VAL166  LYS551  ARG553  GLY616  TRP617  ASP618  TYR619  PRO620  LYS621  CYS622 
 ASP623  PHE694  ASN695  SER759  ASP760  ASP761  ALA762  ILE779  LEU786  VAL792 
 PHE793  MET794  SER795  GLU796  ALA797  LYS798  CYS799  TRP800  GLU811  SER814 

> <Gold.Protein.RotatedAtoms>
  150.7173  134.0664  159.3848 H   0  0  0  0  0  0  0  0  0  0  0  0  # atno 6907 bound_to 6896
  151.8645  135.0510  160.0482 H   0  0  0  0  0  0  0  0  0  0  0  0  # atno 6908 bound_to 6896
  152.2691  133.5331  159.5465 H   0  0  0  0  0  0  0  0  0  0  0  0  # atno 6909 bound_to 6896
  146.2377  140.1831  142.8332 H   0  0  0  0  0  0  0  0  0  0  0  0  # atno 7974 bound_to 7965
  154.6726  140.2615  155.6991 H   0  0  0  0  0  0  0  0  0  0  0  0  # atno 8008 bound_to 7997
  156.2665  140.2826  156.1163 H   0  0  0  0  0  0  0  0  0  0  0  0  # atno 8009 bound_to 7997
  155.1146  140.0376  157.2723 H   0  0  0  0  0  0  0  0  0  0  0  0  # atno 8010 bound_to 7997
  140.0724  144.5141  150.7218 H   0  0  0  0  0  0  0  0  0  0  0  0  # atno 10167 bound_to 10162
  156.8294  130.9648  151.3107 H   0  0  0  0  0  0  0  0  0  0  0  0  # atno 10718 bound_to 10713
  154.8485  135.3479  154.6125 H   0  0  0  0  0  0  0  0  0  0  0  0  # atno 10763 bound_to 10752
  153.6734  135.6984  153.5145 H   0  0  0  0  0  0  0  0  0  0  0  0  # atno 10764 bound_to 10752
  153.2725  135.4288  155.0958 H   0  0  0  0  0  0  0  0  0  0  0  0  # atno 10765 bound_to 10752
  140.4411  134.1321  155.7690 H   0  0  0  0  0  0  0  0  0  0  0  0  # atno 11005 bound_to 11000
  144.9919  140.8554  143.5334 LP  0  0  0  0  0  0  0  0  0  0  0  0  # atno 17320 bound_to 7965
  145.1838  139.2338  143.5279 LP  0  0  0  0  0  0  0  0  0  0  0  0  # atno 17321 bound_to 7965
  140.7119  143.2512  151.4556 LP  0  0  0  0  0  0  0  0  0  0  0  0  # atno 17342 bound_to 10162
  139.5828  144.1672  152.1990 LP  0  0  0  0  0  0  0  0  0  0  0  0  # atno 17343 bound_to 10162
  157.6415  130.8809  149.9457 LP  0  0  0  0  0  0  0  0  0  0  0  0  # atno 17370 bound_to 10713
  156.0943  130.3660  150.0336 LP  0  0  0  0  0  0  0  0  0  0  0  0  # atno 17371 bound_to 10713
  141.1705  133.8618  157.1585 LP  0  0  0  0  0  0  0  0  0  0  0  0  # atno 17394 bound_to 11000
  140.0069  135.0004  157.0312 LP  0  0  0  0  0  0  0  0  0  0  0  0  # atno 17395 bound_to 11000

$$$$
