AV-unprocessed.smi:828|AV-procd|sdf|3865|dock4
  -GOLD-   22720 1313D 1   1.00000     0.00000
 Structure written by MMmdl.
 34 35  0  0  0  0  0  0  0  0  3 V2000
  151.6675  141.0225  158.3340 C   0  0  0  0  0  0  0  0  0  0  0  0
  151.3744  140.3751  157.0242 C   0  0  0  0  0  0  0  0  0  0  0  0
  152.3151  140.1522  156.1032 N   0  0  0  0  0  0  0  0  0  0  0  0
  151.8018  139.5403  154.9690 N   0  0  0  0  0  0  0  0  0  0  0  0
  150.4818  139.3182  155.0432 C   0  0  0  0  0  0  0  0  0  0  0  0
  149.7935  138.7326  154.0494 N   0  5  0  0  0  0  0  0  0  0  0  0
  148.4905  139.0372  153.8598 C   0  0  0  0  0  0  0  0  0  0  0  0
  147.8138  139.8109  154.5408 O   0  0  0  0  0  0  0  0  0  0  0  0
  147.9360  138.3968  152.8208 N   0  0  0  0  0  0  0  0  0  0  0  0
  146.5482  138.5024  152.3813 C   0  0  0  0  0  0  0  0  0  0  0  0
  145.6790  137.3644  152.9513 C   0  0  1  0  0  0  0  0  0  0  0  0
  144.6735  136.7743  151.9563 C   0  0  0  0  0  0  0  0  0  0  0  0
  144.4038  135.3889  152.5243 C   0  0  0  0  0  0  0  0  0  0  0  0
  145.7620  134.9670  153.0882 C   0  0  0  0  0  0  0  0  0  0  0  0
  146.5053  136.2141  153.3896 N   0  3  2  0  0  0  0  0  0  0  0  0
  146.9787  136.3040  154.7884 C   0  0  0  0  0  0  0  0  0  0  0  0
  149.7647  139.8459  156.5654 S   0  0  0  0  0  0  0  0  0  0  0  0
  151.8702  142.0837  158.1884 H   0  0  0  0  0  0  0  0  0  0  0  0
  152.5383  140.5575  158.7965 H   0  0  0  0  0  0  0  0  0  0  0  0
  150.8171  140.9174  159.0078 H   0  0  0  0  0  0  0  0  0  0  0  0
  148.5346  137.7791  152.2924 H   0  0  0  0  0  0  0  0  0  0  0  0
  146.1270  139.4753  152.6409 H   0  0  0  0  0  0  0  0  0  0  0  0
  146.5507  138.4564  151.2924 H   0  0  0  0  0  0  0  0  0  0  0  0
  145.1170  137.7341  153.8116 H   0  0  0  0  0  0  0  0  0  0  0  0
  143.7686  137.3752  151.8592 H   0  0  0  0  0  0  0  0  0  0  0  0
  145.1240  136.6816  150.9670 H   0  0  0  0  0  0  0  0  0  0  0  0
  143.6726  135.4596  153.3307 H   0  0  0  0  0  0  0  0  0  0  0  0
  144.0180  134.6918  151.7800 H   0  0  0  0  0  0  0  0  0  0  0  0
  145.6477  134.3187  153.9583 H   0  0  0  0  0  0  0  0  0  0  0  0
  146.3260  134.4120  152.3380 H   0  0  0  0  0  0  0  0  0  0  0  0
  146.1415  136.2989  155.4877 H   0  0  0  0  0  0  0  0  0  0  0  0
  147.5501  137.2190  154.9448 H   0  0  0  0  0  0  0  0  0  0  0  0
  147.6279  135.4605  155.0250 H   0  0  0  0  0  0  0  0  0  0  0  0
  147.3218  136.2040  152.7951 H   0  0  0  0  0  0  0  0  0  0  0  0
  1  2  1  0  0  0  0
  1 18  1  0  0  0  0
  1 19  1  0  0  0  0
  1 20  1  0  0  0  0
  2 17  1  0  0  0  0
  2  3  2  0  0  0  0
  3  4  1  0  0  0  0
  4  5  2  0  0  0  0
  5  6  1  0  0  0  0
  5 17  1  0  0  0  0
  6  7  1  0  0  0  0
  7  8  2  0  0  0  0
  7  9  1  0  0  0  0
  9 10  1  0  0  0  0
  9 21  1  0  0  0  0
 10 11  1  0  0  0  0
 10 22  1  0  0  0  0
 10 23  1  0  0  0  0
 11 15  1  0  0  0  0
 11 12  1  0  0  0  0
 11 24  1  0  0  0  0
 12 13  1  0  0  0  0
 12 25  1  0  0  0  0
 12 26  1  0  0  0  0
 13 14  1  0  0  0  0
 13 27  1  0  0  0  0
 13 28  1  0  0  0  0
 14 15  1  0  0  0  0
 14 29  1  0  0  0  0
 14 30  1  0  0  0  0
 15 16  1  0  0  0  0
 15 34  1  0  0  0  0
 16 31  1  0  0  0  0
 16 32  1  0  0  0  0
 16 33  1  0  0  0  0
M  CHG  1   6  -1
M  CHG  1  15   1
M  END
> <s_m_source_file>
AV-unprocessed.smi

> <i_m_source_file_index>
828

> <i_lp_mmshare_version>
43012

> <i_f3d_flags>
0

> <s_epik_input>
W0NIM11jMW5uYyhzMSlbTkhdQyg9TylbTkhdW0NIMl1bQ0BASF0yW0NIMl1bQ0gyXVtDSDJdTjJbQ0gzXQ==

> <s_epik_cmdline>
J2VwaWtfcHl0aG9uJywgJy1waCcsICc3LjAnLCAnLXRuJywgJzgnLCAnLW1hJywgJzIwMCcsICctbWV0YWxfYmluZGluZycsICctaW1hZScsICc8aW5maWxlLm1hZT4nLCAnLW9tYWUnLCAnPG91dGZpbGUubWFlPic=

> <r_lp_tautomer_probability>
1

> <r_epik_Ionization_Penalty>
3.94379

> <r_epik_Ionization_Penalty_Charging>
3.83377

> <r_epik_Ionization_Penalty_Neutral>
0.110023

> <r_epik_State_Penalty>
3.83036

> <r_epik_Charging_Adjusted_Penalty>
7.66413

> <i_epik_Tot_Q>
0

> <i_epik_Tot_abs_Q>
2

> <r_epik_Metal_State_Penalty>
0.575095

> <b_epik_Metal_Only>
1

> <s_lp_Force_Field>
OPLS_2005

> <r_lp_Energy>
18.3481

> <b_lp_Chiralities_Consistent>
1

> <s_lp_Variant>
AV-unprocessed.smi:828-8

> <Gold.Version>
5.8.1

> <Gold.Id.Protein>
6NUR|6NUR_protein|mol2

> <Gold.PLP.Fitness>
33.4690

> <Gold.PLP.PLP>
-20.9262

> <Gold.PLP.part.hbond>
-5.0000

> <Gold.PLP.part.metal>
0.0000

> <Gold.PLP.part.buried>
-0.6440

> <Gold.PLP.part.nonpolar>
-16.5733

> <Gold.PLP.part.repulsive>
0.6903

> <Gold.PLP.ligand.clash>
0.0000

> <Gold.PLP.ligand.torsion>
0.9287

> <Gold.PLP.Chemscore.Hbond>
4.7912

> <Gold.PLP.Chemscore.CHOScore>
0.0000

> <Gold.PLP.Chemscore.Metal>
0.0000

> <Gold.Chemscore.Hbonds>
donor molecule, donor type, donor heavy atom, donor atom, acceptor molecule, acceptor atom, score
      L1  H     9    21       P1  7948  1.00
      L1  H    15    34       P1  7948  2.00
      P1  H  7989  7998       L1     4  0.75
      P1  H  7997  8009       L1     3  1.00

> <Gold.PLP.Chemscore.Internal.Correction>
0.0265

> <Gold.Rescore>
     Score         DG    S(hbond)    S(metal)    S(lipo)     H(rot)  DE(clash)    DE(int)     intcor
     13.23     -16.49       3.01        0.00      37.01       1.31       0.09       3.17       ----

> <Gold.Chemscore.Fitness>
13.2269

> <Gold.Chemscore.DG>
-16.4913

> <Gold.Chemscore.ZeroCoef>
-5.4800

> <Gold.Chemscore.Hbond>
3.0081

> <Gold.Chemscore.Metal>
0.0000

> <Gold.Chemscore.Lipo>
37.0132

> <Gold.Chemscore.Internal_Hbond>
0.0000

> <Gold.Chemscore.DEClash>
0.0903

> <Gold.Chemscore.DEInternal>
3.1742

> <Gold.Chemscore.Rot>
1.3149

> <Gold.Chemscore.Internal.Correction>
   9.000000E+99

> <Gold.Chemscore.Hbonds>
donor molecule, donor type, donor heavy atom, donor atom, acceptor molecule, acceptor atom, score
      L1  H     9    21       P1  7948  0.95
      L1  H    15    34       P1  7948  1.00
      P1  H  7989  7998       L1     4  0.07
      P1  H  7997  8009       L1     3  0.84

> <Gold.Chemscore.Hbond.Weighted>
-10.0469

> <Gold.Chemscore.Metal.Weighted>
-0.0000

> <Gold.Chemscore.Lipo.Weighted>
-4.3305

> <Gold.Chemscore.Internal_Hbond.Weighted>
0.0000

> <Gold.Chemscore.DEClash.Weighted>
0.0903

> <Gold.Chemscore.DEInternal.Weighted>
3.1742

> <Gold.Chemscore.Rot.Weighted>
3.3662

> <Gold.Chemscore.Internal.Correction.Weighted>
   9.000000E+99

> <Gold.Protein.RotatedTorsions>
[ 6907 6896 6895 6894 ] final  -59.08 input  -60.11 | X-H torsion
[ 7974 7965 7964 7962 ] final  129.48 input  175.53 | X-H torsion
[ 8008 7997 7996 7995 ] final -156.01 input   59.86 | X-H torsion
[ 10167 10162 10161 10158 ] final  -59.86 input  -65.29 | X-H torsion
[ 10718 10713 10712 10709 ] final -161.90 input   66.30 | X-H torsion
[ 10763 10752 10751 10750 ] final   95.61 input  -60.55 | X-H torsion
[ 11005 11000 10999 10996 ] final   63.06 input  -57.11 | X-H torsion

> <Gold.Protein.ActiveResidues>
 VAL166  LYS551  ARG553  GLY616  TRP617  ASP618  TYR619  PRO620  LYS621  CYS622 
 ASP623  PHE694  ASN695  SER759  ASP760  ASP761  ALA762  ILE779  LEU786  VAL792 
 PHE793  MET794  SER795  GLU796  ALA797  LYS798  CYS799  TRP800  GLU811  SER814 

> <Gold.Protein.RotatedAtoms>
  150.7958  134.7015  159.6552 H   0  0  0  0  0  0  0  0  0  0  0  0  # atno 6907 bound_to 6896
  152.4069  134.6188  160.0055 H   0  0  0  0  0  0  0  0  0  0  0  0  # atno 6908 bound_to 6896
  151.6442  133.3287  159.3173 H   0  0  0  0  0  0  0  0  0  0  0  0  # atno 6909 bound_to 6896
  145.0282  139.4070  143.5163 H   0  0  0  0  0  0  0  0  0  0  0  0  # atno 7974 bound_to 7965
  155.7106  140.0778  157.2372 H   0  0  0  0  0  0  0  0  0  0  0  0  # atno 8008 bound_to 7997
  154.4059  140.1630  156.2346 H   0  0  0  0  0  0  0  0  0  0  0  0  # atno 8009 bound_to 7997
  155.9286  140.3393  155.6233 H   0  0  0  0  0  0  0  0  0  0  0  0  # atno 8010 bound_to 7997
  140.6108  143.2386  151.5714 H   0  0  0  0  0  0  0  0  0  0  0  0  # atno 10167 bound_to 10162
  156.6028  130.8818  151.2918 H   0  0  0  0  0  0  0  0  0  0  0  0  # atno 10718 bound_to 10713
  153.2552  135.4248  155.0838 H   0  0  0  0  0  0  0  0  0  0  0  0  # atno 10763 bound_to 10752
  154.8398  135.3435  154.6456 H   0  0  0  0  0  0  0  0  0  0  0  0  # atno 10764 bound_to 10752
  153.6877  135.7035  153.5156 H   0  0  0  0  0  0  0  0  0  0  0  0  # atno 10765 bound_to 10752
  140.0050  134.6383  155.9869 H   0  0  0  0  0  0  0  0  0  0  0  0  # atno 11005 bound_to 11000
  146.3495  139.9817  142.8695 LP  0  0  0  0  0  0  0  0  0  0  0  0  # atno 17320 bound_to 7965
  145.1806  140.9765  143.4268 LP  0  0  0  0  0  0  0  0  0  0  0  0  # atno 17321 bound_to 7965
  139.5360  144.2781  152.1251 LP  0  0  0  0  0  0  0  0  0  0  0  0  # atno 17342 bound_to 10162
  140.1980  144.4686  150.6446 LP  0  0  0  0  0  0  0  0  0  0  0  0  # atno 17343 bound_to 10162
  157.7275  130.9644  150.1701 LP  0  0  0  0  0  0  0  0  0  0  0  0  # atno 17370 bound_to 10713
  156.2454  130.3695  149.8290 LP  0  0  0  0  0  0  0  0  0  0  0  0  # atno 17371 bound_to 10713
  141.1670  133.6537  156.4515 LP  0  0  0  0  0  0  0  0  0  0  0  0  # atno 17394 bound_to 11000
  140.4658  134.6799  157.5106 LP  0  0  0  0  0  0  0  0  0  0  0  0  # atno 17395 bound_to 11000

$$$$
