AV-unprocessed.smi:2990|AV-procd|sdf|11394|dock1
  -GOLD-   2272016313D 1   1.00000     0.00000
 Structure written by MMmdl.
 39 41  0  0  0  0  0  0  0  0  1 V2000
  152.2150  138.4396  155.1182 C   0  0  0  0  0  0  0  0  0  0  0  0
  150.9264  139.1098  154.7613 C   0  0  0  0  0  0  0  0  0  0  0  0
  150.0234  138.5345  153.9664 N   0  0  0  0  0  0  0  0  0  0  0  0
  149.0218  139.4844  153.9087 C   0  0  0  0  0  0  0  0  0  0  0  0
  147.7850  139.4752  153.2249 C   0  0  0  0  0  0  0  0  0  0  0  0
  146.9108  140.5782  153.3160 C   0  0  0  0  0  0  0  0  0  0  0  0
  147.2599  141.7042  154.0895 C   0  0  0  0  0  0  0  0  0  0  0  0
  148.4875  141.7338  154.7789 C   0  0  0  0  0  0  0  0  0  0  0  0
  149.3560  140.6300  154.6852 C   0  0  0  0  0  0  0  0  0  0  0  0
  150.6054  140.3430  155.2251 N   0  0  0  0  0  0  0  0  0  0  0  0
  151.3824  141.2098  156.1001 C   0  0  0  0  0  0  0  0  0  0  0  0
  150.5148  141.8870  157.1804 C   0  0  1  0  0  0  0  0  0  0  0  0
  149.7176  140.9476  157.8740 O   0  0  0  0  0  0  0  0  0  0  0  0
  151.3253  142.7139  158.1923 C   0  0  0  0  0  0  0  0  0  0  0  0
  152.4331  141.9556  158.6621 O   0  0  0  0  0  0  0  0  0  0  0  0
  152.8194  142.1050  159.9765 C   0  0  0  0  0  0  0  0  0  0  0  0
  153.7810  141.1969  160.4666 C   0  0  0  0  0  0  0  0  0  0  0  0
  154.2367  141.2768  161.7964 C   0  0  0  0  0  0  0  0  0  0  0  0
  153.7308  142.2705  162.6545 C   0  0  0  0  0  0  0  0  0  0  0  0
  152.7695  143.1821  162.1796 C   0  0  0  0  0  0  0  0  0  0  0  0
  152.3146  143.1029  160.8487 C   0  0  0  0  0  0  0  0  0  0  0  0
  152.2404  137.4237  154.7229 H   0  0  0  0  0  0  0  0  0  0  0  0
  152.3310  138.3877  156.2010 H   0  0  0  0  0  0  0  0  0  0  0  0
  153.0552  138.9928  154.6983 H   0  0  0  0  0  0  0  0  0  0  0  0
  147.5087  138.6179  152.6293 H   0  0  0  0  0  0  0  0  0  0  0  0
  145.9677  140.5602  152.7898 H   0  0  0  0  0  0  0  0  0  0  0  0
  146.5846  142.5446  154.1534 H   0  0  0  0  0  0  0  0  0  0  0  0
  148.7585  142.5938  155.3731 H   0  0  0  0  0  0  0  0  0  0  0  0
  152.1900  140.6360  156.5544 H   0  0  0  0  0  0  0  0  0  0  0  0
  151.8627  141.9694  155.4821 H   0  0  0  0  0  0  0  0  0  0  0  0
  149.8167  142.5651  156.6883 H   0  0  0  0  0  0  0  0  0  0  0  0
  150.1662  140.1158  157.8758 H   0  0  0  0  0  0  0  0  0  0  0  0
  151.6944  143.6107  157.6918 H   0  0  0  0  0  0  0  0  0  0  0  0
  150.6886  143.0337  159.0193 H   0  0  0  0  0  0  0  0  0  0  0  0
  154.1744  140.4304  159.8148 H   0  0  0  0  0  0  0  0  0  0  0  0
  154.9745  140.5752  162.1575 H   0  0  0  0  0  0  0  0  0  0  0  0
  154.0791  142.3329  163.6750 H   0  0  0  0  0  0  0  0  0  0  0  0
  152.3802  143.9449  162.8376 H   0  0  0  0  0  0  0  0  0  0  0  0
  151.5771  143.8197  160.5213 H   0  0  0  0  0  0  0  0  0  0  0  0
  1  2  1  0  0  0  0
  1 22  1  0  0  0  0
  1 23  1  0  0  0  0
  1 24  1  0  0  0  0
  2 10  1  0  0  0  0
  2  3  2  0  0  0  0
  3  4  1  0  0  0  0
  4  9  2  0  0  0  0
  4  5  1  0  0  0  0
  5  6  2  0  0  0  0
  5 25  1  0  0  0  0
  6  7  1  0  0  0  0
  6 26  1  0  0  0  0
  7  8  2  0  0  0  0
  7 27  1  0  0  0  0
  8  9  1  0  0  0  0
  8 28  1  0  0  0  0
  9 10  1  0  0  0  0
 10 11  1  0  0  0  0
 11 12  1  0  0  0  0
 11 29  1  0  0  0  0
 11 30  1  0  0  0  0
 12 13  1  0  0  0  0
 12 14  1  0  0  0  0
 12 31  1  0  0  0  0
 13 32  1  0  0  0  0
 14 15  1  0  0  0  0
 14 33  1  0  0  0  0
 14 34  1  0  0  0  0
 15 16  1  0  0  0  0
 16 21  1  0  0  0  0
 16 17  2  0  0  0  0
 17 18  1  0  0  0  0
 17 35  1  0  0  0  0
 18 19  2  0  0  0  0
 18 36  1  0  0  0  0
 19 20  1  0  0  0  0
 19 37  1  0  0  0  0
 20 21  2  0  0  0  0
 20 38  1  0  0  0  0
 21 39  1  0  0  0  0
M  END
> <s_m_source_file>
AV-unprocessed.smi

> <i_m_source_file_index>
2990

> <i_lp_mmshare_version>
43012

> <i_f3d_flags>
0

> <s_epik_input>
W2NIXTFbY0hdW2NIXVtjSF1jKGMxMiluKGMobjIpW0NIM10pW0NIMl1bQ0BIXShbT0hdKVtDSDJdT2MzW2NIXVtjSF1bY0hdW2NIXVtjSF0z

> <s_epik_cmdline>
J2VwaWtfcHl0aG9uJywgJy1waCcsICc3LjAnLCAnLXRuJywgJzgnLCAnLW1hJywgJzIwMCcsICctbWV0YWxfYmluZGluZycsICctaW1hZScsICc8aW5maWxlLm1hZT4nLCAnLW9tYWUnLCAnPG91dGZpbGUubWFlPic=

> <r_lp_tautomer_probability>
1

> <r_epik_Ionization_Penalty>
0.119634

> <r_epik_Ionization_Penalty_Charging>
0

> <r_epik_Ionization_Penalty_Neutral>
0.119634

> <r_epik_State_Penalty>
0.10919

> <r_epik_Charging_Adjusted_Penalty>
0.10919

> <i_epik_Tot_Q>
0

> <i_epik_Tot_abs_Q>
0

> <r_epik_Metal_State_Penalty>
0.000119887

> <b_epik_Metal_Only>
0

> <s_lp_Force_Field>
OPLS_2005

> <r_lp_Energy>
16.8637

> <b_lp_Chiralities_Consistent>
1

> <s_lp_Variant>
AV-unprocessed.smi:2990-2

> <Gold.Version>
5.8.1

> <Gold.Id.Protein>
6NUR|6NUR_protein|mol2

> <Gold.PLP.Fitness>
49.0054

> <Gold.PLP.PLP>
-50.1648

> <Gold.PLP.part.hbond>
0.0000

> <Gold.PLP.part.metal>
0.0000

> <Gold.PLP.part.buried>
-0.5206

> <Gold.PLP.part.nonpolar>
-48.6849

> <Gold.PLP.part.repulsive>
0.2438

> <Gold.PLP.ligand.clash>
0.0000

> <Gold.PLP.ligand.torsion>
0.6998

> <Gold.PLP.Chemscore.Hbond>
0.0000

> <Gold.PLP.Chemscore.CHOScore>
0.0000

> <Gold.PLP.Chemscore.Metal>
0.0000

> <Gold.PLP.Chemscore.Internal.Correction>
0.2401

> <Gold.Rescore>
     Score         DG    S(hbond)    S(metal)    S(lipo)     H(rot)  DE(clash)    DE(int)     intcor
     15.53     -16.19       0.00        0.00     136.12       2.04       0.06       0.61       ----

> <Gold.Chemscore.Fitness>
15.5254

> <Gold.Chemscore.DG>
-16.1931

> <Gold.Chemscore.ZeroCoef>
-5.4800

> <Gold.Chemscore.Hbond>
0.0000

> <Gold.Chemscore.Metal>
0.0000

> <Gold.Chemscore.Lipo>
136.1157

> <Gold.Chemscore.Internal_Hbond>
0.0000

> <Gold.Chemscore.DEClash>
0.0621

> <Gold.Chemscore.DEInternal>
0.6056

> <Gold.Chemscore.Rot>
2.0361

> <Gold.Chemscore.Internal.Correction>
   9.000000E+99

> <Gold.Chemscore.Hbond.Weighted>
-0.0000

> <Gold.Chemscore.Metal.Weighted>
-0.0000

> <Gold.Chemscore.Lipo.Weighted>
-15.9255

> <Gold.Chemscore.Internal_Hbond.Weighted>
0.0000

> <Gold.Chemscore.DEClash.Weighted>
0.0621

> <Gold.Chemscore.DEInternal.Weighted>
0.6056

> <Gold.Chemscore.Rot.Weighted>
5.2124

> <Gold.Chemscore.Internal.Correction.Weighted>
   9.000000E+99

> <Gold.Protein.RotatedTorsions>
[ 6907 6896 6895 6894 ] final   10.27 input  -60.11 | X-H torsion
[ 7974 7965 7964 7962 ] final   74.61 input  175.53 | X-H torsion
[ 8008 7997 7996 7995 ] final -160.89 input   59.86 | X-H torsion
[ 10167 10162 10161 10158 ] final -178.12 input  -65.29 | X-H torsion
[ 10718 10713 10712 10709 ] final  -24.42 input   66.30 | X-H torsion
[ 10763 10752 10751 10750 ] final   92.41 input  -60.55 | X-H torsion
[ 11005 11000 10999 10996 ] final  -96.43 input  -57.11 | X-H torsion

> <Gold.Protein.ActiveResidues>
 VAL166  LYS551  ARG553  GLY616  TRP617  ASP618  TYR619  PRO620  LYS621  CYS622 
 ASP623  PHE694  ASN695  SER759  ASP760  ASP761  ALA762  ILE779  LEU786  VAL792 
 PHE793  MET794  SER795  GLU796  ALA797  LYS798  CYS799  TRP800  GLU811  SER814 

> <Gold.Protein.RotatedAtoms>
  151.7356  135.0865  160.0306 H   0  0  0  0  0  0  0  0  0  0  0  0  # atno 6907 bound_to 6896
  152.3513  133.6179  159.5955 H   0  0  0  0  0  0  0  0  0  0  0  0  # atno 6908 bound_to 6896
  150.7542  133.9486  159.3520 H   0  0  0  0  0  0  0  0  0  0  0  0  # atno 6909 bound_to 6896
  145.7261  139.2666  143.1568 H   0  0  0  0  0  0  0  0  0  0  0  0  # atno 7974 bound_to 7965
  155.7841  140.0869  157.2044 H   0  0  0  0  0  0  0  0  0  0  0  0  # atno 8008 bound_to 7997
  154.3988  140.1502  156.3144 H   0  0  0  0  0  0  0  0  0  0  0  0  # atno 8009 bound_to 7997
  155.8624  140.3429  155.5768 H   0  0  0  0  0  0  0  0  0  0  0  0  # atno 8010 bound_to 7997
  139.5447  144.2266  152.0965 H   0  0  0  0  0  0  0  0  0  0  0  0  # atno 10167 bound_to 10162
  156.4779  130.4538  149.6829 H   0  0  0  0  0  0  0  0  0  0  0  0  # atno 10718 bound_to 10713
  153.2188  135.4362  155.0466 H   0  0  0  0  0  0  0  0  0  0  0  0  # atno 10763 bound_to 10752
  154.8239  135.3351  154.6958 H   0  0  0  0  0  0  0  0  0  0  0  0  # atno 10764 bound_to 10752
  153.7391  135.7006  153.5027 H   0  0  0  0  0  0  0  0  0  0  0  0  # atno 10765 bound_to 10752
  141.1411  133.8097  157.0570 H   0  0  0  0  0  0  0  0  0  0  0  0  # atno 11005 bound_to 11000
  146.0581  140.7999  142.9748 LP  0  0  0  0  0  0  0  0  0  0  0  0  # atno 17320 bound_to 7965
  144.6904  140.3155  143.7241 LP  0  0  0  0  0  0  0  0  0  0  0  0  # atno 17321 bound_to 7965
  140.1751  144.4898  150.6558 LP  0  0  0  0  0  0  0  0  0  0  0  0  # atno 17342 bound_to 10162
  140.6691  143.2279  151.5669 LP  0  0  0  0  0  0  0  0  0  0  0  0  # atno 17343 bound_to 10162
  156.3551  130.7452  151.2417 LP  0  0  0  0  0  0  0  0  0  0  0  0  # atno 17370 bound_to 10713
  157.7486  131.0366  150.4417 LP  0  0  0  0  0  0  0  0  0  0  0  0  # atno 17371 bound_to 10713
  140.0596  134.9762  157.1281 LP  0  0  0  0  0  0  0  0  0  0  0  0  # atno 17394 bound_to 11000
  140.3868  134.2227  155.7168 LP  0  0  0  0  0  0  0  0  0  0  0  0  # atno 17395 bound_to 11000

$$$$
