AV-unprocessed.smi:2822|AV-procd|sdf|10874|dock6
  -GOLD-   2272015313D 1   1.00000     0.00000
 Structure written by MMmdl.
 40 42  0  0  0  0  0  0  0  0  2 V2000
  146.5147  142.3177  153.7359 Cl  0  0  0  0  0  0  0  0  0  0  0  0
  147.7396  141.1160  153.9508 C   0  0  0  0  0  0  0  0  0  0  0  0
  148.9863  141.4789  154.5006 C   0  0  0  0  0  0  0  0  0  0  0  0
  149.9950  140.6042  154.6974 N   0  0  0  0  0  0  0  0  0  0  0  0
  149.7881  139.3175  154.3482 C   0  0  0  0  0  0  0  0  0  0  0  0
  148.5810  138.8487  153.7917 C   0  0  0  0  0  0  0  0  0  0  0  0
  147.5255  139.7675  153.5837 C   0  0  0  0  0  0  0  0  0  0  0  0
  146.2922  139.3883  153.0330 N   0  0  0  0  0  0  0  0  0  0  0  0
  146.1567  138.1579  152.2694 C   0  0  0  0  0  0  0  0  0  0  0  0
  145.1079  137.2192  152.8982 C   0  0  2  0  0  0  0  0  0  0  0  0
  145.7151  136.2091  153.8896 C   0  0  0  0  0  0  0  0  0  0  0  0
  146.4958  135.1636  153.1870 N   0  3  1  0  0  0  0  0  0  0  0  0
  147.1190  134.2021  154.1319 C   0  0  0  0  0  0  0  0  0  0  0  0
  147.9925  133.1788  153.3896 C   0  0  0  0  0  0  0  0  0  0  0  0
  147.1790  132.4449  152.3168 C   0  0  0  0  0  0  0  0  0  0  0  0
  146.5276  133.4596  151.3680 C   0  0  0  0  0  0  0  0  0  0  0  0
  145.6791  134.4897  152.1412 C   0  0  2  0  0  0  0  0  0  0  0  0
  145.0765  135.5374  151.1860 C   0  0  0  0  0  0  0  0  0  0  0  0
  144.3451  136.5161  151.9170 O   0  0  0  0  0  0  0  0  0  0  0  0
  149.1799  142.5014  154.7894 H   0  0  0  0  0  0  0  0  0  0  0  0
  150.6104  138.6381  154.5177 H   0  0  0  0  0  0  0  0  0  0  0  0
  148.4870  137.8031  153.5405 H   0  0  0  0  0  0  0  0  0  0  0  0
  145.5430  140.0658  152.9959 H   0  0  0  0  0  0  0  0  0  0  0  0
  145.9088  138.3861  151.2332 H   0  0  0  0  0  0  0  0  0  0  0  0
  147.1259  137.6577  152.2559 H   0  0  0  0  0  0  0  0  0  0  0  0
  144.4045  137.8412  153.4536 H   0  0  0  0  0  0  0  0  0  0  0  0
  146.3494  136.7259  154.6109 H   0  0  0  0  0  0  0  0  0  0  0  0
  144.9146  135.7329  154.4585 H   0  0  0  0  0  0  0  0  0  0  0  0
  147.7288  134.7449  154.8550 H   0  0  0  0  0  0  0  0  0  0  0  0
  146.3399  133.6877  154.6969 H   0  0  0  0  0  0  0  0  0  0  0  0
  148.8407  133.6851  152.9268 H   0  0  0  0  0  0  0  0  0  0  0  0
  148.4083  132.4610  154.0974 H   0  0  0  0  0  0  0  0  0  0  0  0
  147.8207  131.7634  151.7574 H   0  0  0  0  0  0  0  0  0  0  0  0
  146.4092  131.8336  152.7894 H   0  0  0  0  0  0  0  0  0  0  0  0
  147.3054  133.9720  150.7995 H   0  0  0  0  0  0  0  0  0  0  0  0
  145.9083  132.9353  150.6390 H   0  0  0  0  0  0  0  0  0  0  0  0
  144.8603  133.9658  152.6381 H   0  0  0  0  0  0  0  0  0  0  0  0
  145.8489  136.0093  150.5783 H   0  0  0  0  0  0  0  0  0  0  0  0
  144.3932  135.0535  150.4876 H   0  0  0  0  0  0  0  0  0  0  0  0
  147.2508  135.6340  152.7086 H   0  0  0  0  0  0  0  0  0  0  0  0
  1  2  1  0  0  0  0
  2  7  1  0  0  0  0
  2  3  2  0  0  0  0
  3  4  1  0  0  0  0
  3 20  1  0  0  0  0
  4  5  2  0  0  0  0
  5  6  1  0  0  0  0
  5 21  1  0  0  0  0
  6  7  2  0  0  0  0
  6 22  1  0  0  0  0
  7  8  1  0  0  0  0
  8  9  1  0  0  0  0
  8 23  1  0  0  0  0
  9 10  1  0  0  0  0
  9 24  1  0  0  0  0
  9 25  1  0  0  0  0
 10 19  1  0  0  0  0
 10 11  1  0  0  0  0
 10 26  1  0  0  0  0
 11 12  1  0  0  0  0
 11 27  1  0  0  0  0
 11 28  1  0  0  0  0
 12 17  1  0  0  0  0
 12 13  1  0  0  0  0
 12 40  1  0  0  0  0
 13 14  1  0  0  0  0
 13 29  1  0  0  0  0
 13 30  1  0  0  0  0
 14 15  1  0  0  0  0
 14 31  1  0  0  0  0
 14 32  1  0  0  0  0
 15 16  1  0  0  0  0
 15 33  1  0  0  0  0
 15 34  1  0  0  0  0
 16 17  1  0  0  0  0
 16 35  1  0  0  0  0
 16 36  1  0  0  0  0
 17 18  1  0  0  0  0
 17 37  1  0  0  0  0
 18 19  1  0  0  0  0
 18 38  1  0  0  0  0
 18 39  1  0  0  0  0
M  CHG  1  12   1
M  END
> <s_m_source_file>
AV-unprocessed.smi

> <i_m_source_file_index>
2822

> <i_lp_mmshare_version>
43012

> <i_f3d_flags>
0

> <s_epik_input>
Q2xjMVtjSF1uW2NIXVtjSF1jMVtOSF1bQ0gyXVtDQEhdKFtDSDJdMilPW0NIMl1bQ0BASF0oTjIzKVtDSDJdW0NIMl1bQ0gyXVtDSDJdMw==

> <s_epik_cmdline>
J2VwaWtfcHl0aG9uJywgJy1waCcsICc3LjAnLCAnLXRuJywgJzgnLCAnLW1hJywgJzIwMCcsICctbWV0YWxfYmluZGluZycsICctaW1hZScsICc8aW5maWxlLm1hZT4nLCAnLW9tYWUnLCAnPG91dGZpbGUubWFlPic=

> <r_lp_tautomer_probability>
0.999999

> <r_epik_Ionization_Penalty>
0.88937

> <r_epik_Ionization_Penalty_Charging>
0.0803403

> <r_epik_Ionization_Penalty_Neutral>
0.80903

> <r_epik_State_Penalty>
0.931884

> <r_epik_Charging_Adjusted_Penalty>
1.01222

> <i_epik_Tot_Q>
1

> <i_epik_Tot_abs_Q>
1

> <r_epik_Metal_State_Penalty>
0.0782275

> <b_epik_Metal_Only>
0

> <s_lp_Force_Field>
OPLS_2005

> <r_lp_Energy>
31.959

> <b_lp_Chiralities_Consistent>
1

> <s_lp_Variant>
AV-unprocessed.smi:2822-15

> <Gold.Version>
5.8.1

> <Gold.Id.Protein>
6NUR|6NUR_protein|mol2

> <Gold.PLP.Fitness>
47.0657

> <Gold.PLP.PLP>
-34.0688

> <Gold.PLP.part.hbond>
-3.0000

> <Gold.PLP.part.metal>
0.0000

> <Gold.PLP.part.buried>
-2.5896

> <Gold.PLP.part.nonpolar>
-30.2060

> <Gold.PLP.part.repulsive>
1.2520

> <Gold.PLP.ligand.clash>
0.0000

> <Gold.PLP.ligand.torsion>
0.5485

> <Gold.PLP.Chemscore.Hbond>
3.6961

> <Gold.PLP.Chemscore.CHOScore>
1.0000

> <Gold.PLP.Chemscore.Metal>
0.0000

> <Gold.Chemscore.Hbonds>
donor molecule, donor type, donor heavy atom, donor atom, acceptor molecule, acceptor atom, score
      L1  H     8    23       P1 10175  0.96
      L1  H    12    40       P1  7948  2.00
      P1  H  7989  7998       L1     4  0.66
      L1  C     3    20       P1  8028  1.00

> <Gold.PLP.Chemscore.Internal.Correction>
0.0055

> <Gold.Rescore>
     Score         DG    S(hbond)    S(metal)    S(lipo)     H(rot)  DE(clash)    DE(int)     intcor
     18.45     -19.21       1.98        0.00      86.35       1.17       0.26       0.50       ----

> <Gold.Chemscore.Fitness>
18.4515

> <Gold.Chemscore.DG>
-19.2055

> <Gold.Chemscore.ZeroCoef>
-5.4800

> <Gold.Chemscore.Hbond>
1.9809

> <Gold.Chemscore.Metal>
0.0000

> <Gold.Chemscore.Lipo>
86.3473

> <Gold.Chemscore.Internal_Hbond>
0.0000

> <Gold.Chemscore.DEClash>
0.2556

> <Gold.Chemscore.DEInternal>
0.4984

> <Gold.Chemscore.Rot>
1.1693

> <Gold.Chemscore.Internal.Correction>
   9.000000E+99

> <Gold.Chemscore.Hbonds>
donor molecule, donor type, donor heavy atom, donor atom, acceptor molecule, acceptor atom, score
      L1  H     8    23       P1 10175  0.90
      L1  H    12    40       P1  7948  0.98
      P1  H  7989  7998       L1     4  0.08

> <Gold.Chemscore.Hbond.Weighted>
-6.6162

> <Gold.Chemscore.Metal.Weighted>
-0.0000

> <Gold.Chemscore.Lipo.Weighted>
-10.1026

> <Gold.Chemscore.Internal_Hbond.Weighted>
0.0000

> <Gold.Chemscore.DEClash.Weighted>
0.2556

> <Gold.Chemscore.DEInternal.Weighted>
0.4984

> <Gold.Chemscore.Rot.Weighted>
2.9934

> <Gold.Chemscore.Internal.Correction.Weighted>
   9.000000E+99

> <Gold.Protein.RotatedTorsions>
[ 6907 6896 6895 6894 ] final   99.26 input  -60.11 | X-H torsion
[ 7974 7965 7964 7962 ] final -106.14 input  175.53 | X-H torsion
[ 8008 7997 7996 7995 ] final  165.97 input   59.86 | X-H torsion
[ 10167 10162 10161 10158 ] final   76.55 input  -65.29 | X-H torsion
[ 10718 10713 10712 10709 ] final  161.07 input   66.30 | X-H torsion
[ 10763 10752 10751 10750 ] final  179.36 input  -60.55 | X-H torsion
[ 11005 11000 10999 10996 ] final  167.19 input  -57.11 | X-H torsion

> <Gold.Protein.ActiveResidues>
 VAL166  LYS551  ARG553  GLY616  TRP617  ASP618  TYR619  PRO620  LYS621  CYS622 
 ASP623  PHE694  ASN695  SER759  ASP760  ASP761  ALA762  ILE779  LEU786  VAL792 
 PHE793  MET794  SER795  GLU796  ALA797  LYS798  CYS799  TRP800  GLU811  SER814 

> <Gold.Protein.RotatedAtoms>
  152.5395  134.0456  159.8086 H   0  0  0  0  0  0  0  0  0  0  0  0  # atno 6907 bound_to 6896
  151.0605  133.5541  159.2642 H   0  0  0  0  0  0  0  0  0  0  0  0  # atno 6908 bound_to 6896
  151.2441  135.0607  159.9090 H   0  0  0  0  0  0  0  0  0  0  0  0  # atno 6909 bound_to 6896
  145.2216  140.9136  143.3256 H   0  0  0  0  0  0  0  0  0  0  0  0  # atno 7974 bound_to 7965
  156.1757  140.1656  156.8367 H   0  0  0  0  0  0  0  0  0  0  0  0  # atno 8008 bound_to 7997
  154.5304  140.0758  156.8368 H   0  0  0  0  0  0  0  0  0  0  0  0  # atno 8009 bound_to 7997
  155.3419  140.3385  155.4241 H   0  0  0  0  0  0  0  0  0  0  0  0  # atno 8010 bound_to 7997
  139.9911  144.5756  150.7817 H   0  0  0  0  0  0  0  0  0  0  0  0  # atno 10167 bound_to 10162
  157.1416  131.0542  151.2323 H   0  0  0  0  0  0  0  0  0  0  0  0  # atno 10718 bound_to 10713
  154.5196  135.2793  155.1273 H   0  0  0  0  0  0  0  0  0  0  0  0  # atno 10763 bound_to 10752
  154.2836  135.6280  153.5360 H   0  0  0  0  0  0  0  0  0  0  0  0  # atno 10764 bound_to 10752
  152.9934  135.5657  154.5682 H   0  0  0  0  0  0  0  0  0  0  0  0  # atno 10765 bound_to 10752
  140.2742  134.7802  157.3702 H   0  0  0  0  0  0  0  0  0  0  0  0  # atno 11005 bound_to 11000
  144.9760  139.3831  143.6285 LP  0  0  0  0  0  0  0  0  0  0  0  0  # atno 17320 bound_to 7965
  146.3374  139.8880  142.8813 LP  0  0  0  0  0  0  0  0  0  0  0  0  # atno 17321 bound_to 7965
  140.7454  143.2875  151.3421 LP  0  0  0  0  0  0  0  0  0  0  0  0  # atno 17342 bound_to 10162
  139.6339  144.0667  152.2500 LP  0  0  0  0  0  0  0  0  0  0  0  0  # atno 17343 bound_to 10162
  157.4301  130.7486  149.6983 LP  0  0  0  0  0  0  0  0  0  0  0  0  # atno 17370 bound_to 10713
  155.9787  130.4048  150.3630 LP  0  0  0  0  0  0  0  0  0  0  0  0  # atno 17371 bound_to 10713
  140.1344  134.5053  155.8080 LP  0  0  0  0  0  0  0  0  0  0  0  0  # atno 17394 bound_to 11000
  141.2173  133.6802  156.7098 LP  0  0  0  0  0  0  0  0  0  0  0  0  # atno 17395 bound_to 11000

$$$$
