AV-unprocessed.smi:3298|AV-procd|sdf|12643|dock4
  -GOLD-   2272018573D 1   1.00000     0.00000
 Structure written by MMmdl.
 35 36  0  0  0  0  0  0  0  0  1 V2000
  150.3051  125.2065  149.4357 C   0  0  0  0  0  0  0  0  0  0  0  0
  149.4023  125.7906  150.5023 C   0  0  0  0  0  0  0  0  0  0  0  0
  148.9915  127.1390  150.4440 C   0  0  0  0  0  0  0  0  0  0  0  0
  148.1598  127.6415  151.4661 C   0  0  0  0  0  0  0  0  0  0  0  0
  147.7452  128.9976  151.3735 N   0  0  0  0  0  0  0  0  0  0  0  0
  146.6113  129.5627  151.8232 C   0  0  0  0  0  0  0  0  0  0  0  0
  145.7296  128.9868  152.4610 O   0  0  0  0  0  0  0  0  0  0  0  0
  146.5590  130.8633  151.5030 N   0  0  0  0  0  0  0  0  0  0  0  0
  145.4574  131.7606  151.8321 C   0  0  1  0  0  0  0  0  0  0  0  0
  145.9447  133.1832  151.8985 C   0  0  0  0  0  0  0  0  0  0  0  0
  145.3208  133.9827  151.0360 C   0  0  0  0  0  0  0  0  0  0  0  0
  144.2948  133.2538  150.2074 C   0  0  1  0  0  0  0  0  0  0  0  0
  144.5309  133.3962  148.6914 C   0  0  0  0  0  0  0  0  0  0  0  0
  144.4949  134.7489  148.2796 O   0  0  0  0  0  0  0  0  0  0  0  0
  144.3654  131.7956  150.7294 C   0  0  0  0  0  0  0  0  0  0  0  0
  147.7572  126.7556  152.4942 C   0  0  0  0  0  0  0  0  0  0  0  0
  148.2236  125.4265  152.4590 C   0  0  0  0  0  0  0  0  0  0  0  0
  149.0314  124.9471  151.4896 N   0  0  0  0  0  0  0  0  0  0  0  0
  145.0279  131.4924  152.7988 H   0  0  0  0  0  0  0  0  0  0  0  0
  143.3187  133.6749  150.4511 H   0  0  0  0  0  0  0  0  0  0  0  0
  150.4171  125.8912  148.5945 H   0  0  0  0  0  0  0  0  0  0  0  0
  149.8943  124.2700  149.0573 H   0  0  0  0  0  0  0  0  0  0  0  0
  151.2947  125.0067  149.8476 H   0  0  0  0  0  0  0  0  0  0  0  0
  149.3132  127.7765  149.6332 H   0  0  0  0  0  0  0  0  0  0  0  0
  148.4106  129.6232  150.9440 H   0  0  0  0  0  0  0  0  0  0  0  0
  147.3260  131.2587  150.9791 H   0  0  0  0  0  0  0  0  0  0  0  0
  146.7134  133.4960  152.5897 H   0  0  0  0  0  0  0  0  0  0  0  0
  145.5084  135.0399  150.9203 H   0  0  0  0  0  0  0  0  0  0  0  0
  145.4972  132.9710  148.4190 H   0  0  0  0  0  0  0  0  0  0  0  0
  143.7717  132.8426  148.1376 H   0  0  0  0  0  0  0  0  0  0  0  0
  145.2880  134.9386  147.8018 H   0  0  0  0  0  0  0  0  0  0  0  0
  144.5797  131.0925  149.9227 H   0  0  0  0  0  0  0  0  0  0  0  0
  143.4025  131.4980  151.1467 H   0  0  0  0  0  0  0  0  0  0  0  0
  147.0981  127.0597  153.2923 H   0  0  0  0  0  0  0  0  0  0  0  0
  147.9339  124.7269  153.2288 H   0  0  0  0  0  0  0  0  0  0  0  0
  1  2  1  0  0  0  0
  1 21  1  0  0  0  0
  1 22  1  0  0  0  0
  1 23  1  0  0  0  0
  2 18  1  0  0  0  0
  2  3  2  0  0  0  0
  3  4  1  0  0  0  0
  3 24  1  0  0  0  0
  4  5  1  0  0  0  0
  4 16  2  0  0  0  0
  5  6  1  0  0  0  0
  5 25  1  0  0  0  0
  6  7  2  0  0  0  0
  6  8  1  0  0  0  0
  8  9  1  0  0  0  0
  8 26  1  0  0  0  0
  9 19  1  0  0  0  0
  9 15  1  0  0  0  0
  9 10  1  0  0  0  0
 10 11  2  0  0  0  0
 10 27  1  0  0  0  0
 11 12  1  0  0  0  0
 11 28  1  0  0  0  0
 12 20  1  0  0  0  0
 12 13  1  0  0  0  0
 12 15  1  0  0  0  0
 13 14  1  0  0  0  0
 13 29  1  0  0  0  0
 13 30  1  0  0  0  0
 14 31  1  0  0  0  0
 15 32  1  0  0  0  0
 15 33  1  0  0  0  0
 16 17  1  0  0  0  0
 16 34  1  0  0  0  0
 17 18  2  0  0  0  0
 17 35  1  0  0  0  0
M  END
> <s_m_source_file>
AV-unprocessed.smi

> <i_m_source_file_index>
3298

> <i_lp_mmshare_version>
43012

> <i_f3d_flags>
0

> <s_epik_input>
W0NIM11jMVtjSF1jKFtjSF1bY0hdbjEpW05IXUMoPU8pW05IXVtDQEBIXTJbQ0hdPVtDSF1bQ0BASF0oW0NIMl0yKVtDSDJdW09IXQ==

> <s_epik_cmdline>
J2VwaWtfcHl0aG9uJywgJy1waCcsICc3LjAnLCAnLXRuJywgJzgnLCAnLW1hJywgJzIwMCcsICctbWV0YWxfYmluZGluZycsICctaW1hZScsICc8aW5maWxlLm1hZT4nLCAnLW9tYWUnLCAnPG91dGZpbGUubWFlPic=

> <r_epik_Ionization_Penalty>
0.379275

> <r_epik_Ionization_Penalty_Charging>
0

> <r_epik_Ionization_Penalty_Neutral>
0.379275

> <r_epik_State_Penalty>
0.377195

> <r_epik_Charging_Adjusted_Penalty>
0.377195

> <i_epik_Tot_Q>
0

> <i_epik_Tot_abs_Q>
0

> <r_epik_Metal_State_Penalty>
0.22815

> <b_epik_Metal_Only>
0

> <s_lp_Force_Field>
OPLS_2005

> <r_lp_Energy>
21.2721

> <b_lp_Chiralities_Consistent>
1

> <s_lp_Variant>
AV-unprocessed.smi:3298-4

> <Gold.Version>
5.8.1

> <Gold.Id.Protein>
6NUR|6NUR_protein|mol2

> <Gold.PLP.Fitness>
49.5206

> <Gold.PLP.PLP>
-41.4682

> <Gold.PLP.part.hbond>
-4.4093

> <Gold.PLP.part.metal>
0.0000

> <Gold.PLP.part.buried>
-7.1949

> <Gold.PLP.part.nonpolar>
-30.8788

> <Gold.PLP.part.repulsive>
0.3274

> <Gold.PLP.ligand.clash>
0.0000

> <Gold.PLP.ligand.torsion>
0.5394

> <Gold.PLP.Chemscore.Hbond>
3.0393

> <Gold.PLP.Chemscore.CHOScore>
0.0000

> <Gold.PLP.Chemscore.Metal>
0.0000

> <Gold.Chemscore.Hbonds>
donor molecule, donor type, donor heavy atom, donor atom, acceptor molecule, acceptor atom, score
      L1  H     5    25       P1 10747  0.83
      L1  H     8    26       P1 10747  0.85

> <Gold.PLP.Chemscore.Internal.Correction>
0.0134

> <Gold.Rescore>
     Score         DG    S(hbond)    S(metal)    S(lipo)     H(rot)  DE(clash)    DE(int)     intcor
     15.30     -16.83       2.05        0.00      77.52       1.78       0.06       1.47       ----

> <Gold.Chemscore.Fitness>
15.3028

> <Gold.Chemscore.DG>
-16.8264

> <Gold.Chemscore.ZeroCoef>
-5.4800

> <Gold.Chemscore.Hbond>
2.0457

> <Gold.Chemscore.Metal>
0.0000

> <Gold.Chemscore.Lipo>
77.5180

> <Gold.Chemscore.Internal_Hbond>
0.0000

> <Gold.Chemscore.DEClash>
0.0565

> <Gold.Chemscore.DEInternal>
1.4671

> <Gold.Chemscore.Rot>
1.7796

> <Gold.Chemscore.Internal.Correction>
   9.000000E+99

> <Gold.Chemscore.Hbonds>
donor molecule, donor type, donor heavy atom, donor atom, acceptor molecule, acceptor atom, score
      L1  H     5    25       P1 10747  0.21
      L1  H     8    26       P1 10747  0.83

> <Gold.Chemscore.Hbond.Weighted>
-6.8326

> <Gold.Chemscore.Metal.Weighted>
-0.0000

> <Gold.Chemscore.Lipo.Weighted>
-9.0696

> <Gold.Chemscore.Internal_Hbond.Weighted>
0.0000

> <Gold.Chemscore.DEClash.Weighted>
0.0565

> <Gold.Chemscore.DEInternal.Weighted>
1.4671

> <Gold.Chemscore.Rot.Weighted>
4.5558

> <Gold.Chemscore.Internal.Correction.Weighted>
   9.000000E+99

> <Gold.Protein.RotatedTorsions>
[ 6907 6896 6895 6894 ] final  146.06 input  -60.11 | X-H torsion
[ 7974 7965 7964 7962 ] final  -43.17 input  175.53 | X-H torsion
[ 8008 7997 7996 7995 ] final  -96.26 input   59.86 | X-H torsion
[ 10167 10162 10161 10158 ] final  112.50 input  -65.29 | X-H torsion
[ 10718 10713 10712 10709 ] final   62.07 input   66.30 | X-H torsion
[ 10763 10752 10751 10750 ] final -149.37 input  -60.55 | X-H torsion
[ 11005 11000 10999 10996 ] final  -51.48 input  -57.11 | X-H torsion

> <Gold.Protein.ActiveResidues>
 VAL166  LYS551  ARG553  GLY616  TRP617  ASP618  TYR619  PRO620  LYS621  CYS622 
 ASP623  PHE694  ASN695  SER759  ASP760  ASP761  ALA762  ILE779  LEU786  VAL792 
 PHE793  MET794  SER795  GLU796  ALA797  LYS798  CYS799  TRP800  GLU811  SER814 

> <Gold.Protein.RotatedAtoms>
  152.1729  133.4655  159.4917 H   0  0  0  0  0  0  0  0  0  0  0  0  # atno 6907 bound_to 6896
  150.6922  134.1931  159.4302 H   0  0  0  0  0  0  0  0  0  0  0  0  # atno 6908 bound_to 6896
  151.9838  135.0014  160.0609 H   0  0  0  0  0  0  0  0  0  0  0  0  # atno 6909 bound_to 6896
  146.0045  140.7036  142.9254 H   0  0  0  0  0  0  0  0  0  0  0  0  # atno 7974 bound_to 7965
  154.7722  140.0473  157.1060 H   0  0  0  0  0  0  0  0  0  0  0  0  # atno 8008 bound_to 7997
  154.9806  140.3101  155.4928 H   0  0  0  0  0  0  0  0  0  0  0  0  # atno 8009 bound_to 7997
  156.2923  140.2236  156.4905 H   0  0  0  0  0  0  0  0  0  0  0  0  # atno 8010 bound_to 7997
  139.6531  144.7128  151.2010 H   0  0  0  0  0  0  0  0  0  0  0  0  # atno 10167 bound_to 10162
  157.5874  130.9030  149.9541 H   0  0  0  0  0  0  0  0  0  0  0  0  # atno 10718 bound_to 10713
  154.8181  135.3311  154.7119 H   0  0  0  0  0  0  0  0  0  0  0  0  # atno 10763 bound_to 10752
  153.7756  135.6922  153.4902 H   0  0  0  0  0  0  0  0  0  0  0  0  # atno 10764 bound_to 10752
  153.2015  135.4514  155.0220 H   0  0  0  0  0  0  0  0  0  0  0  0  # atno 10765 bound_to 10752
  141.0873  133.6640  156.3884 H   0  0  0  0  0  0  0  0  0  0  0  0  # atno 11005 bound_to 11000
  144.6931  140.3290  143.7219 LP  0  0  0  0  0  0  0  0  0  0  0  0  # atno 17320 bound_to 7965
  145.7437  139.1772  143.2361 LP  0  0  0  0  0  0  0  0  0  0  0  0  # atno 17321 bound_to 7965
  140.7547  143.6117  150.8599 LP  0  0  0  0  0  0  0  0  0  0  0  0  # atno 17342 bound_to 10162
  139.9767  143.5996  152.2956 LP  0  0  0  0  0  0  0  0  0  0  0  0  # atno 17343 bound_to 10162
  156.0925  130.3662  150.0369 LP  0  0  0  0  0  0  0  0  0  0  0  0  # atno 17370 bound_to 10713
  156.8498  130.9455  151.3626 LP  0  0  0  0  0  0  0  0  0  0  0  0  # atno 17371 bound_to 10713
  140.5333  134.6191  157.5357 LP  0  0  0  0  0  0  0  0  0  0  0  0  # atno 17394 bound_to 11000
  139.9693  134.7319  156.0073 LP  0  0  0  0  0  0  0  0  0  0  0  0  # atno 17395 bound_to 11000

$$$$
