AV-unprocessed.smi:317|AV-procd|sdf|2329|dock6
  -GOLD-   2262022233D 1   1.00000     0.00000
 Structure written by MMmdl.
 40 41  0  0  0  0  0  0  0  0  2 V2000
  149.7217  131.9073  154.8149 C   0  0  0  0  0  0  0  0  0  0  0  0
  148.8619  133.1411  155.1439 C   0  0  1  0  0  0  0  0  0  0  0  0
  149.5360  134.4754  154.7729 C   0  0  0  0  0  0  0  0  0  0  0  0
  148.6234  135.5533  154.8281 O   0  0  0  0  0  0  0  0  0  0  0  0
  147.5449  133.0584  154.5170 N   0  0  0  0  0  0  0  0  0  0  0  0
  147.3125  132.9435  153.2019 C   0  0  0  0  0  0  0  0  0  0  0  0
  148.2025  132.8925  152.3533 O   0  0  0  0  0  0  0  0  0  0  0  0
  145.9941  132.9134  152.9445 N   0  0  0  0  0  0  0  0  0  0  0  0
  145.3413  132.8457  151.6804 C   0  0  0  0  0  0  0  0  0  0  0  0
  145.9043  132.1302  150.5920 C   0  0  0  0  0  0  0  0  0  0  0  0
  145.2418  132.1025  149.3503 C   0  0  0  0  0  0  0  0  0  0  0  0
  144.0222  132.7871  149.2146 C   0  0  0  0  0  0  0  0  0  0  0  0
  143.5022  133.4417  150.2731 N   0  3  0  0  0  0  0  0  0  0  0  0
  144.0846  133.4931  151.4975 C   0  0  0  0  0  0  0  0  0  0  0  0
  143.4150  134.2059  152.5180 N   0  0  0  0  0  0  0  0  0  0  0  0
  143.5296  135.6572  152.6012 C   0  0  0  0  0  0  0  0  0  0  0  0
  142.4262  136.0851  153.5644 C   0  0  0  0  0  0  0  0  0  0  0  0
  141.3112  135.0931  153.2466 C   0  0  0  0  0  0  0  0  0  0  0  0
  142.0596  133.8057  152.8829 C   0  0  0  0  0  0  0  0  0  0  0  0
  150.7033  131.9799  155.2839 H   0  0  0  0  0  0  0  0  0  0  0  0
  149.8729  131.7960  153.7409 H   0  0  0  0  0  0  0  0  0  0  0  0
  149.2539  130.9917  155.1780 H   0  0  0  0  0  0  0  0  0  0  0  0
  148.7132  133.1611  156.2251 H   0  0  0  0  0  0  0  0  0  0  0  0
  150.3802  134.6814  155.4320 H   0  0  0  0  0  0  0  0  0  0  0  0
  149.9333  134.4208  153.7589 H   0  0  0  0  0  0  0  0  0  0  0  0
  148.6649  136.0244  154.0097 H   0  0  0  0  0  0  0  0  0  0  0  0
  146.7517  133.1007  155.1402 H   0  0  0  0  0  0  0  0  0  0  0  0
  145.3883  133.0591  153.7386 H   0  0  0  0  0  0  0  0  0  0  0  0
  146.8356  131.5934  150.6897 H   0  0  0  0  0  0  0  0  0  0  0  0
  145.6651  131.5645  148.5146 H   0  0  0  0  0  0  0  0  0  0  0  0
  143.4456  132.8239  148.3017 H   0  0  0  0  0  0  0  0  0  0  0  0
  144.5155  135.9603  152.9546 H   0  0  0  0  0  0  0  0  0  0  0  0
  143.3585  136.1114  151.6243 H   0  0  0  0  0  0  0  0  0  0  0  0
  142.7583  135.9549  154.5955 H   0  0  0  0  0  0  0  0  0  0  0  0
  142.1253  137.1248  153.4325 H   0  0  0  0  0  0  0  0  0  0  0  0
  140.6130  134.9579  154.0732 H   0  0  0  0  0  0  0  0  0  0  0  0
  140.7449  135.4457  152.3833 H   0  0  0  0  0  0  0  0  0  0  0  0
  141.5579  133.2708  152.0751 H   0  0  0  0  0  0  0  0  0  0  0  0
  142.1076  133.1464  153.7502 H   0  0  0  0  0  0  0  0  0  0  0  0
  142.6103  133.9204  150.1460 H   0  0  0  0  0  0  0  0  0  0  0  0
  1  2  1  0  0  0  0
  1 20  1  0  0  0  0
  1 21  1  0  0  0  0
  1 22  1  0  0  0  0
  2  3  1  0  0  0  0
  2  5  1  0  0  0  0
  2 23  1  0  0  0  0
  3  4  1  0  0  0  0
  3 24  1  0  0  0  0
  3 25  1  0  0  0  0
  4 26  1  0  0  0  0
  5  6  1  0  0  0  0
  5 27  1  0  0  0  0
  6  7  2  0  0  0  0
  6  8  1  0  0  0  0
  8  9  1  0  0  0  0
  8 28  1  0  0  0  0
  9 14  1  0  0  0  0
  9 10  2  0  0  0  0
 10 11  1  0  0  0  0
 10 29  1  0  0  0  0
 11 12  2  0  0  0  0
 11 30  1  0  0  0  0
 12 13  1  0  0  0  0
 12 31  1  0  0  0  0
 13 14  2  0  0  0  0
 13 40  1  0  0  0  0
 14 15  1  0  0  0  0
 15 19  1  0  0  0  0
 15 16  1  0  0  0  0
 16 17  1  0  0  0  0
 16 32  1  0  0  0  0
 16 33  1  0  0  0  0
 17 18  1  0  0  0  0
 17 34  1  0  0  0  0
 17 35  1  0  0  0  0
 18 19  1  0  0  0  0
 18 36  1  0  0  0  0
 18 37  1  0  0  0  0
 19 38  1  0  0  0  0
 19 39  1  0  0  0  0
M  CHG  1  13   1
M  END
> <s_m_source_file>
AV-unprocessed.smi

> <i_m_source_file_index>
317

> <i_lp_mmshare_version>
43012

> <i_f3d_flags>
0

> <s_epik_input>
W09IXVtDSDJdW0NAQEhdKFtDSDNdKVtOSF1DKD1PKVtOSF1jMVtjSF1bY0hdW2NIXW5jMU4yW0NIMl1bQ0gyXVtDSDJdW0NIMl0y

> <s_epik_cmdline>
J2VwaWtfcHl0aG9uJywgJy1waCcsICc3LjAnLCAnLXRuJywgJzgnLCAnLW1hJywgJzIwMCcsICctbWV0YWxfYmluZGluZycsICctaW1hZScsICc8aW5maWxlLm1hZT4nLCAnLW9tYWUnLCAnPG91dGZpbGUubWFlPic=

> <r_lp_tautomer_probability>
0.999994

> <r_epik_Ionization_Penalty>
1.11558

> <r_epik_Ionization_Penalty_Charging>
1.11556

> <r_epik_Ionization_Penalty_Neutral>
2.02999e-05

> <r_epik_State_Penalty>
1.17393

> <r_epik_Charging_Adjusted_Penalty>
2.28949

> <i_epik_Tot_Q>
1

> <i_epik_Tot_abs_Q>
1

> <r_epik_Metal_State_Penalty>
1.25924

> <b_epik_Metal_Only>
0

> <s_lp_Force_Field>
OPLS_2005

> <r_lp_Energy>
42.0309

> <b_lp_Chiralities_Consistent>
1

> <s_lp_Variant>
AV-unprocessed.smi:317-4

> <Gold.Version>
5.8.1

> <Gold.Id.Protein>
6NUR|6NUR_protein|mol2

> <Gold.PLP.Fitness>
40.4339

> <Gold.PLP.PLP>
-32.4199

> <Gold.PLP.part.hbond>
-2.0000

> <Gold.PLP.part.metal>
0.0000

> <Gold.PLP.part.buried>
-3.6587

> <Gold.PLP.part.nonpolar>
-27.9984

> <Gold.PLP.part.repulsive>
1.0803

> <Gold.PLP.ligand.clash>
0.0000

> <Gold.PLP.ligand.torsion>
0.6913

> <Gold.PLP.Chemscore.Hbond>
3.0000

> <Gold.PLP.Chemscore.CHOScore>
0.0000

> <Gold.PLP.Chemscore.Metal>
0.0000

> <Gold.Chemscore.Hbonds>
donor molecule, donor type, donor heavy atom, donor atom, acceptor molecule, acceptor atom, score
      L1  H     4    26       P1  7948  0.67
      L1  H    13    40       P1 10186  2.00

> <Gold.PLP.Chemscore.Internal.Correction>
0.3966

> <Gold.Rescore>
     Score         DG    S(hbond)    S(metal)    S(lipo)     H(rot)  DE(clash)    DE(int)     intcor
     12.79     -15.93       1.99        0.00      78.58       2.11       1.55       1.59       ----

> <Gold.Chemscore.Fitness>
12.7916

> <Gold.Chemscore.DG>
-15.9288

> <Gold.Chemscore.ZeroCoef>
-5.4800

> <Gold.Chemscore.Hbond>
1.9928

> <Gold.Chemscore.Metal>
0.0000

> <Gold.Chemscore.Lipo>
78.5820

> <Gold.Chemscore.Internal_Hbond>
0.0000

> <Gold.Chemscore.DEClash>
1.5500

> <Gold.Chemscore.DEInternal>
1.5871

> <Gold.Chemscore.Rot>
2.1099

> <Gold.Chemscore.Internal.Correction>
   9.000000E+99

> <Gold.Chemscore.Hbonds>
donor molecule, donor type, donor heavy atom, donor atom, acceptor molecule, acceptor atom, score
      L1  H     4    26       P1  7948  0.65
      L1  H    13    40       P1 10186  0.99

> <Gold.Chemscore.Hbond.Weighted>
-6.6561

> <Gold.Chemscore.Metal.Weighted>
-0.0000

> <Gold.Chemscore.Lipo.Weighted>
-9.1941

> <Gold.Chemscore.Internal_Hbond.Weighted>
0.0000

> <Gold.Chemscore.DEClash.Weighted>
1.5500

> <Gold.Chemscore.DEInternal.Weighted>
1.5871

> <Gold.Chemscore.Rot.Weighted>
5.4015

> <Gold.Chemscore.Internal.Correction.Weighted>
   9.000000E+99

> <Gold.Protein.RotatedTorsions>
[ 6907 6896 6895 6894 ] final -175.50 input  -60.11 | X-H torsion
[ 7974 7965 7964 7962 ] final   15.60 input  175.53 | X-H torsion
[ 8008 7997 7996 7995 ] final    8.00 input   59.86 | X-H torsion
[ 10167 10162 10161 10158 ] final   15.90 input  -65.29 | X-H torsion
[ 10718 10713 10712 10709 ] final  -25.22 input   66.30 | X-H torsion
[ 10763 10752 10751 10750 ] final  -23.61 input  -60.55 | X-H torsion
[ 11005 11000 10999 10996 ] final   82.47 input  -57.11 | X-H torsion

> <Gold.Protein.ActiveResidues>
 VAL166  LYS551  ARG553  GLY616  TRP617  ASP618  TYR619  PRO620  LYS621  CYS622 
 ASP623  PHE694  ASN695  SER759  ASP760  ASP761  ALA762  ILE779  LEU786  VAL792 
 PHE793  MET794  SER795  GLU796  ALA797  LYS798  CYS799  TRP800  GLU811  SER814 

> <Gold.Protein.RotatedAtoms>
  151.5896  133.3368  159.3024 H   0  0  0  0  0  0  0  0  0  0  0  0  # atno 6907 bound_to 6896
  150.8267  134.7505  159.6830 H   0  0  0  0  0  0  0  0  0  0  0  0  # atno 6908 bound_to 6896
  152.4356  134.5699  159.9970 H   0  0  0  0  0  0  0  0  0  0  0  0  # atno 6909 bound_to 6896
  146.2274  139.8871  142.8561 H   0  0  0  0  0  0  0  0  0  0  0  0  # atno 7974 bound_to 7965
  154.7611  140.2784  155.6214 H   0  0  0  0  0  0  0  0  0  0  0  0  # atno 8008 bound_to 7997
  156.2915  140.2660  156.2316 H   0  0  0  0  0  0  0  0  0  0  0  0  # atno 8009 bound_to 7997
  155.0017  140.0372  157.2352 H   0  0  0  0  0  0  0  0  0  0  0  0  # atno 8010 bound_to 7997
  140.5835  143.8935  150.6810 H   0  0  0  0  0  0  0  0  0  0  0  0  # atno 10167 bound_to 10162
  156.4672  130.4516  149.6892 H   0  0  0  0  0  0  0  0  0  0  0  0  # atno 10718 bound_to 10713
  153.6705  135.6972  153.5148 H   0  0  0  0  0  0  0  0  0  0  0  0  # atno 10763 bound_to 10752
  153.2561  135.4259  155.0846 H   0  0  0  0  0  0  0  0  0  0  0  0  # atno 10764 bound_to 10752
  154.8428  135.3543  154.6249 H   0  0  0  0  0  0  0  0  0  0  0  0  # atno 10765 bound_to 10752
  139.9062  134.8074  156.2179 H   0  0  0  0  0  0  0  0  0  0  0  0  # atno 11005 bound_to 11000
  145.2455  141.0025  143.3911 LP  0  0  0  0  0  0  0  0  0  0  0  0  # atno 17320 bound_to 7965
  144.9417  139.4181  143.6445 LP  0  0  0  0  0  0  0  0  0  0  0  0  # atno 17321 bound_to 7965
  140.2440  143.3642  152.1462 LP  0  0  0  0  0  0  0  0  0  0  0  0  # atno 17342 bound_to 10162
  139.5184  144.7005  151.5508 LP  0  0  0  0  0  0  0  0  0  0  0  0  # atno 17343 bound_to 10162
  156.3655  130.7504  151.2481 LP  0  0  0  0  0  0  0  0  0  0  0  0  # atno 17370 bound_to 10713
  157.7494  131.0338  150.4288 LP  0  0  0  0  0  0  0  0  0  0  0  0  # atno 17371 bound_to 10713
  141.0424  133.6931  156.1622 LP  0  0  0  0  0  0  0  0  0  0  0  0  # atno 17394 bound_to 11000
  140.6935  134.4640  157.5588 LP  0  0  0  0  0  0  0  0  0  0  0  0  # atno 17395 bound_to 11000

$$$$
