AV-unprocessed.smi:2098|AV-procd|sdf|8567|dock10
  -GOLD-   2272011293D 1   1.00000     0.00000
 Structure written by MMmdl.
 37 39  0  0  0  0  0  0  0  0  2 V2000
  153.3039  138.8819  155.6329 O   0  0  0  0  0  0  0  0  0  0  0  0
  152.3651  139.8055  156.1481 C   0  0  2  0  0  0  0  0  0  0  0  0
  152.5840  139.9264  157.6645 C   0  0  0  0  0  0  0  0  0  0  0  0
  151.9814  141.1298  158.1223 O   0  0  0  0  0  0  0  0  0  0  0  0
  152.2196  141.5263  159.4210 C   0  0  0  0  0  0  0  0  0  0  0  0
  151.6083  142.7242  159.8465 C   0  0  0  0  0  0  0  0  0  0  0  0
  151.7949  143.2030  161.1576 C   0  0  0  0  0  0  0  0  0  0  0  0
  152.6002  142.4848  162.0604 C   0  0  0  0  0  0  0  0  0  0  0  0
  152.7809  142.9434  163.3214 F   0  0  0  0  0  0  0  0  0  0  0  0
  153.2170  141.2888  161.6497 C   0  0  0  0  0  0  0  0  0  0  0  0
  153.0296  140.8094  160.3384 C   0  0  0  0  0  0  0  0  0  0  0  0
  150.9397  139.3226  155.8133 C   0  0  0  0  0  0  0  0  0  0  0  0
  150.0978  140.3789  155.2331 N   0  0  0  0  0  0  0  0  0  0  0  0
  150.0674  141.7113  155.5074 C   0  0  0  0  0  0  0  0  0  0  0  0
  149.1135  142.2737  154.7151 N   0  3  0  0  0  0  0  0  0  0  0  0
  148.5259  141.2870  153.9207 C   0  0  0  0  0  0  0  0  0  0  0  0
  147.5173  141.3686  152.9654 C   0  0  0  0  0  0  0  0  0  0  0  0
  147.1502  140.1650  152.3283 C   0  0  0  0  0  0  0  0  0  0  0  0
  147.7787  138.9438  152.6474 C   0  0  0  0  0  0  0  0  0  0  0  0
  148.7987  138.8727  153.6189 C   0  0  0  0  0  0  0  0  0  0  0  0
  149.1550  140.0664  154.2461 C   0  0  0  0  0  0  0  0  0  0  0  0
  154.1198  138.9961  156.0965 H   0  0  0  0  0  0  0  0  0  0  0  0
  152.5287  140.7754  155.6765 H   0  0  0  0  0  0  0  0  0  0  0  0
  152.0978  139.0872  158.1647 H   0  0  0  0  0  0  0  0  0  0  0  0
  153.6476  139.8892  157.9073 H   0  0  0  0  0  0  0  0  0  0  0  0
  150.9884  143.2822  159.1600 H   0  0  0  0  0  0  0  0  0  0  0  0
  151.3195  144.1211  161.4702 H   0  0  0  0  0  0  0  0  0  0  0  0
  153.8352  140.7363  162.3417 H   0  0  0  0  0  0  0  0  0  0  0  0
  153.5183  139.8878  160.0620 H   0  0  0  0  0  0  0  0  0  0  0  0
  150.9577  138.4638  155.1418 H   0  0  0  0  0  0  0  0  0  0  0  0
  150.4407  138.9859  156.7230 H   0  0  0  0  0  0  0  0  0  0  0  0
  150.6869  142.2288  156.2254 H   0  0  0  0  0  0  0  0  0  0  0  0
  147.0356  142.3032  152.7179 H   0  0  0  0  0  0  0  0  0  0  0  0
  146.3727  140.1791  151.5783 H   0  0  0  0  0  0  0  0  0  0  0  0
  147.4732  138.0425  152.1359 H   0  0  0  0  0  0  0  0  0  0  0  0
  149.2770  137.9326  153.8506 H   0  0  0  0  0  0  0  0  0  0  0  0
  148.8828  143.2590  154.7184 H   0  0  0  0  0  0  0  0  0  0  0  0
  1  2  1  0  0  0  0
  1 22  1  0  0  0  0
  2  3  1  0  0  0  0
  2 12  1  0  0  0  0
  2 23  1  0  0  0  0
  3  4  1  0  0  0  0
  3 24  1  0  0  0  0
  3 25  1  0  0  0  0
  4  5  1  0  0  0  0
  5 11  1  0  0  0  0
  5  6  2  0  0  0  0
  6  7  1  0  0  0  0
  6 26  1  0  0  0  0
  7  8  2  0  0  0  0
  7 27  1  0  0  0  0
  8  9  1  0  0  0  0
  8 10  1  0  0  0  0
 10 11  2  0  0  0  0
 10 28  1  0  0  0  0
 11 29  1  0  0  0  0
 12 13  1  0  0  0  0
 12 30  1  0  0  0  0
 12 31  1  0  0  0  0
 13 21  1  0  0  0  0
 13 14  1  0  0  0  0
 14 15  2  0  0  0  0
 14 32  1  0  0  0  0
 15 16  1  0  0  0  0
 15 37  1  0  0  0  0
 16 21  2  0  0  0  0
 16 17  1  0  0  0  0
 17 18  2  0  0  0  0
 17 33  1  0  0  0  0
 18 19  1  0  0  0  0
 18 34  1  0  0  0  0
 19 20  2  0  0  0  0
 19 35  1  0  0  0  0
 20 21  1  0  0  0  0
 20 36  1  0  0  0  0
M  CHG  1  15   1
M  END
> <s_m_source_file>
AV-unprocessed.smi

> <i_m_source_file_index>
2098

> <i_lp_mmshare_version>
43012

> <i_f3d_flags>
0

> <s_epik_input>
W2NIXTFbY0hdW2NIXVtjSF1jKGMxMiluKFtjSF1uMilbQ0gyXVtDQEhdKFtPSF0pW0NIMl1PYzNbY0hdW2NIXWMoRilbY0hdW2NIXTM=

> <s_epik_cmdline>
J2VwaWtfcHl0aG9uJywgJy1waCcsICc3LjAnLCAnLXRuJywgJzgnLCAnLW1hJywgJzIwMCcsICctbWV0YWxfYmluZGluZycsICctaW1hZScsICc8aW5maWxlLm1hZT4nLCAnLW9tYWUnLCAnPG91dGZpbGUubWFlPic=

> <r_lp_tautomer_probability>
1

> <r_epik_Ionization_Penalty>
1.3832

> <r_epik_Ionization_Penalty_Charging>
1.38319

> <r_epik_Ionization_Penalty_Neutral>
2.3993e-06

> <r_epik_State_Penalty>
1.46389

> <r_epik_Charging_Adjusted_Penalty>
2.84709

> <i_epik_Tot_Q>
1

> <i_epik_Tot_abs_Q>
1

> <r_epik_Metal_State_Penalty>
5.50438

> <b_epik_Metal_Only>
0

> <s_lp_Force_Field>
OPLS_2005

> <r_lp_Energy>
20.4389

> <b_lp_Chiralities_Consistent>
1

> <s_lp_Variant>
AV-unprocessed.smi:2098-3

> <Gold.Version>
5.8.1

> <Gold.Id.Protein>
6NUR|6NUR_protein|mol2

> <Gold.PLP.Fitness>
51.2527

> <Gold.PLP.PLP>
-47.6599

> <Gold.PLP.part.hbond>
-1.8616

> <Gold.PLP.part.metal>
0.0000

> <Gold.PLP.part.buried>
-2.2983

> <Gold.PLP.part.nonpolar>
-43.0416

> <Gold.PLP.part.repulsive>
0.2283

> <Gold.PLP.ligand.clash>
0.0000

> <Gold.PLP.ligand.torsion>
1.2130

> <Gold.PLP.Chemscore.Hbond>
2.0000

> <Gold.PLP.Chemscore.CHOScore>
0.0000

> <Gold.PLP.Chemscore.Metal>
0.0000

> <Gold.Chemscore.Hbonds>
donor molecule, donor type, donor heavy atom, donor atom, acceptor molecule, acceptor atom, score
      L1  H    15    37       P1  8028  1.86

> <Gold.PLP.Chemscore.Internal.Correction>
0.0188

> <Gold.Rescore>
     Score         DG    S(hbond)    S(metal)    S(lipo)     H(rot)  DE(clash)    DE(int)     intcor
     15.06     -16.04       0.97        0.00     116.20       2.46       0.07       0.90       ----

> <Gold.Chemscore.Fitness>
15.0615

> <Gold.Chemscore.DG>
-16.0362

> <Gold.Chemscore.ZeroCoef>
-5.4800

> <Gold.Chemscore.Hbond>
0.9743

> <Gold.Chemscore.Metal>
0.0000

> <Gold.Chemscore.Lipo>
116.2007

> <Gold.Chemscore.Internal_Hbond>
0.0000

> <Gold.Chemscore.DEClash>
0.0699

> <Gold.Chemscore.DEInternal>
0.9047

> <Gold.Chemscore.Rot>
2.4584

> <Gold.Chemscore.Internal.Correction>
   9.000000E+99

> <Gold.Chemscore.Hbonds>
donor molecule, donor type, donor heavy atom, donor atom, acceptor molecule, acceptor atom, score
      L1  H    15    37       P1  8028  0.91

> <Gold.Chemscore.Hbond.Weighted>
-3.2543

> <Gold.Chemscore.Metal.Weighted>
-0.0000

> <Gold.Chemscore.Lipo.Weighted>
-13.5955

> <Gold.Chemscore.Internal_Hbond.Weighted>
0.0000

> <Gold.Chemscore.DEClash.Weighted>
0.0699

> <Gold.Chemscore.DEInternal.Weighted>
0.9047

> <Gold.Chemscore.Rot.Weighted>
6.2936

> <Gold.Chemscore.Internal.Correction.Weighted>
   9.000000E+99

> <Gold.Protein.RotatedTorsions>
[ 6907 6896 6895 6894 ] final  -61.29 input  -60.11 | X-H torsion
[ 7974 7965 7964 7962 ] final   -2.72 input  175.53 | X-H torsion
[ 8008 7997 7996 7995 ] final -172.84 input   59.86 | X-H torsion
[ 10167 10162 10161 10158 ] final  115.41 input  -65.29 | X-H torsion
[ 10718 10713 10712 10709 ] final  -44.49 input   66.30 | X-H torsion
[ 10763 10752 10751 10750 ] final  -54.17 input  -60.55 | X-H torsion
[ 11005 11000 10999 10996 ] final  -96.02 input  -57.11 | X-H torsion

> <Gold.Protein.ActiveResidues>
 VAL166  LYS551  ARG553  GLY616  TRP617  ASP618  TYR619  PRO620  LYS621  CYS622 
 ASP623  PHE694  ASN695  SER759  ASP760  ASP761  ALA762  ILE779  LEU786  VAL792 
 PHE793  MET794  SER795  GLU796  ALA797  LYS798  CYS799  TRP800  GLU811  SER814 

> <Gold.Protein.RotatedAtoms>
  150.7795  134.6724  159.6398 H   0  0  0  0  0  0  0  0  0  0  0  0  # atno 6907 bound_to 6896
  152.3875  134.6490  160.0129 H   0  0  0  0  0  0  0  0  0  0  0  0  # atno 6908 bound_to 6896
  151.6801  133.3275  159.3253 H   0  0  0  0  0  0  0  0  0  0  0  0  # atno 6909 bound_to 6896
  146.2400  140.1614  142.8333 H   0  0  0  0  0  0  0  0  0  0  0  0  # atno 7974 bound_to 7965
  155.9498  140.1124  157.0986 H   0  0  0  0  0  0  0  0  0  0  0  0  # atno 8008 bound_to 7997
  154.4107  140.1203  156.5103 H   0  0  0  0  0  0  0  0  0  0  0  0  # atno 8009 bound_to 7997
  155.6857  140.3473  155.4875 H   0  0  0  0  0  0  0  0  0  0  0  0  # atno 8010 bound_to 7997
  139.6319  144.7116  151.2414 H   0  0  0  0  0  0  0  0  0  0  0  0  # atno 10167 bound_to 10162
  156.2380  130.4177  149.8794 H   0  0  0  0  0  0  0  0  0  0  0  0  # atno 10718 bound_to 10713
  154.1706  135.6460  153.5008 H   0  0  0  0  0  0  0  0  0  0  0  0  # atno 10763 bound_to 10752
  153.0085  135.5382  154.6617 H   0  0  0  0  0  0  0  0  0  0  0  0  # atno 10764 bound_to 10752
  154.5955  135.2938  155.0563 H   0  0  0  0  0  0  0  0  0  0  0  0  # atno 10765 bound_to 10752
  141.1424  133.8068  157.0514 H   0  0  0  0  0  0  0  0  0  0  0  0  # atno 11005 bound_to 11000
  145.0086  140.8695  143.5238 LP  0  0  0  0  0  0  0  0  0  0  0  0  # atno 17320 bound_to 7965
  145.1644  139.2440  143.5375 LP  0  0  0  0  0  0  0  0  0  0  0  0  # atno 17321 bound_to 7965
  140.7444  143.6464  150.8288 LP  0  0  0  0  0  0  0  0  0  0  0  0  # atno 17342 bound_to 10162
  140.0090  143.5662  152.2846 LP  0  0  0  0  0  0  0  0  0  0  0  0  # atno 17343 bound_to 10162
  156.6386  130.8695  151.3509 LP  0  0  0  0  0  0  0  0  0  0  0  0  # atno 17370 bound_to 10713
  157.7163  130.9501  150.1267 LP  0  0  0  0  0  0  0  0  0  0  0  0  # atno 17371 bound_to 10713
  140.0629  134.9745  157.1336 LP  0  0  0  0  0  0  0  0  0  0  0  0  # atno 17394 bound_to 11000
  140.3822  134.2275  155.7170 LP  0  0  0  0  0  0  0  0  0  0  0  0  # atno 17395 bound_to 11000

$$$$
