AV-unprocessed.smi:2433|AV-procd|sdf|9589|dock2
  -GOLD-   2272013223D 1   1.00000     0.00000
 Structure written by MMmdl.
 38 40  0  0  0  0  0  0  0  0  1 V2000
  151.5989  140.2256  155.1215 O   0  0  0  0  0  0  0  0  0  0  0  0
  151.0271  140.9643  155.9239 C   0  0  0  0  0  0  0  0  0  0  0  0
  151.6821  142.1196  156.5372 C   0  0  0  0  0  0  0  0  0  0  0  0
  151.0175  142.9182  157.4053 C   0  0  0  0  0  0  0  0  0  0  0  0
  151.7169  144.1170  158.0442 C   0  0  0  0  0  0  0  0  0  0  0  0
  152.9253  143.8350  158.9604 C   0  0  0  0  0  0  0  0  0  0  0  0
  151.9731  143.8759  160.1599 C   0  0  0  0  0  0  0  0  0  0  0  0
  150.9893  144.6608  159.2850 C   0  0  0  0  0  0  0  0  0  0  0  0
  149.6858  142.6431  157.7421 N   0  0  0  0  0  0  0  0  0  0  0  0
  149.0823  141.6262  157.2147 C   0  0  0  0  0  0  0  0  0  0  0  0
  149.7319  140.7690  156.3067 N   0  0  0  0  0  0  0  0  0  0  0  0
  148.9371  139.6459  155.7833 C   0  0  0  0  0  0  0  0  0  0  0  0
  148.3333  139.9491  154.3944 C   0  0  2  0  0  0  0  0  0  0  0  0
  149.3813  140.2900  153.5081 O   0  0  0  0  0  0  0  0  0  0  0  0
  147.2992  141.0610  154.4849 C   0  0  0  0  0  0  0  0  0  0  0  0
  146.2693  140.9856  155.4472 C   0  0  0  0  0  0  0  0  0  0  0  0
  145.3154  142.0168  155.5487 C   0  0  0  0  0  0  0  0  0  0  0  0
  145.3878  143.1313  154.6914 C   0  0  0  0  0  0  0  0  0  0  0  0
  144.4719  144.1237  154.7912 F   0  0  0  0  0  0  0  0  0  0  0  0
  146.4147  143.2141  153.7316 C   0  0  0  0  0  0  0  0  0  0  0  0
  147.3686  142.1829  153.6290 C   0  0  0  0  0  0  0  0  0  0  0  0
  152.7108  142.3364  156.2880 H   0  0  0  0  0  0  0  0  0  0  0  0
  151.9247  144.8897  157.3030 H   0  0  0  0  0  0  0  0  0  0  0  0
  153.4450  142.8878  158.8183 H   0  0  0  0  0  0  0  0  0  0  0  0
  153.6340  144.6645  158.9722 H   0  0  0  0  0  0  0  0  0  0  0  0
  151.5976  142.8888  160.4343 H   0  0  0  0  0  0  0  0  0  0  0  0
  152.3511  144.4207  161.0253 H   0  0  0  0  0  0  0  0  0  0  0  0
  151.1006  145.7406  159.3960 H   0  0  0  0  0  0  0  0  0  0  0  0
  149.9475  144.3545  159.3900 H   0  0  0  0  0  0  0  0  0  0  0  0
  148.0437  141.3751  157.4369 H   0  0  0  0  0  0  0  0  0  0  0  0
  149.5977  138.7798  155.7042 H   0  0  0  0  0  0  0  0  0  0  0  0
  148.1578  139.3271  156.4790 H   0  0  0  0  0  0  0  0  0  0  0  0
  147.8420  139.0614  153.9936 H   0  0  0  0  0  0  0  0  0  0  0  0
  149.1478  139.9935  152.6416 H   0  0  0  0  0  0  0  0  0  0  0  0
  146.2086  140.1374  156.1136 H   0  0  0  0  0  0  0  0  0  0  0  0
  144.5293  141.9535  156.2868 H   0  0  0  0  0  0  0  0  0  0  0  0
  146.4729  144.0702  153.0756 H   0  0  0  0  0  0  0  0  0  0  0  0
  148.1560  142.2583  152.8934 H   0  0  0  0  0  0  0  0  0  0  0  0
  1  2  2  0  0  0  0
  2 11  1  0  0  0  0
  2  3  1  0  0  0  0
  3  4  2  0  0  0  0
  3 22  1  0  0  0  0
  4  5  1  0  0  0  0
  4  9  1  0  0  0  0
  5  8  1  0  0  0  0
  5  6  1  0  0  0  0
  5 23  1  0  0  0  0
  6  7  1  0  0  0  0
  6 24  1  0  0  0  0
  6 25  1  0  0  0  0
  7  8  1  0  0  0  0
  7 26  1  0  0  0  0
  7 27  1  0  0  0  0
  8 28  1  0  0  0  0
  8 29  1  0  0  0  0
  9 10  2  0  0  0  0
 10 11  1  0  0  0  0
 10 30  1  0  0  0  0
 11 12  1  0  0  0  0
 12 13  1  0  0  0  0
 12 31  1  0  0  0  0
 12 32  1  0  0  0  0
 13 14  1  0  0  0  0
 13 15  1  0  0  0  0
 13 33  1  0  0  0  0
 14 34  1  0  0  0  0
 15 21  1  0  0  0  0
 15 16  2  0  0  0  0
 16 17  1  0  0  0  0
 16 35  1  0  0  0  0
 17 18  2  0  0  0  0
 17 36  1  0  0  0  0
 18 19  1  0  0  0  0
 18 20  1  0  0  0  0
 20 21  2  0  0  0  0
 20 37  1  0  0  0  0
 21 38  1  0  0  0  0
M  END
> <s_m_source_file>
AV-unprocessed.smi

> <i_m_source_file_index>
2433

> <i_lp_mmshare_version>
43012

> <i_f3d_flags>
0

> <s_epik_input>
W0NIMl0xW0NIMl1bQ0gyXVtDSF0xYyhbY0hdYzI9TyluW2NIXW4yW0NIMl1bQ0BIXShbT0hdKWMzW2NIXVtjSF1jKEYpW2NIXVtjSF0z

> <s_epik_cmdline>
J2VwaWtfcHl0aG9uJywgJy1waCcsICc3LjAnLCAnLXRuJywgJzgnLCAnLW1hJywgJzIwMCcsICctbWV0YWxfYmluZGluZycsICctaW1hZScsICc8aW5maWxlLm1hZT4nLCAnLW9tYWUnLCAnPG91dGZpbGUubWFlPic=

> <r_lp_tautomer_probability>
1

> <r_epik_Ionization_Penalty>
2.57762e-05

> <r_epik_Ionization_Penalty_Charging>
5.39435e-08

> <r_epik_Ionization_Penalty_Neutral>
2.57223e-05

> <r_epik_State_Penalty>
-0

> <r_epik_Charging_Adjusted_Penalty>
5.39435e-08

> <i_epik_Tot_Q>
0

> <i_epik_Tot_abs_Q>
0

> <r_epik_Metal_State_Penalty>
-0

> <b_epik_Metal_Only>
0

> <s_lp_Force_Field>
OPLS_2005

> <r_lp_Energy>
28.7145

> <b_lp_Chiralities_Consistent>
1

> <s_lp_Variant>
AV-unprocessed.smi:2433-1

> <Gold.Version>
5.8.1

> <Gold.Id.Protein>
6NUR|6NUR_protein|mol2

> <Gold.PLP.Fitness>
46.0002

> <Gold.PLP.PLP>
-41.7472

> <Gold.PLP.part.hbond>
-2.4520

> <Gold.PLP.part.metal>
0.0000

> <Gold.PLP.part.buried>
-8.0165

> <Gold.PLP.part.nonpolar>
-31.5001

> <Gold.PLP.part.repulsive>
0.2555

> <Gold.PLP.ligand.clash>
0.0023

> <Gold.PLP.ligand.torsion>
0.6924

> <Gold.PLP.Chemscore.Hbond>
1.7440

> <Gold.PLP.Chemscore.CHOScore>
0.0000

> <Gold.PLP.Chemscore.Metal>
0.0000

> <Gold.Chemscore.Hbonds>
donor molecule, donor type, donor heavy atom, donor atom, acceptor molecule, acceptor atom, score
      L1  H    14    34       P1  7957  0.85
      P1  H  7989  7998       L1     1  0.96

> <Gold.PLP.Chemscore.Internal.Correction>
0.4082

> <Gold.Rescore>
     Score         DG    S(hbond)    S(metal)    S(lipo)     H(rot)  DE(clash)    DE(int)     intcor
     14.57     -17.94       1.76        0.00     103.08       2.14       1.58       1.79       ----

> <Gold.Chemscore.Fitness>
14.5694

> <Gold.Chemscore.DG>
-17.9368

> <Gold.Chemscore.ZeroCoef>
-5.4800

> <Gold.Chemscore.Hbond>
1.7567

> <Gold.Chemscore.Metal>
0.0000

> <Gold.Chemscore.Lipo>
103.0777

> <Gold.Chemscore.Internal_Hbond>
0.0000

> <Gold.Chemscore.DEClash>
1.5797

> <Gold.Chemscore.DEInternal>
1.7877

> <Gold.Chemscore.Rot>
2.1370

> <Gold.Chemscore.Internal.Correction>
   9.000000E+99

> <Gold.Chemscore.Hbonds>
donor molecule, donor type, donor heavy atom, donor atom, acceptor molecule, acceptor atom, score
      L1  H    14    34       P1  7957  0.81
      P1  H  7989  7998       L1     1  0.79

> <Gold.Chemscore.Hbond.Weighted>
-5.8675

> <Gold.Chemscore.Metal.Weighted>
-0.0000

> <Gold.Chemscore.Lipo.Weighted>
-12.0601

> <Gold.Chemscore.Internal_Hbond.Weighted>
0.0000

> <Gold.Chemscore.DEClash.Weighted>
1.5797

> <Gold.Chemscore.DEInternal.Weighted>
1.7877

> <Gold.Chemscore.Rot.Weighted>
5.4707

> <Gold.Chemscore.Internal.Correction.Weighted>
   9.000000E+99

> <Gold.Protein.RotatedTorsions>
[ 6907 6896 6895 6894 ] final  -75.66 input  -60.11 | X-H torsion
[ 7974 7965 7964 7962 ] final -137.61 input  175.53 | X-H torsion
[ 8008 7997 7996 7995 ] final  101.60 input   59.86 | X-H torsion
[ 10167 10162 10161 10158 ] final -110.94 input  -65.29 | X-H torsion
[ 10718 10713 10712 10709 ] final  -86.35 input   66.30 | X-H torsion
[ 10763 10752 10751 10750 ] final  -72.08 input  -60.55 | X-H torsion
[ 11005 11000 10999 10996 ] final  171.64 input  -57.11 | X-H torsion

> <Gold.Protein.ActiveResidues>
 VAL166  LYS551  ARG553  GLY616  TRP617  ASP618  TYR619  PRO620  LYS621  CYS622 
 ASP623  PHE694  ASN695  SER759  ASP760  ASP761  ALA762  ILE779  LEU786  VAL792 
 PHE793  MET794  SER795  GLU796  ALA797  LYS798  CYS799  TRP800  GLU811  SER814 

> <Gold.Protein.RotatedAtoms>
  150.7052  134.4688  159.5415 H   0  0  0  0  0  0  0  0  0  0  0  0  # atno 6907 bound_to 6896
  152.2348  134.8283  160.0477 H   0  0  0  0  0  0  0  0  0  0  0  0  # atno 6908 bound_to 6896
  151.9086  133.3520  159.3892 H   0  0  0  0  0  0  0  0  0  0  0  0  # atno 6909 bound_to 6896
  144.8827  140.6530  143.5196 H   0  0  0  0  0  0  0  0  0  0  0  0  # atno 7974 bound_to 7965
  156.1314  140.3195  155.8355 H   0  0  0  0  0  0  0  0  0  0  0  0  # atno 8008 bound_to 7997
  155.4324  140.0519  157.3034 H   0  0  0  0  0  0  0  0  0  0  0  0  # atno 8009 bound_to 7997
  154.4903  140.2089  155.9577 H   0  0  0  0  0  0  0  0  0  0  0  0  # atno 8010 bound_to 7997
  140.1390  143.4296  152.1575 H   0  0  0  0  0  0  0  0  0  0  0  0  # atno 10167 bound_to 10162
  155.9990  130.4762  150.4701 H   0  0  0  0  0  0  0  0  0  0  0  0  # atno 10718 bound_to 10713
  154.4406  135.5941  153.6127 H   0  0  0  0  0  0  0  0  0  0  0  0  # atno 10763 bound_to 10752
  152.9805  135.5997  154.3726 H   0  0  0  0  0  0  0  0  0  0  0  0  # atno 10764 bound_to 10752
  154.3576  135.2841  155.2316 H   0  0  0  0  0  0  0  0  0  0  0  0  # atno 10765 bound_to 10752
  140.3212  134.7436  157.4065 H   0  0  0  0  0  0  0  0  0  0  0  0  # atno 11005 bound_to 11000
  145.3925  139.1614  143.4221 LP  0  0  0  0  0  0  0  0  0  0  0  0  # atno 17320 bound_to 7965
  146.3005  140.4015  142.8706 LP  0  0  0  0  0  0  0  0  0  0  0  0  # atno 17321 bound_to 7965
  139.5481  144.7316  151.4518 LP  0  0  0  0  0  0  0  0  0  0  0  0  # atno 17342 bound_to 10162
  140.6772  143.8163  150.7074 LP  0  0  0  0  0  0  0  0  0  0  0  0  # atno 17343 bound_to 10162
  157.2717  131.0588  151.2255 LP  0  0  0  0  0  0  0  0  0  0  0  0  # atno 17370 bound_to 10713
  157.3333  130.6996  149.6338 LP  0  0  0  0  0  0  0  0  0  0  0  0  # atno 17371 bound_to 10713
  140.0941  134.5562  155.8416 LP  0  0  0  0  0  0  0  0  0  0  0  0  # atno 17394 bound_to 11000
  141.2086  133.6675  156.6383 LP  0  0  0  0  0  0  0  0  0  0  0  0  # atno 17395 bound_to 11000

$$$$
