AV-unprocessed.smi:2142|AV-procd|sdf|8721|dock1
  -GOLD-   2272011483D 1   1.00000     0.00000
 Structure written by MMmdl.
 39 40  0  0  0  0  0  0  0  0  2 V2000
  151.4274  144.6467  158.9105 C   0  0  0  0  0  0  0  0  0  0  0  0
  150.6525  143.4730  158.7393 O   0  0  0  0  0  0  0  0  0  0  0  0
  151.2438  142.5599  157.8298 C   0  0  0  0  0  0  0  0  0  0  0  0
  150.1585  141.6462  157.2522 C   0  0  0  0  0  0  0  0  0  0  0  0
  150.5192  141.2835  155.9226 O   0  0  0  0  0  0  0  0  0  0  0  0
  150.7294  139.9493  155.6387 C   0  0  0  0  0  0  0  0  0  0  0  0
  150.6479  139.0158  156.6893 C   0  0  0  0  0  0  0  0  0  0  0  0
  150.8702  137.6556  156.4032 C   0  0  0  0  0  0  0  0  0  0  0  0
  151.1712  137.2565  155.0824 C   0  0  0  0  0  0  0  0  0  0  0  0
  151.3911  135.9697  154.7696 N   0  5  0  0  0  0  0  0  0  0  0  0
  150.9297  134.9762  155.5763 C   0  0  0  0  0  0  0  0  0  0  0  0
  151.0931  134.9424  156.7985 O   0  0  0  0  0  0  0  0  0  0  0  0
  150.1803  133.8315  154.9835 C   0  0  0  0  0  0  0  0  0  0  0  0
  150.6116  132.6220  155.1624 N   0  0  0  0  0  0  0  0  0  0  0  0
  149.9492  131.5221  154.6577 N   0  0  0  0  0  0  0  0  0  0  0  0
  150.4110  130.2370  155.1781 C   0  0  0  0  0  0  0  0  0  0  0  0
  148.9620  131.5759  153.7300 C   0  0  0  0  0  0  0  0  0  0  0  0
  148.3698  130.5849  153.3022 O   0  0  0  0  0  0  0  0  0  0  0  0
  148.6133  132.9630  153.1846 C   0  0  0  0  0  0  0  0  0  0  0  0
  148.8994  134.0805  154.2068 C   0  0  0  0  0  0  0  0  0  0  0  0
  151.2191  138.2769  154.1055 C   0  0  0  0  0  0  0  0  0  0  0  0
  151.0085  139.5853  154.3639 N   0  0  0  0  0  0  0  0  0  0  0  0
  150.9346  145.3107  159.6208 H   0  0  0  0  0  0  0  0  0  0  0  0
  151.5411  145.1852  157.9688 H   0  0  0  0  0  0  0  0  0  0  0  0
  152.4183  144.4115  159.3013 H   0  0  0  0  0  0  0  0  0  0  0  0
  151.7158  143.1174  157.0195 H   0  0  0  0  0  0  0  0  0  0  0  0
  152.0210  141.9689  158.3170 H   0  0  0  0  0  0  0  0  0  0  0  0
  150.0298  140.7658  157.8838 H   0  0  0  0  0  0  0  0  0  0  0  0
  149.2116  142.1883  157.2346 H   0  0  0  0  0  0  0  0  0  0  0  0
  150.4222  139.3356  157.6957 H   0  0  0  0  0  0  0  0  0  0  0  0
  150.8144  136.9241  157.1964 H   0  0  0  0  0  0  0  0  0  0  0  0
  150.7890  129.6084  154.3706 H   0  0  0  0  0  0  0  0  0  0  0  0
  149.5949  129.7073  155.6712 H   0  0  0  0  0  0  0  0  0  0  0  0
  151.2140  130.3558  155.9074 H   0  0  0  0  0  0  0  0  0  0  0  0
  149.2154  133.1226  152.2893 H   0  0  0  0  0  0  0  0  0  0  0  0
  147.5692  132.9929  152.8714 H   0  0  0  0  0  0  0  0  0  0  0  0
  148.0671  134.1685  154.9059 H   0  0  0  0  0  0  0  0  0  0  0  0
  148.9504  135.0271  153.6678 H   0  0  0  0  0  0  0  0  0  0  0  0
  151.4396  138.0355  153.0758 H   0  0  0  0  0  0  0  0  0  0  0  0
  1  2  1  0  0  0  0
  1 23  1  0  0  0  0
  1 24  1  0  0  0  0
  1 25  1  0  0  0  0
  2  3  1  0  0  0  0
  3  4  1  0  0  0  0
  3 26  1  0  0  0  0
  3 27  1  0  0  0  0
  4  5  1  0  0  0  0
  4 28  1  0  0  0  0
  4 29  1  0  0  0  0
  5  6  1  0  0  0  0
  6 22  1  0  0  0  0
  6  7  2  0  0  0  0
  7  8  1  0  0  0  0
  7 30  1  0  0  0  0
  8  9  2  0  0  0  0
  8 31  1  0  0  0  0
  9 10  1  0  0  0  0
  9 21  1  0  0  0  0
 10 11  1  0  0  0  0
 11 12  2  0  0  0  0
 11 13  1  0  0  0  0
 13 20  1  0  0  0  0
 13 14  2  0  0  0  0
 14 15  1  0  0  0  0
 15 16  1  0  0  0  0
 15 17  1  0  0  0  0
 16 32  1  0  0  0  0
 16 33  1  0  0  0  0
 16 34  1  0  0  0  0
 17 18  2  0  0  0  0
 17 19  1  0  0  0  0
 19 20  1  0  0  0  0
 19 35  1  0  0  0  0
 19 36  1  0  0  0  0
 20 37  1  0  0  0  0
 20 38  1  0  0  0  0
 21 22  2  0  0  0  0
 21 39  1  0  0  0  0
M  CHG  1  10  -1
M  END
> <s_m_source_file>
AV-unprocessed.smi

> <i_m_source_file_index>
2142

> <i_lp_mmshare_version>
43012

> <i_f3d_flags>
0

> <s_epik_input>
W0NIM11PW0NIMl1bQ0gyXU9jMVtjSF1bY0hdYyhbY0hdbjEpW05IXUMoPU8pQzI9Tk4oW0NIM10pQyg9TylbQ0gyXVtDSDJdMg==

> <s_epik_cmdline>
J2VwaWtfcHl0aG9uJywgJy1waCcsICc3LjAnLCAnLXRuJywgJzgnLCAnLW1hJywgJzIwMCcsICctbWV0YWxfYmluZGluZycsICctaW1hZScsICc8aW5maWxlLm1hZT4nLCAnLW9tYWUnLCAnPG91dGZpbGUubWFlPic=

> <r_lp_tautomer_probability>
1

> <r_epik_Ionization_Penalty>
5.98992

> <r_epik_Ionization_Penalty_Charging>
5.98968

> <r_epik_Ionization_Penalty_Neutral>
0.000245408

> <r_epik_State_Penalty>
5.98965

> <r_epik_Charging_Adjusted_Penalty>
11.9793

> <i_epik_Tot_Q>
-1

> <i_epik_Tot_abs_Q>
1

> <r_epik_Metal_State_Penalty>
1.94325

> <b_epik_Metal_Only>
1

> <s_epik_Chemistry_Notes>
This compound has an imine and may undergo hydrolysis.

> <s_lp_Force_Field>
OPLS_2005

> <r_lp_Energy>
19.7207

> <b_lp_Chiralities_Consistent>
1

> <s_lp_Variant>
AV-unprocessed.smi:2142-2

> <Gold.Version>
5.8.1

> <Gold.Id.Protein>
6NUR|6NUR_protein|mol2

> <Gold.PLP.Fitness>
43.8160

> <Gold.PLP.PLP>
-36.0923

> <Gold.PLP.part.hbond>
-2.4357

> <Gold.PLP.part.metal>
0.0000

> <Gold.PLP.part.buried>
-5.4091

> <Gold.PLP.part.nonpolar>
-28.5404

> <Gold.PLP.part.repulsive>
0.5480

> <Gold.PLP.ligand.clash>
0.5782

> <Gold.PLP.ligand.torsion>
2.3170

> <Gold.PLP.Chemscore.Hbond>
3.0000

> <Gold.PLP.Chemscore.CHOScore>
0.9734

> <Gold.PLP.Chemscore.Metal>
0.0000

> <Gold.Chemscore.Hbonds>
donor molecule, donor type, donor heavy atom, donor atom, acceptor molecule, acceptor atom, score
      P1  H  7989  7998       L1    22  1.00
      P1  H 10752 10764       L1    10  1.80
      L1  C    21    39       P1  7949  0.83

> <Gold.PLP.Chemscore.Internal.Correction>
1.0155

> <Gold.Rescore>
     Score         DG    S(hbond)    S(metal)    S(lipo)     H(rot)  DE(clash)    DE(int)     intcor
     13.29     -17.07       2.36        0.00      69.15       1.71       0.00       3.77       ----

> <Gold.Chemscore.Fitness>
13.2916

> <Gold.Chemscore.DG>
-17.0659

> <Gold.Chemscore.ZeroCoef>
-5.4800

> <Gold.Chemscore.Hbond>
2.3560

> <Gold.Chemscore.Metal>
0.0000

> <Gold.Chemscore.Lipo>
69.1528

> <Gold.Chemscore.Internal_Hbond>
0.0000

> <Gold.Chemscore.DEClash>
0.0009

> <Gold.Chemscore.DEInternal>
3.7734

> <Gold.Chemscore.Rot>
1.7087

> <Gold.Chemscore.Internal.Correction>
   9.000000E+99

> <Gold.Chemscore.Hbonds>
donor molecule, donor type, donor heavy atom, donor atom, acceptor molecule, acceptor atom, score
      P1  H  7989  7998       L1    22  0.82
      P1  H 10752 10764       L1    10  0.16

> <Gold.Chemscore.Hbond.Weighted>
-7.8692

> <Gold.Chemscore.Metal.Weighted>
-0.0000

> <Gold.Chemscore.Lipo.Weighted>
-8.0909

> <Gold.Chemscore.Internal_Hbond.Weighted>
0.0000

> <Gold.Chemscore.DEClash.Weighted>
0.0009

> <Gold.Chemscore.DEInternal.Weighted>
3.7734

> <Gold.Chemscore.Rot.Weighted>
4.3742

> <Gold.Chemscore.Internal.Correction.Weighted>
   9.000000E+99

> <Gold.Protein.RotatedTorsions>
[ 6907 6896 6895 6894 ] final  175.53 input  -60.11 | X-H torsion
[ 7974 7965 7964 7962 ] final  167.09 input  175.53 | X-H torsion
[ 8008 7997 7996 7995 ] final -112.85 input   59.86 | X-H torsion
[ 10167 10162 10161 10158 ] final -120.62 input  -65.29 | X-H torsion
[ 10718 10713 10712 10709 ] final -126.24 input   66.30 | X-H torsion
[ 10763 10752 10751 10750 ] final  -49.14 input  -60.55 | X-H torsion
[ 11005 11000 10999 10996 ] final  107.28 input  -57.11 | X-H torsion

> <Gold.Protein.ActiveResidues>
 VAL166  LYS551  ARG553  GLY616  TRP617  ASP618  TYR619  PRO620  LYS621  CYS622 
 ASP623  PHE694  ASN695  SER759  ASP760  ASP761  ALA762  ILE779  LEU786  VAL792 
 PHE793  MET794  SER795  GLU796  ALA797  LYS798  CYS799  TRP800  GLU811  SER814 

> <Gold.Protein.RotatedAtoms>
  151.7348  133.3319  159.3349 H   0  0  0  0  0  0  0  0  0  0  0  0  # atno 6907 bound_to 6896
  150.7597  134.6331  159.6206 H   0  0  0  0  0  0  0  0  0  0  0  0  # atno 6908 bound_to 6896
  152.3568  134.6930  160.0271 H   0  0  0  0  0  0  0  0  0  0  0  0  # atno 6909 bound_to 6896
  144.7437  139.8711  143.6389 H   0  0  0  0  0  0  0  0  0  0  0  0  # atno 7974 bound_to 7965
  155.0117  140.0393  157.2402 H   0  0  0  0  0  0  0  0  0  0  0  0  # atno 8008 bound_to 7997
  154.7455  140.2757  155.6314 H   0  0  0  0  0  0  0  0  0  0  0  0  # atno 8009 bound_to 7997
  156.2874  140.2657  156.2194 H   0  0  0  0  0  0  0  0  0  0  0  0  # atno 8010 bound_to 7997
  140.0339  143.5220  152.2163 H   0  0  0  0  0  0  0  0  0  0  0  0  # atno 10167 bound_to 10162
  156.1747  130.6692  151.0227 H   0  0  0  0  0  0  0  0  0  0  0  0  # atno 10718 bound_to 10713
  154.0893  135.6579  153.4850 H   0  0  0  0  0  0  0  0  0  0  0  0  # atno 10763 bound_to 10752
  153.0327  135.5198  154.7396 H   0  0  0  0  0  0  0  0  0  0  0  0  # atno 10764 bound_to 10752
  154.6515  135.3002  154.9949 H   0  0  0  0  0  0  0  0  0  0  0  0  # atno 10765 bound_to 10752
  139.8826  134.9396  156.5795 H   0  0  0  0  0  0  0  0  0  0  0  0  # atno 11005 bound_to 11000
  146.1280  139.4309  143.0187 LP  0  0  0  0  0  0  0  0  0  0  0  0  # atno 17320 bound_to 7965
  145.7206  141.0076  143.1404 LP  0  0  0  0  0  0  0  0  0  0  0  0  # atno 17321 bound_to 7965
  139.6058  144.7595  151.3066 LP  0  0  0  0  0  0  0  0  0  0  0  0  # atno 17342 bound_to 10162
  140.7290  143.6920  150.7914 LP  0  0  0  0  0  0  0  0  0  0  0  0  # atno 17343 bound_to 10162
  157.6827  131.0833  150.7325 LP  0  0  0  0  0  0  0  0  0  0  0  0  # atno 17370 bound_to 10713
  156.7383  130.4731  149.5483 LP  0  0  0  0  0  0  0  0  0  0  0  0  # atno 17371 bound_to 10713
  140.8037  133.8484  155.8749 LP  0  0  0  0  0  0  0  0  0  0  0  0  # atno 17394 bound_to 11000
  140.9569  134.1706  157.4685 LP  0  0  0  0  0  0  0  0  0  0  0  0  # atno 17395 bound_to 11000

$$$$
