AV-unprocessed.smi:227|AV-procd|sdf|1736|dock10
  -GOLD-   2262020233D 1   1.00000     0.00000
 Structure written by MMmdl.
 54 58  0  0  0  0  0  0  0  0  1 V2000
  148.0035  138.5778  152.6332 O   0  0  0  0  0  0  0  0  0  0  0  0
  147.3633  139.5775  153.3997 C   0  0  0  0  0  0  0  0  0  0  0  0
  147.5356  139.3361  154.9221 C   0  0  1  0  0  0  0  0  0  0  0  0
  146.9490  137.9727  155.3747 C   0  0  0  0  0  0  0  0  0  0  0  0
  147.0336  137.7454  156.8064 N   0  0  0  0  0  0  0  0  0  0  0  0
  146.5968  138.5927  157.7966 C   0  0  0  0  0  0  0  0  0  0  0  0
  146.7785  138.1607  159.0139 N   0  0  0  0  0  0  0  0  0  0  0  0
  147.3818  136.9168  158.8573 C   0  0  0  0  0  0  0  0  0  0  0  0
  147.8367  135.8994  159.7497 C   0  0  0  0  0  0  0  0  0  0  0  0
  147.7614  135.9538  161.1092 N   0  0  0  0  0  0  0  0  0  0  0  0
  147.2170  137.1095  161.8074 C   0  0  2  0  0  0  0  0  0  0  0  0
  147.5174  136.7763  163.2790 C   0  0  0  0  0  0  0  0  0  0  0  0
  147.3448  135.2509  163.2842 C   0  0  0  0  0  0  0  0  0  0  0  0
  146.9352  134.9883  161.8228 C   0  0  1  0  0  0  0  0  0  0  0  0
  145.4930  135.4816  161.5366 C   0  0  1  0  0  0  0  0  0  0  0  0
  144.3892  134.9373  162.4620 C   0  0  0  0  0  0  0  0  0  0  0  0
  144.4221  133.5262  162.4703 O   0  0  0  0  0  0  0  0  0  0  0  0
  145.6948  137.0088  161.5771 C   0  0  0  0  0  0  0  0  0  0  0  0
  148.4066  134.7977  159.1931 N   0  0  0  0  0  0  0  0  0  0  0  0
  148.5122  134.6802  157.8673 C   0  0  0  0  0  0  0  0  0  0  0  0
  148.1236  135.5355  156.9218 N   0  0  0  0  0  0  0  0  0  0  0  0
  147.5604  136.6503  157.4681 C   0  0  0  0  0  0  0  0  0  0  0  0
  149.0255  139.4512  155.3369 C   0  0  1  0  0  0  0  0  0  0  0  0
  149.8839  138.2340  154.9901 C   0  0  0  0  0  0  0  0  0  0  0  0
  151.2437  138.8106  154.5839 C   0  0  0  0  0  0  0  0  0  0  0  0
  151.1543  140.2028  154.8423 O   0  0  0  0  0  0  0  0  0  0  0  0
  149.8026  140.5801  154.6543 C   0  0  0  0  0  0  0  0  0  0  0  0
  148.5505  138.9988  151.9875 H   0  0  0  0  0  0  0  0  0  0  0  0
  147.7458  140.5589  153.1175 H   0  0  0  0  0  0  0  0  0  0  0  0
  146.3138  139.5600  153.1091 H   0  0  0  0  0  0  0  0  0  0  0  0
  146.9965  140.1247  155.4498 H   0  0  0  0  0  0  0  0  0  0  0  0
  145.9042  137.8939  155.0711 H   0  0  0  0  0  0  0  0  0  0  0  0
  147.4710  137.1488  154.8885 H   0  0  0  0  0  0  0  0  0  0  0  0
  146.1320  139.5447  157.5855 H   0  0  0  0  0  0  0  0  0  0  0  0
  147.6388  138.0729  161.5276 H   0  0  0  0  0  0  0  0  0  0  0  0
  148.5414  137.0460  163.5404 H   0  0  0  0  0  0  0  0  0  0  0  0
  146.8455  137.2830  163.9726 H   0  0  0  0  0  0  0  0  0  0  0  0
  148.2973  134.7667  163.5034 H   0  0  0  0  0  0  0  0  0  0  0  0
  146.6233  134.8985  164.0199 H   0  0  0  0  0  0  0  0  0  0  0  0
  147.0955  133.9490  161.5343 H   0  0  0  0  0  0  0  0  0  0  0  0
  145.2422  135.1918  160.5144 H   0  0  0  0  0  0  0  0  0  0  0  0
  144.5386  135.2938  163.4814 H   0  0  0  0  0  0  0  0  0  0  0  0
  143.3983  135.2594  162.1430 H   0  0  0  0  0  0  0  0  0  0  0  0
  145.2732  133.2444  162.1715 H   0  0  0  0  0  0  0  0  0  0  0  0
  145.1238  137.5019  162.3648 H   0  0  0  0  0  0  0  0  0  0  0  0
  145.4085  137.4584  160.6255 H   0  0  0  0  0  0  0  0  0  0  0  0
  148.9731  133.7697  157.5139 H   0  0  0  0  0  0  0  0  0  0  0  0
  149.0851  139.6126  156.4145 H   0  0  0  0  0  0  0  0  0  0  0  0
  149.9727  137.5609  155.8436 H   0  0  0  0  0  0  0  0  0  0  0  0
  149.4626  137.6638  154.1610 H   0  0  0  0  0  0  0  0  0  0  0  0
  152.0698  138.3654  155.1387 H   0  0  0  0  0  0  0  0  0  0  0  0
  151.4245  138.6532  153.5196 H   0  0  0  0  0  0  0  0  0  0  0  0
  149.5805  140.6301  153.5866 H   0  0  0  0  0  0  0  0  0  0  0  0
  149.6066  141.5576  155.0951 H   0  0  0  0  0  0  0  0  0  0  0  0
  1  2  1  0  0  0  0
  1 28  1  0  0  0  0
  2  3  1  0  0  0  0
  2 29  1  0  0  0  0
  2 30  1  0  0  0  0
  3  4  1  0  0  0  0
  3 23  1  0  0  0  0
  3 31  1  0  0  0  0
  4  5  1  0  0  0  0
  4 32  1  0  0  0  0
  4 33  1  0  0  0  0
  5 22  1  0  0  0  0
  5  6  1  0  0  0  0
  6  7  2  0  0  0  0
  6 34  1  0  0  0  0
  7  8  1  0  0  0  0
  8 22  2  0  0  0  0
  8  9  1  0  0  0  0
  9 10  1  0  0  0  0
  9 19  2  0  0  0  0
 10 14  1  0  0  0  0
 10 11  1  0  0  0  0
 11 18  1  0  0  0  0
 11 12  1  0  0  0  0
 11 35  1  0  0  0  0
 12 13  1  0  0  0  0
 12 36  1  0  0  0  0
 12 37  1  0  0  0  0
 13 14  1  0  0  0  0
 13 38  1  0  0  0  0
 13 39  1  0  0  0  0
 14 15  1  0  0  0  0
 14 40  1  0  0  0  0
 15 16  1  0  0  0  0
 15 18  1  0  0  0  0
 15 41  1  0  0  0  0
 16 17  1  0  0  0  0
 16 42  1  0  0  0  0
 16 43  1  0  0  0  0
 17 44  1  0  0  0  0
 18 45  1  0  0  0  0
 18 46  1  0  0  0  0
 19 20  1  0  0  0  0
 20 21  2  0  0  0  0
 20 47  1  0  0  0  0
 21 22  1  0  0  0  0
 23 27  1  0  0  0  0
 23 24  1  0  0  0  0
 23 48  1  0  0  0  0
 24 25  1  0  0  0  0
 24 49  1  0  0  0  0
 24 50  1  0  0  0  0
 25 26  1  0  0  0  0
 25 51  1  0  0  0  0
 25 52  1  0  0  0  0
 26 27  1  0  0  0  0
 27 53  1  0  0  0  0
 27 54  1  0  0  0  0
M  END
> <s_m_source_file>
AV-unprocessed.smi

> <i_m_source_file_index>
227

> <i_lp_mmshare_version>
43012

> <i_f3d_flags>
0

> <s_epik_input>
W0NIMl0xT1tDSDJdW0NIMl1bQ0BIXTFbQ0BIXShbQ0gyXVtPSF0pW0NIMl1uKFtjSF1uMiljKGMyMyluW2NIXW5jM04oW0NASF00NSlbQ0BASF0oW0NIMl1bQ0gyXTQpW0NASF0oW0NIMl01KVtDSDJdW09IXQ==

> <s_epik_cmdline>
J2VwaWtfcHl0aG9uJywgJy1waCcsICc3LjAnLCAnLXRuJywgJzgnLCAnLW1hJywgJzIwMCcsICctbWV0YWxfYmluZGluZycsICctaW1hZScsICc8aW5maWxlLm1hZT4nLCAnLW9tYWUnLCAnPG91dGZpbGUubWFlPic=

> <r_lp_tautomer_probability>
1

> <r_epik_Ionization_Penalty>
0.0055791

> <r_epik_Ionization_Penalty_Charging>
0

> <r_epik_Ionization_Penalty_Neutral>
0.0055791

> <r_epik_State_Penalty>
0.00401299

> <r_epik_Charging_Adjusted_Penalty>
0.00401299

> <i_epik_Tot_Q>
0

> <i_epik_Tot_abs_Q>
0

> <r_epik_Metal_State_Penalty>
-0

> <b_epik_Metal_Only>
0

> <s_lp_Force_Field>
OPLS_2005

> <r_lp_Energy>
88.8293

> <b_lp_Chiralities_Consistent>
1

> <s_lp_Variant>
AV-unprocessed.smi:227-10

> <Gold.Version>
5.8.1

> <Gold.Id.Protein>
6NUR|6NUR_protein|mol2

> <Gold.PLP.Fitness>
45.6184

> <Gold.PLP.PLP>
-37.7421

> <Gold.PLP.part.hbond>
-4.9428

> <Gold.PLP.part.metal>
0.0000

> <Gold.PLP.part.buried>
-6.4323

> <Gold.PLP.part.nonpolar>
-26.2199

> <Gold.PLP.part.repulsive>
0.0770

> <Gold.PLP.ligand.clash>
0.0000

> <Gold.PLP.ligand.torsion>
0.3676

> <Gold.PLP.Chemscore.Hbond>
2.8418

> <Gold.PLP.Chemscore.CHOScore>
0.0000

> <Gold.PLP.Chemscore.Metal>
0.0000

> <Gold.Chemscore.Hbonds>
donor molecule, donor type, donor heavy atom, donor atom, acceptor molecule, acceptor atom, score
      L1  H     1    28       P1  7957  1.00
      P1  H  6896  6907       L1    19  0.21
      P1  H  6934  6947       L1     7  0.42
      P1  H  7989  7998       L1    26  0.70

> <Gold.PLP.Chemscore.Internal.Correction>
0.0862

> <Gold.Rescore>
     Score         DG    S(hbond)    S(metal)    S(lipo)     H(rot)  DE(clash)    DE(int)     intcor
     10.56     -14.33       2.25        0.00      90.32       3.61       0.23       3.55       ----

> <Gold.Chemscore.Fitness>
10.5591

> <Gold.Chemscore.DG>
-14.3333

> <Gold.Chemscore.ZeroCoef>
-5.4800

> <Gold.Chemscore.Hbond>
2.2514

> <Gold.Chemscore.Metal>
0.0000

> <Gold.Chemscore.Lipo>
90.3246

> <Gold.Chemscore.Internal_Hbond>
0.0000

> <Gold.Chemscore.DEClash>
0.2279

> <Gold.Chemscore.DEInternal>
3.5463

> <Gold.Chemscore.Rot>
3.6071

> <Gold.Chemscore.Internal.Correction>
   9.000000E+99

> <Gold.Chemscore.Hbonds>
donor molecule, donor type, donor heavy atom, donor atom, acceptor molecule, acceptor atom, score
      L1  H     1    28       P1  7957  0.96
      P1  H  6896  6907       L1    19  0.01
      P1  H  6934  6947       L1     7  0.35
      P1  H  7989  7998       L1    26  0.03

> <Gold.Chemscore.Hbond.Weighted>
-7.5195

> <Gold.Chemscore.Metal.Weighted>
-0.0000

> <Gold.Chemscore.Lipo.Weighted>
-10.5680

> <Gold.Chemscore.Internal_Hbond.Weighted>
0.0000

> <Gold.Chemscore.DEClash.Weighted>
0.2279

> <Gold.Chemscore.DEInternal.Weighted>
3.5463

> <Gold.Chemscore.Rot.Weighted>
9.2342

> <Gold.Chemscore.Internal.Correction.Weighted>
   9.000000E+99

> <Gold.Protein.RotatedTorsions>
[ 6907 6896 6895 6894 ] final  -86.52 input  -60.11 | X-H torsion
[ 7974 7965 7964 7962 ] final   54.10 input  175.53 | X-H torsion
[ 8008 7997 7996 7995 ] final  -51.93 input   59.86 | X-H torsion
[ 10167 10162 10161 10158 ] final   46.89 input  -65.29 | X-H torsion
[ 10718 10713 10712 10709 ] final   -4.24 input   66.30 | X-H torsion
[ 10763 10752 10751 10750 ] final -173.20 input  -60.55 | X-H torsion
[ 11005 11000 10999 10996 ] final  -69.84 input  -57.11 | X-H torsion

> <Gold.Protein.ActiveResidues>
 VAL166  LYS551  ARG553  GLY616  TRP617  ASP618  TYR619  PRO620  LYS621  CYS622 
 ASP623  PHE694  ASN695  SER759  ASP760  ASP761  ALA762  ILE779  LEU786  VAL792 
 PHE793  MET794  SER795  GLU796  ALA797  LYS798  CYS799  TRP800  GLU811  SER814 

> <Gold.Protein.RotatedAtoms>
  150.6867  134.3037  159.4716 H   0  0  0  0  0  0  0  0  0  0  0  0  # atno 6907 bound_to 6896
  152.0930  134.9391  160.0580 H   0  0  0  0  0  0  0  0  0  0  0  0  # atno 6908 bound_to 6896
  152.0700  133.4067  159.4492 H   0  0  0  0  0  0  0  0  0  0  0  0  # atno 6909 bound_to 6896
  145.9643  139.4088  143.0229 H   0  0  0  0  0  0  0  0  0  0  0  0  # atno 7974 bound_to 7965
  154.4094  140.1236  156.4910 H   0  0  0  0  0  0  0  0  0  0  0  0  # atno 8008 bound_to 7997
  155.6990  140.3495  155.4906 H   0  0  0  0  0  0  0  0  0  0  0  0  # atno 8009 bound_to 7997
  155.9402  140.1085  157.1052 H   0  0  0  0  0  0  0  0  0  0  0  0  # atno 8010 bound_to 7997
  140.3092  144.2841  150.6203 H   0  0  0  0  0  0  0  0  0  0  0  0  # atno 10167 bound_to 10162
  156.7642  130.5279  149.5779 H   0  0  0  0  0  0  0  0  0  0  0  0  # atno 10718 bound_to 10713
  154.6105  135.2864  155.0437 H   0  0  0  0  0  0  0  0  0  0  0  0  # atno 10763 bound_to 10752
  154.1668  135.6479  153.5003 H   0  0  0  0  0  0  0  0  0  0  0  0  # atno 10764 bound_to 10752
  153.0193  135.5391  154.6857 H   0  0  0  0  0  0  0  0  0  0  0  0  # atno 10765 bound_to 10752
  141.1562  133.6774  156.6661 H   0  0  0  0  0  0  0  0  0  0  0  0  # atno 11005 bound_to 11000
  145.7996  140.9777  143.1006 LP  0  0  0  0  0  0  0  0  0  0  0  0  # atno 17320 bound_to 7965
  144.6822  139.9784  143.7483 LP  0  0  0  0  0  0  0  0  0  0  0  0  # atno 17321 bound_to 7965
  140.5583  143.2196  151.7809 LP  0  0  0  0  0  0  0  0  0  0  0  0  # atno 17342 bound_to 10162
  139.4897  144.4384  151.9793 LP  0  0  0  0  0  0  0  0  0  0  0  0  # atno 17343 bound_to 10162
  156.1319  130.6184  151.0346 LP  0  0  0  0  0  0  0  0  0  0  0  0  # atno 17370 bound_to 10713
  157.6721  131.0859  150.7587 LP  0  0  0  0  0  0  0  0  0  0  0  0  # atno 17371 bound_to 10713
  140.3210  134.8007  157.4252 LP  0  0  0  0  0  0  0  0  0  0  0  0  # atno 17394 bound_to 11000
  140.1097  134.5362  155.8277 LP  0  0  0  0  0  0  0  0  0  0  0  0  # atno 17395 bound_to 11000

$$$$
