AV-unprocessed.smi:1720|AV-procd|sdf|6931|dock5
  -GOLD-   22720 8143D 1   1.00000     0.00000
 Structure written by MMmdl.
 32 33  0  0  0  0  0  0  0  0  1 V2000
  151.6154  144.9051  158.3226 C   0  0  0  0  0  0  0  0  0  0  0  0
  151.8763  143.4715  157.8356 C   0  0  2  0  0  0  0  0  0  0  0  0
  150.8094  143.0949  156.9105 N   0  0  0  0  0  0  0  0  0  0  0  0
  150.6990  141.9144  156.2841 C   0  0  0  0  0  0  0  0  0  0  0  0
  151.5049  140.9928  156.4140 O   0  0  0  0  0  0  0  0  0  0  0  0
  149.6035  141.8768  155.5080 N   0  0  0  0  0  0  0  0  0  0  0  0
  149.1525  140.7976  154.7066 C   0  0  0  0  0  0  0  0  0  0  0  0
  147.9033  140.7591  154.0294 C   0  0  0  0  0  0  0  0  0  0  0  0
  147.7518  139.6263  153.3581 N   0  0  0  0  0  0  0  0  0  0  0  0
  148.8925  138.9417  153.6001 N   0  0  0  0  0  0  0  0  0  0  0  0
  149.7743  139.6157  154.4159 C   0  0  0  0  0  0  0  0  0  0  0  0
  151.9436  142.4615  159.0002 C   0  0  2  0  0  0  0  0  0  0  0  0
  152.7530  142.9322  160.2093 C   0  0  0  0  0  0  0  0  0  0  0  0
  153.1811  141.6368  160.8803 C   0  0  0  0  0  0  0  0  0  0  0  0
  152.9627  140.5699  159.8043 C   0  0  0  0  0  0  0  0  0  0  0  0
  152.6528  141.2918  158.6207 O   0  0  0  0  0  0  0  0  0  0  0  0
  149.0528  138.0256  153.2060 H   0  0  0  0  0  0  0  0  0  0  0  0
  152.4195  145.2587  158.9681 H   0  0  0  0  0  0  0  0  0  0  0  0
  150.6836  144.9704  158.8855 H   0  0  0  0  0  0  0  0  0  0  0  0
  151.5471  145.5977  157.4831 H   0  0  0  0  0  0  0  0  0  0  0  0
  152.8337  143.4703  157.3114 H   0  0  0  0  0  0  0  0  0  0  0  0
  150.0948  143.7871  156.7415 H   0  0  0  0  0  0  0  0  0  0  0  0
  149.0278  142.7057  155.4934 H   0  0  0  0  0  0  0  0  0  0  0  0
  147.1176  141.4998  154.0034 H   0  0  0  0  0  0  0  0  0  0  0  0
  150.7299  139.2015  154.7019 H   0  0  0  0  0  0  0  0  0  0  0  0
  150.9381  142.1760  159.3162 H   0  0  0  0  0  0  0  0  0  0  0  0
  153.6367  143.4806  159.8802 H   0  0  0  0  0  0  0  0  0  0  0  0
  152.1819  143.5819  160.8733 H   0  0  0  0  0  0  0  0  0  0  0  0
  154.2229  141.6865  161.1982 H   0  0  0  0  0  0  0  0  0  0  0  0
  152.5712  141.4236  161.7587 H   0  0  0  0  0  0  0  0  0  0  0  0
  153.8384  139.9374  159.6578 H   0  0  0  0  0  0  0  0  0  0  0  0
  152.1196  139.9287  160.0651 H   0  0  0  0  0  0  0  0  0  0  0  0
  1  2  1  0  0  0  0
  1 18  1  0  0  0  0
  1 19  1  0  0  0  0
  1 20  1  0  0  0  0
  2  3  1  0  0  0  0
  2 12  1  0  0  0  0
  2 21  1  0  0  0  0
  3  4  1  0  0  0  0
  3 22  1  0  0  0  0
  4  5  2  0  0  0  0
  4  6  1  0  0  0  0
  6  7  1  0  0  0  0
  6 23  1  0  0  0  0
  7 11  2  0  0  0  0
  7  8  1  0  0  0  0
  8  9  2  0  0  0  0
  8 24  1  0  0  0  0
  9 10  1  0  0  0  0
 10 17  1  0  0  0  0
 10 11  1  0  0  0  0
 11 25  1  0  0  0  0
 12 16  1  0  0  0  0
 12 13  1  0  0  0  0
 12 26  1  0  0  0  0
 13 14  1  0  0  0  0
 13 27  1  0  0  0  0
 13 28  1  0  0  0  0
 14 15  1  0  0  0  0
 14 29  1  0  0  0  0
 14 30  1  0  0  0  0
 15 16  1  0  0  0  0
 15 31  1  0  0  0  0
 15 32  1  0  0  0  0
M  END
> <s_m_source_file>
AV-unprocessed.smi

> <i_m_source_file_index>
1720

> <i_lp_mmshare_version>
43012

> <i_f3d_flags>
0

> <s_epik_input>
TzFbQ0gyXVtDSDJdW0NIMl1bQ0BIXTFbQ0BIXShbQ0gzXSlbTkhdQyg9TylbTkhdYzJbY0hdbltuSF1bY0hdMg==

> <s_epik_cmdline>
J2VwaWtfcHl0aG9uJywgJy1waCcsICc3LjAnLCAnLXRuJywgJzgnLCAnLW1hJywgJzIwMCcsICctbWV0YWxfYmluZGluZycsICctaW1hZScsICc8aW5maWxlLm1hZT4nLCAnLW9tYWUnLCAnPG91dGZpbGUubWFlPic=

> <r_lp_tautomer_probability>
1

> <r_epik_Ionization_Penalty>
4.95841e-05

> <r_epik_Ionization_Penalty_Charging>
0

> <r_epik_Ionization_Penalty_Neutral>
4.95841e-05

> <r_epik_State_Penalty>
-0

> <r_epik_Charging_Adjusted_Penalty>
0

> <i_epik_Tot_Q>
0

> <i_epik_Tot_abs_Q>
0

> <r_epik_Metal_State_Penalty>
-0

> <b_epik_Metal_Only>
0

> <s_lp_Force_Field>
OPLS_2005

> <r_lp_Energy>
20.531

> <b_lp_Chiralities_Consistent>
1

> <s_lp_Variant>
AV-unprocessed.smi:1720-1

> <Gold.Version>
5.8.1

> <Gold.Id.Protein>
6NUR|6NUR_protein|mol2

> <Gold.PLP.Fitness>
41.4599

> <Gold.PLP.PLP>
-34.4984

> <Gold.PLP.part.hbond>
-3.4633

> <Gold.PLP.part.metal>
0.0000

> <Gold.PLP.part.buried>
-5.3616

> <Gold.PLP.part.nonpolar>
-26.8124

> <Gold.PLP.part.repulsive>
1.9262

> <Gold.PLP.ligand.clash>
0.0000

> <Gold.PLP.ligand.torsion>
0.3469

> <Gold.PLP.Chemscore.Hbond>
2.5445

> <Gold.PLP.Chemscore.CHOScore>
0.0000

> <Gold.PLP.Chemscore.Metal>
0.0000

> <Gold.Chemscore.Hbonds>
donor molecule, donor type, donor heavy atom, donor atom, acceptor molecule, acceptor atom, score
      L1  H     3    22       P1  8028  1.00
      L1  H     6    23       P1  8028  0.99
      L1  H    10    17       P1  7948  0.54

> <Gold.PLP.Chemscore.Internal.Correction>
0.0218

> <Gold.Rescore>
     Score         DG    S(hbond)    S(metal)    S(lipo)     H(rot)  DE(clash)    DE(int)     intcor
     16.17     -20.88       2.58        0.00      86.49       1.31       0.57       4.14       ----

> <Gold.Chemscore.Fitness>
16.1706

> <Gold.Chemscore.DG>
-20.8837

> <Gold.Chemscore.ZeroCoef>
-5.4800

> <Gold.Chemscore.Hbond>
2.5845

> <Gold.Chemscore.Metal>
0.0000

> <Gold.Chemscore.Lipo>
86.4932

> <Gold.Chemscore.Internal_Hbond>
0.0000

> <Gold.Chemscore.DEClash>
0.5743

> <Gold.Chemscore.DEInternal>
4.1387

> <Gold.Chemscore.Rot>
1.3079

> <Gold.Chemscore.Internal.Correction>
   9.000000E+99

> <Gold.Chemscore.Hbonds>
donor molecule, donor type, donor heavy atom, donor atom, acceptor molecule, acceptor atom, score
      L1  H     3    22       P1  8028  0.97
      L1  H     6    23       P1  8028  0.88
      L1  H    10    17       P1  7948  0.54

> <Gold.Chemscore.Hbond.Weighted>
-8.6323

> <Gold.Chemscore.Metal.Weighted>
-0.0000

> <Gold.Chemscore.Lipo.Weighted>
-10.1197

> <Gold.Chemscore.Internal_Hbond.Weighted>
0.0000

> <Gold.Chemscore.DEClash.Weighted>
0.5743

> <Gold.Chemscore.DEInternal.Weighted>
4.1387

> <Gold.Chemscore.Rot.Weighted>
3.3483

> <Gold.Chemscore.Internal.Correction.Weighted>
   9.000000E+99

> <Gold.Protein.RotatedTorsions>
[ 6907 6896 6895 6894 ] final -162.02 input  -60.11 | X-H torsion
[ 7974 7965 7964 7962 ] final  -94.69 input  175.53 | X-H torsion
[ 8008 7997 7996 7995 ] final   23.75 input   59.86 | X-H torsion
[ 10167 10162 10161 10158 ] final -100.29 input  -65.29 | X-H torsion
[ 10718 10713 10712 10709 ] final  167.47 input   66.30 | X-H torsion
[ 10763 10752 10751 10750 ] final  176.00 input  -60.55 | X-H torsion
[ 11005 11000 10999 10996 ] final   64.13 input  -57.11 | X-H torsion

> <Gold.Protein.ActiveResidues>
 VAL166  LYS551  ARG553  GLY616  TRP617  ASP618  TYR619  PRO620  LYS621  CYS622 
 ASP623  PHE694  ASN695  SER759  ASP760  ASP761  ALA762  ILE779  LEU786  VAL792 
 PHE793  MET794  SER795  GLU796  ALA797  LYS798  CYS799  TRP800  GLU811  SER814 

> <Gold.Protein.RotatedAtoms>
  151.3738  133.3845  159.2702 H   0  0  0  0  0  0  0  0  0  0  0  0  # atno 6907 bound_to 6896
  150.9630  134.9016  159.7752 H   0  0  0  0  0  0  0  0  0  0  0  0  # atno 6908 bound_to 6896
  152.5156  134.3698  159.9366 H   0  0  0  0  0  0  0  0  0  0  0  0  # atno 6909 bound_to 6896
  145.3700  140.9504  143.2453 H   0  0  0  0  0  0  0  0  0  0  0  0  # atno 7974 bound_to 7965
  154.9857  140.3107  155.4927 H   0  0  0  0  0  0  0  0  0  0  0  0  # atno 8008 bound_to 7997
  156.2947  140.2258  156.4899 H   0  0  0  0  0  0  0  0  0  0  0  0  # atno 8009 bound_to 7997
  154.7749  140.0450  157.1069 H   0  0  0  0  0  0  0  0  0  0  0  0  # atno 8010 bound_to 7997
  140.2535  143.3456  152.0693 H   0  0  0  0  0  0  0  0  0  0  0  0  # atno 10167 bound_to 10162
  157.0511  131.0313  151.2680 H   0  0  0  0  0  0  0  0  0  0  0  0  # atno 10718 bound_to 10713
  154.4752  135.2772  155.1612 H   0  0  0  0  0  0  0  0  0  0  0  0  # atno 10763 bound_to 10752
  154.3345  135.6183  153.5570 H   0  0  0  0  0  0  0  0  0  0  0  0  # atno 10764 bound_to 10752
  152.9869  135.5773  154.5142 H   0  0  0  0  0  0  0  0  0  0  0  0  # atno 10765 bound_to 10752
  139.9979  134.6488  155.9980 H   0  0  0  0  0  0  0  0  0  0  0  0  # atno 11005 bound_to 11000
  144.8584  139.5215  143.6824 LP  0  0  0  0  0  0  0  0  0  0  0  0  # atno 17320 bound_to 7965
  146.2890  139.7084  142.9175 LP  0  0  0  0  0  0  0  0  0  0  0  0  # atno 17321 bound_to 7965
  139.5039  144.6764  151.6117 LP  0  0  0  0  0  0  0  0  0  0  0  0  # atno 17342 bound_to 10162
  140.6022  143.9589  150.6394 LP  0  0  0  0  0  0  0  0  0  0  0  0  # atno 17343 bound_to 10162
  157.5029  130.7891  149.7624 LP  0  0  0  0  0  0  0  0  0  0  0  0  # atno 17370 bound_to 10713
  156.0007  130.3882  150.2616 LP  0  0  0  0  0  0  0  0  0  0  0  0  # atno 17371 bound_to 10713
  141.1619  133.6538  156.4347 LP  0  0  0  0  0  0  0  0  0  0  0  0  # atno 17394 bound_to 11000
  140.4783  134.6688  157.5160 LP  0  0  0  0  0  0  0  0  0  0  0  0  # atno 17395 bound_to 11000

$$$$
