AV-unprocessed.smi:8|AV-procd|sdf|47|dock9
  -GOLD-   2262015163D 1   1.00000     0.00000
 Structure written by MMmdl.
 33 34  0  0  0  0  0  0  0  0  2 V2000
  152.4775  144.4918  159.2421 C   0  0  0  0  0  0  0  0  0  0  0  0
  152.0331  143.0831  159.6601 C   0  0  0  0  0  0  0  0  0  0  0  0
  151.8754  142.2024  158.4953 N   0  0  0  0  0  0  0  0  0  0  0  0
  151.0150  142.6304  157.4714 C   0  0  0  0  0  0  0  0  0  0  0  0
  150.7868  141.8976  156.3623 C   0  0  0  0  0  0  0  0  0  0  0  0
  149.8521  142.3719  155.2573 C   0  0  0  0  0  0  0  0  0  0  0  0
  148.4742  141.9250  155.4312 N   0  0  0  0  0  0  0  0  0  0  0  0
  147.9420  141.0228  154.4975 C   0  0  0  0  0  0  0  0  0  0  0  0
  148.4545  139.7705  154.4318 N   0  0  0  0  0  0  0  0  0  0  0  0
  147.9283  138.9397  153.5296 C   0  0  0  0  0  0  0  0  0  0  0  0
  146.9368  139.2098  152.6783 N   0  0  0  0  0  0  0  0  0  0  0  0
  146.4138  140.4530  152.7329 C   0  0  0  0  0  0  0  0  0  0  0  0
  146.8863  141.4220  153.6437 C   0  0  0  0  0  0  0  0  0  0  0  0
  146.2924  142.8180  153.6816 C   0  0  0  0  0  0  0  0  0  0  0  0
  151.4986  140.6203  156.2423 C   0  0  0  0  0  0  0  0  0  0  0  0
  151.3325  139.9181  155.2451 O   0  0  0  0  0  0  0  0  0  0  0  0
  152.3317  140.2545  157.2597 N   0  5  0  0  0  0  0  0  0  0  0  0
  152.5374  141.0142  158.3784 C   0  0  0  0  0  0  0  0  0  0  0  0
  153.2992  140.6646  159.2805 O   0  0  0  0  0  0  0  0  0  0  0  0
  152.5787  145.1397  160.1128 H   0  0  0  0  0  0  0  0  0  0  0  0
  151.7532  144.9504  158.5682 H   0  0  0  0  0  0  0  0  0  0  0  0
  153.4412  144.4680  158.7326 H   0  0  0  0  0  0  0  0  0  0  0  0
  152.7483  142.6625  160.3688 H   0  0  0  0  0  0  0  0  0  0  0  0
  151.0931  143.1466  160.2104 H   0  0  0  0  0  0  0  0  0  0  0  0
  150.5463  143.5882  157.6447 H   0  0  0  0  0  0  0  0  0  0  0  0
  149.8882  143.4589  155.1764 H   0  0  0  0  0  0  0  0  0  0  0  0
  150.2185  141.9874  154.3053 H   0  0  0  0  0  0  0  0  0  0  0  0
  147.8339  142.6317  155.7642 H   0  0  0  0  0  0  0  0  0  0  0  0
  148.3470  137.9452  153.4855 H   0  0  0  0  0  0  0  0  0  0  0  0
  145.6137  140.6745  152.0421 H   0  0  0  0  0  0  0  0  0  0  0  0
  145.5152  142.9364  152.9261 H   0  0  0  0  0  0  0  0  0  0  0  0
  147.0650  143.5646  153.4932 H   0  0  0  0  0  0  0  0  0  0  0  0
  145.8504  143.0164  154.6583 H   0  0  0  0  0  0  0  0  0  0  0  0
  1  2  1  0  0  0  0
  1 20  1  0  0  0  0
  1 21  1  0  0  0  0
  1 22  1  0  0  0  0
  2  3  1  0  0  0  0
  2 23  1  0  0  0  0
  2 24  1  0  0  0  0
  3 18  1  0  0  0  0
  3  4  1  0  0  0  0
  4  5  2  0  0  0  0
  4 25  1  0  0  0  0
  5  6  1  0  0  0  0
  5 15  1  0  0  0  0
  6  7  1  0  0  0  0
  6 26  1  0  0  0  0
  6 27  1  0  0  0  0
  7  8  1  0  0  0  0
  7 28  1  0  0  0  0
  8 13  1  0  0  0  0
  8  9  2  0  0  0  0
  9 10  1  0  0  0  0
 10 11  2  0  0  0  0
 10 29  1  0  0  0  0
 11 12  1  0  0  0  0
 12 13  2  0  0  0  0
 12 30  1  0  0  0  0
 13 14  1  0  0  0  0
 14 31  1  0  0  0  0
 14 32  1  0  0  0  0
 14 33  1  0  0  0  0
 15 16  2  0  0  0  0
 15 17  1  0  0  0  0
 17 18  1  0  0  0  0
 18 19  2  0  0  0  0
M  CHG  1  17  -1
M  END
> <s_m_source_file>
AV-unprocessed.smi

> <i_m_source_file_index>
8

> <i_lp_mmshare_version>
43012

> <i_f3d_flags>
0

> <s_epik_input>
W0NIM11bQ0gyXW4xW2NIXWMoYyg9TylbbkhdYzE9TylbQ0gyXVtOSF1jMm5bY0hdbltjSF1jMltDSDNd

> <s_epik_cmdline>
J2VwaWtfcHl0aG9uJywgJy1waCcsICc3LjAnLCAnLXRuJywgJzgnLCAnLW1hJywgJzIwMCcsICctbWV0YWxfYmluZGluZycsICctaW1hZScsICc8aW5maWxlLm1hZT4nLCAnLW9tYWUnLCAnPG91dGZpbGUubWFlPic=

> <r_lp_tautomer_probability>
0.999537

> <r_epik_Ionization_Penalty>
4.00162

> <r_epik_Ionization_Penalty_Charging>
4.85554e-07

> <r_epik_Ionization_Penalty_Neutral>
4.00162

> <r_epik_State_Penalty>
4.01059

> <r_epik_Charging_Adjusted_Penalty>
4.01059

> <i_epik_Tot_Q>
-1

> <i_epik_Tot_abs_Q>
1

> <r_epik_Metal_State_Penalty>
0.642438

> <b_epik_Metal_Only>
1

> <s_lp_Force_Field>
OPLS_2005

> <r_lp_Energy>
12.8082

> <b_lp_Chiralities_Consistent>
1

> <s_lp_Variant>
AV-unprocessed.smi:8-3

> <Gold.Version>
5.8.1

> <Gold.Id.Protein>
6NUR|6NUR_protein|mol2

> <Gold.PLP.Fitness>
44.0753

> <Gold.PLP.PLP>
-30.2298

> <Gold.PLP.part.hbond>
-3.0000

> <Gold.PLP.part.metal>
0.0000

> <Gold.PLP.part.buried>
2.0012

> <Gold.PLP.part.nonpolar>
-28.9113

> <Gold.PLP.part.repulsive>
0.5010

> <Gold.PLP.ligand.clash>
0.0000

> <Gold.PLP.ligand.torsion>
0.7963

> <Gold.PLP.Chemscore.Hbond>
2.9753

> <Gold.PLP.Chemscore.CHOScore>
2.1689

> <Gold.PLP.Chemscore.Metal>
0.0000

> <Gold.Chemscore.Hbonds>
donor molecule, donor type, donor heavy atom, donor atom, acceptor molecule, acceptor atom, score
      L1  H     7    28       P1  8028  0.05
      P1  H  7989  7998       L1    16  1.00
      P1  H  7997  8010       L1    17  1.24
      L1  C     4    25       P1  8028  0.25
      L1  C    10    29       P1  7948  1.00
      L1  C    12    30       P1 10175  0.50

> <Gold.PLP.Chemscore.Internal.Correction>
0.0058

> <Gold.Rescore>
     Score         DG    S(hbond)    S(metal)    S(lipo)     H(rot)  DE(clash)    DE(int)     intcor
      9.08     -13.28       1.40        0.00      72.30       2.09       3.42       0.78       ----

> <Gold.Chemscore.Fitness>
9.0780

> <Gold.Chemscore.DG>
-13.2781

> <Gold.Chemscore.ZeroCoef>
-5.4800

> <Gold.Chemscore.Hbond>
1.4020

> <Gold.Chemscore.Metal>
0.0000

> <Gold.Chemscore.Lipo>
72.3033

> <Gold.Chemscore.Internal_Hbond>
0.0000

> <Gold.Chemscore.DEClash>
3.4221

> <Gold.Chemscore.DEInternal>
0.7780

> <Gold.Chemscore.Rot>
2.0876

> <Gold.Chemscore.Internal.Correction>
   9.000000E+99

> <Gold.Chemscore.Hbonds>
donor molecule, donor type, donor heavy atom, donor atom, acceptor molecule, acceptor atom, score
      L1  H     7    28       P1  8028  0.04
      P1  H  7989  7998       L1    16  0.83
      P1  H  7997  8010       L1    17  0.09

> <Gold.Chemscore.Hbond.Weighted>
-4.6828

> <Gold.Chemscore.Metal.Weighted>
-0.0000

> <Gold.Chemscore.Lipo.Weighted>
-8.4595

> <Gold.Chemscore.Internal_Hbond.Weighted>
0.0000

> <Gold.Chemscore.DEClash.Weighted>
3.4221

> <Gold.Chemscore.DEInternal.Weighted>
0.7780

> <Gold.Chemscore.Rot.Weighted>
5.3442

> <Gold.Chemscore.Internal.Correction.Weighted>
   9.000000E+99

> <Gold.Protein.RotatedTorsions>
[ 6907 6896 6895 6894 ] final   71.04 input  -60.11 | X-H torsion
[ 7974 7965 7964 7962 ] final   56.44 input  175.53 | X-H torsion
[ 8008 7997 7996 7995 ] final   59.50 input   59.86 | X-H torsion
[ 10167 10162 10161 10158 ] final  -96.54 input  -65.29 | X-H torsion
[ 10718 10713 10712 10709 ] final   67.96 input   66.30 | X-H torsion
[ 10763 10752 10751 10750 ] final  172.02 input  -60.55 | X-H torsion
[ 11005 11000 10999 10996 ] final   36.99 input  -57.11 | X-H torsion

> <Gold.Protein.ActiveResidues>
 VAL166  LYS551  ARG553  GLY616  TRP617  ASP618  TYR619  PRO620  LYS621  CYS622 
 ASP623  PHE694  ASN695  SER759  ASP760  ASP761  ALA762  ILE779  LEU786  VAL792 
 PHE793  MET794  SER795  GLU796  ALA797  LYS798  CYS799  TRP800  GLU811  SER814 

> <Gold.Protein.RotatedAtoms>
  152.4786  134.4779  159.9656 H   0  0  0  0  0  0  0  0  0  0  0  0  # atno 6907 bound_to 6896
  151.4790  133.3545  159.2843 H   0  0  0  0  0  0  0  0  0  0  0  0  # atno 6908 bound_to 6896
  150.8842  134.8263  159.7308 H   0  0  0  0  0  0  0  0  0  0  0  0  # atno 6909 bound_to 6896
  145.9397  139.3878  143.0371 H   0  0  0  0  0  0  0  0  0  0  0  0  # atno 7974 bound_to 7965
  155.5671  140.3489  155.4506 H   0  0  0  0  0  0  0  0  0  0  0  0  # atno 8008 bound_to 7997
  156.0471  140.1309  157.0117 H   0  0  0  0  0  0  0  0  0  0  0  0  # atno 8009 bound_to 7997
  154.4417  140.1012  156.6307 H   0  0  0  0  0  0  0  0  0  0  0  0  # atno 8010 bound_to 7997
  140.2927  143.3211  152.0329 H   0  0  0  0  0  0  0  0  0  0  0  0  # atno 10167 bound_to 10162
  157.6261  130.9348  150.0312 H   0  0  0  0  0  0  0  0  0  0  0  0  # atno 10718 bound_to 10713
  154.4201  135.2757  155.1981 H   0  0  0  0  0  0  0  0  0  0  0  0  # atno 10763 bound_to 10752
  154.3930  135.6062  153.5857 H   0  0  0  0  0  0  0  0  0  0  0  0  # atno 10764 bound_to 10752
  152.9833  135.5908  154.4496 H   0  0  0  0  0  0  0  0  0  0  0  0  # atno 10765 bound_to 10752
  140.2270  134.3572  155.7980 H   0  0  0  0  0  0  0  0  0  0  0  0  # atno 11005 bound_to 11000
  145.8316  140.9628  143.0846 LP  0  0  0  0  0  0  0  0  0  0  0  0  # atno 17320 bound_to 7965
  144.6777  140.0169  143.7484 LP  0  0  0  0  0  0  0  0  0  0  0  0  # atno 17321 bound_to 7965
  139.4934  144.6513  151.6669 LP  0  0  0  0  0  0  0  0  0  0  0  0  # atno 17342 bound_to 10162
  140.5718  144.0095  150.6221 LP  0  0  0  0  0  0  0  0  0  0  0  0  # atno 17343 bound_to 10162
  156.1434  130.3642  149.9547 LP  0  0  0  0  0  0  0  0  0  0  0  0  # atno 17370 bound_to 10713
  156.7583  130.9141  151.3640 LP  0  0  0  0  0  0  0  0  0  0  0  0  # atno 17371 bound_to 10713
  141.2220  133.7225  156.8670 LP  0  0  0  0  0  0  0  0  0  0  0  0  # atno 17394 bound_to 11000
  140.1790  134.9047  157.2925 LP  0  0  0  0  0  0  0  0  0  0  0  0  # atno 17395 bound_to 11000

$$$$
