AV-unprocessed.smi:2021|AV-procd|sdf|8181|dock6
  -GOLD-   2272010433D 1   1.00000     0.00000
 Structure written by MMmdl.
 41 42  0  0  0  0  0  0  0  0  3 V2000
  151.9512  145.5848  159.4366 C   0  0  0  0  0  0  0  0  0  0  0  0
  152.2584  144.1244  159.0733 C   0  0  0  0  0  0  0  0  0  0  0  0
  150.9818  143.2708  159.1545 C   0  0  0  0  0  0  0  0  0  0  0  0
  153.3815  143.5664  159.9740 C   0  0  0  0  0  0  0  0  0  0  0  0
  153.9796  142.3093  159.4556 N   0  3  1  0  0  0  0  0  0  0  0  0
  155.3283  142.0227  160.0042 C   0  0  0  0  0  0  0  0  0  0  0  0
  155.8872  140.7234  159.4035 C   0  0  0  0  0  0  0  0  0  0  0  0
  154.9786  139.6617  159.6557 O   0  0  0  0  0  0  0  0  0  0  0  0
  153.7132  139.8708  159.0370 C   0  0  1  0  0  0  0  0  0  0  0  0
  152.8321  138.6303  159.2672 C   0  0  0  0  0  0  0  0  0  0  0  0
  153.4652  137.4206  158.7526 N   0  0  0  0  0  0  0  0  0  0  0  0
  154.0194  137.2754  157.5408 C   0  0  0  0  0  0  0  0  0  0  0  0
  154.0505  138.2278  156.7583 O   0  0  0  0  0  0  0  0  0  0  0  0
  154.4990  136.0329  157.3103 N   0  5  0  0  0  0  0  0  0  0  0  0
  155.6484  135.8723  156.6337 C   0  0  0  0  0  0  0  0  0  0  0  0
  156.0900  134.6654  156.2441 N   0  0  0  0  0  0  0  0  0  0  0  0
  157.2982  134.7203  155.5623 N   0  0  0  0  0  0  0  0  0  0  0  0
  157.7430  135.9727  155.4624 C   0  0  0  0  0  0  0  0  0  0  0  0
  156.7279  137.1983  156.1928 S   0  0  0  0  0  0  0  0  0  0  0  0
  153.0858  141.1411  159.6434 C   0  0  0  0  0  0  0  0  0  0  0  0
  151.6009  145.6737  160.4656 H   0  0  0  0  0  0  0  0  0  0  0  0
  151.1797  145.9984  158.7863 H   0  0  0  0  0  0  0  0  0  0  0  0
  152.8375  146.2113  159.3314 H   0  0  0  0  0  0  0  0  0  0  0  0
  152.5957  144.1266  158.0373 H   0  0  0  0  0  0  0  0  0  0  0  0
  150.5958  143.2302  160.1737 H   0  0  0  0  0  0  0  0  0  0  0  0
  151.1633  142.2474  158.8257 H   0  0  0  0  0  0  0  0  0  0  0  0
  150.1960  143.6801  158.5190 H   0  0  0  0  0  0  0  0  0  0  0  0
  154.1711  144.3073  160.1081 H   0  0  0  0  0  0  0  0  0  0  0  0
  152.9645  143.3862  160.9664 H   0  0  0  0  0  0  0  0  0  0  0  0
  156.0141  142.8400  159.7862 H   0  0  0  0  0  0  0  0  0  0  0  0
  155.2706  141.9329  161.0901 H   0  0  0  0  0  0  0  0  0  0  0  0
  156.0588  140.8282  158.3310 H   0  0  0  0  0  0  0  0  0  0  0  0
  156.8478  140.4808  159.8581 H   0  0  0  0  0  0  0  0  0  0  0  0
  153.8505  140.0120  157.9630 H   0  0  0  0  0  0  0  0  0  0  0  0
  152.5797  138.5222  160.3235 H   0  0  0  0  0  0  0  0  0  0  0  0
  151.8869  138.7488  158.7369 H   0  0  0  0  0  0  0  0  0  0  0  0
  153.4725  136.6147  159.3606 H   0  0  0  0  0  0  0  0  0  0  0  0
  158.6757  136.1759  154.9579 H   0  0  0  0  0  0  0  0  0  0  0  0
  152.8934  140.9965  160.7081 H   0  0  0  0  0  0  0  0  0  0  0  0
  152.1243  141.3367  159.1666 H   0  0  0  0  0  0  0  0  0  0  0  0
  154.0831  142.4269  158.4576 H   0  0  0  0  0  0  0  0  0  0  0  0
  1  2  1  0  0  0  0
  1 21  1  0  0  0  0
  1 22  1  0  0  0  0
  1 23  1  0  0  0  0
  2  3  1  0  0  0  0
  2  4  1  0  0  0  0
  2 24  1  0  0  0  0
  3 25  1  0  0  0  0
  3 26  1  0  0  0  0
  3 27  1  0  0  0  0
  4  5  1  0  0  0  0
  4 28  1  0  0  0  0
  4 29  1  0  0  0  0
  5 20  1  0  0  0  0
  5  6  1  0  0  0  0
  5 41  1  0  0  0  0
  6  7  1  0  0  0  0
  6 30  1  0  0  0  0
  6 31  1  0  0  0  0
  7  8  1  0  0  0  0
  7 32  1  0  0  0  0
  7 33  1  0  0  0  0
  8  9  1  0  0  0  0
  9 10  1  0  0  0  0
  9 20  1  0  0  0  0
  9 34  1  0  0  0  0
 10 11  1  0  0  0  0
 10 35  1  0  0  0  0
 10 36  1  0  0  0  0
 11 12  1  0  0  0  0
 11 37  1  0  0  0  0
 12 13  2  0  0  0  0
 12 14  1  0  0  0  0
 14 15  1  0  0  0  0
 15 19  1  0  0  0  0
 15 16  2  0  0  0  0
 16 17  1  0  0  0  0
 17 18  2  0  0  0  0
 18 19  1  0  0  0  0
 18 38  1  0  0  0  0
 20 39  1  0  0  0  0
 20 40  1  0  0  0  0
M  CHG  1   5   1
M  CHG  1  14  -1
M  END
> <s_m_source_file>
AV-unprocessed.smi

> <i_m_source_file_index>
2021

> <i_lp_mmshare_version>
43012

> <i_f3d_flags>
0

> <s_epik_input>
W0NIM11bQ0hdKFtDSDNdKVtDSDJdTjFbQ0gyXVtDSDJdT1tDQEhdKFtDSDJdMSlbQ0gyXVtOSF1DKD1PKVtOSF1jMm5uW2NIXXMy

> <s_epik_cmdline>
J2VwaWtfcHl0aG9uJywgJy1waCcsICc3LjAnLCAnLXRuJywgJzgnLCAnLW1hJywgJzIwMCcsICctbWV0YWxfYmluZGluZycsICctaW1hZScsICc8aW5maWxlLm1hZT4nLCAnLW9tYWUnLCAnPG91dGZpbGUubWFlPic=

> <r_lp_tautomer_probability>
1

> <r_epik_Ionization_Penalty>
3.15762

> <r_epik_Ionization_Penalty_Charging>
3.12229

> <r_epik_Ionization_Penalty_Neutral>
0.0353298

> <r_epik_State_Penalty>
3.11266

> <r_epik_Charging_Adjusted_Penalty>
6.23495

> <i_epik_Tot_Q>
0

> <i_epik_Tot_abs_Q>
2

> <r_epik_Metal_State_Penalty>
0.541462

> <b_epik_Metal_Only>
1

> <s_lp_Force_Field>
OPLS_2005

> <r_lp_Energy>
10.0285

> <b_lp_Chiralities_Consistent>
1

> <s_lp_Variant>
AV-unprocessed.smi:2021-7

> <Gold.Version>
5.8.1

> <Gold.Id.Protein>
6NUR|6NUR_protein|mol2

> <Gold.PLP.Fitness>
37.4448

> <Gold.PLP.PLP>
-31.6173

> <Gold.PLP.part.hbond>
-0.8581

> <Gold.PLP.part.metal>
0.0000

> <Gold.PLP.part.buried>
-4.7131

> <Gold.PLP.part.nonpolar>
-26.1470

> <Gold.PLP.part.repulsive>
0.1967

> <Gold.PLP.ligand.clash>
0.0000

> <Gold.PLP.ligand.torsion>
0.6127

> <Gold.PLP.Chemscore.Hbond>
2.3040

> <Gold.PLP.Chemscore.CHOScore>
0.0000

> <Gold.PLP.Chemscore.Metal>
0.0000

> <Gold.Chemscore.Hbonds>
donor molecule, donor type, donor heavy atom, donor atom, acceptor molecule, acceptor atom, score
      P1  H  7997  8009       L1    13  0.46

> <Gold.PLP.Chemscore.Internal.Correction>
0.1409

> <Gold.Rescore>
     Score         DG    S(hbond)    S(metal)    S(lipo)     H(rot)  DE(clash)    DE(int)     intcor
     10.97     -14.32       0.98        0.00      87.98       1.85       0.00       3.35       ----

> <Gold.Chemscore.Fitness>
10.9679

> <Gold.Chemscore.DG>
-14.3180

> <Gold.Chemscore.ZeroCoef>
-5.4800

> <Gold.Chemscore.Hbond>
0.9794

> <Gold.Chemscore.Metal>
0.0000

> <Gold.Chemscore.Lipo>
87.9828

> <Gold.Chemscore.Internal_Hbond>
0.0000

> <Gold.Chemscore.DEClash>
0.0029

> <Gold.Chemscore.DEInternal>
3.3472

> <Gold.Chemscore.Rot>
1.8466

> <Gold.Chemscore.Internal.Correction>
   9.000000E+99

> <Gold.Chemscore.Hbonds>
donor molecule, donor type, donor heavy atom, donor atom, acceptor molecule, acceptor atom, score
      P1  H  7997  8009       L1    13  0.46

> <Gold.Chemscore.Hbond.Weighted>
-3.2712

> <Gold.Chemscore.Metal.Weighted>
-0.0000

> <Gold.Chemscore.Lipo.Weighted>
-10.2940

> <Gold.Chemscore.Internal_Hbond.Weighted>
0.0000

> <Gold.Chemscore.DEClash.Weighted>
0.0029

> <Gold.Chemscore.DEInternal.Weighted>
3.3472

> <Gold.Chemscore.Rot.Weighted>
4.7272

> <Gold.Chemscore.Internal.Correction.Weighted>
   9.000000E+99

> <Gold.Protein.RotatedTorsions>
[ 6907 6896 6895 6894 ] final -133.57 input  -60.11 | X-H torsion
[ 7974 7965 7964 7962 ] final  -27.14 input  175.53 | X-H torsion
[ 8008 7997 7996 7995 ] final  148.08 input   59.86 | X-H torsion
[ 10167 10162 10161 10158 ] final    1.68 input  -65.29 | X-H torsion
[ 10718 10713 10712 10709 ] final  147.11 input   66.30 | X-H torsion
[ 10763 10752 10751 10750 ] final  164.16 input  -60.55 | X-H torsion
[ 11005 11000 10999 10996 ] final  131.49 input  -57.11 | X-H torsion

> <Gold.Protein.ActiveResidues>
 VAL166  LYS551  ARG553  GLY616  TRP617  ASP618  TYR619  PRO620  LYS621  CYS622 
 ASP623  PHE694  ASN695  SER759  ASP760  ASP761  ALA762  ILE779  LEU786  VAL792 
 PHE793  MET794  SER795  GLU796  ALA797  LYS798  CYS799  TRP800  GLU811  SER814 

> <Gold.Protein.RotatedAtoms>
  150.9756  133.6298  159.2730 H   0  0  0  0  0  0  0  0  0  0  0  0  # atno 6907 bound_to 6896
  151.3571  135.0895  159.9432 H   0  0  0  0  0  0  0  0  0  0  0  0  # atno 6908 bound_to 6896
  152.5198  133.9337  159.7647 H   0  0  0  0  0  0  0  0  0  0  0  0  # atno 6909 bound_to 6896
  146.1378  140.5113  142.8665 H   0  0  0  0  0  0  0  0  0  0  0  0  # atno 7974 bound_to 7965
  156.2803  140.2138  156.5640 H   0  0  0  0  0  0  0  0  0  0  0  0  # atno 8008 bound_to 7997
  154.7190  140.0505  157.0644 H   0  0  0  0  0  0  0  0  0  0  0  0  # atno 8009 bound_to 7997
  155.0504  140.3155  155.4697 H   0  0  0  0  0  0  0  0  0  0  0  0  # atno 8010 bound_to 7997
  140.6671  143.7149  150.7849 H   0  0  0  0  0  0  0  0  0  0  0  0  # atno 10167 bound_to 10162
  157.3250  131.0911  151.1209 H   0  0  0  0  0  0  0  0  0  0  0  0  # atno 10718 bound_to 10713
  154.3047  135.2758  155.2594 H   0  0  0  0  0  0  0  0  0  0  0  0  # atno 10763 bound_to 10752
  154.5015  135.5807  153.6538 H   0  0  0  0  0  0  0  0  0  0  0  0  # atno 10764 bound_to 10752
  152.9896  135.6159  154.3221 H   0  0  0  0  0  0  0  0  0  0  0  0  # atno 10765 bound_to 10752
  139.9733  134.9571  156.9445 H   0  0  0  0  0  0  0  0  0  0  0  0  # atno 11005 bound_to 11000
  144.7758  140.5737  143.6639 LP  0  0  0  0  0  0  0  0  0  0  0  0  # atno 17320 bound_to 7965
  145.5117  139.1479  143.3601 LP  0  0  0  0  0  0  0  0  0  0  0  0  # atno 17321 bound_to 7965
  140.0828  143.4952  152.2521 LP  0  0  0  0  0  0  0  0  0  0  0  0  # atno 17342 bound_to 10162
  139.5924  144.7555  151.3367 LP  0  0  0  0  0  0  0  0  0  0  0  0  # atno 17343 bound_to 10162
  157.2480  130.6600  149.5918 LP  0  0  0  0  0  0  0  0  0  0  0  0  # atno 17370 bound_to 10713
  155.9689  130.4547  150.5861 LP  0  0  0  0  0  0  0  0  0  0  0  0  # atno 17371 bound_to 10713
  140.5247  134.0872  155.7300 LP  0  0  0  0  0  0  0  0  0  0  0  0  # atno 17394 bound_to 11000
  141.1412  133.9135  157.2322 LP  0  0  0  0  0  0  0  0  0  0  0  0  # atno 17395 bound_to 11000

$$$$
