AV-unprocessed.smi:1|AV-procd|sdf|10|dock6
  -GOLD-   2262015103D 1   1.00000     0.00000
 Structure written by MMmdl.
 57 62  0  0  0  0  0  0  0  0  1 V2000
  154.4874  139.8874  159.3992 O   0  0  0  0  0  0  0  0  0  0  0  0
  153.2696  140.0857  159.4163 C   0  0  0  0  0  0  0  0  0  0  0  0
  152.2394  139.2026  159.1226 N   0  0  0  0  0  0  0  0  0  0  0  0
  152.2009  138.6059  157.9700 C   0  0  0  0  0  0  0  0  0  0  0  0
  153.0330  138.6635  156.8446 N   0  0  0  0  0  0  0  0  0  0  0  0
  152.8572  137.9429  155.6533 C   0  0  0  0  0  0  0  0  0  0  0  0
  151.8834  137.1024  155.4254 N   0  0  0  0  0  0  0  0  0  0  0  0
  151.0363  136.9955  156.5194 C   0  0  0  0  0  0  0  0  0  0  0  0
  151.0999  137.6494  157.7304 C   0  0  0  0  0  0  0  0  0  0  0  0
  150.0685  137.2404  158.5658 N   0  0  0  0  0  0  0  0  0  0  0  0
  149.4277  136.3458  157.8193 C   0  0  0  0  0  0  0  0  0  0  0  0
  149.9366  136.1446  156.5842 N   0  0  0  0  0  0  0  0  0  0  0  0
  149.4703  135.2246  155.4892 C   0  0  1  0  0  0  0  0  0  0  0  0
  149.7958  133.9237  155.8826 O   0  0  0  0  0  0  0  0  0  0  0  0
  148.6431  133.2263  156.3542 C   0  0  1  0  0  0  0  0  0  0  0  0
  148.8897  132.5161  157.6952 C   0  0  0  0  0  0  0  0  0  0  0  0
  148.7346  133.3913  158.8060 O   0  0  0  0  0  0  0  0  0  0  0  0
  147.9095  133.0697  159.8284 C   0  0  0  0  0  0  0  0  0  0  0  0
  147.3858  131.9625  159.9651 O   0  0  0  0  0  0  0  0  0  0  0  0
  147.7008  134.1942  160.7839 C   0  0  0  0  0  0  0  0  0  0  0  0
  147.9350  135.5206  160.3525 C   0  0  0  0  0  0  0  0  0  0  0  0
  147.7323  136.6056  161.2268 C   0  0  0  0  0  0  0  0  0  0  0  0
  147.2884  136.3770  162.5422 C   0  0  0  0  0  0  0  0  0  0  0  0
  147.0523  135.0622  162.9833 C   0  0  0  0  0  0  0  0  0  0  0  0
  147.2602  133.9753  162.1121 C   0  0  0  0  0  0  0  0  0  0  0  0
  147.4688  134.2141  156.3289 C   0  0  2  0  0  0  0  0  0  0  0  0
  146.2844  133.6238  155.8170 O   0  0  0  0  0  0  0  0  0  0  0  0
  146.2573  133.8307  154.1564 S   0  0  0  0  0  0  0  0  0  0  0  0
  146.5579  132.5386  153.5212 O   0  0  0  0  0  0  0  0  0  0  0  0
  145.0684  134.6255  153.8128 O   0  0  0  0  0  0  0  0  0  0  0  0
  147.6026  134.8102  154.0148 O   0  0  0  0  0  0  0  0  0  0  0  0
  147.9499  135.2551  155.3125 C   0  0  2  0  0  0  0  0  0  0  0  0
  152.7863  141.4389  159.8240 C   0  0  0  0  0  0  0  0  0  0  0  0
  151.8741  142.1401  159.0073 C   0  0  0  0  0  0  0  0  0  0  0  0
  151.4104  143.4117  159.3976 C   0  0  0  0  0  0  0  0  0  0  0  0
  151.8532  143.9834  160.6064 C   0  0  0  0  0  0  0  0  0  0  0  0
  152.7622  143.2846  161.4245 C   0  0  0  0  0  0  0  0  0  0  0  0
  153.2290  142.0144  161.0339 C   0  0  0  0  0  0  0  0  0  0  0  0
  153.6195  138.1413  154.8987 H   0  0  0  0  0  0  0  0  0  0  0  0
  148.5643  135.8249  158.2032 H   0  0  0  0  0  0  0  0  0  0  0  0
  150.0289  135.5486  154.6103 H   0  0  0  0  0  0  0  0  0  0  0  0
  148.4565  132.4541  155.6072 H   0  0  0  0  0  0  0  0  0  0  0  0
  148.1668  131.7080  157.8065 H   0  0  0  0  0  0  0  0  0  0  0  0
  149.8715  132.0407  157.6965 H   0  0  0  0  0  0  0  0  0  0  0  0
  148.2667  135.7211  159.3440 H   0  0  0  0  0  0  0  0  0  0  0  0
  147.9091  137.6146  160.8846 H   0  0  0  0  0  0  0  0  0  0  0  0
  147.1265  137.2091  163.2114 H   0  0  0  0  0  0  0  0  0  0  0  0
  146.7082  134.8861  163.9920 H   0  0  0  0  0  0  0  0  0  0  0  0
  147.0623  132.9793  162.4798 H   0  0  0  0  0  0  0  0  0  0  0  0
  147.2985  134.6679  157.3054 H   0  0  0  0  0  0  0  0  0  0  0  0
  147.5276  136.2500  155.4516 H   0  0  0  0  0  0  0  0  0  0  0  0
  151.5268  141.7063  158.0805 H   0  0  0  0  0  0  0  0  0  0  0  0
  150.7134  143.9478  158.7704 H   0  0  0  0  0  0  0  0  0  0  0  0
  151.4955  144.9576  160.9055 H   0  0  0  0  0  0  0  0  0  0  0  0
  153.1013  143.7228  162.3516 H   0  0  0  0  0  0  0  0  0  0  0  0
  153.9256  141.4844  161.6671 H   0  0  0  0  0  0  0  0  0  0  0  0
  153.8299  139.2814  156.8956 H   0  0  0  0  0  0  0  0  0  0  0  0
  1  2  2  0  0  0  0
  2  3  1  0  0  0  0
  2 33  1  0  0  0  0
  3  4  2  0  0  0  0
  4  9  1  0  0  0  0
  4  5  1  0  0  0  0
  5  6  1  0  0  0  0
  5 57  1  0  0  0  0
  6  7  2  0  0  0  0
  6 39  1  0  0  0  0
  7  8  1  0  0  0  0
  8 12  1  0  0  0  0
  8  9  2  0  0  0  0
  9 10  1  0  0  0  0
 10 11  2  0  0  0  0
 11 12  1  0  0  0  0
 11 40  1  0  0  0  0
 12 13  1  0  0  0  0
 13 32  1  0  0  0  0
 13 14  1  0  0  0  0
 13 41  1  0  0  0  0
 14 15  1  0  0  0  0
 15 16  1  0  0  0  0
 15 26  1  0  0  0  0
 15 42  1  0  0  0  0
 16 17  1  0  0  0  0
 16 43  1  0  0  0  0
 16 44  1  0  0  0  0
 17 18  1  0  0  0  0
 18 19  2  0  0  0  0
 18 20  1  0  0  0  0
 20 25  1  0  0  0  0
 20 21  2  0  0  0  0
 21 22  1  0  0  0  0
 21 45  1  0  0  0  0
 22 23  2  0  0  0  0
 22 46  1  0  0  0  0
 23 24  1  0  0  0  0
 23 47  1  0  0  0  0
 24 25  2  0  0  0  0
 24 48  1  0  0  0  0
 25 49  1  0  0  0  0
 26 32  1  0  0  0  0
 26 27  1  0  0  0  0
 26 50  1  0  0  0  0
 27 28  1  0  0  0  0
 28 29  2  0  0  0  0
 28 30  2  0  0  0  0
 28 31  1  0  0  0  0
 31 32  1  0  0  0  0
 32 51  1  0  0  0  0
 33 38  1  0  0  0  0
 33 34  2  0  0  0  0
 34 35  1  0  0  0  0
 34 52  1  0  0  0  0
 35 36  2  0  0  0  0
 35 53  1  0  0  0  0
 36 37  1  0  0  0  0
 36 54  1  0  0  0  0
 37 38  2  0  0  0  0
 37 55  1  0  0  0  0
 38 56  1  0  0  0  0
M  END
> <s_m_source_file>
AV-unprocessed.smi

> <i_m_source_file_index>
1

> <i_lp_mmshare_version>
43012

> <i_f3d_flags>
0

> <s_epik_input>
W2NIXTFbY0hdW2NIXVtjSF1bY0hdYzFDKD1PKVtOSF1jKG5bY0hdbjIpYyhjMjMpbltjSF1uM1tDQEBIXShbQ0BIXShbQ0BIXTQ1KU9TKE81KSg9Tyk9TylPW0NASF00W0NIMl1PQyg9TyljNltjSF1bY0hdW2NIXVtjSF1bY0hdNg==

> <s_epik_cmdline>
J2VwaWtfcHl0aG9uJywgJy1waCcsICc3LjAnLCAnLXRuJywgJzgnLCAnLW1hJywgJzIwMCcsICctbWV0YWxfYmluZGluZycsICctaW1hZScsICc8aW5maWxlLm1hZT4nLCAnLW9tYWUnLCAnPG91dGZpbGUubWFlPic=

> <r_epik_Ionization_Penalty>
0.122545

> <r_epik_Ionization_Penalty_Charging>
0.122545

> <r_epik_Ionization_Penalty_Neutral>
7.8935e-16

> <r_epik_State_Penalty>
2.69178

> <r_epik_Charging_Adjusted_Penalty>
2.81433

> <i_epik_Tot_Q>
0

> <i_epik_Tot_abs_Q>
0

> <r_epik_Metal_State_Penalty>
3.02665

> <b_epik_Metal_Only>
0

> <s_epik_Chemistry_Notes>
This compound has an ester and may undergo hydrolysis at high or low pH. This compound contains an acetal/aminal-like group ( X-CH(R)-Y where X, Y are N, S, or O) that may be acid/base labile, releasing an aldehyde.

> <s_lp_Force_Field>
OPLS_2005

> <r_lp_Energy>
55.0636

> <b_lp_Chiralities_Consistent>
1

> <s_lp_Variant>
AV-unprocessed.smi:1-10

> <Gold.Version>
5.8.1

> <Gold.Id.Protein>
6NUR|6NUR_protein|mol2

> <Gold.PLP.Fitness>
50.8444

> <Gold.PLP.PLP>
-50.3116

> <Gold.PLP.part.hbond>
-3.0000

> <Gold.PLP.part.metal>
0.0000

> <Gold.PLP.part.buried>
-7.3427

> <Gold.PLP.part.nonpolar>
-41.7999

> <Gold.PLP.part.repulsive>
2.1066

> <Gold.PLP.ligand.clash>
0.0000

> <Gold.PLP.ligand.torsion>
2.6766

> <Gold.PLP.Chemscore.Hbond>
1.8695

> <Gold.PLP.Chemscore.CHOScore>
0.0000

> <Gold.PLP.Chemscore.Metal>
0.0000

> <Gold.Chemscore.Hbonds>
donor molecule, donor type, donor heavy atom, donor atom, acceptor molecule, acceptor atom, score
      P1  H  7997  8010       L1     1  0.68
      P1  H 10752 10765       L1     7  0.94

> <Gold.PLP.Chemscore.Internal.Correction>
0.2775

> <Gold.Rescore>
     Score         DG    S(hbond)    S(metal)    S(lipo)     H(rot)  DE(clash)    DE(int)     intcor
     14.85     -17.45       0.99        0.00     120.84       2.13       0.20       2.40       ----

> <Gold.Chemscore.Fitness>
14.8508

> <Gold.Chemscore.DG>
-17.4502

> <Gold.Chemscore.ZeroCoef>
-5.4800

> <Gold.Chemscore.Hbond>
0.9860

> <Gold.Chemscore.Metal>
0.0000

> <Gold.Chemscore.Lipo>
120.8397

> <Gold.Chemscore.Internal_Hbond>
0.0000

> <Gold.Chemscore.DEClash>
0.2018

> <Gold.Chemscore.DEInternal>
2.3976

> <Gold.Chemscore.Rot>
2.1333

> <Gold.Chemscore.Internal.Correction>
   9.000000E+99

> <Gold.Chemscore.Hbonds>
donor molecule, donor type, donor heavy atom, donor atom, acceptor molecule, acceptor atom, score
      P1  H  7997  8010       L1     1  0.30
      P1  H 10752 10765       L1     7  0.19

> <Gold.Chemscore.Hbond.Weighted>
-3.2933

> <Gold.Chemscore.Metal.Weighted>
-0.0000

> <Gold.Chemscore.Lipo.Weighted>
-14.1382

> <Gold.Chemscore.Internal_Hbond.Weighted>
0.0000

> <Gold.Chemscore.DEClash.Weighted>
0.2018

> <Gold.Chemscore.DEInternal.Weighted>
2.3976

> <Gold.Chemscore.Rot.Weighted>
5.4614

> <Gold.Chemscore.Internal.Correction.Weighted>
   9.000000E+99

> <Gold.Protein.RotatedTorsions>
[ 6907 6896 6895 6894 ] final    7.85 input  -60.11 | X-H torsion
[ 7974 7965 7964 7962 ] final  -47.27 input  175.53 | X-H torsion
[ 8008 7997 7996 7995 ] final    6.35 input   59.86 | X-H torsion
[ 10167 10162 10161 10158 ] final -151.50 input  -65.29 | X-H torsion
[ 10718 10713 10712 10709 ] final  -58.11 input   66.30 | X-H torsion
[ 10763 10752 10751 10750 ] final -179.70 input  -60.55 | X-H torsion
[ 11005 11000 10999 10996 ] final  119.31 input  -57.11 | X-H torsion

> <Gold.Protein.ActiveResidues>
 VAL166  LYS551  ARG553  GLY616  TRP617  ASP618  TYR619  PRO620  LYS621  CYS622 
 ASP623  PHE694  ASN695  SER759  ASP760  ASP761  ALA762  ILE779  LEU786  VAL792 
 PHE793  MET794  SER795  GLU796  ALA797  LYS798  CYS799  TRP800  GLU811  SER814 

> <Gold.Protein.RotatedAtoms>
  151.6966  135.0937  160.0243 H   0  0  0  0  0  0  0  0  0  0  0  0  # atno 6907 bound_to 6896
  152.3746  133.6460  159.6122 H   0  0  0  0  0  0  0  0  0  0  0  0  # atno 6908 bound_to 6896
  150.7699  133.9130  159.3416 H   0  0  0  0  0  0  0  0  0  0  0  0  # atno 6909 bound_to 6896
  145.9633  140.7457  142.9446 H   0  0  0  0  0  0  0  0  0  0  0  0  # atno 7974 bound_to 7965
  154.7399  140.2747  155.6382 H   0  0  0  0  0  0  0  0  0  0  0  0  # atno 8008 bound_to 7997
  156.2871  140.2699  156.2049 H   0  0  0  0  0  0  0  0  0  0  0  0  # atno 8009 bound_to 7997
  155.0272  140.0371  157.2450 H   0  0  0  0  0  0  0  0  0  0  0  0  # atno 8010 bound_to 7997
  139.7262  143.8880  152.2520 H   0  0  0  0  0  0  0  0  0  0  0  0  # atno 10167 bound_to 10162
  156.1159  130.4170  150.0533 H   0  0  0  0  0  0  0  0  0  0  0  0  # atno 10718 bound_to 10713
  154.5317  135.2800  155.1174 H   0  0  0  0  0  0  0  0  0  0  0  0  # atno 10763 bound_to 10752
  154.2691  135.6307  153.5307 H   0  0  0  0  0  0  0  0  0  0  0  0  # atno 10764 bound_to 10752
  152.9958  135.5624  154.5833 H   0  0  0  0  0  0  0  0  0  0  0  0  # atno 10765 bound_to 10752
  139.9142  134.9627  156.7636 H   0  0  0  0  0  0  0  0  0  0  0  0  # atno 11005 bound_to 11000
  144.6820  140.2628  143.7316 LP  0  0  0  0  0  0  0  0  0  0  0  0  # atno 17320 bound_to 7965
  145.8009  139.1964  143.2049 LP  0  0  0  0  0  0  0  0  0  0  0  0  # atno 17321 bound_to 7965
  139.8790  144.7028  150.8900 LP  0  0  0  0  0  0  0  0  0  0  0  0  # atno 17342 bound_to 10162
  140.7763  143.3676  151.1709 LP  0  0  0  0  0  0  0  0  0  0  0  0  # atno 17343 bound_to 10162
  156.8484  130.9450  151.3627 LP  0  0  0  0  0  0  0  0  0  0  0  0  # atno 17370 bound_to 10713
  157.6343  130.8754  149.9330 LP  0  0  0  0  0  0  0  0  0  0  0  0  # atno 17371 bound_to 10713
  140.6678  133.9587  155.7839 LP  0  0  0  0  0  0  0  0  0  0  0  0  # atno 17394 bound_to 11000
  141.0599  134.0362  157.3673 LP  0  0  0  0  0  0  0  0  0  0  0  0  # atno 17395 bound_to 11000

$$$$
