AV-unprocessed.smi:35|AV-procd|sdf|260|dock6
  -GOLD-   2262016 23D 1   1.00000     0.00000
 Structure written by MMmdl.
 29 30  0  0  0  0  0  0  0  0  1 V2000
  153.0900  138.9584  156.8293 O   0  0  0  0  0  0  0  0  0  0  0  0
  152.1280  139.4391  156.2345 C   0  0  0  0  0  0  0  0  0  0  0  0
  151.5460  140.6300  156.6791 N   0  0  0  0  0  0  0  0  0  0  0  0
  150.4565  141.2713  156.0862 C   0  0  0  0  0  0  0  0  0  0  0  0
  150.0106  142.3077  156.5773 O   0  0  0  0  0  0  0  0  0  0  0  0
  149.9065  140.6734  154.9304 N   0  0  0  0  0  0  0  0  0  0  0  0
  148.7197  141.3238  154.2575 C   0  0  1  0  0  0  0  0  0  0  0  0
  148.3560  140.5582  153.1458 O   0  0  0  0  0  0  0  0  0  0  0  0
  146.9648  140.2577  153.1879 C   0  0  1  0  0  0  0  0  0  0  0  0
  146.7136  138.9307  152.4543 C   0  0  0  0  0  0  0  0  0  0  0  0
  147.1001  139.0297  151.1005 O   0  0  0  0  0  0  0  0  0  0  0  0
  146.6492  140.2410  154.6855 C   0  0  2  0  0  0  0  0  0  0  0  0
  145.2772  140.4211  154.9811 O   0  0  0  0  0  0  0  0  0  0  0  0
  147.5224  141.3696  155.2209 C   0  0  2  0  0  0  0  0  0  0  0  0
  146.8800  142.6315  155.1698 O   0  0  0  0  0  0  0  0  0  0  0  0
  150.4371  139.4773  154.4645 C   0  0  0  0  0  0  0  0  0  0  0  0
  151.4907  138.8654  155.0542 C   0  0  0  0  0  0  0  0  0  0  0  0
  152.0972  137.1653  154.2379 Br  0  0  0  0  0  0  0  0  0  0  0  0
  151.9438  141.0593  157.5020 H   0  0  0  0  0  0  0  0  0  0  0  0
  149.0543  142.3034  153.9101 H   0  0  0  0  0  0  0  0  0  0  0  0
  146.4374  141.0774  152.6960 H   0  0  0  0  0  0  0  0  0  0  0  0
  147.2993  138.1348  152.9146 H   0  0  0  0  0  0  0  0  0  0  0  0
  145.6655  138.6372  152.5193 H   0  0  0  0  0  0  0  0  0  0  0  0
  147.5843  139.8329  150.9833 H   0  0  0  0  0  0  0  0  0  0  0  0
  146.9814  139.2965  155.1189 H   0  0  0  0  0  0  0  0  0  0  0  0
  144.8169  140.5785  154.1705 H   0  0  0  0  0  0  0  0  0  0  0  0
  147.8347  141.1859  156.2500 H   0  0  0  0  0  0  0  0  0  0  0  0
  147.5430  143.3023  155.1072 H   0  0  0  0  0  0  0  0  0  0  0  0
  149.9981  139.0003  153.6009 H   0  0  0  0  0  0  0  0  0  0  0  0
  1  2  2  0  0  0  0
  2 17  1  0  0  0  0
  2  3  1  0  0  0  0
  3 19  1  0  0  0  0
  3  4  1  0  0  0  0
  4  5  2  0  0  0  0
  4  6  1  0  0  0  0
  6  7  1  0  0  0  0
  6 16  1  0  0  0  0
  7 14  1  0  0  0  0
  7  8  1  0  0  0  0
  7 20  1  0  0  0  0
  8  9  1  0  0  0  0
  9 10  1  0  0  0  0
  9 12  1  0  0  0  0
  9 21  1  0  0  0  0
 10 11  1  0  0  0  0
 10 22  1  0  0  0  0
 10 23  1  0  0  0  0
 11 24  1  0  0  0  0
 12 13  1  0  0  0  0
 12 14  1  0  0  0  0
 12 25  1  0  0  0  0
 13 26  1  0  0  0  0
 14 15  1  0  0  0  0
 14 27  1  0  0  0  0
 15 28  1  0  0  0  0
 16 17  2  0  0  0  0
 16 29  1  0  0  0  0
 17 18  1  0  0  0  0
M  END
> <s_m_source_file>
AV-unprocessed.smi

> <i_m_source_file_index>
35

> <i_lp_mmshare_version>
43012

> <i_f3d_flags>
0

> <s_epik_input>
Tz1jMVtuSF1jKD1PKW4oW2NIXWMxQnIpW0NAQEhdMk9bQ0BASF0oW0NIMl1bT0hdKVtDQEBIXShbT0hdKVtDQEhdMltPSF0=

> <s_epik_cmdline>
J2VwaWtfcHl0aG9uJywgJy1waCcsICc3LjAnLCAnLXRuJywgJzgnLCAnLW1hJywgJzIwMCcsICctbWV0YWxfYmluZGluZycsICctaW1hZScsICc8aW5maWxlLm1hZT4nLCAnLW9tYWUnLCAnPG91dGZpbGUubWFlPic=

> <r_lp_tautomer_probability>
0.999537

> <r_epik_Ionization_Penalty>
0.10812

> <r_epik_Ionization_Penalty_Charging>
0.108119

> <r_epik_Ionization_Penalty_Neutral>
4.93006e-07

> <r_epik_State_Penalty>
0.0979238

> <r_epik_Charging_Adjusted_Penalty>
0.206043

> <i_epik_Tot_Q>
0

> <i_epik_Tot_abs_Q>
0

> <r_epik_Metal_State_Penalty>
3.07911

> <b_epik_Metal_Only>
0

> <s_epik_Chemistry_Notes>
This compound contains an acetal/aminal-like group ( X-CH(R)-Y where X, Y are N, S, or O) that may be acid/base labile, releasing an aldehyde.

> <s_lp_Force_Field>
OPLS_2005

> <r_lp_Energy>
30.2872

> <b_lp_Chiralities_Consistent>
1

> <s_lp_Variant>
AV-unprocessed.smi:35-14

> <Gold.Version>
5.8.1

> <Gold.Id.Protein>
6NUR|6NUR_protein|mol2

> <Gold.PLP.Fitness>
37.9585

> <Gold.PLP.PLP>
-23.4108

> <Gold.PLP.part.hbond>
-5.0000

> <Gold.PLP.part.metal>
0.0000

> <Gold.PLP.part.buried>
4.1336

> <Gold.PLP.part.nonpolar>
-27.8137

> <Gold.PLP.part.repulsive>
6.9094

> <Gold.PLP.ligand.clash>
0.0000

> <Gold.PLP.ligand.torsion>
0.0136

> <Gold.PLP.Chemscore.Hbond>
4.2393

> <Gold.PLP.Chemscore.CHOScore>
0.6149

> <Gold.PLP.Chemscore.Metal>
0.0000

> <Gold.Chemscore.Hbonds>
donor molecule, donor type, donor heavy atom, donor atom, acceptor molecule, acceptor atom, score
      L1  H    11    24       P1  7957  0.53
      L1  H    13    26       P1 10175  0.99
      L1  H    15    28       P1  8028  1.00
      P1  H  7954  7966       L1    11  0.68
      P1  H  7997  8009       L1     1  1.00
      L1  C    16    29       P1  7957  0.62

> <Gold.PLP.Chemscore.Internal.Correction>
0.0125

> <Gold.Rescore>
     Score         DG    S(hbond)    S(metal)    S(lipo)     H(rot)  DE(clash)    DE(int)     intcor
      4.78     -10.58       2.68        0.00      47.33       3.67       4.91       0.88       ----

> <Gold.Chemscore.Fitness>
4.7772

> <Gold.Chemscore.DG>
-10.5752

> <Gold.Chemscore.ZeroCoef>
-5.4800

> <Gold.Chemscore.Hbond>
2.6804

> <Gold.Chemscore.Metal>
0.0000

> <Gold.Chemscore.Lipo>
47.3335

> <Gold.Chemscore.Internal_Hbond>
0.0000

> <Gold.Chemscore.DEClash>
4.9134

> <Gold.Chemscore.DEInternal>
0.8846

> <Gold.Chemscore.Rot>
3.6701

> <Gold.Chemscore.Internal.Correction>
   9.000000E+99

> <Gold.Chemscore.Hbonds>
donor molecule, donor type, donor heavy atom, donor atom, acceptor molecule, acceptor atom, score
      L1  H    11    24       P1  7957  0.45
      L1  H    13    26       P1 10175  0.92
      L1  H    15    28       P1  8028  0.25
      P1  H  7954  7966       L1    11  0.11
      P1  H  7997  8009       L1     1  0.45

> <Gold.Chemscore.Hbond.Weighted>
-8.9526

> <Gold.Chemscore.Metal.Weighted>
-0.0000

> <Gold.Chemscore.Lipo.Weighted>
-5.5380

> <Gold.Chemscore.Internal_Hbond.Weighted>
0.0000

> <Gold.Chemscore.DEClash.Weighted>
4.9134

> <Gold.Chemscore.DEInternal.Weighted>
0.8846

> <Gold.Chemscore.Rot.Weighted>
9.3955

> <Gold.Chemscore.Internal.Correction.Weighted>
   9.000000E+99

> <Gold.Protein.RotatedTorsions>
[ 6907 6896 6895 6894 ] final -112.92 input  -60.11 | X-H torsion
[ 7974 7965 7964 7962 ] final   92.00 input  175.53 | X-H torsion
[ 8008 7997 7996 7995 ] final -173.57 input   59.86 | X-H torsion
[ 10167 10162 10161 10158 ] final   93.46 input  -65.29 | X-H torsion
[ 10718 10713 10712 10709 ] final  -47.85 input   66.30 | X-H torsion
[ 10763 10752 10751 10750 ] final  -47.58 input  -60.55 | X-H torsion
[ 11005 11000 10999 10996 ] final   88.68 input  -57.11 | X-H torsion

> <Gold.Protein.ActiveResidues>
 VAL166  LYS551  ARG553  GLY616  TRP617  ASP618  TYR619  PRO620  LYS621  CYS622 
 ASP623  PHE694  ASN695  SER759  ASP760  ASP761  ALA762  ILE779  LEU786  VAL792 
 PHE793  MET794  SER795  GLU796  ALA797  LYS798  CYS799  TRP800  GLU811  SER814 

> <Gold.Protein.RotatedAtoms>
  150.7792  133.9020  159.3343 H   0  0  0  0  0  0  0  0  0  0  0  0  # atno 6907 bound_to 6896
  151.6887  135.0948  160.0239 H   0  0  0  0  0  0  0  0  0  0  0  0  # atno 6908 bound_to 6896
  152.3838  133.6544  159.6218 H   0  0  0  0  0  0  0  0  0  0  0  0  # atno 6909 bound_to 6896
  145.4981  139.2276  143.2792 H   0  0  0  0  0  0  0  0  0  0  0  0  # atno 7974 bound_to 7965
  155.9591  140.1141  157.0911 H   0  0  0  0  0  0  0  0  0  0  0  0  # atno 8008 bound_to 7997
  154.4127  140.1185  156.5221 H   0  0  0  0  0  0  0  0  0  0  0  0  # atno 8009 bound_to 7997
  155.6744  140.3473  155.4833 H   0  0  0  0  0  0  0  0  0  0  0  0  # atno 8010 bound_to 7997
  139.8177  144.6745  150.9558 H   0  0  0  0  0  0  0  0  0  0  0  0  # atno 10167 bound_to 10162
  156.2044  130.4157  149.9197 H   0  0  0  0  0  0  0  0  0  0  0  0  # atno 10718 bound_to 10713
  154.0637  135.6614  153.4815 H   0  0  0  0  0  0  0  0  0  0  0  0  # atno 10763 bound_to 10752
  153.0417  135.5141  154.7634 H   0  0  0  0  0  0  0  0  0  0  0  0  # atno 10764 bound_to 10752
  154.6678  135.3025  154.9749 H   0  0  0  0  0  0  0  0  0  0  0  0  # atno 10765 bound_to 10752
  139.8891  134.8503  156.3035 H   0  0  0  0  0  0  0  0  0  0  0  0  # atno 11005 bound_to 11000
  146.2243  140.5780  142.9003 LP  0  0  0  0  0  0  0  0  0  0  0  0  # atno 17320 bound_to 7965
  144.7795  140.5811  143.6615 LP  0  0  0  0  0  0  0  0  0  0  0  0  # atno 17321 bound_to 7965
  140.7815  143.4122  151.0975 LP  0  0  0  0  0  0  0  0  0  0  0  0  # atno 17342 bound_to 10162
  139.7784  143.8391  152.3133 LP  0  0  0  0  0  0  0  0  0  0  0  0  # atno 17343 bound_to 10162
  156.6896  130.8890  151.3586 LP  0  0  0  0  0  0  0  0  0  0  0  0  # atno 17370 bound_to 10713
  157.7004  130.9327  150.0768 LP  0  0  0  0  0  0  0  0  0  0  0  0  # atno 17371 bound_to 10713
  140.9898  133.7216  156.0796 LP  0  0  0  0  0  0  0  0  0  0  0  0  # atno 17394 bound_to 11000
  140.7640  134.3907  157.5520 LP  0  0  0  0  0  0  0  0  0  0  0  0  # atno 17395 bound_to 11000

$$$$
