AV-unprocessed.smi:1601|AV-procd|sdf|6434|dock7
  -GOLD-   22720 7 83D 1   1.00000     0.00000
 Structure written by MMmdl.
 41 42  0  0  0  0  0  0  0  0  1 V2000
  146.7254  138.8729  151.8002 C   0  0  0  0  0  0  0  0  0  0  0  0
  146.3331  138.9719  153.2967 C   0  0  1  0  0  0  0  0  0  0  0  0
  145.6659  137.6358  153.7245 C   0  0  0  0  0  0  0  0  0  0  0  0
  146.2895  136.4804  153.0872 N   0  0  0  0  0  0  0  0  0  0  0  0
  145.7554  135.2520  153.0123 C   0  0  0  0  0  0  0  0  0  0  0  0
  144.6517  134.9655  153.4777 O   0  0  0  0  0  0  0  0  0  0  0  0
  146.6016  134.1902  152.2936 C   0  0  1  0  0  0  0  0  0  0  0  0
  147.1906  133.1479  153.2618 C   0  0  0  0  0  0  0  0  0  0  0  0
  145.8214  133.5493  151.2432 N   0  0  0  0  0  0  0  0  0  0  0  0
  146.2027  132.5533  150.3645 C   0  0  0  0  0  0  0  0  0  0  0  0
  145.1284  132.2762  149.5688 C   0  0  0  0  0  0  0  0  0  0  0  0
  144.1215  133.1637  150.0402 C   0  0  0  0  0  0  0  0  0  0  0  0
  144.5383  133.9229  151.0404 N   0  0  0  0  0  0  0  0  0  0  0  0
  147.4712  139.3637  154.1605 N   0  0  0  0  0  0  0  0  0  0  0  0
  147.8600  140.7685  153.9876 C   0  0  0  0  0  0  0  0  0  0  0  0
  149.0620  141.1678  154.8615 C   0  0  0  0  0  0  0  0  0  0  0  0
  150.1642  140.3163  154.5811 O   0  0  0  0  0  0  0  0  0  0  0  0
  149.8537  138.9496  154.8127 C   0  0  0  0  0  0  0  0  0  0  0  0
  148.6611  138.5351  153.9342 C   0  0  0  0  0  0  0  0  0  0  0  0
  145.9060  138.5216  151.1742 H   0  0  0  0  0  0  0  0  0  0  0  0
  147.5611  138.1868  151.6579 H   0  0  0  0  0  0  0  0  0  0  0  0
  147.0064  139.8384  151.3822 H   0  0  0  0  0  0  0  0  0  0  0  0
  145.5699  139.7478  153.3759 H   0  0  0  0  0  0  0  0  0  0  0  0
  145.6938  137.5456  154.8119 H   0  0  0  0  0  0  0  0  0  0  0  0
  144.6190  137.5926  153.4298 H   0  0  0  0  0  0  0  0  0  0  0  0
  147.1984  136.6261  152.6720 H   0  0  0  0  0  0  0  0  0  0  0  0
  147.4427  134.7055  151.8248 H   0  0  0  0  0  0  0  0  0  0  0  0
  147.7861  133.6256  154.0407 H   0  0  0  0  0  0  0  0  0  0  0  0
  147.8426  132.4528  152.7322 H   0  0  0  0  0  0  0  0  0  0  0  0
  146.4124  132.5608  153.7507 H   0  0  0  0  0  0  0  0  0  0  0  0
  147.1961  132.1291  150.3809 H   0  0  0  0  0  0  0  0  0  0  0  0
  145.0709  131.5500  148.7717 H   0  0  0  0  0  0  0  0  0  0  0  0
  143.1068  133.2772  149.6880 H   0  0  0  0  0  0  0  0  0  0  0  0
  148.0945  140.9617  152.9396 H   0  0  0  0  0  0  0  0  0  0  0  0
  147.0413  141.4323  154.2575 H   0  0  0  0  0  0  0  0  0  0  0  0
  149.3502  142.1996  154.6601 H   0  0  0  0  0  0  0  0  0  0  0  0
  148.8062  141.1079  155.9205 H   0  0  0  0  0  0  0  0  0  0  0  0
  150.7271  138.3412  154.5771 H   0  0  0  0  0  0  0  0  0  0  0  0
  149.6291  138.7919  155.8688 H   0  0  0  0  0  0  0  0  0  0  0  0
  148.4501  137.4908  154.1572 H   0  0  0  0  0  0  0  0  0  0  0  0
  148.9514  138.5831  152.8835 H   0  0  0  0  0  0  0  0  0  0  0  0
  1  2  1  0  0  0  0
  1 20  1  0  0  0  0
  1 21  1  0  0  0  0
  1 22  1  0  0  0  0
  2  3  1  0  0  0  0
  2 14  1  0  0  0  0
  2 23  1  0  0  0  0
  3  4  1  0  0  0  0
  3 24  1  0  0  0  0
  3 25  1  0  0  0  0
  4  5  1  0  0  0  0
  4 26  1  0  0  0  0
  5  6  2  0  0  0  0
  5  7  1  0  0  0  0
  7  8  1  0  0  0  0
  7  9  1  0  0  0  0
  7 27  1  0  0  0  0
  8 28  1  0  0  0  0
  8 29  1  0  0  0  0
  8 30  1  0  0  0  0
  9 13  1  0  0  0  0
  9 10  1  0  0  0  0
 10 11  2  0  0  0  0
 10 31  1  0  0  0  0
 11 12  1  0  0  0  0
 11 32  1  0  0  0  0
 12 13  2  0  0  0  0
 12 33  1  0  0  0  0
 14 19  1  0  0  0  0
 14 15  1  0  0  0  0
 15 16  1  0  0  0  0
 15 34  1  0  0  0  0
 15 35  1  0  0  0  0
 16 17  1  0  0  0  0
 16 36  1  0  0  0  0
 16 37  1  0  0  0  0
 17 18  1  0  0  0  0
 18 19  1  0  0  0  0
 18 38  1  0  0  0  0
 18 39  1  0  0  0  0
 19 40  1  0  0  0  0
 19 41  1  0  0  0  0
M  END
> <s_m_source_file>
AV-unprocessed.smi

> <i_m_source_file_index>
1601

> <i_lp_mmshare_version>
43012

> <i_f3d_flags>
0

> <s_epik_input>
W0NIMl0xW0NIMl1PW0NIMl1bQ0gyXU4xW0NASF0oW0NIM10pW0NIMl1bTkhdQyg9TylbQ0BIXShbQ0gzXSluMltjSF1bY0hdW2NIXW4y

> <s_epik_cmdline>
J2VwaWtfcHl0aG9uJywgJy1waCcsICc3LjAnLCAnLXRuJywgJzgnLCAnLW1hJywgJzIwMCcsICctbWV0YWxfYmluZGluZycsICctaW1hZScsICc8aW5maWxlLm1hZT4nLCAnLW9tYWUnLCAnPG91dGZpbGUubWFlPic=

> <r_lp_tautomer_probability>
1

> <r_epik_Ionization_Penalty>
0.203323

> <r_epik_Ionization_Penalty_Charging>
0

> <r_epik_Ionization_Penalty_Neutral>
0.203323

> <r_epik_State_Penalty>
0.193192

> <r_epik_Charging_Adjusted_Penalty>
0.193192

> <i_epik_Tot_Q>
0

> <i_epik_Tot_abs_Q>
0

> <r_epik_Metal_State_Penalty>
0.193187

> <b_epik_Metal_Only>
0

> <s_lp_Force_Field>
OPLS_2005

> <r_lp_Energy>
33.1122

> <b_lp_Chiralities_Consistent>
1

> <s_lp_Variant>
AV-unprocessed.smi:1601-4

> <Gold.Version>
5.8.1

> <Gold.Id.Protein>
6NUR|6NUR_protein|mol2

> <Gold.PLP.Fitness>
41.6331

> <Gold.PLP.PLP>
-31.0414

> <Gold.PLP.part.hbond>
-2.0000

> <Gold.PLP.part.metal>
0.0000

> <Gold.PLP.part.buried>
0.9049

> <Gold.PLP.part.nonpolar>
-30.5045

> <Gold.PLP.part.repulsive>
0.4709

> <Gold.PLP.ligand.clash>
0.0000

> <Gold.PLP.ligand.torsion>
0.7527

> <Gold.PLP.Chemscore.Hbond>
2.0000

> <Gold.PLP.Chemscore.CHOScore>
2.0000

> <Gold.PLP.Chemscore.Metal>
0.0000

> <Gold.Chemscore.Hbonds>
donor molecule, donor type, donor heavy atom, donor atom, acceptor molecule, acceptor atom, score
      L1  H     4    26       P1  7948  1.00
      P1  H  7989  7998       L1    17  1.00
      L1  C    10    31       P1 10747  1.00
      L1  C    12    33       P1 10186  1.00

> <Gold.PLP.Chemscore.Internal.Correction>
0.0971

> <Gold.Rescore>
     Score         DG    S(hbond)    S(metal)    S(lipo)     H(rot)  DE(clash)    DE(int)     intcor
     13.36     -16.09       1.87        0.00      76.51       1.79       0.06       2.68       ----

> <Gold.Chemscore.Fitness>
13.3550

> <Gold.Chemscore.DG>
-16.0925

> <Gold.Chemscore.ZeroCoef>
-5.4800

> <Gold.Chemscore.Hbond>
1.8670

> <Gold.Chemscore.Metal>
0.0000

> <Gold.Chemscore.Lipo>
76.5131

> <Gold.Chemscore.Internal_Hbond>
0.0000

> <Gold.Chemscore.DEClash>
0.0582

> <Gold.Chemscore.DEInternal>
2.6793

> <Gold.Chemscore.Rot>
1.7872

> <Gold.Chemscore.Internal.Correction>
   9.000000E+99

> <Gold.Chemscore.Hbonds>
donor molecule, donor type, donor heavy atom, donor atom, acceptor molecule, acceptor atom, score
      L1  H     4    26       P1  7948  0.98
      P1  H  7989  7998       L1    17  0.93

> <Gold.Chemscore.Hbond.Weighted>
-6.2357

> <Gold.Chemscore.Metal.Weighted>
-0.0000

> <Gold.Chemscore.Lipo.Weighted>
-8.9520

> <Gold.Chemscore.Internal_Hbond.Weighted>
0.0000

> <Gold.Chemscore.DEClash.Weighted>
0.0582

> <Gold.Chemscore.DEInternal.Weighted>
2.6793

> <Gold.Chemscore.Rot.Weighted>
4.5752

> <Gold.Chemscore.Internal.Correction.Weighted>
   9.000000E+99

> <Gold.Protein.RotatedTorsions>
[ 6907 6896 6895 6894 ] final  144.66 input  -60.11 | X-H torsion
[ 7974 7965 7964 7962 ] final   40.43 input  175.53 | X-H torsion
[ 8008 7997 7996 7995 ] final -140.17 input   59.86 | X-H torsion
[ 10167 10162 10161 10158 ] final  172.28 input  -65.29 | X-H torsion
[ 10718 10713 10712 10709 ] final   51.89 input   66.30 | X-H torsion
[ 10763 10752 10751 10750 ] final  162.81 input  -60.55 | X-H torsion
[ 11005 11000 10999 10996 ] final   85.72 input  -57.11 | X-H torsion

> <Gold.Protein.ActiveResidues>
 VAL166  LYS551  ARG553  GLY616  TRP617  ASP618  TYR619  PRO620  LYS621  CYS622 
 ASP623  PHE694  ASN695  SER759  ASP760  ASP761  ALA762  ILE779  LEU786  VAL792 
 PHE793  MET794  SER795  GLU796  ALA797  LYS798  CYS799  TRP800  GLU811  SER814 

> <Gold.Protein.RotatedAtoms>
  152.1908  133.4772  159.5006 H   0  0  0  0  0  0  0  0  0  0  0  0  # atno 6907 bound_to 6896
  150.6951  134.1715  159.4223 H   0  0  0  0  0  0  0  0  0  0  0  0  # atno 6908 bound_to 6896
  151.9629  135.0114  160.0599 H   0  0  0  0  0  0  0  0  0  0  0  0  # atno 6909 bound_to 6896
  146.0905  139.5534  142.9479 H   0  0  0  0  0  0  0  0  0  0  0  0  # atno 7974 bound_to 7965
  155.4570  140.0543  157.2995 H   0  0  0  0  0  0  0  0  0  0  0  0  # atno 8008 bound_to 7997
  154.4753  140.2058  155.9848 H   0  0  0  0  0  0  0  0  0  0  0  0  # atno 8009 bound_to 7997
  156.1122  140.3202  155.8093 H   0  0  0  0  0  0  0  0  0  0  0  0  # atno 8010 bound_to 7997
  139.5071  144.3392  152.0035 H   0  0  0  0  0  0  0  0  0  0  0  0  # atno 10167 bound_to 10162
  157.5023  130.8446  149.8332 H   0  0  0  0  0  0  0  0  0  0  0  0  # atno 10718 bound_to 10713
  154.2841  135.2762  155.2684 H   0  0  0  0  0  0  0  0  0  0  0  0  # atno 10763 bound_to 10752
  154.5192  135.5761  153.6670 H   0  0  0  0  0  0  0  0  0  0  0  0  # atno 10764 bound_to 10752
  152.9924  135.6200  154.3002 H   0  0  0  0  0  0  0  0  0  0  0  0  # atno 10765 bound_to 10752
  139.8963  134.8306  156.2622 H   0  0  0  0  0  0  0  0  0  0  0  0  # atno 11005 bound_to 11000
  145.6047  141.0349  143.1999 LP  0  0  0  0  0  0  0  0  0  0  0  0  # atno 17320 bound_to 7965
  144.7357  139.7593  143.7330 LP  0  0  0  0  0  0  0  0  0  0  0  0  # atno 17321 bound_to 7965
  140.2830  144.3838  150.6113 LP  0  0  0  0  0  0  0  0  0  0  0  0  # atno 17342 bound_to 10162
  140.6004  143.2167  151.7084 LP  0  0  0  0  0  0  0  0  0  0  0  0  # atno 17343 bound_to 10162
  156.0237  130.3787  150.1886 LP  0  0  0  0  0  0  0  0  0  0  0  0  # atno 17370 bound_to 10713
  157.0076  130.9941  151.3374 LP  0  0  0  0  0  0  0  0  0  0  0  0  # atno 17371 bound_to 10713
  141.0155  133.7071  156.1182 LP  0  0  0  0  0  0  0  0  0  0  0  0  # atno 17394 bound_to 11000
  140.7307  134.4257  157.5566 LP  0  0  0  0  0  0  0  0  0  0  0  0  # atno 17395 bound_to 11000

$$$$
