AV-unprocessed.smi:3296|AV-procd|sdf|12637|dock1
  -GOLD-   2272018573D 1   1.00000     0.00000
 Structure written by MMmdl.
 37 38  0  0  0  0  0  0  0  0  1 V2000
  150.2184  134.6862  154.8074 C   0  0  0  0  0  0  0  0  0  0  0  0
  150.3335  135.9913  154.1757 N   0  0  0  0  0  0  0  0  0  0  0  0
  151.1931  136.9451  154.5636 C   0  0  0  0  0  0  0  0  0  0  0  0
  151.9657  136.8144  155.5128 O   0  0  0  0  0  0  0  0  0  0  0  0
  151.1808  138.2469  153.7607 C   0  0  0  0  0  0  0  0  0  0  0  0
  150.5531  139.3050  154.6098 C   0  0  0  0  0  0  0  0  0  0  0  0
  151.2257  140.3473  155.1068 N   0  0  0  0  0  0  0  0  0  0  0  0
  150.4216  141.1879  155.8821 C   0  0  0  0  0  0  0  0  0  0  0  0
  151.0181  142.3955  156.5385 C   0  0  0  0  0  0  0  0  0  0  0  0
  151.8392  142.0297  157.7852 C   0  0  0  0  0  0  0  0  0  0  0  0
  152.2212  143.2481  158.6443 C   0  0  0  0  0  0  0  0  0  0  0  0
  152.3014  142.9351  160.1394 C   0  0  0  0  0  0  0  0  0  0  0  0
  152.2414  144.3041  160.8183 C   0  0  0  0  0  0  0  0  0  0  0  0
  151.4106  145.1975  159.8861 C   0  0  0  0  0  0  0  0  0  0  0  0
  151.2209  144.4093  158.5821 C   0  0  0  0  0  0  0  0  0  0  0  0
  149.1161  140.7705  155.9567 C   0  0  0  0  0  0  0  0  0  0  0  0
  148.8504  139.3022  155.0581 S   0  0  0  0  0  0  0  0  0  0  0  0
  149.4426  134.1011  154.3137 H   0  0  0  0  0  0  0  0  0  0  0  0
  149.9532  134.7857  155.8608 H   0  0  0  0  0  0  0  0  0  0  0  0
  151.1577  134.1367  154.7343 H   0  0  0  0  0  0  0  0  0  0  0  0
  149.7354  136.1771  153.3833 H   0  0  0  0  0  0  0  0  0  0  0  0
  152.1946  138.5389  153.4832 H   0  0  0  0  0  0  0  0  0  0  0  0
  150.6054  138.1249  152.8423 H   0  0  0  0  0  0  0  0  0  0  0  0
  151.6528  142.9272  155.8286 H   0  0  0  0  0  0  0  0  0  0  0  0
  150.2263  143.0932  156.8123 H   0  0  0  0  0  0  0  0  0  0  0  0
  151.2851  141.3108  158.3904 H   0  0  0  0  0  0  0  0  0  0  0  0
  152.7521  141.5216  157.4712 H   0  0  0  0  0  0  0  0  0  0  0  0
  153.1983  143.6167  158.3268 H   0  0  0  0  0  0  0  0  0  0  0  0
  151.4400  142.3386  160.4440 H   0  0  0  0  0  0  0  0  0  0  0  0
  153.2008  142.3782  160.4038 H   0  0  0  0  0  0  0  0  0  0  0  0
  151.8207  144.2460  161.8226 H   0  0  0  0  0  0  0  0  0  0  0  0
  153.2496  144.7102  160.9088 H   0  0  0  0  0  0  0  0  0  0  0  0
  150.4442  145.4414  160.3286 H   0  0  0  0  0  0  0  0  0  0  0  0
  151.9308  146.1382  159.7018 H   0  0  0  0  0  0  0  0  0  0  0  0
  151.3681  145.0335  157.7002 H   0  0  0  0  0  0  0  0  0  0  0  0
  150.2019  144.0219  158.5413 H   0  0  0  0  0  0  0  0  0  0  0  0
  148.2982  141.2341  156.4879 H   0  0  0  0  0  0  0  0  0  0  0  0
  1  2  1  0  0  0  0
  1 18  1  0  0  0  0
  1 19  1  0  0  0  0
  1 20  1  0  0  0  0
  2  3  1  0  0  0  0
  2 21  1  0  0  0  0
  3  4  2  0  0  0  0
  3  5  1  0  0  0  0
  5  6  1  0  0  0  0
  5 22  1  0  0  0  0
  5 23  1  0  0  0  0
  6 17  1  0  0  0  0
  6  7  2  0  0  0  0
  7  8  1  0  0  0  0
  8  9  1  0  0  0  0
  8 16  2  0  0  0  0
  9 10  1  0  0  0  0
  9 24  1  0  0  0  0
  9 25  1  0  0  0  0
 10 11  1  0  0  0  0
 10 26  1  0  0  0  0
 10 27  1  0  0  0  0
 11 15  1  0  0  0  0
 11 12  1  0  0  0  0
 11 28  1  0  0  0  0
 12 13  1  0  0  0  0
 12 29  1  0  0  0  0
 12 30  1  0  0  0  0
 13 14  1  0  0  0  0
 13 31  1  0  0  0  0
 13 32  1  0  0  0  0
 14 15  1  0  0  0  0
 14 33  1  0  0  0  0
 14 34  1  0  0  0  0
 15 35  1  0  0  0  0
 15 36  1  0  0  0  0
 16 17  1  0  0  0  0
 16 37  1  0  0  0  0
M  END
> <s_m_source_file>
AV-unprocessed.smi

> <i_m_source_file_index>
3296

> <i_lp_mmshare_version>
43012

> <i_f3d_flags>
0

> <s_epik_input>
W0NIM11bTkhdQyg9TylbQ0gyXWMxbmMoW2NIXXMxKVtDSDJdW0NIMl1bQ0hdMltDSDJdW0NIMl1bQ0gyXVtDSDJdMg==

> <s_epik_cmdline>
J2VwaWtfcHl0aG9uJywgJy1waCcsICc3LjAnLCAnLXRuJywgJzgnLCAnLW1hJywgJzIwMCcsICctbWV0YWxfYmluZGluZycsICctaW1hZScsICc8aW5maWxlLm1hZT4nLCAnLW9tYWUnLCAnPG91dGZpbGUubWFlPic=

> <r_lp_tautomer_probability>
1

> <r_epik_Ionization_Penalty>
6.30814e-05

> <r_epik_Ionization_Penalty_Charging>
0

> <r_epik_Ionization_Penalty_Neutral>
6.30814e-05

> <r_epik_State_Penalty>
-0

> <r_epik_Charging_Adjusted_Penalty>
0

> <i_epik_Tot_Q>
0

> <i_epik_Tot_abs_Q>
0

> <r_epik_Metal_State_Penalty>
-0

> <b_epik_Metal_Only>
0

> <s_lp_Force_Field>
OPLS_2005

> <r_lp_Energy>
17.2937

> <b_lp_Chiralities_Consistent>
1

> <s_lp_Variant>
AV-unprocessed.smi:3296-1

> <Gold.Version>
5.8.1

> <Gold.Id.Protein>
6NUR|6NUR_protein|mol2

> <Gold.PLP.Fitness>
46.3621

> <Gold.PLP.PLP>
-39.9467

> <Gold.PLP.part.hbond>
-3.7455

> <Gold.PLP.part.metal>
0.0000

> <Gold.PLP.part.buried>
-5.3503

> <Gold.PLP.part.nonpolar>
-31.0203

> <Gold.PLP.part.repulsive>
0.1345

> <Gold.PLP.ligand.clash>
0.0000

> <Gold.PLP.ligand.torsion>
0.8544

> <Gold.PLP.Chemscore.Hbond>
2.7000

> <Gold.PLP.Chemscore.CHOScore>
0.0000

> <Gold.PLP.Chemscore.Metal>
0.0000

> <Gold.Chemscore.Hbonds>
donor molecule, donor type, donor heavy atom, donor atom, acceptor molecule, acceptor atom, score
      L1  H     2    21       P1  7948  0.90
      P1  H  7989  7998       L1     7  0.55
      P1  H 10752 10764       L1     4  0.88

> <Gold.PLP.Chemscore.Internal.Correction>
0.0242

> <Gold.Rescore>
     Score         DG    S(hbond)    S(metal)    S(lipo)     H(rot)  DE(clash)    DE(int)     intcor
     19.42     -20.55       1.83        0.00     113.30       1.68       0.24       0.89       ----

> <Gold.Chemscore.Fitness>
19.4224

> <Gold.Chemscore.DG>
-20.5499

> <Gold.Chemscore.ZeroCoef>
-5.4800

> <Gold.Chemscore.Hbond>
1.8302

> <Gold.Chemscore.Metal>
0.0000

> <Gold.Chemscore.Lipo>
113.2969

> <Gold.Chemscore.Internal_Hbond>
0.0000

> <Gold.Chemscore.DEClash>
0.2423

> <Gold.Chemscore.DEInternal>
0.8852

> <Gold.Chemscore.Rot>
1.6792

> <Gold.Chemscore.Internal.Correction>
   9.000000E+99

> <Gold.Chemscore.Hbonds>
donor molecule, donor type, donor heavy atom, donor atom, acceptor molecule, acceptor atom, score
      L1  H     2    21       P1  7948  0.18
      P1  H  7989  7998       L1     7  0.03
      P1  H 10752 10764       L1     4  0.52

> <Gold.Chemscore.Hbond.Weighted>
-6.1130

> <Gold.Chemscore.Metal.Weighted>
-0.0000

> <Gold.Chemscore.Lipo.Weighted>
-13.2557

> <Gold.Chemscore.Internal_Hbond.Weighted>
0.0000

> <Gold.Chemscore.DEClash.Weighted>
0.2423

> <Gold.Chemscore.DEInternal.Weighted>
0.8852

> <Gold.Chemscore.Rot.Weighted>
4.2988

> <Gold.Chemscore.Internal.Correction.Weighted>
   9.000000E+99

> <Gold.Protein.RotatedTorsions>
[ 6907 6896 6895 6894 ] final  -52.14 input  -60.11 | X-H torsion
[ 7974 7965 7964 7962 ] final  -92.60 input  175.53 | X-H torsion
[ 8008 7997 7996 7995 ] final   48.40 input   59.86 | X-H torsion
[ 10167 10162 10161 10158 ] final   70.84 input  -65.29 | X-H torsion
[ 10718 10713 10712 10709 ] final -124.50 input   66.30 | X-H torsion
[ 10763 10752 10751 10750 ] final  -28.11 input  -60.55 | X-H torsion
[ 11005 11000 10999 10996 ] final  132.62 input  -57.11 | X-H torsion

> <Gold.Protein.ActiveResidues>
 VAL166  LYS551  ARG553  GLY616  TRP617  ASP618  TYR619  PRO620  LYS621  CYS622 
 ASP623  PHE694  ASN695  SER759  ASP760  ASP761  ALA762  ILE779  LEU786  VAL792 
 PHE793  MET794  SER795  GLU796  ALA797  LYS798  CYS799  TRP800  GLU811  SER814 

> <Gold.Protein.RotatedAtoms>
  150.8545  134.7880  159.7034 H   0  0  0  0  0  0  0  0  0  0  0  0  # atno 6907 bound_to 6896
  152.4601  134.5201  159.9789 H   0  0  0  0  0  0  0  0  0  0  0  0  # atno 6908 bound_to 6896
  151.5315  133.3410  159.2955 H   0  0  0  0  0  0  0  0  0  0  0  0  # atno 6909 bound_to 6896
  145.3976  140.9534  143.2305 H   0  0  0  0  0  0  0  0  0  0  0  0  # atno 7974 bound_to 7965
  155.3849  140.3430  155.4248 H   0  0  0  0  0  0  0  0  0  0  0  0  # atno 8008 bound_to 7997
  156.1590  140.1594  156.8678 H   0  0  0  0  0  0  0  0  0  0  0  0  # atno 8009 bound_to 7997
  154.5121  140.0787  156.7992 H   0  0  0  0  0  0  0  0  0  0  0  0  # atno 8010 bound_to 7997
  140.0525  144.5300  150.7352 H   0  0  0  0  0  0  0  0  0  0  0  0  # atno 10167 bound_to 10162
  156.1593  130.6590  151.0027 H   0  0  0  0  0  0  0  0  0  0  0  0  # atno 10718 bound_to 10713
  153.7431  135.6931  153.4962 H   0  0  0  0  0  0  0  0  0  0  0  0  # atno 10763 bound_to 10752
  153.2055  135.4421  155.0317 H   0  0  0  0  0  0  0  0  0  0  0  0  # atno 10764 bound_to 10752
  154.8214  135.3424  154.6955 H   0  0  0  0  0  0  0  0  0  0  0  0  # atno 10765 bound_to 10752
  139.9801  134.9551  156.9609 H   0  0  0  0  0  0  0  0  0  0  0  0  # atno 11005 bound_to 11000
  144.8396  139.5493  143.6906 LP  0  0  0  0  0  0  0  0  0  0  0  0  # atno 17320 bound_to 7965
  146.2767  139.6772  142.9258 LP  0  0  0  0  0  0  0  0  0  0  0  0  # atno 17321 bound_to 7965
  140.7210  143.2589  151.4279 LP  0  0  0  0  0  0  0  0  0  0  0  0  # atno 17342 bound_to 10162
  139.5944  144.1430  152.2126 LP  0  0  0  0  0  0  0  0  0  0  0  0  # atno 17343 bound_to 10162
  157.6720  131.0859  150.7589 LP  0  0  0  0  0  0  0  0  0  0  0  0  # atno 17370 bound_to 10713
  156.7652  130.4811  149.5429 LP  0  0  0  0  0  0  0  0  0  0  0  0  # atno 17371 bound_to 10713
  140.5113  134.0999  155.7271 LP  0  0  0  0  0  0  0  0  0  0  0  0  # atno 17394 bound_to 11000
  141.1474  133.9030  157.2181 LP  0  0  0  0  0  0  0  0  0  0  0  0  # atno 17395 bound_to 11000

$$$$
