AV-unprocessed.smi:1641|AV-procd|sdf|6557|dock5
  -GOLD-   22720 7243D 1   1.00000     0.00000
 Structure written by MMmdl.
 41 42  0  0  0  0  0  0  0  0  1 V2000
  137.8571  136.9304  153.8209 C   0  0  0  0  0  0  0  0  0  0  0  0
  139.3446  137.0125  153.8654 C   0  0  0  0  0  0  0  0  0  0  0  0
  140.1103  136.0183  154.3312 N   0  0  0  0  0  0  0  0  0  0  0  0
  141.4626  136.3247  154.2731 N   0  0  0  0  0  0  0  0  0  0  0  0
  141.6773  137.5453  153.7631 C   0  0  0  0  0  0  0  0  0  0  0  0
  142.9671  138.1134  153.5907 N   0  0  0  0  0  0  0  0  0  0  0  0
  144.1531  137.6210  153.9886 C   0  0  0  0  0  0  0  0  0  0  0  0
  144.3187  136.5420  154.5580 O   0  0  0  0  0  0  0  0  0  0  0  0
  145.1530  138.4624  153.6871 N   0  0  0  0  0  0  0  0  0  0  0  0
  146.5579  138.2616  154.0307 C   0  0  0  0  0  0  0  0  0  0  0  0
  147.0523  139.3273  155.0283 C   0  0  0  0  0  0  0  0  0  0  0  0
  148.4955  139.3454  155.2664 N   0  0  0  0  0  0  0  0  0  0  0  0
  149.2689  139.0096  154.0730 C   0  0  0  0  0  0  0  0  0  0  0  0
  150.7886  139.0276  154.3308 C   0  0  2  0  0  0  0  0  0  0  0  0
  151.2785  137.8275  155.1601 C   0  0  0  0  0  0  0  0  0  0  0  0
  151.1747  140.2723  154.9170 O   0  0  0  0  0  0  0  0  0  0  0  0
  150.4423  140.6493  156.0817 C   0  0  1  0  0  0  0  0  0  0  0  0
  150.9305  142.0322  156.5259 C   0  0  0  0  0  0  0  0  0  0  0  0
  148.9357  140.6410  155.7647 C   0  0  0  0  0  0  0  0  0  0  0  0
  140.2293  138.4300  153.3148 S   0  0  0  0  0  0  0  0  0  0  0  0
  137.5361  135.8956  153.6991 H   0  0  0  0  0  0  0  0  0  0  0  0
  137.4729  137.5143  152.9844 H   0  0  0  0  0  0  0  0  0  0  0  0
  137.4353  137.3228  154.7462 H   0  0  0  0  0  0  0  0  0  0  0  0
  142.9876  139.0062  153.1208 H   0  0  0  0  0  0  0  0  0  0  0  0
  144.9225  139.3232  153.2131 H   0  0  0  0  0  0  0  0  0  0  0  0
  146.7413  137.2508  154.3968 H   0  0  0  0  0  0  0  0  0  0  0  0
  147.1331  138.3483  153.1088 H   0  0  0  0  0  0  0  0  0  0  0  0
  146.7270  140.3124  154.6909 H   0  0  0  0  0  0  0  0  0  0  0  0
  146.5385  139.1549  155.9752 H   0  0  0  0  0  0  0  0  0  0  0  0
  148.9868  138.0289  153.6928 H   0  0  0  0  0  0  0  0  0  0  0  0
  149.0370  139.7223  153.2801 H   0  0  0  0  0  0  0  0  0  0  0  0
  151.2923  138.9741  153.3655 H   0  0  0  0  0  0  0  0  0  0  0  0
  151.0808  136.8908  154.6385 H   0  0  0  0  0  0  0  0  0  0  0  0
  150.7835  137.7675  156.1293 H   0  0  0  0  0  0  0  0  0  0  0  0
  152.3528  137.8872  155.3352 H   0  0  0  0  0  0  0  0  0  0  0  0
  150.6494  139.9396  156.8832 H   0  0  0  0  0  0  0  0  0  0  0  0
  150.4141  142.3592  157.4289 H   0  0  0  0  0  0  0  0  0  0  0  0
  150.7575  142.7797  155.7512 H   0  0  0  0  0  0  0  0  0  0  0  0
  151.9989  142.0166  156.7420 H   0  0  0  0  0  0  0  0  0  0  0  0
  148.7103  141.4153  155.0294 H   0  0  0  0  0  0  0  0  0  0  0  0
  148.3795  140.8972  156.6674 H   0  0  0  0  0  0  0  0  0  0  0  0
  1  2  1  0  0  0  0
  1 21  1  0  0  0  0
  1 22  1  0  0  0  0
  1 23  1  0  0  0  0
  2 20  1  0  0  0  0
  2  3  2  0  0  0  0
  3  4  1  0  0  0  0
  4  5  2  0  0  0  0
  5  6  1  0  0  0  0
  5 20  1  0  0  0  0
  6  7  1  0  0  0  0
  6 24  1  0  0  0  0
  7  8  2  0  0  0  0
  7  9  1  0  0  0  0
  9 10  1  0  0  0  0
  9 25  1  0  0  0  0
 10 11  1  0  0  0  0
 10 26  1  0  0  0  0
 10 27  1  0  0  0  0
 11 12  1  0  0  0  0
 11 28  1  0  0  0  0
 11 29  1  0  0  0  0
 12 19  1  0  0  0  0
 12 13  1  0  0  0  0
 13 14  1  0  0  0  0
 13 30  1  0  0  0  0
 13 31  1  0  0  0  0
 14 15  1  0  0  0  0
 14 16  1  0  0  0  0
 14 32  1  0  0  0  0
 15 33  1  0  0  0  0
 15 34  1  0  0  0  0
 15 35  1  0  0  0  0
 16 17  1  0  0  0  0
 17 18  1  0  0  0  0
 17 19  1  0  0  0  0
 17 36  1  0  0  0  0
 18 37  1  0  0  0  0
 18 38  1  0  0  0  0
 18 39  1  0  0  0  0
 19 40  1  0  0  0  0
 19 41  1  0  0  0  0
M  END
> <s_m_source_file>
AV-unprocessed.smi

> <i_m_source_file_index>
1641

> <i_lp_mmshare_version>
43012

> <i_f3d_flags>
0

> <s_epik_input>
W0NIM11jMW5uYyhzMSlbTkhdQyg9TylbTkhdW0NIMl1bQ0gyXU4yW0NIMl1bQ0BASF0oW0NIM10pT1tDQEBIXShbQ0gzXSlbQ0gyXTI=

> <s_epik_cmdline>
J2VwaWtfcHl0aG9uJywgJy1waCcsICc3LjAnLCAnLXRuJywgJzgnLCAnLW1hJywgJzIwMCcsICctbWV0YWxfYmluZGluZycsICctaW1hZScsICc8aW5maWxlLm1hZT4nLCAnLW9tYWUnLCAnPG91dGZpbGUubWFlPic=

> <r_lp_tautomer_probability>
1

> <r_epik_Ionization_Penalty>
0.221104

> <r_epik_Ionization_Penalty_Charging>
0

> <r_epik_Ionization_Penalty_Neutral>
0.221104

> <r_epik_State_Penalty>
0.209349

> <r_epik_Charging_Adjusted_Penalty>
0.209349

> <i_epik_Tot_Q>
0

> <i_epik_Tot_abs_Q>
0

> <r_epik_Metal_State_Penalty>
0.560954

> <b_epik_Metal_Only>
0

> <s_lp_Force_Field>
OPLS_2005

> <r_lp_Energy>
24.8312

> <b_lp_Chiralities_Consistent>
1

> <s_lp_Variant>
AV-unprocessed.smi:1641-2

> <Gold.Version>
5.8.1

> <Gold.Id.Protein>
6NUR|6NUR_protein|mol2

> <Gold.PLP.Fitness>
41.3896

> <Gold.PLP.PLP>
-29.9924

> <Gold.PLP.part.hbond>
-4.0519

> <Gold.PLP.part.metal>
0.0000

> <Gold.PLP.part.buried>
-4.6116

> <Gold.PLP.part.nonpolar>
-20.2392

> <Gold.PLP.part.repulsive>
0.2399

> <Gold.PLP.ligand.clash>
0.0000

> <Gold.PLP.ligand.torsion>
0.3038

> <Gold.PLP.Chemscore.Hbond>
4.0000

> <Gold.PLP.Chemscore.CHOScore>
0.0000

> <Gold.PLP.Chemscore.Metal>
0.0000

> <Gold.Chemscore.Hbonds>
donor molecule, donor type, donor heavy atom, donor atom, acceptor molecule, acceptor atom, score
      L1  H     6    24       P1 10175  1.00
      L1  H     9    25       P1 10175  1.00
      P1  H  7989  7998       L1    16  0.65
      P1  H 11000 11005       L1     3  0.86

> <Gold.PLP.Chemscore.Internal.Correction>
0.0049

> <Gold.Rescore>
     Score         DG    S(hbond)    S(metal)    S(lipo)     H(rot)  DE(clash)    DE(int)     intcor
     17.33     -19.09       3.10        0.00      62.93       1.60       0.04       1.72       ----

> <Gold.Chemscore.Fitness>
17.3303

> <Gold.Chemscore.DG>
-19.0923

> <Gold.Chemscore.ZeroCoef>
-5.4800

> <Gold.Chemscore.Hbond>
3.0955

> <Gold.Chemscore.Metal>
0.0000

> <Gold.Chemscore.Lipo>
62.9299

> <Gold.Chemscore.Internal_Hbond>
0.0000

> <Gold.Chemscore.DEClash>
0.0431

> <Gold.Chemscore.DEInternal>
1.7190

> <Gold.Chemscore.Rot>
1.5975

> <Gold.Chemscore.Internal.Correction>
   9.000000E+99

> <Gold.Chemscore.Hbonds>
donor molecule, donor type, donor heavy atom, donor atom, acceptor molecule, acceptor atom, score
      L1  H     6    24       P1 10175  1.00
      L1  H     9    25       P1 10175  0.94
      P1  H  7989  7998       L1    16  0.05
      P1  H 11000 11005       L1     3  0.29

> <Gold.Chemscore.Hbond.Weighted>
-10.3391

> <Gold.Chemscore.Metal.Weighted>
-0.0000

> <Gold.Chemscore.Lipo.Weighted>
-7.3628

> <Gold.Chemscore.Internal_Hbond.Weighted>
0.0000

> <Gold.Chemscore.DEClash.Weighted>
0.0431

> <Gold.Chemscore.DEInternal.Weighted>
1.7190

> <Gold.Chemscore.Rot.Weighted>
4.0896

> <Gold.Chemscore.Internal.Correction.Weighted>
   9.000000E+99

> <Gold.Protein.RotatedTorsions>
[ 6907 6896 6895 6894 ] final -122.18 input  -60.11 | X-H torsion
[ 7974 7965 7964 7962 ] final  145.11 input  175.53 | X-H torsion
[ 8008 7997 7996 7995 ] final   85.27 input   59.86 | X-H torsion
[ 10167 10162 10161 10158 ] final  -74.76 input  -65.29 | X-H torsion
[ 10718 10713 10712 10709 ] final -109.97 input   66.30 | X-H torsion
[ 10763 10752 10751 10750 ] final  -14.24 input  -60.55 | X-H torsion
[ 11005 11000 10999 10996 ] final   59.90 input  -57.11 | X-H torsion

> <Gold.Protein.ActiveResidues>
 VAL166  LYS551  ARG553  GLY616  TRP617  ASP618  TYR619  PRO620  LYS621  CYS622 
 ASP623  PHE694  ASN695  SER759  ASP760  ASP761  ALA762  ILE779  LEU786  VAL792 
 PHE793  MET794  SER795  GLU796  ALA797  LYS798  CYS799  TRP800  GLU811  SER814 

> <Gold.Protein.RotatedAtoms>
  150.8552  133.7726  159.3011 H   0  0  0  0  0  0  0  0  0  0  0  0  # atno 6907 bound_to 6896
  151.5386  135.1067  159.9930 H   0  0  0  0  0  0  0  0  0  0  0  0  # atno 6908 bound_to 6896
  152.4584  133.7727  159.6864 H   0  0  0  0  0  0  0  0  0  0  0  0  # atno 6909 bound_to 6896
  144.8780  139.5743  143.5856 H   0  0  0  0  0  0  0  0  0  0  0  0  # atno 7974 bound_to 7965
  155.9479  140.3403  155.6382 H   0  0  0  0  0  0  0  0  0  0  0  0  # atno 8008 bound_to 7997
  155.6958  140.0754  157.2448 H   0  0  0  0  0  0  0  0  0  0  0  0  # atno 8009 bound_to 7997
  154.4115  140.1649  156.2123 H   0  0  0  0  0  0  0  0  0  0  0  0  # atno 8010 bound_to 7997
  140.4999  143.2363  151.7769 H   0  0  0  0  0  0  0  0  0  0  0  0  # atno 10167 bound_to 10162
  156.0565  130.5791  150.8173 H   0  0  0  0  0  0  0  0  0  0  0  0  # atno 10718 bound_to 10713
  153.5253  135.7015  153.5711 H   0  0  0  0  0  0  0  0  0  0  0  0  # atno 10763 bound_to 10752
  153.3742  135.3937  155.1810 H   0  0  0  0  0  0  0  0  0  0  0  0  # atno 10764 bound_to 10752
  154.8690  135.3819  154.4745 H   0  0  0  0  0  0  0  0  0  0  0  0  # atno 10765 bound_to 10752
  140.0271  134.6067  155.9558 H   0  0  0  0  0  0  0  0  0  0  0  0  # atno 11005 bound_to 11000
  146.2975  139.7324  142.9116 LP  0  0  0  0  0  0  0  0  0  0  0  0  # atno 17320 bound_to 7965
  145.4007  141.0385  143.3072 LP  0  0  0  0  0  0  0  0  0  0  0  0  # atno 17321 bound_to 7965
  139.4870  144.4535  151.9625 LP  0  0  0  0  0  0  0  0  0  0  0  0  # atno 17342 bound_to 10162
  140.3624  144.2956  150.5931 LP  0  0  0  0  0  0  0  0  0  0  0  0  # atno 17343 bound_to 10162
  157.5540  131.0944  150.9655 LP  0  0  0  0  0  0  0  0  0  0  0  0  # atno 17370 bound_to 10713
  156.9908  130.5562  149.5303 LP  0  0  0  0  0  0  0  0  0  0  0  0  # atno 17371 bound_to 10713
  141.1809  133.6546  156.5016 LP  0  0  0  0  0  0  0  0  0  0  0  0  # atno 17394 bound_to 11000
  140.4289  134.7120  157.4931 LP  0  0  0  0  0  0  0  0  0  0  0  0  # atno 17395 bound_to 11000

$$$$
