AV-unprocessed.smi:951|AV-procd|sdf|4252|dock7
  -GOLD-   22720 2163D 1   1.00000     0.00000
 Structure written by MMmdl.
 51 53  0  0  0  0  0  0  0  0  1 V2000
  152.4772  140.3788  155.2885 O   0  0  0  0  0  0  0  0  0  0  0  0
  151.3505  140.1561  155.7338 C   0  0  0  0  0  0  0  0  0  0  0  0
  151.0531  139.0773  156.4718 N   0  0  0  0  0  0  0  0  0  0  0  0
  152.0049  138.0320  156.8199 C   0  0  0  0  0  0  0  0  0  0  0  0
  151.3367  136.9606  157.6927 C   0  0  0  0  0  0  0  0  0  0  0  0
  150.6499  135.8909  156.8647 C   0  0  0  0  0  0  0  0  0  0  0  0
  150.8195  135.8432  155.4643 C   0  0  0  0  0  0  0  0  0  0  0  0
  150.1636  134.8265  154.7435 C   0  0  0  0  0  0  0  0  0  0  0  0
  149.3691  133.9007  155.4469 C   0  0  0  0  0  0  0  0  0  0  0  0
  149.2658  134.0330  156.8462 C   0  0  0  0  0  0  0  0  0  0  0  0
  149.8895  135.0047  157.5467 N   0  0  0  0  0  0  0  0  0  0  0  0
  150.1968  141.1451  155.4753 C   0  0  1  0  0  0  0  0  0  0  0  0
  149.0945  140.4516  154.6592 C   0  0  0  0  0  0  0  0  0  0  0  0
  147.8140  141.1456  155.0771 C   0  0  0  0  0  0  0  0  0  0  0  0
  148.0642  141.5795  156.5201 C   0  0  0  0  0  0  0  0  0  0  0  0
  149.5196  141.6499  156.6880 N   0  0  0  0  0  0  0  0  0  0  0  0
  150.1420  142.1887  157.7693 C   0  0  0  0  0  0  0  0  0  0  0  0
  149.5143  142.5314  158.7718 O   0  0  0  0  0  0  0  0  0  0  0  0
  151.6805  142.3704  157.7539 C   0  0  0  0  0  0  0  0  0  0  0  0
  152.3866  141.4133  158.7427 C   0  0  0  0  0  0  0  0  0  0  0  0
  152.2780  141.8675  160.2091 C   0  0  0  0  0  0  0  0  0  0  0  0
  152.8158  143.2948  160.3844 C   0  0  0  0  0  0  0  0  0  0  0  0
  152.0774  144.2819  159.4693 C   0  0  0  0  0  0  0  0  0  0  0  0
  152.1278  143.8354  157.9941 C   0  0  0  0  0  0  0  0  0  0  0  0
  150.1061  138.9703  156.8053 H   0  0  0  0  0  0  0  0  0  0  0  0
  152.3951  137.5788  155.9070 H   0  0  0  0  0  0  0  0  0  0  0  0
  152.8506  138.4758  157.3479 H   0  0  0  0  0  0  0  0  0  0  0  0
  152.0786  136.4859  158.3368 H   0  0  0  0  0  0  0  0  0  0  0  0
  150.6054  137.4237  158.3567 H   0  0  0  0  0  0  0  0  0  0  0  0
  151.4384  136.5661  154.9526 H   0  0  0  0  0  0  0  0  0  0  0  0
  150.2686  134.7577  153.6708 H   0  0  0  0  0  0  0  0  0  0  0  0
  148.8522  133.1077  154.9273 H   0  0  0  0  0  0  0  0  0  0  0  0
  148.6665  133.3402  157.4181 H   0  0  0  0  0  0  0  0  0  0  0  0
  150.5676  142.0126  154.9258 H   0  0  0  0  0  0  0  0  0  0  0  0
  149.2685  140.5148  153.5845 H   0  0  0  0  0  0  0  0  0  0  0  0
  149.0177  139.3936  154.9172 H   0  0  0  0  0  0  0  0  0  0  0  0
  147.6667  142.0293  154.4547 H   0  0  0  0  0  0  0  0  0  0  0  0
  146.9315  140.5141  154.9709 H   0  0  0  0  0  0  0  0  0  0  0  0
  147.5740  142.5309  156.7313 H   0  0  0  0  0  0  0  0  0  0  0  0
  147.6632  140.8280  157.2015 H   0  0  0  0  0  0  0  0  0  0  0  0
  152.0419  142.1309  156.7557 H   0  0  0  0  0  0  0  0  0  0  0  0
  151.9872  140.4031  158.6447 H   0  0  0  0  0  0  0  0  0  0  0  0
  153.4408  141.3412  158.4724 H   0  0  0  0  0  0  0  0  0  0  0  0
  151.2410  141.8194  160.5429 H   0  0  0  0  0  0  0  0  0  0  0  0
  152.8361  141.1828  160.8484 H   0  0  0  0  0  0  0  0  0  0  0  0
  152.7148  143.6060  161.4245 H   0  0  0  0  0  0  0  0  0  0  0  0
  153.8826  143.3140  160.1581 H   0  0  0  0  0  0  0  0  0  0  0  0
  151.0456  144.3875  159.8029 H   0  0  0  0  0  0  0  0  0  0  0  0
  152.5221  145.2726  159.5651 H   0  0  0  0  0  0  0  0  0  0  0  0
  153.1520  143.9467  157.6362 H   0  0  0  0  0  0  0  0  0  0  0  0
  151.5297  144.5158  157.3863 H   0  0  0  0  0  0  0  0  0  0  0  0
  1  2  2  0  0  0  0
  2  3  1  0  0  0  0
  2 12  1  0  0  0  0
  3  4  1  0  0  0  0
  3 25  1  0  0  0  0
  4  5  1  0  0  0  0
  4 26  1  0  0  0  0
  4 27  1  0  0  0  0
  5  6  1  0  0  0  0
  5 28  1  0  0  0  0
  5 29  1  0  0  0  0
  6 11  1  0  0  0  0
  6  7  2  0  0  0  0
  7  8  1  0  0  0  0
  7 30  1  0  0  0  0
  8  9  2  0  0  0  0
  8 31  1  0  0  0  0
  9 10  1  0  0  0  0
  9 32  1  0  0  0  0
 10 11  2  0  0  0  0
 10 33  1  0  0  0  0
 12 16  1  0  0  0  0
 12 13  1  0  0  0  0
 12 34  1  0  0  0  0
 13 14  1  0  0  0  0
 13 35  1  0  0  0  0
 13 36  1  0  0  0  0
 14 15  1  0  0  0  0
 14 37  1  0  0  0  0
 14 38  1  0  0  0  0
 15 16  1  0  0  0  0
 15 39  1  0  0  0  0
 15 40  1  0  0  0  0
 16 17  1  0  0  0  0
 17 18  2  0  0  0  0
 17 19  1  0  0  0  0
 19 24  1  0  0  0  0
 19 20  1  0  0  0  0
 19 41  1  0  0  0  0
 20 21  1  0  0  0  0
 20 42  1  0  0  0  0
 20 43  1  0  0  0  0
 21 22  1  0  0  0  0
 21 44  1  0  0  0  0
 21 45  1  0  0  0  0
 22 23  1  0  0  0  0
 22 46  1  0  0  0  0
 22 47  1  0  0  0  0
 23 24  1  0  0  0  0
 23 48  1  0  0  0  0
 23 49  1  0  0  0  0
 24 50  1  0  0  0  0
 24 51  1  0  0  0  0
M  END
> <s_m_source_file>
AV-unprocessed.smi

> <i_m_source_file_index>
951

> <i_lp_mmshare_version>
43012

> <i_f3d_flags>
0

> <s_epik_input>
bjFbY0hdW2NIXVtjSF1bY0hdYzFbQ0gyXVtDSDJdW05IXUMoPU8pW0NAQEhdMltDSDJdW0NIMl1bQ0gyXU4yQyg9TylbQ0hdM1tDSDJdW0NIMl1bQ0gyXVtDSDJdW0NIMl0z

> <s_epik_cmdline>
J2VwaWtfcHl0aG9uJywgJy1waCcsICc3LjAnLCAnLXRuJywgJzgnLCAnLW1hJywgJzIwMCcsICctbWV0YWxfYmluZGluZycsICctaW1hZScsICc8aW5maWxlLm1hZT4nLCAnLW9tYWUnLCAnPG91dGZpbGUubWFlPic=

> <r_epik_Ionization_Penalty>
0.0265505

> <r_epik_Ionization_Penalty_Charging>
0

> <r_epik_Ionization_Penalty_Neutral>
0.0265505

> <r_epik_State_Penalty>
0.02168

> <r_epik_Charging_Adjusted_Penalty>
0.02168

> <i_epik_Tot_Q>
0

> <i_epik_Tot_abs_Q>
0

> <r_epik_Metal_State_Penalty>
0.020746

> <b_epik_Metal_Only>
0

> <s_lp_Force_Field>
OPLS_2005

> <r_lp_Energy>
20.7073

> <b_lp_Chiralities_Consistent>
1

> <s_lp_Variant>
AV-unprocessed.smi:951-2

> <Gold.Version>
5.8.1

> <Gold.Id.Protein>
6NUR|6NUR_protein|mol2

> <Gold.PLP.Fitness>
46.4949

> <Gold.PLP.PLP>
-40.5756

> <Gold.PLP.part.hbond>
-3.3250

> <Gold.PLP.part.metal>
0.0000

> <Gold.PLP.part.buried>
-1.5728

> <Gold.PLP.part.nonpolar>
-34.9598

> <Gold.PLP.part.repulsive>
0.1802

> <Gold.PLP.ligand.clash>
0.0000

> <Gold.PLP.ligand.torsion>
0.3506

> <Gold.PLP.Chemscore.Hbond>
2.1755

> <Gold.PLP.Chemscore.CHOScore>
0.0000

> <Gold.PLP.Chemscore.Metal>
0.0000

> <Gold.Chemscore.Hbonds>
donor molecule, donor type, donor heavy atom, donor atom, acceptor molecule, acceptor atom, score
      P1  H  6896  6908       L1    11  0.65
      P1  H  7989  7998       L1     1  0.25
      P1  H  7997  8008       L1     1  0.93

> <Gold.PLP.Chemscore.Internal.Correction>
0.0940

> <Gold.Rescore>
     Score         DG    S(hbond)    S(metal)    S(lipo)     H(rot)  DE(clash)    DE(int)     intcor
     17.95     -20.62       1.67        0.00     115.62       1.55       1.22       1.45       ----

> <Gold.Chemscore.Fitness>
17.9517

> <Gold.Chemscore.DG>
-20.6195

> <Gold.Chemscore.ZeroCoef>
-5.4800

> <Gold.Chemscore.Hbond>
1.6710

> <Gold.Chemscore.Metal>
0.0000

> <Gold.Chemscore.Lipo>
115.6216

> <Gold.Chemscore.Internal_Hbond>
0.0000

> <Gold.Chemscore.DEClash>
1.2170

> <Gold.Chemscore.DEInternal>
1.4508

> <Gold.Chemscore.Rot>
1.5506

> <Gold.Chemscore.Internal.Correction>
   9.000000E+99

> <Gold.Chemscore.Hbonds>
donor molecule, donor type, donor heavy atom, donor atom, acceptor molecule, acceptor atom, score
      P1  H  6896  6908       L1    11  0.49
      P1  H  7989  7998       L1     1  0.01
      P1  H  7997  8008       L1     1  0.87

> <Gold.Chemscore.Hbond.Weighted>
-5.5813

> <Gold.Chemscore.Metal.Weighted>
-0.0000

> <Gold.Chemscore.Lipo.Weighted>
-13.5277

> <Gold.Chemscore.Internal_Hbond.Weighted>
0.0000

> <Gold.Chemscore.DEClash.Weighted>
1.2170

> <Gold.Chemscore.DEInternal.Weighted>
1.4508

> <Gold.Chemscore.Rot.Weighted>
3.9695

> <Gold.Chemscore.Internal.Correction.Weighted>
   9.000000E+99

> <Gold.Protein.RotatedTorsions>
[ 6907 6896 6895 6894 ] final  150.41 input  -60.11 | X-H torsion
[ 7974 7965 7964 7962 ] final -100.51 input  175.53 | X-H torsion
[ 8008 7997 7996 7995 ] final  -28.32 input   59.86 | X-H torsion
[ 10167 10162 10161 10158 ] final -135.15 input  -65.29 | X-H torsion
[ 10718 10713 10712 10709 ] final   -8.66 input   66.30 | X-H torsion
[ 10763 10752 10751 10750 ] final  161.99 input  -60.55 | X-H torsion
[ 11005 11000 10999 10996 ] final -158.17 input  -57.11 | X-H torsion

> <Gold.Protein.ActiveResidues>
 VAL166  LYS551  ARG553  GLY616  TRP617  ASP618  TYR619  PRO620  LYS621  CYS622 
 ASP623  PHE694  ASN695  SER759  ASP760  ASP761  ALA762  ILE779  LEU786  VAL792 
 PHE793  MET794  SER795  GLU796  ALA797  LYS798  CYS799  TRP800  GLU811  SER814 

> <Gold.Protein.RotatedAtoms>
  152.1147  133.4320  159.4647 H   0  0  0  0  0  0  0  0  0  0  0  0  # atno 6907 bound_to 6896
  150.6869  134.2606  159.4557 H   0  0  0  0  0  0  0  0  0  0  0  0  # atno 6908 bound_to 6896
  152.0478  134.9672  160.0625 H   0  0  0  0  0  0  0  0  0  0  0  0  # atno 6909 bound_to 6896
  145.2937  140.9359  143.2863 H   0  0  0  0  0  0  0  0  0  0  0  0  # atno 7974 bound_to 7965
  154.4337  140.1848  156.1071 H   0  0  0  0  0  0  0  0  0  0  0  0  # atno 8008 bound_to 7997
  156.0246  140.3337  155.7049 H   0  0  0  0  0  0  0  0  0  0  0  0  # atno 8009 bound_to 7997
  155.5926  140.0632  157.2745 H   0  0  0  0  0  0  0  0  0  0  0  0  # atno 8010 bound_to 7997
  139.8807  143.6842  152.2627 H   0  0  0  0  0  0  0  0  0  0  0  0  # atno 10167 bound_to 10162
  156.6993  130.5088  149.5921 H   0  0  0  0  0  0  0  0  0  0  0  0  # atno 10718 bound_to 10713
  154.2715  135.2765  155.2736 H   0  0  0  0  0  0  0  0  0  0  0  0  # atno 10763 bound_to 10752
  154.5297  135.5733  153.6752 H   0  0  0  0  0  0  0  0  0  0  0  0  # atno 10764 bound_to 10752
  152.9944  135.6225  154.2870 H   0  0  0  0  0  0  0  0  0  0  0  0  # atno 10765 bound_to 10752
  140.6565  134.4394  157.5235 H   0  0  0  0  0  0  0  0  0  0  0  0  # atno 11005 bound_to 11000
  144.9152  139.4480  143.6568 LP  0  0  0  0  0  0  0  0  0  0  0  0  # atno 17320 bound_to 7965
  146.3176  139.7981  142.8971 LP  0  0  0  0  0  0  0  0  0  0  0  0  # atno 17321 bound_to 7965
  139.7198  144.7605  151.0974 LP  0  0  0  0  0  0  0  0  0  0  0  0  # atno 17342 bound_to 10162
  140.7745  143.5222  150.9523 LP  0  0  0  0  0  0  0  0  0  0  0  0  # atno 17343 bound_to 10162
  156.1740  130.6456  151.0872 LP  0  0  0  0  0  0  0  0  0  0  0  0  # atno 17370 bound_to 10713
  157.6979  131.0787  150.6912 LP  0  0  0  0  0  0  0  0  0  0  0  0  # atno 17371 bound_to 10713
  139.9027  134.8518  156.1828 LP  0  0  0  0  0  0  0  0  0  0  0  0  # atno 17394 bound_to 11000
  141.0497  133.6895  156.1749 LP  0  0  0  0  0  0  0  0  0  0  0  0  # atno 17395 bound_to 11000

$$$$
