AV-unprocessed.smi:928|AV-procd|sdf|4194|dock2
  -GOLD-   22720 2103D 1   1.00000     0.00000
 Structure written by MMmdl.
 43 44  0  0  0  0  0  0  0  0  1 V2000
  152.4954  138.8785  155.4436 C   0  0  0  0  0  0  0  0  0  0  0  0
  151.7899  140.1733  155.8605 C   0  0  0  0  0  0  0  0  0  0  0  0
  150.4458  140.3403  155.2322 C   0  0  0  0  0  0  0  0  0  0  0  0
  149.6174  141.4329  155.3051 C   0  0  0  0  0  0  0  0  0  0  0  0
  148.4211  141.2840  154.6004 N   0  0  0  0  0  0  0  0  0  0  0  0
  148.3276  140.0957  153.9997 C   0  0  0  0  0  0  0  0  0  0  0  0
  147.1695  139.6970  153.1427 C   0  0  0  0  0  0  0  0  0  0  0  0
  146.3310  138.5393  153.7173 C   0  0  0  0  0  0  0  0  0  0  0  0
  146.6517  137.2561  153.0979 N   0  0  0  0  0  0  0  0  0  0  0  0
  145.7993  136.2335  152.9413 C   0  0  0  0  0  0  0  0  0  0  0  0
  144.6293  136.2424  153.3230 O   0  0  0  0  0  0  0  0  0  0  0  0
  146.3755  135.2050  152.3052 N   0  0  0  0  0  0  0  0  0  0  0  0
  145.7164  133.9527  151.9406 C   0  0  1  0  0  0  0  0  0  0  0  0
  144.3821  134.3209  151.2576 C   0  0  0  0  0  0  0  0  0  0  0  0
  143.6729  133.1017  150.6531 C   0  0  0  0  0  0  0  0  0  0  0  0
  144.5913  132.3742  149.6640 C   0  0  0  0  0  0  0  0  0  0  0  0
  145.8873  131.9383  150.3584 C   0  0  0  0  0  0  0  0  0  0  0  0
  146.6288  133.1289  150.9971 C   0  0  2  0  0  0  0  0  0  0  0  0
  147.7131  132.5926  151.7288 O   0  0  0  0  0  0  0  0  0  0  0  0
  149.7358  139.0723  154.2664 S   0  0  0  0  0  0  0  0  0  0  0  0
  153.4691  138.7939  155.9266 H   0  0  0  0  0  0  0  0  0  0  0  0
  152.6554  138.8449  154.3655 H   0  0  0  0  0  0  0  0  0  0  0  0
  151.9079  138.0036  155.7227 H   0  0  0  0  0  0  0  0  0  0  0  0
  151.6886  140.1932  156.9462 H   0  0  0  0  0  0  0  0  0  0  0  0
  152.4174  141.0264  155.6015 H   0  0  0  0  0  0  0  0  0  0  0  0
  149.8010  142.3573  155.8327 H   0  0  0  0  0  0  0  0  0  0  0  0
  146.5362  140.5717  152.9914 H   0  0  0  0  0  0  0  0  0  0  0  0
  147.5476  139.4201  152.1580 H   0  0  0  0  0  0  0  0  0  0  0  0
  146.5228  138.4502  154.7866 H   0  0  0  0  0  0  0  0  0  0  0  0
  145.2674  138.7625  153.6180 H   0  0  0  0  0  0  0  0  0  0  0  0
  147.5921  137.1451  152.7479 H   0  0  0  0  0  0  0  0  0  0  0  0
  147.3428  135.3004  152.0325 H   0  0  0  0  0  0  0  0  0  0  0  0
  145.4856  133.3618  152.8297 H   0  0  0  0  0  0  0  0  0  0  0  0
  143.7215  134.8109  151.9741 H   0  0  0  0  0  0  0  0  0  0  0  0
  144.5637  135.0472  150.4636 H   0  0  0  0  0  0  0  0  0  0  0  0
  143.3706  132.4191  151.4486 H   0  0  0  0  0  0  0  0  0  0  0  0
  142.7584  133.4166  150.1497 H   0  0  0  0  0  0  0  0  0  0  0  0
  144.0800  131.5043  149.2509 H   0  0  0  0  0  0  0  0  0  0  0  0
  144.8236  133.0282  148.8224 H   0  0  0  0  0  0  0  0  0  0  0  0
  145.6454  131.2007  151.1254 H   0  0  0  0  0  0  0  0  0  0  0  0
  146.5371  131.4343  149.6420 H   0  0  0  0  0  0  0  0  0  0  0  0
  147.0211  133.7710  150.2069 H   0  0  0  0  0  0  0  0  0  0  0  0
  148.3312  132.2198  151.1183 H   0  0  0  0  0  0  0  0  0  0  0  0
  1  2  1  0  0  0  0
  1 21  1  0  0  0  0
  1 22  1  0  0  0  0
  1 23  1  0  0  0  0
  2  3  1  0  0  0  0
  2 24  1  0  0  0  0
  2 25  1  0  0  0  0
  3 20  1  0  0  0  0
  3  4  2  0  0  0  0
  4  5  1  0  0  0  0
  4 26  1  0  0  0  0
  5  6  2  0  0  0  0
  6  7  1  0  0  0  0
  6 20  1  0  0  0  0
  7  8  1  0  0  0  0
  7 27  1  0  0  0  0
  7 28  1  0  0  0  0
  8  9  1  0  0  0  0
  8 29  1  0  0  0  0
  8 30  1  0  0  0  0
  9 10  1  0  0  0  0
  9 31  1  0  0  0  0
 10 11  2  0  0  0  0
 10 12  1  0  0  0  0
 12 13  1  0  0  0  0
 12 32  1  0  0  0  0
 13 18  1  0  0  0  0
 13 14  1  0  0  0  0
 13 33  1  0  0  0  0
 14 15  1  0  0  0  0
 14 34  1  0  0  0  0
 14 35  1  0  0  0  0
 15 16  1  0  0  0  0
 15 36  1  0  0  0  0
 15 37  1  0  0  0  0
 16 17  1  0  0  0  0
 16 38  1  0  0  0  0
 16 39  1  0  0  0  0
 17 18  1  0  0  0  0
 17 40  1  0  0  0  0
 17 41  1  0  0  0  0
 18 19  1  0  0  0  0
 18 42  1  0  0  0  0
 19 43  1  0  0  0  0
M  END
> <s_m_source_file>
AV-unprocessed.smi

> <i_m_source_file_index>
928

> <i_lp_mmshare_version>
43012

> <i_f3d_flags>
0

> <s_epik_input>
W0NIM11bQ0gyXWMxW2NIXW5jKHMxKVtDSDJdW0NIMl1bTkhdQyg9TylbTkhdW0NAQEhdMltDSDJdW0NIMl1bQ0gyXVtDSDJdW0NASF0yW09IXQ==

> <s_epik_cmdline>
J2VwaWtfcHl0aG9uJywgJy1waCcsICc3LjAnLCAnLXRuJywgJzgnLCAnLW1hJywgJzIwMCcsICctbWV0YWxfYmluZGluZycsICctaW1hZScsICc8aW5maWxlLm1hZT4nLCAnLW9tYWUnLCAnPG91dGZpbGUubWFlPic=

> <r_epik_Ionization_Penalty>
0.000957396

> <r_epik_Ionization_Penalty_Charging>
0

> <r_epik_Ionization_Penalty_Neutral>
0.000957396

> <r_epik_State_Penalty>
0.000586538

> <r_epik_Charging_Adjusted_Penalty>
0.000586538

> <i_epik_Tot_Q>
0

> <i_epik_Tot_abs_Q>
0

> <r_epik_Metal_State_Penalty>
-0

> <b_epik_Metal_Only>
0

> <s_lp_Force_Field>
OPLS_2005

> <r_lp_Energy>
-1.18646

> <b_lp_Chiralities_Consistent>
1

> <s_lp_Variant>
AV-unprocessed.smi:928-4

> <Gold.Version>
5.8.1

> <Gold.Id.Protein>
6NUR|6NUR_protein|mol2

> <Gold.PLP.Fitness>
49.6234

> <Gold.PLP.PLP>
-38.9289

> <Gold.PLP.part.hbond>
-3.0000

> <Gold.PLP.part.metal>
0.0000

> <Gold.PLP.part.buried>
-3.5436

> <Gold.PLP.part.nonpolar>
-33.2774

> <Gold.PLP.part.repulsive>
0.2366

> <Gold.PLP.ligand.clash>
0.0000

> <Gold.PLP.ligand.torsion>
0.6706

> <Gold.PLP.Chemscore.Hbond>
2.9920

> <Gold.PLP.Chemscore.CHOScore>
1.0000

> <Gold.PLP.Chemscore.Metal>
0.0000

> <Gold.Chemscore.Hbonds>
donor molecule, donor type, donor heavy atom, donor atom, acceptor molecule, acceptor atom, score
      L1  H     9    31       P1  7948  1.00
      L1  H    12    32       P1  7948  1.00
      L1  H    19    43       P1 10747  1.00
      L1  C     4    26       P1  8028  0.98

> <Gold.PLP.Chemscore.Internal.Correction>
0.0597

> <Gold.Rescore>
     Score         DG    S(hbond)    S(metal)    S(lipo)     H(rot)  DE(clash)    DE(int)     intcor
     19.56     -21.50       2.95        0.00     101.03       2.21       0.16       1.78       ----

> <Gold.Chemscore.Fitness>
19.5596

> <Gold.Chemscore.DG>
-21.5018

> <Gold.Chemscore.ZeroCoef>
-5.4800

> <Gold.Chemscore.Hbond>
2.9507

> <Gold.Chemscore.Metal>
0.0000

> <Gold.Chemscore.Lipo>
101.0263

> <Gold.Chemscore.Internal_Hbond>
0.0000

> <Gold.Chemscore.DEClash>
0.1647

> <Gold.Chemscore.DEInternal>
1.7775

> <Gold.Chemscore.Rot>
2.2084

> <Gold.Chemscore.Internal.Correction>
   9.000000E+99

> <Gold.Chemscore.Hbonds>
donor molecule, donor type, donor heavy atom, donor atom, acceptor molecule, acceptor atom, score
      L1  H     9    31       P1  7948  0.98
      L1  H    12    32       P1  7948  0.98
      L1  H    19    43       P1 10747  0.96

> <Gold.Chemscore.Hbond.Weighted>
-9.8552

> <Gold.Chemscore.Metal.Weighted>
-0.0000

> <Gold.Chemscore.Lipo.Weighted>
-11.8201

> <Gold.Chemscore.Internal_Hbond.Weighted>
0.0000

> <Gold.Chemscore.DEClash.Weighted>
0.1647

> <Gold.Chemscore.DEInternal.Weighted>
1.7775

> <Gold.Chemscore.Rot.Weighted>
5.6535

> <Gold.Chemscore.Internal.Correction.Weighted>
   9.000000E+99

> <Gold.Protein.RotatedTorsions>
[ 6907 6896 6895 6894 ] final  163.71 input  -60.11 | X-H torsion
[ 7974 7965 7964 7962 ] final  -14.85 input  175.53 | X-H torsion
[ 8008 7997 7996 7995 ] final  -67.74 input   59.86 | X-H torsion
[ 10167 10162 10161 10158 ] final   52.59 input  -65.29 | X-H torsion
[ 10718 10713 10712 10709 ] final  -31.44 input   66.30 | X-H torsion
[ 10763 10752 10751 10750 ] final   14.67 input  -60.55 | X-H torsion
[ 11005 11000 10999 10996 ] final  163.32 input  -57.11 | X-H torsion

> <Gold.Protein.ActiveResidues>
 VAL166  LYS551  ARG553  GLY616  TRP617  ASP618  TYR619  PRO620  LYS621  CYS622 
 ASP623  PHE694  ASN695  SER759  ASP760  ASP761  ALA762  ILE779  LEU786  VAL792 
 PHE793  MET794  SER795  GLU796  ALA797  LYS798  CYS799  TRP800  GLU811  SER814 

> <Gold.Protein.RotatedAtoms>
  151.9210  133.3585  159.3896 H   0  0  0  0  0  0  0  0  0  0  0  0  # atno 6907 bound_to 6896
  150.7037  134.4635  159.5401 H   0  0  0  0  0  0  0  0  0  0  0  0  # atno 6908 bound_to 6896
  152.2258  134.8369  160.0531 H   0  0  0  0  0  0  0  0  0  0  0  0  # atno 6909 bound_to 6896
  146.2057  140.3408  142.8408 H   0  0  0  0  0  0  0  0  0  0  0  0  # atno 7974 bound_to 7965
  154.4820  140.0886  156.7400 H   0  0  0  0  0  0  0  0  0  0  0  0  # atno 8008 bound_to 7997
  155.4446  140.3455  155.4275 H   0  0  0  0  0  0  0  0  0  0  0  0  # atno 8009 bound_to 7997
  156.1206  140.1473  156.9199 H   0  0  0  0  0  0  0  0  0  0  0  0  # atno 8010 bound_to 7997
  140.2497  144.3492  150.6352 H   0  0  0  0  0  0  0  0  0  0  0  0  # atno 10167 bound_to 10162
  156.3872  130.4366  149.7422 H   0  0  0  0  0  0  0  0  0  0  0  0  # atno 10718 bound_to 10713
  153.1599  135.6794  153.8758 H   0  0  0  0  0  0  0  0  0  0  0  0  # atno 10763 bound_to 10752
  153.8156  135.3137  155.3406 H   0  0  0  0  0  0  0  0  0  0  0  0  # atno 10764 bound_to 10752
  154.7925  135.4826  154.0173 H   0  0  0  0  0  0  0  0  0  0  0  0  # atno 10765 bound_to 10752
  140.2346  134.8098  157.3351 H   0  0  0  0  0  0  0  0  0  0  0  0  # atno 11005 bound_to 11000
  144.8787  140.7371  143.6000 LP  0  0  0  0  0  0  0  0  0  0  0  0  # atno 17320 bound_to 7965
  145.3328  139.1754  143.4528 LP  0  0  0  0  0  0  0  0  0  0  0  0  # atno 17321 bound_to 7965
  140.6050  143.2167  151.6999 LP  0  0  0  0  0  0  0  0  0  0  0  0  # atno 17342 bound_to 10162
  139.5050  144.3733  152.0448 LP  0  0  0  0  0  0  0  0  0  0  0  0  # atno 17343 bound_to 10162
  156.4490  130.7897  151.2919 LP  0  0  0  0  0  0  0  0  0  0  0  0  # atno 17370 bound_to 10713
  157.7496  131.0101  150.3294 LP  0  0  0  0  0  0  0  0  0  0  0  0  # atno 17371 bound_to 10713
  140.1715  134.4602  155.7828 LP  0  0  0  0  0  0  0  0  0  0  0  0  # atno 17394 bound_to 11000
  141.2215  133.6944  156.7716 LP  0  0  0  0  0  0  0  0  0  0  0  0  # atno 17395 bound_to 11000

$$$$
