AV-unprocessed.smi:1831|AV-procd|sdf|7461|dock1
  -GOLD-   22720 9153D 1   1.00000     0.00000
 Structure written by MMmdl.
 40 41  0  0  0  0  0  0  0  0  3 V2000
  158.3708  136.4297  151.7784 C   0  0  0  0  0  0  0  0  0  0  0  0
  157.2906  136.9690  152.6520 C   0  0  0  0  0  0  0  0  0  0  0  0
  156.6663  136.2307  153.5730 N   0  0  0  0  0  0  0  0  0  0  0  0
  155.7007  136.9553  154.2569 N   0  0  0  0  0  0  0  0  0  0  0  0
  155.6126  138.2294  153.8498 C   0  0  0  0  0  0  0  0  0  0  0  0
  154.7380  139.0976  154.3846 N   0  5  0  0  0  0  0  0  0  0  0  0
  153.4544  138.7245  154.5882 C   0  0  0  0  0  0  0  0  0  0  0  0
  152.9699  137.6159  154.3499 O   0  0  0  0  0  0  0  0  0  0  0  0
  152.6897  139.6980  155.1016 N   0  0  0  0  0  0  0  0  0  0  0  0
  151.2752  139.5990  155.4469 C   0  0  0  0  0  0  0  0  0  0  0  0
  151.0193  140.1591  156.8553 C   0  0  1  0  0  0  0  0  0  0  0  0
  151.7832  139.4556  157.9765 C   0  0  0  0  0  0  0  0  0  0  0  0
  151.9007  140.5082  159.0868 C   0  0  0  0  0  0  0  0  0  0  0  0
  151.5260  141.8168  158.4930 N   0  3  1  0  0  0  0  0  0  0  0  0
  152.3487  142.9760  158.9406 C   0  0  0  0  0  0  0  0  0  0  0  0
  152.2844  143.1442  160.4706 C   0  0  0  0  0  0  0  0  0  0  0  0
  151.9078  144.2866  158.2605 C   0  0  0  0  0  0  0  0  0  0  0  0
  151.4510  141.6126  157.0298 C   0  0  0  0  0  0  0  0  0  0  0  0
  156.7297  138.6289  152.5448 S   0  0  0  0  0  0  0  0  0  0  0  0
  158.8586  135.5788  152.2548 H   0  0  0  0  0  0  0  0  0  0  0  0
  159.1199  137.1988  151.5899 H   0  0  0  0  0  0  0  0  0  0  0  0
  157.9512  136.1065  150.8257 H   0  0  0  0  0  0  0  0  0  0  0  0
  153.1364  140.5876  155.2694 H   0  0  0  0  0  0  0  0  0  0  0  0
  150.7009  140.1543  154.7047 H   0  0  0  0  0  0  0  0  0  0  0  0
  150.9246  138.5666  155.4038 H   0  0  0  0  0  0  0  0  0  0  0  0
  149.9517  140.0939  157.0742 H   0  0  0  0  0  0  0  0  0  0  0  0
  151.2853  138.5459  158.3138 H   0  0  0  0  0  0  0  0  0  0  0  0
  152.7805  139.1771  157.6324 H   0  0  0  0  0  0  0  0  0  0  0  0
  151.2258  140.2879  159.9145 H   0  0  0  0  0  0  0  0  0  0  0  0
  152.9184  140.5145  159.4801 H   0  0  0  0  0  0  0  0  0  0  0  0
  153.3856  142.7837  158.6599 H   0  0  0  0  0  0  0  0  0  0  0  0
  152.8723  144.0042  160.7931 H   0  0  0  0  0  0  0  0  0  0  0  0
  152.6798  142.2760  160.9980 H   0  0  0  0  0  0  0  0  0  0  0  0
  151.2594  143.3011  160.8088 H   0  0  0  0  0  0  0  0  0  0  0  0
  152.4859  145.1331  158.6327 H   0  0  0  0  0  0  0  0  0  0  0  0
  150.8549  144.4983  158.4504 H   0  0  0  0  0  0  0  0  0  0  0  0
  152.0552  144.2573  157.1808 H   0  0  0  0  0  0  0  0  0  0  0  0
  152.4363  141.7676  156.5861 H   0  0  0  0  0  0  0  0  0  0  0  0
  150.7517  142.3043  156.5591 H   0  0  0  0  0  0  0  0  0  0  0  0
  150.5773  141.9942  158.7911 H   0  0  0  0  0  0  0  0  0  0  0  0
  1  2  1  0  0  0  0
  1 20  1  0  0  0  0
  1 21  1  0  0  0  0
  1 22  1  0  0  0  0
  2 19  1  0  0  0  0
  2  3  2  0  0  0  0
  3  4  1  0  0  0  0
  4  5  2  0  0  0  0
  5  6  1  0  0  0  0
  5 19  1  0  0  0  0
  6  7  1  0  0  0  0
  7  8  2  0  0  0  0
  7  9  1  0  0  0  0
  9 10  1  0  0  0  0
  9 23  1  0  0  0  0
 10 11  1  0  0  0  0
 10 24  1  0  0  0  0
 10 25  1  0  0  0  0
 11 18  1  0  0  0  0
 11 12  1  0  0  0  0
 11 26  1  0  0  0  0
 12 13  1  0  0  0  0
 12 27  1  0  0  0  0
 12 28  1  0  0  0  0
 13 14  1  0  0  0  0
 13 29  1  0  0  0  0
 13 30  1  0  0  0  0
 14 15  1  0  0  0  0
 14 18  1  0  0  0  0
 14 40  1  0  0  0  0
 15 16  1  0  0  0  0
 15 17  1  0  0  0  0
 15 31  1  0  0  0  0
 16 32  1  0  0  0  0
 16 33  1  0  0  0  0
 16 34  1  0  0  0  0
 17 35  1  0  0  0  0
 17 36  1  0  0  0  0
 17 37  1  0  0  0  0
 18 38  1  0  0  0  0
 18 39  1  0  0  0  0
M  CHG  1   6  -1
M  CHG  1  14   1
M  END
> <s_m_source_file>
AV-unprocessed.smi

> <i_m_source_file_index>
1831

> <i_lp_mmshare_version>
43012

> <i_f3d_flags>
0

> <s_epik_input>
W0NIM11jMW5uYyhzMSlbTkhdQyg9TylbTkhdW0NIMl1bQ0BASF0yW0NIMl1bQ0gyXU4oW0NIMl0yKVtDSF0oW0NIM10pW0NIM10=

> <s_epik_cmdline>
J2VwaWtfcHl0aG9uJywgJy1waCcsICc3LjAnLCAnLXRuJywgJzgnLCAnLW1hJywgJzIwMCcsICctbWV0YWxfYmluZGluZycsICctaW1hZScsICc8aW5maWxlLm1hZT4nLCAnLW9tYWUnLCAnPG91dGZpbGUubWFlPic=

> <r_lp_tautomer_probability>
1

> <r_epik_Ionization_Penalty>
4.24531

> <r_epik_Ionization_Penalty_Charging>
4.11954

> <r_epik_Ionization_Penalty_Neutral>
0.125766

> <r_epik_State_Penalty>
4.11879

> <r_epik_Charging_Adjusted_Penalty>
8.23833

> <i_epik_Tot_Q>
0

> <i_epik_Tot_abs_Q>
2

> <r_epik_Metal_State_Penalty>
0.659341

> <b_epik_Metal_Only>
1

> <s_lp_Force_Field>
OPLS_2005

> <r_lp_Energy>
24.973

> <b_lp_Chiralities_Consistent>
1

> <s_lp_Variant>
AV-unprocessed.smi:1831-6

> <Gold.Version>
5.8.1

> <Gold.Id.Protein>
6NUR|6NUR_protein|mol2

> <Gold.PLP.Fitness>
44.5298

> <Gold.PLP.PLP>
-38.3816

> <Gold.PLP.part.hbond>
-3.7995

> <Gold.PLP.part.metal>
0.0000

> <Gold.PLP.part.buried>
-4.9061

> <Gold.PLP.part.nonpolar>
-32.6174

> <Gold.PLP.part.repulsive>
2.3916

> <Gold.PLP.ligand.clash>
0.0000

> <Gold.PLP.ligand.torsion>
0.4642

> <Gold.PLP.Chemscore.Hbond>
2.3200

> <Gold.PLP.Chemscore.CHOScore>
0.0000

> <Gold.PLP.Chemscore.Metal>
0.0000

> <Gold.Chemscore.Hbonds>
donor molecule, donor type, donor heavy atom, donor atom, acceptor molecule, acceptor atom, score
      P1  H  7997  8009       L1     6  1.79
      P1  H 10752 10763       L1     4  0.07
      P1  H 10752 10764       L1     8  0.37

> <Gold.PLP.Chemscore.Internal.Correction>
0.1165

> <Gold.Rescore>
     Score         DG    S(hbond)    S(metal)    S(lipo)     H(rot)  DE(clash)    DE(int)     intcor
     15.39     -17.40       1.28        0.00      98.45       1.51       0.23       1.78       ----

> <Gold.Chemscore.Fitness>
15.3907

> <Gold.Chemscore.DG>
-17.4008

> <Gold.Chemscore.ZeroCoef>
-5.4800

> <Gold.Chemscore.Hbond>
1.2800

> <Gold.Chemscore.Metal>
0.0000

> <Gold.Chemscore.Lipo>
98.4528

> <Gold.Chemscore.Internal_Hbond>
0.0000

> <Gold.Chemscore.DEClash>
0.2288

> <Gold.Chemscore.DEInternal>
1.7812

> <Gold.Chemscore.Rot>
1.5131

> <Gold.Chemscore.Internal.Correction>
   9.000000E+99

> <Gold.Chemscore.Hbonds>
donor molecule, donor type, donor heavy atom, donor atom, acceptor molecule, acceptor atom, score
      P1  H  7997  8009       L1     6  0.39
      P1  H 10752 10764       L1     8  0.36

> <Gold.Chemscore.Hbond.Weighted>
-4.2753

> <Gold.Chemscore.Metal.Weighted>
-0.0000

> <Gold.Chemscore.Lipo.Weighted>
-11.5190

> <Gold.Chemscore.Internal_Hbond.Weighted>
0.0000

> <Gold.Chemscore.DEClash.Weighted>
0.2288

> <Gold.Chemscore.DEInternal.Weighted>
1.7812

> <Gold.Chemscore.Rot.Weighted>
3.8735

> <Gold.Chemscore.Internal.Correction.Weighted>
   9.000000E+99

> <Gold.Protein.RotatedTorsions>
[ 6907 6896 6895 6894 ] final   18.17 input  -60.11 | X-H torsion
[ 7974 7965 7964 7962 ] final   40.68 input  175.53 | X-H torsion
[ 8008 7997 7996 7995 ] final  -96.47 input   59.86 | X-H torsion
[ 10167 10162 10161 10158 ] final -102.63 input  -65.29 | X-H torsion
[ 10718 10713 10712 10709 ] final  162.28 input   66.30 | X-H torsion
[ 10763 10752 10751 10750 ] final  -84.46 input  -60.55 | X-H torsion
[ 11005 11000 10999 10996 ] final  -98.92 input  -57.11 | X-H torsion

> <Gold.Protein.ActiveResidues>
 VAL166  LYS551  ARG553  GLY616  TRP617  ASP618  TYR619  PRO620  LYS621  CYS622 
 ASP623  PHE694  ASN695  SER759  ASP760  ASP761  ALA762  ILE779  LEU786  VAL792 
 PHE793  MET794  SER795  GLU796  ALA797  LYS798  CYS799  TRP800  GLU811  SER814 

> <Gold.Protein.RotatedAtoms>
  151.8611  135.0524  160.0469 H   0  0  0  0  0  0  0  0  0  0  0  0  # atno 6907 bound_to 6896
  152.2662  133.5337  159.5420 H   0  0  0  0  0  0  0  0  0  0  0  0  # atno 6908 bound_to 6896
  150.7134  134.0677  159.3896 H   0  0  0  0  0  0  0  0  0  0  0  0  # atno 6909 bound_to 6896
  146.0885  139.5504  142.9491 H   0  0  0  0  0  0  0  0  0  0  0  0  # atno 7974 bound_to 7965
  154.7749  140.0471  157.1081 H   0  0  0  0  0  0  0  0  0  0  0  0  # atno 8008 bound_to 7997
  154.9775  140.3097  155.4941 H   0  0  0  0  0  0  0  0  0  0  0  0  # atno 8009 bound_to 7997
  156.2927  140.2242  156.4872 H   0  0  0  0  0  0  0  0  0  0  0  0  # atno 8010 bound_to 7997
  140.2286  143.3623  152.0907 H   0  0  0  0  0  0  0  0  0  0  0  0  # atno 10167 bound_to 10162
  157.1248  131.0501  151.2399 H   0  0  0  0  0  0  0  0  0  0  0  0  # atno 10718 bound_to 10713
  154.5997  135.5520  153.7362 H   0  0  0  0  0  0  0  0  0  0  0  0  # atno 10763 bound_to 10752
  153.0150  135.6363  154.1732 H   0  0  0  0  0  0  0  0  0  0  0  0  # atno 10764 bound_to 10752
  154.1671  135.2894  155.3072 H   0  0  0  0  0  0  0  0  0  0  0  0  # atno 10765 bound_to 10752
  141.1327  133.8282  157.0903 H   0  0  0  0  0  0  0  0  0  0  0  0  # atno 11005 bound_to 11000
  145.6084  141.0343  143.1980 LP  0  0  0  0  0  0  0  0  0  0  0  0  # atno 17320 bound_to 7965
  144.7343  139.7633  143.7335 LP  0  0  0  0  0  0  0  0  0  0  0  0  # atno 17321 bound_to 7965
  139.5118  144.6906  151.5768 LP  0  0  0  0  0  0  0  0  0  0  0  0  # atno 17342 bound_to 10162
  140.6202  143.9273  150.6520 LP  0  0  0  0  0  0  0  0  0  0  0  0  # atno 17343 bound_to 10162
  157.4445  130.7563  149.7097 LP  0  0  0  0  0  0  0  0  0  0  0  0  # atno 17370 bound_to 10713
  155.9820  130.4013  150.3437 LP  0  0  0  0  0  0  0  0  0  0  0  0  # atno 17371 bound_to 10713
  140.0396  134.9861  157.0937 LP  0  0  0  0  0  0  0  0  0  0  0  0  # atno 17394 bound_to 11000
  140.4156  134.1935  155.7163 LP  0  0  0  0  0  0  0  0  0  0  0  0  # atno 17395 bound_to 11000

$$$$
