AV-unprocessed.smi:2539|AV-procd|sdf|9986|dock9
  -GOLD-   2272014 33D 1   1.00000     0.00000
 Structure written by MMmdl.
 41 42  0  0  0  0  0  0  0  0  2 V2000
  151.2481  140.4045  155.0442 O   0  0  0  0  0  0  0  0  0  0  0  0
  150.3667  139.7762  155.6325 C   0  0  0  0  0  0  0  0  0  0  0  0
  150.5368  139.3002  156.8788 N   0  0  0  0  0  0  0  0  0  0  0  0
  151.7088  139.5152  157.7241 C   0  0  0  0  0  0  0  0  0  0  0  0
  151.3860  140.3812  158.9580 C   0  0  0  0  0  0  0  0  0  0  0  0
  151.5617  141.8713  158.7197 C   0  0  0  0  0  0  0  0  0  0  0  0
  152.5237  142.6104  159.4439 C   0  0  0  0  0  0  0  0  0  0  0  0
  152.6373  143.9989  159.2251 C   0  0  0  0  0  0  0  0  0  0  0  0
  151.7872  144.6178  158.2864 C   0  0  0  0  0  0  0  0  0  0  0  0
  150.8821  143.8781  157.6090 N   0  3  0  0  0  0  0  0  0  0  0  0
  150.7430  142.5464  157.7884 C   0  0  0  0  0  0  0  0  0  0  0  0
  149.1508  139.5183  155.0887 N   0  0  0  0  0  0  0  0  0  0  0  0
  148.0465  138.7935  155.7362 C   0  0  0  0  0  0  0  0  0  0  0  0
  147.0233  139.8226  156.2544 C   0  0  0  0  0  0  0  0  0  0  0  0
  146.5167  140.7665  155.1317 C   0  0  0  0  0  0  0  0  0  0  0  0
  145.6883  140.0035  154.2724 O   0  0  0  0  0  0  0  0  0  0  0  0
  145.6494  141.9141  155.7015 C   0  0  0  0  0  0  0  0  0  0  0  0
  146.2790  142.5001  156.7207 F   0  0  0  0  0  0  0  0  0  0  0  0
  145.4178  142.8392  154.7694 F   0  0  0  0  0  0  0  0  0  0  0  0
  144.4845  141.4436  156.1493 F   0  0  0  0  0  0  0  0  0  0  0  0
  147.6972  141.3092  154.2832 C   0  0  0  0  0  0  0  0  0  0  0  0
  148.6858  140.1988  153.8757 C   0  0  0  0  0  0  0  0  0  0  0  0
  149.7746  138.7787  157.2871 H   0  0  0  0  0  0  0  0  0  0  0  0
  152.0752  138.5412  158.0489 H   0  0  0  0  0  0  0  0  0  0  0  0
  152.5196  139.9655  157.1490 H   0  0  0  0  0  0  0  0  0  0  0  0
  150.3617  140.1894  159.2806 H   0  0  0  0  0  0  0  0  0  0  0  0
  152.0247  140.0836  159.7904 H   0  0  0  0  0  0  0  0  0  0  0  0
  153.1608  142.1236  160.1677 H   0  0  0  0  0  0  0  0  0  0  0  0
  153.3640  144.5817  159.7719 H   0  0  0  0  0  0  0  0  0  0  0  0
  151.8035  145.6737  158.0586 H   0  0  0  0  0  0  0  0  0  0  0  0
  149.9766  142.0675  157.1966 H   0  0  0  0  0  0  0  0  0  0  0  0
  147.5765  138.1290  155.0099 H   0  0  0  0  0  0  0  0  0  0  0  0
  148.3642  138.1416  156.5500 H   0  0  0  0  0  0  0  0  0  0  0  0
  146.1861  139.3074  156.7262 H   0  0  0  0  0  0  0  0  0  0  0  0
  147.4954  140.4126  157.0406 H   0  0  0  0  0  0  0  0  0  0  0  0
  144.8283  140.3955  154.2580 H   0  0  0  0  0  0  0  0  0  0  0  0
  147.3237  141.8172  153.3932 H   0  0  0  0  0  0  0  0  0  0  0  0
  148.2402  142.0627  154.8549 H   0  0  0  0  0  0  0  0  0  0  0  0
  149.5042  140.6213  153.2914 H   0  0  0  0  0  0  0  0  0  0  0  0
  148.1984  139.4797  153.2160 H   0  0  0  0  0  0  0  0  0  0  0  0
  150.2747  144.3456  156.9355 H   0  0  0  0  0  0  0  0  0  0  0  0
  1  2  2  0  0  0  0
  2  3  1  0  0  0  0
  2 12  1  0  0  0  0
  3  4  1  0  0  0  0
  3 23  1  0  0  0  0
  4  5  1  0  0  0  0
  4 24  1  0  0  0  0
  4 25  1  0  0  0  0
  5  6  1  0  0  0  0
  5 26  1  0  0  0  0
  5 27  1  0  0  0  0
  6 11  1  0  0  0  0
  6  7  2  0  0  0  0
  7  8  1  0  0  0  0
  7 28  1  0  0  0  0
  8  9  2  0  0  0  0
  8 29  1  0  0  0  0
  9 10  1  0  0  0  0
  9 30  1  0  0  0  0
 10 11  2  0  0  0  0
 10 41  1  0  0  0  0
 11 31  1  0  0  0  0
 12 22  1  0  0  0  0
 12 13  1  0  0  0  0
 13 14  1  0  0  0  0
 13 32  1  0  0  0  0
 13 33  1  0  0  0  0
 14 15  1  0  0  0  0
 14 34  1  0  0  0  0
 14 35  1  0  0  0  0
 15 16  1  0  0  0  0
 15 17  1  0  0  0  0
 15 21  1  0  0  0  0
 16 36  1  0  0  0  0
 17 18  1  0  0  0  0
 17 19  1  0  0  0  0
 17 20  1  0  0  0  0
 21 22  1  0  0  0  0
 21 37  1  0  0  0  0
 21 38  1  0  0  0  0
 22 39  1  0  0  0  0
 22 40  1  0  0  0  0
M  CHG  1  10   1
M  END
> <s_m_source_file>
AV-unprocessed.smi

> <i_m_source_file_index>
2539

> <i_lp_mmshare_version>
43012

> <i_f3d_flags>
0

> <s_epik_input>
RkMoRikoRilDMShbT0hdKVtDSDJdW0NIMl1OKFtDSDJdW0NIMl0xKUMoPU8pW05IXVtDSDJdW0NIMl1jMltjSF1bY0hdW2NIXW5bY0hdMg==

> <s_epik_cmdline>
J2VwaWtfcHl0aG9uJywgJy1waCcsICc3LjAnLCAnLXRuJywgJzgnLCAnLW1hJywgJzIwMCcsICctbWV0YWxfYmluZGluZycsICctaW1hZScsICc8aW5maWxlLm1hZT4nLCAnLW9tYWUnLCAnPG91dGZpbGUubWFlPic=

> <r_epik_Ionization_Penalty>
2.21039

> <r_epik_Ionization_Penalty_Charging>
2.21033

> <r_epik_Ionization_Penalty_Neutral>
5.75735e-05

> <r_epik_State_Penalty>
2.3545

> <r_epik_Charging_Adjusted_Penalty>
4.56483

> <i_epik_Tot_Q>
1

> <i_epik_Tot_abs_Q>
1

> <r_epik_Metal_State_Penalty>
2.36861

> <b_epik_Metal_Only>
0

> <s_lp_Force_Field>
OPLS_2005

> <r_lp_Energy>
41.3462

> <b_lp_Chiralities_Consistent>
1

> <s_lp_Variant>
AV-unprocessed.smi:2539-2

> <Gold.Version>
5.8.1

> <Gold.Id.Protein>
6NUR|6NUR_protein|mol2

> <Gold.PLP.Fitness>
50.0006

> <Gold.PLP.PLP>
-39.5159

> <Gold.PLP.part.hbond>
-3.0000

> <Gold.PLP.part.metal>
0.0000

> <Gold.PLP.part.buried>
-0.2394

> <Gold.PLP.part.nonpolar>
-36.5090

> <Gold.PLP.part.repulsive>
0.0781

> <Gold.PLP.ligand.clash>
0.0000

> <Gold.PLP.ligand.torsion>
0.6348

> <Gold.PLP.Chemscore.Hbond>
3.8880

> <Gold.PLP.Chemscore.CHOScore>
0.0000

> <Gold.PLP.Chemscore.Metal>
0.0000

> <Gold.Chemscore.Hbonds>
donor molecule, donor type, donor heavy atom, donor atom, acceptor molecule, acceptor atom, score
      L1  H    10    41       P1  8028  2.00
      L1  H    16    36       P1 10175  0.36
      P1  H  7989  7998       L1     1  1.00

> <Gold.PLP.Chemscore.Internal.Correction>
0.0903

> <Gold.Rescore>
     Score         DG    S(hbond)    S(metal)    S(lipo)     H(rot)  DE(clash)    DE(int)     intcor
     18.23     -20.53       2.96        0.00      89.09       2.06       1.89       0.40       ----

> <Gold.Chemscore.Fitness>
18.2332

> <Gold.Chemscore.DG>
-20.5265

> <Gold.Chemscore.ZeroCoef>
-5.4800

> <Gold.Chemscore.Hbond>
2.9609

> <Gold.Chemscore.Metal>
0.0000

> <Gold.Chemscore.Lipo>
89.0892

> <Gold.Chemscore.Internal_Hbond>
0.0000

> <Gold.Chemscore.DEClash>
1.8910

> <Gold.Chemscore.DEInternal>
0.4023

> <Gold.Chemscore.Rot>
2.0572

> <Gold.Chemscore.Internal.Correction>
   9.000000E+99

> <Gold.Chemscore.Hbonds>
donor molecule, donor type, donor heavy atom, donor atom, acceptor molecule, acceptor atom, score
      L1  H    10    41       P1  8028  0.88
      L1  H    16    36       P1 10175  0.35
      P1  H  7989  7998       L1     1  0.95

> <Gold.Chemscore.Hbond.Weighted>
-9.8894

> <Gold.Chemscore.Metal.Weighted>
-0.0000

> <Gold.Chemscore.Lipo.Weighted>
-10.4234

> <Gold.Chemscore.Internal_Hbond.Weighted>
0.0000

> <Gold.Chemscore.DEClash.Weighted>
1.8910

> <Gold.Chemscore.DEInternal.Weighted>
0.4023

> <Gold.Chemscore.Rot.Weighted>
5.2663

> <Gold.Chemscore.Internal.Correction.Weighted>
   9.000000E+99

> <Gold.Protein.RotatedTorsions>
[ 6907 6896 6895 6894 ] final   -7.25 input  -60.11 | X-H torsion
[ 7974 7965 7964 7962 ] final  -76.52 input  175.53 | X-H torsion
[ 8008 7997 7996 7995 ] final  -50.23 input   59.86 | X-H torsion
[ 10167 10162 10161 10158 ] final -172.17 input  -65.29 | X-H torsion
[ 10718 10713 10712 10709 ] final -165.99 input   66.30 | X-H torsion
[ 10763 10752 10751 10750 ] final  -75.99 input  -60.55 | X-H torsion
[ 11005 11000 10999 10996 ] final  -30.61 input  -57.11 | X-H torsion

> <Gold.Protein.ActiveResidues>
 VAL166  LYS551  ARG553  GLY616  TRP617  ASP618  TYR619  PRO620  LYS621  CYS622 
 ASP623  PHE694  ASN695  SER759  ASP760  ASP761  ALA762  ILE779  LEU786  VAL792 
 PHE793  MET794  SER795  GLU796  ALA797  LYS798  CYS799  TRP800  GLU811  SER814 

> <Gold.Protein.RotatedAtoms>
  151.4526  135.1031  159.9701 H   0  0  0  0  0  0  0  0  0  0  0  0  # atno 6907 bound_to 6896
  152.4882  133.8426  159.7171 H   0  0  0  0  0  0  0  0  0  0  0  0  # atno 6908 bound_to 6896
  150.9011  133.7057  159.2906 H   0  0  0  0  0  0  0  0  0  0  0  0  # atno 6909 bound_to 6896
  145.6118  140.9385  143.1185 H   0  0  0  0  0  0  0  0  0  0  0  0  # atno 7974 bound_to 7965
  154.4058  140.1277  156.4632 H   0  0  0  0  0  0  0  0  0  0  0  0  # atno 8008 bound_to 7997
  155.7252  140.3492  155.5014 H   0  0  0  0  0  0  0  0  0  0  0  0  # atno 8009 bound_to 7997
  155.9178  140.1047  157.1221 H   0  0  0  0  0  0  0  0  0  0  0  0  # atno 8010 bound_to 7997
  139.5760  144.1532  152.1450 H   0  0  0  0  0  0  0  0  0  0  0  0  # atno 10167 bound_to 10162
  156.6614  130.9047  151.3029 H   0  0  0  0  0  0  0  0  0  0  0  0  # atno 10718 bound_to 10713
  154.4939  135.5812  153.6480 H   0  0  0  0  0  0  0  0  0  0  0  0  # atno 10763 bound_to 10752
  152.9867  135.6119  154.3089 H   0  0  0  0  0  0  0  0  0  0  0  0  # atno 10764 bound_to 10752
  154.2991  135.2847  155.2599 H   0  0  0  0  0  0  0  0  0  0  0  0  # atno 10765 bound_to 10752
  140.9398  133.7286  156.1059 H   0  0  0  0  0  0  0  0  0  0  0  0  # atno 11005 bound_to 11000
  144.7267  139.7854  143.7362 LP  0  0  0  0  0  0  0  0  0  0  0  0  # atno 17320 bound_to 7965
  146.1499  139.4578  143.0055 LP  0  0  0  0  0  0  0  0  0  0  0  0  # atno 17321 bound_to 7965
  140.1075  144.5486  150.6947 LP  0  0  0  0  0  0  0  0  0  0  0  0  # atno 17342 bound_to 10162
  140.7042  143.2456  151.4775 LP  0  0  0  0  0  0  0  0  0  0  0  0  # atno 17343 bound_to 10162
  157.7108  130.9438  150.1083 LP  0  0  0  0  0  0  0  0  0  0  0  0  # atno 17370 bound_to 10713
  156.2008  130.3660  149.8791 LP  0  0  0  0  0  0  0  0  0  0  0  0  # atno 17371 bound_to 10713
  140.7750  134.3790  157.5500 LP  0  0  0  0  0  0  0  0  0  0  0  0  # atno 17394 bound_to 11000
  139.8817  134.9046  156.2880 LP  0  0  0  0  0  0  0  0  0  0  0  0  # atno 17395 bound_to 11000

$$$$
