AV-unprocessed.smi:383|AV-procd|sdf|2464|dock1
  -GOLD-   2262022403D 1   1.00000     0.00000
 Structure written by MMmdl.
 40 41  0  0  0  0  0  0  0  0  1 V2000
  147.3722  141.7733  153.3013 C   0  0  0  0  0  0  0  0  0  0  0  0
  146.6277  141.7594  154.6465 C   0  0  0  0  0  0  0  0  0  0  0  0
  146.0231  143.1369  154.9644 C   0  0  0  0  0  0  0  0  0  0  0  0
  147.5571  141.3056  155.7793 C   0  0  0  0  0  0  0  0  0  0  0  0
  147.3491  140.2406  156.3616 O   0  0  0  0  0  0  0  0  0  0  0  0
  148.5797  142.1219  156.0784 N   0  0  0  0  0  0  0  0  0  0  0  0
  149.5909  141.8586  157.0948 C   0  0  0  0  0  0  0  0  0  0  0  0
  150.6041  140.8083  156.6509 C   0  0  0  0  0  0  0  0  0  0  0  0
  150.3350  140.0493  155.4921 C   0  0  0  0  0  0  0  0  0  0  0  0
  151.2462  139.0565  155.0900 C   0  0  0  0  0  0  0  0  0  0  0  0
  152.3990  138.8570  155.8703 C   0  0  0  0  0  0  0  0  0  0  0  0
  152.6704  139.5708  156.9821 N   0  0  0  0  0  0  0  0  0  0  0  0
  151.7950  140.5287  157.3745 C   0  0  0  0  0  0  0  0  0  0  0  0
  152.1144  141.2535  158.5354 N   0  0  0  0  0  0  0  0  0  0  0  0
  152.2091  142.6906  158.3191 C   0  0  0  0  0  0  0  0  0  0  0  0
  152.3005  143.4149  159.6734 C   0  0  0  0  0  0  0  0  0  0  0  0
  153.3970  142.8975  160.4225 O   0  0  0  0  0  0  0  0  0  0  0  0
  153.2567  141.5040  160.6883 C   0  0  0  0  0  0  0  0  0  0  0  0
  153.1971  140.7303  159.3606 C   0  0  0  0  0  0  0  0  0  0  0  0
  147.8001  140.7960  153.0744 H   0  0  0  0  0  0  0  0  0  0  0  0
  148.1841  142.5019  153.2979 H   0  0  0  0  0  0  0  0  0  0  0  0
  146.6962  142.0305  152.4854 H   0  0  0  0  0  0  0  0  0  0  0  0
  145.8078  141.0436  154.5671 H   0  0  0  0  0  0  0  0  0  0  0  0
  145.5005  143.1287  155.9220 H   0  0  0  0  0  0  0  0  0  0  0  0
  145.3018  143.4311  154.2017 H   0  0  0  0  0  0  0  0  0  0  0  0
  146.7898  143.9117  155.0101 H   0  0  0  0  0  0  0  0  0  0  0  0
  148.6719  142.9795  155.5536 H   0  0  0  0  0  0  0  0  0  0  0  0
  150.1256  142.7897  157.2829 H   0  0  0  0  0  0  0  0  0  0  0  0
  149.1101  141.6030  158.0389 H   0  0  0  0  0  0  0  0  0  0  0  0
  149.4359  140.2226  154.9189 H   0  0  0  0  0  0  0  0  0  0  0  0
  151.0645  138.4609  154.2079 H   0  0  0  0  0  0  0  0  0  0  0  0
  153.1222  138.1034  155.5960 H   0  0  0  0  0  0  0  0  0  0  0  0
  153.0938  142.9055  157.7182 H   0  0  0  0  0  0  0  0  0  0  0  0
  151.3461  143.0519  157.7589 H   0  0  0  0  0  0  0  0  0  0  0  0
  152.4475  144.4840  159.5196 H   0  0  0  0  0  0  0  0  0  0  0  0
  151.3742  143.2980  160.2385 H   0  0  0  0  0  0  0  0  0  0  0  0
  154.1064  141.1674  161.2821 H   0  0  0  0  0  0  0  0  0  0  0  0
  152.3595  141.3242  161.2830 H   0  0  0  0  0  0  0  0  0  0  0  0
  153.0380  139.6680  159.5508 H   0  0  0  0  0  0  0  0  0  0  0  0
  154.1471  140.8301  158.8335 H   0  0  0  0  0  0  0  0  0  0  0  0
  1  2  1  0  0  0  0
  1 20  1  0  0  0  0
  1 21  1  0  0  0  0
  1 22  1  0  0  0  0
  2  3  1  0  0  0  0
  2  4  1  0  0  0  0
  2 23  1  0  0  0  0
  3 24  1  0  0  0  0
  3 25  1  0  0  0  0
  3 26  1  0  0  0  0
  4  5  2  0  0  0  0
  4  6  1  0  0  0  0
  6  7  1  0  0  0  0
  6 27  1  0  0  0  0
  7  8  1  0  0  0  0
  7 28  1  0  0  0  0
  7 29  1  0  0  0  0
  8 13  1  0  0  0  0
  8  9  2  0  0  0  0
  9 10  1  0  0  0  0
  9 30  1  0  0  0  0
 10 11  2  0  0  0  0
 10 31  1  0  0  0  0
 11 12  1  0  0  0  0
 11 32  1  0  0  0  0
 12 13  2  0  0  0  0
 13 14  1  0  0  0  0
 14 19  1  0  0  0  0
 14 15  1  0  0  0  0
 15 16  1  0  0  0  0
 15 33  1  0  0  0  0
 15 34  1  0  0  0  0
 16 17  1  0  0  0  0
 16 35  1  0  0  0  0
 16 36  1  0  0  0  0
 17 18  1  0  0  0  0
 18 19  1  0  0  0  0
 18 37  1  0  0  0  0
 18 38  1  0  0  0  0
 19 39  1  0  0  0  0
 19 40  1  0  0  0  0
M  END
> <s_m_source_file>
AV-unprocessed.smi

> <i_m_source_file_index>
383

> <i_lp_mmshare_version>
43012

> <i_f3d_flags>
0

> <s_epik_input>
W0NIM11bQ0hdKFtDSDNdKUMoPU8pW05IXVtDSDJdYzFbY0hdW2NIXVtjSF1uYzFOMltDSDJdW0NIMl1PW0NIMl1bQ0gyXTI=

> <s_epik_cmdline>
J2VwaWtfcHl0aG9uJywgJy1waCcsICc3LjAnLCAnLXRuJywgJzgnLCAnLW1hJywgJzIwMCcsICctbWV0YWxfYmluZGluZycsICctaW1hZScsICc8aW5maWxlLm1hZT4nLCAnLW9tYWUnLCAnPG91dGZpbGUubWFlPic=

> <r_lp_tautomer_probability>
1

> <r_epik_Ionization_Penalty>
0.00505534

> <r_epik_Ionization_Penalty_Charging>
0

> <r_epik_Ionization_Penalty_Neutral>
0.00505534

> <r_epik_State_Penalty>
0.00367784

> <r_epik_Charging_Adjusted_Penalty>
0.00367784

> <i_epik_Tot_Q>
0

> <i_epik_Tot_abs_Q>
0

> <r_epik_Metal_State_Penalty>
-0

> <b_epik_Metal_Only>
0

> <s_lp_Force_Field>
OPLS_2005

> <r_lp_Energy>
19.0793

> <b_lp_Chiralities_Consistent>
1

> <s_lp_Variant>
AV-unprocessed.smi:383-1

> <Gold.Version>
5.8.1

> <Gold.Id.Protein>
6NUR|6NUR_protein|mol2

> <Gold.PLP.Fitness>
40.3658

> <Gold.PLP.PLP>
-34.8819

> <Gold.PLP.part.hbond>
-2.0000

> <Gold.PLP.part.metal>
0.0000

> <Gold.PLP.part.buried>
-4.9386

> <Gold.PLP.part.nonpolar>
-28.0980

> <Gold.PLP.part.repulsive>
0.0550

> <Gold.PLP.ligand.clash>
0.0000

> <Gold.PLP.ligand.torsion>
0.3872

> <Gold.PLP.Chemscore.Hbond>
2.0000

> <Gold.PLP.Chemscore.CHOScore>
0.0000

> <Gold.PLP.Chemscore.Metal>
0.0000

> <Gold.Chemscore.Hbonds>
donor molecule, donor type, donor heavy atom, donor atom, acceptor molecule, acceptor atom, score
      L1  H     6    27       P1  8028  0.91
      P1  H  7997  8010       L1    12  0.85

> <Gold.PLP.Chemscore.Internal.Correction>
0.2584

> <Gold.Rescore>
     Score         DG    S(hbond)    S(metal)    S(lipo)     H(rot)  DE(clash)    DE(int)     intcor
     16.18     -17.65       1.71        0.00      89.16       1.56       0.46       1.01       ----

> <Gold.Chemscore.Fitness>
16.1819

> <Gold.Chemscore.DG>
-17.6474

> <Gold.Chemscore.ZeroCoef>
-5.4800

> <Gold.Chemscore.Hbond>
1.7142

> <Gold.Chemscore.Metal>
0.0000

> <Gold.Chemscore.Lipo>
89.1568

> <Gold.Chemscore.Internal_Hbond>
0.0000

> <Gold.Chemscore.DEClash>
0.4589

> <Gold.Chemscore.DEInternal>
1.0065

> <Gold.Chemscore.Rot>
1.5584

> <Gold.Chemscore.Internal.Correction>
   9.000000E+99

> <Gold.Chemscore.Hbonds>
donor molecule, donor type, donor heavy atom, donor atom, acceptor molecule, acceptor atom, score
      L1  H     6    27       P1  8028  0.90
      P1  H  7997  8010       L1    12  0.14

> <Gold.Chemscore.Hbond.Weighted>
-5.7255

> <Gold.Chemscore.Metal.Weighted>
-0.0000

> <Gold.Chemscore.Lipo.Weighted>
-10.4313

> <Gold.Chemscore.Internal_Hbond.Weighted>
0.0000

> <Gold.Chemscore.DEClash.Weighted>
0.4589

> <Gold.Chemscore.DEInternal.Weighted>
1.0065

> <Gold.Chemscore.Rot.Weighted>
3.9895

> <Gold.Chemscore.Internal.Correction.Weighted>
   9.000000E+99

> <Gold.Protein.RotatedTorsions>
[ 6907 6896 6895 6894 ] final  -52.76 input  -60.11 | X-H torsion
[ 7974 7965 7964 7962 ] final  140.54 input  175.53 | X-H torsion
[ 8008 7997 7996 7995 ] final   68.85 input   59.86 | X-H torsion
[ 10167 10162 10161 10158 ] final  109.31 input  -65.29 | X-H torsion
[ 10718 10713 10712 10709 ] final   58.31 input   66.30 | X-H torsion
[ 10763 10752 10751 10750 ] final   49.30 input  -60.55 | X-H torsion
[ 11005 11000 10999 10996 ] final  -17.07 input  -57.11 | X-H torsion

> <Gold.Protein.ActiveResidues>
 VAL166  LYS551  ARG553  GLY616  TRP617  ASP618  TYR619  PRO620  LYS621  CYS622 
 ASP623  PHE694  ASN695  SER759  ASP760  ASP761  ALA762  ILE779  LEU786  VAL792 
 PHE793  MET794  SER795  GLU796  ALA797  LYS798  CYS799  TRP800  GLU811  SER814 

> <Gold.Protein.RotatedAtoms>
  150.8488  134.7806  159.6991 H   0  0  0  0  0  0  0  0  0  0  0  0  # atno 6907 bound_to 6896
  152.4558  134.5290  159.9815 H   0  0  0  0  0  0  0  0  0  0  0  0  # atno 6908 bound_to 6896
  151.5415  133.3394  159.2972 H   0  0  0  0  0  0  0  0  0  0  0  0  # atno 6909 bound_to 6896
  144.9177  139.5209  143.5678 H   0  0  0  0  0  0  0  0  0  0  0  0  # atno 7974 bound_to 7965
  155.7147  140.3494  155.4989 H   0  0  0  0  0  0  0  0  0  0  0  0  # atno 8008 bound_to 7997
  155.9324  140.1086  157.1143 H   0  0  0  0  0  0  0  0  0  0  0  0  # atno 8009 bound_to 7997
  154.4087  140.1228  156.4806 H   0  0  0  0  0  0  0  0  0  0  0  0  # atno 8010 bound_to 7997
  139.6777  144.7121  151.1573 H   0  0  0  0  0  0  0  0  0  0  0  0  # atno 10167 bound_to 10162
  157.5586  130.8819  149.9075 H   0  0  0  0  0  0  0  0  0  0  0  0  # atno 10718 bound_to 10713
  152.9787  135.5916  154.4067 H   0  0  0  0  0  0  0  0  0  0  0  0  # atno 10763 bound_to 10752
  154.3707  135.2767  155.2270 H   0  0  0  0  0  0  0  0  0  0  0  0  # atno 10764 bound_to 10752
  154.4227  135.6055  153.6074 H   0  0  0  0  0  0  0  0  0  0  0  0  # atno 10765 bound_to 10752
  140.8132  133.8125  155.9584 H   0  0  0  0  0  0  0  0  0  0  0  0  # atno 11005 bound_to 11000
  146.3190  139.8032  142.8961 LP  0  0  0  0  0  0  0  0  0  0  0  0  # atno 17320 bound_to 7965
  145.3348  141.0275  143.3426 LP  0  0  0  0  0  0  0  0  0  0  0  0  # atno 17321 bound_to 7965
  140.7641  143.5747  150.8958 LP  0  0  0  0  0  0  0  0  0  0  0  0  # atno 17342 bound_to 10162
  139.9417  143.6374  152.3052 LP  0  0  0  0  0  0  0  0  0  0  0  0  # atno 17343 bound_to 10162
  156.0641  130.3695  150.0916 LP  0  0  0  0  0  0  0  0  0  0  0  0  # atno 17370 bound_to 10713
  156.9082  130.9643  151.3567 LP  0  0  0  0  0  0  0  0  0  0  0  0  # atno 17371 bound_to 10713
  140.9176  134.2181  157.4946 LP  0  0  0  0  0  0  0  0  0  0  0  0  # atno 17394 bound_to 11000
  139.8713  134.9778  156.4973 LP  0  0  0  0  0  0  0  0  0  0  0  0  # atno 17395 bound_to 11000

$$$$
