AV-unprocessed.smi:284|AV-procd|sdf|2163|dock8
  -GOLD-   2262021523D 1   1.00000     0.00000
 Structure written by MMmdl.
 60 62  0  0  0  0  0  0  0  0  1 V2000
  149.7556  134.7559  155.4492 C   0  0  0  0  0  0  0  0  0  0  0  0
  150.2009  136.2097  155.4519 C   0  0  0  0  0  0  0  0  0  0  0  0
  149.4424  137.1954  154.9199 C   0  0  0  0  0  0  0  0  0  0  0  0
  149.8187  138.5247  154.9039 N   0  0  0  0  0  0  0  0  0  0  0  0
  148.9218  139.5688  154.2844 C   0  0  2  0  0  0  0  0  0  0  0  0
  147.6232  139.7230  155.0697 C   0  0  0  0  0  0  0  0  0  0  0  0
  146.7198  140.2775  153.9879 C   0  0  2  0  0  0  0  0  0  0  0  0
  145.3496  140.0870  154.2806 O   0  0  0  0  0  0  0  0  0  0  0  0
  147.2329  139.5684  152.7172 C   0  0  2  0  0  0  0  0  0  0  0  0
  146.4467  138.3439  152.1995 C   0  0  0  0  0  0  0  0  0  0  0  0
  146.7675  138.0107  150.8642 O   0  0  0  0  0  0  0  0  0  0  0  0
  148.5750  139.1651  152.9946 O   0  0  0  0  0  0  0  0  0  0  0  0
  151.0438  138.9121  155.4826 C   0  0  0  0  0  0  0  0  0  0  0  0
  151.3948  140.0942  155.4955 O   0  0  0  0  0  0  0  0  0  0  0  0
  151.8578  137.9072  156.0527 N   0  0  0  0  0  0  0  0  0  0  0  0
  153.1549  138.3035  156.6451 C   0  0  0  0  0  0  0  0  0  0  0  0
  153.1854  138.2074  158.1788 C   0  0  0  0  0  0  0  0  0  0  0  0
  152.6199  139.0574  158.8671 O   0  0  0  0  0  0  0  0  0  0  0  0
  153.8900  137.1707  158.6683 N   0  0  0  0  0  0  0  0  0  0  0  0
  154.1130  136.7914  160.0205 C   0  0  0  0  0  0  0  0  0  0  0  0
  154.7909  135.6137  160.4123 C   0  0  0  0  0  0  0  0  0  0  0  0
  154.9825  135.3212  161.7767 C   0  0  0  0  0  0  0  0  0  0  0  0
  154.5118  136.1990  162.7842 C   0  0  0  0  0  0  0  0  0  0  0  0
  154.7061  135.9137  164.2859 C   0  0  0  0  0  0  0  0  0  0  0  0
  154.1143  137.0754  165.1097 C   0  0  0  0  0  0  0  0  0  0  0  0
  156.1917  135.7633  164.6838 C   0  0  0  0  0  0  0  0  0  0  0  0
  153.9884  134.6011  164.6666 C   0  0  0  0  0  0  0  0  0  0  0  0
  153.8514  137.3824  162.3794 C   0  0  0  0  0  0  0  0  0  0  0  0
  153.6569  137.6756  161.0169 C   0  0  0  0  0  0  0  0  0  0  0  0
  151.4942  136.5377  156.0567 C   0  0  0  0  0  0  0  0  0  0  0  0
  152.2442  135.6897  156.5445 O   0  0  0  0  0  0  0  0  0  0  0  0
  148.7888  134.6286  154.9611 H   0  0  0  0  0  0  0  0  0  0  0  0
  149.6660  134.3830  156.4702 H   0  0  0  0  0  0  0  0  0  0  0  0
  150.4799  134.1359  154.9198 H   0  0  0  0  0  0  0  0  0  0  0  0
  148.4909  136.9280  154.4852 H   0  0  0  0  0  0  0  0  0  0  0  0
  149.4846  140.4995  154.2024 H   0  0  0  0  0  0  0  0  0  0  0  0
  147.2790  138.7458  155.4115 H   0  0  0  0  0  0  0  0  0  0  0  0
  147.7512  140.3831  155.9280 H   0  0  0  0  0  0  0  0  0  0  0  0
  146.9042  141.3489  153.8953 H   0  0  0  0  0  0  0  0  0  0  0  0
  144.8361  140.5021  153.6046 H   0  0  0  0  0  0  0  0  0  0  0  0
  147.2743  140.2980  151.9075 H   0  0  0  0  0  0  0  0  0  0  0  0
  146.6677  137.4760  152.8213 H   0  0  0  0  0  0  0  0  0  0  0  0
  145.3739  138.5211  152.2775 H   0  0  0  0  0  0  0  0  0  0  0  0
  146.0199  138.2011  150.3187 H   0  0  0  0  0  0  0  0  0  0  0  0
  153.9643  137.6962  156.2360 H   0  0  0  0  0  0  0  0  0  0  0  0
  153.4262  139.3220  156.3636 H   0  0  0  0  0  0  0  0  0  0  0  0
  154.3673  136.6059  157.9810 H   0  0  0  0  0  0  0  0  0  0  0  0
  155.1877  134.9211  159.6870 H   0  0  0  0  0  0  0  0  0  0  0  0
  155.5036  134.4089  162.0203 H   0  0  0  0  0  0  0  0  0  0  0  0
  154.2455  136.9100  166.1796 H   0  0  0  0  0  0  0  0  0  0  0  0
  153.0458  137.1998  164.9337 H   0  0  0  0  0  0  0  0  0  0  0  0
  154.5994  138.0205  164.8632 H   0  0  0  0  0  0  0  0  0  0  0  0
  156.7567  136.6761  164.4915 H   0  0  0  0  0  0  0  0  0  0  0  0
  156.6724  134.9459  164.1447 H   0  0  0  0  0  0  0  0  0  0  0  0
  156.2946  135.5471  165.7479 H   0  0  0  0  0  0  0  0  0  0  0  0
  154.1341  134.3611  165.7204 H   0  0  0  0  0  0  0  0  0  0  0  0
  154.3689  133.7610  164.0845 H   0  0  0  0  0  0  0  0  0  0  0  0
  152.9126  134.6551  164.5011 H   0  0  0  0  0  0  0  0  0  0  0  0
  153.4867  138.0832  163.1152 H   0  0  0  0  0  0  0  0  0  0  0  0
  153.1492  138.5880  160.7399 H   0  0  0  0  0  0  0  0  0  0  0  0
  1  2  1  0  0  0  0
  1 32  1  0  0  0  0
  1 33  1  0  0  0  0
  1 34  1  0  0  0  0
  2 30  1  0  0  0  0
  2  3  2  0  0  0  0
  3  4  1  0  0  0  0
  3 35  1  0  0  0  0
  4  5  1  0  0  0  0
  4 13  1  0  0  0  0
  5 12  1  0  0  0  0
  5  6  1  0  0  0  0
  5 36  1  0  0  0  0
  6  7  1  0  0  0  0
  6 37  1  0  0  0  0
  6 38  1  0  0  0  0
  7  8  1  0  0  0  0
  7  9  1  0  0  0  0
  7 39  1  0  0  0  0
  8 40  1  0  0  0  0
  9 10  1  0  0  0  0
  9 12  1  0  0  0  0
  9 41  1  0  0  0  0
 10 11  1  0  0  0  0
 10 42  1  0  0  0  0
 10 43  1  0  0  0  0
 11 44  1  0  0  0  0
 13 14  2  0  0  0  0
 13 15  1  0  0  0  0
 15 16  1  0  0  0  0
 15 30  1  0  0  0  0
 16 17  1  0  0  0  0
 16 45  1  0  0  0  0
 16 46  1  0  0  0  0
 17 18  2  0  0  0  0
 17 19  1  0  0  0  0
 19 20  1  0  0  0  0
 19 47  1  0  0  0  0
 20 29  1  0  0  0  0
 20 21  2  0  0  0  0
 21 22  1  0  0  0  0
 21 48  1  0  0  0  0
 22 23  2  0  0  0  0
 22 49  1  0  0  0  0
 23 24  1  0  0  0  0
 23 28  1  0  0  0  0
 24 25  1  0  0  0  0
 24 26  1  0  0  0  0
 24 27  1  0  0  0  0
 25 50  1  0  0  0  0
 25 51  1  0  0  0  0
 25 52  1  0  0  0  0
 26 53  1  0  0  0  0
 26 54  1  0  0  0  0
 26 55  1  0  0  0  0
 27 56  1  0  0  0  0
 27 57  1  0  0  0  0
 27 58  1  0  0  0  0
 28 29  2  0  0  0  0
 28 59  1  0  0  0  0
 29 60  1  0  0  0  0
 30 31  2  0  0  0  0
M  END
> <s_m_source_file>
AV-unprocessed.smi

> <i_m_source_file_index>
284

> <i_lp_mmshare_version>
43012

> <i_f3d_flags>
0

> <s_epik_input>
W09IXVtDSDJdW0NAQEhdKE8xKVtDQEhdKFtPSF0pW0NIMl1bQ0BIXTFuKFtjSF1jMltDSDNdKWMoPU8pbihjMj1PKVtDSDJdQyg9TylbTkhdYzNbY0hdW2NIXWMoQyhbQ0gzXSkoW0NIM10pW0NIM10pW2NIXVtjSF0z

> <s_epik_cmdline>
J2VwaWtfcHl0aG9uJywgJy1waCcsICc3LjAnLCAnLXRuJywgJzgnLCAnLW1hJywgJzIwMCcsICctbWV0YWxfYmluZGluZycsICctaW1hZScsICc8aW5maWxlLm1hZT4nLCAnLW9tYWUnLCAnPG91dGZpbGUubWFlPic=

> <r_lp_tautomer_probability>
1

> <r_epik_Ionization_Penalty>
4.92358e-06

> <r_epik_Ionization_Penalty_Charging>
1.29777e-07

> <r_epik_Ionization_Penalty_Neutral>
4.79381e-06

> <r_epik_State_Penalty>
-0

> <r_epik_Charging_Adjusted_Penalty>
1.29777e-07

> <i_epik_Tot_Q>
0

> <i_epik_Tot_abs_Q>
0

> <r_epik_Metal_State_Penalty>
-0

> <b_epik_Metal_Only>
0

> <s_epik_Chemistry_Notes>
This compound contains an acetal/aminal-like group ( X-CH(R)-Y where X, Y are N, S, or O) that may be acid/base labile, releasing an aldehyde.

> <s_lp_Force_Field>
OPLS_2005

> <r_lp_Energy>
44.8012

> <b_lp_Chiralities_Consistent>
1

> <s_lp_Variant>
AV-unprocessed.smi:284-7

> <Gold.Version>
5.8.1

> <Gold.Id.Protein>
6NUR|6NUR_protein|mol2

> <Gold.PLP.Fitness>
53.0071

> <Gold.PLP.PLP>
-38.6263

> <Gold.PLP.part.hbond>
-5.4730

> <Gold.PLP.part.metal>
0.0000

> <Gold.PLP.part.buried>
-2.2786

> <Gold.PLP.part.nonpolar>
-38.1273

> <Gold.PLP.part.repulsive>
5.5332

> <Gold.PLP.ligand.clash>
0.0000

> <Gold.PLP.ligand.torsion>
0.5429

> <Gold.PLP.Chemscore.Hbond>
4.9920

> <Gold.PLP.Chemscore.CHOScore>
0.1452

> <Gold.PLP.Chemscore.Metal>
0.0000

> <Gold.Chemscore.Hbonds>
donor molecule, donor type, donor heavy atom, donor atom, acceptor molecule, acceptor atom, score
      L1  H     8    40       P1 10175  1.00
      L1  H    11    44       P1 10171  0.52
      P1  H  7954  7966       L1    11  1.00
      P1  H  7989  7998       L1    14  0.70
      P1  H 10752 10763       L1    31  1.00
      L1  C     3    35       P1  7948  0.25

> <Gold.PLP.Chemscore.Internal.Correction>
0.0549

> <Gold.Rescore>
     Score         DG    S(hbond)    S(metal)    S(lipo)     H(rot)  DE(clash)    DE(int)     intcor
     17.12     -20.86       3.67        0.00      98.26       3.27       1.90       1.84       ----

> <Gold.Chemscore.Fitness>
17.1170

> <Gold.Chemscore.DG>
-20.8581

> <Gold.Chemscore.ZeroCoef>
-5.4800

> <Gold.Chemscore.Hbond>
3.6712

> <Gold.Chemscore.Metal>
0.0000

> <Gold.Chemscore.Lipo>
98.2591

> <Gold.Chemscore.Internal_Hbond>
0.0000

> <Gold.Chemscore.DEClash>
1.9023

> <Gold.Chemscore.DEInternal>
1.8388

> <Gold.Chemscore.Rot>
3.2735

> <Gold.Chemscore.Internal.Correction>
   9.000000E+99

> <Gold.Chemscore.Hbonds>
donor molecule, donor type, donor heavy atom, donor atom, acceptor molecule, acceptor atom, score
      L1  H     8    40       P1 10175  0.96
      L1  H    11    44       P1 10171  0.52
      P1  H  7954  7966       L1    11  0.70
      P1  H  7989  7998       L1    14  0.55
      P1  H 10752 10763       L1    31  0.35

> <Gold.Chemscore.Hbond.Weighted>
-12.2618

> <Gold.Chemscore.Metal.Weighted>
-0.0000

> <Gold.Chemscore.Lipo.Weighted>
-11.4963

> <Gold.Chemscore.Internal_Hbond.Weighted>
0.0000

> <Gold.Chemscore.DEClash.Weighted>
1.9023

> <Gold.Chemscore.DEInternal.Weighted>
1.8388

> <Gold.Chemscore.Rot.Weighted>
8.3801

> <Gold.Chemscore.Internal.Correction.Weighted>
   9.000000E+99

> <Gold.Protein.RotatedTorsions>
[ 6907 6896 6895 6894 ] final   46.26 input  -60.11 | X-H torsion
[ 7974 7965 7964 7962 ] final  -83.64 input  175.53 | X-H torsion
[ 8008 7997 7996 7995 ] final  -85.77 input   59.86 | X-H torsion
[ 10167 10162 10161 10158 ] final -156.01 input  -65.29 | X-H torsion
[ 10718 10713 10712 10709 ] final  119.50 input   66.30 | X-H torsion
[ 10763 10752 10751 10750 ] final  105.88 input  -60.55 | X-H torsion
[ 11005 11000 10999 10996 ] final -124.03 input  -57.11 | X-H torsion

> <Gold.Protein.ActiveResidues>
 VAL166  LYS551  ARG553  GLY616  TRP617  ASP618  TYR619  PRO620  LYS621  CYS622 
 ASP623  PHE694  ASN695  SER759  ASP760  ASP761  ALA762  ILE779  LEU786  VAL792 
 PHE793  MET794  SER795  GLU796  ALA797  LYS798  CYS799  TRP800  GLU811  SER814 

> <Gold.Protein.RotatedAtoms>
  152.2543  134.8100  160.0440 H   0  0  0  0  0  0  0  0  0  0  0  0  # atno 6907 bound_to 6896
  151.8769  133.3482  159.3761 H   0  0  0  0  0  0  0  0  0  0  0  0  # atno 6908 bound_to 6896
  150.7094  134.4984  159.5593 H   0  0  0  0  0  0  0  0  0  0  0  0  # atno 6909 bound_to 6896
  145.5172  140.9535  143.1675 H   0  0  0  0  0  0  0  0  0  0  0  0  # atno 7974 bound_to 7965
  154.6444  140.0587  156.9884 H   0  0  0  0  0  0  0  0  0  0  0  0  # atno 8008 bound_to 7997
  155.1466  140.3270  155.4421 H   0  0  0  0  0  0  0  0  0  0  0  0  # atno 8009 bound_to 7997
  156.2547  140.1954  156.6580 H   0  0  0  0  0  0  0  0  0  0  0  0  # atno 8010 bound_to 7997
  139.6885  143.9460  152.2373 H   0  0  0  0  0  0  0  0  0  0  0  0  # atno 10167 bound_to 10162
  157.5957  131.1058  150.7905 H   0  0  0  0  0  0  0  0  0  0  0  0  # atno 10718 bound_to 10713
  153.3853  135.3895  155.1886 H   0  0  0  0  0  0  0  0  0  0  0  0  # atno 10763 bound_to 10752
  154.8713  135.3735  154.4805 H   0  0  0  0  0  0  0  0  0  0  0  0  # atno 10764 bound_to 10752
  153.5286  135.7086  153.5756 H   0  0  0  0  0  0  0  0  0  0  0  0  # atno 10765 bound_to 10752
  140.9872  134.0589  157.3696 H   0  0  0  0  0  0  0  0  0  0  0  0  # atno 11005 bound_to 11000
  144.7695  139.6767  143.7200 LP  0  0  0  0  0  0  0  0  0  0  0  0  # atno 17320 bound_to 7965
  146.2129  139.5498  142.9669 LP  0  0  0  0  0  0  0  0  0  0  0  0  # atno 17321 bound_to 7965
  139.9270  144.6765  150.8402 LP  0  0  0  0  0  0  0  0  0  0  0  0  # atno 17342 bound_to 10162
  140.7675  143.3335  151.2359 LP  0  0  0  0  0  0  0  0  0  0  0  0  # atno 17343 bound_to 10162
  156.8316  130.5018  149.5331 LP  0  0  0  0  0  0  0  0  0  0  0  0  # atno 17370 bound_to 10713
  156.1019  130.5975  150.9908 LP  0  0  0  0  0  0  0  0  0  0  0  0  # atno 17371 bound_to 10713
  139.8976  135.0151  156.7108 LP  0  0  0  0  0  0  0  0  0  0  0  0  # atno 17394 bound_to 11000
  140.7095  133.9235  155.8075 LP  0  0  0  0  0  0  0  0  0  0  0  0  # atno 17395 bound_to 11000

$$$$
