AV-unprocessed.smi:2629|AV-procd|sdf|10245|dock8
  -GOLD-   2272014253D 1   1.00000     0.00000
 Structure written by MMmdl.
 23 24  0  0  0  0  0  0  0  0  2 V2000
  150.1986  140.4582  154.9139 O   0  0  0  0  0  0  0  0  0  0  0  0
  150.7829  140.9650  155.8689 C   0  0  0  0  0  0  0  0  0  0  0  0
  150.5016  142.4027  156.2484 N   0  0  0  0  0  0  0  0  0  0  0  0
  151.1004  142.9218  157.2262 N   0  0  0  0  0  0  0  0  0  0  0  0
  152.0433  142.2288  158.0168 C   0  0  0  0  0  0  0  0  0  0  0  0
  152.6024  142.9807  159.0516 N   0  0  0  0  0  0  0  0  0  0  0  0
  153.1770  142.4172  160.2685 C   0  0  0  0  0  0  0  0  0  0  0  0
  152.2951  142.7688  161.4782 C   0  0  0  0  0  0  0  0  0  0  0  0
  152.1830  144.1857  161.5799 O   0  0  0  0  0  0  0  0  0  0  0  0
  151.6037  144.7640  160.4132 C   0  0  0  0  0  0  0  0  0  0  0  0
  152.4650  144.4294  159.1815 C   0  0  0  0  0  0  0  0  0  0  0  0
  152.3296  140.9062  157.6964 C   0  0  0  0  0  0  0  0  0  0  0  0
  153.0700  140.0093  158.1577 O   0  5  0  0  0  0  0  0  0  0  0  0
  151.6812  140.3116  156.6217 N   0  0  0  0  0  0  0  0  0  0  0  0
  154.1754  142.8335  160.4076 H   0  0  0  0  0  0  0  0  0  0  0  0
  153.3120  141.3400  160.1882 H   0  0  0  0  0  0  0  0  0  0  0  0
  151.3062  142.3169  161.3842 H   0  0  0  0  0  0  0  0  0  0  0  0
  152.7396  142.3814  162.3946 H   0  0  0  0  0  0  0  0  0  0  0  0
  150.5843  144.3975  160.2822 H   0  0  0  0  0  0  0  0  0  0  0  0
  151.5403  145.8439  160.5469 H   0  0  0  0  0  0  0  0  0  0  0  0
  152.0152  144.8757  158.2953 H   0  0  0  0  0  0  0  0  0  0  0  0
  153.4563  144.8723  159.2837 H   0  0  0  0  0  0  0  0  0  0  0  0
  151.9080  139.3502  156.4147 H   0  0  0  0  0  0  0  0  0  0  0  0
  1  2  2  0  0  0  0
  2 14  1  0  0  0  0
  2  3  1  0  0  0  0
  3  4  2  0  0  0  0
  4  5  1  0  0  0  0
  5 12  2  0  0  0  0
  5  6  1  0  0  0  0
  6 11  1  0  0  0  0
  6  7  1  0  0  0  0
  7  8  1  0  0  0  0
  7 15  1  0  0  0  0
  7 16  1  0  0  0  0
  8  9  1  0  0  0  0
  8 17  1  0  0  0  0
  8 18  1  0  0  0  0
  9 10  1  0  0  0  0
 10 11  1  0  0  0  0
 10 19  1  0  0  0  0
 10 20  1  0  0  0  0
 11 21  1  0  0  0  0
 11 22  1  0  0  0  0
 12 13  1  0  0  0  0
 12 14  1  0  0  0  0
 14 23  1  0  0  0  0
M  CHG  1  13  -1
M  END
> <s_m_source_file>
AV-unprocessed.smi

> <i_m_source_file_index>
2629

> <i_lp_mmshare_version>
43012

> <i_f3d_flags>
0

> <s_epik_input>
Tz1jMVtuSF1uYyhjKD1PKVtuSF0xKU4yW0NIMl1bQ0gyXU9bQ0gyXVtDSDJdMg==

> <s_epik_cmdline>
J2VwaWtfcHl0aG9uJywgJy1waCcsICc3LjAnLCAnLXRuJywgJzgnLCAnLW1hJywgJzIwMCcsICctbWV0YWxfYmluZGluZycsICctaW1hZScsICc8aW5maWxlLm1hZT4nLCAnLW9tYWUnLCAnPG91dGZpbGUubWFlPic=

> <r_lp_tautomer_probability>
1

> <r_epik_Ionization_Penalty>
0.519034

> <r_epik_Ionization_Penalty_Charging>
1.15035e-06

> <r_epik_Ionization_Penalty_Neutral>
0.519033

> <r_epik_State_Penalty>
0

> <r_epik_Charging_Adjusted_Penalty>
1.15035e-06

> <i_epik_Tot_Q>
-1

> <i_epik_Tot_abs_Q>
1

> <r_epik_Metal_State_Penalty>
8.21436e-06

> <b_epik_Metal_Only>
1

> <s_epik_pKa_notes>
Reset negative state penalty to 0 from Metal Processing

> <s_lp_Force_Field>
OPLS_2005

> <r_lp_Energy>
19.1466

> <b_lp_Chiralities_Consistent>
1

> <s_lp_Variant>
AV-unprocessed.smi:2629-2

> <Gold.Version>
5.8.1

> <Gold.Id.Protein>
6NUR|6NUR_protein|mol2

> <Gold.PLP.Fitness>
34.8444

> <Gold.PLP.PLP>
-26.7883

> <Gold.PLP.part.hbond>
-2.0000

> <Gold.PLP.part.metal>
0.0000

> <Gold.PLP.part.buried>
-5.0042

> <Gold.PLP.part.nonpolar>
-20.6327

> <Gold.PLP.part.repulsive>
2.2176

> <Gold.PLP.ligand.clash>
0.0000

> <Gold.PLP.ligand.torsion>
0.1617

> <Gold.PLP.Chemscore.Hbond>
2.7819

> <Gold.PLP.Chemscore.CHOScore>
0.0000

> <Gold.PLP.Chemscore.Metal>
0.0000

> <Gold.Chemscore.Hbonds>
donor molecule, donor type, donor heavy atom, donor atom, acceptor molecule, acceptor atom, score
      P1  H  7989  7998       L1     1  0.78
      P1  H  7997  8010       L1    13  1.90

> <Gold.PLP.Chemscore.Internal.Correction>
0.0338

> <Gold.Rescore>
     Score         DG    S(hbond)    S(metal)    S(lipo)     H(rot)  DE(clash)    DE(int)     intcor
     13.78     -14.23       0.98        0.00      46.97       0.00       0.07       0.38       ----

> <Gold.Chemscore.Fitness>
13.7818

> <Gold.Chemscore.DG>
-14.2340

> <Gold.Chemscore.ZeroCoef>
-5.4800

> <Gold.Chemscore.Hbond>
0.9757

> <Gold.Chemscore.Metal>
0.0000

> <Gold.Chemscore.Lipo>
46.9671

> <Gold.Chemscore.Internal_Hbond>
0.0000

> <Gold.Chemscore.DEClash>
0.0728

> <Gold.Chemscore.DEInternal>
0.3794

> <Gold.Chemscore.Rot>
0.0000

> <Gold.Chemscore.Internal.Correction>
   9.000000E+99

> <Gold.Chemscore.Hbonds>
donor molecule, donor type, donor heavy atom, donor atom, acceptor molecule, acceptor atom, score
      P1  H  7989  7998       L1     1  0.12
      P1  H  7997  8010       L1    13  0.21

> <Gold.Chemscore.Hbond.Weighted>
-3.2588

> <Gold.Chemscore.Metal.Weighted>
-0.0000

> <Gold.Chemscore.Lipo.Weighted>
-5.4951

> <Gold.Chemscore.Internal_Hbond.Weighted>
0.0000

> <Gold.Chemscore.DEClash.Weighted>
0.0728

> <Gold.Chemscore.DEInternal.Weighted>
0.3794

> <Gold.Chemscore.Rot.Weighted>
0.0000

> <Gold.Chemscore.Internal.Correction.Weighted>
   9.000000E+99

> <Gold.Protein.RotatedTorsions>
[ 6907 6896 6895 6894 ] final -175.45 input  -60.11 | X-H torsion
[ 7974 7965 7964 7962 ] final  -42.58 input  175.53 | X-H torsion
[ 8008 7997 7996 7995 ] final   46.94 input   59.86 | X-H torsion
[ 10167 10162 10161 10158 ] final   -9.36 input  -65.29 | X-H torsion
[ 10718 10713 10712 10709 ] final  154.63 input   66.30 | X-H torsion
[ 10763 10752 10751 10750 ] final  -97.20 input  -60.55 | X-H torsion
[ 11005 11000 10999 10996 ] final   -1.16 input  -57.11 | X-H torsion

> <Gold.Protein.ActiveResidues>
 VAL166  LYS551  ARG553  GLY616  TRP617  ASP618  TYR619  PRO620  LYS621  CYS622 
 ASP623  PHE694  ASN695  SER759  ASP760  ASP761  ALA762  ILE779  LEU786  VAL792 
 PHE793  MET794  SER795  GLU796  ALA797  LYS798  CYS799  TRP800  GLU811  SER814 

> <Gold.Protein.RotatedAtoms>
  151.5887  133.3369  159.3023 H   0  0  0  0  0  0  0  0  0  0  0  0  # atno 6907 bound_to 6896
  150.8272  134.7512  159.6834 H   0  0  0  0  0  0  0  0  0  0  0  0  # atno 6908 bound_to 6896
  152.4360  134.5691  159.9967 H   0  0  0  0  0  0  0  0  0  0  0  0  # atno 6909 bound_to 6896
  146.0102  140.6972  142.9228 H   0  0  0  0  0  0  0  0  0  0  0  0  # atno 7974 bound_to 7965
  155.3607  140.3418  155.4241 H   0  0  0  0  0  0  0  0  0  0  0  0  # atno 8008 bound_to 7997
  156.1715  140.1633  156.8474 H   0  0  0  0  0  0  0  0  0  0  0  0  # atno 8009 bound_to 7997
  154.5238  140.0761  156.8203 H   0  0  0  0  0  0  0  0  0  0  0  0  # atno 8010 bound_to 7997
  140.7085  143.5867  150.8936 H   0  0  0  0  0  0  0  0  0  0  0  0  # atno 10167 bound_to 10162
  157.2290  131.0735  151.1865 H   0  0  0  0  0  0  0  0  0  0  0  0  # atno 10718 bound_to 10713
  154.7307  135.5055  153.8959 H   0  0  0  0  0  0  0  0  0  0  0  0  # atno 10763 bound_to 10752
  153.0947  135.6669  153.9794 H   0  0  0  0  0  0  0  0  0  0  0  0  # atno 10764 bound_to 10752
  153.9596  135.3049  155.3413 H   0  0  0  0  0  0  0  0  0  0  0  0  # atno 10765 bound_to 10752
  140.6443  133.9461  155.8344 H   0  0  0  0  0  0  0  0  0  0  0  0  # atno 11005 bound_to 11000
  144.6950  140.3386  143.7203 LP  0  0  0  0  0  0  0  0  0  0  0  0  # atno 17320 bound_to 7965
  145.7353  139.1748  143.2407 LP  0  0  0  0  0  0  0  0  0  0  0  0  # atno 17321 bound_to 7965
  139.9592  143.6183  152.3007 LP  0  0  0  0  0  0  0  0  0  0  0  0  # atno 17342 bound_to 10162
  139.6729  144.7660  151.1749 LP  0  0  0  0  0  0  0  0  0  0  0  0  # atno 17343 bound_to 10162
  157.3498  130.7076  149.6433 LP  0  0  0  0  0  0  0  0  0  0  0  0  # atno 17370 bound_to 10713
  155.9676  130.4256  150.4660 LP  0  0  0  0  0  0  0  0  0  0  0  0  # atno 17371 bound_to 10713
  141.0584  134.0383  157.3692 LP  0  0  0  0  0  0  0  0  0  0  0  0  # atno 17394 bound_to 11000
  139.9069  135.0181  156.7523 LP  0  0  0  0  0  0  0  0  0  0  0  0  # atno 17395 bound_to 11000

$$$$
