AV-unprocessed.smi:607|AV-procd|sdf|3043|dock7
  -GOLD-   2262023563D 1   1.00000     0.00000
 Structure written by MMmdl.
 42 43  0  0  0  0  0  0  0  0  1 V2000
  151.0934  139.1012  158.4310 C   0  0  0  0  0  0  0  0  0  0  0  0
  151.5207  140.5106  158.7272 C   0  0  0  0  0  0  0  0  0  0  0  0
  152.3571  140.7342  159.7259 N   0  0  0  0  0  0  0  0  0  0  0  0
  152.5433  142.0682  159.7257 N   0  0  0  0  0  0  0  0  0  0  0  0
  153.4222  142.6623  160.7144 C   0  0  0  0  0  0  0  0  0  0  0  0
  151.8261  142.6905  158.7224 C   0  0  0  0  0  0  0  0  0  0  0  0
  151.8843  144.1726  158.5233 C   0  0  0  0  0  0  0  0  0  0  0  0
  151.1432  141.7078  158.0490 C   0  0  0  0  0  0  0  0  0  0  0  0
  150.2102  141.8125  156.8586 C   0  0  1  0  0  0  0  0  0  0  0  0
  150.7200  140.9905  155.6596 C   0  0  0  0  0  0  0  0  0  0  0  0
  148.7785  141.4465  157.2838 C   0  0  0  0  0  0  0  0  0  0  0  0
  148.5458  140.3979  157.8854 O   0  0  0  0  0  0  0  0  0  0  0  0
  147.8232  142.3353  156.9629 N   0  0  0  0  0  0  0  0  0  0  0  0
  146.4030  142.2592  157.3118 C   0  0  0  0  0  0  0  0  0  0  0  0
  146.2135  142.3836  158.7697 C   0  0  0  0  0  0  0  0  0  0  0  0
  146.0651  142.4800  159.9132 N   0  0  0  0  0  0  0  0  0  0  0  0
  145.6554  143.3743  156.5660 C   0  0  0  0  0  0  0  0  0  0  0  0
  145.3062  142.8148  155.1800 C   0  0  0  0  0  0  0  0  0  0  0  0
  145.4584  141.2913  155.2747 C   0  0  0  0  0  0  0  0  0  0  0  0
  145.7528  140.9853  156.7458 C   0  0  0  0  0  0  0  0  0  0  0  0
  151.4994  138.7653  157.4767 H   0  0  0  0  0  0  0  0  0  0  0  0
  150.0074  139.0266  158.3757 H   0  0  0  0  0  0  0  0  0  0  0  0
  151.4320  138.4047  159.1992 H   0  0  0  0  0  0  0  0  0  0  0  0
  154.2630  143.1440  160.2147 H   0  0  0  0  0  0  0  0  0  0  0  0
  153.8063  141.9021  161.3963 H   0  0  0  0  0  0  0  0  0  0  0  0
  152.8742  143.4079  161.2910 H   0  0  0  0  0  0  0  0  0  0  0  0
  151.4193  144.4726  157.5853 H   0  0  0  0  0  0  0  0  0  0  0  0
  152.9167  144.5223  158.5005 H   0  0  0  0  0  0  0  0  0  0  0  0
  151.3689  144.6901  159.3326 H   0  0  0  0  0  0  0  0  0  0  0  0
  150.1577  142.8483  156.5214 H   0  0  0  0  0  0  0  0  0  0  0  0
  150.8051  139.9297  155.8951 H   0  0  0  0  0  0  0  0  0  0  0  0
  151.7052  141.3369  155.3461 H   0  0  0  0  0  0  0  0  0  0  0  0
  150.0544  141.0869  154.8010 H   0  0  0  0  0  0  0  0  0  0  0  0
  148.1147  143.1650  156.4667 H   0  0  0  0  0  0  0  0  0  0  0  0
  144.7276  143.6029  157.0931 H   0  0  0  0  0  0  0  0  0  0  0  0
  146.2228  144.3043  156.5091 H   0  0  0  0  0  0  0  0  0  0  0  0
  144.2950  143.1006  154.8890 H   0  0  0  0  0  0  0  0  0  0  0  0
  145.9863  143.2108  154.4250 H   0  0  0  0  0  0  0  0  0  0  0  0
  144.5718  140.7643  154.9206 H   0  0  0  0  0  0  0  0  0  0  0  0
  146.2979  140.9690  154.6576 H   0  0  0  0  0  0  0  0  0  0  0  0
  146.3587  140.0875  156.8702 H   0  0  0  0  0  0  0  0  0  0  0  0
  144.8092  140.8038  157.2626 H   0  0  0  0  0  0  0  0  0  0  0  0
  1  2  1  0  0  0  0
  1 21  1  0  0  0  0
  1 22  1  0  0  0  0
  1 23  1  0  0  0  0
  2  8  1  0  0  0  0
  2  3  2  0  0  0  0
  3  4  1  0  0  0  0
  4  5  1  0  0  0  0
  4  6  1  0  0  0  0
  5 24  1  0  0  0  0
  5 25  1  0  0  0  0
  5 26  1  0  0  0  0
  6  7  1  0  0  0  0
  6  8  2  0  0  0  0
  7 27  1  0  0  0  0
  7 28  1  0  0  0  0
  7 29  1  0  0  0  0
  8  9  1  0  0  0  0
  9 10  1  0  0  0  0
  9 11  1  0  0  0  0
  9 30  1  0  0  0  0
 10 31  1  0  0  0  0
 10 32  1  0  0  0  0
 10 33  1  0  0  0  0
 11 12  2  0  0  0  0
 11 13  1  0  0  0  0
 13 14  1  0  0  0  0
 13 34  1  0  0  0  0
 14 20  1  0  0  0  0
 14 15  1  0  0  0  0
 14 17  1  0  0  0  0
 15 16  3  0  0  0  0
 17 18  1  0  0  0  0
 17 35  1  0  0  0  0
 17 36  1  0  0  0  0
 18 19  1  0  0  0  0
 18 37  1  0  0  0  0
 18 38  1  0  0  0  0
 19 20  1  0  0  0  0
 19 39  1  0  0  0  0
 19 40  1  0  0  0  0
 20 41  1  0  0  0  0
 20 42  1  0  0  0  0
M  END
> <s_m_source_file>
AV-unprocessed.smi

> <i_m_source_file_index>
607

> <i_lp_mmshare_version>
43012

> <i_f3d_flags>
0

> <s_epik_input>
W0NIM11jMW5uKFtDSDNdKWMoW0NIM10pYzFbQ0BIXShbQ0gzXSlDKD1PKVtOSF1DMihDI04pW0NIMl1bQ0gyXVtDSDJdW0NIMl0y

> <s_epik_cmdline>
J2VwaWtfcHl0aG9uJywgJy1waCcsICc3LjAnLCAnLXRuJywgJzgnLCAnLW1hJywgJzIwMCcsICctbWV0YWxfYmluZGluZycsICctaW1hZScsICc8aW5maWxlLm1hZT4nLCAnLW9tYWUnLCAnPG91dGZpbGUubWFlPic=

> <r_lp_tautomer_probability>
1

> <r_epik_Ionization_Penalty>
0.00342632

> <r_epik_Ionization_Penalty_Charging>
0

> <r_epik_Ionization_Penalty_Neutral>
0.00342632

> <r_epik_State_Penalty>
0.00242724

> <r_epik_Charging_Adjusted_Penalty>
0.00242724

> <i_epik_Tot_Q>
0

> <i_epik_Tot_abs_Q>
0

> <r_epik_Metal_State_Penalty>
-0

> <b_epik_Metal_Only>
0

> <s_lp_Force_Field>
OPLS_2005

> <r_lp_Energy>
13.7926

> <b_lp_Chiralities_Consistent>
1

> <s_lp_Variant>
AV-unprocessed.smi:607-2

> <Gold.Version>
5.8.1

> <Gold.Id.Protein>
6NUR|6NUR_protein|mol2

> <Gold.PLP.Fitness>
37.7503

> <Gold.PLP.PLP>
-32.3113

> <Gold.PLP.part.hbond>
-2.1591

> <Gold.PLP.part.metal>
0.0000

> <Gold.PLP.part.buried>
-5.1309

> <Gold.PLP.part.nonpolar>
-25.7101

> <Gold.PLP.part.repulsive>
0.0312

> <Gold.PLP.ligand.clash>
0.0000

> <Gold.PLP.ligand.torsion>
0.3383

> <Gold.PLP.Chemscore.Hbond>
2.0000

> <Gold.PLP.Chemscore.CHOScore>
0.0000

> <Gold.PLP.Chemscore.Metal>
0.0000

> <Gold.Chemscore.Hbonds>
donor molecule, donor type, donor heavy atom, donor atom, acceptor molecule, acceptor atom, score
      L1  H    13    34       P1  8028  1.00
      P1  H  6934  6946       L1    16  1.00

> <Gold.PLP.Chemscore.Internal.Correction>
0.1156

> <Gold.Rescore>
     Score         DG    S(hbond)    S(metal)    S(lipo)     H(rot)  DE(clash)    DE(int)     intcor
     15.61     -17.02       1.66        0.00      81.24       1.37       0.01       1.40       ----

> <Gold.Chemscore.Fitness>
15.6061

> <Gold.Chemscore.DG>
-17.0195

> <Gold.Chemscore.ZeroCoef>
-5.4800

> <Gold.Chemscore.Hbond>
1.6605

> <Gold.Chemscore.Metal>
0.0000

> <Gold.Chemscore.Lipo>
81.2442

> <Gold.Chemscore.Internal_Hbond>
0.0000

> <Gold.Chemscore.DEClash>
0.0149

> <Gold.Chemscore.DEInternal>
1.3985

> <Gold.Chemscore.Rot>
1.3720

> <Gold.Chemscore.Internal.Correction>
   9.000000E+99

> <Gold.Chemscore.Hbonds>
donor molecule, donor type, donor heavy atom, donor atom, acceptor molecule, acceptor atom, score
      L1  H    13    34       P1  8028  0.35
      P1  H  6934  6946       L1    16  0.53

> <Gold.Chemscore.Hbond.Weighted>
-5.5462

> <Gold.Chemscore.Metal.Weighted>
-0.0000

> <Gold.Chemscore.Lipo.Weighted>
-9.5056

> <Gold.Chemscore.Internal_Hbond.Weighted>
0.0000

> <Gold.Chemscore.DEClash.Weighted>
0.0149

> <Gold.Chemscore.DEInternal.Weighted>
1.3985

> <Gold.Chemscore.Rot.Weighted>
3.5123

> <Gold.Chemscore.Internal.Correction.Weighted>
   9.000000E+99

> <Gold.Protein.RotatedTorsions>
[ 6907 6896 6895 6894 ] final   53.44 input  -60.11 | X-H torsion
[ 7974 7965 7964 7962 ] final -151.29 input  175.53 | X-H torsion
[ 8008 7997 7996 7995 ] final  161.04 input   59.86 | X-H torsion
[ 10167 10162 10161 10158 ] final  -92.76 input  -65.29 | X-H torsion
[ 10718 10713 10712 10709 ] final -114.80 input   66.30 | X-H torsion
[ 10763 10752 10751 10750 ] final  107.77 input  -60.55 | X-H torsion
[ 11005 11000 10999 10996 ] final   15.55 input  -57.11 | X-H torsion

> <Gold.Protein.ActiveResidues>
 VAL166  LYS551  ARG553  GLY616  TRP617  ASP618  TYR619  PRO620  LYS621  CYS622 
 ASP623  PHE694  ASN695  SER759  ASP760  ASP761  ALA762  ILE779  LEU786  VAL792 
 PHE793  MET794  SER795  GLU796  ALA797  LYS798  CYS799  TRP800  GLU811  SER814 

> <Gold.Protein.RotatedAtoms>
  152.3337  134.7226  160.0282 H   0  0  0  0  0  0  0  0  0  0  0  0  # atno 6907 bound_to 6896
  151.7635  133.3330  159.3432 H   0  0  0  0  0  0  0  0  0  0  0  0  # atno 6908 bound_to 6896
  150.7438  134.6016  159.6084 H   0  0  0  0  0  0  0  0  0  0  0  0  # atno 6909 bound_to 6896
  144.7858  140.4817  143.5807 H   0  0  0  0  0  0  0  0  0  0  0  0  # atno 7974 bound_to 7965
  156.2131  140.1788  156.7650 H   0  0  0  0  0  0  0  0  0  0  0  0  # atno 8008 bound_to 7997
  154.5751  140.0675  156.9052 H   0  0  0  0  0  0  0  0  0  0  0  0  # atno 8009 bound_to 7997
  155.2602  140.3335  155.4276 H   0  0  0  0  0  0  0  0  0  0  0  0  # atno 8010 bound_to 7997
  140.3316  143.2992  151.9936 H   0  0  0  0  0  0  0  0  0  0  0  0  # atno 10167 bound_to 10162
  156.0853  130.6046  150.8822 H   0  0  0  0  0  0  0  0  0  0  0  0  # atno 10718 bound_to 10713
  153.4113  135.3834  155.2052 H   0  0  0  0  0  0  0  0  0  0  0  0  # atno 10763 bound_to 10752
  154.8738  135.3795  154.4497 H   0  0  0  0  0  0  0  0  0  0  0  0  # atno 10764 bound_to 10752
  153.5006  135.7088  153.5896 H   0  0  0  0  0  0  0  0  0  0  0  0  # atno 10765 bound_to 10752
  140.4571  134.1165  155.7711 H   0  0  0  0  0  0  0  0  0  0  0  0  # atno 11005 bound_to 11000
  145.5925  139.1497  143.3174 LP  0  0  0  0  0  0  0  0  0  0  0  0  # atno 17320 bound_to 7965
  146.2089  140.6050  142.9068 LP  0  0  0  0  0  0  0  0  0  0  0  0  # atno 17321 bound_to 7965
  139.4855  144.6231  151.7218 LP  0  0  0  0  0  0  0  0  0  0  0  0  # atno 17342 bound_to 10162
  140.5392  144.0606  150.6082 LP  0  0  0  0  0  0  0  0  0  0  0  0  # atno 17343 bound_to 10162
  157.5986  131.0942  150.8999 LP  0  0  0  0  0  0  0  0  0  0  0  0  # atno 17370 bound_to 10713
  156.9161  130.5298  149.5279 LP  0  0  0  0  0  0  0  0  0  0  0  0  # atno 17371 bound_to 10713
  141.1638  133.8742  157.1773 LP  0  0  0  0  0  0  0  0  0  0  0  0  # atno 17394 bound_to 11000
  139.9969  135.0043  157.0103 LP  0  0  0  0  0  0  0  0  0  0  0  0  # atno 17395 bound_to 11000

$$$$
