AV-unprocessed.smi:1047|AV-procd|sdf|4594|dock3
  -GOLD-   22720 3 73D 1   1.00000     0.00000
 Structure written by MMmdl.
 55 57  0  0  0  0  0  0  0  0  1 V2000
  160.1984  134.8869  151.6899 C   0  0  0  0  0  0  0  0  0  0  0  0
  159.3819  135.0564  152.9792 C   0  0  0  0  0  0  0  0  0  0  0  0
  158.2509  135.9763  152.8753 N   0  0  0  0  0  0  0  0  0  0  0  0
  157.1768  135.4527  152.0342 C   0  0  0  0  0  0  0  0  0  0  0  0
  155.9791  136.4160  151.9665 C   0  0  0  0  0  0  0  0  0  0  0  0
  155.5182  136.6911  153.2848 O   0  0  0  0  0  0  0  0  0  0  0  0
  156.5245  137.2724  154.1108 C   0  0  1  0  0  0  0  0  0  0  0  0
  155.9161  137.5628  155.4895 C   0  0  0  0  0  0  0  0  0  0  0  0
  155.7013  136.3171  156.2116 N   0  0  0  0  0  0  0  0  0  0  0  0
  155.0530  136.4603  157.5106 C   0  0  0  0  0  0  0  0  0  0  0  0
  153.6473  137.0837  157.3725 C   0  0  1  0  0  0  0  0  0  0  0  0
  152.8248  136.1517  156.7029 O   0  0  0  0  0  0  0  0  0  0  0  0
  152.9427  137.4359  158.7059 C   0  0  0  0  0  0  0  0  0  0  0  0
  153.3615  138.7078  159.2706 N   0  0  0  0  0  0  0  0  0  0  0  0
  154.3296  138.9080  160.1861 C   0  0  0  0  0  0  0  0  0  0  0  0
  154.5793  140.1636  160.5457 N   0  0  0  0  0  0  0  0  0  0  0  0
  153.6623  140.8604  159.7779 C   0  0  0  0  0  0  0  0  0  0  0  0
  153.4196  142.2476  159.6766 C   0  0  0  0  0  0  0  0  0  0  0  0
  152.4215  142.7471  158.8100 C   0  0  0  0  0  0  0  0  0  0  0  0
  152.1982  144.2469  158.7274 C   0  0  0  0  0  0  0  0  0  0  0  0
  151.6431  141.8526  158.0324 C   0  0  0  0  0  0  0  0  0  0  0  0
  150.5641  142.3661  157.0957 C   0  0  0  0  0  0  0  0  0  0  0  0
  151.8721  140.4636  158.1224 C   0  0  0  0  0  0  0  0  0  0  0  0
  152.8741  139.9788  158.9815 C   0  0  0  0  0  0  0  0  0  0  0  0
  157.7104  136.2923  154.1935 C   0  0  0  0  0  0  0  0  0  0  0  0
  161.0810  134.2744  151.8746 H   0  0  0  0  0  0  0  0  0  0  0  0
  160.5381  135.8509  151.3099 H   0  0  0  0  0  0  0  0  0  0  0  0
  159.6236  134.3967  150.9043 H   0  0  0  0  0  0  0  0  0  0  0  0
  159.0366  134.0802  153.3234 H   0  0  0  0  0  0  0  0  0  0  0  0
  160.0624  135.4220  153.7497 H   0  0  0  0  0  0  0  0  0  0  0  0
  157.5395  135.2760  151.0221 H   0  0  0  0  0  0  0  0  0  0  0  0
  156.8414  134.4888  152.4204 H   0  0  0  0  0  0  0  0  0  0  0  0
  156.2566  137.3464  151.4683 H   0  0  0  0  0  0  0  0  0  0  0  0
  155.1674  135.9734  151.3893 H   0  0  0  0  0  0  0  0  0  0  0  0
  156.8663  138.2090  153.6640 H   0  0  0  0  0  0  0  0  0  0  0  0
  156.5628  138.2319  156.0582 H   0  0  0  0  0  0  0  0  0  0  0  0
  154.9625  138.0762  155.3611 H   0  0  0  0  0  0  0  0  0  0  0  0
  156.5827  135.8234  156.3142 H   0  0  0  0  0  0  0  0  0  0  0  0
  154.9672  135.4748  157.9708 H   0  0  0  0  0  0  0  0  0  0  0  0
  155.6661  137.0643  158.1806 H   0  0  0  0  0  0  0  0  0  0  0  0
  153.7060  137.9701  156.7401 H   0  0  0  0  0  0  0  0  0  0  0  0
  151.9568  136.1975  157.0736 H   0  0  0  0  0  0  0  0  0  0  0  0
  151.8617  137.4673  158.5638 H   0  0  0  0  0  0  0  0  0  0  0  0
  153.1358  136.6575  159.4460 H   0  0  0  0  0  0  0  0  0  0  0  0
  154.8954  138.0863  160.6004 H   0  0  0  0  0  0  0  0  0  0  0  0
  154.0120  142.9283  160.2700 H   0  0  0  0  0  0  0  0  0  0  0  0
  151.1950  144.5010  159.0704 H   0  0  0  0  0  0  0  0  0  0  0  0
  152.3129  144.5957  157.7006 H   0  0  0  0  0  0  0  0  0  0  0  0
  152.9127  144.7913  159.3458 H   0  0  0  0  0  0  0  0  0  0  0  0
  150.0478  141.5458  156.5961 H   0  0  0  0  0  0  0  0  0  0  0  0
  150.9982  143.0059  156.3269 H   0  0  0  0  0  0  0  0  0  0  0  0
  149.8211  142.9420  157.6478 H   0  0  0  0  0  0  0  0  0  0  0  0
  151.2906  139.7723  157.5311 H   0  0  0  0  0  0  0  0  0  0  0  0
  157.3904  135.3756  154.6919 H   0  0  0  0  0  0  0  0  0  0  0  0
  158.4931  136.7281  154.8158 H   0  0  0  0  0  0  0  0  0  0  0  0
  1  2  1  0  0  0  0
  1 26  1  0  0  0  0
  1 27  1  0  0  0  0
  1 28  1  0  0  0  0
  2  3  1  0  0  0  0
  2 29  1  0  0  0  0
  2 30  1  0  0  0  0
  3 25  1  0  0  0  0
  3  4  1  0  0  0  0
  4  5  1  0  0  0  0
  4 31  1  0  0  0  0
  4 32  1  0  0  0  0
  5  6  1  0  0  0  0
  5 33  1  0  0  0  0
  5 34  1  0  0  0  0
  6  7  1  0  0  0  0
  7  8  1  0  0  0  0
  7 25  1  0  0  0  0
  7 35  1  0  0  0  0
  8  9  1  0  0  0  0
  8 36  1  0  0  0  0
  8 37  1  0  0  0  0
  9 10  1  0  0  0  0
  9 38  1  0  0  0  0
 10 11  1  0  0  0  0
 10 39  1  0  0  0  0
 10 40  1  0  0  0  0
 11 12  1  0  0  0  0
 11 13  1  0  0  0  0
 11 41  1  0  0  0  0
 12 42  1  0  0  0  0
 13 14  1  0  0  0  0
 13 43  1  0  0  0  0
 13 44  1  0  0  0  0
 14 24  1  0  0  0  0
 14 15  1  0  0  0  0
 15 16  2  0  0  0  0
 15 45  1  0  0  0  0
 16 17  1  0  0  0  0
 17 24  2  0  0  0  0
 17 18  1  0  0  0  0
 18 19  2  0  0  0  0
 18 46  1  0  0  0  0
 19 20  1  0  0  0  0
 19 21  1  0  0  0  0
 20 47  1  0  0  0  0
 20 48  1  0  0  0  0
 20 49  1  0  0  0  0
 21 22  1  0  0  0  0
 21 23  2  0  0  0  0
 22 50  1  0  0  0  0
 22 51  1  0  0  0  0
 22 52  1  0  0  0  0
 23 24  1  0  0  0  0
 23 53  1  0  0  0  0
 25 54  1  0  0  0  0
 25 55  1  0  0  0  0
M  END
> <s_m_source_file>
AV-unprocessed.smi

> <i_m_source_file_index>
1047

> <i_lp_mmshare_version>
43012

> <i_f3d_flags>
0

> <s_epik_input>
W0NIM11bQ0gyXU4xW0NIMl1bQ0gyXU9bQ0BIXShbQ0gyXTEpW0NIMl1bTkhdW0NIMl1bQ0BIXShbT0hdKVtDSDJdbihbY0hdbjIpYyhjMjMpW2NIXWMoW0NIM10pYyhbY0hdMylbQ0gzXQ==

> <s_epik_cmdline>
J2VwaWtfcHl0aG9uJywgJy1waCcsICc3LjAnLCAnLXRuJywgJzgnLCAnLW1hJywgJzIwMCcsICctbWV0YWxfYmluZGluZycsICctaW1hZScsICc8aW5maWxlLm1hZT4nLCAnLW9tYWUnLCAnPG91dGZpbGUubWFlPic=

> <r_epik_Ionization_Penalty>
2.74124

> <r_epik_Ionization_Penalty_Charging>
0

> <r_epik_Ionization_Penalty_Neutral>
2.74124

> <r_epik_State_Penalty>
2.37482

> <r_epik_Charging_Adjusted_Penalty>
2.37482

> <i_epik_Tot_Q>
0

> <i_epik_Tot_abs_Q>
0

> <r_epik_Metal_State_Penalty>
2.25944

> <b_epik_Metal_Only>
0

> <s_lp_Force_Field>
OPLS_2005

> <r_lp_Energy>
29.9902

> <b_lp_Chiralities_Consistent>
1

> <s_lp_Variant>
AV-unprocessed.smi:1047-35

> <Gold.Version>
5.8.1

> <Gold.Id.Protein>
6NUR|6NUR_protein|mol2

> <Gold.PLP.Fitness>
49.7263

> <Gold.PLP.PLP>
-45.1911

> <Gold.PLP.part.hbond>
-3.0000

> <Gold.PLP.part.metal>
0.0000

> <Gold.PLP.part.buried>
-4.4813

> <Gold.PLP.part.nonpolar>
-38.4331

> <Gold.PLP.part.repulsive>
0.1356

> <Gold.PLP.ligand.clash>
0.0000

> <Gold.PLP.ligand.torsion>
0.7388

> <Gold.PLP.Chemscore.Hbond>
1.9280

> <Gold.PLP.Chemscore.CHOScore>
0.0000

> <Gold.PLP.Chemscore.Metal>
0.0000

> <Gold.Chemscore.Hbonds>
donor molecule, donor type, donor heavy atom, donor atom, acceptor molecule, acceptor atom, score
      P1  H 10752 10763       L1    12  0.15
      P1  H 10752 10764       L1     9  1.00
      P1  H 10752 10765       L1     6  0.72

> <Gold.PLP.Chemscore.Internal.Correction>
0.2289

> <Gold.Rescore>
     Score         DG    S(hbond)    S(metal)    S(lipo)     H(rot)  DE(clash)    DE(int)     intcor
     19.45     -20.34       1.16        0.00     149.07       2.52       0.04       0.85       ----

> <Gold.Chemscore.Fitness>
19.4477

> <Gold.Chemscore.DG>
-20.3363

> <Gold.Chemscore.ZeroCoef>
-5.4800

> <Gold.Chemscore.Hbond>
1.1605

> <Gold.Chemscore.Metal>
0.0000

> <Gold.Chemscore.Lipo>
149.0682

> <Gold.Chemscore.Internal_Hbond>
0.0000

> <Gold.Chemscore.DEClash>
0.0402

> <Gold.Chemscore.DEInternal>
0.8483

> <Gold.Chemscore.Rot>
2.5237

> <Gold.Chemscore.Internal.Correction>
   9.000000E+99

> <Gold.Chemscore.Hbonds>
donor molecule, donor type, donor heavy atom, donor atom, acceptor molecule, acceptor atom, score
      P1  H 10752 10763       L1    12  0.14
      P1  H 10752 10764       L1     9  0.22
      P1  H 10752 10765       L1     6  0.35

> <Gold.Chemscore.Hbond.Weighted>
-3.8759

> <Gold.Chemscore.Metal.Weighted>
-0.0000

> <Gold.Chemscore.Lipo.Weighted>
-17.4410

> <Gold.Chemscore.Internal_Hbond.Weighted>
0.0000

> <Gold.Chemscore.DEClash.Weighted>
0.0402

> <Gold.Chemscore.DEInternal.Weighted>
0.8483

> <Gold.Chemscore.Rot.Weighted>
6.4607

> <Gold.Chemscore.Internal.Correction.Weighted>
   9.000000E+99

> <Gold.Protein.RotatedTorsions>
[ 6907 6896 6895 6894 ] final  110.89 input  -60.11 | X-H torsion
[ 7974 7965 7964 7962 ] final   12.25 input  175.53 | X-H torsion
[ 8008 7997 7996 7995 ] final   -6.23 input   59.86 | X-H torsion
[ 10167 10162 10161 10158 ] final -133.18 input  -65.29 | X-H torsion
[ 10718 10713 10712 10709 ] final -102.24 input   66.30 | X-H torsion
[ 10763 10752 10751 10750 ] final   58.17 input  -60.55 | X-H torsion
[ 11005 11000 10999 10996 ] final  178.57 input  -57.11 | X-H torsion

> <Gold.Protein.ActiveResidues>
 VAL166  LYS551  ARG553  GLY616  TRP617  ASP618  TYR619  PRO620  LYS621  CYS622 
 ASP623  PHE694  ASN695  SER759  ASP760  ASP761  ALA762  ILE779  LEU786  VAL792 
 PHE793  MET794  SER795  GLU796  ALA797  LYS798  CYS799  TRP800  GLU811  SER814 

> <Gold.Protein.RotatedAtoms>
  152.4997  133.8735  159.7310 H   0  0  0  0  0  0  0  0  0  0  0  0  # atno 6907 bound_to 6896
  150.9216  133.6865  159.2837 H   0  0  0  0  0  0  0  0  0  0  0  0  # atno 6908 bound_to 6896
  151.4240  135.1006  159.9675 H   0  0  0  0  0  0  0  0  0  0  0  0  # atno 6909 bound_to 6896
  146.2355  139.9364  142.8489 H   0  0  0  0  0  0  0  0  0  0  0  0  # atno 7974 bound_to 7965
  154.5959  140.2438  155.7858 H   0  0  0  0  0  0  0  0  0  0  0  0  # atno 8008 bound_to 7997
  156.2278  140.2976  156.0065 H   0  0  0  0  0  0  0  0  0  0  0  0  # atno 8009 bound_to 7997
  155.2294  140.0403  157.2950 H   0  0  0  0  0  0  0  0  0  0  0  0  # atno 8010 bound_to 7997
  139.9009  143.6608  152.2595 H   0  0  0  0  0  0  0  0  0  0  0  0  # atno 10167 bound_to 10162
  156.0222  130.5411  150.7080 H   0  0  0  0  0  0  0  0  0  0  0  0  # atno 10718 bound_to 10713
  152.9865  135.5616  154.5510 H   0  0  0  0  0  0  0  0  0  0  0  0  # atno 10763 bound_to 10752
  154.4947  135.2794  155.1471 H   0  0  0  0  0  0  0  0  0  0  0  0  # atno 10764 bound_to 10752
  154.2926  135.6323  153.5444 H   0  0  0  0  0  0  0  0  0  0  0  0  # atno 10765 bound_to 10752
  140.3965  134.6815  157.4538 H   0  0  0  0  0  0  0  0  0  0  0  0  # atno 11005 bound_to 11000
  145.1995  140.9848  143.4164 LP  0  0  0  0  0  0  0  0  0  0  0  0  # atno 17320 bound_to 7965
  144.9786  139.3806  143.6273 LP  0  0  0  0  0  0  0  0  0  0  0  0  # atno 17321 bound_to 7965
  139.7026  144.7633  151.1247 LP  0  0  0  0  0  0  0  0  0  0  0  0  # atno 17342 bound_to 10162
  140.7707  143.5437  150.9283 LP  0  0  0  0  0  0  0  0  0  0  0  0  # atno 17343 bound_to 10162
  157.4725  131.0894  151.0627 LP  0  0  0  0  0  0  0  0  0  0  0  0  # atno 17370 bound_to 10713
  157.1083  130.6011  149.5476 LP  0  0  0  0  0  0  0  0  0  0  0  0  # atno 17371 bound_to 10713
  140.0367  134.6326  155.9034 LP  0  0  0  0  0  0  0  0  0  0  0  0  # atno 17394 bound_to 11000
  141.1872  133.6559  156.5271 LP  0  0  0  0  0  0  0  0  0  0  0  0  # atno 17395 bound_to 11000

$$$$
