AV-unprocessed.smi:1413|AV-procd|sdf|5750|dock2
  -GOLD-   22720 5383D 1   1.00000     0.00000
 Structure written by MMmdl.
 53 55  0  0  0  0  0  0  0  0  1 V2000
  151.0253  145.2272  159.1345 C   0  0  0  0  0  0  0  0  0  0  0  0
  152.1640  144.5218  158.3767 C   0  0  2  0  0  0  0  0  0  0  0  0
  151.6700  143.5885  157.2530 C   0  0  0  0  0  0  0  0  0  0  0  0
  151.1102  142.3640  157.8090 N   0  0  0  0  0  0  0  0  0  0  0  0
  150.5288  141.5323  156.8431 C   0  0  0  0  0  0  0  0  0  0  0  0
  151.3151  140.8051  155.9207 C   0  0  0  0  0  0  0  0  0  0  0  0
  150.6648  139.9911  154.9742 C   0  0  0  0  0  0  0  0  0  0  0  0
  149.2568  139.9335  154.9672 C   0  0  0  0  0  0  0  0  0  0  0  0
  148.6279  139.0920  154.0102 N   0  0  0  0  0  0  0  0  0  0  0  0
  147.3366  139.0677  153.6383 C   0  0  0  0  0  0  0  0  0  0  0  0
  146.4576  139.8097  154.0755 O   0  0  0  0  0  0  0  0  0  0  0  0
  147.1242  138.1327  152.7010 N   0  0  0  0  0  0  0  0  0  0  0  0
  145.8424  137.8281  152.0685 C   0  0  1  0  0  0  0  0  0  0  0  0
  146.0968  136.9458  150.8361 C   0  0  0  0  0  0  0  0  0  0  0  0
  144.9124  137.1550  153.0971 C   0  0  2  0  0  0  0  0  0  0  0  0
  143.4903  136.8969  152.5955 C   0  0  0  0  0  0  0  0  0  0  0  0
  142.7090  136.8586  153.8882 C   0  0  0  0  0  0  0  0  0  0  0  0
  143.3933  137.9568  154.6949 C   0  0  0  0  0  0  0  0  0  0  0  0
  144.7434  137.9931  154.2400 O   0  0  0  0  0  0  0  0  0  0  0  0
  148.5621  140.6909  155.9418 C   0  0  0  0  0  0  0  0  0  0  0  0
  149.1799  141.4724  156.8532 N   0  0  0  0  0  0  0  0  0  0  0  0
  152.0404  141.6775  158.6933 C   0  0  0  0  0  0  0  0  0  0  0  0
  152.4840  142.6223  159.8243 C   0  0  1  0  0  0  0  0  0  0  0  0
  153.5484  141.9802  160.7204 C   0  0  0  0  0  0  0  0  0  0  0  0
  153.0380  143.8112  159.2589 O   0  0  0  0  0  0  0  0  0  0  0  0
  150.4510  145.8640  158.4613 H   0  0  0  0  0  0  0  0  0  0  0  0
  151.4210  145.8600  159.9291 H   0  0  0  0  0  0  0  0  0  0  0  0
  150.3273  144.5214  159.5843 H   0  0  0  0  0  0  0  0  0  0  0  0
  152.7670  145.3046  157.9159 H   0  0  0  0  0  0  0  0  0  0  0  0
  150.9259  144.0951  156.6365 H   0  0  0  0  0  0  0  0  0  0  0  0
  152.5058  143.3347  156.5994 H   0  0  0  0  0  0  0  0  0  0  0  0
  152.3932  140.8678  155.9326 H   0  0  0  0  0  0  0  0  0  0  0  0
  151.2436  139.4240  154.2599 H   0  0  0  0  0  0  0  0  0  0  0  0
  149.2460  138.4745  153.5047 H   0  0  0  0  0  0  0  0  0  0  0  0
  147.9122  137.5750  152.4069 H   0  0  0  0  0  0  0  0  0  0  0  0
  145.3616  138.7467  151.7273 H   0  0  0  0  0  0  0  0  0  0  0  0
  145.1718  136.7348  150.2993 H   0  0  0  0  0  0  0  0  0  0  0  0
  146.5450  135.9915  151.1150 H   0  0  0  0  0  0  0  0  0  0  0  0
  146.7720  137.4382  150.1356 H   0  0  0  0  0  0  0  0  0  0  0  0
  145.3452  136.2138  153.4409 H   0  0  0  0  0  0  0  0  0  0  0  0
  143.1429  137.7253  151.9761 H   0  0  0  0  0  0  0  0  0  0  0  0
  143.4020  135.9761  152.0184 H   0  0  0  0  0  0  0  0  0  0  0  0
  141.6412  137.0312  153.7515 H   0  0  0  0  0  0  0  0  0  0  0  0
  142.8414  135.8929  154.3777 H   0  0  0  0  0  0  0  0  0  0  0  0
  142.9339  138.9241  154.4883 H   0  0  0  0  0  0  0  0  0  0  0  0
  143.3393  137.7783  155.7691 H   0  0  0  0  0  0  0  0  0  0  0  0
  147.4869  140.6689  156.0247 H   0  0  0  0  0  0  0  0  0  0  0  0
  151.5638  140.7891  159.1099 H   0  0  0  0  0  0  0  0  0  0  0  0
  152.9101  141.3426  158.1262 H   0  0  0  0  0  0  0  0  0  0  0  0
  151.6262  142.8767  160.4473 H   0  0  0  0  0  0  0  0  0  0  0  0
  153.1721  141.0681  161.1843 H   0  0  0  0  0  0  0  0  0  0  0  0
  153.8472  142.6602  161.5187 H   0  0  0  0  0  0  0  0  0  0  0  0
  154.4411  141.7226  160.1498 H   0  0  0  0  0  0  0  0  0  0  0  0
  1  2  1  0  0  0  0
  1 26  1  0  0  0  0
  1 27  1  0  0  0  0
  1 28  1  0  0  0  0
  2 25  1  0  0  0  0
  2  3  1  0  0  0  0
  2 29  1  0  0  0  0
  3  4  1  0  0  0  0
  3 30  1  0  0  0  0
  3 31  1  0  0  0  0
  4  5  1  0  0  0  0
  4 22  1  0  0  0  0
  5 21  1  0  0  0  0
  5  6  2  0  0  0  0
  6  7  1  0  0  0  0
  6 32  1  0  0  0  0
  7  8  2  0  0  0  0
  7 33  1  0  0  0  0
  8  9  1  0  0  0  0
  8 20  1  0  0  0  0
  9 10  1  0  0  0  0
  9 34  1  0  0  0  0
 10 11  2  0  0  0  0
 10 12  1  0  0  0  0
 12 13  1  0  0  0  0
 12 35  1  0  0  0  0
 13 14  1  0  0  0  0
 13 15  1  0  0  0  0
 13 36  1  0  0  0  0
 14 37  1  0  0  0  0
 14 38  1  0  0  0  0
 14 39  1  0  0  0  0
 15 19  1  0  0  0  0
 15 16  1  0  0  0  0
 15 40  1  0  0  0  0
 16 17  1  0  0  0  0
 16 41  1  0  0  0  0
 16 42  1  0  0  0  0
 17 18  1  0  0  0  0
 17 43  1  0  0  0  0
 17 44  1  0  0  0  0
 18 19  1  0  0  0  0
 18 45  1  0  0  0  0
 18 46  1  0  0  0  0
 20 21  2  0  0  0  0
 20 47  1  0  0  0  0
 22 23  1  0  0  0  0
 22 48  1  0  0  0  0
 22 49  1  0  0  0  0
 23 24  1  0  0  0  0
 23 25  1  0  0  0  0
 23 50  1  0  0  0  0
 24 51  1  0  0  0  0
 24 52  1  0  0  0  0
 24 53  1  0  0  0  0
M  END
> <s_m_source_file>
AV-unprocessed.smi

> <i_m_source_file_index>
1413

> <i_lp_mmshare_version>
43012

> <i_f3d_flags>
0

> <s_epik_input>
W0NIM11bQ0BASF0xW0NIMl1OKFtDSDJdW0NASF0oTzEpW0NIM10pYzJbY0hdW2NIXWMoW2NIXW4yKVtOSF1DKD1PKVtOSF1bQ0BIXShbQ0gzXSlbQ0BASF0zW0NIMl1bQ0gyXVtDSDJdTzM=

> <s_epik_cmdline>
J2VwaWtfcHl0aG9uJywgJy1waCcsICc3LjAnLCAnLXRuJywgJzgnLCAnLW1hJywgJzIwMCcsICctbWV0YWxfYmluZGluZycsICctaW1hZScsICc8aW5maWxlLm1hZT4nLCAnLW9tYWUnLCAnPG91dGZpbGUubWFlPic=

> <r_lp_tautomer_probability>
1

> <r_epik_Ionization_Penalty>
0.00271172

> <r_epik_Ionization_Penalty_Charging>
0

> <r_epik_Ionization_Penalty_Neutral>
0.00271172

> <r_epik_State_Penalty>
0.00186503

> <r_epik_Charging_Adjusted_Penalty>
0.00186503

> <i_epik_Tot_Q>
0

> <i_epik_Tot_abs_Q>
0

> <r_epik_Metal_State_Penalty>
-0

> <b_epik_Metal_Only>
0

> <s_lp_Force_Field>
OPLS_2005

> <r_lp_Energy>
38.8285

> <b_lp_Chiralities_Consistent>
1

> <s_lp_Variant>
AV-unprocessed.smi:1413-3

> <Gold.Version>
5.8.1

> <Gold.Id.Protein>
6NUR|6NUR_protein|mol2

> <Gold.PLP.Fitness>
45.2343

> <Gold.PLP.PLP>
-42.7777

> <Gold.PLP.part.hbond>
-1.5893

> <Gold.PLP.part.metal>
0.0000

> <Gold.PLP.part.buried>
-0.8572

> <Gold.PLP.part.nonpolar>
-41.3488

> <Gold.PLP.part.repulsive>
0.4967

> <Gold.PLP.ligand.clash>
0.0000

> <Gold.PLP.ligand.torsion>
0.3308

> <Gold.PLP.Chemscore.Hbond>
1.0000

> <Gold.PLP.Chemscore.CHOScore>
0.0000

> <Gold.PLP.Chemscore.Metal>
0.0000

> <Gold.Chemscore.Hbonds>
donor molecule, donor type, donor heavy atom, donor atom, acceptor molecule, acceptor atom, score
      L1  H    12    35       P1  7948  1.00

> <Gold.PLP.Chemscore.Internal.Correction>
0.1182

> <Gold.Rescore>
     Score         DG    S(hbond)    S(metal)    S(lipo)     H(rot)  DE(clash)    DE(int)     intcor
     14.73     -19.22       1.00        0.00     118.38       1.35       1.19       3.29       ----

> <Gold.Chemscore.Fitness>
14.7278

> <Gold.Chemscore.DG>
-19.2166

> <Gold.Chemscore.ZeroCoef>
-5.4800

> <Gold.Chemscore.Hbond>
0.9986

> <Gold.Chemscore.Metal>
0.0000

> <Gold.Chemscore.Lipo>
118.3759

> <Gold.Chemscore.Internal_Hbond>
0.0000

> <Gold.Chemscore.DEClash>
1.1944

> <Gold.Chemscore.DEInternal>
3.2944

> <Gold.Chemscore.Rot>
1.3471

> <Gold.Chemscore.Internal.Correction>
   9.000000E+99

> <Gold.Chemscore.Hbonds>
donor molecule, donor type, donor heavy atom, donor atom, acceptor molecule, acceptor atom, score
      L1  H    12    35       P1  7948  1.00

> <Gold.Chemscore.Hbond.Weighted>
-3.3352

> <Gold.Chemscore.Metal.Weighted>
-0.0000

> <Gold.Chemscore.Lipo.Weighted>
-13.8500

> <Gold.Chemscore.Internal_Hbond.Weighted>
0.0000

> <Gold.Chemscore.DEClash.Weighted>
1.1944

> <Gold.Chemscore.DEInternal.Weighted>
3.2944

> <Gold.Chemscore.Rot.Weighted>
3.4485

> <Gold.Chemscore.Internal.Correction.Weighted>
   9.000000E+99

> <Gold.Protein.RotatedTorsions>
[ 6907 6896 6895 6894 ] final  -58.92 input  -60.11 | X-H torsion
[ 7974 7965 7964 7962 ] final    5.11 input  175.53 | X-H torsion
[ 8008 7997 7996 7995 ] final  -27.58 input   59.86 | X-H torsion
[ 10167 10162 10161 10158 ] final  -32.75 input  -65.29 | X-H torsion
[ 10718 10713 10712 10709 ] final   56.33 input   66.30 | X-H torsion
[ 10763 10752 10751 10750 ] final  -48.66 input  -60.55 | X-H torsion
[ 11005 11000 10999 10996 ] final   45.60 input  -57.11 | X-H torsion

> <Gold.Protein.ActiveResidues>
 VAL166  LYS551  ARG553  GLY616  TRP617  ASP618  TYR619  PRO620  LYS621  CYS622 
 ASP623  PHE694  ASN695  SER759  ASP760  ASP761  ALA762  ILE779  LEU786  VAL792 
 PHE793  MET794  SER795  GLU796  ALA797  LYS798  CYS799  TRP800  GLU811  SER814 

> <Gold.Protein.RotatedAtoms>
  150.7970  134.7036  159.6563 H   0  0  0  0  0  0  0  0  0  0  0  0  # atno 6907 bound_to 6896
  152.4083  134.6166  160.0049 H   0  0  0  0  0  0  0  0  0  0  0  0  # atno 6908 bound_to 6896
  151.6416  133.3289  159.3167 H   0  0  0  0  0  0  0  0  0  0  0  0  # atno 6909 bound_to 6896
  146.2442  140.0433  142.8380 H   0  0  0  0  0  0  0  0  0  0  0  0  # atno 7974 bound_to 7965
  154.4371  140.1868  156.0955 H   0  0  0  0  0  0  0  0  0  0  0  0  # atno 8008 bound_to 7997
  156.0333  140.3328  155.7137 H   0  0  0  0  0  0  0  0  0  0  0  0  # atno 8009 bound_to 7997
  155.5808  140.0621  157.2774 H   0  0  0  0  0  0  0  0  0  0  0  0  # atno 8010 bound_to 7997
  140.7216  143.3671  151.1849 H   0  0  0  0  0  0  0  0  0  0  0  0  # atno 10167 bound_to 10162
  157.5421  130.8705  149.8838 H   0  0  0  0  0  0  0  0  0  0  0  0  # atno 10718 bound_to 10713
  154.0814  135.6590  153.4838 H   0  0  0  0  0  0  0  0  0  0  0  0  # atno 10763 bound_to 10752
  153.0354  135.5181  154.7470 H   0  0  0  0  0  0  0  0  0  0  0  0  # atno 10764 bound_to 10752
  154.6566  135.3009  154.9888 H   0  0  0  0  0  0  0  0  0  0  0  0  # atno 10765 bound_to 10752
  140.1444  134.4541  155.8426 H   0  0  0  0  0  0  0  0  0  0  0  0  # atno 11005 bound_to 11000
  145.1050  140.9369  143.4690 LP  0  0  0  0  0  0  0  0  0  0  0  0  # atno 17320 bound_to 7965
  145.0634  139.3087  143.5869 LP  0  0  0  0  0  0  0  0  0  0  0  0  # atno 17321 bound_to 7965
  139.7235  143.9185  152.2994 LP  0  0  0  0  0  0  0  0  0  0  0  0  # atno 17342 bound_to 10162
  139.8950  144.6944  150.8728 LP  0  0  0  0  0  0  0  0  0  0  0  0  # atno 17343 bound_to 10162
  156.0505  130.3718  150.1212 LP  0  0  0  0  0  0  0  0  0  0  0  0  # atno 17370 bound_to 10713
  156.9391  130.9738  151.3519 LP  0  0  0  0  0  0  0  0  0  0  0  0  # atno 17371 bound_to 10713
  141.2190  133.6846  156.7307 LP  0  0  0  0  0  0  0  0  0  0  0  0  # atno 17394 bound_to 11000
  140.2681  134.8413  157.3822 LP  0  0  0  0  0  0  0  0  0  0  0  0  # atno 17395 bound_to 11000

$$$$
