AV-unprocessed.smi:1766|AV-procd|sdf|7138|dock4
  -GOLD-   22720 8373D 1   1.00000     0.00000
 Structure written by MMmdl.
 40 42  0  0  0  0  0  0  0  0  2 V2000
  149.3493  135.8439  154.3629 N   0  0  0  0  0  0  0  0  0  0  0  0
  149.5769  134.6751  154.9674 C   0  0  0  0  0  0  0  0  0  0  0  0
  149.6200  134.5713  156.1922 O   0  0  0  0  0  0  0  0  0  0  0  0
  149.7909  133.4575  154.0619 C   0  0  0  0  0  0  0  0  0  0  0  0
  148.5254  133.0629  153.3631 C   0  0  0  0  0  0  0  0  0  0  0  0
  147.6473  133.9169  152.7642 N   0  3  0  0  0  0  0  0  0  0  0  0
  146.5846  133.1974  152.2178 C   0  0  0  0  0  0  0  0  0  0  0  0
  145.4614  133.6262  151.5173 C   0  0  0  0  0  0  0  0  0  0  0  0
  144.5619  132.6275  151.0912 C   0  0  0  0  0  0  0  0  0  0  0  0
  144.7943  131.2648  151.3670 C   0  0  0  0  0  0  0  0  0  0  0  0
  145.9344  130.8433  152.0815 C   0  0  0  0  0  0  0  0  0  0  0  0
  146.8227  131.8359  152.4967 C   0  0  0  0  0  0  0  0  0  0  0  0
  148.0352  131.7993  153.1979 N   0  0  0  0  0  0  0  0  0  0  0  0
  148.5872  130.5058  153.6351 C   0  0  0  0  0  0  0  0  0  0  0  0
  148.8368  130.4489  155.1562 C   0  0  1  0  0  0  0  0  0  0  0  0
  148.3562  129.2099  155.6344 O   0  0  0  0  0  0  0  0  0  0  0  0
  150.2973  130.6812  155.5180 C   0  0  0  0  0  0  0  0  0  0  0  0
  150.6592  131.6642  156.4657 C   0  0  0  0  0  0  0  0  0  0  0  0
  152.0110  131.8479  156.8163 C   0  0  0  0  0  0  0  0  0  0  0  0
  153.0080  131.0510  156.2216 C   0  0  0  0  0  0  0  0  0  0  0  0
  154.3068  131.2240  156.5626 F   0  0  0  0  0  0  0  0  0  0  0  0
  152.6533  130.0718  155.2742 C   0  0  0  0  0  0  0  0  0  0  0  0
  151.3021  129.8880  154.9228 C   0  0  0  0  0  0  0  0  0  0  0  0
  149.2085  136.6753  154.9192 H   0  0  0  0  0  0  0  0  0  0  0  0
  149.3239  135.8982  153.3548 H   0  0  0  0  0  0  0  0  0  0  0  0
  150.5567  133.6724  153.3153 H   0  0  0  0  0  0  0  0  0  0  0  0
  150.1574  132.6257  154.6630 H   0  0  0  0  0  0  0  0  0  0  0  0
  145.2814  134.6698  151.3050 H   0  0  0  0  0  0  0  0  0  0  0  0
  143.6762  132.9124  150.5418 H   0  0  0  0  0  0  0  0  0  0  0  0
  144.0836  130.5268  151.0239 H   0  0  0  0  0  0  0  0  0  0  0  0
  146.0997  129.7955  152.2829 H   0  0  0  0  0  0  0  0  0  0  0  0
  147.8624  129.7420  153.3502 H   0  0  0  0  0  0  0  0  0  0  0  0
  149.4931  130.2825  153.0716 H   0  0  0  0  0  0  0  0  0  0  0  0
  148.2362  131.2173  155.6439 H   0  0  0  0  0  0  0  0  0  0  0  0
  147.7967  129.3716  156.3788 H   0  0  0  0  0  0  0  0  0  0  0  0
  149.9005  132.2729  156.9357 H   0  0  0  0  0  0  0  0  0  0  0  0
  152.2823  132.5978  157.5445 H   0  0  0  0  0  0  0  0  0  0  0  0
  153.4174  129.4593  154.8186 H   0  0  0  0  0  0  0  0  0  0  0  0
  151.0386  129.1282  154.2018 H   0  0  0  0  0  0  0  0  0  0  0  0
  147.7669  134.9213  152.7362 H   0  0  0  0  0  0  0  0  0  0  0  0
  1  2  1  0  0  0  0
  1 24  1  0  0  0  0
  1 25  1  0  0  0  0
  2  3  2  0  0  0  0
  2  4  1  0  0  0  0
  4  5  1  0  0  0  0
  4 26  1  0  0  0  0
  4 27  1  0  0  0  0
  5 13  1  0  0  0  0
  5  6  2  0  0  0  0
  6  7  1  0  0  0  0
  6 40  1  0  0  0  0
  7 12  2  0  0  0  0
  7  8  1  0  0  0  0
  8  9  2  0  0  0  0
  8 28  1  0  0  0  0
  9 10  1  0  0  0  0
  9 29  1  0  0  0  0
 10 11  2  0  0  0  0
 10 30  1  0  0  0  0
 11 12  1  0  0  0  0
 11 31  1  0  0  0  0
 12 13  1  0  0  0  0
 13 14  1  0  0  0  0
 14 15  1  0  0  0  0
 14 32  1  0  0  0  0
 14 33  1  0  0  0  0
 15 16  1  0  0  0  0
 15 17  1  0  0  0  0
 15 34  1  0  0  0  0
 16 35  1  0  0  0  0
 17 23  1  0  0  0  0
 17 18  2  0  0  0  0
 18 19  1  0  0  0  0
 18 36  1  0  0  0  0
 19 20  2  0  0  0  0
 19 37  1  0  0  0  0
 20 21  1  0  0  0  0
 20 22  1  0  0  0  0
 22 23  2  0  0  0  0
 22 38  1  0  0  0  0
 23 39  1  0  0  0  0
M  CHG  1   6   1
M  END
> <s_m_source_file>
AV-unprocessed.smi

> <i_m_source_file_index>
1766

> <i_lp_mmshare_version>
43012

> <i_f3d_flags>
0

> <s_epik_input>
W2NIXTFbY0hdW2NIXVtjSF1jKGMxMiluKGMobjIpW0NIMl1DKD1PKVtOSDJdKVtDSDJdW0NASF0oW09IXSljM1tjSF1bY0hdYyhGKVtjSF1bY0hdMw==

> <s_epik_cmdline>
J2VwaWtfcHl0aG9uJywgJy1waCcsICc3LjAnLCAnLXRuJywgJzgnLCAnLW1hJywgJzIwMCcsICctbWV0YWxfYmluZGluZycsICctaW1hZScsICc8aW5maWxlLm1hZT4nLCAnLW9tYWUnLCAnPG91dGZpbGUubWFlPic=

> <r_epik_Ionization_Penalty>
1.66646

> <r_epik_Ionization_Penalty_Charging>
1.66645

> <r_epik_Ionization_Penalty_Neutral>
2.12833e-06

> <r_epik_State_Penalty>
1.76975

> <r_epik_Charging_Adjusted_Penalty>
3.43621

> <i_epik_Tot_Q>
1

> <i_epik_Tot_abs_Q>
1

> <r_epik_Metal_State_Penalty>
1.80493

> <b_epik_Metal_Only>
0

> <s_lp_Force_Field>
OPLS_2005

> <r_lp_Energy>
15.5136

> <b_lp_Chiralities_Consistent>
1

> <s_lp_Variant>
AV-unprocessed.smi:1766-4

> <Gold.Version>
5.8.1

> <Gold.Id.Protein>
6NUR|6NUR_protein|mol2

> <Gold.PLP.Fitness>
45.0853

> <Gold.PLP.PLP>
-39.7562

> <Gold.PLP.part.hbond>
-2.0000

> <Gold.PLP.part.metal>
0.0000

> <Gold.PLP.part.buried>
-3.7875

> <Gold.PLP.part.nonpolar>
-33.3104

> <Gold.PLP.part.repulsive>
0.0361

> <Gold.PLP.ligand.clash>
0.0000

> <Gold.PLP.ligand.torsion>
1.0232

> <Gold.PLP.Chemscore.Hbond>
2.4400

> <Gold.PLP.Chemscore.CHOScore>
0.0000

> <Gold.PLP.Chemscore.Metal>
0.0000

> <Gold.Chemscore.Hbonds>
donor molecule, donor type, donor heavy atom, donor atom, acceptor molecule, acceptor atom, score
      L1  H     1    25       P1  7948  1.00
      L1  H     6    40       P1  7948  1.44

> <Gold.PLP.Chemscore.Internal.Correction>
0.0556

> <Gold.Rescore>
     Score         DG    S(hbond)    S(metal)    S(lipo)     H(rot)  DE(clash)    DE(int)     intcor
     11.97     -13.15       1.48        0.00      90.01       3.05       0.14       1.04       ----

> <Gold.Chemscore.Fitness>
11.9691

> <Gold.Chemscore.DG>
-13.1502

> <Gold.Chemscore.ZeroCoef>
-5.4800

> <Gold.Chemscore.Hbond>
1.4788

> <Gold.Chemscore.Metal>
0.0000

> <Gold.Chemscore.Lipo>
90.0115

> <Gold.Chemscore.Internal_Hbond>
0.0000

> <Gold.Chemscore.DEClash>
0.1386

> <Gold.Chemscore.DEInternal>
1.0425

> <Gold.Chemscore.Rot>
3.0470

> <Gold.Chemscore.Internal.Correction>
   9.000000E+99

> <Gold.Chemscore.Hbonds>
donor molecule, donor type, donor heavy atom, donor atom, acceptor molecule, acceptor atom, score
      L1  H     1    25       P1  7948  0.52
      L1  H     6    40       P1  7948  0.69

> <Gold.Chemscore.Hbond.Weighted>
-4.9393

> <Gold.Chemscore.Metal.Weighted>
-0.0000

> <Gold.Chemscore.Lipo.Weighted>
-10.5313

> <Gold.Chemscore.Internal_Hbond.Weighted>
0.0000

> <Gold.Chemscore.DEClash.Weighted>
0.1386

> <Gold.Chemscore.DEInternal.Weighted>
1.0425

> <Gold.Chemscore.Rot.Weighted>
7.8004

> <Gold.Chemscore.Internal.Correction.Weighted>
   9.000000E+99

> <Gold.Protein.RotatedTorsions>
[ 6907 6896 6895 6894 ] final -103.59 input  -60.11 | X-H torsion
[ 7974 7965 7964 7962 ] final -167.07 input  175.53 | X-H torsion
[ 8008 7997 7996 7995 ] final   91.77 input   59.86 | X-H torsion
[ 10167 10162 10161 10158 ] final -133.05 input  -65.29 | X-H torsion
[ 10718 10713 10712 10709 ] final  -43.87 input   66.30 | X-H torsion
[ 10763 10752 10751 10750 ] final  -91.43 input  -60.55 | X-H torsion
[ 11005 11000 10999 10996 ] final -105.25 input  -57.11 | X-H torsion

> <Gold.Protein.ActiveResidues>
 VAL166  LYS551  ARG553  GLY616  TRP617  ASP618  TYR619  PRO620  LYS621  CYS622 
 ASP623  PHE694  ASN695  SER759  ASP760  ASP761  ALA762  ILE779  LEU786  VAL792 
 PHE793  MET794  SER795  GLU796  ALA797  LYS798  CYS799  TRP800  GLU811  SER814 

> <Gold.Protein.RotatedAtoms>
  150.7247  134.0406  159.3763 H   0  0  0  0  0  0  0  0  0  0  0  0  # atno 6907 bound_to 6896
  151.8379  135.0598  160.0454 H   0  0  0  0  0  0  0  0  0  0  0  0  # atno 6908 bound_to 6896
  152.2885  133.5502  159.5579 H   0  0  0  0  0  0  0  0  0  0  0  0  # atno 6909 bound_to 6896
  144.7231  140.2573  143.6270 H   0  0  0  0  0  0  0  0  0  0  0  0  # atno 7974 bound_to 7965
  156.0277  140.3333  155.7106 H   0  0  0  0  0  0  0  0  0  0  0  0  # atno 8008 bound_to 7997
  155.5931  140.0648  157.2771 H   0  0  0  0  0  0  0  0  0  0  0  0  # atno 8009 bound_to 7997
  154.4340  140.1823  156.1083 H   0  0  0  0  0  0  0  0  0  0  0  0  # atno 8010 bound_to 7997
  139.9023  143.6593  152.2592 H   0  0  0  0  0  0  0  0  0  0  0  0  # atno 10167 bound_to 10162
  156.2445  130.4182  149.8721 H   0  0  0  0  0  0  0  0  0  0  0  0  # atno 10718 bound_to 10713
  154.6759  135.5268  153.8199 H   0  0  0  0  0  0  0  0  0  0  0  0  # atno 10763 bound_to 10752
  153.0532  135.6540  154.0651 H   0  0  0  0  0  0  0  0  0  0  0  0  # atno 10764 bound_to 10752
  154.0544  135.2966  155.3315 H   0  0  0  0  0  0  0  0  0  0  0  0  # atno 10765 bound_to 10752
  141.1062  133.8792  157.1711 H   0  0  0  0  0  0  0  0  0  0  0  0  # atno 11005 bound_to 11000
  145.8170  139.2027  143.1960 LP  0  0  0  0  0  0  0  0  0  0  0  0  # atno 17320 bound_to 7965
  146.0547  140.8033  142.9764 LP  0  0  0  0  0  0  0  0  0  0  0  0  # atno 17321 bound_to 7965
  139.7015  144.7634  151.1266 LP  0  0  0  0  0  0  0  0  0  0  0  0  # atno 17342 bound_to 10162
  140.7704  143.5452  150.9267 LP  0  0  0  0  0  0  0  0  0  0  0  0  # atno 17343 bound_to 10162
  156.6291  130.8658  151.3491 LP  0  0  0  0  0  0  0  0  0  0  0  0  # atno 17370 bound_to 10713
  157.7189  130.9533  150.1361 LP  0  0  0  0  0  0  0  0  0  0  0  0  # atno 17371 bound_to 10713
  139.9934  135.0056  157.0027 LP  0  0  0  0  0  0  0  0  0  0  0  0  # atno 17394 bound_to 11000
  140.4895  134.1207  155.7230 LP  0  0  0  0  0  0  0  0  0  0  0  0  # atno 17395 bound_to 11000

$$$$
