AV-unprocessed.smi:122|AV-procd|sdf|1142|dock3
  -GOLD-   2262018273D 1   1.00000     0.00000
 Structure written by MMmdl.
 48 50  0  0  0  0  0  0  0  0  1 V2000
  147.4869  137.4482  158.9327 C   0  0  0  0  0  0  0  0  0  0  0  0
  148.6076  136.3472  159.8911 S   0  0  0  0  0  0  0  0  0  0  0  0
  148.9511  137.0398  161.1424 O   0  0  0  0  0  0  0  0  0  0  0  0
  148.0326  134.9942  159.9349 O   0  0  0  0  0  0  0  0  0  0  0  0
  150.0373  136.2840  158.9116 N   0  0  0  0  0  0  0  0  0  0  0  0
  149.9475  135.5564  157.6249 C   0  0  0  0  0  0  0  0  0  0  0  0
  151.3318  135.3596  156.9813 C   0  0  0  0  0  0  0  0  0  0  0  0
  151.9926  136.6605  156.8719 N   0  0  0  0  0  0  0  0  0  0  0  0
  152.2256  137.3490  155.7293 C   0  0  0  0  0  0  0  0  0  0  0  0
  151.9282  136.8960  154.6222 O   0  0  0  0  0  0  0  0  0  0  0  0
  152.8877  138.7398  155.8203 C   0  0  0  0  0  0  0  0  0  0  0  0
  151.9489  139.8221  156.1932 N   0  0  0  0  0  0  0  0  0  0  0  0
  150.8474  140.0892  155.3426 C   0  0  0  0  0  0  0  0  0  0  0  0
  150.6546  139.4294  154.3204 O   0  0  0  0  0  0  0  0  0  0  0  0
  149.9868  141.1918  155.7548 C   0  0  0  0  0  0  0  0  0  0  0  0
  148.9256  141.5258  155.0011 F   0  0  0  0  0  0  0  0  0  0  0  0
  150.2426  141.8888  156.8810 C   0  0  0  0  0  0  0  0  0  0  0  0
  151.3088  141.6069  157.7120 N   0  0  0  0  0  0  0  0  0  0  0  0
  151.5516  142.4785  158.9227 C   0  0  1  0  0  0  0  0  0  0  0  0
  152.8430  143.3138  158.8349 C   0  0  0  0  0  0  0  0  0  0  0  0
  152.3350  144.7407  158.9617 C   0  0  0  0  0  0  0  0  0  0  0  0
  150.9782  144.5596  159.6332 C   0  0  0  0  0  0  0  0  0  0  0  0
  150.4821  143.3631  159.0541 O   0  0  0  0  0  0  0  0  0  0  0  0
  152.2109  140.5750  157.3632 C   0  0  0  0  0  0  0  0  0  0  0  0
  153.2056  140.3411  158.0517 O   0  0  0  0  0  0  0  0  0  0  0  0
  152.2559  137.2003  158.2052 C   0  0  0  0  0  0  0  0  0  0  0  0
  150.9113  137.4796  158.9011 C   0  0  0  0  0  0  0  0  0  0  0  0
  146.5833  137.6332  159.5129 H   0  0  0  0  0  0  0  0  0  0  0  0
  147.2125  136.9745  157.9912 H   0  0  0  0  0  0  0  0  0  0  0  0
  147.9885  138.3950  158.7342 H   0  0  0  0  0  0  0  0  0  0  0  0
  149.4842  134.5829  157.7845 H   0  0  0  0  0  0  0  0  0  0  0  0
  149.2947  136.1131  156.9511 H   0  0  0  0  0  0  0  0  0  0  0  0
  151.9383  134.6988  157.6027 H   0  0  0  0  0  0  0  0  0  0  0  0
  151.2267  134.8398  156.0306 H   0  0  0  0  0  0  0  0  0  0  0  0
  153.7141  138.6884  156.5308 H   0  0  0  0  0  0  0  0  0  0  0  0
  153.3634  138.9676  154.8650 H   0  0  0  0  0  0  0  0  0  0  0  0
  149.5778  142.7008  157.1372 H   0  0  0  0  0  0  0  0  0  0  0  0
  151.5663  141.8044  159.7805 H   0  0  0  0  0  0  0  0  0  0  0  0
  153.4839  143.0500  159.6767 H   0  0  0  0  0  0  0  0  0  0  0  0
  153.3955  143.1374  157.9116 H   0  0  0  0  0  0  0  0  0  0  0  0
  153.0072  145.3831  159.5309 H   0  0  0  0  0  0  0  0  0  0  0  0
  152.2041  145.1831  157.9741 H   0  0  0  0  0  0  0  0  0  0  0  0
  151.0913  144.4250  160.7101 H   0  0  0  0  0  0  0  0  0  0  0  0
  150.3059  145.3998  159.4591 H   0  0  0  0  0  0  0  0  0  0  0  0
  152.8372  136.4811  158.7843 H   0  0  0  0  0  0  0  0  0  0  0  0
  152.8552  138.1114  158.1808 H   0  0  0  0  0  0  0  0  0  0  0  0
  150.3901  138.2905  158.3907 H   0  0  0  0  0  0  0  0  0  0  0  0
  151.0927  137.8139  159.9213 H   0  0  0  0  0  0  0  0  0  0  0  0
  1  2  1  0  0  0  0
  1 28  1  0  0  0  0
  1 29  1  0  0  0  0
  1 30  1  0  0  0  0
  2  3  2  0  0  0  0
  2  4  2  0  0  0  0
  2  5  1  0  0  0  0
  5 27  1  0  0  0  0
  5  6  1  0  0  0  0
  6  7  1  0  0  0  0
  6 31  1  0  0  0  0
  6 32  1  0  0  0  0
  7  8  1  0  0  0  0
  7 33  1  0  0  0  0
  7 34  1  0  0  0  0
  8  9  1  0  0  0  0
  8 26  1  0  0  0  0
  9 10  2  0  0  0  0
  9 11  1  0  0  0  0
 11 12  1  0  0  0  0
 11 35  1  0  0  0  0
 11 36  1  0  0  0  0
 12 24  1  0  0  0  0
 12 13  1  0  0  0  0
 13 14  2  0  0  0  0
 13 15  1  0  0  0  0
 15 16  1  0  0  0  0
 15 17  2  0  0  0  0
 17 18  1  0  0  0  0
 17 37  1  0  0  0  0
 18 19  1  0  0  0  0
 18 24  1  0  0  0  0
 19 23  1  0  0  0  0
 19 20  1  0  0  0  0
 19 38  1  0  0  0  0
 20 21  1  0  0  0  0
 20 39  1  0  0  0  0
 20 40  1  0  0  0  0
 21 22  1  0  0  0  0
 21 41  1  0  0  0  0
 21 42  1  0  0  0  0
 22 23  1  0  0  0  0
 22 43  1  0  0  0  0
 22 44  1  0  0  0  0
 24 25  2  0  0  0  0
 26 27  1  0  0  0  0
 26 45  1  0  0  0  0
 26 46  1  0  0  0  0
 27 47  1  0  0  0  0
 27 48  1  0  0  0  0
M  END
> <s_m_source_file>
AV-unprocessed.smi

> <i_m_source_file_index>
122

> <i_lp_mmshare_version>
43012

> <i_f3d_flags>
0

> <s_epik_input>
W0NIM11TKD1PKSg9TylOMVtDSDJdW0NIMl1OKFtDSDJdW0NIMl0xKUMoPU8pW0NIMl1uMmMoPU8pYyhGKVtjSF1uKGMyPU8pW0NAQEhdM1tDSDJdW0NIMl1bQ0gyXU8z

> <s_epik_cmdline>
J2VwaWtfcHl0aG9uJywgJy1waCcsICc3LjAnLCAnLXRuJywgJzgnLCAnLW1hJywgJzIwMCcsICctbWV0YWxfYmluZGluZycsICctaW1hZScsICc8aW5maWxlLm1hZT4nLCAnLW9tYWUnLCAnPG91dGZpbGUubWFlPic=

> <r_lp_tautomer_probability>
1

> <r_epik_Ionization_Penalty>
4.55442e-09

> <r_epik_Ionization_Penalty_Charging>
4.02834e-09

> <r_epik_Ionization_Penalty_Neutral>
5.2608e-10

> <r_epik_State_Penalty>
-0

> <r_epik_Charging_Adjusted_Penalty>
4.02834e-09

> <i_epik_Tot_Q>
0

> <i_epik_Tot_abs_Q>
0

> <r_epik_Metal_State_Penalty>
-0

> <b_epik_Metal_Only>
0

> <s_epik_Chemistry_Notes>
This compound contains an acetal/aminal-like group ( X-CH(R)-Y where X, Y are N, S, or O) that may be acid/base labile, releasing an aldehyde.

> <s_lp_Force_Field>
OPLS_2005

> <r_lp_Energy>
38.4276

> <b_lp_Chiralities_Consistent>
1

> <s_lp_Variant>
AV-unprocessed.smi:122-2

> <Gold.Version>
5.8.1

> <Gold.Id.Protein>
6NUR|6NUR_protein|mol2

> <Gold.PLP.Fitness>
57.7415

> <Gold.PLP.PLP>
-44.3001

> <Gold.PLP.part.hbond>
-5.6182

> <Gold.PLP.part.metal>
0.0000

> <Gold.PLP.part.buried>
-0.5790

> <Gold.PLP.part.nonpolar>
-37.9827

> <Gold.PLP.part.repulsive>
0.4099

> <Gold.PLP.ligand.clash>
0.0000

> <Gold.PLP.ligand.torsion>
0.7509

> <Gold.PLP.Chemscore.Hbond>
3.7091

> <Gold.PLP.Chemscore.CHOScore>
0.9865

> <Gold.PLP.Chemscore.Metal>
0.0000

> <Gold.Chemscore.Hbonds>
donor molecule, donor type, donor heavy atom, donor atom, acceptor molecule, acceptor atom, score
      P1  H  6896  6908       L1     5  0.52
      P1  H  6931  6943       L1     3  0.73
      P1  H  7989  7998       L1    14  0.20
      P1  H  7997  8008       L1    25  0.66
      P1  H 10752 10764       L1    10  0.94
      L1  C    17    37       P1  8028  0.82

> <Gold.PLP.Chemscore.Internal.Correction>
0.8564

> <Gold.Rescore>
     Score         DG    S(hbond)    S(metal)    S(lipo)     H(rot)  DE(clash)    DE(int)     intcor
     13.53     -16.44       2.52        0.00      66.83       2.06       0.19       2.72       ----

> <Gold.Chemscore.Fitness>
13.5340

> <Gold.Chemscore.DG>
-16.4430

> <Gold.Chemscore.ZeroCoef>
-5.4800

> <Gold.Chemscore.Hbond>
2.5231

> <Gold.Chemscore.Metal>
0.0000

> <Gold.Chemscore.Lipo>
66.8330

> <Gold.Chemscore.Internal_Hbond>
0.0000

> <Gold.Chemscore.DEClash>
0.1937

> <Gold.Chemscore.DEInternal>
2.7153

> <Gold.Chemscore.Rot>
2.0639

> <Gold.Chemscore.Internal.Correction>
   9.000000E+99

> <Gold.Chemscore.Hbonds>
donor molecule, donor type, donor heavy atom, donor atom, acceptor molecule, acceptor atom, score
      P1  H  6896  6908       L1     5  0.01
      P1  H  6931  6943       L1     3  0.68
      P1  H  7997  8008       L1    25  0.63
      P1  H 10752 10764       L1    10  0.71

> <Gold.Chemscore.Hbond.Weighted>
-8.4271

> <Gold.Chemscore.Metal.Weighted>
-0.0000

> <Gold.Chemscore.Lipo.Weighted>
-7.8195

> <Gold.Chemscore.Internal_Hbond.Weighted>
0.0000

> <Gold.Chemscore.DEClash.Weighted>
0.1937

> <Gold.Chemscore.DEInternal.Weighted>
2.7153

> <Gold.Chemscore.Rot.Weighted>
5.2836

> <Gold.Chemscore.Internal.Correction.Weighted>
   9.000000E+99

> <Gold.Protein.RotatedTorsions>
[ 6907 6896 6895 6894 ] final -171.20 input  -60.11 | X-H torsion
[ 7974 7965 7964 7962 ] final  121.69 input  175.53 | X-H torsion
[ 8008 7997 7996 7995 ] final -102.81 input   59.86 | X-H torsion
[ 10167 10162 10161 10158 ] final   69.46 input  -65.29 | X-H torsion
[ 10718 10713 10712 10709 ] final  -22.43 input   66.30 | X-H torsion
[ 10763 10752 10751 10750 ] final  -84.66 input  -60.55 | X-H torsion
[ 11005 11000 10999 10996 ] final   95.29 input  -57.11 | X-H torsion

> <Gold.Protein.ActiveResidues>
 VAL166  LYS551  ARG553  GLY616  TRP617  ASP618  TYR619  PRO620  LYS621  CYS622 
 ASP623  PHE694  ASN695  SER759  ASP760  ASP761  ALA762  ILE779  LEU786  VAL792 
 PHE793  MET794  SER795  GLU796  ALA797  LYS798  CYS799  TRP800  GLU811  SER814 

> <Gold.Protein.RotatedAtoms>
  151.5200  133.3468  159.2899 H   0  0  0  0  0  0  0  0  0  0  0  0  # atno 6907 bound_to 6896
  150.8658  134.8024  159.7129 H   0  0  0  0  0  0  0  0  0  0  0  0  # atno 6908 bound_to 6896
  152.4663  134.5076  159.9796 H   0  0  0  0  0  0  0  0  0  0  0  0  # atno 6909 bound_to 6896
  145.1164  139.3418  143.4737 H   0  0  0  0  0  0  0  0  0  0  0  0  # atno 7974 bound_to 7965
  154.8619  140.0426  157.1670 H   0  0  0  0  0  0  0  0  0  0  0  0  # atno 8008 bound_to 7997
  154.8831  140.2975  155.5393 H   0  0  0  0  0  0  0  0  0  0  0  0  # atno 8009 bound_to 7997
  156.2998  140.2407  156.3836 H   0  0  0  0  0  0  0  0  0  0  0  0  # atno 8010 bound_to 7997
  140.0675  144.5180  150.7250 H   0  0  0  0  0  0  0  0  0  0  0  0  # atno 10167 bound_to 10162
  156.5047  130.4596  149.6681 H   0  0  0  0  0  0  0  0  0  0  0  0  # atno 10718 bound_to 10713
  154.6021  135.5513  153.7385 H   0  0  0  0  0  0  0  0  0  0  0  0  # atno 10763 bound_to 10752
  153.0159  135.6369  154.1700 H   0  0  0  0  0  0  0  0  0  0  0  0  # atno 10764 bound_to 10752
  154.1640  135.2895  155.3080 H   0  0  0  0  0  0  0  0  0  0  0  0  # atno 10765 bound_to 10752
  139.8790  134.8891  156.3989 H   0  0  0  0  0  0  0  0  0  0  0  0  # atno 11005 bound_to 11000
  146.3523  140.1105  142.8604 LP  0  0  0  0  0  0  0  0  0  0  0  0  # atno 17320 bound_to 7965
  145.0789  140.9207  143.4837 LP  0  0  0  0  0  0  0  0  0  0  0  0  # atno 17321 bound_to 7965
  140.7142  143.2530  151.4487 LP  0  0  0  0  0  0  0  0  0  0  0  0  # atno 17342 bound_to 10162
  139.5856  144.1612  152.2024 LP  0  0  0  0  0  0  0  0  0  0  0  0  # atno 17343 bound_to 10162
  156.3298  130.7325  151.2253 LP  0  0  0  0  0  0  0  0  0  0  0  0  # atno 17370 bound_to 10713
  157.7458  131.0433  150.4736 LP  0  0  0  0  0  0  0  0  0  0  0  0  # atno 17371 bound_to 10713
  140.9281  133.7598  155.9990 LP  0  0  0  0  0  0  0  0  0  0  0  0  # atno 17394 bound_to 11000
  140.8362  134.3120  157.5330 LP  0  0  0  0  0  0  0  0  0  0  0  0  # atno 17395 bound_to 11000

$$$$
