AV-unprocessed.smi:107|AV-procd|sdf|1021|dock5
  -GOLD-   2262018 23D 1   1.00000     0.00000
 Structure written by MMmdl.
 30 31  0  0  0  0  0  0  0  0  2 V2000
  150.6376  143.0162  158.7024 C   0  0  0  0  0  0  0  0  0  0  0  0
  151.0184  141.9211  157.7212 C   0  0  0  0  0  0  0  0  0  0  0  0
  150.3361  141.7124  156.5730 C   0  0  0  0  0  0  0  0  0  0  0  0
  150.6881  140.7138  155.6791 N   0  0  0  0  0  0  0  0  0  0  0  0
  149.9149  140.4784  154.3944 C   0  0  2  0  0  0  0  0  0  0  0  0
  148.7638  141.4924  154.2530 C   0  0  0  0  0  0  0  0  0  0  0  0
  147.5414  140.6114  154.0592 C   0  0  1  0  0  0  0  0  0  0  0  0
  147.2699  140.4268  152.6816 O   0  0  0  0  0  0  0  0  0  0  0  0
  147.9552  139.3041  154.7431 C   0  0  1  0  0  0  0  0  0  0  0  0
  147.1835  138.0488  154.3012 C   0  0  0  0  0  0  0  0  0  0  0  0
  147.2451  137.9104  152.8976 O   0  0  0  0  0  0  0  0  0  0  0  0
  149.3357  139.2054  154.4099 O   0  0  0  0  0  0  0  0  0  0  0  0
  151.7836  139.8621  155.9805 C   0  0  0  0  0  0  0  0  0  0  0  0
  152.0597  138.9699  155.1778 O   0  0  0  0  0  0  0  0  0  0  0  0
  152.4792  140.0670  157.1351 N   0  5  0  0  0  0  0  0  0  0  0  0
  152.1635  141.0539  158.0219 C   0  0  0  0  0  0  0  0  0  0  0  0
  152.8056  141.2333  159.0565 O   0  0  0  0  0  0  0  0  0  0  0  0
  149.7548  143.5611  158.3665 H   0  0  0  0  0  0  0  0  0  0  0  0
  151.4545  143.7302  158.8109 H   0  0  0  0  0  0  0  0  0  0  0  0
  150.4188  142.5911  159.6824 H   0  0  0  0  0  0  0  0  0  0  0  0
  149.4925  142.3512  156.3627 H   0  0  0  0  0  0  0  0  0  0  0  0
  150.6558  140.5296  153.5948 H   0  0  0  0  0  0  0  0  0  0  0  0
  148.6653  142.0731  155.1718 H   0  0  0  0  0  0  0  0  0  0  0  0
  148.9473  142.1808  153.4269 H   0  0  0  0  0  0  0  0  0  0  0  0
  146.6557  141.0442  154.5256 H   0  0  0  0  0  0  0  0  0  0  0  0
  148.0904  140.3989  152.2138 H   0  0  0  0  0  0  0  0  0  0  0  0
  147.8560  139.4436  155.8212 H   0  0  0  0  0  0  0  0  0  0  0  0
  147.6363  137.1573  154.7359 H   0  0  0  0  0  0  0  0  0  0  0  0
  146.1450  138.0826  154.6324 H   0  0  0  0  0  0  0  0  0  0  0  0
  147.9990  137.3838  152.6804 H   0  0  0  0  0  0  0  0  0  0  0  0
  1  2  1  0  0  0  0
  1 18  1  0  0  0  0
  1 19  1  0  0  0  0
  1 20  1  0  0  0  0
  2 16  1  0  0  0  0
  2  3  2  0  0  0  0
  3  4  1  0  0  0  0
  3 21  1  0  0  0  0
  4  5  1  0  0  0  0
  4 13  1  0  0  0  0
  5 12  1  0  0  0  0
  5  6  1  0  0  0  0
  5 22  1  0  0  0  0
  6  7  1  0  0  0  0
  6 23  1  0  0  0  0
  6 24  1  0  0  0  0
  7  8  1  0  0  0  0
  7  9  1  0  0  0  0
  7 25  1  0  0  0  0
  8 26  1  0  0  0  0
  9 10  1  0  0  0  0
  9 12  1  0  0  0  0
  9 27  1  0  0  0  0
 10 11  1  0  0  0  0
 10 28  1  0  0  0  0
 10 29  1  0  0  0  0
 11 30  1  0  0  0  0
 13 14  2  0  0  0  0
 13 15  1  0  0  0  0
 15 16  1  0  0  0  0
 16 17  2  0  0  0  0
M  CHG  1  15  -1
M  END
> <s_m_source_file>
AV-unprocessed.smi

> <i_m_source_file_index>
107

> <i_lp_mmshare_version>
43012

> <i_f3d_flags>
0

> <s_epik_input>
Tz1jMVtuSF1jKD1PKW4oW2NIXWMxW0NIM10pW0NAQEhdMltDSDJdW0NAQEhdKFtPSF0pW0NASF0oTzIpW0NIMl1bT0hd

> <s_epik_cmdline>
J2VwaWtfcHl0aG9uJywgJy1waCcsICc3LjAnLCAnLXRuJywgJzgnLCAnLW1hJywgJzIwMCcsICctbWV0YWxfYmluZGluZycsICctaW1hZScsICc8aW5maWxlLm1hZT4nLCAnLW9tYWUnLCAnPG91dGZpbGUubWFlPic=

> <r_lp_tautomer_probability>
0.999537

> <r_epik_Ionization_Penalty>
3.66603

> <r_epik_Ionization_Penalty_Charging>
1.09773e-07

> <r_epik_Ionization_Penalty_Neutral>
3.66603

> <r_epik_State_Penalty>
3.66562

> <r_epik_Charging_Adjusted_Penalty>
3.66562

> <i_epik_Tot_Q>
-1

> <i_epik_Tot_abs_Q>
1

> <r_epik_Metal_State_Penalty>
0.234536

> <b_epik_Metal_Only>
1

> <s_epik_Chemistry_Notes>
This compound contains an acetal/aminal-like group ( X-CH(R)-Y where X, Y are N, S, or O) that may be acid/base labile, releasing an aldehyde.

> <s_lp_Force_Field>
OPLS_2005

> <r_lp_Energy>
39.3758

> <b_lp_Chiralities_Consistent>
1

> <s_lp_Variant>
AV-unprocessed.smi:107-9

> <Gold.Version>
5.8.1

> <Gold.Id.Protein>
6NUR|6NUR_protein|mol2

> <Gold.PLP.Fitness>
41.2239

> <Gold.PLP.PLP>
-26.2479

> <Gold.PLP.part.hbond>
-3.0000

> <Gold.PLP.part.metal>
0.0000

> <Gold.PLP.part.buried>
-0.8315

> <Gold.PLP.part.nonpolar>
-20.9474

> <Gold.PLP.part.repulsive>
0.1660

> <Gold.PLP.ligand.clash>
0.0000

> <Gold.PLP.ligand.torsion>
0.0168

> <Gold.PLP.Chemscore.Hbond>
4.0000

> <Gold.PLP.Chemscore.CHOScore>
1.0000

> <Gold.PLP.Chemscore.Metal>
0.0000

> <Gold.Chemscore.Hbonds>
donor molecule, donor type, donor heavy atom, donor atom, acceptor molecule, acceptor atom, score
      L1  H     8    26       P1  7957  1.00
      L1  H    11    30       P1  7948  1.00
      P1  H  7997  8010       L1    15  2.00
      L1  C     3    21       P1  8028  0.97

> <Gold.PLP.Chemscore.Internal.Correction>
0.0095

> <Gold.Rescore>
     Score         DG    S(hbond)    S(metal)    S(lipo)     H(rot)  DE(clash)    DE(int)     intcor
      9.52     -12.11       2.63        0.00      40.38       2.69       1.28       1.32       ----

> <Gold.Chemscore.Fitness>
9.5227

> <Gold.Chemscore.DG>
-12.1149

> <Gold.Chemscore.ZeroCoef>
-5.4800

> <Gold.Chemscore.Hbond>
2.6316

> <Gold.Chemscore.Metal>
0.0000

> <Gold.Chemscore.Lipo>
40.3783

> <Gold.Chemscore.Internal_Hbond>
0.0000

> <Gold.Chemscore.DEClash>
1.2761

> <Gold.Chemscore.DEInternal>
1.3160

> <Gold.Chemscore.Rot>
2.6871

> <Gold.Chemscore.Internal.Correction>
   9.000000E+99

> <Gold.Chemscore.Hbonds>
donor molecule, donor type, donor heavy atom, donor atom, acceptor molecule, acceptor atom, score
      L1  H     8    26       P1  7957  1.00
      L1  H    11    30       P1  7948  0.99
      P1  H  7997  8010       L1    15  0.53

> <Gold.Chemscore.Hbond.Weighted>
-8.7897

> <Gold.Chemscore.Metal.Weighted>
-0.0000

> <Gold.Chemscore.Lipo.Weighted>
-4.7243

> <Gold.Chemscore.Internal_Hbond.Weighted>
0.0000

> <Gold.Chemscore.DEClash.Weighted>
1.2761

> <Gold.Chemscore.DEInternal.Weighted>
1.3160

> <Gold.Chemscore.Rot.Weighted>
6.8791

> <Gold.Chemscore.Internal.Correction.Weighted>
   9.000000E+99

> <Gold.Protein.RotatedTorsions>
[ 6907 6896 6895 6894 ] final -155.07 input  -60.11 | X-H torsion
[ 7974 7965 7964 7962 ] final   -8.46 input  175.53 | X-H torsion
[ 8008 7997 7996 7995 ] final   54.00 input   59.86 | X-H torsion
[ 10167 10162 10161 10158 ] final  -33.84 input  -65.29 | X-H torsion
[ 10718 10713 10712 10709 ] final   51.32 input   66.30 | X-H torsion
[ 10763 10752 10751 10750 ] final   85.97 input  -60.55 | X-H torsion
[ 11005 11000 10999 10996 ] final   13.12 input  -57.11 | X-H torsion

> <Gold.Protein.ActiveResidues>
 VAL166  LYS551  ARG553  GLY616  TRP617  ASP618  TYR619  PRO620  LYS621  CYS622 
 ASP623  PHE694  ASN695  SER759  ASP760  ASP761  ALA762  ILE779  LEU786  VAL792 
 PHE793  MET794  SER795  GLU796  ALA797  LYS798  CYS799  TRP800  GLU811  SER814 

> <Gold.Protein.RotatedAtoms>
  151.2670  133.4274  159.2618 H   0  0  0  0  0  0  0  0  0  0  0  0  # atno 6907 bound_to 6896
  151.0479  134.9653  159.8206 H   0  0  0  0  0  0  0  0  0  0  0  0  # atno 6908 bound_to 6896
  152.5377  134.2626  159.8993 H   0  0  0  0  0  0  0  0  0  0  0  0  # atno 6909 bound_to 6896
  146.2279  140.2472  142.8346 H   0  0  0  0  0  0  0  0  0  0  0  0  # atno 7974 bound_to 7965
  155.4774  140.3467  155.4334 H   0  0  0  0  0  0  0  0  0  0  0  0  # atno 8008 bound_to 7997
  156.1061  140.1448  156.9431 H   0  0  0  0  0  0  0  0  0  0  0  0  # atno 8009 bound_to 7997
  154.4725  140.0896  156.7159 H   0  0  0  0  0  0  0  0  0  0  0  0  # atno 8010 bound_to 7997
  140.7197  143.3591  151.2000 H   0  0  0  0  0  0  0  0  0  0  0  0  # atno 10167 bound_to 10162
  157.4970  130.8413  149.8270 H   0  0  0  0  0  0  0  0  0  0  0  0  # atno 10718 bound_to 10713
  153.1526  135.4597  154.9658 H   0  0  0  0  0  0  0  0  0  0  0  0  # atno 10763 bound_to 10752
  154.7836  135.3196  154.7938 H   0  0  0  0  0  0  0  0  0  0  0  0  # atno 10764 bound_to 10752
  153.8440  135.6927  153.4854 H   0  0  0  0  0  0  0  0  0  0  0  0  # atno 10765 bound_to 10752
  140.4843  134.0904  155.7757 H   0  0  0  0  0  0  0  0  0  0  0  0  # atno 11005 bound_to 11000
  144.9439  140.8108  143.5613 LP  0  0  0  0  0  0  0  0  0  0  0  0  # atno 17320 bound_to 7965
  145.2426  139.2066  143.4984 LP  0  0  0  0  0  0  0  0  0  0  0  0  # atno 17321 bound_to 7965
  139.7139  143.9333  152.2958 LP  0  0  0  0  0  0  0  0  0  0  0  0  # atno 17342 bound_to 10162
  139.9067  144.6880  150.8607 LP  0  0  0  0  0  0  0  0  0  0  0  0  # atno 17343 bound_to 10162
  156.0206  130.3797  150.1973 LP  0  0  0  0  0  0  0  0  0  0  0  0  # atno 17370 bound_to 10713
  157.0163  130.9966  151.3352 LP  0  0  0  0  0  0  0  0  0  0  0  0  # atno 17371 bound_to 10713
  141.1516  133.8959  157.2084 LP  0  0  0  0  0  0  0  0  0  0  0  0  # atno 17394 bound_to 11000
  139.9807  135.0099  156.9743 LP  0  0  0  0  0  0  0  0  0  0  0  0  # atno 17395 bound_to 11000

$$$$
