AV-unprocessed.smi:1126|AV-procd|sdf|4839|dock8
  -GOLD-   22720 3403D 1   1.00000     0.00000
 Structure written by MMmdl.
 47 48  0  0  0  0  0  0  0  0  1 V2000
  151.5922  143.6960  157.5638 C   0  0  0  0  0  0  0  0  0  0  0  0
  150.5386  142.7494  157.5873 O   0  0  0  0  0  0  0  0  0  0  0  0
  151.0042  141.4145  157.4729 C   0  0  0  0  0  0  0  0  0  0  0  0
  151.5575  141.1600  156.0605 C   0  0  0  0  0  0  0  0  0  0  0  0
  150.5759  140.7416  155.0574 N   0  0  0  0  0  0  0  0  0  0  0  0
  149.2760  141.3954  155.2319 C   0  0  0  0  0  0  0  0  0  0  0  0
  148.2528  140.9833  154.1590 C   0  0  0  0  0  0  0  0  0  0  0  0
  148.0623  139.4527  154.1332 C   0  0  0  0  0  0  0  0  0  0  0  0
  147.1064  138.9864  153.0197 C   0  0  0  0  0  0  0  0  0  0  0  0
  146.7002  137.6006  153.2110 N   0  0  0  0  0  0  0  0  0  0  0  0
  145.6718  137.2071  153.9757 C   0  0  0  0  0  0  0  0  0  0  0  0
  144.9427  137.9882  154.5864 O   0  0  0  0  0  0  0  0  0  0  0  0
  145.4278  135.7004  154.0670 C   0  0  0  0  0  0  0  0  0  0  0  0
  144.9784  135.1654  152.7941 N   0  0  0  0  0  0  0  0  0  0  0  0
  144.3843  133.9472  152.5395 C   0  0  0  0  0  0  0  0  0  0  0  0
  144.1453  133.8786  151.1960 C   0  0  0  0  0  0  0  0  0  0  0  0
  143.5157  132.7653  150.4096 C   0  0  0  0  0  0  0  0  0  0  0  0
  144.6374  135.1227  150.7087 C   0  0  0  0  0  0  0  0  0  0  0  0
  145.1345  135.8902  151.6650 N   0  0  0  0  0  0  0  0  0  0  0  0
  149.4412  138.7812  154.0030 C   0  0  0  0  0  0  0  0  0  0  0  0
  150.4032  139.2892  155.0892 C   0  0  0  0  0  0  0  0  0  0  0  0
  151.1818  144.7025  157.6420 H   0  0  0  0  0  0  0  0  0  0  0  0
  152.1569  143.6341  156.6327 H   0  0  0  0  0  0  0  0  0  0  0  0
  152.2768  143.5449  158.3996 H   0  0  0  0  0  0  0  0  0  0  0  0
  151.7645  141.1993  158.2256 H   0  0  0  0  0  0  0  0  0  0  0  0
  150.1686  140.7369  157.6555 H   0  0  0  0  0  0  0  0  0  0  0  0
  152.0005  142.0987  155.7259 H   0  0  0  0  0  0  0  0  0  0  0  0
  152.3809  140.4457  156.1078 H   0  0  0  0  0  0  0  0  0  0  0  0
  148.8782  141.1711  156.2229 H   0  0  0  0  0  0  0  0  0  0  0  0
  149.3912  142.4770  155.1805 H   0  0  0  0  0  0  0  0  0  0  0  0
  147.3046  141.4848  154.3545 H   0  0  0  0  0  0  0  0  0  0  0  0
  148.5913  141.3312  153.1821 H   0  0  0  0  0  0  0  0  0  0  0  0
  147.6352  139.1508  155.0909 H   0  0  0  0  0  0  0  0  0  0  0  0
  146.2184  139.6200  152.9956 H   0  0  0  0  0  0  0  0  0  0  0  0
  147.5939  139.0837  152.0483 H   0  0  0  0  0  0  0  0  0  0  0  0
  147.2505  136.8910  152.7484 H   0  0  0  0  0  0  0  0  0  0  0  0
  146.3474  135.1898  154.3558 H   0  0  0  0  0  0  0  0  0  0  0  0
  144.6858  135.4856  154.8380 H   0  0  0  0  0  0  0  0  0  0  0  0
  144.1851  133.2367  153.3283 H   0  0  0  0  0  0  0  0  0  0  0  0
  144.0285  132.6014  149.4617 H   0  0  0  0  0  0  0  0  0  0  0  0
  142.4722  132.9788  150.1782 H   0  0  0  0  0  0  0  0  0  0  0  0
  143.5377  131.8208  150.9538 H   0  0  0  0  0  0  0  0  0  0  0  0
  144.6479  135.4888  149.6927 H   0  0  0  0  0  0  0  0  0  0  0  0
  149.3405  137.6981  154.0790 H   0  0  0  0  0  0  0  0  0  0  0  0
  149.8643  138.9856  153.0184 H   0  0  0  0  0  0  0  0  0  0  0  0
  151.3694  138.8020  154.9530 H   0  0  0  0  0  0  0  0  0  0  0  0
  150.0393  138.9808  156.0707 H   0  0  0  0  0  0  0  0  0  0  0  0
  1  2  1  0  0  0  0
  1 22  1  0  0  0  0
  1 23  1  0  0  0  0
  1 24  1  0  0  0  0
  2  3  1  0  0  0  0
  3  4  1  0  0  0  0
  3 25  1  0  0  0  0
  3 26  1  0  0  0  0
  4  5  1  0  0  0  0
  4 27  1  0  0  0  0
  4 28  1  0  0  0  0
  5 21  1  0  0  0  0
  5  6  1  0  0  0  0
  6  7  1  0  0  0  0
  6 29  1  0  0  0  0
  6 30  1  0  0  0  0
  7  8  1  0  0  0  0
  7 31  1  0  0  0  0
  7 32  1  0  0  0  0
  8  9  1  0  0  0  0
  8 20  1  0  0  0  0
  8 33  1  0  0  0  0
  9 10  1  0  0  0  0
  9 34  1  0  0  0  0
  9 35  1  0  0  0  0
 10 11  1  0  0  0  0
 10 36  1  0  0  0  0
 11 12  2  0  0  0  0
 11 13  1  0  0  0  0
 13 14  1  0  0  0  0
 13 37  1  0  0  0  0
 13 38  1  0  0  0  0
 14 19  1  0  0  0  0
 14 15  1  0  0  0  0
 15 16  2  0  0  0  0
 15 39  1  0  0  0  0
 16 17  1  0  0  0  0
 16 18  1  0  0  0  0
 17 40  1  0  0  0  0
 17 41  1  0  0  0  0
 17 42  1  0  0  0  0
 18 19  2  0  0  0  0
 18 43  1  0  0  0  0
 20 21  1  0  0  0  0
 20 44  1  0  0  0  0
 20 45  1  0  0  0  0
 21 46  1  0  0  0  0
 21 47  1  0  0  0  0
M  END
> <s_m_source_file>
AV-unprocessed.smi

> <i_m_source_file_index>
1126

> <i_lp_mmshare_version>
43012

> <i_f3d_flags>
0

> <s_epik_input>
W0NIM11PW0NIMl1bQ0gyXU4xW0NIMl1bQ0gyXVtDSF0oW0NIMl1bQ0gyXTEpW0NIMl1bTkhdQyg9TylbQ0gyXW4yW2NIXWMoW0NIM10pW2NIXW4y

> <s_epik_cmdline>
J2VwaWtfcHl0aG9uJywgJy1waCcsICc3LjAnLCAnLXRuJywgJzgnLCAnLW1hJywgJzIwMCcsICctbWV0YWxfYmluZGluZycsICctaW1hZScsICc8aW5maWxlLm1hZT4nLCAnLW9tYWUnLCAnPG91dGZpbGUubWFlPic=

> <r_lp_tautomer_probability>
1

> <r_epik_Ionization_Penalty>
2.42913

> <r_epik_Ionization_Penalty_Charging>
0

> <r_epik_Ionization_Penalty_Neutral>
2.42913

> <r_epik_State_Penalty>
2.58903

> <r_epik_Charging_Adjusted_Penalty>
2.58903

> <i_epik_Tot_Q>
0

> <i_epik_Tot_abs_Q>
0

> <r_epik_Metal_State_Penalty>
2.58902

> <b_epik_Metal_Only>
0

> <s_lp_Force_Field>
OPLS_2005

> <r_lp_Energy>
26.3674

> <b_lp_Chiralities_Consistent>
1

> <s_lp_Variant>
AV-unprocessed.smi:1126-3

> <Gold.Version>
5.8.1

> <Gold.Id.Protein>
6NUR|6NUR_protein|mol2

> <Gold.PLP.Fitness>
43.3054

> <Gold.PLP.PLP>
-33.6021

> <Gold.PLP.part.hbond>
-2.0000

> <Gold.PLP.part.metal>
0.0000

> <Gold.PLP.part.buried>
-5.2989

> <Gold.PLP.part.nonpolar>
-27.4836

> <Gold.PLP.part.repulsive>
0.5130

> <Gold.PLP.ligand.clash>
0.0000

> <Gold.PLP.ligand.torsion>
0.9706

> <Gold.PLP.Chemscore.Hbond>
1.8880

> <Gold.PLP.Chemscore.CHOScore>
1.9708

> <Gold.PLP.Chemscore.Metal>
0.0000

> <Gold.Chemscore.Hbonds>
donor molecule, donor type, donor heavy atom, donor atom, acceptor molecule, acceptor atom, score
      L1  H    10    36       P1  7948  1.00
      P1  H  7989  7998       L1     5  0.86
      L1  C    15    39       P1 10957  0.92
      L1  C    18    43       P1  7921  0.77

> <Gold.PLP.Chemscore.Internal.Correction>
0.0680

> <Gold.Rescore>
     Score         DG    S(hbond)    S(metal)    S(lipo)     H(rot)  DE(clash)    DE(int)     intcor
     11.90     -14.79       1.18        0.00      90.22       2.03       0.43       2.47       ----

> <Gold.Chemscore.Fitness>
11.8989

> <Gold.Chemscore.DG>
-14.7911

> <Gold.Chemscore.ZeroCoef>
-5.4800

> <Gold.Chemscore.Hbond>
1.1804

> <Gold.Chemscore.Metal>
0.0000

> <Gold.Chemscore.Lipo>
90.2203

> <Gold.Chemscore.Internal_Hbond>
0.0000

> <Gold.Chemscore.DEClash>
0.4255

> <Gold.Chemscore.DEInternal>
2.4668

> <Gold.Chemscore.Rot>
2.0263

> <Gold.Chemscore.Internal.Correction>
   9.000000E+99

> <Gold.Chemscore.Hbonds>
donor molecule, donor type, donor heavy atom, donor atom, acceptor molecule, acceptor atom, score
      L1  H    10    36       P1  7948  0.90
      P1  H  7989  7998       L1     5  0.06

> <Gold.Chemscore.Hbond.Weighted>
-3.9426

> <Gold.Chemscore.Metal.Weighted>
-0.0000

> <Gold.Chemscore.Lipo.Weighted>
-10.5558

> <Gold.Chemscore.Internal_Hbond.Weighted>
0.0000

> <Gold.Chemscore.DEClash.Weighted>
0.4255

> <Gold.Chemscore.DEInternal.Weighted>
2.4668

> <Gold.Chemscore.Rot.Weighted>
5.1872

> <Gold.Chemscore.Internal.Correction.Weighted>
   9.000000E+99

> <Gold.Protein.RotatedTorsions>
[ 6907 6896 6895 6894 ] final -167.90 input  -60.11 | X-H torsion
[ 7974 7965 7964 7962 ] final  148.19 input  175.53 | X-H torsion
[ 8008 7997 7996 7995 ] final -159.68 input   59.86 | X-H torsion
[ 10167 10162 10161 10158 ] final  -37.33 input  -65.29 | X-H torsion
[ 10718 10713 10712 10709 ] final  -87.84 input   66.30 | X-H torsion
[ 10763 10752 10751 10750 ] final -110.65 input  -60.55 | X-H torsion
[ 11005 11000 10999 10996 ] final  179.66 input  -57.11 | X-H torsion

> <Gold.Protein.ActiveResidues>
 VAL166  LYS551  ARG553  GLY616  TRP617  ASP618  TYR619  PRO620  LYS621  CYS622 
 ASP623  PHE694  ASN695  SER759  ASP760  ASP761  ALA762  ILE779  LEU786  VAL792 
 PHE793  MET794  SER795  GLU796  ALA797  LYS798  CYS799  TRP800  GLU811  SER814 

> <Gold.Protein.RotatedAtoms>
  151.4670  133.3578  159.2817 H   0  0  0  0  0  0  0  0  0  0  0  0  # atno 6907 bound_to 6896
  150.8987  134.8399  159.7355 H   0  0  0  0  0  0  0  0  0  0  0  0  # atno 6908 bound_to 6896
  152.4866  134.4588  159.9650 H   0  0  0  0  0  0  0  0  0  0  0  0  # atno 6909 bound_to 6896
  144.8532  139.6123  143.5964 H   0  0  0  0  0  0  0  0  0  0  0  0  # atno 7974 bound_to 7965
  155.7662  140.0846  157.2131 H   0  0  0  0  0  0  0  0  0  0  0  0  # atno 8008 bound_to 7997
  154.3999  140.1534  156.2946 H   0  0  0  0  0  0  0  0  0  0  0  0  # atno 8009 bound_to 7997
  155.8791  140.3421  155.5878 H   0  0  0  0  0  0  0  0  0  0  0  0  # atno 8010 bound_to 7997
  140.7121  143.3349  151.2485 H   0  0  0  0  0  0  0  0  0  0  0  0  # atno 10167 bound_to 10162
  155.9984  130.4814  150.4928 H   0  0  0  0  0  0  0  0  0  0  0  0  # atno 10718 bound_to 10713
  154.8259  135.4556  154.0919 H   0  0  0  0  0  0  0  0  0  0  0  0  # atno 10763 bound_to 10752
  153.2233  135.6896  153.7981 H   0  0  0  0  0  0  0  0  0  0  0  0  # atno 10764 bound_to 10752
  153.7390  135.3315  155.3277 H   0  0  0  0  0  0  0  0  0  0  0  0  # atno 10765 bound_to 10752
  140.4086  134.6712  157.4602 H   0  0  0  0  0  0  0  0  0  0  0  0  # atno 11005 bound_to 11000
  146.2802  139.6858  142.9234 LP  0  0  0  0  0  0  0  0  0  0  0  0  # atno 17320 bound_to 7965
  145.4457  141.0425  143.2832 LP  0  0  0  0  0  0  0  0  0  0  0  0  # atno 17321 bound_to 7965
  139.6841  143.9803  152.2825 LP  0  0  0  0  0  0  0  0  0  0  0  0  # atno 17342 bound_to 10162
  139.9443  144.6661  150.8235 LP  0  0  0  0  0  0  0  0  0  0  0  0  # atno 17343 bound_to 10162
  157.2921  131.0628  151.2127 LP  0  0  0  0  0  0  0  0  0  0  0  0  # atno 17370 bound_to 10713
  157.3136  130.6902  149.6229 LP  0  0  0  0  0  0  0  0  0  0  0  0  # atno 17371 bound_to 10713
  140.0284  134.6443  155.9141 LP  0  0  0  0  0  0  0  0  0  0  0  0  # atno 17394 bound_to 11000
  141.1830  133.6550  156.5097 LP  0  0  0  0  0  0  0  0  0  0  0  0  # atno 17395 bound_to 11000

$$$$
