AV-unprocessed.smi:3024|AV-procd|sdf|11503|dock7
  -GOLD-   2272016443D 1   1.00000     0.00000
 Structure written by MMmdl.
 31 32  0  0  0  0  0  0  0  0  1 V2000
  145.0573  137.9966  152.8556 O   0  0  0  0  0  0  0  0  0  0  0  0
  146.1070  137.4684  152.4898 C   0  0  0  0  0  0  0  0  0  0  0  0
  146.1585  136.3086  151.8197 N   0  0  0  0  0  0  0  0  0  0  0  0
  145.0011  135.5035  151.4457 C   0  0  0  0  0  0  0  0  0  0  0  0
  145.4236  134.1408  150.8726 C   0  0  2  0  0  0  0  0  0  0  0  0
  144.2592  133.3124  150.3328 C   0  0  0  0  0  0  0  0  0  0  0  0
  144.7577  131.8791  150.4397 C   0  0  0  0  0  0  0  0  0  0  0  0
  145.9803  131.9750  151.3572 C   0  0  0  0  0  0  0  0  0  0  0  0
  145.9450  133.2935  151.8841 O   0  0  0  0  0  0  0  0  0  0  0  0
  147.3382  137.9724  152.6814 N   0  0  0  0  0  0  0  0  0  0  0  0
  147.7067  139.1712  153.3493 C   0  0  0  0  0  0  0  0  0  0  0  0
  148.9044  139.1732  154.0936 C   0  0  0  0  0  0  0  0  0  0  0  0
  149.2847  140.3423  154.7793 C   0  0  0  0  0  0  0  0  0  0  0  0
  148.4419  141.4679  154.7018 C   0  0  0  0  0  0  0  0  0  0  0  0
  147.2844  141.4788  154.0079 N   0  0  0  0  0  0  0  0  0  0  0  0
  146.9265  140.3543  153.3504 C   0  0  0  0  0  0  0  0  0  0  0  0
  147.0647  135.9518  151.5543 H   0  0  0  0  0  0  0  0  0  0  0  0
  144.3233  135.3760  152.2915 H   0  0  0  0  0  0  0  0  0  0  0  0
  144.4469  136.0589  150.6889 H   0  0  0  0  0  0  0  0  0  0  0  0
  146.1759  134.2710  150.0919 H   0  0  0  0  0  0  0  0  0  0  0  0
  143.3806  133.4388  150.9669 H   0  0  0  0  0  0  0  0  0  0  0  0
  143.9817  133.5910  149.3159 H   0  0  0  0  0  0  0  0  0  0  0  0
  143.9882  131.2312  150.8608 H   0  0  0  0  0  0  0  0  0  0  0  0
  145.0380  131.4780  149.4651 H   0  0  0  0  0  0  0  0  0  0  0  0
  145.9657  131.2327  152.1557 H   0  0  0  0  0  0  0  0  0  0  0  0
  146.8997  131.8424  150.7854 H   0  0  0  0  0  0  0  0  0  0  0  0
  148.0969  137.4665  152.2490 H   0  0  0  0  0  0  0  0  0  0  0  0
  149.5282  138.2924  154.1367 H   0  0  0  0  0  0  0  0  0  0  0  0
  150.1995  140.3757  155.3523 H   0  0  0  0  0  0  0  0  0  0  0  0
  148.7015  142.3814  155.2162 H   0  0  0  0  0  0  0  0  0  0  0  0
  145.9798  140.4156  152.8370 H   0  0  0  0  0  0  0  0  0  0  0  0
  1  2  2  0  0  0  0
  2  3  1  0  0  0  0
  2 10  1  0  0  0  0
  3  4  1  0  0  0  0
  3 17  1  0  0  0  0
  4  5  1  0  0  0  0
  4 18  1  0  0  0  0
  4 19  1  0  0  0  0
  5  9  1  0  0  0  0
  5  6  1  0  0  0  0
  5 20  1  0  0  0  0
  6  7  1  0  0  0  0
  6 21  1  0  0  0  0
  6 22  1  0  0  0  0
  7  8  1  0  0  0  0
  7 23  1  0  0  0  0
  7 24  1  0  0  0  0
  8  9  1  0  0  0  0
  8 25  1  0  0  0  0
  8 26  1  0  0  0  0
 10 11  1  0  0  0  0
 10 27  1  0  0  0  0
 11 16  1  0  0  0  0
 11 12  2  0  0  0  0
 12 13  1  0  0  0  0
 12 28  1  0  0  0  0
 13 14  2  0  0  0  0
 13 29  1  0  0  0  0
 14 15  1  0  0  0  0
 14 30  1  0  0  0  0
 15 16  2  0  0  0  0
 16 31  1  0  0  0  0
M  END
> <s_m_source_file>
AV-unprocessed.smi

> <i_m_source_file_index>
3024

> <i_lp_mmshare_version>
43012

> <i_f3d_flags>
0

> <s_epik_input>
W2NIXTFuW2NIXVtjSF1bY0hdYzFbTkhdQyg9TylbTkhdW0NIMl1bQ0BASF0yW0NIMl1bQ0gyXVtDSDJdTzI=

> <s_epik_cmdline>
J2VwaWtfcHl0aG9uJywgJy1waCcsICc3LjAnLCAnLXRuJywgJzgnLCAnLW1hJywgJzIwMCcsICctbWV0YWxfYmluZGluZycsICctaW1hZScsICc8aW5maWxlLm1hZT4nLCAnLW9tYWUnLCAnPG91dGZpbGUubWFlPic=

> <r_epik_Ionization_Penalty>
0.00471982

> <r_epik_Ionization_Penalty_Charging>
0

> <r_epik_Ionization_Penalty_Neutral>
0.00471982

> <r_epik_State_Penalty>
0.00339234

> <r_epik_Charging_Adjusted_Penalty>
0.00339234

> <i_epik_Tot_Q>
0

> <i_epik_Tot_abs_Q>
0

> <r_epik_Metal_State_Penalty>
-0

> <b_epik_Metal_Only>
0

> <s_lp_Force_Field>
OPLS_2005

> <r_lp_Energy>
19.771

> <b_lp_Chiralities_Consistent>
1

> <s_lp_Variant>
AV-unprocessed.smi:3024-1

> <Gold.Version>
5.8.1

> <Gold.Id.Protein>
6NUR|6NUR_protein|mol2

> <Gold.PLP.Fitness>
37.4683

> <Gold.PLP.PLP>
-26.5031

> <Gold.PLP.part.hbond>
-1.8890

> <Gold.PLP.part.metal>
0.0000

> <Gold.PLP.part.buried>
-3.7748

> <Gold.PLP.part.nonpolar>
-24.3475

> <Gold.PLP.part.repulsive>
2.4125

> <Gold.PLP.ligand.clash>
0.0000

> <Gold.PLP.ligand.torsion>
0.3174

> <Gold.PLP.Chemscore.Hbond>
1.8640

> <Gold.PLP.Chemscore.CHOScore>
2.0000

> <Gold.PLP.Chemscore.Metal>
0.0000

> <Gold.Chemscore.Hbonds>
donor molecule, donor type, donor heavy atom, donor atom, acceptor molecule, acceptor atom, score
      L1  H     3    17       P1  7948  0.86
      L1  H    10    27       P1  7948  1.00
      L1  C    14    30       P1  8028  1.00
      L1  C    16    31       P1 10175  1.00

> <Gold.PLP.Chemscore.Internal.Correction>
0.0080

> <Gold.Rescore>
     Score         DG    S(hbond)    S(metal)    S(lipo)     H(rot)  DE(clash)    DE(int)     intcor
     14.93     -16.40       1.86        0.00      67.28       1.24       0.53       0.94       ----

> <Gold.Chemscore.Fitness>
14.9291

> <Gold.Chemscore.DG>
-16.4005

> <Gold.Chemscore.ZeroCoef>
-5.4800

> <Gold.Chemscore.Hbond>
1.8623

> <Gold.Chemscore.Metal>
0.0000

> <Gold.Chemscore.Lipo>
67.2840

> <Gold.Chemscore.Internal_Hbond>
0.0000

> <Gold.Chemscore.DEClash>
0.5310

> <Gold.Chemscore.DEInternal>
0.9404

> <Gold.Chemscore.Rot>
1.2390

> <Gold.Chemscore.Internal.Correction>
   9.000000E+99

> <Gold.Chemscore.Hbonds>
donor molecule, donor type, donor heavy atom, donor atom, acceptor molecule, acceptor atom, score
      L1  H     3    17       P1  7948  0.85
      L1  H    10    27       P1  7948  0.93

> <Gold.Chemscore.Hbond.Weighted>
-6.2201

> <Gold.Chemscore.Metal.Weighted>
-0.0000

> <Gold.Chemscore.Lipo.Weighted>
-7.8722

> <Gold.Chemscore.Internal_Hbond.Weighted>
0.0000

> <Gold.Chemscore.DEClash.Weighted>
0.5310

> <Gold.Chemscore.DEInternal.Weighted>
0.9404

> <Gold.Chemscore.Rot.Weighted>
3.1718

> <Gold.Chemscore.Internal.Correction.Weighted>
   9.000000E+99

> <Gold.Protein.RotatedTorsions>
[ 6907 6896 6895 6894 ] final -127.60 input  -60.11 | X-H torsion
[ 7974 7965 7964 7962 ] final   92.96 input  175.53 | X-H torsion
[ 8008 7997 7996 7995 ] final  -70.63 input   59.86 | X-H torsion
[ 10167 10162 10161 10158 ] final  163.57 input  -65.29 | X-H torsion
[ 10718 10713 10712 10709 ] final -105.87 input   66.30 | X-H torsion
[ 10763 10752 10751 10750 ] final   -1.89 input  -60.55 | X-H torsion
[ 11005 11000 10999 10996 ] final  167.34 input  -57.11 | X-H torsion

> <Gold.Protein.ActiveResidues>
 VAL166  LYS551  ARG553  GLY616  TRP617  ASP618  TYR619  PRO620  LYS621  CYS622 
 ASP623  PHE694  ASN695  SER759  ASP760  ASP761  ALA762  ILE779  LEU786  VAL792 
 PHE793  MET794  SER795  GLU796  ALA797  LYS798  CYS799  TRP800  GLU811  SER814 

> <Gold.Protein.RotatedAtoms>
  150.9090  133.7022  159.2859 H   0  0  0  0  0  0  0  0  0  0  0  0  # atno 6907 bound_to 6896
  151.4515  135.1029  159.9708 H   0  0  0  0  0  0  0  0  0  0  0  0  # atno 6908 bound_to 6896
  152.4919  133.8475  159.7239 H   0  0  0  0  0  0  0  0  0  0  0  0  # atno 6909 bound_to 6896
  145.4853  139.2277  143.2860 H   0  0  0  0  0  0  0  0  0  0  0  0  # atno 7974 bound_to 7965
  154.5026  140.0831  156.7830 H   0  0  0  0  0  0  0  0  0  0  0  0  # atno 8008 bound_to 7997
  155.3966  140.3435  155.4236 H   0  0  0  0  0  0  0  0  0  0  0  0  # atno 8009 bound_to 7997
  156.1476  140.1548  156.8809 H   0  0  0  0  0  0  0  0  0  0  0  0  # atno 8010 bound_to 7997
  139.4876  144.4324  151.9054 H   0  0  0  0  0  0  0  0  0  0  0  0  # atno 10167 bound_to 10162
  156.0365  130.5585  150.7600 H   0  0  0  0  0  0  0  0  0  0  0  0  # atno 10718 bound_to 10713
  153.3508  135.6985  153.6790 H   0  0  0  0  0  0  0  0  0  0  0  0  # atno 10763 bound_to 10752
  153.5518  135.3552  155.2763 H   0  0  0  0  0  0  0  0  0  0  0  0  # atno 10764 bound_to 10752
  154.8653  135.4228  154.2743 H   0  0  0  0  0  0  0  0  0  0  0  0  # atno 10765 bound_to 10752
  140.2757  134.7790  157.3715 H   0  0  0  0  0  0  0  0  0  0  0  0  # atno 11005 bound_to 11000
  146.2316  140.5643  142.8972 LP  0  0  0  0  0  0  0  0  0  0  0  0  # atno 17320 bound_to 7965
  144.7865  140.5947  143.6570 LP  0  0  0  0  0  0  0  0  0  0  0  0  # atno 17321 bound_to 7965
  140.3772  144.2782  150.5913 LP  0  0  0  0  0  0  0  0  0  0  0  0  # atno 17342 bound_to 10162
  140.5266  143.2253  151.8305 LP  0  0  0  0  0  0  0  0  0  0  0  0  # atno 17343 bound_to 10162
  157.5122  131.0926  151.0184 LP  0  0  0  0  0  0  0  0  0  0  0  0  # atno 17370 bound_to 10713
  157.0536  130.5797  149.5374 LP  0  0  0  0  0  0  0  0  0  0  0  0  # atno 17371 bound_to 10713
  140.1330  134.5070  155.8090 LP  0  0  0  0  0  0  0  0  0  0  0  0  # atno 17394 bound_to 11000
  141.2170  133.6797  156.7074 LP  0  0  0  0  0  0  0  0  0  0  0  0  # atno 17395 bound_to 11000

$$$$
