AV-unprocessed.smi:1686|AV-procd|sdf|6765|dock9
  -GOLD-   22720 7523D 1   1.00000     0.00000
 Structure written by MMmdl.
 41 43  0  0  0  0  0  0  0  0  1 V2000
  153.7559  136.8612  163.6109 C   0  0  0  0  0  0  0  0  0  0  0  0
  154.4378  136.5327  162.3141 C   0  0  0  0  0  0  0  0  0  0  0  0
  154.6105  135.2606  161.9796 N   0  0  0  0  0  0  0  0  0  0  0  0
  155.2724  135.2633  160.7464 O   0  0  0  0  0  0  0  0  0  0  0  0
  155.4621  136.5574  160.4014 C   0  0  0  0  0  0  0  0  0  0  0  0
  156.2546  137.0153  158.9461 Cl  0  0  0  0  0  0  0  0  0  0  0  0
  154.9618  137.4231  161.3308 C   0  0  0  0  0  0  0  0  0  0  0  0
  154.9645  138.9330  161.3317 C   0  0  0  0  0  0  0  0  0  0  0  0
  154.3887  139.5058  160.0311 C   0  0  0  0  0  0  0  0  0  0  0  0
  154.8151  139.1486  158.9316 O   0  0  0  0  0  0  0  0  0  0  0  0
  153.4121  140.4137  160.1841 N   0  0  0  0  0  0  0  0  0  0  0  0
  152.7118  141.1203  159.1121 C   0  0  1  0  0  0  0  0  0  0  0  0
  151.7744  140.1308  158.4033 C   0  0  0  0  0  0  0  0  0  0  0  0
  151.9555  142.3377  159.6981 C   0  0  1  0  0  0  0  0  0  0  0  0
  152.8576  143.4906  160.1978 C   0  0  0  0  0  0  0  0  0  0  0  0
  152.2265  144.7342  159.5451 C   0  0  1  0  0  0  0  0  0  0  0  0
  152.5711  144.7412  158.0446 C   0  0  0  0  0  0  0  0  0  0  0  0
  151.6848  143.6111  157.4900 C   0  0  0  0  0  0  0  0  0  0  0  0
  150.9767  143.0793  158.7532 C   0  0  2  0  0  0  0  0  0  0  0  0
  150.7456  144.3737  159.5269 C   0  0  0  0  0  0  0  0  0  0  0  0
  153.8202  137.9253  163.8377 H   0  0  0  0  0  0  0  0  0  0  0  0
  154.2114  136.3223  164.4420 H   0  0  0  0  0  0  0  0  0  0  0  0
  152.7003  136.5917  163.5767 H   0  0  0  0  0  0  0  0  0  0  0  0
  154.3843  139.3255  162.1676 H   0  0  0  0  0  0  0  0  0  0  0  0
  155.9758  139.3201  161.4603 H   0  0  0  0  0  0  0  0  0  0  0  0
  153.1318  140.6410  161.1272 H   0  0  0  0  0  0  0  0  0  0  0  0
  153.4367  141.4695  158.3769 H   0  0  0  0  0  0  0  0  0  0  0  0
  151.2785  140.5950  157.5508 H   0  0  0  0  0  0  0  0  0  0  0  0
  151.0019  139.7607  159.0781 H   0  0  0  0  0  0  0  0  0  0  0  0
  152.3277  139.2703  158.0252 H   0  0  0  0  0  0  0  0  0  0  0  0
  151.3710  141.9804  160.5485 H   0  0  0  0  0  0  0  0  0  0  0  0
  152.8248  143.5572  161.2858 H   0  0  0  0  0  0  0  0  0  0  0  0
  153.9023  143.3761  159.9066 H   0  0  0  0  0  0  0  0  0  0  0  0
  152.4705  145.6674  160.0538 H   0  0  0  0  0  0  0  0  0  0  0  0
  152.3070  145.6956  157.5875 H   0  0  0  0  0  0  0  0  0  0  0  0
  153.6319  144.5655  157.8622 H   0  0  0  0  0  0  0  0  0  0  0  0
  150.9541  144.0169  156.7892 H   0  0  0  0  0  0  0  0  0  0  0  0
  152.2522  142.8500  156.9561 H   0  0  0  0  0  0  0  0  0  0  0  0
  150.0668  142.5181  158.5391 H   0  0  0  0  0  0  0  0  0  0  0  0
  150.3257  144.2179  160.5223 H   0  0  0  0  0  0  0  0  0  0  0  0
  150.1307  145.0979  158.9892 H   0  0  0  0  0  0  0  0  0  0  0  0
  1  2  1  0  0  0  0
  1 21  1  0  0  0  0
  1 22  1  0  0  0  0
  1 23  1  0  0  0  0
  2  7  1  0  0  0  0
  2  3  2  0  0  0  0
  3  4  1  0  0  0  0
  4  5  1  0  0  0  0
  5  6  1  0  0  0  0
  5  7  2  0  0  0  0
  7  8  1  0  0  0  0
  8  9  1  0  0  0  0
  8 24  1  0  0  0  0
  8 25  1  0  0  0  0
  9 10  2  0  0  0  0
  9 11  1  0  0  0  0
 11 12  1  0  0  0  0
 11 26  1  0  0  0  0
 12 13  1  0  0  0  0
 12 14  1  0  0  0  0
 12 27  1  0  0  0  0
 13 28  1  0  0  0  0
 13 29  1  0  0  0  0
 13 30  1  0  0  0  0
 14 19  1  0  0  0  0
 14 15  1  0  0  0  0
 14 31  1  0  0  0  0
 15 16  1  0  0  0  0
 15 32  1  0  0  0  0
 15 33  1  0  0  0  0
 16 20  1  0  0  0  0
 16 17  1  0  0  0  0
 16 34  1  0  0  0  0
 17 18  1  0  0  0  0
 17 35  1  0  0  0  0
 17 36  1  0  0  0  0
 18 19  1  0  0  0  0
 18 37  1  0  0  0  0
 18 38  1  0  0  0  0
 19 20  1  0  0  0  0
 19 39  1  0  0  0  0
 20 40  1  0  0  0  0
 20 41  1  0  0  0  0
M  END
> <s_m_source_file>
AV-unprocessed.smi

> <i_m_source_file_index>
1686

> <i_lp_mmshare_version>
43012

> <i_f3d_flags>
0

> <s_epik_input>
W0NIM11jMW5vYyhDbCljMVtDSDJdQyg9TylbTkhdW0NASF0oW0NIM10pW0NASF0oW0NIMl1bQ0BIXTIzKVtDQEhdKFtDSDJdMylbQ0gyXVtDSDJdMg==

> <s_epik_cmdline>
J2VwaWtfcHl0aG9uJywgJy1waCcsICc3LjAnLCAnLXRuJywgJzgnLCAnLW1hJywgJzIwMCcsICctbWV0YWxfYmluZGluZycsICctaW1hZScsICc8aW5maWxlLm1hZT4nLCAnLW9tYWUnLCAnPG91dGZpbGUubWFlPic=

> <r_lp_tautomer_probability>
1

> <r_epik_Ionization_Penalty>
2.01576e-08

> <r_epik_Ionization_Penalty_Charging>
0

> <r_epik_Ionization_Penalty_Neutral>
2.01576e-08

> <r_epik_State_Penalty>
-0

> <r_epik_Charging_Adjusted_Penalty>
0

> <i_epik_Tot_Q>
0

> <i_epik_Tot_abs_Q>
0

> <r_epik_Metal_State_Penalty>
-0

> <b_epik_Metal_Only>
0

> <s_lp_Force_Field>
OPLS_2005

> <r_lp_Energy>
47.064

> <b_lp_Chiralities_Consistent>
1

> <s_lp_Variant>
AV-unprocessed.smi:1686-8

> <Gold.Version>
5.8.1

> <Gold.Id.Protein>
6NUR|6NUR_protein|mol2

> <Gold.PLP.Fitness>
42.3345

> <Gold.PLP.PLP>
-40.0951

> <Gold.PLP.part.hbond>
-1.0000

> <Gold.PLP.part.metal>
0.0000

> <Gold.PLP.part.buried>
-5.8072

> <Gold.PLP.part.nonpolar>
-33.0323

> <Gold.PLP.part.repulsive>
0.0866

> <Gold.PLP.ligand.clash>
0.0000

> <Gold.PLP.ligand.torsion>
0.3845

> <Gold.PLP.Chemscore.Hbond>
1.0000

> <Gold.PLP.Chemscore.CHOScore>
0.0000

> <Gold.PLP.Chemscore.Metal>
0.0000

> <Gold.Chemscore.Hbonds>
donor molecule, donor type, donor heavy atom, donor atom, acceptor molecule, acceptor atom, score
      P1  H  7997  8008       L1    10  1.00

> <Gold.PLP.Chemscore.Internal.Correction>
0.0084

> <Gold.Rescore>
     Score         DG    S(hbond)    S(metal)    S(lipo)     H(rot)  DE(clash)    DE(int)     intcor
     18.24     -20.06       1.00        0.00     128.16       1.46       0.09       1.74       ----

> <Gold.Chemscore.Fitness>
18.2364

> <Gold.Chemscore.DG>
-20.0640

> <Gold.Chemscore.ZeroCoef>
-5.4800

> <Gold.Chemscore.Hbond>
0.9999

> <Gold.Chemscore.Metal>
0.0000

> <Gold.Chemscore.Lipo>
128.1573

> <Gold.Chemscore.Internal_Hbond>
0.0000

> <Gold.Chemscore.DEClash>
0.0900

> <Gold.Chemscore.DEInternal>
1.7375

> <Gold.Chemscore.Rot>
1.4648

> <Gold.Chemscore.Internal.Correction>
   9.000000E+99

> <Gold.Chemscore.Hbonds>
donor molecule, donor type, donor heavy atom, donor atom, acceptor molecule, acceptor atom, score
      P1  H  7997  8008       L1    10  1.00

> <Gold.Chemscore.Hbond.Weighted>
-3.3395

> <Gold.Chemscore.Metal.Weighted>
-0.0000

> <Gold.Chemscore.Lipo.Weighted>
-14.9944

> <Gold.Chemscore.Internal_Hbond.Weighted>
0.0000

> <Gold.Chemscore.DEClash.Weighted>
0.0900

> <Gold.Chemscore.DEInternal.Weighted>
1.7375

> <Gold.Chemscore.Rot.Weighted>
3.7500

> <Gold.Chemscore.Internal.Correction.Weighted>
   9.000000E+99

> <Gold.Protein.RotatedTorsions>
[ 6907 6896 6895 6894 ] final -134.85 input  -60.11 | X-H torsion
[ 7974 7965 7964 7962 ] final  123.71 input  175.53 | X-H torsion
[ 8008 7997 7996 7995 ] final -123.69 input   59.86 | X-H torsion
[ 10167 10162 10161 10158 ] final  113.51 input  -65.29 | X-H torsion
[ 10718 10713 10712 10709 ] final -140.14 input   66.30 | X-H torsion
[ 10763 10752 10751 10750 ] final  -45.72 input  -60.55 | X-H torsion
[ 11005 11000 10999 10996 ] final -114.27 input  -57.11 | X-H torsion

> <Gold.Protein.ActiveResidues>
 VAL166  LYS551  ARG553  GLY616  TRP617  ASP618  TYR619  PRO620  LYS621  CYS622 
 ASP623  PHE694  ASN695  SER759  ASP760  ASP761  ALA762  ILE779  LEU786  VAL792 
 PHE793  MET794  SER795  GLU796  ALA797  LYS798  CYS799  TRP800  GLU811  SER814 

> <Gold.Protein.RotatedAtoms>
  150.9908  133.6151  159.2708 H   0  0  0  0  0  0  0  0  0  0  0  0  # atno 6907 bound_to 6896
  151.3372  135.0854  159.9368 H   0  0  0  0  0  0  0  0  0  0  0  0  # atno 6908 bound_to 6896
  152.5245  133.9526  159.7733 H   0  0  0  0  0  0  0  0  0  0  0  0  # atno 6909 bound_to 6896
  145.0928  139.3574  143.4852 H   0  0  0  0  0  0  0  0  0  0  0  0  # atno 7974 bound_to 7965
  155.1846  140.0411  157.2889 H   0  0  0  0  0  0  0  0  0  0  0  0  # atno 8008 bound_to 7997
  154.6180  140.2493  155.7557 H   0  0  0  0  0  0  0  0  0  0  0  0  # atno 8009 bound_to 7997
  156.2417  140.2901  156.0474 H   0  0  0  0  0  0  0  0  0  0  0  0  # atno 8010 bound_to 7997
  139.6456  144.7126  151.2150 H   0  0  0  0  0  0  0  0  0  0  0  0  # atno 10167 bound_to 10162
  156.3189  130.7523  151.1616 H   0  0  0  0  0  0  0  0  0  0  0  0  # atno 10718 bound_to 10713
  154.0332  135.6654  153.4782 H   0  0  0  0  0  0  0  0  0  0  0  0  # atno 10763 bound_to 10752
  153.0532  135.5072  154.7913 H   0  0  0  0  0  0  0  0  0  0  0  0  # atno 10764 bound_to 10752
  154.6865  135.3054  154.9505 H   0  0  0  0  0  0  0  0  0  0  0  0  # atno 10765 bound_to 10752
  141.0562  133.9608  157.2749 H   0  0  0  0  0  0  0  0  0  0  0  0  # atno 11005 bound_to 11000
  146.3531  140.0770  142.8620 LP  0  0  0  0  0  0  0  0  0  0  0  0  # atno 17320 bound_to 7965
  145.1046  140.9367  143.4692 LP  0  0  0  0  0  0  0  0  0  0  0  0  # atno 17321 bound_to 7965
  140.7513  143.6237  150.8489 LP  0  0  0  0  0  0  0  0  0  0  0  0  # atno 17342 bound_to 10162
  139.9880  143.5879  152.2920 LP  0  0  0  0  0  0  0  0  0  0  0  0  # atno 17343 bound_to 10162
  157.7407  131.0513  150.5145 LP  0  0  0  0  0  0  0  0  0  0  0  0  # atno 17370 bound_to 10713
  156.5295  130.4181  149.6209 LP  0  0  0  0  0  0  0  0  0  0  0  0  # atno 17371 bound_to 10713
  139.9392  135.0193  156.8655 LP  0  0  0  0  0  0  0  0  0  0  0  0  # atno 17394 bound_to 11000
  140.5959  134.0218  155.7518 LP  0  0  0  0  0  0  0  0  0  0  0  0  # atno 17395 bound_to 11000

$$$$
