AV-unprocessed.smi:1411|AV-procd|sdf|5739|dock3
  -GOLD-   22720 5373D 1   1.00000     0.00000
 Structure written by MMmdl.
 43 44  0  0  0  0  0  0  0  0  3 V2000
  146.5487  137.5461  159.2896 O   0  0  0  0  0  0  0  0  0  0  0  0
  147.7526  137.5445  159.0284 C   0  0  0  0  0  0  0  0  0  0  0  0
  148.7229  136.6146  159.7709 C   0  0  0  0  0  0  0  0  0  0  0  0
  148.0535  135.7142  160.7245 N   0  0  0  0  0  0  0  0  0  0  0  0
  148.0545  134.3418  160.4065 C   0  0  0  0  0  0  0  0  0  0  0  0
  147.4799  133.4209  161.2047 C   0  0  0  0  0  0  0  0  0  0  0  0
  147.4950  132.0151  160.8638 N   0  3  0  0  0  0  0  0  0  0  0  0
  148.2446  131.6346  159.9703 O   0  0  0  0  0  0  0  0  0  0  0  0
  146.7604  131.2459  161.4764 O   0  5  0  0  0  0  0  0  0  0  0  0
  146.8467  133.8866  162.4232 C   0  0  0  0  0  0  0  0  0  0  0  0
  146.8467  135.1975  162.7357 C   0  0  0  0  0  0  0  0  0  0  0  0
  147.4768  136.1975  161.8674 C   0  0  0  0  0  0  0  0  0  0  0  0
  147.4859  137.3953  162.1512 O   0  0  0  0  0  0  0  0  0  0  0  0
  148.3019  138.3335  158.0922 N   0  0  0  0  0  0  0  0  0  0  0  0
  147.5857  139.3013  157.2634 C   0  0  0  0  0  0  0  0  0  0  0  0
  147.5906  138.8088  155.7997 C   0  0  0  0  0  0  0  0  0  0  0  0
  147.0822  139.8202  154.7526 C   0  0  0  0  0  0  0  0  0  0  0  0
  148.1949  140.5087  153.9356 C   0  0  0  0  0  0  0  0  0  0  0  0
  149.0909  141.5154  154.6864 C   0  0  0  0  0  0  0  0  0  0  0  0
  150.0407  140.8854  155.7258 C   0  0  0  0  0  0  0  0  0  0  0  0
  149.5941  141.0138  157.1952 C   0  0  0  0  0  0  0  0  0  0  0  0
  148.1081  140.7391  157.4985 C   0  0  0  0  0  0  0  0  0  0  0  0
  149.2950  136.0486  159.0337 H   0  0  0  0  0  0  0  0  0  0  0  0
  149.4626  137.2217  160.2958 H   0  0  0  0  0  0  0  0  0  0  0  0
  148.5570  134.0980  159.4813 H   0  0  0  0  0  0  0  0  0  0  0  0
  146.3697  133.1879  163.0947 H   0  0  0  0  0  0  0  0  0  0  0  0
  146.3705  135.5218  163.6495 H   0  0  0  0  0  0  0  0  0  0  0  0
  149.2979  138.2619  157.9424 H   0  0  0  0  0  0  0  0  0  0  0  0
  146.5405  139.2994  157.5786 H   0  0  0  0  0  0  0  0  0  0  0  0
  148.5723  138.4333  155.5134 H   0  0  0  0  0  0  0  0  0  0  0  0
  146.9468  137.9290  155.7567 H   0  0  0  0  0  0  0  0  0  0  0  0
  146.4640  139.2708  154.0416 H   0  0  0  0  0  0  0  0  0  0  0  0
  146.4093  140.5530  155.1976 H   0  0  0  0  0  0  0  0  0  0  0  0
  148.8193  139.7505  153.4612 H   0  0  0  0  0  0  0  0  0  0  0  0
  147.7173  141.0427  153.1133 H   0  0  0  0  0  0  0  0  0  0  0  0
  149.7104  142.0062  153.9347 H   0  0  0  0  0  0  0  0  0  0  0  0
  148.4970  142.3180  155.1237 H   0  0  0  0  0  0  0  0  0  0  0  0
  150.2473  139.8463  155.4753 H   0  0  0  0  0  0  0  0  0  0  0  0
  151.0102  141.3781  155.6438 H   0  0  0  0  0  0  0  0  0  0  0  0
  150.2239  140.3783  157.8184 H   0  0  0  0  0  0  0  0  0  0  0  0
  149.8055  142.0339  157.5178 H   0  0  0  0  0  0  0  0  0  0  0  0
  147.4826  141.4545  156.9678 H   0  0  0  0  0  0  0  0  0  0  0  0
  147.9444  140.9859  158.5482 H   0  0  0  0  0  0  0  0  0  0  0  0
  1  2  2  0  0  0  0
  2  3  1  0  0  0  0
  2 14  1  0  0  0  0
  3  4  1  0  0  0  0
  3 23  1  0  0  0  0
  3 24  1  0  0  0  0
  4 12  1  0  0  0  0
  4  5  1  0  0  0  0
  5  6  2  0  0  0  0
  5 25  1  0  0  0  0
  6  7  1  0  0  0  0
  6 10  1  0  0  0  0
  7  8  2  0  0  0  0
  7  9  1  0  0  0  0
 10 11  2  0  0  0  0
 10 26  1  0  0  0  0
 11 12  1  0  0  0  0
 11 27  1  0  0  0  0
 12 13  2  0  0  0  0
 14 15  1  0  0  0  0
 14 28  1  0  0  0  0
 15 22  1  0  0  0  0
 15 16  1  0  0  0  0
 15 29  1  0  0  0  0
 16 17  1  0  0  0  0
 16 30  1  0  0  0  0
 16 31  1  0  0  0  0
 17 18  1  0  0  0  0
 17 32  1  0  0  0  0
 17 33  1  0  0  0  0
 18 19  1  0  0  0  0
 18 34  1  0  0  0  0
 18 35  1  0  0  0  0
 19 20  1  0  0  0  0
 19 36  1  0  0  0  0
 19 37  1  0  0  0  0
 20 21  1  0  0  0  0
 20 38  1  0  0  0  0
 20 39  1  0  0  0  0
 21 22  1  0  0  0  0
 21 40  1  0  0  0  0
 21 41  1  0  0  0  0
 22 42  1  0  0  0  0
 22 43  1  0  0  0  0
M  CHG  1   7   1
M  CHG  1   9  -1
M  END
> <s_m_source_file>
AV-unprocessed.smi

> <i_m_source_file_index>
1411

> <i_lp_mmshare_version>
43012

> <i_f3d_flags>
0

> <s_epik_input>
Tz1jMVtjSF1bY0hdYyhbTitdKD1PKVtPLV0pW2NIXW4xW0NIMl1DKD1PKVtOSF1bQ0hdMltDSDJdW0NIMl1bQ0gyXVtDSDJdW0NIMl1bQ0gyXVtDSDJdMg==

> <s_epik_cmdline>
J2VwaWtfcHl0aG9uJywgJy1waCcsICc3LjAnLCAnLXRuJywgJzgnLCAnLW1hJywgJzIwMCcsICctbWV0YWxfYmluZGluZycsICctaW1hZScsICc8aW5maWxlLm1hZT4nLCAnLW9tYWUnLCAnPG91dGZpbGUubWFlPic=

> <r_lp_tautomer_probability>
1

> <r_epik_Ionization_Penalty>
2.02954e-08

> <r_epik_Ionization_Penalty_Charging>
8.05481e-11

> <r_epik_Ionization_Penalty_Neutral>
2.02148e-08

> <r_epik_State_Penalty>
-0

> <r_epik_Charging_Adjusted_Penalty>
8.05481e-11

> <i_epik_Tot_Q>
0

> <i_epik_Tot_abs_Q>
2

> <r_epik_Metal_State_Penalty>
-0

> <b_epik_Metal_Only>
0

> <s_lp_Force_Field>
OPLS_2005

> <r_lp_Energy>
31.3753

> <b_lp_Chiralities_Consistent>
1

> <s_lp_Variant>
AV-unprocessed.smi:1411-1

> <Gold.Version>
5.8.1

> <Gold.Id.Protein>
6NUR|6NUR_protein|mol2

> <Gold.PLP.Fitness>
37.8165

> <Gold.PLP.PLP>
-33.9780

> <Gold.PLP.part.hbond>
-2.6206

> <Gold.PLP.part.metal>
0.0000

> <Gold.PLP.part.buried>
-2.1366

> <Gold.PLP.part.nonpolar>
-29.6975

> <Gold.PLP.part.repulsive>
0.1509

> <Gold.PLP.ligand.clash>
0.0000

> <Gold.PLP.ligand.torsion>
0.1964

> <Gold.PLP.Chemscore.Hbond>
1.3920

> <Gold.PLP.Chemscore.CHOScore>
0.0000

> <Gold.PLP.Chemscore.Metal>
0.0000

> <Gold.Chemscore.Hbonds>
donor molecule, donor type, donor heavy atom, donor atom, acceptor molecule, acceptor atom, score
      P1  H  6931  6943       L1    13  0.80
      P1  H  6934  6947       L1    13  0.56

> <Gold.PLP.Chemscore.Internal.Correction>
0.0553

> <Gold.Rescore>
     Score         DG    S(hbond)    S(metal)    S(lipo)     H(rot)  DE(clash)    DE(int)     intcor
     13.72     -13.96       1.50        0.00      63.31       1.54       0.00       0.24       ----

> <Gold.Chemscore.Fitness>
13.7193

> <Gold.Chemscore.DG>
-13.9593

> <Gold.Chemscore.ZeroCoef>
-5.4800

> <Gold.Chemscore.Hbond>
1.5007

> <Gold.Chemscore.Metal>
0.0000

> <Gold.Chemscore.Lipo>
63.3134

> <Gold.Chemscore.Internal_Hbond>
0.0000

> <Gold.Chemscore.DEClash>
0.0021

> <Gold.Chemscore.DEInternal>
0.2378

> <Gold.Chemscore.Rot>
1.5393

> <Gold.Chemscore.Internal.Correction>
   9.000000E+99

> <Gold.Chemscore.Hbonds>
donor molecule, donor type, donor heavy atom, donor atom, acceptor molecule, acceptor atom, score
      P1  H  6931  6943       L1    13  0.75
      P1  H  6934  6947       L1    13  0.53

> <Gold.Chemscore.Hbond.Weighted>
-5.0123

> <Gold.Chemscore.Metal.Weighted>
-0.0000

> <Gold.Chemscore.Lipo.Weighted>
-7.4077

> <Gold.Chemscore.Internal_Hbond.Weighted>
0.0000

> <Gold.Chemscore.DEClash.Weighted>
0.0021

> <Gold.Chemscore.DEInternal.Weighted>
0.2378

> <Gold.Chemscore.Rot.Weighted>
3.9407

> <Gold.Chemscore.Internal.Correction.Weighted>
   9.000000E+99

> <Gold.Protein.RotatedTorsions>
[ 6907 6896 6895 6894 ] final  -51.28 input  -60.11 | X-H torsion
[ 7974 7965 7964 7962 ] final  -12.15 input  175.53 | X-H torsion
[ 8008 7997 7996 7995 ] final  -39.91 input   59.86 | X-H torsion
[ 10167 10162 10161 10158 ] final -116.04 input  -65.29 | X-H torsion
[ 10718 10713 10712 10709 ] final  -88.83 input   66.30 | X-H torsion
[ 10763 10752 10751 10750 ] final  -83.30 input  -60.55 | X-H torsion
[ 11005 11000 10999 10996 ] final  -53.11 input  -57.11 | X-H torsion

> <Gold.Protein.ActiveResidues>
 VAL166  LYS551  ARG553  GLY616  TRP617  ASP618  TYR619  PRO620  LYS621  CYS622 
 ASP623  PHE694  ASN695  SER759  ASP760  ASP761  ALA762  ILE779  LEU786  VAL792 
 PHE793  MET794  SER795  GLU796  ALA797  LYS798  CYS799  TRP800  GLU811  SER814 

> <Gold.Protein.RotatedAtoms>
  150.8626  134.7982  159.7094 H   0  0  0  0  0  0  0  0  0  0  0  0  # atno 6907 bound_to 6896
  152.4658  134.5075  159.9753 H   0  0  0  0  0  0  0  0  0  0  0  0  # atno 6908 bound_to 6896
  151.5176  133.3434  159.2931 H   0  0  0  0  0  0  0  0  0  0  0  0  # atno 6909 bound_to 6896
  146.2162  140.3015  142.8375 H   0  0  0  0  0  0  0  0  0  0  0  0  # atno 7974 bound_to 7965
  154.4017  140.1539  156.2940 H   0  0  0  0  0  0  0  0  0  0  0  0  # atno 8008 bound_to 7997
  155.8760  140.3446  155.5832 H   0  0  0  0  0  0  0  0  0  0  0  0  # atno 8009 bound_to 7997
  155.7721  140.0832  157.2093 H   0  0  0  0  0  0  0  0  0  0  0  0  # atno 8010 bound_to 7997
  140.0835  143.4766  152.1912 H   0  0  0  0  0  0  0  0  0  0  0  0  # atno 10167 bound_to 10162
  155.9983  130.4850  150.5079 H   0  0  0  0  0  0  0  0  0  0  0  0  # atno 10718 bound_to 10713
  154.5861  135.5561  153.7232 H   0  0  0  0  0  0  0  0  0  0  0  0  # atno 10763 bound_to 10752
  153.0099  135.6332  154.1915 H   0  0  0  0  0  0  0  0  0  0  0  0  # atno 10764 bound_to 10752
  154.1855  135.2885  155.3018 H   0  0  0  0  0  0  0  0  0  0  0  0  # atno 10765 bound_to 10752
  141.0959  133.6625  156.4124 H   0  0  0  0  0  0  0  0  0  0  0  0  # atno 11005 bound_to 11000
  144.9054  140.7693  143.5841 LP  0  0  0  0  0  0  0  0  0  0  0  0  # atno 17320 bound_to 7965
  145.2943  139.1872  143.4723 LP  0  0  0  0  0  0  0  0  0  0  0  0  # atno 17321 bound_to 7965
  139.5766  144.7490  151.3750 LP  0  0  0  0  0  0  0  0  0  0  0  0  # atno 17342 bound_to 10162
  140.7065  143.7499  150.7492 LP  0  0  0  0  0  0  0  0  0  0  0  0  # atno 17343 bound_to 10162
  157.3056  131.0653  151.2038 LP  0  0  0  0  0  0  0  0  0  0  0  0  # atno 17370 bound_to 10713
  157.3002  130.6839  149.6160 LP  0  0  0  0  0  0  0  0  0  0  0  0  # atno 17371 bound_to 10713
  140.5141  134.6367  157.5295 LP  0  0  0  0  0  0  0  0  0  0  0  0  # atno 17394 bound_to 11000
  139.9796  134.7159  155.9885 LP  0  0  0  0  0  0  0  0  0  0  0  0  # atno 17395 bound_to 11000

$$$$
