AV-unprocessed.smi:1605|AV-procd|sdf|6452|dock2
  -GOLD-   22720 7103D 1   1.00000     0.00000
 Structure written by MMmdl.
 51 53  0  0  0  0  0  0  0  0  2 V2000
  144.0459  134.2642  152.0130 C   0  0  0  0  0  0  0  0  0  0  0  0
  144.9239  135.1465  151.3315 O   0  0  0  0  0  0  0  0  0  0  0  0
  145.1775  136.3669  152.0145 C   0  0  2  0  0  0  0  0  0  0  0  0
  146.0496  137.2369  151.0974 C   0  0  0  0  0  0  0  0  0  0  0  0
  146.4685  138.5405  151.7964 C   0  0  0  0  0  0  0  0  0  0  0  0
  147.1830  138.2590  153.0684 N   0  3  1  0  0  0  0  0  0  0  0  0
  147.7291  139.4933  153.6900 C   0  0  0  0  0  0  0  0  0  0  0  0
  149.0334  139.2470  154.4822 C   0  0  1  0  0  0  0  0  0  0  0  0
  149.9767  138.6259  153.6303 O   0  0  0  0  0  0  0  0  0  0  0  0
  149.6509  140.5410  155.0586 C   0  0  0  0  0  0  0  0  0  0  0  0
  150.5814  140.3123  156.1530 N   0  0  0  0  0  0  0  0  0  0  0  0
  151.2194  139.1634  156.4494 C   0  0  0  0  0  0  0  0  0  0  0  0
  152.0246  139.1680  157.5071 N   0  0  0  0  0  0  0  0  0  0  0  0
  151.9084  140.4778  157.9404 C   0  0  0  0  0  0  0  0  0  0  0  0
  152.5152  141.1405  159.0297 C   0  0  0  0  0  0  0  0  0  0  0  0
  152.2494  142.5042  159.2880 C   0  0  0  0  0  0  0  0  0  0  0  0
  152.9233  143.1772  160.4711 C   0  0  0  0  0  0  0  0  0  0  0  0
  151.3658  143.2272  158.4470 C   0  0  0  0  0  0  0  0  0  0  0  0
  151.0673  144.6940  158.7020 C   0  0  0  0  0  0  0  0  0  0  0  0
  150.7493  142.5798  157.3562 C   0  0  0  0  0  0  0  0  0  0  0  0
  151.0183  141.2215  157.1113 C   0  0  0  0  0  0  0  0  0  0  0  0
  146.3434  137.4511  153.9931 C   0  0  0  0  0  0  0  0  0  0  0  0
  145.9205  136.1236  153.3416 C   0  0  0  0  0  0  0  0  0  0  0  0
  143.8748  133.3798  151.3994 H   0  0  0  0  0  0  0  0  0  0  0  0
  143.0787  134.7331  152.1974 H   0  0  0  0  0  0  0  0  0  0  0  0
  144.4617  133.9305  152.9635 H   0  0  0  0  0  0  0  0  0  0  0  0
  144.2389  136.8921  152.2021 H   0  0  0  0  0  0  0  0  0  0  0  0
  146.9408  136.6820  150.8008 H   0  0  0  0  0  0  0  0  0  0  0  0
  145.5090  137.4664  150.1785 H   0  0  0  0  0  0  0  0  0  0  0  0
  147.1145  139.1094  151.1266 H   0  0  0  0  0  0  0  0  0  0  0  0
  145.5935  139.1610  151.9970 H   0  0  0  0  0  0  0  0  0  0  0  0
  147.9291  140.2301  152.9108 H   0  0  0  0  0  0  0  0  0  0  0  0
  146.9678  139.9345  154.3354 H   0  0  0  0  0  0  0  0  0  0  0  0
  148.8532  138.5733  155.3188 H   0  0  0  0  0  0  0  0  0  0  0  0
  150.0020  139.0888  152.8072 H   0  0  0  0  0  0  0  0  0  0  0  0
  150.1801  141.0777  154.2701 H   0  0  0  0  0  0  0  0  0  0  0  0
  148.8653  141.2127  155.4078 H   0  0  0  0  0  0  0  0  0  0  0  0
  151.0767  138.2693  155.8601 H   0  0  0  0  0  0  0  0  0  0  0  0
  153.1907  140.5904  159.6681 H   0  0  0  0  0  0  0  0  0  0  0  0
  153.5845  143.9739  160.1299 H   0  0  0  0  0  0  0  0  0  0  0  0
  153.5203  142.4685  161.0457 H   0  0  0  0  0  0  0  0  0  0  0  0
  152.1799  143.6068  161.1431 H   0  0  0  0  0  0  0  0  0  0  0  0
  150.4140  145.1066  157.9326 H   0  0  0  0  0  0  0  0  0  0  0  0
  151.9879  145.2783  158.7062 H   0  0  0  0  0  0  0  0  0  0  0  0
  150.5717  144.8200  159.6648 H   0  0  0  0  0  0  0  0  0  0  0  0
  150.0718  143.1182  156.7100 H   0  0  0  0  0  0  0  0  0  0  0  0
  146.8859  137.2323  154.9117 H   0  0  0  0  0  0  0  0  0  0  0  0
  145.4605  138.0245  154.2800 H   0  0  0  0  0  0  0  0  0  0  0  0
  145.2931  135.5676  154.0379 H   0  0  0  0  0  0  0  0  0  0  0  0
  146.8034  135.5084  153.1613 H   0  0  0  0  0  0  0  0  0  0  0  0
  147.9805  137.6919  152.8183 H   0  0  0  0  0  0  0  0  0  0  0  0
  1  2  1  0  0  0  0
  1 24  1  0  0  0  0
  1 25  1  0  0  0  0
  1 26  1  0  0  0  0
  2  3  1  0  0  0  0
  3 23  1  0  0  0  0
  3  4  1  0  0  0  0
  3 27  1  0  0  0  0
  4  5  1  0  0  0  0
  4 28  1  0  0  0  0
  4 29  1  0  0  0  0
  5  6  1  0  0  0  0
  5 30  1  0  0  0  0
  5 31  1  0  0  0  0
  6  7  1  0  0  0  0
  6 22  1  0  0  0  0
  6 51  1  0  0  0  0
  7  8  1  0  0  0  0
  7 32  1  0  0  0  0
  7 33  1  0  0  0  0
  8  9  1  0  0  0  0
  8 10  1  0  0  0  0
  8 34  1  0  0  0  0
  9 35  1  0  0  0  0
 10 11  1  0  0  0  0
 10 36  1  0  0  0  0
 10 37  1  0  0  0  0
 11 21  1  0  0  0  0
 11 12  1  0  0  0  0
 12 13  2  0  0  0  0
 12 38  1  0  0  0  0
 13 14  1  0  0  0  0
 14 21  2  0  0  0  0
 14 15  1  0  0  0  0
 15 16  2  0  0  0  0
 15 39  1  0  0  0  0
 16 17  1  0  0  0  0
 16 18  1  0  0  0  0
 17 40  1  0  0  0  0
 17 41  1  0  0  0  0
 17 42  1  0  0  0  0
 18 19  1  0  0  0  0
 18 20  2  0  0  0  0
 19 43  1  0  0  0  0
 19 44  1  0  0  0  0
 19 45  1  0  0  0  0
 20 21  1  0  0  0  0
 20 46  1  0  0  0  0
 22 23  1  0  0  0  0
 22 47  1  0  0  0  0
 22 48  1  0  0  0  0
 23 49  1  0  0  0  0
 23 50  1  0  0  0  0
M  CHG  1   6   1
M  END
> <s_m_source_file>
AV-unprocessed.smi

> <i_m_source_file_index>
1605

> <i_lp_mmshare_version>
43012

> <i_f3d_flags>
0

> <s_epik_input>
W0NIM11PW0NIXTFbQ0gyXVtDSDJdTihbQ0gyXVtDSDJdMSlbQ0gyXVtDQEhdKFtPSF0pW0NIMl1uKFtjSF1uMiljKGMyMylbY0hdYyhbQ0gzXSljKFtjSF0zKVtDSDNd

> <s_epik_cmdline>
J2VwaWtfcHl0aG9uJywgJy1waCcsICc3LjAnLCAnLXRuJywgJzgnLCAnLW1hJywgJzIwMCcsICctbWV0YWxfYmluZGluZycsICctaW1hZScsICc8aW5maWxlLm1hZT4nLCAnLW9tYWUnLCAnPG91dGZpbGUubWFlPic=

> <r_epik_Ionization_Penalty>
0.110943

> <r_epik_Ionization_Penalty_Charging>
0.0229283

> <r_epik_Ionization_Penalty_Neutral>
0.0880146

> <r_epik_State_Penalty>
0.0947554

> <r_epik_Charging_Adjusted_Penalty>
0.117684

> <i_epik_Tot_Q>
1

> <i_epik_Tot_abs_Q>
1

> <r_epik_Metal_State_Penalty>
0.0192456

> <b_epik_Metal_Only>
0

> <s_lp_Force_Field>
OPLS_2005

> <r_lp_Energy>
23.4204

> <b_lp_Chiralities_Consistent>
1

> <s_lp_Variant>
AV-unprocessed.smi:1605-2

> <Gold.Version>
5.8.1

> <Gold.Id.Protein>
6NUR|6NUR_protein|mol2

> <Gold.PLP.Fitness>
52.2618

> <Gold.PLP.PLP>
-44.8206

> <Gold.PLP.part.hbond>
-2.7409

> <Gold.PLP.part.metal>
0.0000

> <Gold.PLP.part.buried>
0.3776

> <Gold.PLP.part.nonpolar>
-43.1930

> <Gold.PLP.part.repulsive>
0.2392

> <Gold.PLP.ligand.clash>
0.0000

> <Gold.PLP.ligand.torsion>
0.7984

> <Gold.PLP.Chemscore.Hbond>
3.0000

> <Gold.PLP.Chemscore.CHOScore>
0.0000

> <Gold.PLP.Chemscore.Metal>
0.0000

> <Gold.Chemscore.Hbonds>
donor molecule, donor type, donor heavy atom, donor atom, acceptor molecule, acceptor atom, score
      L1  H     6    51       P1  7948  2.00
      L1  H     9    35       P1  7957  1.00

> <Gold.PLP.Chemscore.Internal.Correction>
0.0379

> <Gold.Rescore>
     Score         DG    S(hbond)    S(metal)    S(lipo)     H(rot)  DE(clash)    DE(int)     intcor
     19.00     -21.15       1.76        0.00     132.28       2.22       1.56       0.59       ----

> <Gold.Chemscore.Fitness>
18.9997

> <Gold.Chemscore.DG>
-21.1463

> <Gold.Chemscore.ZeroCoef>
-5.4800

> <Gold.Chemscore.Hbond>
1.7559

> <Gold.Chemscore.Metal>
0.0000

> <Gold.Chemscore.Lipo>
132.2811

> <Gold.Chemscore.Internal_Hbond>
0.0000

> <Gold.Chemscore.DEClash>
1.5556

> <Gold.Chemscore.DEInternal>
0.5910

> <Gold.Chemscore.Rot>
2.2169

> <Gold.Chemscore.Internal.Correction>
   9.000000E+99

> <Gold.Chemscore.Hbonds>
donor molecule, donor type, donor heavy atom, donor atom, acceptor molecule, acceptor atom, score
      L1  H     6    51       P1  7948  0.96
      L1  H     9    35       P1  7957  0.85

> <Gold.Chemscore.Hbond.Weighted>
-5.8647

> <Gold.Chemscore.Metal.Weighted>
-0.0000

> <Gold.Chemscore.Lipo.Weighted>
-15.4769

> <Gold.Chemscore.Internal_Hbond.Weighted>
0.0000

> <Gold.Chemscore.DEClash.Weighted>
1.5556

> <Gold.Chemscore.DEInternal.Weighted>
0.5910

> <Gold.Chemscore.Rot.Weighted>
5.6753

> <Gold.Chemscore.Internal.Correction.Weighted>
   9.000000E+99

> <Gold.Protein.RotatedTorsions>
[ 6907 6896 6895 6894 ] final -169.13 input  -60.11 | X-H torsion
[ 7974 7965 7964 7962 ] final   56.50 input  175.53 | X-H torsion
[ 8008 7997 7996 7995 ] final    0.06 input   59.86 | X-H torsion
[ 10167 10162 10161 10158 ] final   46.77 input  -65.29 | X-H torsion
[ 10718 10713 10712 10709 ] final  160.76 input   66.30 | X-H torsion
[ 10763 10752 10751 10750 ] final  155.27 input  -60.55 | X-H torsion
[ 11005 11000 10999 10996 ] final  -62.83 input  -57.11 | X-H torsion

> <Gold.Protein.ActiveResidues>
 VAL166  LYS551  ARG553  GLY616  TRP617  ASP618  TYR619  PRO620  LYS621  CYS622 
 ASP623  PHE694  ASN695  SER759  ASP760  ASP761  ALA762  ILE779  LEU786  VAL792 
 PHE793  MET794  SER795  GLU796  ALA797  LYS798  CYS799  TRP800  GLU811  SER814 

> <Gold.Protein.RotatedAtoms>
  151.4867  133.3534  159.2846 H   0  0  0  0  0  0  0  0  0  0  0  0  # atno 6907 bound_to 6896
  150.8861  134.8261  159.7271 H   0  0  0  0  0  0  0  0  0  0  0  0  # atno 6908 bound_to 6896
  152.4794  134.4771  159.9705 H   0  0  0  0  0  0  0  0  0  0  0  0  # atno 6909 bound_to 6896
  145.9391  139.3873  143.0374 H   0  0  0  0  0  0  0  0  0  0  0  0  # atno 7974 bound_to 7965
  154.6638  140.2596  155.7080 H   0  0  0  0  0  0  0  0  0  0  0  0  # atno 8008 bound_to 7997
  156.2630  140.2843  156.1042 H   0  0  0  0  0  0  0  0  0  0  0  0  # atno 8009 bound_to 7997
  155.1269  140.0378  157.2755 H   0  0  0  0  0  0  0  0  0  0  0  0  # atno 8010 bound_to 7997
  140.3105  144.2826  150.6201 H   0  0  0  0  0  0  0  0  0  0  0  0  # atno 10167 bound_to 10162
  157.1459  131.0552  151.2304 H   0  0  0  0  0  0  0  0  0  0  0  0  # atno 10718 bound_to 10713
  154.1657  135.2807  155.3096 H   0  0  0  0  0  0  0  0  0  0  0  0  # atno 10763 bound_to 10752
  154.6113  135.5498  153.7479 H   0  0  0  0  0  0  0  0  0  0  0  0  # atno 10764 bound_to 10752
  153.0179  135.6416  154.1798 H   0  0  0  0  0  0  0  0  0  0  0  0  # atno 10765 bound_to 10752
  141.1373  133.6644  156.5588 H   0  0  0  0  0  0  0  0  0  0  0  0  # atno 11005 bound_to 11000
  145.8324  140.9624  143.0842 LP  0  0  0  0  0  0  0  0  0  0  0  0  # atno 17320 bound_to 7965
  144.6776  140.0179  143.7484 LP  0  0  0  0  0  0  0  0  0  0  0  0  # atno 17321 bound_to 7965
  140.5572  143.2197  151.7826 LP  0  0  0  0  0  0  0  0  0  0  0  0  # atno 17342 bound_to 10162
  139.4895  144.4397  151.9778 LP  0  0  0  0  0  0  0  0  0  0  0  0  # atno 17343 bound_to 10162
  157.4265  130.7466  149.6955 LP  0  0  0  0  0  0  0  0  0  0  0  0  # atno 17370 bound_to 10713
  155.9779  130.4057  150.3679 LP  0  0  0  0  0  0  0  0  0  0  0  0  # atno 17371 bound_to 10713
  140.4005  134.7361  157.4777 LP  0  0  0  0  0  0  0  0  0  0  0  0  # atno 17394 bound_to 11000
  140.0500  134.6145  155.8874 LP  0  0  0  0  0  0  0  0  0  0  0  0  # atno 17395 bound_to 11000

$$$$
