AV-unprocessed.smi:1844|AV-procd|sdf|7508|dock2
  -GOLD-   22720 9213D 1   1.00000     0.00000
 Structure written by MMmdl.
 45 46  0  0  0  0  0  0  0  0  1 V2000
  149.1101  133.0896  155.3679 C   0  0  0  0  0  0  0  0  0  0  0  0
  149.7798  134.3774  155.2666 N   0  0  0  0  0  0  0  0  0  0  0  0
  150.2359  135.0829  156.3147 C   0  0  0  0  0  0  0  0  0  0  0  0
  150.1187  134.6720  157.4704 O   0  0  0  0  0  0  0  0  0  0  0  0
  150.8686  136.3514  155.9447 C   0  0  0  0  0  0  0  0  0  0  0  0
  150.7704  136.9331  154.6140 C   0  0  0  0  0  0  0  0  0  0  0  0
  151.3660  138.1089  154.3339 C   0  0  0  0  0  0  0  0  0  0  0  0
  152.1328  138.8457  155.3425 C   0  0  0  0  0  0  0  0  0  0  0  0
  152.6753  139.9226  155.0931 O   0  0  0  0  0  0  0  0  0  0  0  0
  152.2073  138.2605  156.5763 N   0  0  0  0  0  0  0  0  0  0  0  0
  152.9528  138.9025  157.6721 C   0  0  0  0  0  0  0  0  0  0  0  0
  152.1389  139.9589  158.4330 C   0  0  0  0  0  0  0  0  0  0  0  0
  151.2218  139.6333  159.1886 O   0  0  0  0  0  0  0  0  0  0  0  0
  152.5017  141.2334  158.2239 N   0  0  0  0  0  0  0  0  0  0  0  0
  151.8775  142.4051  158.8349 C   0  0  2  0  0  0  0  0  0  0  0  0
  151.5936  143.4649  157.7495 C   0  0  0  0  0  0  0  0  0  0  0  0
  151.0001  144.7481  158.3479 C   0  0  0  0  0  0  0  0  0  0  0  0
  151.9128  145.3176  159.4419 C   0  0  0  0  0  0  0  0  0  0  0  0
  152.1796  144.2719  160.5346 C   0  0  0  0  0  0  0  0  0  0  0  0
  152.7821  142.9753  159.9561 C   0  0  1  0  0  0  0  0  0  0  0  0
  153.0430  141.9546  161.0786 C   0  0  0  0  0  0  0  0  0  0  0  0
  151.5772  137.0341  156.8653 C   0  0  0  0  0  0  0  0  0  0  0  0
  148.8960  132.7032  154.3717 H   0  0  0  0  0  0  0  0  0  0  0  0
  148.1669  133.1858  155.9067 H   0  0  0  0  0  0  0  0  0  0  0  0
  149.7358  132.3631  155.8875 H   0  0  0  0  0  0  0  0  0  0  0  0
  149.9041  134.7612  154.3412 H   0  0  0  0  0  0  0  0  0  0  0  0
  150.2198  136.4422  153.8251 H   0  0  0  0  0  0  0  0  0  0  0  0
  151.2772  138.5217  153.3396 H   0  0  0  0  0  0  0  0  0  0  0  0
  153.2948  138.1545  158.3890 H   0  0  0  0  0  0  0  0  0  0  0  0
  153.8645  139.3637  157.2876 H   0  0  0  0  0  0  0  0  0  0  0  0
  153.2688  141.4075  157.5908 H   0  0  0  0  0  0  0  0  0  0  0  0
  150.9288  142.1094  159.2874 H   0  0  0  0  0  0  0  0  0  0  0  0
  152.5165  143.7081  157.2210 H   0  0  0  0  0  0  0  0  0  0  0  0
  150.9085  143.0633  157.0018 H   0  0  0  0  0  0  0  0  0  0  0  0
  150.8517  145.4902  157.5630 H   0  0  0  0  0  0  0  0  0  0  0  0
  150.0149  144.5363  158.7650 H   0  0  0  0  0  0  0  0  0  0  0  0
  152.8576  145.6387  159.0016 H   0  0  0  0  0  0  0  0  0  0  0  0
  151.4576  146.2062  159.8806 H   0  0  0  0  0  0  0  0  0  0  0  0
  152.8511  144.6941  161.2831 H   0  0  0  0  0  0  0  0  0  0  0  0
  151.2467  144.0444  161.0525 H   0  0  0  0  0  0  0  0  0  0  0  0
  153.7472  143.2298  159.5151 H   0  0  0  0  0  0  0  0  0  0  0  0
  152.1110  141.6362  161.5467 H   0  0  0  0  0  0  0  0  0  0  0  0
  153.6755  142.3823  161.8569 H   0  0  0  0  0  0  0  0  0  0  0  0
  153.5489  141.0637  160.7062 H   0  0  0  0  0  0  0  0  0  0  0  0
  151.7073  136.6971  157.8844 H   0  0  0  0  0  0  0  0  0  0  0  0
  1  2  1  0  0  0  0
  1 23  1  0  0  0  0
  1 24  1  0  0  0  0
  1 25  1  0  0  0  0
  2  3  1  0  0  0  0
  2 26  1  0  0  0  0
  3  4  2  0  0  0  0
  3  5  1  0  0  0  0
  5 22  2  0  0  0  0
  5  6  1  0  0  0  0
  6  7  2  0  0  0  0
  6 27  1  0  0  0  0
  7  8  1  0  0  0  0
  7 28  1  0  0  0  0
  8  9  2  0  0  0  0
  8 10  1  0  0  0  0
 10 11  1  0  0  0  0
 10 22  1  0  0  0  0
 11 12  1  0  0  0  0
 11 29  1  0  0  0  0
 11 30  1  0  0  0  0
 12 13  2  0  0  0  0
 12 14  1  0  0  0  0
 14 15  1  0  0  0  0
 14 31  1  0  0  0  0
 15 20  1  0  0  0  0
 15 16  1  0  0  0  0
 15 32  1  0  0  0  0
 16 17  1  0  0  0  0
 16 33  1  0  0  0  0
 16 34  1  0  0  0  0
 17 18  1  0  0  0  0
 17 35  1  0  0  0  0
 17 36  1  0  0  0  0
 18 19  1  0  0  0  0
 18 37  1  0  0  0  0
 18 38  1  0  0  0  0
 19 20  1  0  0  0  0
 19 39  1  0  0  0  0
 19 40  1  0  0  0  0
 20 21  1  0  0  0  0
 20 41  1  0  0  0  0
 21 42  1  0  0  0  0
 21 43  1  0  0  0  0
 21 44  1  0  0  0  0
 22 45  1  0  0  0  0
M  END
> <s_m_source_file>
AV-unprocessed.smi

> <i_m_source_file_index>
1844

> <i_lp_mmshare_version>
43012

> <i_f3d_flags>
0

> <s_epik_input>
W0NIM11bTkhdQyg9TyljMVtjSF1bY0hdYyg9TyluKFtjSF0xKVtDSDJdQyg9TylbTkhdW0NAQEhdMltDSDJdW0NIMl1bQ0gyXVtDSDJdW0NASF0yW0NIM10=

> <s_epik_cmdline>
J2VwaWtfcHl0aG9uJywgJy1waCcsICc3LjAnLCAnLXRuJywgJzgnLCAnLW1hJywgJzIwMCcsICctbWV0YWxfYmluZGluZycsICctaW1hZScsICc8aW5maWxlLm1hZT4nLCAnLW9tYWUnLCAnPG91dGZpbGUubWFlPic=

> <r_lp_tautomer_probability>
1

> <r_epik_Ionization_Penalty>
3.66612e-07

> <r_epik_Ionization_Penalty_Charging>
5.18929e-08

> <r_epik_Ionization_Penalty_Neutral>
3.14719e-07

> <r_epik_State_Penalty>
-0

> <r_epik_Charging_Adjusted_Penalty>
5.18929e-08

> <i_epik_Tot_Q>
0

> <i_epik_Tot_abs_Q>
0

> <r_epik_Metal_State_Penalty>
-0

> <b_epik_Metal_Only>
0

> <s_lp_Force_Field>
OPLS_2005

> <r_lp_Energy>
22.707

> <b_lp_Chiralities_Consistent>
1

> <s_lp_Variant>
AV-unprocessed.smi:1844-1

> <Gold.Version>
5.8.1

> <Gold.Id.Protein>
6NUR|6NUR_protein|mol2

> <Gold.PLP.Fitness>
48.6747

> <Gold.PLP.PLP>
-43.2960

> <Gold.PLP.part.hbond>
-3.1907

> <Gold.PLP.part.metal>
0.0000

> <Gold.PLP.part.buried>
-3.5831

> <Gold.PLP.part.nonpolar>
-37.0228

> <Gold.PLP.part.repulsive>
0.1411

> <Gold.PLP.ligand.clash>
0.0000

> <Gold.PLP.ligand.torsion>
0.7020

> <Gold.PLP.Chemscore.Hbond>
2.2420

> <Gold.PLP.Chemscore.CHOScore>
0.0000

> <Gold.PLP.Chemscore.Metal>
0.0000

> <Gold.Chemscore.Hbonds>
donor molecule, donor type, donor heavy atom, donor atom, acceptor molecule, acceptor atom, score
      P1  H  6896  6907       L1     4  0.77
      P1  H  7989  7998       L1     9  0.44
      P1  H  7997  8010       L1     9  1.00

> <Gold.PLP.Chemscore.Internal.Correction>
0.0566

> <Gold.Rescore>
     Score         DG    S(hbond)    S(metal)    S(lipo)     H(rot)  DE(clash)    DE(int)     intcor
     20.73     -21.49       2.04        0.00     111.17       1.49       0.05       0.71       ----

> <Gold.Chemscore.Fitness>
20.7299

> <Gold.Chemscore.DG>
-21.4855

> <Gold.Chemscore.ZeroCoef>
-5.4800

> <Gold.Chemscore.Hbond>
2.0417

> <Gold.Chemscore.Metal>
0.0000

> <Gold.Chemscore.Lipo>
111.1688

> <Gold.Chemscore.Internal_Hbond>
0.0000

> <Gold.Chemscore.DEClash>
0.0497

> <Gold.Chemscore.DEInternal>
0.7059

> <Gold.Chemscore.Rot>
1.4923

> <Gold.Chemscore.Internal.Correction>
   9.000000E+99

> <Gold.Chemscore.Hbonds>
donor molecule, donor type, donor heavy atom, donor atom, acceptor molecule, acceptor atom, score
      P1  H  6896  6907       L1     4  0.73
      P1  H  7989  7998       L1     9  0.32
      P1  H  7997  8010       L1     9  0.74

> <Gold.Chemscore.Hbond.Weighted>
-6.8191

> <Gold.Chemscore.Metal.Weighted>
-0.0000

> <Gold.Chemscore.Lipo.Weighted>
-13.0067

> <Gold.Chemscore.Internal_Hbond.Weighted>
0.0000

> <Gold.Chemscore.DEClash.Weighted>
0.0497

> <Gold.Chemscore.DEInternal.Weighted>
0.7059

> <Gold.Chemscore.Rot.Weighted>
3.8204

> <Gold.Chemscore.Internal.Correction.Weighted>
   9.000000E+99

> <Gold.Protein.RotatedTorsions>
[ 6907 6896 6895 6894 ] final  -94.69 input  -60.11 | X-H torsion
[ 7974 7965 7964 7962 ] final   85.99 input  175.53 | X-H torsion
[ 8008 7997 7996 7995 ] final   85.50 input   59.86 | X-H torsion
[ 10167 10162 10161 10158 ] final  -51.15 input  -65.29 | X-H torsion
[ 10718 10713 10712 10709 ] final  -54.71 input   66.30 | X-H torsion
[ 10763 10752 10751 10750 ] final  -82.46 input  -60.55 | X-H torsion
[ 11005 11000 10999 10996 ] final -127.91 input  -57.11 | X-H torsion

> <Gold.Protein.ActiveResidues>
 VAL166  LYS551  ARG553  GLY616  TRP617  ASP618  TYR619  PRO620  LYS621  CYS622 
 ASP623  PHE694  ASN695  SER759  ASP760  ASP761  ALA762  ILE779  LEU786  VAL792 
 PHE793  MET794  SER795  GLU796  ALA797  LYS798  CYS799  TRP800  GLU811  SER814 

> <Gold.Protein.RotatedAtoms>
  150.6947  134.1773  159.4234 H   0  0  0  0  0  0  0  0  0  0  0  0  # atno 6907 bound_to 6896
  151.9749  135.0056  160.0564 H   0  0  0  0  0  0  0  0  0  0  0  0  # atno 6908 bound_to 6896
  152.1808  133.4671  159.4994 H   0  0  0  0  0  0  0  0  0  0  0  0  # atno 6909 bound_to 6896
  145.5782  139.2322  143.2367 H   0  0  0  0  0  0  0  0  0  0  0  0  # atno 7974 bound_to 7965
  155.9509  140.3401  155.6407 H   0  0  0  0  0  0  0  0  0  0  0  0  # atno 8008 bound_to 7997
  155.6921  140.0750  157.2462 H   0  0  0  0  0  0  0  0  0  0  0  0  # atno 8009 bound_to 7997
  154.4121  140.1655  156.2086 H   0  0  0  0  0  0  0  0  0  0  0  0  # atno 8010 bound_to 7997
  140.6603  143.2630  151.4462 H   0  0  0  0  0  0  0  0  0  0  0  0  # atno 10167 bound_to 10162
  156.1428  130.4154  150.0075 H   0  0  0  0  0  0  0  0  0  0  0  0  # atno 10718 bound_to 10713
  154.5760  135.5590  153.7139 H   0  0  0  0  0  0  0  0  0  0  0  0  # atno 10763 bound_to 10752
  153.0064  135.6308  154.2049 H   0  0  0  0  0  0  0  0  0  0  0  0  # atno 10764 bound_to 10752
  154.1989  135.2879  155.2977 H   0  0  0  0  0  0  0  0  0  0  0  0  # atno 10765 bound_to 10752
  140.9560  134.1001  157.4016 H   0  0  0  0  0  0  0  0  0  0  0  0  # atno 11005 bound_to 11000
  146.1735  140.6609  142.9222 LP  0  0  0  0  0  0  0  0  0  0  0  0  # atno 17320 bound_to 7965
  144.7406  140.4931  143.6872 LP  0  0  0  0  0  0  0  0  0  0  0  0  # atno 17321 bound_to 7965
  139.5835  144.1657  152.1999 LP  0  0  0  0  0  0  0  0  0  0  0  0  # atno 17342 bound_to 10162
  140.0989  144.5556  150.7002 LP  0  0  0  0  0  0  0  0  0  0  0  0  # atno 17343 bound_to 10162
  156.7955  130.9271  151.3646 LP  0  0  0  0  0  0  0  0  0  0  0  0  # atno 17370 bound_to 10713
  157.6590  130.8950  149.9790 LP  0  0  0  0  0  0  0  0  0  0  0  0  # atno 17371 bound_to 10713
  139.8862  135.0079  156.6485 LP  0  0  0  0  0  0  0  0  0  0  0  0  # atno 17394 bound_to 11000
  140.7535  133.8877  155.8365 LP  0  0  0  0  0  0  0  0  0  0  0  0  # atno 17395 bound_to 11000

$$$$
