AV-unprocessed.smi:1328|AV-procd|sdf|5479|dock5
  -GOLD-   22720 5 53D 1   1.00000     0.00000
 Structure written by MMmdl.
 38 39  0  0  0  0  0  0  0  0  1 V2000
  152.4723  140.3224  158.1117 C   0  0  0  0  0  0  0  0  0  0  0  0
  151.8109  139.9164  156.8259 C   0  0  0  0  0  0  0  0  0  0  0  0
  152.5256  139.8692  155.7144 N   0  0  0  0  0  0  0  0  0  0  0  0
  151.6426  139.4680  154.7075 O   0  0  0  0  0  0  0  0  0  0  0  0
  150.4165  139.2844  155.2596 C   0  0  0  0  0  0  0  0  0  0  0  0
  149.3259  138.8594  154.3355 C   0  0  0  0  0  0  0  0  0  0  0  0
  150.4523  139.5502  156.6012 C   0  0  0  0  0  0  0  0  0  0  0  0
  149.3292  139.4818  157.6037 C   0  0  0  0  0  0  0  0  0  0  0  0
  148.9757  138.0199  157.8731 C   0  0  0  0  0  0  0  0  0  0  0  0
  149.4858  137.1292  157.1941 O   0  0  0  0  0  0  0  0  0  0  0  0
  148.0947  137.7937  158.8606 N   0  0  0  0  0  0  0  0  0  0  0  0
  147.5606  136.4925  159.2572 C   0  0  2  0  0  0  0  0  0  0  0  0
  146.0329  136.5266  159.1024 C   0  0  0  0  0  0  0  0  0  0  0  0
  147.9838  136.1457  160.7000 C   0  0  2  0  0  0  0  0  0  0  0  0
  147.2561  134.9505  161.3201 C   0  0  0  0  0  0  0  0  0  0  0  0
  147.3988  135.2373  162.7966 C   0  0  0  0  0  0  0  0  0  0  0  0
  147.2238  136.7517  162.8338 C   0  0  0  0  0  0  0  0  0  0  0  0
  147.7004  137.2327  161.5796 O   0  0  0  0  0  0  0  0  0  0  0  0
  152.8004  139.4475  158.6726 H   0  0  0  0  0  0  0  0  0  0  0  0
  151.7887  140.8867  158.7458 H   0  0  0  0  0  0  0  0  0  0  0  0
  153.3453  140.9508  157.9322 H   0  0  0  0  0  0  0  0  0  0  0  0
  148.9002  139.7215  153.8219 H   0  0  0  0  0  0  0  0  0  0  0  0
  148.5236  138.3616  154.8802 H   0  0  0  0  0  0  0  0  0  0  0  0
  149.7013  138.1667  153.5822 H   0  0  0  0  0  0  0  0  0  0  0  0
  149.6072  139.9591  158.5441 H   0  0  0  0  0  0  0  0  0  0  0  0
  148.4422  140.0093  157.2507 H   0  0  0  0  0  0  0  0  0  0  0  0
  147.7387  138.5953  159.3602 H   0  0  0  0  0  0  0  0  0  0  0  0
  147.9413  135.7178  158.5893 H   0  0  0  0  0  0  0  0  0  0  0  0
  145.5892  135.5618  159.3497 H   0  0  0  0  0  0  0  0  0  0  0  0
  145.7480  136.7640  158.0769 H   0  0  0  0  0  0  0  0  0  0  0  0
  145.5838  137.2761  159.7552 H   0  0  0  0  0  0  0  0  0  0  0  0
  149.0589  135.9623  160.7409 H   0  0  0  0  0  0  0  0  0  0  0  0
  146.2010  134.9545  161.0419 H   0  0  0  0  0  0  0  0  0  0  0  0
  147.6839  133.9911  161.0279 H   0  0  0  0  0  0  0  0  0  0  0  0
  146.6706  134.7080  163.4116 H   0  0  0  0  0  0  0  0  0  0  0  0
  148.3987  134.9644  163.1364 H   0  0  0  0  0  0  0  0  0  0  0  0
  146.1681  137.0104  162.9235 H   0  0  0  0  0  0  0  0  0  0  0  0
  147.7571  137.2113  163.6663 H   0  0  0  0  0  0  0  0  0  0  0  0
  1  2  1  0  0  0  0
  1 19  1  0  0  0  0
  1 20  1  0  0  0  0
  1 21  1  0  0  0  0
  2  7  1  0  0  0  0
  2  3  2  0  0  0  0
  3  4  1  0  0  0  0
  4  5  1  0  0  0  0
  5  6  1  0  0  0  0
  5  7  2  0  0  0  0
  6 22  1  0  0  0  0
  6 23  1  0  0  0  0
  6 24  1  0  0  0  0
  7  8  1  0  0  0  0
  8  9  1  0  0  0  0
  8 25  1  0  0  0  0
  8 26  1  0  0  0  0
  9 10  2  0  0  0  0
  9 11  1  0  0  0  0
 11 12  1  0  0  0  0
 11 27  1  0  0  0  0
 12 13  1  0  0  0  0
 12 14  1  0  0  0  0
 12 28  1  0  0  0  0
 13 29  1  0  0  0  0
 13 30  1  0  0  0  0
 13 31  1  0  0  0  0
 14 18  1  0  0  0  0
 14 15  1  0  0  0  0
 14 32  1  0  0  0  0
 15 16  1  0  0  0  0
 15 33  1  0  0  0  0
 15 34  1  0  0  0  0
 16 17  1  0  0  0  0
 16 35  1  0  0  0  0
 16 36  1  0  0  0  0
 17 18  1  0  0  0  0
 17 37  1  0  0  0  0
 17 38  1  0  0  0  0
M  END
> <s_m_source_file>
AV-unprocessed.smi

> <i_m_source_file_index>
1328

> <i_lp_mmshare_version>
43012

> <i_f3d_flags>
0

> <s_epik_input>
W0NIM11jMW5vYyhbQ0gzXSljMVtDSDJdQyg9TylbTkhdW0NASF0oW0NIM10pW0NAQEhdMltDSDJdW0NIMl1bQ0gyXU8y

> <s_epik_cmdline>
J2VwaWtfcHl0aG9uJywgJy1waCcsICc3LjAnLCAnLXRuJywgJzgnLCAnLW1hJywgJzIwMCcsICctbWV0YWxfYmluZGluZycsICctaW1hZScsICc8aW5maWxlLm1hZT4nLCAnLW9tYWUnLCAnPG91dGZpbGUubWFlPic=

> <r_lp_tautomer_probability>
1

> <r_epik_Ionization_Penalty>
2.66156e-08

> <r_epik_Ionization_Penalty_Charging>
0

> <r_epik_Ionization_Penalty_Neutral>
2.66156e-08

> <r_epik_State_Penalty>
-0

> <r_epik_Charging_Adjusted_Penalty>
0

> <i_epik_Tot_Q>
0

> <i_epik_Tot_abs_Q>
0

> <r_epik_Metal_State_Penalty>
-0

> <b_epik_Metal_Only>
0

> <s_lp_Force_Field>
OPLS_2005

> <r_lp_Energy>
12.1854

> <b_lp_Chiralities_Consistent>
1

> <s_lp_Variant>
AV-unprocessed.smi:1328-1

> <Gold.Version>
5.8.1

> <Gold.Id.Protein>
6NUR|6NUR_protein|mol2

> <Gold.PLP.Fitness>
39.9702

> <Gold.PLP.PLP>
-29.2680

> <Gold.PLP.part.hbond>
-4.0148

> <Gold.PLP.part.metal>
0.0000

> <Gold.PLP.part.buried>
-3.9402

> <Gold.PLP.part.nonpolar>
-21.3715

> <Gold.PLP.part.repulsive>
0.2298

> <Gold.PLP.ligand.clash>
0.0000

> <Gold.PLP.ligand.torsion>
0.3213

> <Gold.PLP.Chemscore.Hbond>
3.7760

> <Gold.PLP.Chemscore.CHOScore>
0.0000

> <Gold.PLP.Chemscore.Metal>
0.0000

> <Gold.Chemscore.Hbonds>
donor molecule, donor type, donor heavy atom, donor atom, acceptor molecule, acceptor atom, score
      P1  H  6931  6943       L1    18  0.99
      P1  H  6934  6947       L1    18  0.74
      P1  H  7989  7998       L1     4  1.00
      P1  H  7997  8009       L1     3  1.00

> <Gold.PLP.Chemscore.Internal.Correction>
0.0169

> <Gold.Rescore>
     Score         DG    S(hbond)    S(metal)    S(lipo)     H(rot)  DE(clash)    DE(int)     intcor
     18.74     -19.21       2.99        0.00      65.09       1.52       0.01       0.46       ----

> <Gold.Chemscore.Fitness>
18.7408

> <Gold.Chemscore.DG>
-19.2076

> <Gold.Chemscore.ZeroCoef>
-5.4800

> <Gold.Chemscore.Hbond>
2.9918

> <Gold.Chemscore.Metal>
0.0000

> <Gold.Chemscore.Lipo>
65.0916

> <Gold.Chemscore.Internal_Hbond>
0.0000

> <Gold.Chemscore.DEClash>
0.0089

> <Gold.Chemscore.DEInternal>
0.4579

> <Gold.Chemscore.Rot>
1.5159

> <Gold.Chemscore.Internal.Correction>
   9.000000E+99

> <Gold.Chemscore.Hbonds>
donor molecule, donor type, donor heavy atom, donor atom, acceptor molecule, acceptor atom, score
      P1  H  6931  6943       L1    18  0.52
      P1  H  6934  6947       L1    18  0.70
      P1  H  7989  7998       L1     4  0.40
      P1  H  7997  8009       L1     3  0.65

> <Gold.Chemscore.Hbond.Weighted>
-9.9926

> <Gold.Chemscore.Metal.Weighted>
-0.0000

> <Gold.Chemscore.Lipo.Weighted>
-7.6157

> <Gold.Chemscore.Internal_Hbond.Weighted>
0.0000

> <Gold.Chemscore.DEClash.Weighted>
0.0089

> <Gold.Chemscore.DEInternal.Weighted>
0.4579

> <Gold.Chemscore.Rot.Weighted>
3.8807

> <Gold.Chemscore.Internal.Correction.Weighted>
   9.000000E+99

> <Gold.Protein.RotatedTorsions>
[ 6907 6896 6895 6894 ] final  150.65 input  -60.11 | X-H torsion
[ 7974 7965 7964 7962 ] final   20.83 input  175.53 | X-H torsion
[ 8008 7997 7996 7995 ] final -152.65 input   59.86 | X-H torsion
[ 10167 10162 10161 10158 ] final   91.76 input  -65.29 | X-H torsion
[ 10718 10713 10712 10709 ] final  -19.23 input   66.30 | X-H torsion
[ 10763 10752 10751 10750 ] final  119.27 input  -60.55 | X-H torsion
[ 11005 11000 10999 10996 ] final -115.43 input  -57.11 | X-H torsion

> <Gold.Protein.ActiveResidues>
 VAL166  LYS551  ARG553  GLY616  TRP617  ASP618  TYR619  PRO620  LYS621  CYS622 
 ASP623  PHE694  ASN695  SER759  ASP760  ASP761  ALA762  ILE779  LEU786  VAL792 
 PHE793  MET794  SER795  GLU796  ALA797  LYS798  CYS799  TRP800  GLU811  SER814 

> <Gold.Protein.RotatedAtoms>
  152.1114  133.4303  159.4632 H   0  0  0  0  0  0  0  0  0  0  0  0  # atno 6907 bound_to 6896
  150.6867  134.2643  159.4571 H   0  0  0  0  0  0  0  0  0  0  0  0  # atno 6908 bound_to 6896
  152.0512  134.9652  160.0625 H   0  0  0  0  0  0  0  0  0  0  0  0  # atno 6909 bound_to 6896
  146.2096  139.8113  142.8699 H   0  0  0  0  0  0  0  0  0  0  0  0  # atno 7974 bound_to 7965
  155.6584  140.0720  157.2562 H   0  0  0  0  0  0  0  0  0  0  0  0  # atno 8008 bound_to 7997
  154.4147  140.1720  156.1801 H   0  0  0  0  0  0  0  0  0  0  0  0  # atno 8009 bound_to 7997
  155.9718  140.3361  155.6585 H   0  0  0  0  0  0  0  0  0  0  0  0  # atno 8010 bound_to 7997
  139.8343  144.6672  150.9361 H   0  0  0  0  0  0  0  0  0  0  0  0  # atno 10167 bound_to 10162
  156.5485  130.4696  149.6463 H   0  0  0  0  0  0  0  0  0  0  0  0  # atno 10718 bound_to 10713
  153.5805  135.3485  155.2873 H   0  0  0  0  0  0  0  0  0  0  0  0  # atno 10763 bound_to 10752
  154.8668  135.4181  154.2626 H   0  0  0  0  0  0  0  0  0  0  0  0  # atno 10764 bound_to 10752
  153.3411  135.7050  153.6936 H   0  0  0  0  0  0  0  0  0  0  0  0  # atno 10765 bound_to 10752
  141.0488  133.9720  157.2872 H   0  0  0  0  0  0  0  0  0  0  0  0  # atno 11005 bound_to 11000
  145.3193  141.0240  143.3510 LP  0  0  0  0  0  0  0  0  0  0  0  0  # atno 17320 bound_to 7965
  144.8878  139.4815  143.6692 LP  0  0  0  0  0  0  0  0  0  0  0  0  # atno 17321 bound_to 7965
  140.7804  143.3972  151.1210 LP  0  0  0  0  0  0  0  0  0  0  0  0  # atno 17342 bound_to 10162
  139.7623  143.8617  152.3103 LP  0  0  0  0  0  0  0  0  0  0  0  0  # atno 17343 bound_to 10162
  156.2906  130.7122  151.1969 LP  0  0  0  0  0  0  0  0  0  0  0  0  # atno 17370 bound_to 10713
  157.7392  131.0532  150.5247 LP  0  0  0  0  0  0  0  0  0  0  0  0  # atno 17371 bound_to 10713
  139.9333  135.0198  156.8474 LP  0  0  0  0  0  0  0  0  0  0  0  0  # atno 17394 bound_to 11000
  140.6095  134.0096  155.7571 LP  0  0  0  0  0  0  0  0  0  0  0  0  # atno 17395 bound_to 11000

$$$$
