AV-unprocessed.smi:2911|AV-procd|sdf|11180|dock9
  -GOLD-   2272016 73D 1   1.00000     0.00000
 Structure written by MMmdl.
 41 42  0  0  0  0  0  0  0  0  1 V2000
  146.9570  145.1344  161.2405 C   0  0  0  0  0  0  0  0  0  0  0  0
  146.4042  143.8358  160.7609 C   0  0  0  0  0  0  0  0  0  0  0  0
  147.1542  142.9759  160.0823 N   0  0  0  0  0  0  0  0  0  0  0  0
  146.2760  141.9129  159.8265 O   0  0  0  0  0  0  0  0  0  0  0  0
  145.1007  142.2571  160.4058 C   0  0  0  0  0  0  0  0  0  0  0  0
  143.9335  141.3384  160.2689 C   0  0  0  0  0  0  0  0  0  0  0  0
  144.3389  139.9484  159.7536 C   0  0  0  0  0  0  0  0  0  0  0  0
  144.7043  139.0565  160.8482 N   0  0  0  0  0  0  0  0  0  0  0  0
  144.1188  137.8764  161.1141 C   0  0  0  0  0  0  0  0  0  0  0  0
  143.1550  137.4634  160.4691 O   0  0  0  0  0  0  0  0  0  0  0  0
  144.6161  137.2599  162.2167 N   0  0  0  0  0  0  0  0  0  0  0  0
  146.0384  137.3892  162.5814 C   0  0  0  0  0  0  0  0  0  0  0  0
  146.8264  136.2278  161.9450 C   0  0  0  0  0  0  0  0  0  0  0  0
  146.2590  134.8582  162.3759 C   0  0  2  0  0  0  0  0  0  0  0  0
  146.9589  133.7005  161.6511 C   0  0  0  0  0  0  0  0  0  0  0  0
  144.7267  134.8056  162.1887 C   0  0  0  0  0  0  0  0  0  0  0  0
  144.0474  136.0365  162.8241 C   0  0  2  0  0  0  0  0  0  0  0  0
  142.5071  135.9395  162.7996 C   0  0  0  0  0  0  0  0  0  0  0  0
  145.1175  143.4538  160.9883 N   0  0  0  0  0  0  0  0  0  0  0  0
  147.7965  145.4502  160.6203 H   0  0  0  0  0  0  0  0  0  0  0  0
  147.3029  145.0373  162.2696 H   0  0  0  0  0  0  0  0  0  0  0  0
  146.1927  145.9112  161.2038 H   0  0  0  0  0  0  0  0  0  0  0  0
  143.4441  141.2574  161.2403 H   0  0  0  0  0  0  0  0  0  0  0  0
  143.2099  141.7937  159.5916 H   0  0  0  0  0  0  0  0  0  0  0  0
  143.5072  139.4965  159.2125 H   0  0  0  0  0  0  0  0  0  0  0  0
  145.1644  140.0289  159.0442 H   0  0  0  0  0  0  0  0  0  0  0  0
  145.4599  139.3548  161.4478 H   0  0  0  0  0  0  0  0  0  0  0  0
  146.4791  138.3377  162.2730 H   0  0  0  0  0  0  0  0  0  0  0  0
  146.1438  137.3641  163.6669 H   0  0  0  0  0  0  0  0  0  0  0  0
  146.7885  136.3181  160.8583 H   0  0  0  0  0  0  0  0  0  0  0  0
  147.8787  136.2992  162.2225 H   0  0  0  0  0  0  0  0  0  0  0  0
  146.4601  134.7449  163.4421 H   0  0  0  0  0  0  0  0  0  0  0  0
  146.7965  133.7512  160.5741 H   0  0  0  0  0  0  0  0  0  0  0  0
  146.5858  132.7370  161.9991 H   0  0  0  0  0  0  0  0  0  0  0  0
  148.0348  133.7206  161.8269 H   0  0  0  0  0  0  0  0  0  0  0  0
  144.4823  134.7592  161.1262 H   0  0  0  0  0  0  0  0  0  0  0  0
  144.3343  133.8910  162.6350 H   0  0  0  0  0  0  0  0  0  0  0  0
  144.3130  136.0544  163.8825 H   0  0  0  0  0  0  0  0  0  0  0  0
  142.1670  135.1318  163.4482 H   0  0  0  0  0  0  0  0  0  0  0  0
  142.1161  135.7264  161.8052 H   0  0  0  0  0  0  0  0  0  0  0  0
  142.0462  136.8602  163.1585 H   0  0  0  0  0  0  0  0  0  0  0  0
  1  2  1  0  0  0  0
  1 20  1  0  0  0  0
  1 21  1  0  0  0  0
  1 22  1  0  0  0  0
  2 19  1  0  0  0  0
  2  3  2  0  0  0  0
  3  4  1  0  0  0  0
  4  5  1  0  0  0  0
  5  6  1  0  0  0  0
  5 19  2  0  0  0  0
  6  7  1  0  0  0  0
  6 23  1  0  0  0  0
  6 24  1  0  0  0  0
  7  8  1  0  0  0  0
  7 25  1  0  0  0  0
  7 26  1  0  0  0  0
  8  9  1  0  0  0  0
  8 27  1  0  0  0  0
  9 10  2  0  0  0  0
  9 11  1  0  0  0  0
 11 17  1  0  0  0  0
 11 12  1  0  0  0  0
 12 13  1  0  0  0  0
 12 28  1  0  0  0  0
 12 29  1  0  0  0  0
 13 14  1  0  0  0  0
 13 30  1  0  0  0  0
 13 31  1  0  0  0  0
 14 15  1  0  0  0  0
 14 16  1  0  0  0  0
 14 32  1  0  0  0  0
 15 33  1  0  0  0  0
 15 34  1  0  0  0  0
 15 35  1  0  0  0  0
 16 17  1  0  0  0  0
 16 36  1  0  0  0  0
 16 37  1  0  0  0  0
 17 18  1  0  0  0  0
 17 38  1  0  0  0  0
 18 39  1  0  0  0  0
 18 40  1  0  0  0  0
 18 41  1  0  0  0  0
M  END
> <s_m_source_file>
AV-unprocessed.smi

> <i_m_source_file_index>
2911

> <i_lp_mmshare_version>
43012

> <i_f3d_flags>
0

> <s_epik_input>
W0NIM11jMW5vYyhuMSlbQ0gyXVtDSDJdW05IXUMoPU8pTjJbQ0gyXVtDSDJdW0NAQEhdKFtDSDNdKVtDSDJdW0NASF0yW0NIM10=

> <s_epik_cmdline>
J2VwaWtfcHl0aG9uJywgJy1waCcsICc3LjAnLCAnLXRuJywgJzgnLCAnLW1hJywgJzIwMCcsICctbWV0YWxfYmluZGluZycsICctaW1hZScsICc8aW5maWxlLm1hZT4nLCAnLW9tYWUnLCAnPG91dGZpbGUubWFlPic=

> <r_lp_tautomer_probability>
1

> <r_epik_Ionization_Penalty>
6.61671e-05

> <r_epik_Ionization_Penalty_Charging>
0

> <r_epik_Ionization_Penalty_Neutral>
6.61671e-05

> <r_epik_State_Penalty>
-0

> <r_epik_Charging_Adjusted_Penalty>
0

> <i_epik_Tot_Q>
0

> <i_epik_Tot_abs_Q>
0

> <r_epik_Metal_State_Penalty>
-0

> <b_epik_Metal_Only>
0

> <s_lp_Force_Field>
OPLS_2005

> <r_lp_Energy>
29.3819

> <b_lp_Chiralities_Consistent>
1

> <s_lp_Variant>
AV-unprocessed.smi:2911-4

> <Gold.Version>
5.8.1

> <Gold.Id.Protein>
6NUR|6NUR_protein|mol2

> <Gold.PLP.Fitness>
36.8039

> <Gold.PLP.PLP>
-31.5037

> <Gold.PLP.part.hbond>
-2.7999

> <Gold.PLP.part.metal>
0.0000

> <Gold.PLP.part.buried>
-6.4682

> <Gold.PLP.part.nonpolar>
-24.1339

> <Gold.PLP.part.repulsive>
1.6803

> <Gold.PLP.ligand.clash>
0.0000

> <Gold.PLP.ligand.torsion>
0.5046

> <Gold.PLP.Chemscore.Hbond>
1.9600

> <Gold.PLP.Chemscore.CHOScore>
0.0000

> <Gold.PLP.Chemscore.Metal>
0.0000

> <Gold.Chemscore.Hbonds>
donor molecule, donor type, donor heavy atom, donor atom, acceptor molecule, acceptor atom, score
      P1  H  6933  6944       L1     3  0.93
      P1  H  6934  6946       L1     4  0.91

> <Gold.PLP.Chemscore.Internal.Correction>
0.4294

> <Gold.Rescore>
     Score         DG    S(hbond)    S(metal)    S(lipo)     H(rot)  DE(clash)    DE(int)     intcor
      8.70     -10.90       0.78        0.00      59.18       1.61       0.50       1.70       ----

> <Gold.Chemscore.Fitness>
8.6999

> <Gold.Chemscore.DG>
-10.9022

> <Gold.Chemscore.ZeroCoef>
-5.4800

> <Gold.Chemscore.Hbond>
0.7836

> <Gold.Chemscore.Metal>
0.0000

> <Gold.Chemscore.Lipo>
59.1774

> <Gold.Chemscore.Internal_Hbond>
0.0000

> <Gold.Chemscore.DEClash>
0.5031

> <Gold.Chemscore.DEInternal>
1.6992

> <Gold.Chemscore.Rot>
1.6088

> <Gold.Chemscore.Internal.Correction>
   9.000000E+99

> <Gold.Chemscore.Hbonds>
donor molecule, donor type, donor heavy atom, donor atom, acceptor molecule, acceptor atom, score
      P1  H  6933  6944       L1     3  0.23
      P1  H  6934  6946       L1     4  0.12

> <Gold.Chemscore.Hbond.Weighted>
-2.6171

> <Gold.Chemscore.Metal.Weighted>
-0.0000

> <Gold.Chemscore.Lipo.Weighted>
-6.9238

> <Gold.Chemscore.Internal_Hbond.Weighted>
0.0000

> <Gold.Chemscore.DEClash.Weighted>
0.5031

> <Gold.Chemscore.DEInternal.Weighted>
1.6992

> <Gold.Chemscore.Rot.Weighted>
4.1186

> <Gold.Chemscore.Internal.Correction.Weighted>
   9.000000E+99

> <Gold.Protein.RotatedTorsions>
[ 6907 6896 6895 6894 ] final   13.64 input  -60.11 | X-H torsion
[ 7974 7965 7964 7962 ] final  -97.49 input  175.53 | X-H torsion
[ 8008 7997 7996 7995 ] final  122.40 input   59.86 | X-H torsion
[ 10167 10162 10161 10158 ] final  -46.66 input  -65.29 | X-H torsion
[ 10718 10713 10712 10709 ] final   30.18 input   66.30 | X-H torsion
[ 10763 10752 10751 10750 ] final -127.15 input  -60.55 | X-H torsion
[ 11005 11000 10999 10996 ] final -102.47 input  -57.11 | X-H torsion

> <Gold.Protein.ActiveResidues>
 VAL166  LYS551  ARG553  GLY616  TRP617  ASP618  TYR619  PRO620  LYS621  CYS622 
 ASP623  PHE694  ASN695  SER759  ASP760  ASP761  ALA762  ILE779  LEU786  VAL792 
 PHE793  MET794  SER795  GLU796  ALA797  LYS798  CYS799  TRP800  GLU811  SER814 

> <Gold.Protein.RotatedAtoms>
  151.7895  135.0740  160.0384 H   0  0  0  0  0  0  0  0  0  0  0  0  # atno 6907 bound_to 6896
  152.3167  133.5805  159.5725 H   0  0  0  0  0  0  0  0  0  0  0  0  # atno 6908 bound_to 6896
  150.7348  133.9989  159.3673 H   0  0  0  0  0  0  0  0  0  0  0  0  # atno 6909 bound_to 6896
  145.3330  140.9445  143.2651 H   0  0  0  0  0  0  0  0  0  0  0  0  # atno 7974 bound_to 7965
  156.2726  140.2786  156.1462 H   0  0  0  0  0  0  0  0  0  0  0  0  # atno 8008 bound_to 7997
  155.0902  140.0388  157.2684 H   0  0  0  0  0  0  0  0  0  0  0  0  # atno 8009 bound_to 7997
  154.6896  140.2626  155.6832 H   0  0  0  0  0  0  0  0  0  0  0  0  # atno 8010 bound_to 7997
  140.6808  143.2820  151.3815 H   0  0  0  0  0  0  0  0  0  0  0  0  # atno 10167 bound_to 10162
  157.2562  130.7139  149.6430 H   0  0  0  0  0  0  0  0  0  0  0  0  # atno 10718 bound_to 10713
  154.8750  135.3971  154.3546 H   0  0  0  0  0  0  0  0  0  0  0  0  # atno 10763 bound_to 10752
  153.4327  135.7025  153.6225 H   0  0  0  0  0  0  0  0  0  0  0  0  # atno 10764 bound_to 10752
  153.4840  135.3763  155.2426 H   0  0  0  0  0  0  0  0  0  0  0  0  # atno 10765 bound_to 10752
  141.1187  133.8561  157.1364 H   0  0  0  0  0  0  0  0  0  0  0  0  # atno 11005 bound_to 11000
  144.8849  139.4853  143.6705 LP  0  0  0  0  0  0  0  0  0  0  0  0  # atno 17320 bound_to 7965
  146.3038  139.7512  142.9072 LP  0  0  0  0  0  0  0  0  0  0  0  0  # atno 17321 bound_to 7965
  139.6129  144.1062  152.2317 LP  0  0  0  0  0  0  0  0  0  0  0  0  # atno 17342 bound_to 10162
  140.0481  144.5954  150.7357 LP  0  0  0  0  0  0  0  0  0  0  0  0  # atno 17343 bound_to 10162
  155.9665  130.4412  150.5330 LP  0  0  0  0  0  0  0  0  0  0  0  0  # atno 17370 bound_to 10713
  157.3225  131.0684  151.1921 LP  0  0  0  0  0  0  0  0  0  0  0  0  # atno 17371 bound_to 10713
  140.0128  134.9980  157.0432 LP  0  0  0  0  0  0  0  0  0  0  0  0  # atno 17394 bound_to 11000
  140.4570  134.1524  155.7187 LP  0  0  0  0  0  0  0  0  0  0  0  0  # atno 17395 bound_to 11000

$$$$
