AV-unprocessed.smi:724|AV-procd|sdf|3507|dock2
  -GOLD-   22720 0503D 1   1.00000     0.00000
 Structure written by MMmdl.
 36 37  0  0  0  0  0  0  0  0  1 V2000
  145.5917  136.0089  162.5342 C   0  0  0  0  0  0  0  0  0  0  0  0
  146.6619  135.1158  161.8729 C   0  0  0  0  0  0  0  0  0  0  0  0
  147.5950  134.5537  162.9652 C   0  0  0  0  0  0  0  0  0  0  0  0
  145.9607  133.9371  161.1571 C   0  0  0  0  0  0  0  0  0  0  0  0
  147.4960  135.9881  160.9045 C   0  0  0  0  0  0  0  0  0  0  0  0
  148.0630  136.9952  161.3321 O   0  0  0  0  0  0  0  0  0  0  0  0
  147.5550  135.6279  159.6095 N   0  0  0  0  0  0  0  0  0  0  0  0
  148.2210  136.3779  158.5456 C   0  0  0  0  0  0  0  0  0  0  0  0
  148.7806  135.4637  157.4370 C   0  0  0  0  0  0  0  0  0  0  0  0
  149.6468  136.1745  156.4480 C   0  0  0  0  0  0  0  0  0  0  0  0
  149.9182  137.4763  156.4095 N   0  0  0  0  0  0  0  0  0  0  0  0
  150.6158  137.5607  155.2438 C   0  0  0  0  0  0  0  0  0  0  0  0
  151.1606  138.8493  154.7184 C   0  0  0  0  0  0  0  0  0  0  0  0
  152.2645  139.5745  155.4588 C   0  0  0  0  0  0  0  0  0  0  0  0
  150.8771  140.1539  155.4335 C   0  0  0  0  0  0  0  0  0  0  0  0
  150.8248  136.4156  154.6061 N   0  0  0  0  0  0  0  0  0  0  0  0
  150.1533  135.4772  155.4018 O   0  0  0  0  0  0  0  0  0  0  0  0
  144.9880  135.4419  163.2434 H   0  0  0  0  0  0  0  0  0  0  0  0
  144.9115  136.4307  161.7930 H   0  0  0  0  0  0  0  0  0  0  0  0
  146.0365  136.8409  163.0824 H   0  0  0  0  0  0  0  0  0  0  0  0
  148.0759  135.3481  163.5382 H   0  0  0  0  0  0  0  0  0  0  0  0
  148.3836  133.9334  162.5363 H   0  0  0  0  0  0  0  0  0  0  0  0
  147.0440  133.9350  163.6744 H   0  0  0  0  0  0  0  0  0  0  0  0
  145.3823  133.3400  161.8629 H   0  0  0  0  0  0  0  0  0  0  0  0
  146.6789  133.2658  160.6842 H   0  0  0  0  0  0  0  0  0  0  0  0
  145.2669  134.2830  160.3891 H   0  0  0  0  0  0  0  0  0  0  0  0
  147.0655  134.7883  159.3351 H   0  0  0  0  0  0  0  0  0  0  0  0
  147.5365  137.1077  158.1099 H   0  0  0  0  0  0  0  0  0  0  0  0
  149.0330  136.9549  158.9882 H   0  0  0  0  0  0  0  0  0  0  0  0
  149.3543  134.6506  157.8827 H   0  0  0  0  0  0  0  0  0  0  0  0
  147.9561  134.9974  156.8966 H   0  0  0  0  0  0  0  0  0  0  0  0
  151.1839  138.8537  153.6304 H   0  0  0  0  0  0  0  0  0  0  0  0
  152.6111  139.1471  156.3981 H   0  0  0  0  0  0  0  0  0  0  0  0
  153.0280  140.0684  154.8615 H   0  0  0  0  0  0  0  0  0  0  0  0
  150.7117  141.0368  154.8194 H   0  0  0  0  0  0  0  0  0  0  0  0
  150.3012  140.1125  156.3562 H   0  0  0  0  0  0  0  0  0  0  0  0
  1  2  1  0  0  0  0
  1 18  1  0  0  0  0
  1 19  1  0  0  0  0
  1 20  1  0  0  0  0
  2  3  1  0  0  0  0
  2  4  1  0  0  0  0
  2  5  1  0  0  0  0
  3 21  1  0  0  0  0
  3 22  1  0  0  0  0
  3 23  1  0  0  0  0
  4 24  1  0  0  0  0
  4 25  1  0  0  0  0
  4 26  1  0  0  0  0
  5  6  2  0  0  0  0
  5  7  1  0  0  0  0
  7  8  1  0  0  0  0
  7 27  1  0  0  0  0
  8  9  1  0  0  0  0
  8 28  1  0  0  0  0
  8 29  1  0  0  0  0
  9 10  1  0  0  0  0
  9 30  1  0  0  0  0
  9 31  1  0  0  0  0
 10 17  1  0  0  0  0
 10 11  2  0  0  0  0
 11 12  1  0  0  0  0
 12 13  1  0  0  0  0
 12 16  2  0  0  0  0
 13 15  1  0  0  0  0
 13 14  1  0  0  0  0
 13 32  1  0  0  0  0
 14 15  1  0  0  0  0
 14 33  1  0  0  0  0
 14 34  1  0  0  0  0
 15 35  1  0  0  0  0
 15 36  1  0  0  0  0
 16 17  1  0  0  0  0
M  END
> <s_m_source_file>
AV-unprocessed.smi

> <i_m_source_file_index>
724

> <i_lp_mmshare_version>
43012

> <i_f3d_flags>
0

> <s_epik_input>
W0NIM11DKFtDSDNdKShbQ0gzXSlDKD1PKVtOSF1bQ0gyXVtDSDJdYzFuYyhubzEpW0NIXTJbQ0gyXVtDSDJdMg==

> <s_epik_cmdline>
J2VwaWtfcHl0aG9uJywgJy1waCcsICc3LjAnLCAnLXRuJywgJzgnLCAnLW1hJywgJzIwMCcsICctbWV0YWxfYmluZGluZycsICctaW1hZScsICc8aW5maWxlLm1hZT4nLCAnLW9tYWUnLCAnPG91dGZpbGUubWFlPic=

> <r_lp_tautomer_probability>
1

> <r_epik_Ionization_Penalty>
2.89377e-08

> <r_epik_Ionization_Penalty_Charging>
0

> <r_epik_Ionization_Penalty_Neutral>
2.89377e-08

> <r_epik_State_Penalty>
-0

> <r_epik_Charging_Adjusted_Penalty>
0

> <i_epik_Tot_Q>
0

> <i_epik_Tot_abs_Q>
0

> <r_epik_Metal_State_Penalty>
-0

> <b_epik_Metal_Only>
0

> <s_lp_Force_Field>
OPLS_2005

> <r_lp_Energy>
6.75537

> <b_lp_Chiralities_Consistent>
1

> <s_lp_Variant>
AV-unprocessed.smi:724-1

> <Gold.Version>
5.8.1

> <Gold.Id.Protein>
6NUR|6NUR_protein|mol2

> <Gold.PLP.Fitness>
35.2415

> <Gold.PLP.PLP>
-27.1846

> <Gold.PLP.part.hbond>
-3.0000

> <Gold.PLP.part.metal>
0.0000

> <Gold.PLP.part.buried>
-1.8987

> <Gold.PLP.part.nonpolar>
-21.6538

> <Gold.PLP.part.repulsive>
0.2640

> <Gold.PLP.ligand.clash>
0.0000

> <Gold.PLP.ligand.torsion>
0.2976

> <Gold.PLP.Chemscore.Hbond>
2.8240

> <Gold.PLP.Chemscore.CHOScore>
0.0000

> <Gold.PLP.Chemscore.Metal>
0.0000

> <Gold.Chemscore.Hbonds>
donor molecule, donor type, donor heavy atom, donor atom, acceptor molecule, acceptor atom, score
      P1  H  6931  6943       L1     6  1.00
      P1  H  6934  6947       L1     6  0.32
      P1  H 10752 10764       L1    16  0.46

> <Gold.PLP.Chemscore.Internal.Correction>
0.1801

> <Gold.Rescore>
     Score         DG    S(hbond)    S(metal)    S(lipo)     H(rot)  DE(clash)    DE(int)     intcor
     15.70     -16.12       2.70        0.00      55.63       1.91       0.02       0.39       ----

> <Gold.Chemscore.Fitness>
15.7044

> <Gold.Chemscore.DG>
-16.1164

> <Gold.Chemscore.ZeroCoef>
-5.4800

> <Gold.Chemscore.Hbond>
2.7021

> <Gold.Chemscore.Metal>
0.0000

> <Gold.Chemscore.Lipo>
55.6260

> <Gold.Chemscore.Internal_Hbond>
0.0000

> <Gold.Chemscore.DEClash>
0.0243

> <Gold.Chemscore.DEInternal>
0.3877

> <Gold.Chemscore.Rot>
1.9129

> <Gold.Chemscore.Internal.Correction>
   9.000000E+99

> <Gold.Chemscore.Hbonds>
donor molecule, donor type, donor heavy atom, donor atom, acceptor molecule, acceptor atom, score
      P1  H  6931  6943       L1     6  0.99
      P1  H  6934  6947       L1     6  0.33
      P1  H 10752 10764       L1    16  0.25

> <Gold.Chemscore.Hbond.Weighted>
-9.0251

> <Gold.Chemscore.Metal.Weighted>
-0.0000

> <Gold.Chemscore.Lipo.Weighted>
-6.5082

> <Gold.Chemscore.Internal_Hbond.Weighted>
0.0000

> <Gold.Chemscore.DEClash.Weighted>
0.0243

> <Gold.Chemscore.DEInternal.Weighted>
0.3877

> <Gold.Chemscore.Rot.Weighted>
4.8970

> <Gold.Chemscore.Internal.Correction.Weighted>
   9.000000E+99

> <Gold.Protein.RotatedTorsions>
[ 6907 6896 6895 6894 ] final   34.53 input  -60.11 | X-H torsion
[ 7974 7965 7964 7962 ] final   32.46 input  175.53 | X-H torsion
[ 8008 7997 7996 7995 ] final -132.42 input   59.86 | X-H torsion
[ 10167 10162 10161 10158 ] final  -53.58 input  -65.29 | X-H torsion
[ 10718 10713 10712 10709 ] final  -34.85 input   66.30 | X-H torsion
[ 10763 10752 10751 10750 ] final  -72.18 input  -60.55 | X-H torsion
[ 11005 11000 10999 10996 ] final  -30.55 input  -57.11 | X-H torsion

> <Gold.Protein.ActiveResidues>
 VAL166  LYS551  ARG553  GLY616  TRP617  ASP618  TYR619  PRO620  LYS621  CYS622 
 ASP623  PHE694  ASN695  SER759  ASP760  ASP761  ALA762  ILE779  LEU786  VAL792 
 PHE793  MET794  SER795  GLU796  ALA797  LYS798  CYS799  TRP800  GLU811  SER814 

> <Gold.Protein.RotatedAtoms>
  152.1037  134.9323  160.0568 H   0  0  0  0  0  0  0  0  0  0  0  0  # atno 6907 bound_to 6896
  152.0528  133.4022  159.4392 H   0  0  0  0  0  0  0  0  0  0  0  0  # atno 6908 bound_to 6896
  150.6840  134.3209  159.4830 H   0  0  0  0  0  0  0  0  0  0  0  0  # atno 6909 bound_to 6896
  146.1485  139.6523  142.9115 H   0  0  0  0  0  0  0  0  0  0  0  0  # atno 7974 bound_to 7965
  155.3286  140.0466  157.3042 H   0  0  0  0  0  0  0  0  0  0  0  0  # atno 8008 bound_to 7997
  154.5340  140.2266  155.8720 H   0  0  0  0  0  0  0  0  0  0  0  0  # atno 8009 bound_to 7997
  156.1817  140.3072  155.9167 H   0  0  0  0  0  0  0  0  0  0  0  0  # atno 8010 bound_to 7997
  140.6477  143.2545  151.4813 H   0  0  0  0  0  0  0  0  0  0  0  0  # atno 10167 bound_to 10162
  156.3457  130.4300  149.7748 H   0  0  0  0  0  0  0  0  0  0  0  0  # atno 10718 bound_to 10713
  154.4422  135.5938  153.6136 H   0  0  0  0  0  0  0  0  0  0  0  0  # atno 10763 bound_to 10752
  152.9806  135.6000  154.3709 H   0  0  0  0  0  0  0  0  0  0  0  0  # atno 10764 bound_to 10752
  154.3560  135.2841  155.2325 H   0  0  0  0  0  0  0  0  0  0  0  0  # atno 10765 bound_to 10752
  140.9392  133.7289  156.1050 H   0  0  0  0  0  0  0  0  0  0  0  0  # atno 11005 bound_to 11000
  145.4880  141.0438  143.2609 LP  0  0  0  0  0  0  0  0  0  0  0  0  # atno 17320 bound_to 7965
  144.7875  139.6397  143.7128 LP  0  0  0  0  0  0  0  0  0  0  0  0  # atno 17321 bound_to 7965
  139.5689  144.1976  152.1806 LP  0  0  0  0  0  0  0  0  0  0  0  0  # atno 17342 bound_to 10162
  140.1266  144.5326  150.6829 LP  0  0  0  0  0  0  0  0  0  0  0  0  # atno 17343 bound_to 10162
  156.4968  130.8110  151.3116 LP  0  0  0  0  0  0  0  0  0  0  0  0  # atno 17370 bound_to 10713
  157.7454  130.9958  150.2755 LP  0  0  0  0  0  0  0  0  0  0  0  0  # atno 17371 bound_to 10713
  140.7757  134.3782  157.5498 LP  0  0  0  0  0  0  0  0  0  0  0  0  # atno 17394 bound_to 11000
  139.8816  134.9050  156.2890 LP  0  0  0  0  0  0  0  0  0  0  0  0  # atno 17395 bound_to 11000

$$$$
