AV-unprocessed.smi:160|AV-procd|sdf|1369|dock8
  -GOLD-   2262019 83D 1   1.00000     0.00000
 Structure written by MMmdl.
 28 29  0  0  0  0  0  0  0  0  2 V2000
  152.3771  137.5925  154.5606 N   0  5  0  0  0  0  0  0  0  0  0  0
  152.9039  138.5657  155.3353 C   0  0  0  0  0  0  0  0  0  0  0  0
  154.0799  138.6599  155.6856 O   0  0  0  0  0  0  0  0  0  0  0  0
  151.9141  139.6145  155.7844 C   0  0  0  0  0  0  0  0  0  0  0  0
  152.2746  140.5671  156.6974 N   0  0  0  0  0  0  0  0  0  0  0  0
  151.1307  141.2339  156.7714 C   0  0  0  0  0  0  0  0  0  0  0  0
  150.1630  140.7534  155.9855 N   0  0  0  0  0  0  0  0  0  0  0  0
  148.7531  141.2333  155.8035 C   0  0  2  0  0  0  0  0  0  0  0  0
  147.8841  140.1986  156.1550 O   0  0  0  0  0  0  0  0  0  0  0  0
  147.3694  139.5824  154.9795 C   0  0  1  0  0  0  0  0  0  0  0  0
  146.0786  138.7995  155.2790 C   0  0  0  0  0  0  0  0  0  0  0  0
  145.4479  138.4193  154.0749 O   0  0  0  0  0  0  0  0  0  0  0  0
  147.2152  140.7717  154.0202 C   0  0  1  0  0  0  0  0  0  0  0  0
  146.0119  141.4760  154.2722 O   0  0  0  0  0  0  0  0  0  0  0  0
  148.4191  141.6489  154.3491 C   0  0  2  0  0  0  0  0  0  0  0  0
  149.4600  141.4209  153.4151 O   0  0  0  0  0  0  0  0  0  0  0  0
  150.6591  139.6753  155.3282 N   0  0  0  0  0  0  0  0  0  0  0  0
  148.6543  142.0528  156.5161 H   0  0  0  0  0  0  0  0  0  0  0  0
  148.1230  138.9092  154.5671 H   0  0  0  0  0  0  0  0  0  0  0  0
  147.2016  140.4492  152.9779 H   0  0  0  0  0  0  0  0  0  0  0  0
  148.1707  142.7108  154.3254 H   0  0  0  0  0  0  0  0  0  0  0  0
  151.4068  137.6951  154.2400 H   0  0  0  0  0  0  0  0  0  0  0  0
  150.9962  142.0943  157.4102 H   0  0  0  0  0  0  0  0  0  0  0  0
  146.2787  137.9208  155.8930 H   0  0  0  0  0  0  0  0  0  0  0  0
  145.3771  139.4286  155.8277 H   0  0  0  0  0  0  0  0  0  0  0  0
  145.2225  139.1998  153.5925 H   0  0  0  0  0  0  0  0  0  0  0  0
  145.3607  141.1867  153.6517 H   0  0  0  0  0  0  0  0  0  0  0  0
  149.3364  140.5684  153.0270 H   0  0  0  0  0  0  0  0  0  0  0  0
  1  2  1  0  0  0  0
  1 22  1  0  0  0  0
  2  3  2  0  0  0  0
  2  4  1  0  0  0  0
  4 17  2  0  0  0  0
  4  5  1  0  0  0  0
  5  6  2  0  0  0  0
  6  7  1  0  0  0  0
  6 23  1  0  0  0  0
  7  8  1  0  0  0  0
  7 17  1  0  0  0  0
  8 18  1  0  0  0  0
  8 15  1  0  0  0  0
  8  9  1  0  0  0  0
  9 10  1  0  0  0  0
 10 19  1  0  0  0  0
 10 11  1  0  0  0  0
 10 13  1  0  0  0  0
 11 12  1  0  0  0  0
 11 24  1  0  0  0  0
 11 25  1  0  0  0  0
 12 26  1  0  0  0  0
 13 20  1  0  0  0  0
 13 14  1  0  0  0  0
 13 15  1  0  0  0  0
 14 27  1  0  0  0  0
 15 21  1  0  0  0  0
 15 16  1  0  0  0  0
 16 28  1  0  0  0  0
M  CHG  1   1  -1
M  END
> <s_m_source_file>
AV-unprocessed.smi

> <i_m_source_file_index>
160

> <i_lp_mmshare_version>
43012

> <i_f3d_flags>
0

> <s_epik_input>
W05IMl1DKD1PKWMxbltjSF1uKG4xKVtDQEBIXTJPW0NASF0oW0NIMl1bT0hdKVtDQEBIXShbT0hdKVtDQEhdMltPSF0=

> <s_epik_cmdline>
J2VwaWtfcHl0aG9uJywgJy1waCcsICc3LjAnLCAnLXRuJywgJzgnLCAnLW1hJywgJzIwMCcsICctbWV0YWxfYmluZGluZycsICctaW1hZScsICc8aW5maWxlLm1hZT4nLCAnLW9tYWUnLCAnPG91dGZpbGUubWFlPic=

> <r_lp_tautomer_probability>
1

> <r_epik_Ionization_Penalty>
6.6993

> <r_epik_Ionization_Penalty_Charging>
6.6993

> <r_epik_Ionization_Penalty_Neutral>
6.01698e-06

> <r_epik_State_Penalty>
6.69929

> <r_epik_Charging_Adjusted_Penalty>
13.3986

> <i_epik_Tot_Q>
-1

> <i_epik_Tot_abs_Q>
1

> <r_epik_Metal_State_Penalty>
2.62798

> <b_epik_Metal_Only>
1

> <s_epik_Chemistry_Notes>
This compound contains an acetal/aminal-like group ( X-CH(R)-Y where X, Y are N, S, or O) that may be acid/base labile, releasing an aldehyde.

> <s_lp_Force_Field>
OPLS_2005

> <r_lp_Energy>
46.3304

> <b_lp_Chiralities_Consistent>
1

> <s_lp_Variant>
AV-unprocessed.smi:160-27

> <Gold.Version>
5.8.1

> <Gold.Id.Protein>
6NUR|6NUR_protein|mol2

> <Gold.PLP.Fitness>
46.9081

> <Gold.PLP.PLP>
-28.5496

> <Gold.PLP.part.hbond>
-9.1206

> <Gold.PLP.part.metal>
0.0000

> <Gold.PLP.part.buried>
-2.9897

> <Gold.PLP.part.nonpolar>
-16.8052

> <Gold.PLP.part.repulsive>
0.0828

> <Gold.PLP.ligand.clash>
0.0000

> <Gold.PLP.ligand.torsion>
0.0764

> <Gold.PLP.Chemscore.Hbond>
6.1683

> <Gold.PLP.Chemscore.CHOScore>
0.0000

> <Gold.PLP.Chemscore.Metal>
0.0000

> <Gold.Chemscore.Hbonds>
donor molecule, donor type, donor heavy atom, donor atom, acceptor molecule, acceptor atom, score
      L1  H    12    26       P1 10175  0.35
      L1  H    14    27       P1 10175  0.68
      L1  H    16    28       P1  7957  0.54
      P1  H  7989  7998       L1    17  0.02
      P1  H  7997  8010       L1     3  0.48
      P1  H  8011  8017       L1    16  0.89
      P1  H 10752 10765       L1     1  1.12

> <Gold.PLP.Chemscore.Internal.Correction>
0.0065

> <Gold.Rescore>
     Score         DG    S(hbond)    S(metal)    S(lipo)     H(rot)  DE(clash)    DE(int)     intcor
     10.20     -11.77       4.38        0.00      17.07       4.04       0.12       1.45       ----

> <Gold.Chemscore.Fitness>
10.2031

> <Gold.Chemscore.DG>
-11.7738

> <Gold.Chemscore.ZeroCoef>
-5.4800

> <Gold.Chemscore.Hbond>
4.3831

> <Gold.Chemscore.Metal>
0.0000

> <Gold.Chemscore.Lipo>
17.0701

> <Gold.Chemscore.Internal_Hbond>
0.0000

> <Gold.Chemscore.DEClash>
0.1195

> <Gold.Chemscore.DEInternal>
1.4511

> <Gold.Chemscore.Rot>
4.0403

> <Gold.Chemscore.Internal.Correction>
   9.000000E+99

> <Gold.Chemscore.Hbonds>
donor molecule, donor type, donor heavy atom, donor atom, acceptor molecule, acceptor atom, score
      L1  H    12    26       P1 10175  0.33
      L1  H    14    27       P1 10175  0.34
      L1  H    16    28       P1  7957  0.53
      P1  H  7997  8010       L1     3  0.37
      P1  H  8011  8017       L1    16  0.57
      P1  H 10752 10765       L1     1  0.37

> <Gold.Chemscore.Hbond.Weighted>
-14.6396

> <Gold.Chemscore.Metal.Weighted>
-0.0000

> <Gold.Chemscore.Lipo.Weighted>
-1.9972

> <Gold.Chemscore.Internal_Hbond.Weighted>
0.0000

> <Gold.Chemscore.DEClash.Weighted>
0.1195

> <Gold.Chemscore.DEInternal.Weighted>
1.4511

> <Gold.Chemscore.Rot.Weighted>
10.3431

> <Gold.Chemscore.Internal.Correction.Weighted>
   9.000000E+99

> <Gold.Protein.RotatedTorsions>
[ 6907 6896 6895 6894 ] final   50.04 input  -60.11 | X-H torsion
[ 7974 7965 7964 7962 ] final  -22.06 input  175.53 | X-H torsion
[ 8008 7997 7996 7995 ] final   78.97 input   59.86 | X-H torsion
[ 10167 10162 10161 10158 ] final   -6.00 input  -65.29 | X-H torsion
[ 10718 10713 10712 10709 ] final   53.41 input   66.30 | X-H torsion
[ 10763 10752 10751 10750 ] final  143.89 input  -60.55 | X-H torsion
[ 11005 11000 10999 10996 ] final  -13.30 input  -57.11 | X-H torsion

> <Gold.Protein.ActiveResidues>
 VAL166  LYS551  ARG553  GLY616  TRP617  ASP618  TYR619  PRO620  LYS621  CYS622 
 ASP623  PHE694  ASN695  SER759  ASP760  ASP761  ALA762  ILE779  LEU786  VAL792 
 PHE793  MET794  SER795  GLU796  ALA797  LYS798  CYS799  TRP800  GLU811  SER814 

> <Gold.Protein.RotatedAtoms>
  152.2974  134.7651  160.0364 H   0  0  0  0  0  0  0  0  0  0  0  0  # atno 6907 bound_to 6896
  151.8176  133.3385  159.3582 H   0  0  0  0  0  0  0  0  0  0  0  0  # atno 6908 bound_to 6896
  150.7258  134.5534  159.5850 H   0  0  0  0  0  0  0  0  0  0  0  0  # atno 6909 bound_to 6896
  146.1697  140.4427  142.8537 H   0  0  0  0  0  0  0  0  0  0  0  0  # atno 7974 bound_to 7965
  155.8632  140.3452  155.5770 H   0  0  0  0  0  0  0  0  0  0  0  0  # atno 8008 bound_to 7997
  155.7910  140.0871  157.2028 H   0  0  0  0  0  0  0  0  0  0  0  0  # atno 8009 bound_to 7997
  154.4013  140.1483  156.3150 H   0  0  0  0  0  0  0  0  0  0  0  0  # atno 8010 bound_to 7997
  140.6982  143.6244  150.8582 H   0  0  0  0  0  0  0  0  0  0  0  0  # atno 10167 bound_to 10162
  157.5165  130.8535  149.8502 H   0  0  0  0  0  0  0  0  0  0  0  0  # atno 10718 bound_to 10713
  153.9799  135.2942  155.3421 H   0  0  0  0  0  0  0  0  0  0  0  0  # atno 10763 bound_to 10752
  154.7275  135.5082  153.8913 H   0  0  0  0  0  0  0  0  0  0  0  0  # atno 10764 bound_to 10752
  153.0859  135.6693  154.0064 H   0  0  0  0  0  0  0  0  0  0  0  0  # atno 10765 bound_to 10752
  140.7747  133.8410  155.9238 H   0  0  0  0  0  0  0  0  0  0  0  0  # atno 11005 bound_to 11000
  144.8145  140.6444  143.6393 LP  0  0  0  0  0  0  0  0  0  0  0  0  # atno 17320 bound_to 7965
  145.4372  139.1540  143.3990 LP  0  0  0  0  0  0  0  0  0  0  0  0  # atno 17321 bound_to 7965
  139.9964  143.5791  152.2891 LP  0  0  0  0  0  0  0  0  0  0  0  0  # atno 17342 bound_to 10162
  139.6465  144.7658  151.2233 LP  0  0  0  0  0  0  0  0  0  0  0  0  # atno 17343 bound_to 10162
  156.0323  130.3761  150.1653 LP  0  0  0  0  0  0  0  0  0  0  0  0  # atno 17370 bound_to 10713
  156.9841  130.9873  151.3430 LP  0  0  0  0  0  0  0  0  0  0  0  0  # atno 17371 bound_to 10713
  140.9540  134.1742  157.4706 LP  0  0  0  0  0  0  0  0  0  0  0  0  # atno 17394 bound_to 11000
  139.8751  134.9920  156.5575 LP  0  0  0  0  0  0  0  0  0  0  0  0  # atno 17395 bound_to 11000

$$$$
