AV-unprocessed.smi:1066|AV-procd|sdf|4668|dock6
  -GOLD-   22720 3183D 1   1.00000     0.00000
 Structure written by MMmdl.
 38 40  0  0  0  0  0  0  0  0  2 V2000
  149.6337  134.6093  155.5084 C   0  0  0  0  0  0  0  0  0  0  0  0
  149.8928  133.2890  156.1753 C   0  0  0  0  0  0  0  0  0  0  0  0
  150.1937  133.2574  157.4669 N   0  0  0  0  0  0  0  0  0  0  0  0
  150.3788  131.9098  157.7961 O   0  0  0  0  0  0  0  0  0  0  0  0
  150.1732  131.1945  156.6666 C   0  0  0  0  0  0  0  0  0  0  0  0
  150.3152  129.4814  156.6238 Cl  0  0  0  0  0  0  0  0  0  0  0  0
  149.8627  131.9858  155.5980 C   0  0  0  0  0  0  0  0  0  0  0  0
  149.5667  131.6017  154.1705 C   0  0  0  0  0  0  0  0  0  0  0  0
  148.1251  131.9748  153.8256 C   0  0  0  0  0  0  0  0  0  0  0  0
  147.3072  132.1750  154.7230 O   0  0  0  0  0  0  0  0  0  0  0  0
  147.8279  132.0706  152.5208 N   0  0  0  0  0  0  0  0  0  0  0  0
  146.5244  132.4464  151.9884 C   0  0  2  0  0  0  0  0  0  0  0  0
  145.9908  131.5166  150.9037 C   0  0  0  0  0  0  0  0  0  0  0  0
  144.9618  132.3971  150.1837 C   0  0  0  0  0  0  0  0  0  0  0  0
  145.3911  133.8056  150.3762 N   0  3  1  0  0  0  0  0  0  0  0  0
  144.3078  134.6925  150.8541 C   0  0  0  0  0  0  0  0  0  0  0  0
  144.7983  135.8494  151.6913 C   0  0  0  0  0  0  0  0  0  0  0  0
  144.1237  134.6669  152.3526 C   0  0  0  0  0  0  0  0  0  0  0  0
  146.5737  133.7903  151.2645 C   0  0  0  0  0  0  0  0  0  0  0  0
  150.0310  134.6207  154.4933 H   0  0  0  0  0  0  0  0  0  0  0  0
  150.0983  135.4330  156.0515 H   0  0  0  0  0  0  0  0  0  0  0  0
  148.5643  134.8112  155.4484 H   0  0  0  0  0  0  0  0  0  0  0  0
  150.2415  132.0984  153.4723 H   0  0  0  0  0  0  0  0  0  0  0  0
  149.7055  130.5315  154.0128 H   0  0  0  0  0  0  0  0  0  0  0  0
  148.5634  131.8870  151.8533 H   0  0  0  0  0  0  0  0  0  0  0  0
  145.7974  132.5123  152.8010 H   0  0  0  0  0  0  0  0  0  0  0  0
  146.7905  131.2390  150.2149 H   0  0  0  0  0  0  0  0  0  0  0  0
  145.5565  130.5998  151.3037 H   0  0  0  0  0  0  0  0  0  0  0  0
  144.8883  132.1533  149.1235 H   0  0  0  0  0  0  0  0  0  0  0  0
  143.9760  132.2390  150.6241 H   0  0  0  0  0  0  0  0  0  0  0  0
  143.4492  134.8091  150.1948 H   0  0  0  0  0  0  0  0  0  0  0  0
  145.8709  135.9623  151.8383 H   0  0  0  0  0  0  0  0  0  0  0  0
  144.2359  136.7795  151.6399 H   0  0  0  0  0  0  0  0  0  0  0  0
  143.1180  134.8200  152.7386 H   0  0  0  0  0  0  0  0  0  0  0  0
  144.7480  133.9924  152.9361 H   0  0  0  0  0  0  0  0  0  0  0  0
  146.5987  134.6353  151.9546 H   0  0  0  0  0  0  0  0  0  0  0  0
  147.4645  133.8521  150.6374 H   0  0  0  0  0  0  0  0  0  0  0  0
  145.6952  134.1634  149.4819 H   0  0  0  0  0  0  0  0  0  0  0  0
  1  2  1  0  0  0  0
  1 20  1  0  0  0  0
  1 21  1  0  0  0  0
  1 22  1  0  0  0  0
  2  7  1  0  0  0  0
  2  3  2  0  0  0  0
  3  4  1  0  0  0  0
  4  5  1  0  0  0  0
  5  6  1  0  0  0  0
  5  7  2  0  0  0  0
  7  8  1  0  0  0  0
  8  9  1  0  0  0  0
  8 23  1  0  0  0  0
  8 24  1  0  0  0  0
  9 10  2  0  0  0  0
  9 11  1  0  0  0  0
 11 12  1  0  0  0  0
 11 25  1  0  0  0  0
 12 19  1  0  0  0  0
 12 13  1  0  0  0  0
 12 26  1  0  0  0  0
 13 14  1  0  0  0  0
 13 27  1  0  0  0  0
 13 28  1  0  0  0  0
 14 15  1  0  0  0  0
 14 29  1  0  0  0  0
 14 30  1  0  0  0  0
 15 16  1  0  0  0  0
 15 19  1  0  0  0  0
 15 38  1  0  0  0  0
 16 18  1  0  0  0  0
 16 17  1  0  0  0  0
 16 31  1  0  0  0  0
 17 18  1  0  0  0  0
 17 32  1  0  0  0  0
 17 33  1  0  0  0  0
 18 34  1  0  0  0  0
 18 35  1  0  0  0  0
 19 36  1  0  0  0  0
 19 37  1  0  0  0  0
M  CHG  1  15   1
M  END
> <s_m_source_file>
AV-unprocessed.smi

> <i_m_source_file_index>
1066

> <i_lp_mmshare_version>
43012

> <i_f3d_flags>
0

> <s_epik_input>
W0NIM11jMW5vYyhDbCljMVtDSDJdQyg9TylbTkhdW0NAQEhdMltDSDJdW0NIMl1OKFtDSDJdMilbQ0hdM1tDSDJdW0NIMl0z

> <s_epik_cmdline>
J2VwaWtfcHl0aG9uJywgJy1waCcsICc3LjAnLCAnLXRuJywgJzgnLCAnLW1hJywgJzIwMCcsICctbWV0YWxfYmluZGluZycsICctaW1hZScsICc8aW5maWxlLm1hZT4nLCAnLW9tYWUnLCAnPG91dGZpbGUubWFlPic=

> <r_epik_Ionization_Penalty>
0.00108138

> <r_epik_Ionization_Penalty_Charging>
0.00108128

> <r_epik_Ionization_Penalty_Neutral>
9.66632e-08

> <r_epik_State_Penalty>
0.000708577

> <r_epik_Charging_Adjusted_Penalty>
0.00178986

> <i_epik_Tot_Q>
1

> <i_epik_Tot_abs_Q>
1

> <r_epik_Metal_State_Penalty>
-0

> <b_epik_Metal_Only>
0

> <s_lp_Force_Field>
OPLS_2005

> <r_lp_Energy>
31.6954

> <b_lp_Chiralities_Consistent>
1

> <s_lp_Variant>
AV-unprocessed.smi:1066-1

> <Gold.Version>
5.8.1

> <Gold.Id.Protein>
6NUR|6NUR_protein|mol2

> <Gold.PLP.Fitness>
42.4052

> <Gold.PLP.PLP>
-34.1050

> <Gold.PLP.part.hbond>
-3.6882

> <Gold.PLP.part.metal>
0.0000

> <Gold.PLP.part.buried>
-5.0312

> <Gold.PLP.part.nonpolar>
-25.8169

> <Gold.PLP.part.repulsive>
0.1036

> <Gold.PLP.ligand.clash>
0.0000

> <Gold.PLP.ligand.torsion>
0.9861

> <Gold.PLP.Chemscore.Hbond>
3.0000

> <Gold.PLP.Chemscore.CHOScore>
0.0000

> <Gold.PLP.Chemscore.Metal>
0.0000

> <Gold.Chemscore.Hbonds>
donor molecule, donor type, donor heavy atom, donor atom, acceptor molecule, acceptor atom, score
      L1  H    11    25       P1 10747  0.88
      L1  H    15    38       P1  7921  1.00

> <Gold.PLP.Chemscore.Internal.Correction>
1.2725

> <Gold.Rescore>
     Score         DG    S(hbond)    S(metal)    S(lipo)     H(rot)  DE(clash)    DE(int)     intcor
     17.09     -19.11       2.60        0.00      76.66       1.57       0.61       1.41       ----

> <Gold.Chemscore.Fitness>
17.0927

> <Gold.Chemscore.DG>
-19.1112

> <Gold.Chemscore.ZeroCoef>
-5.4800

> <Gold.Chemscore.Hbond>
2.6002

> <Gold.Chemscore.Metal>
0.0000

> <Gold.Chemscore.Lipo>
76.6562

> <Gold.Chemscore.Internal_Hbond>
0.0000

> <Gold.Chemscore.DEClash>
0.6063

> <Gold.Chemscore.DEInternal>
1.4122

> <Gold.Chemscore.Rot>
1.5711

> <Gold.Chemscore.Internal.Correction>
   9.000000E+99

> <Gold.Chemscore.Hbonds>
donor molecule, donor type, donor heavy atom, donor atom, acceptor molecule, acceptor atom, score
      L1  H    11    25       P1 10747  0.86
      L1  H    15    38       P1  7921  0.63

> <Gold.Chemscore.Hbond.Weighted>
-8.6845

> <Gold.Chemscore.Metal.Weighted>
-0.0000

> <Gold.Chemscore.Lipo.Weighted>
-8.9688

> <Gold.Chemscore.Internal_Hbond.Weighted>
0.0000

> <Gold.Chemscore.DEClash.Weighted>
0.6063

> <Gold.Chemscore.DEInternal.Weighted>
1.4122

> <Gold.Chemscore.Rot.Weighted>
4.0221

> <Gold.Chemscore.Internal.Correction.Weighted>
   9.000000E+99

> <Gold.Protein.RotatedTorsions>
[ 6907 6896 6895 6894 ] final  -40.13 input  -60.11 | X-H torsion
[ 7974 7965 7964 7962 ] final   47.73 input  175.53 | X-H torsion
[ 8008 7997 7996 7995 ] final -135.19 input   59.86 | X-H torsion
[ 10167 10162 10161 10158 ] final   98.53 input  -65.29 | X-H torsion
[ 10718 10713 10712 10709 ] final  174.60 input   66.30 | X-H torsion
[ 10763 10752 10751 10750 ] final -135.44 input  -60.55 | X-H torsion
[ 11005 11000 10999 10996 ] final  -34.45 input  -57.11 | X-H torsion

> <Gold.Protein.ActiveResidues>
 VAL166  LYS551  ARG553  GLY616  TRP617  ASP618  TYR619  PRO620  LYS621  CYS622 
 ASP623  PHE694  ASN695  SER759  ASP760  ASP761  ALA762  ILE779  LEU786  VAL792 
 PHE793  MET794  SER795  GLU796  ALA797  LYS798  CYS799  TRP800  GLU811  SER814 

> <Gold.Protein.RotatedAtoms>
  150.9821  134.9174  159.7850 H   0  0  0  0  0  0  0  0  0  0  0  0  # atno 6907 bound_to 6896
  152.5225  134.3396  159.9222 H   0  0  0  0  0  0  0  0  0  0  0  0  # atno 6908 bound_to 6896
  151.3403  133.3924  159.2705 H   0  0  0  0  0  0  0  0  0  0  0  0  # atno 6909 bound_to 6896
  146.0271  139.4719  142.9861 H   0  0  0  0  0  0  0  0  0  0  0  0  # atno 7974 bound_to 7965
  155.3745  140.0490  157.3045 H   0  0  0  0  0  0  0  0  0  0  0  0  # atno 8008 bound_to 7997
  154.5113  140.2192  155.9113 H   0  0  0  0  0  0  0  0  0  0  0  0  # atno 8009 bound_to 7997
  156.1586  140.3121  155.8774 H   0  0  0  0  0  0  0  0  0  0  0  0  # atno 8010 bound_to 7997
  139.7700  144.6925  151.0169 H   0  0  0  0  0  0  0  0  0  0  0  0  # atno 10167 bound_to 10162
  156.9471  131.0019  151.2956 H   0  0  0  0  0  0  0  0  0  0  0  0  # atno 10718 bound_to 10713
  154.8703  135.3703  154.4898 H   0  0  0  0  0  0  0  0  0  0  0  0  # atno 10763 bound_to 10752
  153.5546  135.7024  153.5580 H   0  0  0  0  0  0  0  0  0  0  0  0  # atno 10764 bound_to 10752
  153.3684  135.4028  155.1734 H   0  0  0  0  0  0  0  0  0  0  0  0  # atno 10765 bound_to 10752
  140.9717  133.7106  156.1534 H   0  0  0  0  0  0  0  0  0  0  0  0  # atno 11005 bound_to 11000
  145.7101  141.0109  143.1458 LP  0  0  0  0  0  0  0  0  0  0  0  0  # atno 17320 bound_to 7965
  144.7014  139.8746  143.7443 LP  0  0  0  0  0  0  0  0  0  0  0  0  # atno 17321 bound_to 7965
  140.7813  143.4599  151.0292 LP  0  0  0  0  0  0  0  0  0  0  0  0  # atno 17342 bound_to 10162
  139.8283  143.7725  152.3179 LP  0  0  0  0  0  0  0  0  0  0  0  0  # atno 17343 bound_to 10162
  157.5746  130.8334  149.8438 LP  0  0  0  0  0  0  0  0  0  0  0  0  # atno 17370 bound_to 10713
  156.0379  130.3746  150.1513 LP  0  0  0  0  0  0  0  0  0  0  0  0  # atno 17371 bound_to 10713
  140.7319  134.4245  157.5565 LP  0  0  0  0  0  0  0  0  0  0  0  0  # atno 17394 bound_to 11000
  139.8915  134.8779  156.2318 LP  0  0  0  0  0  0  0  0  0  0  0  0  # atno 17395 bound_to 11000

$$$$
