AV-unprocessed.smi:1686|AV-procd|sdf|6762|dock6
  -GOLD-   22720 7523D 1   1.00000     0.00000
 Structure written by MMmdl.
 41 43  0  0  0  0  0  0  0  0  1 V2000
  145.6874  143.1489  154.1852 C   0  0  0  0  0  0  0  0  0  0  0  0
  146.0899  142.1313  155.2138 C   0  0  0  0  0  0  0  0  0  0  0  0
  145.2694  141.8664  156.2218 N   0  0  0  0  0  0  0  0  0  0  0  0
  145.9012  140.8879  156.9977 O   0  0  0  0  0  0  0  0  0  0  0  0
  147.0858  140.6157  156.4045 C   0  0  0  0  0  0  0  0  0  0  0  0
  148.1803  139.4469  157.0295 Cl  0  0  0  0  0  0  0  0  0  0  0  0
  147.2851  141.3561  155.2746 C   0  0  0  0  0  0  0  0  0  0  0  0
  148.4524  141.3494  154.3168 C   0  0  0  0  0  0  0  0  0  0  0  0
  149.7531  141.1087  155.0854 C   0  0  0  0  0  0  0  0  0  0  0  0
  150.4754  140.1570  154.7918 O   0  0  0  0  0  0  0  0  0  0  0  0
  150.0427  141.9926  156.0532 N   0  0  0  0  0  0  0  0  0  0  0  0
  151.2856  142.0587  156.8165 C   0  0  2  0  0  0  0  0  0  0  0  0
  151.6278  140.6477  157.3241 C   0  0  0  0  0  0  0  0  0  0  0  0
  151.1171  143.0919  157.9580 C   0  0  2  0  0  0  0  0  0  0  0  0
  151.3544  144.5577  157.5098 C   0  0  0  0  0  0  0  0  0  0  0  0
  152.4026  145.0698  158.5122 C   0  0  1  0  0  0  0  0  0  0  0  0
  151.7623  145.2003  159.9059 C   0  0  0  0  0  0  0  0  0  0  0  0
  151.6007  143.7322  160.3417 C   0  0  0  0  0  0  0  0  0  0  0  0
  152.1311  142.9539  159.1217 C   0  0  2  0  0  0  0  0  0  0  0  0
  153.2888  143.8430  158.6791 C   0  0  0  0  0  0  0  0  0  0  0  0
  146.0593  142.8790  153.1968 H   0  0  0  0  0  0  0  0  0  0  0  0
  146.0866  144.1322  154.4339 H   0  0  0  0  0  0  0  0  0  0  0  0
  144.6028  143.2383  154.1129 H   0  0  0  0  0  0  0  0  0  0  0  0
  148.3461  140.5737  153.5582 H   0  0  0  0  0  0  0  0  0  0  0  0
  148.5236  142.2944  153.7766 H   0  0  0  0  0  0  0  0  0  0  0  0
  149.3758  142.7315  156.2214 H   0  0  0  0  0  0  0  0  0  0  0  0
  152.0966  142.3925  156.1673 H   0  0  0  0  0  0  0  0  0  0  0  0
  152.5883  140.6239  157.8371 H   0  0  0  0  0  0  0  0  0  0  0  0
  151.6917  139.9404  156.4964 H   0  0  0  0  0  0  0  0  0  0  0  0
  150.8703  140.2796  158.0164 H   0  0  0  0  0  0  0  0  0  0  0  0
  150.1027  142.9947  158.3484 H   0  0  0  0  0  0  0  0  0  0  0  0
  151.7613  144.6099  156.4989 H   0  0  0  0  0  0  0  0  0  0  0  0
  150.4386  145.1499  157.5240 H   0  0  0  0  0  0  0  0  0  0  0  0
  152.9203  145.9705  158.1813 H   0  0  0  0  0  0  0  0  0  0  0  0
  152.4225  145.7337  160.5911 H   0  0  0  0  0  0  0  0  0  0  0  0
  150.8108  145.7326  159.8732 H   0  0  0  0  0  0  0  0  0  0  0  0
  152.2083  143.5274  161.2240 H   0  0  0  0  0  0  0  0  0  0  0  0
  150.5679  143.4792  160.5840 H   0  0  0  0  0  0  0  0  0  0  0  0
  152.4116  141.9302  159.3656 H   0  0  0  0  0  0  0  0  0  0  0  0
  153.7595  143.5179  157.7499 H   0  0  0  0  0  0  0  0  0  0  0  0
  154.0574  143.9649  159.4444 H   0  0  0  0  0  0  0  0  0  0  0  0
  1  2  1  0  0  0  0
  1 21  1  0  0  0  0
  1 22  1  0  0  0  0
  1 23  1  0  0  0  0
  2  7  1  0  0  0  0
  2  3  2  0  0  0  0
  3  4  1  0  0  0  0
  4  5  1  0  0  0  0
  5  6  1  0  0  0  0
  5  7  2  0  0  0  0
  7  8  1  0  0  0  0
  8  9  1  0  0  0  0
  8 24  1  0  0  0  0
  8 25  1  0  0  0  0
  9 10  2  0  0  0  0
  9 11  1  0  0  0  0
 11 12  1  0  0  0  0
 11 26  1  0  0  0  0
 12 13  1  0  0  0  0
 12 14  1  0  0  0  0
 12 27  1  0  0  0  0
 13 28  1  0  0  0  0
 13 29  1  0  0  0  0
 13 30  1  0  0  0  0
 14 19  1  0  0  0  0
 14 15  1  0  0  0  0
 14 31  1  0  0  0  0
 15 16  1  0  0  0  0
 15 32  1  0  0  0  0
 15 33  1  0  0  0  0
 16 20  1  0  0  0  0
 16 17  1  0  0  0  0
 16 34  1  0  0  0  0
 17 18  1  0  0  0  0
 17 35  1  0  0  0  0
 17 36  1  0  0  0  0
 18 19  1  0  0  0  0
 18 37  1  0  0  0  0
 18 38  1  0  0  0  0
 19 20  1  0  0  0  0
 19 39  1  0  0  0  0
 20 40  1  0  0  0  0
 20 41  1  0  0  0  0
M  END
> <s_m_source_file>
AV-unprocessed.smi

> <i_m_source_file_index>
1686

> <i_lp_mmshare_version>
43012

> <i_f3d_flags>
0

> <s_epik_input>
W0NIM11jMW5vYyhDbCljMVtDSDJdQyg9TylbTkhdW0NASF0oW0NIM10pW0NASF0oW0NIMl1bQ0BIXTIzKVtDQEhdKFtDSDJdMylbQ0gyXVtDSDJdMg==

> <s_epik_cmdline>
J2VwaWtfcHl0aG9uJywgJy1waCcsICc3LjAnLCAnLXRuJywgJzgnLCAnLW1hJywgJzIwMCcsICctbWV0YWxfYmluZGluZycsICctaW1hZScsICc8aW5maWxlLm1hZT4nLCAnLW9tYWUnLCAnPG91dGZpbGUubWFlPic=

> <r_lp_tautomer_probability>
1

> <r_epik_Ionization_Penalty>
2.01576e-08

> <r_epik_Ionization_Penalty_Charging>
0

> <r_epik_Ionization_Penalty_Neutral>
2.01576e-08

> <r_epik_State_Penalty>
-0

> <r_epik_Charging_Adjusted_Penalty>
0

> <i_epik_Tot_Q>
0

> <i_epik_Tot_abs_Q>
0

> <r_epik_Metal_State_Penalty>
-0

> <b_epik_Metal_Only>
0

> <s_lp_Force_Field>
OPLS_2005

> <r_lp_Energy>
45.7389

> <b_lp_Chiralities_Consistent>
1

> <s_lp_Variant>
AV-unprocessed.smi:1686-5

> <Gold.Version>
5.8.1

> <Gold.Id.Protein>
6NUR|6NUR_protein|mol2

> <Gold.PLP.Fitness>
48.7832

> <Gold.PLP.PLP>
-44.5178

> <Gold.PLP.part.hbond>
-2.0000

> <Gold.PLP.part.metal>
0.0000

> <Gold.PLP.part.buried>
-4.0925

> <Gold.PLP.part.nonpolar>
-37.1951

> <Gold.PLP.part.repulsive>
0.3250

> <Gold.PLP.ligand.clash>
0.0000

> <Gold.PLP.ligand.torsion>
0.8817

> <Gold.PLP.Chemscore.Hbond>
2.0000

> <Gold.PLP.Chemscore.CHOScore>
0.0000

> <Gold.PLP.Chemscore.Metal>
0.0000

> <Gold.Chemscore.Hbonds>
donor molecule, donor type, donor heavy atom, donor atom, acceptor molecule, acceptor atom, score
      L1  H    11    26       P1  8028  0.65
      P1  H  7989  7998       L1    10  1.00

> <Gold.PLP.Chemscore.Internal.Correction>
0.0288

> <Gold.Rescore>
     Score         DG    S(hbond)    S(metal)    S(lipo)     H(rot)  DE(clash)    DE(int)     intcor
     18.95     -22.02       1.64        0.00     126.66       1.46       0.50       2.58       ----

> <Gold.Chemscore.Fitness>
18.9512

> <Gold.Chemscore.DG>
-22.0244

> <Gold.Chemscore.ZeroCoef>
-5.4800

> <Gold.Chemscore.Hbond>
1.6392

> <Gold.Chemscore.Metal>
0.0000

> <Gold.Chemscore.Lipo>
126.6610

> <Gold.Chemscore.Internal_Hbond>
0.0000

> <Gold.Chemscore.DEClash>
0.4977

> <Gold.Chemscore.DEInternal>
2.5755

> <Gold.Chemscore.Rot>
1.4648

> <Gold.Chemscore.Internal.Correction>
   9.000000E+99

> <Gold.Chemscore.Hbonds>
donor molecule, donor type, donor heavy atom, donor atom, acceptor molecule, acceptor atom, score
      L1  H    11    26       P1  8028  0.65
      P1  H  7989  7998       L1    10  0.39

> <Gold.Chemscore.Hbond.Weighted>
-5.4750

> <Gold.Chemscore.Metal.Weighted>
-0.0000

> <Gold.Chemscore.Lipo.Weighted>
-14.8193

> <Gold.Chemscore.Internal_Hbond.Weighted>
0.0000

> <Gold.Chemscore.DEClash.Weighted>
0.4977

> <Gold.Chemscore.DEInternal.Weighted>
2.5755

> <Gold.Chemscore.Rot.Weighted>
3.7500

> <Gold.Chemscore.Internal.Correction.Weighted>
   9.000000E+99

> <Gold.Protein.RotatedTorsions>
[ 6907 6896 6895 6894 ] final   71.94 input  -60.11 | X-H torsion
[ 7974 7965 7964 7962 ] final  -65.15 input  175.53 | X-H torsion
[ 8008 7997 7996 7995 ] final -154.30 input   59.86 | X-H torsion
[ 10167 10162 10161 10158 ] final  -55.42 input  -65.29 | X-H torsion
[ 10718 10713 10712 10709 ] final  -70.04 input   66.30 | X-H torsion
[ 10763 10752 10751 10750 ] final   96.82 input  -60.55 | X-H torsion
[ 11005 11000 10999 10996 ] final -161.68 input  -57.11 | X-H torsion

> <Gold.Protein.ActiveResidues>
 VAL166  LYS551  ARG553  GLY616  TRP617  ASP618  TYR619  PRO620  LYS621  CYS622 
 ASP623  PHE694  ASN695  SER759  ASP760  ASP761  ALA762  ILE779  LEU786  VAL792 
 PHE793  MET794  SER795  GLU796  ALA797  LYS798  CYS799  TRP800  GLU811  SER814 

> <Gold.Protein.RotatedAtoms>
  152.4839  134.4646  159.9615 H   0  0  0  0  0  0  0  0  0  0  0  0  # atno 6907 bound_to 6896
  151.4646  133.3578  159.2822 H   0  0  0  0  0  0  0  0  0  0  0  0  # atno 6908 bound_to 6896
  150.8933  134.8364  159.7370 H   0  0  0  0  0  0  0  0  0  0  0  0  # atno 6909 bound_to 6896
  145.7579  140.8876  143.0445 H   0  0  0  0  0  0  0  0  0  0  0  0  # atno 7974 bound_to 7965
  155.6843  140.0748  157.2473 H   0  0  0  0  0  0  0  0  0  0  0  0  # atno 8008 bound_to 7997
  154.4100  140.1676  156.2068 H   0  0  0  0  0  0  0  0  0  0  0  0  # atno 8009 bound_to 7997
  155.9508  140.3377  155.6409 H   0  0  0  0  0  0  0  0  0  0  0  0  # atno 8010 bound_to 7997
  140.6375  143.2490  151.5077 H   0  0  0  0  0  0  0  0  0  0  0  0  # atno 10167 bound_to 10162
  156.0427  130.4324  150.2236 H   0  0  0  0  0  0  0  0  0  0  0  0  # atno 10718 bound_to 10713
  153.2695  135.4205  155.0973 H   0  0  0  0  0  0  0  0  0  0  0  0  # atno 10763 bound_to 10752
  154.8450  135.3468  154.6264 H   0  0  0  0  0  0  0  0  0  0  0  0  # atno 10764 bound_to 10752
  153.6684  135.7045  153.5212 H   0  0  0  0  0  0  0  0  0  0  0  0  # atno 10765 bound_to 10752
  140.6177  134.4783  157.5221 H   0  0  0  0  0  0  0  0  0  0  0  0  # atno 11005 bound_to 11000
  144.6836  139.9682  143.7481 LP  0  0  0  0  0  0  0  0  0  0  0  0  # atno 17320 bound_to 7965
  146.0293  139.3320  143.0765 LP  0  0  0  0  0  0  0  0  0  0  0  0  # atno 17321 bound_to 7965
  139.5585  144.2215  152.1653 LP  0  0  0  0  0  0  0  0  0  0  0  0  # atno 17342 bound_to 10162
  140.1475  144.5145  150.6707 LP  0  0  0  0  0  0  0  0  0  0  0  0  # atno 17343 bound_to 10162
  157.0329  131.0013  151.3306 LP  0  0  0  0  0  0  0  0  0  0  0  0  # atno 17370 bound_to 10713
  157.5264  130.8030  149.7867 LP  0  0  0  0  0  0  0  0  0  0  0  0  # atno 17371 bound_to 10713
  139.9166  134.8234  156.1346 LP  0  0  0  0  0  0  0  0  0  0  0  0  # atno 17394 bound_to 11000
  141.0764  133.6773  156.2245 LP  0  0  0  0  0  0  0  0  0  0  0  0  # atno 17395 bound_to 11000

$$$$
