AV-unprocessed.smi:3032|AV-procd|sdf|11557|dock4
  -GOLD-   2272016523D 1   1.00000     0.00000
 Structure written by MMmdl.
 37 38  0  0  0  0  0  0  0  0  1 V2000
  149.1692  145.1015  160.5312 C   0  0  0  0  0  0  0  0  0  0  0  0
  150.3192  144.2431  159.9861 C   0  0  2  0  0  0  0  0  0  0  0  0
  151.5260  144.2441  160.9425 C   0  0  0  0  0  0  0  0  0  0  0  0
  152.6695  143.3669  160.4101 C   0  0  0  0  0  0  0  0  0  0  0  0
  153.0876  143.7762  158.9833 C   0  0  0  0  0  0  0  0  0  0  0  0
  151.9042  143.8691  157.9887 C   0  0  1  0  0  0  0  0  0  0  0  0
  151.3992  142.5032  157.4877 C   0  0  0  0  0  0  0  0  0  0  0  0
  151.8319  141.4498  157.9548 O   0  0  0  0  0  0  0  0  0  0  0  0
  150.4604  142.5418  156.5299 N   0  0  0  0  0  0  0  0  0  0  0  0
  149.7758  141.3796  155.9701 C   0  0  0  0  0  0  0  0  0  0  0  0
  148.9051  141.7196  154.7420 C   0  0  0  0  0  0  0  0  0  0  0  0
  148.2118  140.5367  154.1410 C   0  0  0  0  0  0  0  0  0  0  0  0
  147.3430  140.6557  153.1344 N   0  0  0  0  0  0  0  0  0  0  0  0
  146.8978  139.4317  152.7824 N   0  0  0  0  0  0  0  0  0  0  0  0
  147.5495  138.6430  153.6349 C   0  0  0  0  0  0  0  0  0  0  0  0
  148.3882  139.2731  154.5116 N   0  0  0  0  0  0  0  0  0  0  0  0
  150.7568  144.7161  158.5846 C   0  0  0  0  0  0  0  0  0  0  0  0
  147.0480  141.5048  152.6735 H   0  0  0  0  0  0  0  0  0  0  0  0
  149.4691  146.1441  160.6406 H   0  0  0  0  0  0  0  0  0  0  0  0
  148.8415  144.7445  161.5078 H   0  0  0  0  0  0  0  0  0  0  0  0
  148.3070  145.0714  159.8645 H   0  0  0  0  0  0  0  0  0  0  0  0
  149.9486  143.2202  159.9080 H   0  0  0  0  0  0  0  0  0  0  0  0
  151.8857  145.2647  161.0808 H   0  0  0  0  0  0  0  0  0  0  0  0
  151.2232  143.8880  161.9278 H   0  0  0  0  0  0  0  0  0  0  0  0
  153.5288  143.4408  161.0770 H   0  0  0  0  0  0  0  0  0  0  0  0
  152.3651  142.3211  160.4340 H   0  0  0  0  0  0  0  0  0  0  0  0
  153.5769  144.7499  159.0309 H   0  0  0  0  0  0  0  0  0  0  0  0
  153.8439  143.0847  158.6092 H   0  0  0  0  0  0  0  0  0  0  0  0
  152.2748  144.3934  157.1061 H   0  0  0  0  0  0  0  0  0  0  0  0
  150.1633  143.4473  156.1959 H   0  0  0  0  0  0  0  0  0  0  0  0
  150.5478  140.6691  155.6740 H   0  0  0  0  0  0  0  0  0  0  0  0
  149.1794  140.8848  156.7376 H   0  0  0  0  0  0  0  0  0  0  0  0
  148.1548  142.4615  155.0174 H   0  0  0  0  0  0  0  0  0  0  0  0
  149.5213  142.1874  153.9731 H   0  0  0  0  0  0  0  0  0  0  0  0
  147.4174  137.5712  153.6247 H   0  0  0  0  0  0  0  0  0  0  0  0
  149.8995  144.7127  157.9095 H   0  0  0  0  0  0  0  0  0  0  0  0
  151.0801  145.7563  158.6415 H   0  0  0  0  0  0  0  0  0  0  0  0
  1  2  1  0  0  0  0
  1 19  1  0  0  0  0
  1 20  1  0  0  0  0
  1 21  1  0  0  0  0
  2 17  1  0  0  0  0
  2  3  1  0  0  0  0
  2 22  1  0  0  0  0
  3  4  1  0  0  0  0
  3 23  1  0  0  0  0
  3 24  1  0  0  0  0
  4  5  1  0  0  0  0
  4 25  1  0  0  0  0
  4 26  1  0  0  0  0
  5  6  1  0  0  0  0
  5 27  1  0  0  0  0
  5 28  1  0  0  0  0
  6  7  1  0  0  0  0
  6 17  1  0  0  0  0
  6 29  1  0  0  0  0
  7  8  2  0  0  0  0
  7  9  1  0  0  0  0
  9 10  1  0  0  0  0
  9 30  1  0  0  0  0
 10 11  1  0  0  0  0
 10 31  1  0  0  0  0
 10 32  1  0  0  0  0
 11 33  1  0  0  0  0
 11 34  1  0  0  0  0
 11 12  1  0  0  0  0
 12 16  2  0  0  0  0
 12 13  1  0  0  0  0
 13 18  1  0  0  0  0
 13 14  1  0  0  0  0
 14 15  2  0  0  0  0
 15 16  1  0  0  0  0
 15 35  1  0  0  0  0
 17 36  1  0  0  0  0
 17 37  1  0  0  0  0
M  END
> <s_m_source_file>
AV-unprocessed.smi

> <i_m_source_file_index>
3032

> <i_lp_mmshare_version>
43012

> <i_f3d_flags>
0

> <s_epik_input>
W0NIM11bQ0BASF0xW0NIMl1bQ0gyXVtDSDJdW0NASF0oW0NIMl0xKUMoPU8pW05IXVtDSDJdW0NIMl1jMm5uW2NIXVtuSF0y

> <s_epik_cmdline>
J2VwaWtfcHl0aG9uJywgJy1waCcsICc3LjAnLCAnLXRuJywgJzgnLCAnLW1hJywgJzIwMCcsICctbWV0YWxfYmluZGluZycsICctaW1hZScsICc8aW5maWxlLm1hZT4nLCAnLW9tYWUnLCAnPG91dGZpbGUubWFlPic=

> <r_lp_tautomer_probability>
0.948284

> <r_epik_Ionization_Penalty>
0.000474052

> <r_epik_Ionization_Penalty_Charging>
0

> <r_epik_Ionization_Penalty_Neutral>
0.000474052

> <r_epik_State_Penalty>
0.271807

> <r_epik_Charging_Adjusted_Penalty>
0.271807

> <i_epik_Tot_Q>
0

> <i_epik_Tot_abs_Q>
0

> <r_epik_Metal_State_Penalty>
0.397201

> <b_epik_Metal_Only>
0

> <s_lp_Force_Field>
OPLS_2005

> <r_lp_Energy>
8.45965

> <b_lp_Chiralities_Consistent>
1

> <s_lp_Variant>
AV-unprocessed.smi:3032-1

> <Gold.Version>
5.8.1

> <Gold.Id.Protein>
6NUR|6NUR_protein|mol2

> <Gold.PLP.Fitness>
39.8415

> <Gold.PLP.PLP>
-34.6711

> <Gold.PLP.part.hbond>
-2.0000

> <Gold.PLP.part.metal>
0.0000

> <Gold.PLP.part.buried>
-4.1380

> <Gold.PLP.part.nonpolar>
-30.0766

> <Gold.PLP.part.repulsive>
1.3157

> <Gold.PLP.ligand.clash>
0.0000

> <Gold.PLP.ligand.torsion>
0.1062

> <Gold.PLP.Chemscore.Hbond>
1.0000

> <Gold.PLP.Chemscore.CHOScore>
0.7754

> <Gold.PLP.Chemscore.Metal>
0.0000

> <Gold.Chemscore.Hbonds>
donor molecule, donor type, donor heavy atom, donor atom, acceptor molecule, acceptor atom, score
      L1  H     9    30       P1  8028  1.00
      L1  C    15    35       P1  7948  0.42

> <Gold.PLP.Chemscore.Internal.Correction>
0.0566

> <Gold.Rescore>
     Score         DG    S(hbond)    S(metal)    S(lipo)     H(rot)  DE(clash)    DE(int)     intcor
     13.60     -13.77       0.96        0.00      92.53       2.25       0.10       0.07       ----

> <Gold.Chemscore.Fitness>
13.5979

> <Gold.Chemscore.DG>
-13.7652

> <Gold.Chemscore.ZeroCoef>
-5.4800

> <Gold.Chemscore.Hbond>
0.9638

> <Gold.Chemscore.Metal>
0.0000

> <Gold.Chemscore.Lipo>
92.5331

> <Gold.Chemscore.Internal_Hbond>
0.0000

> <Gold.Chemscore.DEClash>
0.1011

> <Gold.Chemscore.DEInternal>
0.0662

> <Gold.Chemscore.Rot>
2.2501

> <Gold.Chemscore.Internal.Correction>
   9.000000E+99

> <Gold.Chemscore.Hbonds>
donor molecule, donor type, donor heavy atom, donor atom, acceptor molecule, acceptor atom, score
      L1  H     9    30       P1  8028  0.98

> <Gold.Chemscore.Hbond.Weighted>
-3.2191

> <Gold.Chemscore.Metal.Weighted>
-0.0000

> <Gold.Chemscore.Lipo.Weighted>
-10.8264

> <Gold.Chemscore.Internal_Hbond.Weighted>
0.0000

> <Gold.Chemscore.DEClash.Weighted>
0.1011

> <Gold.Chemscore.DEInternal.Weighted>
0.0662

> <Gold.Chemscore.Rot.Weighted>
5.7603

> <Gold.Chemscore.Internal.Correction.Weighted>
   9.000000E+99

> <Gold.Protein.RotatedTorsions>
[ 6907 6896 6895 6894 ] final   54.32 input  -60.11 | X-H torsion
[ 7974 7965 7964 7962 ] final   56.63 input  175.53 | X-H torsion
[ 8008 7997 7996 7995 ] final  -53.51 input   59.86 | X-H torsion
[ 10167 10162 10161 10158 ] final  -50.33 input  -65.29 | X-H torsion
[ 10718 10713 10712 10709 ] final    9.93 input   66.30 | X-H torsion
[ 10763 10752 10751 10750 ] final   36.81 input  -60.55 | X-H torsion
[ 11005 11000 10999 10996 ] final -155.11 input  -57.11 | X-H torsion

> <Gold.Protein.ActiveResidues>
 VAL166  LYS551  ARG553  GLY616  TRP617  ASP618  TYR619  PRO620  LYS621  CYS622 
 ASP623  PHE694  ASN695  SER759  ASP760  ASP761  ALA762  ILE779  LEU786  VAL792 
 PHE793  MET794  SER795  GLU796  ALA797  LYS798  CYS799  TRP800  GLU811  SER814 

> <Gold.Protein.RotatedAtoms>
  152.3427  134.7113  160.0258 H   0  0  0  0  0  0  0  0  0  0  0  0  # atno 6907 bound_to 6896
  151.7493  133.3321  159.3395 H   0  0  0  0  0  0  0  0  0  0  0  0  # atno 6908 bound_to 6896
  150.7489  134.6140  159.6145 H   0  0  0  0  0  0  0  0  0  0  0  0  # atno 6909 bound_to 6896
  145.9378  139.3862  143.0382 H   0  0  0  0  0  0  0  0  0  0  0  0  # atno 7974 bound_to 7965
  154.4135  140.1198  156.5166 H   0  0  0  0  0  0  0  0  0  0  0  0  # atno 8008 bound_to 7997
  155.6745  140.3496  155.4812 H   0  0  0  0  0  0  0  0  0  0  0  0  # atno 8009 bound_to 7997
  155.9604  140.1122  157.0890 H   0  0  0  0  0  0  0  0  0  0  0  0  # atno 8010 bound_to 7997
  140.6642  143.2662  151.4344 H   0  0  0  0  0  0  0  0  0  0  0  0  # atno 10167 bound_to 10162
  156.9735  130.5978  149.5670 H   0  0  0  0  0  0  0  0  0  0  0  0  # atno 10718 bound_to 10713
  153.0062  135.6295  154.2045 H   0  0  0  0  0  0  0  0  0  0  0  0  # atno 10763 bound_to 10752
  154.1788  135.2814  155.3060 H   0  0  0  0  0  0  0  0  0  0  0  0  # atno 10764 bound_to 10752
  154.5851  135.5635  153.7283 H   0  0  0  0  0  0  0  0  0  0  0  0  # atno 10765 bound_to 10752
  140.6900  134.4052  157.5220 H   0  0  0  0  0  0  0  0  0  0  0  0  # atno 11005 bound_to 11000
  145.8341  140.9615  143.0834 LP  0  0  0  0  0  0  0  0  0  0  0  0  # atno 17320 bound_to 7965
  144.6774  140.0200  143.7484 LP  0  0  0  0  0  0  0  0  0  0  0  0  # atno 17321 bound_to 7965
  139.5886  144.1549  152.2060 LP  0  0  0  0  0  0  0  0  0  0  0  0  # atno 17342 bound_to 10162
  140.0897  144.5631  150.7063 LP  0  0  0  0  0  0  0  0  0  0  0  0  # atno 17343 bound_to 10162
  156.0273  130.5366  150.8441 LP  0  0  0  0  0  0  0  0  0  0  0  0  # atno 17370 bound_to 10713
  157.5576  131.0945  150.9606 LP  0  0  0  0  0  0  0  0  0  0  0  0  # atno 17371 bound_to 10713
  139.8926  134.8750  156.2262 LP  0  0  0  0  0  0  0  0  0  0  0  0  # atno 17394 bound_to 11000
  141.0249  133.7021  156.1331 LP  0  0  0  0  0  0  0  0  0  0  0  0  # atno 17395 bound_to 11000

$$$$
