AV-unprocessed.smi:2150|AV-procd|sdf|8757|dock7
  -GOLD-   2272011533D 1   1.00000     0.00000
 Structure written by MMmdl.
 35 36  0  0  0  0  0  0  0  0  1 V2000
  151.0971  141.0579  157.7454 O   0  0  0  0  0  0  0  0  0  0  0  0
  150.8795  142.1212  157.1627 C   0  0  0  0  0  0  0  0  0  0  0  0
  151.5961  143.4121  157.5834 C   0  0  0  0  0  0  0  0  0  0  0  0
  152.0447  143.3993  158.9853 N   0  0  0  0  0  0  0  0  0  0  0  0
  152.8923  142.3531  159.3862 C   0  0  0  0  0  0  0  0  0  0  0  0
  153.3384  142.2738  160.6481 C   0  0  0  0  0  0  0  0  0  0  0  0
  152.8929  143.3307  161.5655 C   0  0  0  0  0  0  0  0  0  0  0  0
  152.1170  144.2835  161.2043 N   0  0  0  0  0  0  0  0  0  0  0  0
  151.6460  144.3616  159.8798 C   0  0  0  0  0  0  0  0  0  0  0  0
  150.8941  145.2706  159.5273 O   0  0  0  0  0  0  0  0  0  0  0  0
  150.0353  142.2311  156.1246 N   0  0  0  0  0  0  0  0  0  0  0  0
  149.2626  141.1346  155.5362 C   0  0  1  0  0  0  0  0  0  0  0  0
  148.4854  141.7078  154.3289 C   0  0  0  0  0  0  0  0  0  0  0  0
  147.2515  140.8780  153.9338 C   0  0  0  0  0  0  0  0  0  0  0  0
  147.5574  139.4641  153.4171 C   0  0  0  0  0  0  0  0  0  0  0  0
  148.2413  138.5599  154.4567 C   0  0  0  0  0  0  0  0  0  0  0  0
  149.6598  138.8620  154.5974 N   0  0  0  0  0  0  0  0  0  0  0  0
  150.1997  140.0054  155.0467 C   0  0  0  0  0  0  0  0  0  0  0  0
  151.4221  140.1509  155.0625 O   0  0  0  0  0  0  0  0  0  0  0  0
  152.4440  143.5618  156.9136 H   0  0  0  0  0  0  0  0  0  0  0  0
  150.9395  144.2666  157.4097 H   0  0  0  0  0  0  0  0  0  0  0  0
  153.1420  141.6346  158.6189 H   0  0  0  0  0  0  0  0  0  0  0  0
  153.9876  141.4962  161.0221 H   0  0  0  0  0  0  0  0  0  0  0  0
  153.2696  143.2510  162.5884 H   0  0  0  0  0  0  0  0  0  0  0  0
  149.9288  143.1398  155.6979 H   0  0  0  0  0  0  0  0  0  0  0  0
  148.5663  140.7478  156.2826 H   0  0  0  0  0  0  0  0  0  0  0  0
  148.1280  142.7080  154.5796 H   0  0  0  0  0  0  0  0  0  0  0  0
  149.1425  141.8418  153.4677 H   0  0  0  0  0  0  0  0  0  0  0  0
  146.5718  140.8136  154.7843 H   0  0  0  0  0  0  0  0  0  0  0  0
  146.7051  141.4174  153.1595 H   0  0  0  0  0  0  0  0  0  0  0  0
  146.6148  139.0008  153.1239 H   0  0  0  0  0  0  0  0  0  0  0  0
  148.1592  139.5163  152.5086 H   0  0  0  0  0  0  0  0  0  0  0  0
  147.7393  138.6175  155.4235 H   0  0  0  0  0  0  0  0  0  0  0  0
  148.1661  137.5215  154.1334 H   0  0  0  0  0  0  0  0  0  0  0  0
  150.3001  138.1418  154.2955 H   0  0  0  0  0  0  0  0  0  0  0  0
  1  2  2  0  0  0  0
  2  3  1  0  0  0  0
  2 11  1  0  0  0  0
  3  4  1  0  0  0  0
  3 20  1  0  0  0  0
  3 21  1  0  0  0  0
  4  9  1  0  0  0  0
  4  5  1  0  0  0  0
  5  6  2  0  0  0  0
  5 22  1  0  0  0  0
  6  7  1  0  0  0  0
  6 23  1  0  0  0  0
  7  8  2  0  0  0  0
  7 24  1  0  0  0  0
  8  9  1  0  0  0  0
  9 10  2  0  0  0  0
 11 12  1  0  0  0  0
 11 25  1  0  0  0  0
 12 18  1  0  0  0  0
 12 13  1  0  0  0  0
 12 26  1  0  0  0  0
 13 14  1  0  0  0  0
 13 27  1  0  0  0  0
 13 28  1  0  0  0  0
 14 15  1  0  0  0  0
 14 29  1  0  0  0  0
 14 30  1  0  0  0  0
 15 16  1  0  0  0  0
 15 31  1  0  0  0  0
 15 32  1  0  0  0  0
 16 17  1  0  0  0  0
 16 33  1  0  0  0  0
 16 34  1  0  0  0  0
 17 18  1  0  0  0  0
 17 35  1  0  0  0  0
 18 19  2  0  0  0  0
M  END
> <s_m_source_file>
AV-unprocessed.smi

> <i_m_source_file_index>
2150

> <i_lp_mmshare_version>
43012

> <i_f3d_flags>
0

> <s_epik_input>
Tz1jMW5bY0hdW2NIXVtjSF1uMVtDSDJdQyg9TylbTkhdW0NAQEhdMltDSDJdW0NIMl1bQ0gyXVtDSDJdW05IXUMyPU8=

> <s_epik_cmdline>
J2VwaWtfcHl0aG9uJywgJy1waCcsICc3LjAnLCAnLXRuJywgJzgnLCAnLW1hJywgJzIwMCcsICctbWV0YWxfYmluZGluZycsICctaW1hZScsICc8aW5maWxlLm1hZT4nLCAnLW9tYWUnLCAnPG91dGZpbGUubWFlPic=

> <r_lp_tautomer_probability>
1

> <r_epik_Ionization_Penalty>
6.25431e-06

> <r_epik_Ionization_Penalty_Charging>
1.47848e-08

> <r_epik_Ionization_Penalty_Neutral>
6.23953e-06

> <r_epik_State_Penalty>
-0

> <r_epik_Charging_Adjusted_Penalty>
1.47848e-08

> <i_epik_Tot_Q>
0

> <i_epik_Tot_abs_Q>
0

> <r_epik_Metal_State_Penalty>
-0

> <b_epik_Metal_Only>
0

> <s_lp_Force_Field>
OPLS_2005

> <r_lp_Energy>
14.2725

> <b_lp_Chiralities_Consistent>
1

> <s_lp_Variant>
AV-unprocessed.smi:2150-2

> <Gold.Version>
5.8.1

> <Gold.Id.Protein>
6NUR|6NUR_protein|mol2

> <Gold.PLP.Fitness>
45.8440

> <Gold.PLP.PLP>
-40.6804

> <Gold.PLP.part.hbond>
-2.0000

> <Gold.PLP.part.metal>
0.0000

> <Gold.PLP.part.buried>
-5.6599

> <Gold.PLP.part.nonpolar>
-33.5668

> <Gold.PLP.part.repulsive>
0.5463

> <Gold.PLP.ligand.clash>
0.0000

> <Gold.PLP.ligand.torsion>
0.3590

> <Gold.PLP.Chemscore.Hbond>
1.9600

> <Gold.PLP.Chemscore.CHOScore>
0.0000

> <Gold.PLP.Chemscore.Metal>
0.0000

> <Gold.Chemscore.Hbonds>
donor molecule, donor type, donor heavy atom, donor atom, acceptor molecule, acceptor atom, score
      L1  H    11    25       P1  8028  0.91
      P1  H  7989  7998       L1    19  1.00

> <Gold.PLP.Chemscore.Internal.Correction>
0.0017

> <Gold.Rescore>
     Score         DG    S(hbond)    S(metal)    S(lipo)     H(rot)  DE(clash)    DE(int)     intcor
     14.07     -15.77       1.97        0.00      68.71       1.69       0.01       1.69       ----

> <Gold.Chemscore.Fitness>
14.0713

> <Gold.Chemscore.DG>
-15.7705

> <Gold.Chemscore.ZeroCoef>
-5.4800

> <Gold.Chemscore.Hbond>
1.9732

> <Gold.Chemscore.Metal>
0.0000

> <Gold.Chemscore.Lipo>
68.7052

> <Gold.Chemscore.Internal_Hbond>
0.0000

> <Gold.Chemscore.DEClash>
0.0053

> <Gold.Chemscore.DEInternal>
1.6939

> <Gold.Chemscore.Rot>
1.6947

> <Gold.Chemscore.Internal.Correction>
   9.000000E+99

> <Gold.Chemscore.Hbonds>
donor molecule, donor type, donor heavy atom, donor atom, acceptor molecule, acceptor atom, score
      L1  H    11    25       P1  8028  0.89
      P1  H  7989  7998       L1    19  0.25

> <Gold.Chemscore.Hbond.Weighted>
-6.5904

> <Gold.Chemscore.Metal.Weighted>
-0.0000

> <Gold.Chemscore.Lipo.Weighted>
-8.0385

> <Gold.Chemscore.Internal_Hbond.Weighted>
0.0000

> <Gold.Chemscore.DEClash.Weighted>
0.0053

> <Gold.Chemscore.DEInternal.Weighted>
1.6939

> <Gold.Chemscore.Rot.Weighted>
4.3385

> <Gold.Chemscore.Internal.Correction.Weighted>
   9.000000E+99

> <Gold.Protein.RotatedTorsions>
[ 6907 6896 6895 6894 ] final  -52.59 input  -60.11 | X-H torsion
[ 7974 7965 7964 7962 ] final  -30.78 input  175.53 | X-H torsion
[ 8008 7997 7996 7995 ] final   25.60 input   59.86 | X-H torsion
[ 10167 10162 10161 10158 ] final   77.76 input  -65.29 | X-H torsion
[ 10718 10713 10712 10709 ] final   50.49 input   66.30 | X-H torsion
[ 10763 10752 10751 10750 ] final  116.17 input  -60.55 | X-H torsion
[ 11005 11000 10999 10996 ] final  114.95 input  -57.11 | X-H torsion

> <Gold.Protein.ActiveResidues>
 VAL166  LYS551  ARG553  GLY616  TRP617  ASP618  TYR619  PRO620  LYS621  CYS622 
 ASP623  PHE694  ASN695  SER759  ASP760  ASP761  ALA762  ILE779  LEU786  VAL792 
 PHE793  MET794  SER795  GLU796  ALA797  LYS798  CYS799  TRP800  GLU811  SER814 

> <Gold.Protein.RotatedAtoms>
  150.8504  134.7827  159.7003 H   0  0  0  0  0  0  0  0  0  0  0  0  # atno 6907 bound_to 6896
  152.4570  134.5266  159.9808 H   0  0  0  0  0  0  0  0  0  0  0  0  # atno 6908 bound_to 6896
  151.5388  133.3398  159.2967 H   0  0  0  0  0  0  0  0  0  0  0  0  # atno 6909 bound_to 6896
  146.1117  140.5583  142.8775 H   0  0  0  0  0  0  0  0  0  0  0  0  # atno 7974 bound_to 7965
  155.0142  140.3140  155.4818 H   0  0  0  0  0  0  0  0  0  0  0  0  # atno 8008 bound_to 7997
  156.2904  140.2209  156.5199 H   0  0  0  0  0  0  0  0  0  0  0  0  # atno 8009 bound_to 7997
  154.7508  140.0466  157.0880 H   0  0  0  0  0  0  0  0  0  0  0  0  # atno 8010 bound_to 7997
  139.9781  144.5846  150.7925 H   0  0  0  0  0  0  0  0  0  0  0  0  # atno 10167 bound_to 10162
  157.4890  130.8364  149.8180 H   0  0  0  0  0  0  0  0  0  0  0  0  # atno 10718 bound_to 10713
  153.5333  135.3574  155.2685 H   0  0  0  0  0  0  0  0  0  0  0  0  # atno 10763 bound_to 10752
  154.8725  135.4073  154.3127 H   0  0  0  0  0  0  0  0  0  0  0  0  # atno 10764 bound_to 10752
  153.3820  135.7068  153.6626 H   0  0  0  0  0  0  0  0  0  0  0  0  # atno 10765 bound_to 10752
  139.8995  134.9576  156.6971 H   0  0  0  0  0  0  0  0  0  0  0  0  # atno 11005 bound_to 11000
  144.7518  140.5209  143.6797 LP  0  0  0  0  0  0  0  0  0  0  0  0  # atno 17320 bound_to 7965
  145.5649  139.1481  143.3320 LP  0  0  0  0  0  0  0  0  0  0  0  0  # atno 17321 bound_to 7965
  140.7498  143.2945  151.3240 LP  0  0  0  0  0  0  0  0  0  0  0  0  # atno 17342 bound_to 10162
  139.6430  144.0504  152.2569 LP  0  0  0  0  0  0  0  0  0  0  0  0  # atno 17343 bound_to 10162
  156.0163  130.3812  150.2101 LP  0  0  0  0  0  0  0  0  0  0  0  0  # atno 17370 bound_to 10713
  157.0290  131.0001  151.3318 LP  0  0  0  0  0  0  0  0  0  0  0  0  # atno 17371 bound_to 10713
  140.7180  133.9165  155.8128 LP  0  0  0  0  0  0  0  0  0  0  0  0  # atno 17394 bound_to 11000
  141.0249  134.0837  157.4079 LP  0  0  0  0  0  0  0  0  0  0  0  0  # atno 17395 bound_to 11000

$$$$
