AV-unprocessed.smi:530|AV-procd|sdf|2844|dock3
  -GOLD-   2262023333D 1   1.00000     0.00000
 Structure written by MMmdl.
 36 38  0  0  0  0  0  0  0  0  2 V2000
  151.7651  137.7914  154.9306 C   0  0  0  0  0  0  0  0  0  0  0  0
  150.6109  138.6729  154.5893 C   0  0  0  0  0  0  0  0  0  0  0  0
  149.5524  138.3378  153.7983 N   0  3  0  0  0  0  0  0  0  0  0  0
  148.6700  139.4156  153.7083 C   0  0  0  0  0  0  0  0  0  0  0  0
  147.4644  139.5535  153.0273 C   0  0  0  0  0  0  0  0  0  0  0  0
  146.8085  140.7966  153.1474 C   0  0  0  0  0  0  0  0  0  0  0  0
  147.3539  141.8434  153.9192 C   0  0  0  0  0  0  0  0  0  0  0  0
  148.5776  141.6920  154.6044 C   0  0  0  0  0  0  0  0  0  0  0  0
  149.2177  140.4592  154.4817 C   0  0  0  0  0  0  0  0  0  0  0  0
  150.4131  139.9563  155.0055 N   0  0  0  0  0  0  0  0  0  0  0  0
  151.2331  140.8152  155.8729 C   0  0  0  0  0  0  0  0  0  0  0  0
  150.8540  140.7038  157.3633 C   0  0  2  0  0  0  0  0  0  0  0  0
  149.4465  140.7240  157.5018 O   0  0  0  0  0  0  0  0  0  0  0  0
  151.5281  141.7907  158.1848 C   0  0  0  0  0  0  0  0  0  0  0  0
  152.3525  141.4414  159.2763 C   0  0  0  0  0  0  0  0  0  0  0  0
  152.9895  142.4434  160.0340 C   0  0  0  0  0  0  0  0  0  0  0  0
  152.8076  143.8000  159.7035 C   0  0  0  0  0  0  0  0  0  0  0  0
  151.9884  144.1544  158.6146 C   0  0  0  0  0  0  0  0  0  0  0  0
  151.3504  143.1530  157.8569 C   0  0  0  0  0  0  0  0  0  0  0  0
  151.6670  136.8236  154.4387 H   0  0  0  0  0  0  0  0  0  0  0  0
  151.8093  137.6303  156.0078 H   0  0  0  0  0  0  0  0  0  0  0  0
  152.6991  138.2512  154.6079 H   0  0  0  0  0  0  0  0  0  0  0  0
  147.0450  138.7532  152.4352 H   0  0  0  0  0  0  0  0  0  0  0  0
  145.8685  140.9500  152.6372 H   0  0  0  0  0  0  0  0  0  0  0  0
  146.8230  142.7817  153.9881 H   0  0  0  0  0  0  0  0  0  0  0  0
  148.9882  142.4992  155.1927 H   0  0  0  0  0  0  0  0  0  0  0  0
  152.2810  140.5550  155.7185 H   0  0  0  0  0  0  0  0  0  0  0  0
  151.1203  141.8430  155.5257 H   0  0  0  0  0  0  0  0  0  0  0  0
  151.1868  139.7369  157.7420 H   0  0  0  0  0  0  0  0  0  0  0  0
  149.1799  141.6054  157.7155 H   0  0  0  0  0  0  0  0  0  0  0  0
  152.5012  140.4036  159.5364 H   0  0  0  0  0  0  0  0  0  0  0  0
  153.6192  142.1712  160.8684 H   0  0  0  0  0  0  0  0  0  0  0  0
  153.2973  144.5679  160.2839 H   0  0  0  0  0  0  0  0  0  0  0  0
  151.8504  145.1947  158.3590 H   0  0  0  0  0  0  0  0  0  0  0  0
  150.7268  143.4337  157.0207 H   0  0  0  0  0  0  0  0  0  0  0  0
  149.4438  137.4355  153.3535 H   0  0  0  0  0  0  0  0  0  0  0  0
  1  2  1  0  0  0  0
  1 20  1  0  0  0  0
  1 21  1  0  0  0  0
  1 22  1  0  0  0  0
  2 10  1  0  0  0  0
  2  3  2  0  0  0  0
  3  4  1  0  0  0  0
  3 36  1  0  0  0  0
  4  9  2  0  0  0  0
  4  5  1  0  0  0  0
  5  6  2  0  0  0  0
  5 23  1  0  0  0  0
  6  7  1  0  0  0  0
  6 24  1  0  0  0  0
  7  8  2  0  0  0  0
  7 25  1  0  0  0  0
  8  9  1  0  0  0  0
  8 26  1  0  0  0  0
  9 10  1  0  0  0  0
 10 11  1  0  0  0  0
 11 12  1  0  0  0  0
 11 27  1  0  0  0  0
 11 28  1  0  0  0  0
 12 13  1  0  0  0  0
 12 14  1  0  0  0  0
 12 29  1  0  0  0  0
 13 30  1  0  0  0  0
 14 19  1  0  0  0  0
 14 15  2  0  0  0  0
 15 16  1  0  0  0  0
 15 31  1  0  0  0  0
 16 17  2  0  0  0  0
 16 32  1  0  0  0  0
 17 18  1  0  0  0  0
 17 33  1  0  0  0  0
 18 19  2  0  0  0  0
 18 34  1  0  0  0  0
 19 35  1  0  0  0  0
M  CHG  1   3   1
M  END
> <s_m_source_file>
AV-unprocessed.smi

> <i_m_source_file_index>
530

> <i_lp_mmshare_version>
43012

> <i_f3d_flags>
0

> <s_epik_input>
W2NIXTFbY0hdW2NIXVtjSF1jKGMxMiluKGMobjIpW0NIM10pW0NIMl1bQ0BIXShbT0hdKWMzW2NIXVtjSF1bY0hdW2NIXVtjSF0z

> <s_epik_cmdline>
J2VwaWtfcHl0aG9uJywgJy1waCcsICc3LjAnLCAnLXRuJywgJzgnLCAnLW1hJywgJzIwMCcsICctbWV0YWxfYmluZGluZycsICctaW1hZScsICc8aW5maWxlLm1hZT4nLCAnLW9tYWUnLCAnPG91dGZpbGUubWFlPic=

> <r_epik_Ionization_Penalty>
0.963869

> <r_epik_Ionization_Penalty_Charging>
0.963868

> <r_epik_Ionization_Penalty_Neutral>
1.34362e-06

> <r_epik_State_Penalty>
1.00924

> <r_epik_Charging_Adjusted_Penalty>
1.9731

> <i_epik_Tot_Q>
1

> <i_epik_Tot_abs_Q>
1

> <r_epik_Metal_State_Penalty>
4.98304

> <b_epik_Metal_Only>
0

> <s_lp_Force_Field>
OPLS_2005

> <r_lp_Energy>
14.7025

> <b_lp_Chiralities_Consistent>
1

> <s_lp_Variant>
AV-unprocessed.smi:530-3

> <Gold.Version>
5.8.1

> <Gold.Id.Protein>
6NUR|6NUR_protein|mol2

> <Gold.PLP.Fitness>
50.7520

> <Gold.PLP.PLP>
-45.7707

> <Gold.PLP.part.hbond>
-1.6784

> <Gold.PLP.part.metal>
0.0000

> <Gold.PLP.part.buried>
1.9962

> <Gold.PLP.part.nonpolar>
-45.6828

> <Gold.PLP.part.repulsive>
0.0527

> <Gold.PLP.ligand.clash>
0.0000

> <Gold.PLP.ligand.torsion>
0.5237

> <Gold.PLP.Chemscore.Hbond>
2.0000

> <Gold.PLP.Chemscore.CHOScore>
0.0000

> <Gold.PLP.Chemscore.Metal>
0.0000

> <Gold.Chemscore.Hbonds>
donor molecule, donor type, donor heavy atom, donor atom, acceptor molecule, acceptor atom, score
      L1  H     3    36       P1  7948  2.00

> <Gold.PLP.Chemscore.Internal.Correction>
0.0286

> <Gold.Rescore>
     Score         DG    S(hbond)    S(metal)    S(lipo)     H(rot)  DE(clash)    DE(int)     intcor
     16.88     -18.40       0.76        0.00     127.00       1.76       0.22       1.29       ----

> <Gold.Chemscore.Fitness>
16.8811

> <Gold.Chemscore.DG>
-18.3964

> <Gold.Chemscore.ZeroCoef>
-5.4800

> <Gold.Chemscore.Hbond>
0.7640

> <Gold.Chemscore.Metal>
0.0000

> <Gold.Chemscore.Lipo>
126.9970

> <Gold.Chemscore.Internal_Hbond>
0.0000

> <Gold.Chemscore.DEClash>
0.2213

> <Gold.Chemscore.DEInternal>
1.2940

> <Gold.Chemscore.Rot>
1.7555

> <Gold.Chemscore.Internal.Correction>
   9.000000E+99

> <Gold.Chemscore.Hbonds>
donor molecule, donor type, donor heavy atom, donor atom, acceptor molecule, acceptor atom, score
      L1  H     3    36       P1  7948  0.89

> <Gold.Chemscore.Hbond.Weighted>
-2.5519

> <Gold.Chemscore.Metal.Weighted>
-0.0000

> <Gold.Chemscore.Lipo.Weighted>
-14.8586

> <Gold.Chemscore.Internal_Hbond.Weighted>
0.0000

> <Gold.Chemscore.DEClash.Weighted>
0.2213

> <Gold.Chemscore.DEInternal.Weighted>
1.2940

> <Gold.Chemscore.Rot.Weighted>
4.4942

> <Gold.Chemscore.Internal.Correction.Weighted>
   9.000000E+99

> <Gold.Protein.RotatedTorsions>
[ 6907 6896 6895 6894 ] final  135.10 input  -60.11 | X-H torsion
[ 7974 7965 7964 7962 ] final  -89.34 input  175.53 | X-H torsion
[ 8008 7997 7996 7995 ] final  -54.38 input   59.86 | X-H torsion
[ 10167 10162 10161 10158 ] final  107.39 input  -65.29 | X-H torsion
[ 10718 10713 10712 10709 ] final  -99.10 input   66.30 | X-H torsion
[ 10763 10752 10751 10750 ] final -121.28 input  -60.55 | X-H torsion
[ 11005 11000 10999 10996 ] final  100.14 input  -57.11 | X-H torsion

> <Gold.Protein.ActiveResidues>
 VAL166  LYS551  ARG553  GLY616  TRP617  ASP618  TYR619  PRO620  LYS621  CYS622 
 ASP623  PHE694  ASN695  SER759  ASP760  ASP761  ALA762  ILE779  LEU786  VAL792 
 PHE793  MET794  SER795  GLU796  ALA797  LYS798  CYS799  TRP800  GLU811  SER814 

> <Gold.Protein.RotatedAtoms>
  152.3041  133.5685  159.5637 H   0  0  0  0  0  0  0  0  0  0  0  0  # atno 6907 bound_to 6896
  150.7291  134.0248  159.3722 H   0  0  0  0  0  0  0  0  0  0  0  0  # atno 6908 bound_to 6896
  151.8146  135.0671  160.0468 H   0  0  0  0  0  0  0  0  0  0  0  0  # atno 6909 bound_to 6896
  145.4411  140.9559  143.2075 H   0  0  0  0  0  0  0  0  0  0  0  0  # atno 7974 bound_to 7965
  154.4161  140.1178  156.5306 H   0  0  0  0  0  0  0  0  0  0  0  0  # atno 8008 bound_to 7997
  155.6609  140.3496  155.4763 H   0  0  0  0  0  0  0  0  0  0  0  0  # atno 8009 bound_to 7997
  155.9714  140.1142  157.0799 H   0  0  0  0  0  0  0  0  0  0  0  0  # atno 8010 bound_to 7997
  139.6931  144.7105  151.1314 H   0  0  0  0  0  0  0  0  0  0  0  0  # atno 10167 bound_to 10162
  156.0125  130.5267  150.6620 H   0  0  0  0  0  0  0  0  0  0  0  0  # atno 10718 bound_to 10713
  154.8664  135.4173  154.2595 H   0  0  0  0  0  0  0  0  0  0  0  0  # atno 10763 bound_to 10752
  153.3526  135.6999  153.6782 H   0  0  0  0  0  0  0  0  0  0  0  0  # atno 10764 bound_to 10752
  153.5716  135.3590  155.2812 H   0  0  0  0  0  0  0  0  0  0  0  0  # atno 10765 bound_to 10752
  139.8771  134.9127  156.4711 H   0  0  0  0  0  0  0  0  0  0  0  0  # atno 11005 bound_to 11000
  144.8121  139.5943  143.7025 LP  0  0  0  0  0  0  0  0  0  0  0  0  # atno 17320 bound_to 7965
  146.2556  139.6295  142.9397 LP  0  0  0  0  0  0  0  0  0  0  0  0  # atno 17321 bound_to 7965
  140.7688  143.5531  150.9182 LP  0  0  0  0  0  0  0  0  0  0  0  0  # atno 17342 bound_to 10162
  139.9209  143.6607  152.3097 LP  0  0  0  0  0  0  0  0  0  0  0  0  # atno 17343 bound_to 10162
  157.4360  131.0855  151.0991 LP  0  0  0  0  0  0  0  0  0  0  0  0  # atno 17370 bound_to 10713
  157.1549  130.6200  149.5593 LP  0  0  0  0  0  0  0  0  0  0  0  0  # atno 17371 bound_to 10713
  140.8795  133.7928  155.9451 LP  0  0  0  0  0  0  0  0  0  0  0  0  # atno 17394 bound_to 11000
  140.8869  134.2543  157.5115 LP  0  0  0  0  0  0  0  0  0  0  0  0  # atno 17395 bound_to 11000

$$$$
