AV-unprocessed.smi:3249|AV-procd|sdf|12419|dock5
  -GOLD-   2272018303D 1   1.00000     0.00000
 Structure written by MMmdl.
 44 45  0  0  0  0  0  0  0  0  2 V2000
  151.4100  141.9665  157.9719 C   0  0  0  0  0  0  0  0  0  0  0  0
  150.8679  141.3781  156.7013 C   0  0  0  0  0  0  0  0  0  0  0  0
  151.4568  140.3751  155.8807 C   0  0  0  0  0  0  0  0  0  0  0  0
  150.7126  140.0688  154.8307 N   0  0  0  0  0  0  0  0  0  0  0  0
  149.6329  140.8740  154.9306 N   0  0  0  0  0  0  0  0  0  0  0  0
  148.5684  140.7797  153.9373 C   0  0  2  0  0  0  0  0  0  0  0  0
  147.5783  141.9452  154.1226 C   0  0  0  0  0  0  0  0  0  0  0  0
  147.8981  139.3818  153.9850 C   0  0  1  0  0  0  0  0  0  0  0  0
  146.9771  139.1247  152.7770 C   0  0  0  0  0  0  0  0  0  0  0  0
  148.9398  138.3298  154.0558 N   0  3  0  0  0  0  0  0  0  0  0  0
  148.9765  137.5551  155.3139 C   0  0  0  0  0  0  0  0  0  0  0  0
  149.8485  136.2986  155.1694 C   0  0  2  0  0  0  0  0  0  0  0  0
  149.0472  135.0686  154.6941 C   0  0  0  0  0  0  0  0  0  0  0  0
  149.9404  133.8232  154.6619 C   0  0  0  0  0  0  0  0  0  0  0  0
  150.6228  133.6410  156.0216 C   0  0  0  0  0  0  0  0  0  0  0  0
  151.3378  134.9357  156.4379 C   0  0  0  0  0  0  0  0  0  0  0  0
  150.4129  136.0194  156.4482 O   0  0  0  0  0  0  0  0  0  0  0  0
  149.6976  141.6671  156.0591 C   0  0  0  0  0  0  0  0  0  0  0  0
  152.4558  141.7007  158.1281 H   0  0  0  0  0  0  0  0  0  0  0  0
  150.8563  141.6179  158.8437 H   0  0  0  0  0  0  0  0  0  0  0  0
  151.3533  143.0551  157.9685 H   0  0  0  0  0  0  0  0  0  0  0  0
  152.3952  139.8588  156.0200 H   0  0  0  0  0  0  0  0  0  0  0  0
  149.0261  140.9034  152.9536 H   0  0  0  0  0  0  0  0  0  0  0  0
  146.8752  142.0124  153.2928 H   0  0  0  0  0  0  0  0  0  0  0  0
  148.1041  142.8995  154.1684 H   0  0  0  0  0  0  0  0  0  0  0  0
  147.0008  141.8398  155.0416 H   0  0  0  0  0  0  0  0  0  0  0  0
  147.2980  139.3294  154.8952 H   0  0  0  0  0  0  0  0  0  0  0  0
  146.1466  139.8292  152.7470 H   0  0  0  0  0  0  0  0  0  0  0  0
  146.5358  138.1289  152.8116 H   0  0  0  0  0  0  0  0  0  0  0  0
  147.5230  139.2118  151.8371 H   0  0  0  0  0  0  0  0  0  0  0  0
  148.8259  137.7012  153.2737 H   0  0  0  0  0  0  0  0  0  0  0  0
  149.3915  138.1907  156.0974 H   0  0  0  0  0  0  0  0  0  0  0  0
  147.9688  137.2812  155.6262 H   0  0  0  0  0  0  0  0  0  0  0  0
  150.6596  136.5091  154.4696 H   0  0  0  0  0  0  0  0  0  0  0  0
  148.2059  134.8948  155.3663 H   0  0  0  0  0  0  0  0  0  0  0  0
  148.6250  135.2439  153.7041 H   0  0  0  0  0  0  0  0  0  0  0  0
  149.3539  132.9396  154.4085 H   0  0  0  0  0  0  0  0  0  0  0  0
  150.6961  133.9323  153.8831 H   0  0  0  0  0  0  0  0  0  0  0  0
  149.8782  133.3792  156.7743 H   0  0  0  0  0  0  0  0  0  0  0  0
  151.3318  132.8137  155.9811 H   0  0  0  0  0  0  0  0  0  0  0  0
  151.7607  134.8250  157.4364 H   0  0  0  0  0  0  0  0  0  0  0  0
  152.1671  135.1568  155.7641 H   0  0  0  0  0  0  0  0  0  0  0  0
  148.9120  142.3639  156.3125 H   0  0  0  0  0  0  0  0  0  0  0  0
  149.8351  138.7897  153.9646 H   0  0  0  0  0  0  0  0  0  0  0  0
  1  2  1  0  0  0  0
  1 19  1  0  0  0  0
  1 20  1  0  0  0  0
  1 21  1  0  0  0  0
  2 18  2  0  0  0  0
  2  3  1  0  0  0  0
  3  4  2  0  0  0  0
  3 22  1  0  0  0  0
  4  5  1  0  0  0  0
  5  6  1  0  0  0  0
  5 18  1  0  0  0  0
  6  7  1  0  0  0  0
  6  8  1  0  0  0  0
  6 23  1  0  0  0  0
  7 24  1  0  0  0  0
  7 25  1  0  0  0  0
  7 26  1  0  0  0  0
  8  9  1  0  0  0  0
  8 10  1  0  0  0  0
  8 27  1  0  0  0  0
  9 28  1  0  0  0  0
  9 29  1  0  0  0  0
  9 30  1  0  0  0  0
 10 11  1  0  0  0  0
 10 31  1  0  0  0  0
 10 44  1  0  0  0  0
 11 12  1  0  0  0  0
 11 32  1  0  0  0  0
 11 33  1  0  0  0  0
 12 17  1  0  0  0  0
 12 13  1  0  0  0  0
 12 34  1  0  0  0  0
 13 14  1  0  0  0  0
 13 35  1  0  0  0  0
 13 36  1  0  0  0  0
 14 15  1  0  0  0  0
 14 37  1  0  0  0  0
 14 38  1  0  0  0  0
 15 16  1  0  0  0  0
 15 39  1  0  0  0  0
 15 40  1  0  0  0  0
 16 17  1  0  0  0  0
 16 41  1  0  0  0  0
 16 42  1  0  0  0  0
 18 43  1  0  0  0  0
M  CHG  1  10   1
M  END
> <s_m_source_file>
AV-unprocessed.smi

> <i_m_source_file_index>
3249

> <i_lp_mmshare_version>
43012

> <i_f3d_flags>
0

> <s_epik_input>
W0NIM11jMVtjSF1ubihbY0hdMSlbQ0BIXShbQ0gzXSlbQ0BIXShbQ0gzXSlbTkhdW0NIMl1bQ0BASF0yW0NIMl1bQ0gyXVtDSDJdW0NIMl1PMg==

> <s_epik_cmdline>
J2VwaWtfcHl0aG9uJywgJy1waCcsICc3LjAnLCAnLXRuJywgJzgnLCAnLW1hJywgJzIwMCcsICctbWV0YWxfYmluZGluZycsICctaW1hZScsICc8aW5maWxlLm1hZT4nLCAnLW9tYWUnLCAnPG91dGZpbGUubWFlPic=

> <r_lp_tautomer_probability>
1

> <r_epik_Ionization_Penalty>
0.00659207

> <r_epik_Ionization_Penalty_Charging>
0.00656881

> <r_epik_Ionization_Penalty_Neutral>
2.32662e-05

> <r_epik_State_Penalty>
0.0048654

> <r_epik_Charging_Adjusted_Penalty>
0.0114342

> <i_epik_Tot_Q>
1

> <i_epik_Tot_abs_Q>
1

> <r_epik_Metal_State_Penalty>
-0

> <b_epik_Metal_Only>
0

> <s_lp_Force_Field>
OPLS_2005

> <r_lp_Energy>
18.0919

> <b_lp_Chiralities_Consistent>
1

> <s_lp_Variant>
AV-unprocessed.smi:3249-3

> <Gold.Version>
5.8.1

> <Gold.Id.Protein>
6NUR|6NUR_protein|mol2

> <Gold.PLP.Fitness>
41.0840

> <Gold.PLP.PLP>
-32.0297

> <Gold.PLP.part.hbond>
-2.0000

> <Gold.PLP.part.metal>
0.0000

> <Gold.PLP.part.buried>
-0.5191

> <Gold.PLP.part.nonpolar>
-29.4219

> <Gold.PLP.part.repulsive>
0.0856

> <Gold.PLP.ligand.clash>
0.0000

> <Gold.PLP.ligand.torsion>
1.4390

> <Gold.PLP.Chemscore.Hbond>
3.0000

> <Gold.PLP.Chemscore.CHOScore>
0.9469

> <Gold.PLP.Chemscore.Metal>
0.0000

> <Gold.Chemscore.Hbonds>
donor molecule, donor type, donor heavy atom, donor atom, acceptor molecule, acceptor atom, score
      L1  H    10    31       P1  7948  2.00
      P1  H  7989  7998       L1     4  1.00
      L1  C    18    43       P1  8028  0.90

> <Gold.PLP.Chemscore.Internal.Correction>
0.0917

> <Gold.Rescore>
     Score         DG    S(hbond)    S(metal)    S(lipo)     H(rot)  DE(clash)    DE(int)     intcor
     13.12     -14.75       1.12        0.00      80.85       1.53       0.19       1.44       ----

> <Gold.Chemscore.Fitness>
13.1153

> <Gold.Chemscore.DG>
-14.7453

> <Gold.Chemscore.ZeroCoef>
-5.4800

> <Gold.Chemscore.Hbond>
1.1172

> <Gold.Chemscore.Metal>
0.0000

> <Gold.Chemscore.Lipo>
80.8454

> <Gold.Chemscore.Internal_Hbond>
0.0000

> <Gold.Chemscore.DEClash>
0.1893

> <Gold.Chemscore.DEInternal>
1.4407

> <Gold.Chemscore.Rot>
1.5333

> <Gold.Chemscore.Internal.Correction>
   9.000000E+99

> <Gold.Chemscore.Hbonds>
donor molecule, donor type, donor heavy atom, donor atom, acceptor molecule, acceptor atom, score
      L1  H    10    31       P1  7948  0.93
      P1  H  7989  7998       L1     4  0.09

> <Gold.Chemscore.Hbond.Weighted>
-3.7316

> <Gold.Chemscore.Metal.Weighted>
-0.0000

> <Gold.Chemscore.Lipo.Weighted>
-9.4589

> <Gold.Chemscore.Internal_Hbond.Weighted>
0.0000

> <Gold.Chemscore.DEClash.Weighted>
0.1893

> <Gold.Chemscore.DEInternal.Weighted>
1.4407

> <Gold.Chemscore.Rot.Weighted>
3.9252

> <Gold.Chemscore.Internal.Correction.Weighted>
   9.000000E+99

> <Gold.Protein.RotatedTorsions>
[ 6907 6896 6895 6894 ] final   57.22 input  -60.11 | X-H torsion
[ 7974 7965 7964 7962 ] final  -87.15 input  175.53 | X-H torsion
[ 8008 7997 7996 7995 ] final  145.38 input   59.86 | X-H torsion
[ 10167 10162 10161 10158 ] final   82.60 input  -65.29 | X-H torsion
[ 10718 10713 10712 10709 ] final  167.43 input   66.30 | X-H torsion
[ 10763 10752 10751 10750 ] final   44.63 input  -60.55 | X-H torsion
[ 11005 11000 10999 10996 ] final   91.37 input  -57.11 | X-H torsion

> <Gold.Protein.ActiveResidues>
 VAL166  LYS551  ARG553  GLY616  TRP617  ASP618  TYR619  PRO620  LYS621  CYS622 
 ASP623  PHE694  ASN695  SER759  ASP760  ASP761  ALA762  ILE779  LEU786  VAL792 
 PHE793  MET794  SER795  GLU796  ALA797  LYS798  CYS799  TRP800  GLU811  SER814 

> <Gold.Protein.RotatedAtoms>
  152.3711  134.6732  160.0175 H   0  0  0  0  0  0  0  0  0  0  0  0  # atno 6907 bound_to 6896
  151.7025  133.3306  159.3278 H   0  0  0  0  0  0  0  0  0  0  0  0  # atno 6908 bound_to 6896
  150.7674  134.6538  159.6347 H   0  0  0  0  0  0  0  0  0  0  0  0  # atno 6909 bound_to 6896
  145.4704  140.9560  143.1920 H   0  0  0  0  0  0  0  0  0  0  0  0  # atno 7974 bound_to 7965
  156.2884  140.2210  156.5205 H   0  0  0  0  0  0  0  0  0  0  0  0  # atno 8008 bound_to 7997
  154.7532  140.0479  157.0933 H   0  0  0  0  0  0  0  0  0  0  0  0  # atno 8009 bound_to 7997
  155.0083  140.3110  155.4843 H   0  0  0  0  0  0  0  0  0  0  0  0  # atno 8010 bound_to 7997
  139.9271  144.6176  150.8382 H   0  0  0  0  0  0  0  0  0  0  0  0  # atno 10167 bound_to 10162
  157.0517  131.0315  151.2678 H   0  0  0  0  0  0  0  0  0  0  0  0  # atno 10718 bound_to 10713
  152.9838  135.6065  154.3305 H   0  0  0  0  0  0  0  0  0  0  0  0  # atno 10763 bound_to 10752
  154.3008  135.2773  155.2613 H   0  0  0  0  0  0  0  0  0  0  0  0  # atno 10764 bound_to 10752
  154.4866  135.5903  153.6485 H   0  0  0  0  0  0  0  0  0  0  0  0  # atno 10765 bound_to 10752
  139.8840  134.8670  156.3419 H   0  0  0  0  0  0  0  0  0  0  0  0  # atno 11005 bound_to 11000
  144.7948  139.6255  143.7097 LP  0  0  0  0  0  0  0  0  0  0  0  0  # atno 17320 bound_to 7965
  146.2400  139.5981  142.9498 LP  0  0  0  0  0  0  0  0  0  0  0  0  # atno 17321 bound_to 7965
  140.7647  143.3256  151.2523 LP  0  0  0  0  0  0  0  0  0  0  0  0  # atno 17342 bound_to 10162
  139.6813  143.9849  152.2810 LP  0  0  0  0  0  0  0  0  0  0  0  0  # atno 17343 bound_to 10162
  157.5025  130.7888  149.7619 LP  0  0  0  0  0  0  0  0  0  0  0  0  # atno 17370 bound_to 10713
  156.0006  130.3882  150.2622 LP  0  0  0  0  0  0  0  0  0  0  0  0  # atno 17371 bound_to 10713
  140.9653  133.7362  156.0458 LP  0  0  0  0  0  0  0  0  0  0  0  0  # atno 17394 bound_to 11000
  140.7939  134.3586  157.5457 LP  0  0  0  0  0  0  0  0  0  0  0  0  # atno 17395 bound_to 11000

$$$$
