AV-unprocessed.smi:713|AV-procd|sdf|3480|dock2
  -GOLD-   22720 0473D 1   1.00000     0.00000
 Structure written by MMmdl.
 41 42  0  0  0  0  0  0  0  0  1 V2000
  151.8728  144.7121  158.6919 C   0  0  0  0  0  0  0  0  0  0  0  0
  152.3910  143.2714  158.8573 C   0  0  2  0  0  0  0  0  0  0  0  0
  151.4213  142.2208  158.2961 C   0  0  0  0  0  0  0  0  0  0  0  0
  150.3534  141.9832  158.8619 O   0  0  0  0  0  0  0  0  0  0  0  0
  151.8197  141.5886  157.1810 N   0  0  0  0  0  0  0  0  0  0  0  0
  151.0939  140.5162  156.5091 C   0  0  1  0  0  0  0  0  0  0  0  0
  150.0548  141.0907  155.5250 C   0  0  0  0  0  0  0  0  0  0  0  0
  149.3268  139.9780  154.7545 C   0  0  0  0  0  0  0  0  0  0  0  0
  150.3166  139.0334  154.0489 C   0  0  0  0  0  0  0  0  0  0  0  0
  151.4149  138.4747  154.9825 C   0  0  2  0  0  0  0  0  0  0  0  0
  150.8122  137.1364  156.1265 S   0  0  0  0  0  0  0  0  0  0  0  0
  151.2636  137.7961  157.7843 C   0  0  0  0  0  0  0  0  0  0  0  0
  149.3451  137.0884  156.0367 O   0  0  0  0  0  0  0  0  0  0  0  0
  151.5860  135.9048  155.9130 O   0  0  0  0  0  0  0  0  0  0  0  0
  152.0975  139.6127  155.7674 C   0  0  0  0  0  0  0  0  0  0  0  0
  152.6928  142.9753  160.2517 N   0  0  0  0  0  0  0  0  0  0  0  0
  153.3851  141.9027  160.7801 C   0  0  0  0  0  0  0  0  0  0  0  0
  153.4299  142.0711  162.1342 C   0  0  0  0  0  0  0  0  0  0  0  0
  152.7331  143.2932  162.3452 C   0  0  0  0  0  0  0  0  0  0  0  0
  152.2951  143.8318  161.2189 N   0  0  0  0  0  0  0  0  0  0  0  0
  151.6636  144.9381  157.6458 H   0  0  0  0  0  0  0  0  0  0  0  0
  152.6142  145.4321  159.0392 H   0  0  0  0  0  0  0  0  0  0  0  0
  150.9569  144.8840  159.2586 H   0  0  0  0  0  0  0  0  0  0  0  0
  153.3187  143.1951  158.2860 H   0  0  0  0  0  0  0  0  0  0  0  0
  152.7131  141.8481  156.7877 H   0  0  0  0  0  0  0  0  0  0  0  0
  150.5808  139.9227  157.2666 H   0  0  0  0  0  0  0  0  0  0  0  0
  149.3236  141.6993  156.0580 H   0  0  0  0  0  0  0  0  0  0  0  0
  150.5492  141.7551  154.8148 H   0  0  0  0  0  0  0  0  0  0  0  0
  148.6820  139.4217  155.4322 H   0  0  0  0  0  0  0  0  0  0  0  0
  148.6603  140.4234  154.0158 H   0  0  0  0  0  0  0  0  0  0  0  0
  149.7758  138.2254  153.5587 H   0  0  0  0  0  0  0  0  0  0  0  0
  150.8018  139.5895  153.2458 H   0  0  0  0  0  0  0  0  0  0  0  0
  152.1752  137.9978  154.3635 H   0  0  0  0  0  0  0  0  0  0  0  0
  150.8493  137.1447  158.5533 H   0  0  0  0  0  0  0  0  0  0  0  0
  150.8550  138.7989  157.9051 H   0  0  0  0  0  0  0  0  0  0  0  0
  152.3470  137.8252  157.8919 H   0  0  0  0  0  0  0  0  0  0  0  0
  152.6754  140.2202  155.0693 H   0  0  0  0  0  0  0  0  0  0  0  0
  152.8201  139.1980  156.4712 H   0  0  0  0  0  0  0  0  0  0  0  0
  153.7865  141.1190  160.1541 H   0  0  0  0  0  0  0  0  0  0  0  0
  153.8932  141.4220  162.8624 H   0  0  0  0  0  0  0  0  0  0  0  0
  152.5356  143.8023  163.2770 H   0  0  0  0  0  0  0  0  0  0  0  0
  1  2  1  0  0  0  0
  1 21  1  0  0  0  0
  1 22  1  0  0  0  0
  1 23  1  0  0  0  0
  2  3  1  0  0  0  0
  2 16  1  0  0  0  0
  2 24  1  0  0  0  0
  3  4  2  0  0  0  0
  3  5  1  0  0  0  0
  5  6  1  0  0  0  0
  5 25  1  0  0  0  0
  6 15  1  0  0  0  0
  6  7  1  0  0  0  0
  6 26  1  0  0  0  0
  7  8  1  0  0  0  0
  7 27  1  0  0  0  0
  7 28  1  0  0  0  0
  8  9  1  0  0  0  0
  8 29  1  0  0  0  0
  8 30  1  0  0  0  0
  9 10  1  0  0  0  0
  9 31  1  0  0  0  0
  9 32  1  0  0  0  0
 10 11  1  0  0  0  0
 10 15  1  0  0  0  0
 10 33  1  0  0  0  0
 11 12  1  0  0  0  0
 11 13  2  0  0  0  0
 11 14  2  0  0  0  0
 12 34  1  0  0  0  0
 12 35  1  0  0  0  0
 12 36  1  0  0  0  0
 15 37  1  0  0  0  0
 15 38  1  0  0  0  0
 16 20  1  0  0  0  0
 16 17  1  0  0  0  0
 17 18  2  0  0  0  0
 17 39  1  0  0  0  0
 18 19  1  0  0  0  0
 18 40  1  0  0  0  0
 19 20  2  0  0  0  0
 19 41  1  0  0  0  0
M  END
> <s_m_source_file>
AV-unprocessed.smi

> <i_m_source_file_index>
713

> <i_lp_mmshare_version>
43012

> <i_f3d_flags>
0

> <s_epik_input>
bjFbY0hdW2NIXVtjSF1uMVtDQEhdKFtDSDNdKUMoPU8pW05IXVtDQEBIXTJbQ0gyXVtDSDJdW0NIMl1bQ0BIXShbQ0gyXTIpUyg9TykoPU8pW0NIM10=

> <s_epik_cmdline>
J2VwaWtfcHl0aG9uJywgJy1waCcsICc3LjAnLCAnLXRuJywgJzgnLCAnLW1hJywgJzIwMCcsICctbWV0YWxfYmluZGluZycsICctaW1hZScsICc8aW5maWxlLm1hZT4nLCAnLW9tYWUnLCAnPG91dGZpbGUubWFlPic=

> <r_lp_tautomer_probability>
1

> <r_epik_Ionization_Penalty>
4.07816e-05

> <r_epik_Ionization_Penalty_Charging>
0

> <r_epik_Ionization_Penalty_Neutral>
4.07816e-05

> <r_epik_State_Penalty>
-0

> <r_epik_Charging_Adjusted_Penalty>
0

> <i_epik_Tot_Q>
0

> <i_epik_Tot_abs_Q>
0

> <r_epik_Metal_State_Penalty>
-0

> <b_epik_Metal_Only>
0

> <s_lp_Force_Field>
OPLS_2005

> <r_lp_Energy>
4.30009

> <b_lp_Chiralities_Consistent>
1

> <s_lp_Variant>
AV-unprocessed.smi:713-7

> <Gold.Version>
5.8.1

> <Gold.Id.Protein>
6NUR|6NUR_protein|mol2

> <Gold.PLP.Fitness>
46.4813

> <Gold.PLP.PLP>
-44.7408

> <Gold.PLP.part.hbond>
-1.7318

> <Gold.PLP.part.metal>
0.0000

> <Gold.PLP.part.buried>
-3.4558

> <Gold.PLP.part.nonpolar>
-39.8844

> <Gold.PLP.part.repulsive>
0.3156

> <Gold.PLP.ligand.clash>
0.0000

> <Gold.PLP.ligand.torsion>
0.7556

> <Gold.PLP.Chemscore.Hbond>
1.0000

> <Gold.PLP.Chemscore.CHOScore>
0.0000

> <Gold.PLP.Chemscore.Metal>
0.0000

> <Gold.Chemscore.Hbonds>
donor molecule, donor type, donor heavy atom, donor atom, acceptor molecule, acceptor atom, score
      P1  H 10752 10764       L1    14  1.00

> <Gold.PLP.Chemscore.Internal.Correction>
0.2518

> <Gold.Rescore>
     Score         DG    S(hbond)    S(metal)    S(lipo)     H(rot)  DE(clash)    DE(int)     intcor
     15.30     -16.84       0.99        0.00     106.49       1.72       0.51       1.02       ----

> <Gold.Chemscore.Fitness>
15.2993

> <Gold.Chemscore.DG>
-16.8357

> <Gold.Chemscore.ZeroCoef>
-5.4800

> <Gold.Chemscore.Hbond>
0.9918

> <Gold.Chemscore.Metal>
0.0000

> <Gold.Chemscore.Lipo>
106.4864

> <Gold.Chemscore.Internal_Hbond>
0.0000

> <Gold.Chemscore.DEClash>
0.5126

> <Gold.Chemscore.DEInternal>
1.0238

> <Gold.Chemscore.Rot>
1.7249

> <Gold.Chemscore.Internal.Correction>
   9.000000E+99

> <Gold.Chemscore.Hbonds>
donor molecule, donor type, donor heavy atom, donor atom, acceptor molecule, acceptor atom, score
      P1  H 10752 10764       L1    14  1.00

> <Gold.Chemscore.Hbond.Weighted>
-3.3125

> <Gold.Chemscore.Metal.Weighted>
-0.0000

> <Gold.Chemscore.Lipo.Weighted>
-12.4589

> <Gold.Chemscore.Internal_Hbond.Weighted>
0.0000

> <Gold.Chemscore.DEClash.Weighted>
0.5126

> <Gold.Chemscore.DEInternal.Weighted>
1.0238

> <Gold.Chemscore.Rot.Weighted>
4.4157

> <Gold.Chemscore.Internal.Correction.Weighted>
   9.000000E+99

> <Gold.Protein.RotatedTorsions>
[ 6907 6896 6895 6894 ] final   16.40 input  -60.11 | X-H torsion
[ 7974 7965 7964 7962 ] final   95.21 input  175.53 | X-H torsion
[ 8008 7997 7996 7995 ] final  127.04 input   59.86 | X-H torsion
[ 10167 10162 10161 10158 ] final   58.24 input  -65.29 | X-H torsion
[ 10718 10713 10712 10709 ] final -127.14 input   66.30 | X-H torsion
[ 10763 10752 10751 10750 ] final  -46.37 input  -60.55 | X-H torsion
[ 11005 11000 10999 10996 ] final   -1.51 input  -57.11 | X-H torsion

> <Gold.Protein.ActiveResidues>
 VAL166  LYS551  ARG553  GLY616  TRP617  ASP618  TYR619  PRO620  LYS621  CYS622 
 ASP623  PHE694  ASN695  SER759  ASP760  ASP761  ALA762  ILE779  LEU786  VAL792 
 PHE793  MET794  SER795  GLU796  ALA797  LYS798  CYS799  TRP800  GLU811  SER814 

> <Gold.Protein.RotatedAtoms>
  151.8333  135.0614  160.0439 H   0  0  0  0  0  0  0  0  0  0  0  0  # atno 6907 bound_to 6896
  152.2864  133.5514  159.5538 H   0  0  0  0  0  0  0  0  0  0  0  0  # atno 6908 bound_to 6896
  150.7211  134.0407  159.3807 H   0  0  0  0  0  0  0  0  0  0  0  0  # atno 6909 bound_to 6896
  145.4552  139.2290  143.3018 H   0  0  0  0  0  0  0  0  0  0  0  0  # atno 7974 bound_to 7965
  156.2880  140.2678  156.2209 H   0  0  0  0  0  0  0  0  0  0  0  0  # atno 8008 bound_to 7997
  155.0169  140.0387  157.2440 H   0  0  0  0  0  0  0  0  0  0  0  0  # atno 8009 bound_to 7997
  154.7469  140.2735  155.6330 H   0  0  0  0  0  0  0  0  0  0  0  0  # atno 8010 bound_to 7997
  140.1893  144.4102  150.6578 H   0  0  0  0  0  0  0  0  0  0  0  0  # atno 10167 bound_to 10162
  156.1830  130.6744  151.0328 H   0  0  0  0  0  0  0  0  0  0  0  0  # atno 10718 bound_to 10713
  154.0439  135.6640  153.4793 H   0  0  0  0  0  0  0  0  0  0  0  0  # atno 10763 bound_to 10752
  153.0490  135.5096  154.7815 H   0  0  0  0  0  0  0  0  0  0  0  0  # atno 10764 bound_to 10752
  154.6800  135.3043  154.9592 H   0  0  0  0  0  0  0  0  0  0  0  0  # atno 10765 bound_to 10752
  140.6481  133.9429  155.8364 H   0  0  0  0  0  0  0  0  0  0  0  0  # atno 11005 bound_to 11000
  146.2482  140.5315  142.8905 LP  0  0  0  0  0  0  0  0  0  0  0  0  # atno 17320 bound_to 7965
  144.8037  140.6260  143.6461 LP  0  0  0  0  0  0  0  0  0  0  0  0  # atno 17321 bound_to 7965
  140.6466  143.2215  151.6171 LP  0  0  0  0  0  0  0  0  0  0  0  0  # atno 17342 bound_to 10162
  139.5262  144.3051  152.1041 LP  0  0  0  0  0  0  0  0  0  0  0  0  # atno 17343 bound_to 10162
  157.6880  131.0819  150.7187 LP  0  0  0  0  0  0  0  0  0  0  0  0  # atno 17370 bound_to 10713
  156.7244  130.4690  149.5515 LP  0  0  0  0  0  0  0  0  0  0  0  0  # atno 17371 bound_to 10713
  141.0557  134.0420  157.3726 LP  0  0  0  0  0  0  0  0  0  0  0  0  # atno 17394 bound_to 11000
  139.9055  135.0178  156.7468 LP  0  0  0  0  0  0  0  0  0  0  0  0  # atno 17395 bound_to 11000

$$$$
