AV-unprocessed.smi:2764|AV-procd|sdf|10640|dock3
  -GOLD-   2272015 93D 1   1.00000     0.00000
 Structure written by MMmdl.
 47 49  0  0  0  0  0  0  0  0  2 V2000
  148.0234  141.1259  155.9676 O   0  0  0  0  0  0  0  0  0  0  0  0
  148.7969  140.2014  156.2181 C   0  0  0  0  0  0  0  0  0  0  0  0
  149.8953  140.2969  156.9880 N   0  0  0  0  0  0  0  0  0  0  0  0
  150.3729  141.4294  157.7004 C   0  0  0  0  0  0  0  0  0  0  0  0
  151.5664  141.2185  158.4279 C   0  0  0  0  0  0  0  0  0  0  0  0
  152.1201  142.2779  159.1732 C   0  0  0  0  0  0  0  0  0  0  0  0
  151.4633  143.5211  159.1708 C   0  0  0  0  0  0  0  0  0  0  0  0
  151.9570  144.5682  159.8731 F   0  0  0  0  0  0  0  0  0  0  0  0
  150.2800  143.6485  158.4203 C   0  0  0  0  0  0  0  0  0  0  0  0
  149.7484  142.6341  157.7051 N   0  0  0  0  0  0  0  0  0  0  0  0
  148.6439  138.9524  155.7472 N   0  0  0  0  0  0  0  0  0  0  0  0
  147.5677  138.4465  154.8916 C   0  0  2  0  0  0  0  0  0  0  0  0
  147.4763  136.9084  154.8910 C   0  0  0  0  0  0  0  0  0  0  0  0
  146.3126  136.4301  154.0061 C   0  0  0  0  0  0  0  0  0  0  0  0
  146.4380  136.9576  152.6215 N   0  3  1  0  0  0  0  0  0  0  0  0
  145.4213  136.3955  151.6946 C   0  0  0  0  0  0  0  0  0  0  0  0
  145.3236  134.8617  151.8044 C   0  0  2  0  0  0  0  0  0  0  0  0
  146.4498  134.0841  151.1502 C   0  0  0  0  0  0  0  0  0  0  0  0
  145.8315  132.6990  150.9830 C   0  0  0  0  0  0  0  0  0  0  0  0
  144.4314  132.9112  150.8298 O   0  0  0  0  0  0  0  0  0  0  0  0
  144.1171  134.2788  151.0680 C   0  0  0  0  0  0  0  0  0  0  0  0
  146.4805  138.4442  152.6049 C   0  0  0  0  0  0  0  0  0  0  0  0
  147.6533  138.9737  153.4458 C   0  0  0  0  0  0  0  0  0  0  0  0
  150.4457  139.4573  157.0918 H   0  0  0  0  0  0  0  0  0  0  0  0
  152.0565  140.2558  158.4192 H   0  0  0  0  0  0  0  0  0  0  0  0
  153.0310  142.1374  159.7363 H   0  0  0  0  0  0  0  0  0  0  0  0
  149.7451  144.5864  158.3937 H   0  0  0  0  0  0  0  0  0  0  0  0
  149.3437  138.2755  156.0153 H   0  0  0  0  0  0  0  0  0  0  0  0
  146.6460  138.8318  155.3296 H   0  0  0  0  0  0  0  0  0  0  0  0
  148.4030  136.4673  154.5232 H   0  0  0  0  0  0  0  0  0  0  0  0
  147.3408  136.5399  155.9085 H   0  0  0  0  0  0  0  0  0  0  0  0
  146.3098  135.3395  153.9858 H   0  0  0  0  0  0  0  0  0  0  0  0
  145.3581  136.7440  154.4322 H   0  0  0  0  0  0  0  0  0  0  0  0
  144.4397  136.8030  151.9417 H   0  0  0  0  0  0  0  0  0  0  0  0
  145.6164  136.7081  150.6672 H   0  0  0  0  0  0  0  0  0  0  0  0
  145.2556  134.5729  152.8549 H   0  0  0  0  0  0  0  0  0  0  0  0
  146.6877  134.5050  150.1721 H   0  0  0  0  0  0  0  0  0  0  0  0
  147.3624  134.0624  151.7464 H   0  0  0  0  0  0  0  0  0  0  0  0
  146.2482  132.1590  150.1327 H   0  0  0  0  0  0  0  0  0  0  0  0
  145.9941  132.0983  151.8787 H   0  0  0  0  0  0  0  0  0  0  0  0
  143.1916  134.3807  151.6353 H   0  0  0  0  0  0  0  0  0  0  0  0
  143.9774  134.7714  150.1047 H   0  0  0  0  0  0  0  0  0  0  0  0
  146.5807  138.8076  151.5831 H   0  0  0  0  0  0  0  0  0  0  0  0
  145.5381  138.8405  152.9865 H   0  0  0  0  0  0  0  0  0  0  0  0
  147.6469  140.0642  153.4430 H   0  0  0  0  0  0  0  0  0  0  0  0
  148.5887  138.6682  152.9762 H   0  0  0  0  0  0  0  0  0  0  0  0
  147.3339  136.6351  152.2841 H   0  0  0  0  0  0  0  0  0  0  0  0
  1  2  2  0  0  0  0
  2  3  1  0  0  0  0
  2 11  1  0  0  0  0
  3  4  1  0  0  0  0
  3 24  1  0  0  0  0
  4 10  1  0  0  0  0
  4  5  2  0  0  0  0
  5  6  1  0  0  0  0
  5 25  1  0  0  0  0
  6  7  2  0  0  0  0
  6 26  1  0  0  0  0
  7  8  1  0  0  0  0
  7  9  1  0  0  0  0
  9 10  2  0  0  0  0
  9 27  1  0  0  0  0
 11 12  1  0  0  0  0
 11 28  1  0  0  0  0
 12 23  1  0  0  0  0
 12 13  1  0  0  0  0
 12 29  1  0  0  0  0
 13 14  1  0  0  0  0
 13 30  1  0  0  0  0
 13 31  1  0  0  0  0
 14 15  1  0  0  0  0
 14 32  1  0  0  0  0
 14 33  1  0  0  0  0
 15 16  1  0  0  0  0
 15 22  1  0  0  0  0
 15 47  1  0  0  0  0
 16 17  1  0  0  0  0
 16 34  1  0  0  0  0
 16 35  1  0  0  0  0
 17 21  1  0  0  0  0
 17 18  1  0  0  0  0
 17 36  1  0  0  0  0
 18 19  1  0  0  0  0
 18 37  1  0  0  0  0
 18 38  1  0  0  0  0
 19 20  1  0  0  0  0
 19 39  1  0  0  0  0
 19 40  1  0  0  0  0
 20 21  1  0  0  0  0
 21 41  1  0  0  0  0
 21 42  1  0  0  0  0
 22 23  1  0  0  0  0
 22 43  1  0  0  0  0
 22 44  1  0  0  0  0
 23 45  1  0  0  0  0
 23 46  1  0  0  0  0
M  CHG  1  15   1
M  END
> <s_m_source_file>
AV-unprocessed.smi

> <i_m_source_file_index>
2764

> <i_lp_mmshare_version>
43012

> <i_f3d_flags>
0

> <s_epik_input>
bjFbY0hdYyhGKVtjSF1bY0hdYzFbTkhdQyg9TylbTkhdW0NIXTJbQ0gyXVtDSDJdTihbQ0gyXVtDSDJdMilbQ0gyXVtDQEBIXTNbQ0gyXVtDSDJdT1tDSDJdMw==

> <s_epik_cmdline>
J2VwaWtfcHl0aG9uJywgJy1waCcsICc3LjAnLCAnLXRuJywgJzgnLCAnLW1hJywgJzIwMCcsICctbWV0YWxfYmluZGluZycsICctaW1hZScsICc8aW5maWxlLm1hZT4nLCAnLW9tYWUnLCAnPG91dGZpbGUubWFlPic=

> <r_epik_Ionization_Penalty>
0.0075076

> <r_epik_Ionization_Penalty_Charging>
0.00747775

> <r_epik_Ionization_Penalty_Neutral>
2.98483e-05

> <r_epik_State_Penalty>
0.00558817

> <r_epik_Charging_Adjusted_Penalty>
0.0130659

> <i_epik_Tot_Q>
1

> <i_epik_Tot_abs_Q>
1

> <r_epik_Metal_State_Penalty>
-0

> <b_epik_Metal_Only>
0

> <s_lp_Force_Field>
OPLS_2005

> <r_lp_Energy>
38.4399

> <b_lp_Chiralities_Consistent>
1

> <s_lp_Variant>
AV-unprocessed.smi:2764-1

> <Gold.Version>
5.8.1

> <Gold.Id.Protein>
6NUR|6NUR_protein|mol2

> <Gold.PLP.Fitness>
41.1106

> <Gold.PLP.PLP>
-32.5868

> <Gold.PLP.part.hbond>
-1.0000

> <Gold.PLP.part.metal>
0.0000

> <Gold.PLP.part.buried>
-4.9367

> <Gold.PLP.part.nonpolar>
-27.9290

> <Gold.PLP.part.repulsive>
1.2511

> <Gold.PLP.ligand.clash>
0.0000

> <Gold.PLP.ligand.torsion>
0.3040

> <Gold.PLP.Chemscore.Hbond>
2.0000

> <Gold.PLP.Chemscore.CHOScore>
1.0277

> <Gold.PLP.Chemscore.Metal>
0.0000

> <Gold.Chemscore.Hbonds>
donor molecule, donor type, donor heavy atom, donor atom, acceptor molecule, acceptor atom, score
      L1  H    15    47       P1  7948  2.00
      L1  C     9    27       P1  8028  0.04
      L1  C     9    27       P1  8029  0.96

> <Gold.PLP.Chemscore.Internal.Correction>
0.0486

> <Gold.Rescore>
     Score         DG    S(hbond)    S(metal)    S(lipo)     H(rot)  DE(clash)    DE(int)     intcor
     13.18     -14.91       1.00        0.00      84.63       1.49       0.09       1.63       ----

> <Gold.Chemscore.Fitness>
13.1845

> <Gold.Chemscore.DG>
-14.9071

> <Gold.Chemscore.ZeroCoef>
-5.4800

> <Gold.Chemscore.Hbond>
0.9992

> <Gold.Chemscore.Metal>
0.0000

> <Gold.Chemscore.Lipo>
84.6310

> <Gold.Chemscore.Internal_Hbond>
0.0000

> <Gold.Chemscore.DEClash>
0.0897

> <Gold.Chemscore.DEInternal>
1.6329

> <Gold.Chemscore.Rot>
1.4891

> <Gold.Chemscore.Internal.Correction>
   9.000000E+99

> <Gold.Chemscore.Hbonds>
donor molecule, donor type, donor heavy atom, donor atom, acceptor molecule, acceptor atom, score
      L1  H    15    47       P1  7948  1.00

> <Gold.Chemscore.Hbond.Weighted>
-3.3374

> <Gold.Chemscore.Metal.Weighted>
-0.0000

> <Gold.Chemscore.Lipo.Weighted>
-9.9018

> <Gold.Chemscore.Internal_Hbond.Weighted>
0.0000

> <Gold.Chemscore.DEClash.Weighted>
0.0897

> <Gold.Chemscore.DEInternal.Weighted>
1.6329

> <Gold.Chemscore.Rot.Weighted>
3.8121

> <Gold.Chemscore.Internal.Correction.Weighted>
   9.000000E+99

> <Gold.Protein.RotatedTorsions>
[ 6907 6896 6895 6894 ] final   19.01 input  -60.11 | X-H torsion
[ 7974 7965 7964 7962 ] final  -20.98 input  175.53 | X-H torsion
[ 8008 7997 7996 7995 ] final  167.40 input   59.86 | X-H torsion
[ 10167 10162 10161 10158 ] final  -22.29 input  -65.29 | X-H torsion
[ 10718 10713 10712 10709 ] final  134.77 input   66.30 | X-H torsion
[ 10763 10752 10751 10750 ] final   36.43 input  -60.55 | X-H torsion
[ 11005 11000 10999 10996 ] final -174.16 input  -57.11 | X-H torsion

> <Gold.Protein.ActiveResidues>
 VAL166  LYS551  ARG553  GLY616  TRP617  ASP618  TYR619  PRO620  LYS621  CYS622 
 ASP623  PHE694  ASN695  SER759  ASP760  ASP761  ALA762  ILE779  LEU786  VAL792 
 PHE793  MET794  SER795  GLU796  ALA797  LYS798  CYS799  TRP800  GLU811  SER814 

> <Gold.Protein.RotatedAtoms>
  151.8742  135.0478  160.0482 H   0  0  0  0  0  0  0  0  0  0  0  0  # atno 6907 bound_to 6896
  152.2564  133.5255  159.5364 H   0  0  0  0  0  0  0  0  0  0  0  0  # atno 6908 bound_to 6896
  150.7101  134.0806  159.3939 H   0  0  0  0  0  0  0  0  0  0  0  0  # atno 6909 bound_to 6896
  146.1758  140.4277  142.8514 H   0  0  0  0  0  0  0  0  0  0  0  0  # atno 7974 bound_to 7965
  156.1637  140.1618  156.8568 H   0  0  0  0  0  0  0  0  0  0  0  0  # atno 8008 bound_to 7997
  154.5186  140.0783  156.8164 H   0  0  0  0  0  0  0  0  0  0  0  0  # atno 8009 bound_to 7997
  155.3655  140.3397  155.4244 H   0  0  0  0  0  0  0  0  0  0  0  0  # atno 8010 bound_to 7997
  140.7285  143.4549  151.0463 H   0  0  0  0  0  0  0  0  0  0  0  0  # atno 10167 bound_to 10162
  157.4639  131.1075  150.9886 H   0  0  0  0  0  0  0  0  0  0  0  0  # atno 10718 bound_to 10713
  153.0077  135.6306  154.1983 H   0  0  0  0  0  0  0  0  0  0  0  0  # atno 10763 bound_to 10752
  154.1727  135.2817  155.3078 H   0  0  0  0  0  0  0  0  0  0  0  0  # atno 10764 bound_to 10752
  154.5896  135.5622  153.7325 H   0  0  0  0  0  0  0  0  0  0  0  0  # atno 10765 bound_to 10752
  140.4777  134.6105  157.4907 H   0  0  0  0  0  0  0  0  0  0  0  0  # atno 11005 bound_to 11000
  144.8234  140.6589  143.6338 LP  0  0  0  0  0  0  0  0  0  0  0  0  # atno 17320 bound_to 7965
  145.4214  139.1563  143.4072 LP  0  0  0  0  0  0  0  0  0  0  0  0  # atno 17321 bound_to 7965
  139.8228  143.7797  152.3177 LP  0  0  0  0  0  0  0  0  0  0  0  0  # atno 17342 bound_to 10162
  139.7885  144.7419  150.9988 LP  0  0  0  0  0  0  0  0  0  0  0  0  # atno 17343 bound_to 10162
  157.0674  130.5850  149.5396 LP  0  0  0  0  0  0  0  0  0  0  0  0  # atno 17370 bound_to 10713
  156.0041  130.5125  150.7768 LP  0  0  0  0  0  0  0  0  0  0  0  0  # atno 17371 bound_to 10713
  139.9846  134.7082  155.9797 LP  0  0  0  0  0  0  0  0  0  0  0  0  # atno 17394 bound_to 11000
  141.1546  133.6544  156.4122 LP  0  0  0  0  0  0  0  0  0  0  0  0  # atno 17395 bound_to 11000

$$$$
