AV-unprocessed.smi:1641|AV-procd|sdf|6557|dock4
  -GOLD-   22720 7243D 1   1.00000     0.00000
 Structure written by MMmdl.
 41 42  0  0  0  0  0  0  0  0  1 V2000
  138.1120  136.8600  154.1160 C   0  0  0  0  0  0  0  0  0  0  0  0
  139.5959  136.9401  154.0030 C   0  0  0  0  0  0  0  0  0  0  0  0
  140.4048  135.9417  154.3780 N   0  0  0  0  0  0  0  0  0  0  0  0
  141.7439  136.2468  154.1789 N   0  0  0  0  0  0  0  0  0  0  0  0
  141.9056  137.4708  153.6574 C   0  0  0  0  0  0  0  0  0  0  0  0
  143.1709  138.0385  153.3531 N   0  0  0  0  0  0  0  0  0  0  0  0
  144.3913  137.5584  153.6493 C   0  0  0  0  0  0  0  0  0  0  0  0
  144.6144  136.4928  154.2241 O   0  0  0  0  0  0  0  0  0  0  0  0
  145.3547  138.3958  153.2375 N   0  0  0  0  0  0  0  0  0  0  0  0
  146.7864  138.2065  153.4528 C   0  0  0  0  0  0  0  0  0  0  0  0
  147.4770  139.5273  153.8452 C   0  0  0  0  0  0  0  0  0  0  0  0
  148.6962  139.3879  154.6415 N   0  0  0  0  0  0  0  0  0  0  0  0
  149.7997  138.7991  153.8861 C   0  0  0  0  0  0  0  0  0  0  0  0
  151.0805  138.6522  154.7312 C   0  0  2  0  0  0  0  0  0  0  0  0
  150.9974  137.5186  155.7685 C   0  0  0  0  0  0  0  0  0  0  0  0
  151.4189  139.9021  155.3353 O   0  0  0  0  0  0  0  0  0  0  0  0
  150.3707  140.5223  156.0781 C   0  0  1  0  0  0  0  0  0  0  0  0
  150.8802  141.8760  156.5841 C   0  0  0  0  0  0  0  0  0  0  0  0
  149.1262  140.6692  155.1836 C   0  0  0  0  0  0  0  0  0  0  0  0
  140.4200  138.3604  153.3714 S   0  0  0  0  0  0  0  0  0  0  0  0
  137.7779  135.8265  154.0218 H   0  0  0  0  0  0  0  0  0  0  0  0
  137.6423  137.4504  153.3290 H   0  0  0  0  0  0  0  0  0  0  0  0
  137.7914  137.2464  155.0835 H   0  0  0  0  0  0  0  0  0  0  0  0
  143.1432  138.9208  152.8640 H   0  0  0  0  0  0  0  0  0  0  0  0
  145.0767  139.2452  152.7684 H   0  0  0  0  0  0  0  0  0  0  0  0
  146.9824  137.4177  154.1799 H   0  0  0  0  0  0  0  0  0  0  0  0
  147.2117  137.8520  152.5138 H   0  0  0  0  0  0  0  0  0  0  0  0
  147.6957  140.0994  152.9424 H   0  0  0  0  0  0  0  0  0  0  0  0
  146.7539  140.1230  154.4044 H   0  0  0  0  0  0  0  0  0  0  0  0
  149.5216  137.8221  153.4937 H   0  0  0  0  0  0  0  0  0  0  0  0
  150.0184  139.4249  153.0195 H   0  0  0  0  0  0  0  0  0  0  0  0
  151.9004  138.4062  154.0561 H   0  0  0  0  0  0  0  0  0  0  0  0
  150.8580  136.5551  155.2777 H   0  0  0  0  0  0  0  0  0  0  0  0
  150.1644  137.6525  156.4585 H   0  0  0  0  0  0  0  0  0  0  0  0
  151.9137  137.4600  156.3561 H   0  0  0  0  0  0  0  0  0  0  0  0
  150.1266  139.9039  156.9424 H   0  0  0  0  0  0  0  0  0  0  0  0
  150.1202  142.3841  157.1783 H   0  0  0  0  0  0  0  0  0  0  0  0
  151.1514  142.5307  155.7554 H   0  0  0  0  0  0  0  0  0  0  0  0
  151.7624  141.7496  157.2119 H   0  0  0  0  0  0  0  0  0  0  0  0
  149.3393  141.3623  154.3680 H   0  0  0  0  0  0  0  0  0  0  0  0
  148.3180  141.1130  155.7664 H   0  0  0  0  0  0  0  0  0  0  0  0
  1  2  1  0  0  0  0
  1 21  1  0  0  0  0
  1 22  1  0  0  0  0
  1 23  1  0  0  0  0
  2 20  1  0  0  0  0
  2  3  2  0  0  0  0
  3  4  1  0  0  0  0
  4  5  2  0  0  0  0
  5  6  1  0  0  0  0
  5 20  1  0  0  0  0
  6  7  1  0  0  0  0
  6 24  1  0  0  0  0
  7  8  2  0  0  0  0
  7  9  1  0  0  0  0
  9 10  1  0  0  0  0
  9 25  1  0  0  0  0
 10 11  1  0  0  0  0
 10 26  1  0  0  0  0
 10 27  1  0  0  0  0
 11 12  1  0  0  0  0
 11 28  1  0  0  0  0
 11 29  1  0  0  0  0
 12 19  1  0  0  0  0
 12 13  1  0  0  0  0
 13 14  1  0  0  0  0
 13 30  1  0  0  0  0
 13 31  1  0  0  0  0
 14 15  1  0  0  0  0
 14 16  1  0  0  0  0
 14 32  1  0  0  0  0
 15 33  1  0  0  0  0
 15 34  1  0  0  0  0
 15 35  1  0  0  0  0
 16 17  1  0  0  0  0
 17 18  1  0  0  0  0
 17 19  1  0  0  0  0
 17 36  1  0  0  0  0
 18 37  1  0  0  0  0
 18 38  1  0  0  0  0
 18 39  1  0  0  0  0
 19 40  1  0  0  0  0
 19 41  1  0  0  0  0
M  END
> <s_m_source_file>
AV-unprocessed.smi

> <i_m_source_file_index>
1641

> <i_lp_mmshare_version>
43012

> <i_f3d_flags>
0

> <s_epik_input>
W0NIM11jMW5uYyhzMSlbTkhdQyg9TylbTkhdW0NIMl1bQ0gyXU4yW0NIMl1bQ0BASF0oW0NIM10pT1tDQEBIXShbQ0gzXSlbQ0gyXTI=

> <s_epik_cmdline>
J2VwaWtfcHl0aG9uJywgJy1waCcsICc3LjAnLCAnLXRuJywgJzgnLCAnLW1hJywgJzIwMCcsICctbWV0YWxfYmluZGluZycsICctaW1hZScsICc8aW5maWxlLm1hZT4nLCAnLW9tYWUnLCAnPG91dGZpbGUubWFlPic=

> <r_lp_tautomer_probability>
1

> <r_epik_Ionization_Penalty>
0.221104

> <r_epik_Ionization_Penalty_Charging>
0

> <r_epik_Ionization_Penalty_Neutral>
0.221104

> <r_epik_State_Penalty>
0.209349

> <r_epik_Charging_Adjusted_Penalty>
0.209349

> <i_epik_Tot_Q>
0

> <i_epik_Tot_abs_Q>
0

> <r_epik_Metal_State_Penalty>
0.560954

> <b_epik_Metal_Only>
0

> <s_lp_Force_Field>
OPLS_2005

> <r_lp_Energy>
24.8312

> <b_lp_Chiralities_Consistent>
1

> <s_lp_Variant>
AV-unprocessed.smi:1641-2

> <Gold.Version>
5.8.1

> <Gold.Id.Protein>
6NUR|6NUR_protein|mol2

> <Gold.PLP.Fitness>
41.5601

> <Gold.PLP.PLP>
-30.7181

> <Gold.PLP.part.hbond>
-4.0000

> <Gold.PLP.part.metal>
0.0000

> <Gold.PLP.part.buried>
-3.8963

> <Gold.PLP.part.nonpolar>
-23.8893

> <Gold.PLP.part.repulsive>
0.2936

> <Gold.PLP.ligand.clash>
0.0000

> <Gold.PLP.ligand.torsion>
0.3415

> <Gold.PLP.Chemscore.Hbond>
3.8400

> <Gold.PLP.Chemscore.CHOScore>
0.0000

> <Gold.PLP.Chemscore.Metal>
0.0000

> <Gold.Chemscore.Hbonds>
donor molecule, donor type, donor heavy atom, donor atom, acceptor molecule, acceptor atom, score
      L1  H     6    24       P1 10175  1.00
      L1  H     9    25       P1 10175  0.91
      P1  H  7989  7998       L1    16  0.61
      P1  H 11000 11005       L1     3  0.98

> <Gold.PLP.Chemscore.Internal.Correction>
0.0049

> <Gold.Rescore>
     Score         DG    S(hbond)    S(metal)    S(lipo)     H(rot)  DE(clash)    DE(int)     intcor
     17.69     -20.56       3.16        0.00      73.60       1.60       1.23       1.63       ----

> <Gold.Chemscore.Fitness>
17.6890

> <Gold.Chemscore.DG>
-20.5562

> <Gold.Chemscore.ZeroCoef>
-5.4800

> <Gold.Chemscore.Hbond>
3.1601

> <Gold.Chemscore.Metal>
0.0000

> <Gold.Chemscore.Lipo>
73.5997

> <Gold.Chemscore.Internal_Hbond>
0.0000

> <Gold.Chemscore.DEClash>
1.2324

> <Gold.Chemscore.DEInternal>
1.6348

> <Gold.Chemscore.Rot>
1.5975

> <Gold.Chemscore.Internal.Correction>
   9.000000E+99

> <Gold.Chemscore.Hbonds>
donor molecule, donor type, donor heavy atom, donor atom, acceptor molecule, acceptor atom, score
      L1  H     6    24       P1 10175  0.98
      L1  H     9    25       P1 10175  0.90
      P1  H  7989  7998       L1    16  0.05
      P1  H 11000 11005       L1     3  0.79

> <Gold.Chemscore.Hbond.Weighted>
-10.5546

> <Gold.Chemscore.Metal.Weighted>
-0.0000

> <Gold.Chemscore.Lipo.Weighted>
-8.6112

> <Gold.Chemscore.Internal_Hbond.Weighted>
0.0000

> <Gold.Chemscore.DEClash.Weighted>
1.2324

> <Gold.Chemscore.DEInternal.Weighted>
1.6348

> <Gold.Chemscore.Rot.Weighted>
4.0896

> <Gold.Chemscore.Internal.Correction.Weighted>
   9.000000E+99

> <Gold.Protein.RotatedTorsions>
[ 6907 6896 6895 6894 ] final  -87.08 input  -60.11 | X-H torsion
[ 7974 7965 7964 7962 ] final -106.99 input  175.53 | X-H torsion
[ 8008 7997 7996 7995 ] final -165.49 input   59.86 | X-H torsion
[ 10167 10162 10161 10158 ] final   44.90 input  -65.29 | X-H torsion
[ 10718 10713 10712 10709 ] final   71.13 input   66.30 | X-H torsion
[ 10763 10752 10751 10750 ] final   58.99 input  -60.55 | X-H torsion
[ 11005 11000 10999 10996 ] final   62.67 input  -57.11 | X-H torsion

> <Gold.Protein.ActiveResidues>
 VAL166  LYS551  ARG553  GLY616  TRP617  ASP618  TYR619  PRO620  LYS621  CYS622 
 ASP623  PHE694  ASN695  SER759  ASP760  ASP761  ALA762  ILE779  LEU786  VAL792 
 PHE793  MET794  SER795  GLU796  ALA797  LYS798  CYS799  TRP800  GLU811  SER814 

> <Gold.Protein.RotatedAtoms>
  150.6866  134.2951  159.4682 H   0  0  0  0  0  0  0  0  0  0  0  0  # atno 6907 bound_to 6896
  152.0852  134.9442  160.0582 H   0  0  0  0  0  0  0  0  0  0  0  0  # atno 6908 bound_to 6896
  152.0779  133.4103  159.4525 H   0  0  0  0  0  0  0  0  0  0  0  0  # atno 6909 bound_to 6896
  145.2110  140.9096  143.3314 H   0  0  0  0  0  0  0  0  0  0  0  0  # atno 7974 bound_to 7965
  155.8506  140.0962  157.1677 H   0  0  0  0  0  0  0  0  0  0  0  0  # atno 8008 bound_to 7997
  154.3985  140.1384  156.3901 H   0  0  0  0  0  0  0  0  0  0  0  0  # atno 8009 bound_to 7997
  155.7966  140.3454  155.5381 H   0  0  0  0  0  0  0  0  0  0  0  0  # atno 8010 bound_to 7997
  140.3296  144.2604  150.6170 H   0  0  0  0  0  0  0  0  0  0  0  0  # atno 10167 bound_to 10162
  157.6436  130.9513  150.0747 H   0  0  0  0  0  0  0  0  0  0  0  0  # atno 10718 bound_to 10713
  152.9884  135.5587  154.5641 H   0  0  0  0  0  0  0  0  0  0  0  0  # atno 10763 bound_to 10752
  154.5055  135.2799  155.1388 H   0  0  0  0  0  0  0  0  0  0  0  0  # atno 10764 bound_to 10752
  154.2801  135.6346  153.5397 H   0  0  0  0  0  0  0  0  0  0  0  0  # atno 10765 bound_to 10752
  140.0077  134.6345  155.9830 H   0  0  0  0  0  0  0  0  0  0  0  0  # atno 11005 bound_to 11000
  144.9856  139.3740  143.6240 LP  0  0  0  0  0  0  0  0  0  0  0  0  # atno 17320 bound_to 7965
  146.3397  139.9016  142.8793 LP  0  0  0  0  0  0  0  0  0  0  0  0  # atno 17321 bound_to 7965
  140.5409  143.2224  151.8086 LP  0  0  0  0  0  0  0  0  0  0  0  0  # atno 17342 bound_to 10162
  139.4859  144.4601  151.9551 LP  0  0  0  0  0  0  0  0  0  0  0  0  # atno 17343 bound_to 10162
  156.1741  130.3647  149.9125 LP  0  0  0  0  0  0  0  0  0  0  0  0  # atno 17370 bound_to 10713
  156.7093  130.8964  151.3608 LP  0  0  0  0  0  0  0  0  0  0  0  0  # atno 17371 bound_to 10713
  141.1688  133.6537  156.4577 LP  0  0  0  0  0  0  0  0  0  0  0  0  # atno 17394 bound_to 11000
  140.4612  134.6840  157.5086 LP  0  0  0  0  0  0  0  0  0  0  0  0  # atno 17395 bound_to 11000

$$$$
