AV-unprocessed.smi:837|AV-procd|sdf|3904|dock7
  -GOLD-   22720 1363D 1   1.00000     0.00000
 Structure written by MMmdl.
 49 51  0  0  0  0  0  0  0  0  3 V2000
  150.6325  142.4220  157.5208 C   0  0  0  0  0  0  0  0  0  0  0  0
  151.2983  141.5162  158.5797 C   0  0  2  0  0  0  0  0  0  0  0  0
  152.4889  142.2378  159.2479 C   0  0  0  0  0  0  0  0  0  0  0  0
  153.1003  141.4019  160.3824 C   0  0  0  0  0  0  0  0  0  0  0  0
  153.5340  140.0188  159.8796 C   0  0  0  0  0  0  0  0  0  0  0  0
  152.3599  139.2772  159.2181 C   0  0  0  0  0  0  0  0  0  0  0  0
  151.7041  140.0934  158.0740 C   0  0  2  0  0  0  0  0  0  0  0  0
  152.5965  140.1618  156.9267 N   0  5  0  0  0  0  0  0  0  0  0  0
  152.0146  139.5329  155.8803 C   0  0  0  0  0  0  0  0  0  0  0  0
  152.4918  139.3862  154.7552 O   0  0  0  0  0  0  0  0  0  0  0  0
  150.8065  139.0434  156.2193 N   0  0  0  0  0  0  0  0  0  0  0  0
  149.9454  138.2532  155.3316 C   0  0  0  0  0  0  0  0  0  0  0  0
  150.2543  136.7599  155.4673 C   0  0  0  0  0  0  0  0  0  0  0  0
  151.3817  136.3335  155.2188 O   0  0  0  0  0  0  0  0  0  0  0  0
  149.2323  135.9785  155.8458 N   0  0  0  0  0  0  0  0  0  0  0  0
  149.2650  134.5225  155.9404 C   0  0  0  0  0  0  0  0  0  0  0  0
  149.5237  133.8235  154.5861 C   0  0  0  0  0  0  0  0  0  0  0  0
  149.5940  132.3049  154.6613 C   0  0  0  0  0  0  0  0  0  0  0  0
  148.7236  131.5072  153.8842 C   0  0  0  0  0  0  0  0  0  0  0  0
  148.8012  130.1024  153.9782 C   0  0  0  0  0  0  0  0  0  0  0  0
  149.7376  129.5239  154.8575 C   0  0  0  0  0  0  0  0  0  0  0  0
  150.5541  130.3166  155.5851 N   0  3  0  0  0  0  0  0  0  0  0  0
  150.5197  131.6655  155.5149 C   0  0  0  0  0  0  0  0  0  0  0  0
  150.5279  139.3175  157.4982 C   0  0  0  0  0  0  0  0  0  0  0  0
  149.5184  139.0040  158.1305 O   0  0  0  0  0  0  0  0  0  0  0  0
  151.3095  142.6391  156.6943 H   0  0  0  0  0  0  0  0  0  0  0  0
  150.3365  143.3755  157.9583 H   0  0  0  0  0  0  0  0  0  0  0  0
  149.7328  141.9692  157.1046 H   0  0  0  0  0  0  0  0  0  0  0  0
  150.5512  141.3717  159.3622 H   0  0  0  0  0  0  0  0  0  0  0  0
  153.2547  142.4596  158.5035 H   0  0  0  0  0  0  0  0  0  0  0  0
  152.1641  143.1994  159.6463 H   0  0  0  0  0  0  0  0  0  0  0  0
  153.9547  141.9260  160.8117 H   0  0  0  0  0  0  0  0  0  0  0  0
  152.3714  141.2872  161.1857 H   0  0  0  0  0  0  0  0  0  0  0  0
  154.3533  140.1272  159.1678 H   0  0  0  0  0  0  0  0  0  0  0  0
  153.9242  139.4288  160.7092 H   0  0  0  0  0  0  0  0  0  0  0  0
  152.6961  138.3044  158.8567 H   0  0  0  0  0  0  0  0  0  0  0  0
  151.6139  139.0642  159.9855 H   0  0  0  0  0  0  0  0  0  0  0  0
  148.8933  138.4194  155.5687 H   0  0  0  0  0  0  0  0  0  0  0  0
  150.0701  138.5757  154.2963 H   0  0  0  0  0  0  0  0  0  0  0  0
  148.3463  136.4263  156.0316 H   0  0  0  0  0  0  0  0  0  0  0  0
  150.0000  134.2073  156.6822 H   0  0  0  0  0  0  0  0  0  0  0  0
  148.2921  134.2130  156.3222 H   0  0  0  0  0  0  0  0  0  0  0  0
  148.7367  134.1032  153.8847 H   0  0  0  0  0  0  0  0  0  0  0  0
  150.4525  134.1955  154.1530 H   0  0  0  0  0  0  0  0  0  0  0  0
  147.9960  131.9624  153.2283 H   0  0  0  0  0  0  0  0  0  0  0  0
  148.1371  129.4769  153.3998 H   0  0  0  0  0  0  0  0  0  0  0  0
  149.8508  128.4600  155.0050 H   0  0  0  0  0  0  0  0  0  0  0  0
  151.2191  132.1881  156.1506 H   0  0  0  0  0  0  0  0  0  0  0  0
  151.2206  129.8771  156.2201 H   0  0  0  0  0  0  0  0  0  0  0  0
  1  2  1  0  0  0  0
  1 26  1  0  0  0  0
  1 27  1  0  0  0  0
  1 28  1  0  0  0  0
  2  7  1  0  0  0  0
  2  3  1  0  0  0  0
  2 29  1  0  0  0  0
  3  4  1  0  0  0  0
  3 30  1  0  0  0  0
  3 31  1  0  0  0  0
  4  5  1  0  0  0  0
  4 32  1  0  0  0  0
  4 33  1  0  0  0  0
  5  6  1  0  0  0  0
  5 34  1  0  0  0  0
  5 35  1  0  0  0  0
  6  7  1  0  0  0  0
  6 36  1  0  0  0  0
  6 37  1  0  0  0  0
  7 24  1  0  0  0  0
  7  8  1  0  0  0  0
  8  9  1  0  0  0  0
  9 10  2  0  0  0  0
  9 11  1  0  0  0  0
 11 12  1  0  0  0  0
 11 24  1  0  0  0  0
 12 13  1  0  0  0  0
 12 38  1  0  0  0  0
 12 39  1  0  0  0  0
 13 14  2  0  0  0  0
 13 15  1  0  0  0  0
 15 16  1  0  0  0  0
 15 40  1  0  0  0  0
 16 17  1  0  0  0  0
 16 41  1  0  0  0  0
 16 42  1  0  0  0  0
 17 18  1  0  0  0  0
 17 43  1  0  0  0  0
 17 44  1  0  0  0  0
 18 23  1  0  0  0  0
 18 19  2  0  0  0  0
 19 20  1  0  0  0  0
 19 45  1  0  0  0  0
 20 21  2  0  0  0  0
 20 46  1  0  0  0  0
 21 22  1  0  0  0  0
 21 47  1  0  0  0  0
 22 23  2  0  0  0  0
 22 49  1  0  0  0  0
 23 48  1  0  0  0  0
 24 25  2  0  0  0  0
M  CHG  1   8  -1
M  CHG  1  22   1
M  END
> <s_m_source_file>
AV-unprocessed.smi

> <i_m_source_file_index>
837

> <i_lp_mmshare_version>
43012

> <i_f3d_flags>
0

> <s_epik_input>
W0NIMl0xW0NIMl1bQ0gyXVtDSDJdW0NAQEhdKFtDSDNdKVtDQEBdMTJbTkhdQyg9TylOKEMyPU8pW0NIMl1DKD1PKVtOSF1bQ0gyXVtDSDJdYzNbY0hdW2NIXVtjSF1uW2NIXTM=

> <s_epik_cmdline>
J2VwaWtfcHl0aG9uJywgJy1waCcsICc3LjAnLCAnLXRuJywgJzgnLCAnLW1hJywgJzIwMCcsICctbWV0YWxfYmluZGluZycsICctaW1hZScsICc8aW5maWxlLm1hZT4nLCAnLW9tYWUnLCAnPG91dGZpbGUubWFlPic=

> <r_lp_tautomer_probability>
1

> <r_epik_Ionization_Penalty>
8.27169

> <r_epik_Ionization_Penalty_Charging>
8.27169

> <r_epik_Ionization_Penalty_Neutral>
1.56557e-07

> <r_epik_State_Penalty>
8.42098

> <r_epik_Charging_Adjusted_Penalty>
16.6927

> <i_epik_Tot_Q>
0

> <i_epik_Tot_abs_Q>
2

> <r_epik_Metal_State_Penalty>
4.38565

> <b_epik_Metal_Only>
1

> <s_lp_Force_Field>
OPLS_2005

> <r_lp_Energy>
17.0357

> <b_lp_Chiralities_Consistent>
1

> <s_lp_Variant>
AV-unprocessed.smi:837-13

> <Gold.Version>
5.8.1

> <Gold.Id.Protein>
6NUR|6NUR_protein|mol2

> <Gold.PLP.Fitness>
51.5599

> <Gold.PLP.PLP>
-41.4304

> <Gold.PLP.part.hbond>
-3.0000

> <Gold.PLP.part.metal>
0.0000

> <Gold.PLP.part.buried>
-4.0598

> <Gold.PLP.part.nonpolar>
-33.9988

> <Gold.PLP.part.repulsive>
0.1691

> <Gold.PLP.ligand.clash>
0.0000

> <Gold.PLP.ligand.torsion>
0.3833

> <Gold.PLP.Chemscore.Hbond>
3.6240

> <Gold.PLP.Chemscore.CHOScore>
0.0000

> <Gold.PLP.Chemscore.Metal>
0.0000

> <Gold.Chemscore.Hbonds>
donor molecule, donor type, donor heavy atom, donor atom, acceptor molecule, acceptor atom, score
      P1  H  7989  7998       L1    10  0.56
      P1  H  7997  8010       L1     8  2.00
      P1  H 10752 10764       L1    14  1.00

> <Gold.PLP.Chemscore.Internal.Correction>
0.0240

> <Gold.Rescore>
     Score         DG    S(hbond)    S(metal)    S(lipo)     H(rot)  DE(clash)    DE(int)     intcor
     18.83     -19.87       2.54        0.00      92.37       1.92       0.66       0.38       ----

> <Gold.Chemscore.Fitness>
18.8259

> <Gold.Chemscore.DG>
-19.8725

> <Gold.Chemscore.ZeroCoef>
-5.4800

> <Gold.Chemscore.Hbond>
2.5430

> <Gold.Chemscore.Metal>
0.0000

> <Gold.Chemscore.Lipo>
92.3739

> <Gold.Chemscore.Internal_Hbond>
0.0000

> <Gold.Chemscore.DEClash>
0.6621

> <Gold.Chemscore.DEInternal>
0.3846

> <Gold.Chemscore.Rot>
1.9175

> <Gold.Chemscore.Internal.Correction>
   9.000000E+99

> <Gold.Chemscore.Hbonds>
donor molecule, donor type, donor heavy atom, donor atom, acceptor molecule, acceptor atom, score
      P1  H  7989  7998       L1    10  0.38
      P1  H  7997  8010       L1     8  0.49
      P1  H 10752 10764       L1    14  1.00

> <Gold.Chemscore.Hbond.Weighted>
-8.4935

> <Gold.Chemscore.Metal.Weighted>
-0.0000

> <Gold.Chemscore.Lipo.Weighted>
-10.8077

> <Gold.Chemscore.Internal_Hbond.Weighted>
0.0000

> <Gold.Chemscore.DEClash.Weighted>
0.6621

> <Gold.Chemscore.DEInternal.Weighted>
0.3846

> <Gold.Chemscore.Rot.Weighted>
4.9087

> <Gold.Chemscore.Internal.Correction.Weighted>
   9.000000E+99

> <Gold.Protein.RotatedTorsions>
[ 6907 6896 6895 6894 ] final -146.20 input  -60.11 | X-H torsion
[ 7974 7965 7964 7962 ] final  -57.42 input  175.53 | X-H torsion
[ 8008 7997 7996 7995 ] final   63.47 input   59.86 | X-H torsion
[ 10167 10162 10161 10158 ] final   47.89 input  -65.29 | X-H torsion
[ 10718 10713 10712 10709 ] final  -64.10 input   66.30 | X-H torsion
[ 10763 10752 10751 10750 ] final  -61.44 input  -60.55 | X-H torsion
[ 11005 11000 10999 10996 ] final  103.69 input  -57.11 | X-H torsion

> <Gold.Protein.ActiveResidues>
 VAL166  LYS551  ARG553  GLY616  TRP617  ASP618  TYR619  PRO620  LYS621  CYS622 
 ASP623  PHE694  ASN695  SER759  ASP760  ASP761  ALA762  ILE779  LEU786  VAL792 
 PHE793  MET794  SER795  GLU796  ALA797  LYS798  CYS799  TRP800  GLU811  SER814 

> <Gold.Protein.RotatedAtoms>
  151.1383  133.4989  159.2597 H   0  0  0  0  0  0  0  0  0  0  0  0  # atno 6907 bound_to 6896
  151.1682  135.0305  159.8750 H   0  0  0  0  0  0  0  0  0  0  0  0  # atno 6908 bound_to 6896
  152.5462  134.1249  159.8468 H   0  0  0  0  0  0  0  0  0  0  0  0  # atno 6909 bound_to 6896
  145.8513  140.8350  142.9984 H   0  0  0  0  0  0  0  0  0  0  0  0  # atno 7974 bound_to 7965
  155.6307  140.3496  155.4682 H   0  0  0  0  0  0  0  0  0  0  0  0  # atno 8008 bound_to 7997
  156.0005  140.1212  157.0575 H   0  0  0  0  0  0  0  0  0  0  0  0  # atno 8009 bound_to 7997
  154.4247  140.1101  156.5676 H   0  0  0  0  0  0  0  0  0  0  0  0  # atno 8010 bound_to 7997
  140.2989  144.2957  150.6223 H   0  0  0  0  0  0  0  0  0  0  0  0  # atno 10167 bound_to 10162
  156.0750  130.4229  150.1371 H   0  0  0  0  0  0  0  0  0  0  0  0  # atno 10718 bound_to 10713
  154.2846  135.6265  153.5361 H   0  0  0  0  0  0  0  0  0  0  0  0  # atno 10763 bound_to 10752
  152.9861  135.5641  154.5457 H   0  0  0  0  0  0  0  0  0  0  0  0  # atno 10764 bound_to 10752
  154.5055  135.2874  155.1361 H   0  0  0  0  0  0  0  0  0  0  0  0  # atno 10765 bound_to 10752
  139.8785  134.9272  156.5248 H   0  0  0  0  0  0  0  0  0  0  0  0  # atno 11005 bound_to 11000
  144.6729  140.0957  143.7463 LP  0  0  0  0  0  0  0  0  0  0  0  0  # atno 17320 bound_to 7965
  145.9354  139.2634  143.1300 LP  0  0  0  0  0  0  0  0  0  0  0  0  # atno 17321 bound_to 7965
  140.5668  143.2185  151.7669 LP  0  0  0  0  0  0  0  0  0  0  0  0  # atno 17342 bound_to 10162
  139.4920  144.4272  151.9912 LP  0  0  0  0  0  0  0  0  0  0  0  0  # atno 17343 bound_to 10162
  156.9415  130.9746  151.3515 LP  0  0  0  0  0  0  0  0  0  0  0  0  # atno 17370 bound_to 10713
  157.5840  130.8397  149.8563 LP  0  0  0  0  0  0  0  0  0  0  0  0  # atno 17371 bound_to 10713
  140.8424  133.8195  155.9088 LP  0  0  0  0  0  0  0  0  0  0  0  0  # atno 17394 bound_to 11000
  140.9224  134.2125  157.4918 LP  0  0  0  0  0  0  0  0  0  0  0  0  # atno 17395 bound_to 11000

$$$$
