AV-unprocessed.smi:2123|AV-procd|sdf|8649|dock8
  -GOLD-   2272011393D 1   1.00000     0.00000
 Structure written by MMmdl.
 47 48  0  0  0  0  0  0  0  0  1 V2000
  148.0777  132.3231  153.0426 C   0  0  0  0  0  0  0  0  0  0  0  0
  147.6236  133.8708  153.8672 S   0  0  0  0  0  0  0  0  0  0  0  0
  149.2319  134.3116  154.5774 C   0  0  0  0  0  0  0  0  0  0  0  0
  149.1659  135.6496  155.3331 C   0  0  0  0  0  0  0  0  0  0  0  0
  150.4967  136.4086  155.3524 C   0  0  0  0  0  0  0  0  0  0  0  0
  151.5037  135.9076  155.8541 O   0  0  0  0  0  0  0  0  0  0  0  0
  150.4824  137.6296  154.7960 N   0  0  0  0  0  0  0  0  0  0  0  0
  151.6276  138.5285  154.7043 C   0  0  0  0  0  0  0  0  0  0  0  0
  151.5917  139.6322  155.7460 C   0  0  0  0  0  0  0  0  0  0  0  0
  150.7595  140.7563  155.5822 C   0  0  0  0  0  0  0  0  0  0  0  0
  150.7609  141.7561  156.5737 C   0  0  0  0  0  0  0  0  0  0  0  0
  151.5923  141.6029  157.7093 C   0  0  0  0  0  0  0  0  0  0  0  0
  151.6164  142.5954  158.7133 N   0  0  0  0  0  0  0  0  0  0  0  0
  151.7571  143.9905  158.3010 C   0  0  0  0  0  0  0  0  0  0  0  0
  151.4247  144.9475  159.4623 C   0  0  1  0  0  0  0  0  0  0  0  0
  149.9166  145.0648  159.7474 C   0  0  0  0  0  0  0  0  0  0  0  0
  152.1687  144.5866  160.6280 O   0  0  0  0  0  0  0  0  0  0  0  0
  151.9854  143.2388  161.0601 C   0  0  2  0  0  0  0  0  0  0  0  0
  152.8461  143.0209  162.3090 C   0  0  0  0  0  0  0  0  0  0  0  0
  152.3675  142.2744  159.9226 C   0  0  0  0  0  0  0  0  0  0  0  0
  152.3926  140.5181  157.8597 N   0  0  0  0  0  0  0  0  0  0  0  0
  152.3891  139.5636  156.9059 C   0  0  0  0  0  0  0  0  0  0  0  0
  147.2089  131.8930  152.5445 H   0  0  0  0  0  0  0  0  0  0  0  0
  148.4542  131.6014  153.7676 H   0  0  0  0  0  0  0  0  0  0  0  0
  148.8517  132.5026  152.2962 H   0  0  0  0  0  0  0  0  0  0  0  0
  149.5449  133.5092  155.2470 H   0  0  0  0  0  0  0  0  0  0  0  0
  149.9641  134.3646  153.7708 H   0  0  0  0  0  0  0  0  0  0  0  0
  148.4084  136.2880  154.8763 H   0  0  0  0  0  0  0  0  0  0  0  0
  148.8522  135.4766  156.3632 H   0  0  0  0  0  0  0  0  0  0  0  0
  149.6118  137.9608  154.4063 H   0  0  0  0  0  0  0  0  0  0  0  0
  152.5636  137.9740  154.7931 H   0  0  0  0  0  0  0  0  0  0  0  0
  151.6335  138.9725  153.7084 H   0  0  0  0  0  0  0  0  0  0  0  0
  150.1326  140.8577  154.7088 H   0  0  0  0  0  0  0  0  0  0  0  0
  150.1413  142.6307  156.4433 H   0  0  0  0  0  0  0  0  0  0  0  0
  152.7844  144.1545  157.9727 H   0  0  0  0  0  0  0  0  0  0  0  0
  151.1088  144.2098  157.4516 H   0  0  0  0  0  0  0  0  0  0  0  0
  151.7687  145.9425  159.1788 H   0  0  0  0  0  0  0  0  0  0  0  0
  149.3914  145.4707  158.8826 H   0  0  0  0  0  0  0  0  0  0  0  0
  149.7312  145.7328  160.5887 H   0  0  0  0  0  0  0  0  0  0  0  0
  149.4618  144.1016  159.9770 H   0  0  0  0  0  0  0  0  0  0  0  0
  150.9434  143.0805  161.3390 H   0  0  0  0  0  0  0  0  0  0  0  0
  152.7332  142.0063  162.6918 H   0  0  0  0  0  0  0  0  0  0  0  0
  152.5591  143.7093  163.1042 H   0  0  0  0  0  0  0  0  0  0  0  0
  153.9025  143.1824  162.0929 H   0  0  0  0  0  0  0  0  0  0  0  0
  152.1923  141.2509  160.2502 H   0  0  0  0  0  0  0  0  0  0  0  0
  153.4327  142.3565  159.7022 H   0  0  0  0  0  0  0  0  0  0  0  0
  153.0454  138.7227  157.0747 H   0  0  0  0  0  0  0  0  0  0  0  0
  1  2  1  0  0  0  0
  1 23  1  0  0  0  0
  1 24  1  0  0  0  0
  1 25  1  0  0  0  0
  2  3  1  0  0  0  0
  3  4  1  0  0  0  0
  3 26  1  0  0  0  0
  3 27  1  0  0  0  0
  4  5  1  0  0  0  0
  4 28  1  0  0  0  0
  4 29  1  0  0  0  0
  5  6  2  0  0  0  0
  5  7  1  0  0  0  0
  7  8  1  0  0  0  0
  7 30  1  0  0  0  0
  8  9  1  0  0  0  0
  8 31  1  0  0  0  0
  8 32  1  0  0  0  0
  9 22  1  0  0  0  0
  9 10  2  0  0  0  0
 10 11  1  0  0  0  0
 10 33  1  0  0  0  0
 11 12  2  0  0  0  0
 11 34  1  0  0  0  0
 12 13  1  0  0  0  0
 12 21  1  0  0  0  0
 13 20  1  0  0  0  0
 13 14  1  0  0  0  0
 14 15  1  0  0  0  0
 14 35  1  0  0  0  0
 14 36  1  0  0  0  0
 15 16  1  0  0  0  0
 15 17  1  0  0  0  0
 15 37  1  0  0  0  0
 16 38  1  0  0  0  0
 16 39  1  0  0  0  0
 16 40  1  0  0  0  0
 17 18  1  0  0  0  0
 18 19  1  0  0  0  0
 18 20  1  0  0  0  0
 18 41  1  0  0  0  0
 19 42  1  0  0  0  0
 19 43  1  0  0  0  0
 19 44  1  0  0  0  0
 20 45  1  0  0  0  0
 20 46  1  0  0  0  0
 21 22  2  0  0  0  0
 22 47  1  0  0  0  0
M  END
> <s_m_source_file>
AV-unprocessed.smi

> <i_m_source_file_index>
2123

> <i_lp_mmshare_version>
43012

> <i_f3d_flags>
0

> <s_epik_input>
W0NIM11TW0NIMl1bQ0gyXUMoPU8pW05IXVtDSDJdYzFbY0hdW2NIXWMobltjSF0xKU4yW0NIMl1bQ0BASF0oW0NIM10pT1tDQEBIXShbQ0gzXSlbQ0gyXTI=

> <s_epik_cmdline>
J2VwaWtfcHl0aG9uJywgJy1waCcsICc3LjAnLCAnLXRuJywgJzgnLCAnLW1hJywgJzIwMCcsICctbWV0YWxfYmluZGluZycsICctaW1hZScsICc8aW5maWxlLm1hZT4nLCAnLW9tYWUnLCAnPG91dGZpbGUubWFlPic=

> <r_lp_tautomer_probability>
1

> <r_epik_Ionization_Penalty>
0.00642497

> <r_epik_Ionization_Penalty_Charging>
0

> <r_epik_Ionization_Penalty_Neutral>
0.00642497

> <r_epik_State_Penalty>
0.0047515

> <r_epik_Charging_Adjusted_Penalty>
0.0047515

> <i_epik_Tot_Q>
0

> <i_epik_Tot_abs_Q>
0

> <r_epik_Metal_State_Penalty>
-0

> <b_epik_Metal_Only>
0

> <s_lp_Force_Field>
OPLS_2005

> <r_lp_Energy>
17.9077

> <b_lp_Chiralities_Consistent>
1

> <s_lp_Variant>
AV-unprocessed.smi:2123-3

> <Gold.Version>
5.8.1

> <Gold.Id.Protein>
6NUR|6NUR_protein|mol2

> <Gold.PLP.Fitness>
49.0029

> <Gold.PLP.PLP>
-47.0077

> <Gold.PLP.part.hbond>
-1.7344

> <Gold.PLP.part.metal>
0.0000

> <Gold.PLP.part.buried>
-3.4110

> <Gold.PLP.part.nonpolar>
-41.5891

> <Gold.PLP.part.repulsive>
0.2316

> <Gold.PLP.ligand.clash>
0.0000

> <Gold.PLP.ligand.torsion>
0.7321

> <Gold.PLP.Chemscore.Hbond>
1.0000

> <Gold.PLP.Chemscore.CHOScore>
0.0000

> <Gold.PLP.Chemscore.Metal>
0.0000

> <Gold.Chemscore.Hbonds>
donor molecule, donor type, donor heavy atom, donor atom, acceptor molecule, acceptor atom, score
      P1  H 10752 10764       L1     6  1.00

> <Gold.PLP.Chemscore.Internal.Correction>
0.4594

> <Gold.Rescore>
     Score         DG    S(hbond)    S(metal)    S(lipo)     H(rot)  DE(clash)    DE(int)     intcor
     17.41     -18.39       1.00        0.00     119.16       1.70       0.37       0.61       ----

> <Gold.Chemscore.Fitness>
17.4144

> <Gold.Chemscore.DG>
-18.3923

> <Gold.Chemscore.ZeroCoef>
-5.4800

> <Gold.Chemscore.Hbond>
0.9985

> <Gold.Chemscore.Metal>
0.0000

> <Gold.Chemscore.Lipo>
119.1636

> <Gold.Chemscore.Internal_Hbond>
0.0000

> <Gold.Chemscore.DEClash>
0.3681

> <Gold.Chemscore.DEInternal>
0.6098

> <Gold.Chemscore.Rot>
1.7049

> <Gold.Chemscore.Internal.Correction>
   9.000000E+99

> <Gold.Chemscore.Hbonds>
donor molecule, donor type, donor heavy atom, donor atom, acceptor molecule, acceptor atom, score
      P1  H 10752 10764       L1     6  1.00

> <Gold.Chemscore.Hbond.Weighted>
-3.3348

> <Gold.Chemscore.Metal.Weighted>
-0.0000

> <Gold.Chemscore.Lipo.Weighted>
-13.9421

> <Gold.Chemscore.Internal_Hbond.Weighted>
0.0000

> <Gold.Chemscore.DEClash.Weighted>
0.3681

> <Gold.Chemscore.DEInternal.Weighted>
0.6098

> <Gold.Chemscore.Rot.Weighted>
4.3647

> <Gold.Chemscore.Internal.Correction.Weighted>
   9.000000E+99

> <Gold.Protein.RotatedTorsions>
[ 6907 6896 6895 6894 ] final   22.04 input  -60.11 | X-H torsion
[ 7974 7965 7964 7962 ] final  -70.16 input  175.53 | X-H torsion
[ 8008 7997 7996 7995 ] final -160.01 input   59.86 | X-H torsion
[ 10167 10162 10161 10158 ] final -113.11 input  -65.29 | X-H torsion
[ 10718 10713 10712 10709 ] final   81.30 input   66.30 | X-H torsion
[ 10763 10752 10751 10750 ] final  -40.19 input  -60.55 | X-H torsion
[ 11005 11000 10999 10996 ] final -174.20 input  -57.11 | X-H torsion

> <Gold.Protein.ActiveResidues>
 VAL166  LYS551  ARG553  GLY616  TRP617  ASP618  TYR619  PRO620  LYS621  CYS622 
 ASP623  PHE694  ASN695  SER759  ASP760  ASP761  ALA762  ILE779  LEU786  VAL792 
 PHE793  MET794  SER795  GLU796  ALA797  LYS798  CYS799  TRP800  GLU811  SER814 

> <Gold.Protein.RotatedAtoms>
  151.9210  135.0298  160.0521 H   0  0  0  0  0  0  0  0  0  0  0  0  # atno 6907 bound_to 6896
  152.2200  133.4971  159.5165 H   0  0  0  0  0  0  0  0  0  0  0  0  # atno 6908 bound_to 6896
  150.6997  134.1272  159.4099 H   0  0  0  0  0  0  0  0  0  0  0  0  # atno 6909 bound_to 6896
  145.6945  140.9140  143.0764 H   0  0  0  0  0  0  0  0  0  0  0  0  # atno 7974 bound_to 7965
  155.7711  140.0852  157.2107 H   0  0  0  0  0  0  0  0  0  0  0  0  # atno 8008 bound_to 7997
  154.3996  140.1525  156.3000 H   0  0  0  0  0  0  0  0  0  0  0  0  # atno 8009 bound_to 7997
  155.8746  140.3424  155.5848 H   0  0  0  0  0  0  0  0  0  0  0  0  # atno 8010 bound_to 7997
  140.1154  143.4490  152.1725 H   0  0  0  0  0  0  0  0  0  0  0  0  # atno 10167 bound_to 10162
  157.6829  130.9998  150.2207 H   0  0  0  0  0  0  0  0  0  0  0  0  # atno 10718 bound_to 10713
  153.9419  135.6760  153.4744 H   0  0  0  0  0  0  0  0  0  0  0  0  # atno 10763 bound_to 10752
  153.0927  135.4866  154.8718 H   0  0  0  0  0  0  0  0  0  0  0  0  # atno 10764 bound_to 10752
  154.7373  135.3152  154.8748 H   0  0  0  0  0  0  0  0  0  0  0  0  # atno 10765 bound_to 10752
  140.4771  134.6110  157.4905 H   0  0  0  0  0  0  0  0  0  0  0  0  # atno 11005 bound_to 11000
  144.6986  139.8866  143.7450 LP  0  0  0  0  0  0  0  0  0  0  0  0  # atno 17320 bound_to 7965
  146.0852  139.3840  143.0440 LP  0  0  0  0  0  0  0  0  0  0  0  0  # atno 17321 bound_to 7965
  139.5597  144.7397  151.4191 LP  0  0  0  0  0  0  0  0  0  0  0  0  # atno 17342 bound_to 10162
  140.6902  143.7879  150.7244 LP  0  0  0  0  0  0  0  0  0  0  0  0  # atno 17343 bound_to 10162
  156.2859  130.3739  149.7889 LP  0  0  0  0  0  0  0  0  0  0  0  0  # atno 17370 bound_to 10713
  156.5563  130.8364  151.3315 LP  0  0  0  0  0  0  0  0  0  0  0  0  # atno 17371 bound_to 10713
  139.9849  134.7078  155.9792 LP  0  0  0  0  0  0  0  0  0  0  0  0  # atno 17394 bound_to 11000
  141.1549  133.6544  156.4129 LP  0  0  0  0  0  0  0  0  0  0  0  0  # atno 17395 bound_to 11000

$$$$
