AV-unprocessed.smi:3331|AV-procd|sdf|12824|dock6
  -GOLD-   2272019203D 1   1.00000     0.00000
 Structure written by MMmdl.
 46 47  0  0  0  0  0  0  0  0  1 V2000
  151.8946  144.7412  158.6253 C   0  0  0  0  0  0  0  0  0  0  0  0
  152.1926  143.2712  158.2998 C   0  0  1  0  0  0  0  0  0  0  0  0
  152.9558  142.5773  159.4512 C   0  0  0  0  0  0  0  0  0  0  0  0
  153.1532  141.0644  159.2020 C   0  0  1  0  0  0  0  0  0  0  0  0
  153.7973  140.3711  160.4101 C   0  0  0  0  0  0  0  0  0  0  0  0
  151.8111  140.4063  158.8171 C   0  0  0  0  0  0  0  0  0  0  0  0
  151.2720  141.1054  157.6441 N   0  0  0  0  0  0  0  0  0  0  0  0
  151.2772  140.5530  156.4047 C   0  0  0  0  0  0  0  0  0  0  0  0
  150.9622  141.2012  155.4041 O   0  0  0  0  0  0  0  0  0  0  0  0
  151.6687  139.0676  156.2153 C   0  0  2  0  0  0  0  0  0  0  0  0
  151.7497  138.7343  154.7173 C   0  0  0  0  0  0  0  0  0  0  0  0
  150.7277  138.1441  156.8718 N   0  0  0  0  0  0  0  0  0  0  0  0
  151.0070  136.7379  156.5926 C   0  0  0  0  0  0  0  0  0  0  0  0
  150.1752  136.2678  155.3892 C   0  0  0  0  0  0  0  0  0  0  0  0
  150.1760  134.8208  155.2682 N   0  0  0  0  0  0  0  0  0  0  0  0
  149.4666  134.0323  154.3870 C   0  0  0  0  0  0  0  0  0  0  0  0
  149.7737  132.7320  154.6682 C   0  0  0  0  0  0  0  0  0  0  0  0
  150.6910  132.8284  155.7518 C   0  0  0  0  0  0  0  0  0  0  0  0
  150.9315  134.0798  156.1075 N   0  0  0  0  0  0  0  0  0  0  0  0
  150.9047  142.4865  157.9795 C   0  0  0  0  0  0  0  0  0  0  0  0
  151.2514  144.8312  159.5012 H   0  0  0  0  0  0  0  0  0  0  0  0
  151.3929  145.2329  157.7914 H   0  0  0  0  0  0  0  0  0  0  0  0
  152.8134  145.2919  158.8282 H   0  0  0  0  0  0  0  0  0  0  0  0
  152.8283  143.2529  157.4129 H   0  0  0  0  0  0  0  0  0  0  0  0
  153.9229  143.0590  159.6003 H   0  0  0  0  0  0  0  0  0  0  0  0
  152.3999  142.7145  160.3798 H   0  0  0  0  0  0  0  0  0  0  0  0
  153.8351  140.9505  158.3575 H   0  0  0  0  0  0  0  0  0  0  0  0
  153.1607  140.4391  161.2927 H   0  0  0  0  0  0  0  0  0  0  0  0
  154.7584  140.8234  160.6557 H   0  0  0  0  0  0  0  0  0  0  0  0
  153.9729  139.3144  160.2070 H   0  0  0  0  0  0  0  0  0  0  0  0
  151.9540  139.3388  158.6433 H   0  0  0  0  0  0  0  0  0  0  0  0
  151.1018  140.4759  159.6432 H   0  0  0  0  0  0  0  0  0  0  0  0
  152.6433  138.8758  156.6620 H   0  0  0  0  0  0  0  0  0  0  0  0
  152.4587  139.3813  154.1998 H   0  0  0  0  0  0  0  0  0  0  0  0
  150.7803  138.8500  154.2302 H   0  0  0  0  0  0  0  0  0  0  0  0
  152.0765  137.7057  154.5627 H   0  0  0  0  0  0  0  0  0  0  0  0
  149.7678  138.3518  156.6378 H   0  0  0  0  0  0  0  0  0  0  0  0
  152.0709  136.6300  156.3797 H   0  0  0  0  0  0  0  0  0  0  0  0
  150.7921  136.0978  157.4490 H   0  0  0  0  0  0  0  0  0  0  0  0
  149.1449  136.6187  155.4636 H   0  0  0  0  0  0  0  0  0  0  0  0
  150.5824  136.6887  154.4689 H   0  0  0  0  0  0  0  0  0  0  0  0
  148.8053  134.4576  153.6468 H   0  0  0  0  0  0  0  0  0  0  0  0
  149.3976  131.8467  154.1776 H   0  0  0  0  0  0  0  0  0  0  0  0
  151.1860  132.0317  156.2870 H   0  0  0  0  0  0  0  0  0  0  0  0
  150.2498  142.4785  158.8522 H   0  0  0  0  0  0  0  0  0  0  0  0
  150.3231  142.9843  157.2061 H   0  0  0  0  0  0  0  0  0  0  0  0
  1  2  1  0  0  0  0
  1 21  1  0  0  0  0
  1 22  1  0  0  0  0
  1 23  1  0  0  0  0
  2 20  1  0  0  0  0
  2  3  1  0  0  0  0
  2 24  1  0  0  0  0
  3  4  1  0  0  0  0
  3 25  1  0  0  0  0
  3 26  1  0  0  0  0
  4  5  1  0  0  0  0
  4  6  1  0  0  0  0
  4 27  1  0  0  0  0
  5 28  1  0  0  0  0
  5 29  1  0  0  0  0
  5 30  1  0  0  0  0
  6  7  1  0  0  0  0
  6 31  1  0  0  0  0
  6 32  1  0  0  0  0
  7  8  1  0  0  0  0
  7 20  1  0  0  0  0
  8  9  2  0  0  0  0
  8 10  1  0  0  0  0
 10 11  1  0  0  0  0
 10 12  1  0  0  0  0
 10 33  1  0  0  0  0
 11 34  1  0  0  0  0
 11 35  1  0  0  0  0
 11 36  1  0  0  0  0
 12 13  1  0  0  0  0
 12 37  1  0  0  0  0
 13 14  1  0  0  0  0
 13 38  1  0  0  0  0
 13 39  1  0  0  0  0
 14 15  1  0  0  0  0
 14 40  1  0  0  0  0
 14 41  1  0  0  0  0
 15 19  1  0  0  0  0
 15 16  1  0  0  0  0
 16 17  2  0  0  0  0
 16 42  1  0  0  0  0
 17 18  1  0  0  0  0
 17 43  1  0  0  0  0
 18 19  2  0  0  0  0
 18 44  1  0  0  0  0
 20 45  1  0  0  0  0
 20 46  1  0  0  0  0
M  END
> <s_m_source_file>
AV-unprocessed.smi

> <i_m_source_file_index>
3331

> <i_lp_mmshare_version>
43012

> <i_f3d_flags>
0

> <s_epik_input>
W0NIM11bQ0BASF0xW0NIMl1bQ0BASF0oW0NIM10pW0NIMl1OKFtDSDJdMSlDKD1PKVtDQEhdKFtDSDNdKVtOSF1bQ0gyXVtDSDJdbjJbY0hdW2NIXVtjSF1uMg==

> <s_epik_cmdline>
J2VwaWtfcHl0aG9uJywgJy1waCcsICc3LjAnLCAnLXRuJywgJzgnLCAnLW1hJywgJzIwMCcsICctbWV0YWxfYmluZGluZycsICctaW1hZScsICc8aW5maWxlLm1hZT4nLCAnLW9tYWUnLCAnPG91dGZpbGUubWFlPic=

> <r_lp_tautomer_probability>
1

> <r_epik_Ionization_Penalty>
0.767994

> <r_epik_Ionization_Penalty_Charging>
0

> <r_epik_Ionization_Penalty_Neutral>
0.767994

> <r_epik_State_Penalty>
0.795453

> <r_epik_Charging_Adjusted_Penalty>
0.795453

> <i_epik_Tot_Q>
0

> <i_epik_Tot_abs_Q>
0

> <r_epik_Metal_State_Penalty>
0.794784

> <b_epik_Metal_Only>
0

> <s_lp_Force_Field>
OPLS_2005

> <r_lp_Energy>
28.4276

> <b_lp_Chiralities_Consistent>
1

> <s_lp_Variant>
AV-unprocessed.smi:3331-8

> <Gold.Version>
5.8.1

> <Gold.Id.Protein>
6NUR|6NUR_protein|mol2

> <Gold.PLP.Fitness>
45.7921

> <Gold.PLP.PLP>
-41.7351

> <Gold.PLP.part.hbond>
-1.0000

> <Gold.PLP.part.metal>
0.0000

> <Gold.PLP.part.buried>
-4.1004

> <Gold.PLP.part.nonpolar>
-36.9332

> <Gold.PLP.part.repulsive>
0.0655

> <Gold.PLP.ligand.clash>
0.0000

> <Gold.PLP.ligand.torsion>
0.4005

> <Gold.PLP.Chemscore.Hbond>
0.5920

> <Gold.PLP.Chemscore.CHOScore>
1.0000

> <Gold.PLP.Chemscore.Metal>
0.0000

> <Gold.Chemscore.Hbonds>
donor molecule, donor type, donor heavy atom, donor atom, acceptor molecule, acceptor atom, score
      P1  H  7989  7998       L1     9  0.59
      L1  C    16    42       P1  7948  1.00

> <Gold.PLP.Chemscore.Internal.Correction>
0.0819

> <Gold.Rescore>
     Score         DG    S(hbond)    S(metal)    S(lipo)     H(rot)  DE(clash)    DE(int)     intcor
     15.22     -15.65       0.56        0.00     107.43       1.66       0.03       0.39       ----

> <Gold.Chemscore.Fitness>
15.2237

> <Gold.Chemscore.DG>
-15.6495

> <Gold.Chemscore.ZeroCoef>
-5.4800

> <Gold.Chemscore.Hbond>
0.5575

> <Gold.Chemscore.Metal>
0.0000

> <Gold.Chemscore.Lipo>
107.4320

> <Gold.Chemscore.Internal_Hbond>
0.0000

> <Gold.Chemscore.DEClash>
0.0323

> <Gold.Chemscore.DEInternal>
0.3935

> <Gold.Chemscore.Rot>
1.6649

> <Gold.Chemscore.Internal.Correction>
   9.000000E+99

> <Gold.Chemscore.Hbonds>
donor molecule, donor type, donor heavy atom, donor atom, acceptor molecule, acceptor atom, score
      P1  H  7989  7998       L1     9  0.54

> <Gold.Chemscore.Hbond.Weighted>
-1.8620

> <Gold.Chemscore.Metal.Weighted>
-0.0000

> <Gold.Chemscore.Lipo.Weighted>
-12.5695

> <Gold.Chemscore.Internal_Hbond.Weighted>
0.0000

> <Gold.Chemscore.DEClash.Weighted>
0.0323

> <Gold.Chemscore.DEInternal.Weighted>
0.3935

> <Gold.Chemscore.Rot.Weighted>
4.2621

> <Gold.Chemscore.Internal.Correction.Weighted>
   9.000000E+99

> <Gold.Protein.RotatedTorsions>
[ 6907 6896 6895 6894 ] final  -49.46 input  -60.11 | X-H torsion
[ 7974 7965 7964 7962 ] final   -6.18 input  175.53 | X-H torsion
[ 8008 7997 7996 7995 ] final -103.29 input   59.86 | X-H torsion
[ 10167 10162 10161 10158 ] final  -29.49 input  -65.29 | X-H torsion
[ 10718 10713 10712 10709 ] final -102.59 input   66.30 | X-H torsion
[ 10763 10752 10751 10750 ] final   15.43 input  -60.55 | X-H torsion
[ 11005 11000 10999 10996 ] final -143.72 input  -57.11 | X-H torsion

> <Gold.Protein.ActiveResidues>
 VAL166  LYS551  ARG553  GLY616  TRP617  ASP618  TYR619  PRO620  LYS621  CYS622 
 ASP623  PHE694  ASN695  SER759  ASP760  ASP761  ALA762  ILE779  LEU786  VAL792 
 PHE793  MET794  SER795  GLU796  ALA797  LYS798  CYS799  TRP800  GLU811  SER814 

> <Gold.Protein.RotatedAtoms>
  150.8803  134.8192  159.7219 H   0  0  0  0  0  0  0  0  0  0  0  0  # atno 6907 bound_to 6896
  152.4773  134.4807  159.9674 H   0  0  0  0  0  0  0  0  0  0  0  0  # atno 6908 bound_to 6896
  151.4883  133.3492  159.2884 H   0  0  0  0  0  0  0  0  0  0  0  0  # atno 6909 bound_to 6896
  146.2337  140.2132  142.8336 H   0  0  0  0  0  0  0  0  0  0  0  0  # atno 7974 bound_to 7965
  154.8688  140.0423  157.1711 H   0  0  0  0  0  0  0  0  0  0  0  0  # atno 8008 bound_to 7997
  154.8761  140.2965  155.5431 H   0  0  0  0  0  0  0  0  0  0  0  0  # atno 8009 bound_to 7997
  156.2999  140.2420  156.3757 H   0  0  0  0  0  0  0  0  0  0  0  0  # atno 8010 bound_to 7997
  140.7260  143.3924  151.1406 H   0  0  0  0  0  0  0  0  0  0  0  0  # atno 10167 bound_to 10162
  156.0234  130.5427  150.7131 H   0  0  0  0  0  0  0  0  0  0  0  0  # atno 10718 bound_to 10713
  153.1526  135.6781  153.8859 H   0  0  0  0  0  0  0  0  0  0  0  0  # atno 10763 bound_to 10752
  153.8280  135.3121  155.3417 H   0  0  0  0  0  0  0  0  0  0  0  0  # atno 10764 bound_to 10752
  154.7874  135.4854  154.0063 H   0  0  0  0  0  0  0  0  0  0  0  0  # atno 10765 bound_to 10752
  140.8097  134.2759  157.4946 H   0  0  0  0  0  0  0  0  0  0  0  0  # atno 11005 bound_to 11000
  144.9690  140.8350  143.5467 LP  0  0  0  0  0  0  0  0  0  0  0  0  # atno 17320 bound_to 7965
  145.2111  139.2204  143.5142 LP  0  0  0  0  0  0  0  0  0  0  0  0  # atno 17321 bound_to 7965
  139.7532  143.8747  152.3082 LP  0  0  0  0  0  0  0  0  0  0  0  0  # atno 17342 bound_to 10162
  139.8608  144.7118  150.9102 LP  0  0  0  0  0  0  0  0  0  0  0  0  # atno 17343 bound_to 10162
  157.4764  131.0898  151.0585 LP  0  0  0  0  0  0  0  0  0  0  0  0  # atno 17370 bound_to 10713
  157.1031  130.5990  149.5464 LP  0  0  0  0  0  0  0  0  0  0  0  0  # atno 17371 bound_to 10713
  139.8715  134.9476  156.3972 LP  0  0  0  0  0  0  0  0  0  0  0  0  # atno 17394 bound_to 11000
  140.9211  133.7645  155.9907 LP  0  0  0  0  0  0  0  0  0  0  0  0  # atno 17395 bound_to 11000

$$$$
