AV-unprocessed.smi:2241|AV-procd|sdf|9059|dock5
  -GOLD-   2272012263D 1   1.00000     0.00000
 Structure written by MMmdl.
 45 47  0  0  0  0  0  0  0  0  1 V2000
  152.0753  135.6382  156.7967 C   0  0  0  0  0  0  0  0  0  0  0  0
  150.8234  135.2653  156.0295 C   0  0  0  0  0  0  0  0  0  0  0  0
  150.6246  133.9410  155.5919 C   0  0  0  0  0  0  0  0  0  0  0  0
  149.4589  133.6045  154.8800 C   0  0  0  0  0  0  0  0  0  0  0  0
  148.4903  134.5883  154.6023 C   0  0  0  0  0  0  0  0  0  0  0  0
  147.0692  134.1505  153.7227 Cl  0  0  0  0  0  0  0  0  0  0  0  0
  148.6753  135.9202  155.0339 C   0  0  0  0  0  0  0  0  0  0  0  0
  147.6859  136.8280  154.7221 O   0  0  0  0  0  0  0  0  0  0  0  0
  147.8356  138.1747  155.1500 C   0  0  0  0  0  0  0  0  0  0  0  0
  148.8614  138.8574  154.2328 C   0  0  1  0  0  0  0  0  0  0  0  0
  148.5053  138.5503  152.8999 O   0  0  0  0  0  0  0  0  0  0  0  0
  148.8633  140.3935  154.4079 C   0  0  0  0  0  0  0  0  0  0  0  0
  149.6824  140.8196  155.5527 N   0  0  0  0  0  0  0  0  0  0  0  0
  149.0200  141.5431  156.5618 C   0  0  0  0  0  0  0  0  0  0  0  0
  149.6366  141.9480  157.6262 N   0  0  0  0  0  0  0  0  0  0  0  0
  150.9993  141.6717  157.7884 C   0  0  0  0  0  0  0  0  0  0  0  0
  151.6754  142.1786  159.0549 C   0  0  0  0  0  0  0  0  0  0  0  0
  152.8074  143.2016  158.8601 C   0  0  0  0  0  0  0  0  0  0  0  0
  153.5517  142.4968  159.9994 C   0  0  0  0  0  0  0  0  0  0  0  0
  152.7277  141.2455  159.6750 C   0  0  0  0  0  0  0  0  0  0  0  0
  151.6851  141.0014  156.8320 C   0  0  0  0  0  0  0  0  0  0  0  0
  151.0151  140.5323  155.6192 C   0  0  0  0  0  0  0  0  0  0  0  0
  151.6067  139.9239  154.7270 O   0  0  0  0  0  0  0  0  0  0  0  0
  149.8520  136.2489  155.7539 C   0  0  0  0  0  0  0  0  0  0  0  0
  152.7983  134.8220  156.8004 H   0  0  0  0  0  0  0  0  0  0  0  0
  151.8260  135.8787  157.8304 H   0  0  0  0  0  0  0  0  0  0  0  0
  152.5513  136.5098  156.3460 H   0  0  0  0  0  0  0  0  0  0  0  0
  151.3625  133.1799  155.7995 H   0  0  0  0  0  0  0  0  0  0  0  0
  149.3084  132.5887  154.5453 H   0  0  0  0  0  0  0  0  0  0  0  0
  146.8720  138.6827  155.0801 H   0  0  0  0  0  0  0  0  0  0  0  0
  148.1725  138.2225  156.1872 H   0  0  0  0  0  0  0  0  0  0  0  0
  149.8473  138.4348  154.4321 H   0  0  0  0  0  0  0  0  0  0  0  0
  148.9053  137.7276  152.6635 H   0  0  0  0  0  0  0  0  0  0  0  0
  149.1596  140.8901  153.4814 H   0  0  0  0  0  0  0  0  0  0  0  0
  147.8438  140.7453  154.5755 H   0  0  0  0  0  0  0  0  0  0  0  0
  147.9610  141.7368  156.3824 H   0  0  0  0  0  0  0  0  0  0  0  0
  150.9462  142.5157  159.7938 H   0  0  0  0  0  0  0  0  0  0  0  0
  153.3275  143.1054  157.9051 H   0  0  0  0  0  0  0  0  0  0  0  0
  152.5287  144.2353  159.0659 H   0  0  0  0  0  0  0  0  0  0  0  0
  154.6260  142.3895  159.8468 H   0  0  0  0  0  0  0  0  0  0  0  0
  153.3200  142.9156  160.9801 H   0  0  0  0  0  0  0  0  0  0  0  0
  152.3854  140.6850  160.5453 H   0  0  0  0  0  0  0  0  0  0  0  0
  153.2206  140.5994  158.9461 H   0  0  0  0  0  0  0  0  0  0  0  0
  152.7389  140.8002  156.9607 H   0  0  0  0  0  0  0  0  0  0  0  0
  150.0316  137.2531  156.1065 H   0  0  0  0  0  0  0  0  0  0  0  0
  1  2  1  0  0  0  0
  1 25  1  0  0  0  0
  1 26  1  0  0  0  0
  1 27  1  0  0  0  0
  2 24  1  0  0  0  0
  2  3  2  0  0  0  0
  3  4  1  0  0  0  0
  3 28  1  0  0  0  0
  4  5  2  0  0  0  0
  4 29  1  0  0  0  0
  5  6  1  0  0  0  0
  5  7  1  0  0  0  0
  7  8  1  0  0  0  0
  7 24  2  0  0  0  0
  8  9  1  0  0  0  0
  9 10  1  0  0  0  0
  9 30  1  0  0  0  0
  9 31  1  0  0  0  0
 10 11  1  0  0  0  0
 10 12  1  0  0  0  0
 10 32  1  0  0  0  0
 11 33  1  0  0  0  0
 12 13  1  0  0  0  0
 12 34  1  0  0  0  0
 12 35  1  0  0  0  0
 13 22  1  0  0  0  0
 13 14  1  0  0  0  0
 14 15  2  0  0  0  0
 14 36  1  0  0  0  0
 15 16  1  0  0  0  0
 16 17  1  0  0  0  0
 16 21  2  0  0  0  0
 17 20  1  0  0  0  0
 17 18  1  0  0  0  0
 17 37  1  0  0  0  0
 18 19  1  0  0  0  0
 18 38  1  0  0  0  0
 18 39  1  0  0  0  0
 19 20  1  0  0  0  0
 19 40  1  0  0  0  0
 19 41  1  0  0  0  0
 20 42  1  0  0  0  0
 20 43  1  0  0  0  0
 21 22  1  0  0  0  0
 21 44  1  0  0  0  0
 22 23  2  0  0  0  0
 24 45  1  0  0  0  0
M  END
> <s_m_source_file>
AV-unprocessed.smi

> <i_m_source_file_index>
2241

> <i_lp_mmshare_version>
43012

> <i_f3d_flags>
0

> <s_epik_input>
W0NIM11jMVtjSF1bY0hdYyhDbCljKFtjSF0xKU9bQ0gyXVtDQEhdKFtPSF0pW0NIMl1uMltjSF1uYyhbY0hdYzI9TylbQ0hdM1tDSDJdW0NIMl1bQ0gyXTM=

> <s_epik_cmdline>
J2VwaWtfcHl0aG9uJywgJy1waCcsICc3LjAnLCAnLXRuJywgJzgnLCAnLW1hJywgJzIwMCcsICctbWV0YWxfYmluZGluZycsICctaW1hZScsICc8aW5maWxlLm1hZT4nLCAnLW9tYWUnLCAnPG91dGZpbGUubWFlPic=

> <r_lp_tautomer_probability>
1

> <r_epik_Ionization_Penalty>
1.78212e-05

> <r_epik_Ionization_Penalty_Charging>
5.61663e-08

> <r_epik_Ionization_Penalty_Neutral>
1.7765e-05

> <r_epik_State_Penalty>
-0

> <r_epik_Charging_Adjusted_Penalty>
5.61663e-08

> <i_epik_Tot_Q>
0

> <i_epik_Tot_abs_Q>
0

> <r_epik_Metal_State_Penalty>
-0

> <b_epik_Metal_Only>
0

> <s_lp_Force_Field>
OPLS_2005

> <r_lp_Energy>
30.2703

> <b_lp_Chiralities_Consistent>
1

> <s_lp_Variant>
AV-unprocessed.smi:2241-2

> <Gold.Version>
5.8.1

> <Gold.Id.Protein>
6NUR|6NUR_protein|mol2

> <Gold.PLP.Fitness>
44.5854

> <Gold.PLP.PLP>
-39.5030

> <Gold.PLP.part.hbond>
-2.9315

> <Gold.PLP.part.metal>
0.0000

> <Gold.PLP.part.buried>
-2.9499

> <Gold.PLP.part.nonpolar>
-33.0363

> <Gold.PLP.part.repulsive>
0.2797

> <Gold.PLP.ligand.clash>
0.0000

> <Gold.PLP.ligand.torsion>
0.6762

> <Gold.PLP.Chemscore.Hbond>
2.0000

> <Gold.PLP.Chemscore.CHOScore>
0.0000

> <Gold.PLP.Chemscore.Metal>
0.0000

> <Gold.Chemscore.Hbonds>
donor molecule, donor type, donor heavy atom, donor atom, acceptor molecule, acceptor atom, score
      L1  H    11    33       P1  7948  1.00
      P1  H  7989  7998       L1    23  1.00

> <Gold.PLP.Chemscore.Internal.Correction>
0.4348

> <Gold.Rescore>
     Score         DG    S(hbond)    S(metal)    S(lipo)     H(rot)  DE(clash)    DE(int)     intcor
     15.51     -17.25       1.94        0.00      97.19       2.38       0.02       1.73       ----

> <Gold.Chemscore.Fitness>
15.5057

> <Gold.Chemscore.DG>
-17.2524

> <Gold.Chemscore.ZeroCoef>
-5.4800

> <Gold.Chemscore.Hbond>
1.9443

> <Gold.Chemscore.Metal>
0.0000

> <Gold.Chemscore.Lipo>
97.1917

> <Gold.Chemscore.Internal_Hbond>
0.0000

> <Gold.Chemscore.DEClash>
0.0153

> <Gold.Chemscore.DEInternal>
1.7315

> <Gold.Chemscore.Rot>
2.3801

> <Gold.Chemscore.Internal.Correction>
   9.000000E+99

> <Gold.Chemscore.Hbonds>
donor molecule, donor type, donor heavy atom, donor atom, acceptor molecule, acceptor atom, score
      L1  H    11    33       P1  7948  0.97
      P1  H  7989  7998       L1    23  0.56

> <Gold.Chemscore.Hbond.Weighted>
-6.4941

> <Gold.Chemscore.Metal.Weighted>
-0.0000

> <Gold.Chemscore.Lipo.Weighted>
-11.3714

> <Gold.Chemscore.Internal_Hbond.Weighted>
0.0000

> <Gold.Chemscore.DEClash.Weighted>
0.0153

> <Gold.Chemscore.DEInternal.Weighted>
1.7315

> <Gold.Chemscore.Rot.Weighted>
6.0931

> <Gold.Chemscore.Internal.Correction.Weighted>
   9.000000E+99

> <Gold.Protein.RotatedTorsions>
[ 6907 6896 6895 6894 ] final   40.83 input  -60.11 | X-H torsion
[ 7974 7965 7964 7962 ] final  -43.27 input  175.53 | X-H torsion
[ 8008 7997 7996 7995 ] final -163.68 input   59.86 | X-H torsion
[ 10167 10162 10161 10158 ] final  146.62 input  -65.29 | X-H torsion
[ 10718 10713 10712 10709 ] final   -8.00 input   66.30 | X-H torsion
[ 10763 10752 10751 10750 ] final -126.36 input  -60.55 | X-H torsion
[ 11005 11000 10999 10996 ] final  -81.03 input  -57.11 | X-H torsion

> <Gold.Protein.ActiveResidues>
 VAL166  LYS551  ARG553  GLY616  TRP617  ASP618  TYR619  PRO620  LYS621  CYS622 
 ASP623  PHE694  ASN695  SER759  ASP760  ASP761  ALA762  ILE779  LEU786  VAL792 
 PHE793  MET794  SER795  GLU796  ALA797  LYS798  CYS799  TRP800  GLU811  SER814 

> <Gold.Protein.RotatedAtoms>
  152.1876  134.8700  160.0520 H   0  0  0  0  0  0  0  0  0  0  0  0  # atno 6907 bound_to 6896
  151.9601  133.3687  159.4040 H   0  0  0  0  0  0  0  0  0  0  0  0  # atno 6908 bound_to 6896
  150.6929  134.4173  159.5233 H   0  0  0  0  0  0  0  0  0  0  0  0  # atno 6909 bound_to 6896
  146.0035  140.7047  142.9259 H   0  0  0  0  0  0  0  0  0  0  0  0  # atno 7974 bound_to 7965
  155.8248  140.0925  157.1828 H   0  0  0  0  0  0  0  0  0  0  0  0  # atno 8008 bound_to 7997
  154.3979  140.1430  156.3603 H   0  0  0  0  0  0  0  0  0  0  0  0  # atno 8009 bound_to 7997
  155.8229  140.3445  155.5527 H   0  0  0  0  0  0  0  0  0  0  0  0  # atno 8010 bound_to 7997
  139.4904  144.5816  151.6860 H   0  0  0  0  0  0  0  0  0  0  0  0  # atno 10167 bound_to 10162
  156.7090  130.5116  149.5897 H   0  0  0  0  0  0  0  0  0  0  0  0  # atno 10718 bound_to 10713
  154.8745  135.3998  154.3418 H   0  0  0  0  0  0  0  0  0  0  0  0  # atno 10763 bound_to 10752
  153.4216  135.7023  153.6295 H   0  0  0  0  0  0  0  0  0  0  0  0  # atno 10764 bound_to 10752
  153.4955  135.3739  155.2483 H   0  0  0  0  0  0  0  0  0  0  0  0  # atno 10765 bound_to 10752
  141.1667  133.7177  156.8361 H   0  0  0  0  0  0  0  0  0  0  0  0  # atno 11005 bound_to 11000
  144.6927  140.3274  143.7222 LP  0  0  0  0  0  0  0  0  0  0  0  0  # atno 17320 bound_to 7965
  145.7451  139.1776  143.2353 LP  0  0  0  0  0  0  0  0  0  0  0  0  # atno 17321 bound_to 7965
  140.5423  144.0559  150.6093 LP  0  0  0  0  0  0  0  0  0  0  0  0  # atno 17342 bound_to 10162
  140.3585  143.2921  152.0409 LP  0  0  0  0  0  0  0  0  0  0  0  0  # atno 17343 bound_to 10162
  156.1674  130.6414  151.0795 LP  0  0  0  0  0  0  0  0  0  0  0  0  # atno 17370 bound_to 10713
  157.6943  131.0799  150.7015 LP  0  0  0  0  0  0  0  0  0  0  0  0  # atno 17371 bound_to 10713
  140.2016  134.8892  157.3176 LP  0  0  0  0  0  0  0  0  0  0  0  0  # atno 17394 bound_to 11000
  140.2181  134.4057  155.7579 LP  0  0  0  0  0  0  0  0  0  0  0  0  # atno 17395 bound_to 11000

$$$$
