AV-unprocessed.smi:2973|AV-procd|sdf|11346|dock3
  -GOLD-   2272016263D 1   1.00000     0.00000
 Structure written by MMmdl.
 48 50  0  0  0  0  0  0  0  0  2 V2000
  154.5652  138.2631  160.1350 C   0  0  0  0  0  0  0  0  0  0  0  0
  153.3981  139.2603  159.9638 C   0  0  1  0  0  0  0  0  0  0  0  0
  153.9085  140.7159  160.0349 C   0  0  0  0  0  0  0  0  0  0  0  0
  152.7567  141.7300  159.9758 C   0  0  0  0  0  0  0  0  0  0  0  0
  151.9047  141.5279  158.7161 C   0  0  0  0  0  0  0  0  0  0  0  0
  151.3761  140.0862  158.6260 C   0  0  0  0  0  0  0  0  0  0  0  0
  152.5069  139.0270  158.6997 C   0  0  1  0  0  0  0  0  0  0  0  0
  153.2904  139.0420  157.4742 N   0  5  0  0  0  0  0  0  0  0  0  0
  153.1533  137.8504  156.8484 C   0  0  0  0  0  0  0  0  0  0  0  0
  153.6661  137.5169  155.7809 O   0  0  0  0  0  0  0  0  0  0  0  0
  152.3471  137.0278  157.5468 N   0  0  0  0  0  0  0  0  0  0  0  0
  151.9674  135.6662  157.1375 C   0  0  0  0  0  0  0  0  0  0  0  0
  150.9438  135.5931  155.9911 C   0  0  0  0  0  0  0  0  0  0  0  0
  151.2292  136.0952  154.9042 O   0  0  0  0  0  0  0  0  0  0  0  0
  149.7682  134.9841  156.2220 N   0  0  0  0  0  0  0  0  0  0  0  0
  148.6827  134.8514  155.2584 C   0  0  0  0  0  0  0  0  0  0  0  0
  149.1359  134.0873  154.0028 C   0  0  0  0  0  0  0  0  0  0  0  0
  149.6186  132.6850  154.3224 C   0  0  0  0  0  0  0  0  0  0  0  0
  149.0618  131.5650  153.6685 C   0  0  0  0  0  0  0  0  0  0  0  0
  149.5457  130.2848  154.0003 C   0  0  0  0  0  0  0  0  0  0  0  0
  150.5628  130.1739  154.9677 C   0  0  0  0  0  0  0  0  0  0  0  0
  151.0545  131.3536  155.5612 C   0  0  0  0  0  0  0  0  0  0  0  0
  150.5983  132.5860  155.2496 N   0  0  0  0  0  0  0  0  0  0  0  0
  151.9073  137.6289  158.6579 C   0  0  0  0  0  0  0  0  0  0  0  0
  151.1484  137.1665  159.5110 O   0  0  0  0  0  0  0  0  0  0  0  0
  155.2826  138.3414  159.3178 H   0  0  0  0  0  0  0  0  0  0  0  0
  154.2176  137.2310  160.1753 H   0  0  0  0  0  0  0  0  0  0  0  0
  155.1059  138.4547  161.0618 H   0  0  0  0  0  0  0  0  0  0  0  0
  152.7543  139.1202  160.8342 H   0  0  0  0  0  0  0  0  0  0  0  0
  154.4723  140.8675  160.9557 H   0  0  0  0  0  0  0  0  0  0  0  0
  154.6044  140.9058  159.2166 H   0  0  0  0  0  0  0  0  0  0  0  0
  152.1303  141.6260  160.8626 H   0  0  0  0  0  0  0  0  0  0  0  0
  153.1548  142.7446  159.9945 H   0  0  0  0  0  0  0  0  0  0  0  0
  151.0695  142.2284  158.7172 H   0  0  0  0  0  0  0  0  0  0  0  0
  152.4983  141.7595  157.8310 H   0  0  0  0  0  0  0  0  0  0  0  0
  150.6739  139.9271  159.4460 H   0  0  0  0  0  0  0  0  0  0  0  0
  150.7958  139.9682  157.7090 H   0  0  0  0  0  0  0  0  0  0  0  0
  152.8582  135.1126  156.8369 H   0  0  0  0  0  0  0  0  0  0  0  0
  151.5630  135.1208  157.9918 H   0  0  0  0  0  0  0  0  0  0  0  0
  149.6105  134.6017  157.1438 H   0  0  0  0  0  0  0  0  0  0  0  0
  147.8277  134.3562  155.7219 H   0  0  0  0  0  0  0  0  0  0  0  0
  148.3521  135.8542  154.9863 H   0  0  0  0  0  0  0  0  0  0  0  0
  148.3137  134.0246  153.2881 H   0  0  0  0  0  0  0  0  0  0  0  0
  149.9367  134.6305  153.4994 H   0  0  0  0  0  0  0  0  0  0  0  0
  148.2831  131.6830  152.9294 H   0  0  0  0  0  0  0  0  0  0  0  0
  149.1443  129.4040  153.5215 H   0  0  0  0  0  0  0  0  0  0  0  0
  150.9574  129.2086  155.2477 H   0  0  0  0  0  0  0  0  0  0  0  0
  151.8343  131.3057  156.3067 H   0  0  0  0  0  0  0  0  0  0  0  0
  1  2  1  0  0  0  0
  1 26  1  0  0  0  0
  1 27  1  0  0  0  0
  1 28  1  0  0  0  0
  2  7  1  0  0  0  0
  2  3  1  0  0  0  0
  2 29  1  0  0  0  0
  3  4  1  0  0  0  0
  3 30  1  0  0  0  0
  3 31  1  0  0  0  0
  4  5  1  0  0  0  0
  4 32  1  0  0  0  0
  4 33  1  0  0  0  0
  5  6  1  0  0  0  0
  5 34  1  0  0  0  0
  5 35  1  0  0  0  0
  6  7  1  0  0  0  0
  6 36  1  0  0  0  0
  6 37  1  0  0  0  0
  7 24  1  0  0  0  0
  7  8  1  0  0  0  0
  8  9  1  0  0  0  0
  9 10  2  0  0  0  0
  9 11  1  0  0  0  0
 11 12  1  0  0  0  0
 11 24  1  0  0  0  0
 12 13  1  0  0  0  0
 12 38  1  0  0  0  0
 12 39  1  0  0  0  0
 13 14  2  0  0  0  0
 13 15  1  0  0  0  0
 15 16  1  0  0  0  0
 15 40  1  0  0  0  0
 16 17  1  0  0  0  0
 16 41  1  0  0  0  0
 16 42  1  0  0  0  0
 17 18  1  0  0  0  0
 17 43  1  0  0  0  0
 17 44  1  0  0  0  0
 18 23  1  0  0  0  0
 18 19  2  0  0  0  0
 19 20  1  0  0  0  0
 19 45  1  0  0  0  0
 20 21  2  0  0  0  0
 20 46  1  0  0  0  0
 21 22  1  0  0  0  0
 21 47  1  0  0  0  0
 22 23  2  0  0  0  0
 22 48  1  0  0  0  0
 24 25  2  0  0  0  0
M  CHG  1   8  -1
M  END
> <s_m_source_file>
AV-unprocessed.smi

> <i_m_source_file_index>
2973

> <i_lp_mmshare_version>
43012

> <i_f3d_flags>
0

> <s_epik_input>
W0NIMl0xW0NIMl1bQ0gyXVtDSDJdW0NAQEhdKFtDSDNdKVtDQF0xMltOSF1DKD1PKU4oQzI9TylbQ0gyXUMoPU8pW05IXVtDSDJdW0NIMl1jM1tjSF1bY0hdW2NIXVtjSF1uMw==

> <s_epik_cmdline>
J2VwaWtfcHl0aG9uJywgJy1waCcsICc3LjAnLCAnLXRuJywgJzgnLCAnLW1hJywgJzIwMCcsICctbWV0YWxfYmluZGluZycsICctaW1hZScsICc8aW5maWxlLm1hZT4nLCAnLW9tYWUnLCAnPG91dGZpbGUubWFlPic=

> <r_lp_tautomer_probability>
1

> <r_epik_Ionization_Penalty>
6.04175

> <r_epik_Ionization_Penalty_Charging>
6.01728

> <r_epik_Ionization_Penalty_Neutral>
0.0244696

> <r_epik_State_Penalty>
6.03712

> <r_epik_Charging_Adjusted_Penalty>
12.0544

> <i_epik_Tot_Q>
-1

> <i_epik_Tot_abs_Q>
1

> <r_epik_Metal_State_Penalty>
2.01153

> <b_epik_Metal_Only>
1

> <s_lp_Force_Field>
OPLS_2005

> <r_lp_Energy>
16.8957

> <b_lp_Chiralities_Consistent>
1

> <s_lp_Variant>
AV-unprocessed.smi:2973-10

> <Gold.Version>
5.8.1

> <Gold.Id.Protein>
6NUR|6NUR_protein|mol2

> <Gold.PLP.Fitness>
49.0338

> <Gold.PLP.PLP>
-37.4416

> <Gold.PLP.part.hbond>
-4.0000

> <Gold.PLP.part.metal>
0.0000

> <Gold.PLP.part.buried>
-3.9835

> <Gold.PLP.part.nonpolar>
-29.9443

> <Gold.PLP.part.repulsive>
0.2185

> <Gold.PLP.ligand.clash>
0.0000

> <Gold.PLP.ligand.torsion>
0.2164

> <Gold.PLP.Chemscore.Hbond>
3.9913

> <Gold.PLP.Chemscore.CHOScore>
0.0000

> <Gold.PLP.Chemscore.Metal>
0.0000

> <Gold.Chemscore.Hbonds>
donor molecule, donor type, donor heavy atom, donor atom, acceptor molecule, acceptor atom, score
      P1  H  6896  6908       L1    25  0.91
      P1  H  7997  8009       L1     8  2.00
      P1  H 10752 10764       L1    14  1.00

> <Gold.PLP.Chemscore.Internal.Correction>
0.0512

> <Gold.Rescore>
     Score         DG    S(hbond)    S(metal)    S(lipo)     H(rot)  DE(clash)    DE(int)     intcor
     16.77     -19.81       2.77        0.00      83.01       1.81       0.13       2.90       ----

> <Gold.Chemscore.Fitness>
16.7724

> <Gold.Chemscore.DG>
-19.8061

> <Gold.Chemscore.ZeroCoef>
-5.4800

> <Gold.Chemscore.Hbond>
2.7681

> <Gold.Chemscore.Metal>
0.0000

> <Gold.Chemscore.Lipo>
83.0057

> <Gold.Chemscore.Internal_Hbond>
0.0000

> <Gold.Chemscore.DEClash>
0.1348

> <Gold.Chemscore.DEInternal>
2.8989

> <Gold.Chemscore.Rot>
1.8090

> <Gold.Chemscore.Internal.Correction>
   9.000000E+99

> <Gold.Chemscore.Hbonds>
donor molecule, donor type, donor heavy atom, donor atom, acceptor molecule, acceptor atom, score
      P1  H  6896  6908       L1    25  0.82
      P1  H  7997  8009       L1     8  0.88
      P1  H 10752 10764       L1    14  0.30

> <Gold.Chemscore.Hbond.Weighted>
-9.2455

> <Gold.Chemscore.Metal.Weighted>
-0.0000

> <Gold.Chemscore.Lipo.Weighted>
-9.7117

> <Gold.Chemscore.Internal_Hbond.Weighted>
0.0000

> <Gold.Chemscore.DEClash.Weighted>
0.1348

> <Gold.Chemscore.DEInternal.Weighted>
2.8989

> <Gold.Chemscore.Rot.Weighted>
4.6310

> <Gold.Chemscore.Internal.Correction.Weighted>
   9.000000E+99

> <Gold.Protein.RotatedTorsions>
[ 6907 6896 6895 6894 ] final -136.79 input  -60.11 | X-H torsion
[ 7974 7965 7964 7962 ] final  -54.24 input  175.53 | X-H torsion
[ 8008 7997 7996 7995 ] final  170.16 input   59.86 | X-H torsion
[ 10167 10162 10161 10158 ] final -121.98 input  -65.29 | X-H torsion
[ 10718 10713 10712 10709 ] final   -8.48 input   66.30 | X-H torsion
[ 10763 10752 10751 10750 ] final  -51.80 input  -60.55 | X-H torsion
[ 11005 11000 10999 10996 ] final  131.51 input  -57.11 | X-H torsion

> <Gold.Protein.ActiveResidues>
 VAL166  LYS551  ARG553  GLY616  TRP617  ASP618  TYR619  PRO620  LYS621  CYS622 
 ASP623  PHE694  ASN695  SER759  ASP760  ASP761  ALA762  ILE779  LEU786  VAL792 
 PHE793  MET794  SER795  GLU796  ALA797  LYS798  CYS799  TRP800  GLU811  SER814 

> <Gold.Protein.RotatedAtoms>
  151.0144  133.5935  159.2678 H   0  0  0  0  0  0  0  0  0  0  0  0  # atno 6907 bound_to 6896
  151.3075  135.0784  159.9270 H   0  0  0  0  0  0  0  0  0  0  0  0  # atno 6908 bound_to 6896
  152.5308  133.9815  159.7863 H   0  0  0  0  0  0  0  0  0  0  0  0  # atno 6909 bound_to 6896
  145.8878  140.8094  142.9807 H   0  0  0  0  0  0  0  0  0  0  0  0  # atno 7974 bound_to 7965
  156.1391  140.1545  156.8948 H   0  0  0  0  0  0  0  0  0  0  0  0  # atno 8008 bound_to 7997
  154.4972  140.0835  156.7761 H   0  0  0  0  0  0  0  0  0  0  0  0  # atno 8009 bound_to 7997
  155.4112  140.3419  155.4266 H   0  0  0  0  0  0  0  0  0  0  0  0  # atno 8010 bound_to 7997
  140.0192  143.5362  152.2228 H   0  0  0  0  0  0  0  0  0  0  0  0  # atno 10167 bound_to 10162
  156.7020  130.5096  149.5914 H   0  0  0  0  0  0  0  0  0  0  0  0  # atno 10718 bound_to 10713
  154.1325  135.6518  153.4925 H   0  0  0  0  0  0  0  0  0  0  0  0  # atno 10763 bound_to 10752
  153.0191  135.5296  154.6987 H   0  0  0  0  0  0  0  0  0  0  0  0  # atno 10764 bound_to 10752
  154.6226  135.2966  155.0279 H   0  0  0  0  0  0  0  0  0  0  0  0  # atno 10765 bound_to 10752
  139.9735  134.9570  156.9449 H   0  0  0  0  0  0  0  0  0  0  0  0  # atno 11005 bound_to 11000
  144.6729  140.1483  143.7432 LP  0  0  0  0  0  0  0  0  0  0  0  0  # atno 17320 bound_to 7965
  145.8945  139.2395  143.1530 LP  0  0  0  0  0  0  0  0  0  0  0  0  # atno 17321 bound_to 7965
  139.6151  144.7617  151.2863 LP  0  0  0  0  0  0  0  0  0  0  0  0  # atno 17342 bound_to 10162
  140.7349  143.6751  150.8048 LP  0  0  0  0  0  0  0  0  0  0  0  0  # atno 17343 bound_to 10162
  156.1722  130.6444  151.0851 LP  0  0  0  0  0  0  0  0  0  0  0  0  # atno 17370 bound_to 10713
  157.6969  131.0790  150.6941 LP  0  0  0  0  0  0  0  0  0  0  0  0  # atno 17371 bound_to 10713
  140.5244  134.0875  155.7300 LP  0  0  0  0  0  0  0  0  0  0  0  0  # atno 17394 bound_to 11000
  141.1413  133.9133  157.2319 LP  0  0  0  0  0  0  0  0  0  0  0  0  # atno 17395 bound_to 11000

$$$$
