AV-unprocessed.smi:89|AV-procd|sdf|827|dock3
  -GOLD-   2262017243D 1   1.00000     0.00000
 Structure written by MMmdl.
 54 56  0  0  0  0  0  0  0  0  1 V2000
  147.8679  137.4990  157.8979 C   0  0  0  0  0  0  0  0  0  0  0  0
  147.1440  136.9340  156.6646 C   0  0  0  0  0  0  0  0  0  0  0  0
  147.7025  137.4005  155.3939 N   0  0  0  0  0  0  0  0  0  0  0  0
  146.9318  137.1738  154.3014 C   0  0  0  0  0  0  0  0  0  0  0  0
  146.8200  138.1831  153.4020 N   0  0  0  0  0  0  0  0  0  0  0  0
  146.0673  138.0293  152.3095 C   0  0  0  0  0  0  0  0  0  0  0  0
  145.3477  136.9699  151.9350 N   0  0  0  0  0  0  0  0  0  0  0  0
  145.4438  135.9580  152.8443 C   0  0  0  0  0  0  0  0  0  0  0  0
  146.2094  135.9733  154.0445 C   0  0  0  0  0  0  0  0  0  0  0  0
  146.0683  134.7609  154.7089 N   0  0  0  0  0  0  0  0  0  0  0  0
  145.2666  134.0697  153.9464 C   0  0  0  0  0  0  0  0  0  0  0  0
  144.8282  134.7186  152.8140 N   0  0  0  0  0  0  0  0  0  0  0  0
  143.9221  134.1916  151.8046 C   0  0  0  0  0  0  0  0  0  0  0  0
  144.5888  133.8664  150.4411 C   0  0  1  0  0  0  0  0  0  0  0  0
  144.9727  135.0941  149.8532 O   0  0  0  0  0  0  0  0  0  0  0  0
  145.8024  132.9437  150.5346 C   0  0  0  0  0  0  0  0  0  0  0  0
  145.2542  131.5455  150.2251 C   0  0  0  0  0  0  0  0  0  0  0  0
  143.9000  131.7236  149.8257 O   0  0  0  0  0  0  0  0  0  0  0  0
  143.6970  133.0833  149.4733 C   0  0  0  0  0  0  0  0  0  0  0  0
  149.1585  137.2723  155.2183 C   0  0  1  0  0  0  0  0  0  0  0  0
  149.5628  135.9346  154.5699 C   0  0  0  0  0  0  0  0  0  0  0  0
  149.8145  138.4584  154.4710 C   0  0  0  0  0  0  0  0  0  0  0  0
  151.6623  138.4944  154.6212 S   0  0  0  0  0  0  0  0  0  0  0  0
  152.2028  137.3567  153.8620 O   0  0  0  0  0  0  0  0  0  0  0  0
  152.1494  139.8559  154.3502 O   0  0  0  0  0  0  0  0  0  0  0  0
  151.9200  138.1389  156.4156 C   0  0  0  0  0  0  0  0  0  0  0  0
  151.3068  139.2163  157.3173 C   0  0  0  0  0  0  0  0  0  0  0  0
  147.4703  137.0571  158.8112 H   0  0  0  0  0  0  0  0  0  0  0  0
  147.7492  138.5796  157.9813 H   0  0  0  0  0  0  0  0  0  0  0  0
  148.9352  137.2785  157.8604 H   0  0  0  0  0  0  0  0  0  0  0  0
  147.2129  135.8463  156.6906 H   0  0  0  0  0  0  0  0  0  0  0  0
  146.0819  137.1708  156.7192 H   0  0  0  0  0  0  0  0  0  0  0  0
  146.0362  138.8775  151.6416 H   0  0  0  0  0  0  0  0  0  0  0  0
  144.9623  133.0640  154.1970 H   0  0  0  0  0  0  0  0  0  0  0  0
  143.4445  133.2989  152.2108 H   0  0  0  0  0  0  0  0  0  0  0  0
  143.1238  134.9213  151.6609 H   0  0  0  0  0  0  0  0  0  0  0  0
  145.3845  134.9125  149.0223 H   0  0  0  0  0  0  0  0  0  0  0  0
  146.5405  133.2020  149.7732 H   0  0  0  0  0  0  0  0  0  0  0  0
  146.3083  132.9980  151.4985 H   0  0  0  0  0  0  0  0  0  0  0  0
  145.8212  131.0727  149.4226 H   0  0  0  0  0  0  0  0  0  0  0  0
  145.2939  130.8918  151.0966 H   0  0  0  0  0  0  0  0  0  0  0  0
  142.6468  133.3704  149.5221 H   0  0  0  0  0  0  0  0  0  0  0  0
  144.0300  133.2173  148.4423 H   0  0  0  0  0  0  0  0  0  0  0  0
  149.5778  137.2627  156.2241 H   0  0  0  0  0  0  0  0  0  0  0  0
  150.6467  135.8178  154.5661 H   0  0  0  0  0  0  0  0  0  0  0  0
  149.2265  135.8723  153.5350 H   0  0  0  0  0  0  0  0  0  0  0  0
  149.1507  135.0824  155.1101 H   0  0  0  0  0  0  0  0  0  0  0  0
  149.5820  138.4132  153.4075 H   0  0  0  0  0  0  0  0  0  0  0  0
  149.4230  139.4149  154.8162 H   0  0  0  0  0  0  0  0  0  0  0  0
  151.4983  137.1587  156.6377 H   0  0  0  0  0  0  0  0  0  0  0  0
  152.9947  138.0763  156.5865 H   0  0  0  0  0  0  0  0  0  0  0  0
  151.5357  139.0167  158.3641 H   0  0  0  0  0  0  0  0  0  0  0  0
  150.2221  139.2467  157.2216 H   0  0  0  0  0  0  0  0  0  0  0  0
  151.6976  140.2048  157.0752 H   0  0  0  0  0  0  0  0  0  0  0  0
  1  2  1  0  0  0  0
  1 28  1  0  0  0  0
  1 29  1  0  0  0  0
  1 30  1  0  0  0  0
  2  3  1  0  0  0  0
  2 31  1  0  0  0  0
  2 32  1  0  0  0  0
  3  4  1  0  0  0  0
  3 20  1  0  0  0  0
  4  9  1  0  0  0  0
  4  5  2  0  0  0  0
  5  6  1  0  0  0  0
  6  7  2  0  0  0  0
  6 33  1  0  0  0  0
  7  8  1  0  0  0  0
  8 12  1  0  0  0  0
  8  9  2  0  0  0  0
  9 10  1  0  0  0  0
 10 11  2  0  0  0  0
 11 12  1  0  0  0  0
 11 34  1  0  0  0  0
 12 13  1  0  0  0  0
 13 14  1  0  0  0  0
 13 35  1  0  0  0  0
 13 36  1  0  0  0  0
 14 19  1  0  0  0  0
 14 15  1  0  0  0  0
 14 16  1  0  0  0  0
 15 37  1  0  0  0  0
 16 17  1  0  0  0  0
 16 38  1  0  0  0  0
 16 39  1  0  0  0  0
 17 18  1  0  0  0  0
 17 40  1  0  0  0  0
 17 41  1  0  0  0  0
 18 19  1  0  0  0  0
 19 42  1  0  0  0  0
 19 43  1  0  0  0  0
 20 21  1  0  0  0  0
 20 22  1  0  0  0  0
 20 44  1  0  0  0  0
 21 45  1  0  0  0  0
 21 46  1  0  0  0  0
 21 47  1  0  0  0  0
 22 23  1  0  0  0  0
 22 48  1  0  0  0  0
 22 49  1  0  0  0  0
 23 24  2  0  0  0  0
 23 25  2  0  0  0  0
 23 26  1  0  0  0  0
 26 27  1  0  0  0  0
 26 50  1  0  0  0  0
 26 51  1  0  0  0  0
 27 52  1  0  0  0  0
 27 53  1  0  0  0  0
 27 54  1  0  0  0  0
M  END
> <s_m_source_file>
AV-unprocessed.smi

> <i_m_source_file_index>
89

> <i_lp_mmshare_version>
43012

> <i_f3d_flags>
0

> <s_epik_input>
W0NIM11bQ0gyXVMoPU8pKD1PKVtDSDJdW0NAQEhdKFtDSDNdKU4oW0NIMl1bQ0gzXSljKG5bY0hdbjEpYyhjMTIpbltjSF1uMltDSDJdW0NAQF0zKFtPSF0pW0NIMl1bQ0gyXU9bQ0gyXTM=

> <s_epik_cmdline>
J2VwaWtfcHl0aG9uJywgJy1waCcsICc3LjAnLCAnLXRuJywgJzgnLCAnLW1hJywgJzIwMCcsICctbWV0YWxfYmluZGluZycsICctaW1hZScsICc8aW5maWxlLm1hZT4nLCAnLW9tYWUnLCAnPG91dGZpbGUubWFlPic=

> <r_lp_tautomer_probability>
1

> <r_epik_Ionization_Penalty>
0.00103773

> <r_epik_Ionization_Penalty_Charging>
0

> <r_epik_Ionization_Penalty_Neutral>
0.00103773

> <r_epik_State_Penalty>
0.000558914

> <r_epik_Charging_Adjusted_Penalty>
0.000558914

> <i_epik_Tot_Q>
0

> <i_epik_Tot_abs_Q>
0

> <r_epik_Metal_State_Penalty>
-0

> <b_epik_Metal_Only>
0

> <s_lp_Force_Field>
OPLS_2005

> <r_lp_Energy>
30.4714

> <b_lp_Chiralities_Consistent>
1

> <s_lp_Variant>
AV-unprocessed.smi:89-3

> <Gold.Version>
5.8.1

> <Gold.Id.Protein>
6NUR|6NUR_protein|mol2

> <Gold.PLP.Fitness>
43.2756

> <Gold.PLP.PLP>
-31.1870

> <Gold.PLP.part.hbond>
-3.7059

> <Gold.PLP.part.metal>
0.0000

> <Gold.PLP.part.buried>
-7.1342

> <Gold.PLP.part.nonpolar>
-22.7839

> <Gold.PLP.part.repulsive>
1.4204

> <Gold.PLP.ligand.clash>
0.0000

> <Gold.PLP.ligand.torsion>
1.6524

> <Gold.PLP.Chemscore.Hbond>
3.4109

> <Gold.PLP.Chemscore.CHOScore>
1.1846

> <Gold.PLP.Chemscore.Metal>
0.0000

> <Gold.Chemscore.Hbonds>
donor molecule, donor type, donor heavy atom, donor atom, acceptor molecule, acceptor atom, score
      L1  H    15    37       P1  7921  1.00
      P1  H  7989  7998       L1    25  0.49
      P1  H 10752 10765       L1    24  0.78
      P1  H 10785 10796       L1    18  0.79
      L1  C     6    33       P1 10171  0.15
      L1  C    11    34       P1 10957  0.59

> <Gold.PLP.Chemscore.Internal.Correction>
1.6069

> <Gold.Rescore>
     Score         DG    S(hbond)    S(metal)    S(lipo)     H(rot)  DE(clash)    DE(int)     intcor
     14.04     -15.77       3.56        0.00      61.81       3.45       0.17       1.56       ----

> <Gold.Chemscore.Fitness>
14.0398

> <Gold.Chemscore.DG>
-15.7737

> <Gold.Chemscore.ZeroCoef>
-5.4800

> <Gold.Chemscore.Hbond>
3.5630

> <Gold.Chemscore.Metal>
0.0000

> <Gold.Chemscore.Lipo>
61.8082

> <Gold.Chemscore.Internal_Hbond>
0.0000

> <Gold.Chemscore.DEClash>
0.1717

> <Gold.Chemscore.DEInternal>
1.5622

> <Gold.Chemscore.Rot>
3.4524

> <Gold.Chemscore.Internal.Correction>
   9.000000E+99

> <Gold.Chemscore.Hbonds>
donor molecule, donor type, donor heavy atom, donor atom, acceptor molecule, acceptor atom, score
      L1  H    15    37       P1  7921  0.97
      P1  H  7989  7998       L1    25  0.48
      P1  H 10752 10765       L1    24  0.78
      P1  H 10785 10796       L1    18  0.60

> <Gold.Chemscore.Hbond.Weighted>
-11.9004

> <Gold.Chemscore.Metal.Weighted>
-0.0000

> <Gold.Chemscore.Lipo.Weighted>
-7.2316

> <Gold.Chemscore.Internal_Hbond.Weighted>
0.0000

> <Gold.Chemscore.DEClash.Weighted>
0.1717

> <Gold.Chemscore.DEInternal.Weighted>
1.5622

> <Gold.Chemscore.Rot.Weighted>
8.8382

> <Gold.Chemscore.Internal.Correction.Weighted>
   9.000000E+99

> <Gold.Protein.RotatedTorsions>
[ 6907 6896 6895 6894 ] final  111.63 input  -60.11 | X-H torsion
[ 7974 7965 7964 7962 ] final  -35.08 input  175.53 | X-H torsion
[ 8008 7997 7996 7995 ] final   26.14 input   59.86 | X-H torsion
[ 10167 10162 10161 10158 ] final  152.13 input  -65.29 | X-H torsion
[ 10718 10713 10712 10709 ] final  -19.92 input   66.30 | X-H torsion
[ 10763 10752 10751 10750 ] final  164.97 input  -60.55 | X-H torsion
[ 11005 11000 10999 10996 ] final -111.63 input  -57.11 | X-H torsion

> <Gold.Protein.ActiveResidues>
 VAL166  LYS551  ARG553  GLY616  TRP617  ASP618  TYR619  PRO620  LYS621  CYS622 
 ASP623  PHE694  ASN695  SER759  ASP760  ASP761  ALA762  ILE779  LEU786  VAL792 
 PHE793  MET794  SER795  GLU796  ALA797  LYS798  CYS799  TRP800  GLU811  SER814 

> <Gold.Protein.RotatedAtoms>
  152.4959  133.8630  159.7259 H   0  0  0  0  0  0  0  0  0  0  0  0  # atno 6907 bound_to 6896
  150.9136  133.6957  159.2855 H   0  0  0  0  0  0  0  0  0  0  0  0  # atno 6908 bound_to 6896
  151.4358  135.1019  159.9708 H   0  0  0  0  0  0  0  0  0  0  0  0  # atno 6909 bound_to 6896
  146.0776  140.6116  142.8923 H   0  0  0  0  0  0  0  0  0  0  0  0  # atno 7974 bound_to 7965
  155.0226  140.3149  155.4788 H   0  0  0  0  0  0  0  0  0  0  0  0  # atno 8008 bound_to 7997
  156.2889  140.2194  156.5287 H   0  0  0  0  0  0  0  0  0  0  0  0  # atno 8009 bound_to 7997
  154.7439  140.0471  157.0823 H   0  0  0  0  0  0  0  0  0  0  0  0  # atno 8010 bound_to 7997
  139.4835  144.5384  151.7607 H   0  0  0  0  0  0  0  0  0  0  0  0  # atno 10167 bound_to 10162
  156.5390  130.4673  149.6508 H   0  0  0  0  0  0  0  0  0  0  0  0  # atno 10718 bound_to 10713
  154.3170  135.2756  155.2538 H   0  0  0  0  0  0  0  0  0  0  0  0  # atno 10763 bound_to 10752
  154.4908  135.5834  153.6461 H   0  0  0  0  0  0  0  0  0  0  0  0  # atno 10764 bound_to 10752
  152.9881  135.6134  154.3352 H   0  0  0  0  0  0  0  0  0  0  0  0  # atno 10765 bound_to 10752
  141.0723  133.9359  157.2460 H   0  0  0  0  0  0  0  0  0  0  0  0  # atno 11005 bound_to 11000
  144.7272  140.4561  143.6964 LP  0  0  0  0  0  0  0  0  0  0  0  0  # atno 17320 bound_to 7965
  145.6277  139.1532  143.2987 LP  0  0  0  0  0  0  0  0  0  0  0  0  # atno 17321 bound_to 7965
  140.4919  144.1297  150.5952 LP  0  0  0  0  0  0  0  0  0  0  0  0  # atno 17342 bound_to 10162
  140.4161  143.2634  151.9773 LP  0  0  0  0  0  0  0  0  0  0  0  0  # atno 17343 bound_to 10162
  156.2989  130.7166  151.2033 LP  0  0  0  0  0  0  0  0  0  0  0  0  # atno 17370 bound_to 10713
  157.7409  131.0511  150.5137 LP  0  0  0  0  0  0  0  0  0  0  0  0  # atno 17371 bound_to 10713
  139.9536  135.0170  156.9064 LP  0  0  0  0  0  0  0  0  0  0  0  0  # atno 17394 bound_to 11000
  140.5648  134.0500  155.7410 LP  0  0  0  0  0  0  0  0  0  0  0  0  # atno 17395 bound_to 11000

$$$$
