AV-unprocessed.smi:36|AV-procd|sdf|302|dock9
  -GOLD-   2262016113D 1   1.00000     0.00000
 Structure written by MMmdl.
 63 66  0  0  0  0  0  0  0  0  2 V2000
  148.1715  135.7645  160.8920 C   0  0  0  0  0  0  0  0  0  0  0  0
  147.3620  135.6064  162.1896 C   0  0  0  0  0  0  0  0  0  0  0  0
  147.8385  134.3617  162.9568 C   0  0  0  0  0  0  0  0  0  0  0  0
  147.5372  136.8553  163.0691 C   0  0  0  0  0  0  0  0  0  0  0  0
  145.5116  135.4002  161.7621 Si  0  0  0  0  0  0  0  0  0  0  0  0
  145.2463  133.9927  160.5137 C   0  0  0  0  0  0  0  0  0  0  0  0
  144.4810  135.0775  163.3256 C   0  0  0  0  0  0  0  0  0  0  0  0
  144.9783  136.8422  161.0568 O   0  0  0  0  0  0  0  0  0  0  0  0
  144.1908  136.8949  159.8861 C   0  0  0  0  0  0  0  0  0  0  0  0
  144.6306  138.0919  159.0341 C   0  0  1  0  0  0  0  0  0  0  0  0
  145.8196  137.7697  158.3198 O   0  0  0  0  0  0  0  0  0  0  0  0
  145.8801  138.5067  157.1332 C   0  0  2  0  0  0  0  0  0  0  0  0
  147.0177  139.4699  157.2352 N   0  0  0  0  0  0  0  0  0  0  0  0
  147.2673  140.3801  158.1992 C   0  0  0  0  0  0  0  0  0  0  0  0
  148.3571  141.1328  158.0644 N   0  0  0  0  0  0  0  0  0  0  0  0
  148.8796  140.6580  156.8703 C   0  0  0  0  0  0  0  0  0  0  0  0
  150.0347  141.0137  156.1214 C   0  0  0  0  0  0  0  0  0  0  0  0
  150.8894  141.9680  156.5207 N   0  5  0  0  0  0  0  0  0  0  0  0
  151.6467  141.7767  157.6304 C   0  0  0  0  0  0  0  0  0  0  0  0
  152.2116  140.7421  157.9920 O   0  0  0  0  0  0  0  0  0  0  0  0
  151.7223  142.9913  158.5162 C   0  0  0  0  0  0  0  0  0  0  0  0
  151.2069  144.2254  158.0585 C   0  0  0  0  0  0  0  0  0  0  0  0
  151.2401  145.3660  158.8842 C   0  0  0  0  0  0  0  0  0  0  0  0
  151.7809  145.2827  160.1809 C   0  0  0  0  0  0  0  0  0  0  0  0
  152.2855  144.0564  160.6525 C   0  0  0  0  0  0  0  0  0  0  0  0
  152.2526  142.9153  159.8275 C   0  0  0  0  0  0  0  0  0  0  0  0
  150.2592  140.3243  154.9736 N   0  0  0  0  0  0  0  0  0  0  0  0
  149.4076  139.3695  154.5801 C   0  0  0  0  0  0  0  0  0  0  0  0
  148.2893  138.9421  155.1756 N   0  0  0  0  0  0  0  0  0  0  0  0
  148.0600  139.6210  156.3373 C   0  0  0  0  0  0  0  0  0  0  0  0
  144.5550  139.2651  156.9940 C   0  0  0  0  0  0  0  0  0  0  0  0
  143.6511  138.4846  157.9273 C   0  0  2  0  0  0  0  0  0  0  0  0
  142.5902  139.2897  158.4000 O   0  0  0  0  0  0  0  0  0  0  0  0
  149.2349  135.8850  161.1018 H   0  0  0  0  0  0  0  0  0  0  0  0
  147.8477  136.6384  160.3261 H   0  0  0  0  0  0  0  0  0  0  0  0
  148.0611  134.8938  160.2451 H   0  0  0  0  0  0  0  0  0  0  0  0
  147.7382  133.4594  162.3532 H   0  0  0  0  0  0  0  0  0  0  0  0
  147.2584  134.2129  163.8683 H   0  0  0  0  0  0  0  0  0  0  0  0
  148.8869  134.4493  163.2436 H   0  0  0  0  0  0  0  0  0  0  0  0
  148.5811  136.9984  163.3510 H   0  0  0  0  0  0  0  0  0  0  0  0
  146.9551  136.7773  163.9878 H   0  0  0  0  0  0  0  0  0  0  0  0
  147.2123  137.7566  162.5488 H   0  0  0  0  0  0  0  0  0  0  0  0
  145.6071  133.0398  160.9001 H   0  0  0  0  0  0  0  0  0  0  0  0
  145.7697  134.1839  159.5771 H   0  0  0  0  0  0  0  0  0  0  0  0
  144.1908  133.8665  160.2740 H   0  0  0  0  0  0  0  0  0  0  0  0
  144.8077  134.1752  163.8416 H   0  0  0  0  0  0  0  0  0  0  0  0
  143.4250  134.9500  163.0897 H   0  0  0  0  0  0  0  0  0  0  0  0
  144.5572  135.9028  164.0331 H   0  0  0  0  0  0  0  0  0  0  0  0
  144.3371  135.9683  159.3305 H   0  0  0  0  0  0  0  0  0  0  0  0
  143.1316  136.9602  160.1365 H   0  0  0  0  0  0  0  0  0  0  0  0
  144.8483  138.9501  159.6726 H   0  0  0  0  0  0  0  0  0  0  0  0
  146.1130  137.8556  156.2901 H   0  0  0  0  0  0  0  0  0  0  0  0
  146.6124  140.4991  159.0495 H   0  0  0  0  0  0  0  0  0  0  0  0
  150.7856  144.3055  157.0668 H   0  0  0  0  0  0  0  0  0  0  0  0
  150.8475  146.3046  158.5224 H   0  0  0  0  0  0  0  0  0  0  0  0
  151.8045  146.1566  160.8147 H   0  0  0  0  0  0  0  0  0  0  0  0
  152.6948  143.9888  161.6497 H   0  0  0  0  0  0  0  0  0  0  0  0
  152.6339  141.9808  160.2133 H   0  0  0  0  0  0  0  0  0  0  0  0
  149.6599  138.8751  153.6539 H   0  0  0  0  0  0  0  0  0  0  0  0
  144.6768  140.2941  157.3381 H   0  0  0  0  0  0  0  0  0  0  0  0
  144.2135  139.2762  155.9585 H   0  0  0  0  0  0  0  0  0  0  0  0
  143.2595  137.6006  157.4220 H   0  0  0  0  0  0  0  0  0  0  0  0
  141.8056  139.0611  157.9254 H   0  0  0  0  0  0  0  0  0  0  0  0
  1  2  1  0  0  0  0
  1 34  1  0  0  0  0
  1 35  1  0  0  0  0
  1 36  1  0  0  0  0
  2  3  1  0  0  0  0
  2  4  1  0  0  0  0
  2  5  1  0  0  0  0
  3 37  1  0  0  0  0
  3 38  1  0  0  0  0
  3 39  1  0  0  0  0
  4 40  1  0  0  0  0
  4 41  1  0  0  0  0
  4 42  1  0  0  0  0
  5  6  1  0  0  0  0
  5  7  1  0  0  0  0
  5  8  1  0  0  0  0
  6 43  1  0  0  0  0
  6 44  1  0  0  0  0
  6 45  1  0  0  0  0
  7 46  1  0  0  0  0
  7 47  1  0  0  0  0
  7 48  1  0  0  0  0
  8  9  1  0  0  0  0
  9 10  1  0  0  0  0
  9 49  1  0  0  0  0
  9 50  1  0  0  0  0
 10 32  1  0  0  0  0
 10 11  1  0  0  0  0
 10 51  1  0  0  0  0
 11 12  1  0  0  0  0
 12 13  1  0  0  0  0
 12 31  1  0  0  0  0
 12 52  1  0  0  0  0
 13 30  1  0  0  0  0
 13 14  1  0  0  0  0
 14 15  2  0  0  0  0
 14 53  1  0  0  0  0
 15 16  1  0  0  0  0
 16 30  2  0  0  0  0
 16 17  1  0  0  0  0
 17 18  1  0  0  0  0
 17 27  2  0  0  0  0
 18 19  1  0  0  0  0
 19 20  2  0  0  0  0
 19 21  1  0  0  0  0
 21 26  1  0  0  0  0
 21 22  2  0  0  0  0
 22 23  1  0  0  0  0
 22 54  1  0  0  0  0
 23 24  2  0  0  0  0
 23 55  1  0  0  0  0
 24 25  1  0  0  0  0
 24 56  1  0  0  0  0
 25 26  2  0  0  0  0
 25 57  1  0  0  0  0
 26 58  1  0  0  0  0
 27 28  1  0  0  0  0
 28 29  2  0  0  0  0
 28 59  1  0  0  0  0
 29 30  1  0  0  0  0
 31 32  1  0  0  0  0
 31 60  1  0  0  0  0
 31 61  1  0  0  0  0
 32 33  1  0  0  0  0
 32 62  1  0  0  0  0
 33 63  1  0  0  0  0
M  CHG  1  18  -1
M  END
> <s_m_source_file>
AV-unprocessed.smi

> <i_m_source_file_index>
36

> <i_lp_mmshare_version>
43012

> <i_f3d_flags>
0

> <s_epik_input>
W0NIM11DKFtDSDNdKShbQ0gzXSlbU2ldKFtDSDNdKShbQ0gzXSlPW0NIMl1bQ0BASF0xT1tDQEhdKFtDSDJdW0NASF0xW09IXSluKFtjSF1uMiljKGMyMyluW2NIXW5jM1tOSF1DKD1PKWM0W2NIXVtjSF1bY0hdW2NIXVtjSF00

> <s_epik_cmdline>
J2VwaWtfcHl0aG9uJywgJy1waCcsICc3LjAnLCAnLXRuJywgJzgnLCAnLW1hJywgJzIwMCcsICctbWV0YWxfYmluZGluZycsICctaW1hZScsICc8aW5maWxlLm1hZT4nLCAnLW9tYWUnLCAnPG91dGZpbGUubWFlPic=

> <r_lp_tautomer_probability>
1

> <r_epik_Ionization_Penalty>
4.75685

> <r_epik_Ionization_Penalty_Charging>
3.55822

> <r_epik_Ionization_Penalty_Neutral>
1.19863

> <r_epik_State_Penalty>
3.564

> <r_epik_Charging_Adjusted_Penalty>
7.12222

> <i_epik_Tot_Q>
-1

> <i_epik_Tot_abs_Q>
1

> <r_epik_Metal_State_Penalty>
0.523258

> <b_epik_Metal_Only>
1

> <s_epik_Chemistry_Notes>
This compound contains an acetal/aminal-like group ( X-CH(R)-Y where X, Y are N, S, or O) that may be acid/base labile, releasing an aldehyde.

> <s_lp_Force_Field>
OPLS_2005

> <r_lp_Energy>
39.042

> <b_lp_Chiralities_Consistent>
1

> <s_lp_Variant>
AV-unprocessed.smi:36-24

> <Gold.Version>
5.8.1

> <Gold.Id.Protein>
6NUR|6NUR_protein|mol2

> <Gold.PLP.Fitness>
48.3345

> <Gold.PLP.PLP>
-47.1417

> <Gold.PLP.part.hbond>
-1.0000

> <Gold.PLP.part.metal>
0.0000

> <Gold.PLP.part.buried>
-6.2442

> <Gold.PLP.part.nonpolar>
-40.3829

> <Gold.PLP.part.repulsive>
0.3032

> <Gold.PLP.ligand.clash>
0.0042

> <Gold.PLP.ligand.torsion>
2.5088

> <Gold.PLP.Chemscore.Hbond>
1.0000

> <Gold.PLP.Chemscore.CHOScore>
0.9556

> <Gold.PLP.Chemscore.Metal>
0.0000

> <Gold.Chemscore.Hbonds>
donor molecule, donor type, donor heavy atom, donor atom, acceptor molecule, acceptor atom, score
      P1  H  7989  7998       L1    27  0.86
      L1  C    28    59       P1  7957  0.43

> <Gold.PLP.Chemscore.Internal.Correction>
0.3476

> <Gold.Rescore>
     Score         DG    S(hbond)    S(metal)    S(lipo)     H(rot)  DE(clash)    DE(int)     intcor
     13.28     -15.54       0.92        0.00     118.26       2.67       0.06       2.21       ----

> <Gold.Chemscore.Fitness>
13.2761

> <Gold.Chemscore.DG>
-15.5432

> <Gold.Chemscore.ZeroCoef>
-5.4800

> <Gold.Chemscore.Hbond>
0.9170

> <Gold.Chemscore.Metal>
0.0000

> <Gold.Chemscore.Lipo>
118.2567

> <Gold.Chemscore.Internal_Hbond>
0.0000

> <Gold.Chemscore.DEClash>
0.0554

> <Gold.Chemscore.DEInternal>
2.2117

> <Gold.Chemscore.Rot>
2.6702

> <Gold.Chemscore.Internal.Correction>
   9.000000E+99

> <Gold.Chemscore.Hbonds>
donor molecule, donor type, donor heavy atom, donor atom, acceptor molecule, acceptor atom, score
      P1  H  7989  7998       L1    27  0.69

> <Gold.Chemscore.Hbond.Weighted>
-3.0629

> <Gold.Chemscore.Metal.Weighted>
-0.0000

> <Gold.Chemscore.Lipo.Weighted>
-13.8360

> <Gold.Chemscore.Internal_Hbond.Weighted>
0.0000

> <Gold.Chemscore.DEClash.Weighted>
0.0554

> <Gold.Chemscore.DEInternal.Weighted>
2.2117

> <Gold.Chemscore.Rot.Weighted>
6.8358

> <Gold.Chemscore.Internal.Correction.Weighted>
   9.000000E+99

> <Gold.Protein.RotatedTorsions>
[ 6907 6896 6895 6894 ] final  153.26 input  -60.11 | X-H torsion
[ 7974 7965 7964 7962 ] final   32.69 input  175.53 | X-H torsion
[ 8008 7997 7996 7995 ] final  -35.87 input   59.86 | X-H torsion
[ 10167 10162 10161 10158 ] final  171.79 input  -65.29 | X-H torsion
[ 10718 10713 10712 10709 ] final  131.85 input   66.30 | X-H torsion
[ 10763 10752 10751 10750 ] final -174.56 input  -60.55 | X-H torsion
[ 11005 11000 10999 10996 ] final  -38.38 input  -57.11 | X-H torsion

> <Gold.Protein.ActiveResidues>
 VAL166  LYS551  ARG553  GLY616  TRP617  ASP618  TYR619  PRO620  LYS621  CYS622 
 ASP623  PHE694  ASN695  SER759  ASP760  ASP761  ALA762  ILE779  LEU786  VAL792 
 PHE793  MET794  SER795  GLU796  ALA797  LYS798  CYS799  TRP800  GLU811  SER814 

> <Gold.Protein.RotatedAtoms>
  152.0751  133.4125  159.4476 H   0  0  0  0  0  0  0  0  0  0  0  0  # atno 6907 bound_to 6896
  150.6863  134.3046  159.4730 H   0  0  0  0  0  0  0  0  0  0  0  0  # atno 6908 bound_to 6896
  152.0882  134.9424  160.0623 H   0  0  0  0  0  0  0  0  0  0  0  0  # atno 6909 bound_to 6896
  146.1470  139.6494  142.9124 H   0  0  0  0  0  0  0  0  0  0  0  0  # atno 7974 bound_to 7965
  154.4085  140.1646  156.2281 H   0  0  0  0  0  0  0  0  0  0  0  0  # atno 8008 bound_to 7997
  155.9306  140.3415  155.6223 H   0  0  0  0  0  0  0  0  0  0  0  0  # atno 8009 bound_to 7997
  155.7111  140.0757  157.2361 H   0  0  0  0  0  0  0  0  0  0  0  0  # atno 8010 bound_to 7997
  139.5057  144.3446  151.9984 H   0  0  0  0  0  0  0  0  0  0  0  0  # atno 10167 bound_to 10162
  157.4927  131.1091  150.9534 H   0  0  0  0  0  0  0  0  0  0  0  0  # atno 10718 bound_to 10713
  154.5947  135.2848  155.0598 H   0  0  0  0  0  0  0  0  0  0  0  0  # atno 10763 bound_to 10752
  154.1885  135.6444  153.5057 H   0  0  0  0  0  0  0  0  0  0  0  0  # atno 10764 bound_to 10752
  153.0134  135.5440  154.6645 H   0  0  0  0  0  0  0  0  0  0  0  0  # atno 10765 bound_to 10752
  141.0023  133.6949  156.2046 H   0  0  0  0  0  0  0  0  0  0  0  0  # atno 11005 bound_to 11000
  145.4914  141.0438  143.2591 LP  0  0  0  0  0  0  0  0  0  0  0  0  # atno 17320 bound_to 7965
  144.7858  139.6430  143.7135 LP  0  0  0  0  0  0  0  0  0  0  0  0  # atno 17321 bound_to 7965
  140.2884  144.3782  150.6096 LP  0  0  0  0  0  0  0  0  0  0  0  0  # atno 17342 bound_to 10162
  140.5965  143.2167  151.7153 LP  0  0  0  0  0  0  0  0  0  0  0  0  # atno 17343 bound_to 10162
  157.0230  130.5681  149.5333 LP  0  0  0  0  0  0  0  0  0  0  0  0  # atno 17370 bound_to 10713
  156.0183  130.5277  150.8200 LP  0  0  0  0  0  0  0  0  0  0  0  0  # atno 17371 bound_to 10713
  140.6868  134.4708  157.5589 LP  0  0  0  0  0  0  0  0  0  0  0  0  # atno 17394 bound_to 11000
  139.9045  134.8480  156.1760 LP  0  0  0  0  0  0  0  0  0  0  0  0  # atno 17395 bound_to 11000

$$$$
