AV-unprocessed.smi:1262|AV-procd|sdf|5309|dock10
  -GOLD-   22720 4433D 1   1.00000     0.00000
 Structure written by MMmdl.
 34 35  0  0  0  0  0  0  0  0  1 V2000
  150.9896  142.0508  156.4422 C   0  0  0  0  0  0  0  0  0  0  0  0
  150.6339  140.8605  155.6012 C   0  0  0  0  0  0  0  0  0  0  0  0
  149.3910  140.5757  154.9644 C   0  0  0  0  0  0  0  0  0  0  0  0
  149.6366  139.3803  154.3458 C   0  0  0  0  0  0  0  0  0  0  0  0
  148.8028  138.6240  153.5833 N   0  0  0  0  0  0  0  0  0  0  0  0
  147.4639  138.6926  153.4803 C   0  0  0  0  0  0  0  0  0  0  0  0
  146.7400  139.4834  154.0859 O   0  0  0  0  0  0  0  0  0  0  0  0
  146.9977  137.7753  152.6209 N   0  0  0  0  0  0  0  0  0  0  0  0
  145.5918  137.5766  152.2886 C   0  0  0  0  0  0  0  0  0  0  0  0
  145.2657  136.0968  152.1017 C   0  0  0  0  0  0  0  0  0  0  0  0
  145.6241  135.3937  150.7834 C   0  0  0  0  0  0  0  0  0  0  0  0
  144.3491  134.5598  150.9350 C   0  0  0  0  0  0  0  0  0  0  0  0
  143.8136  135.6669  151.8472 C   0  0  0  0  0  0  0  0  0  0  0  0
  150.9344  139.0016  154.6088 N   0  0  0  0  0  0  0  0  0  0  0  0
  151.6540  137.8191  154.1779 C   0  0  0  0  0  0  0  0  0  0  0  0
  151.5475  139.9206  155.3859 N   0  0  0  0  0  0  0  0  0  0  0  0
  150.1300  142.7071  156.5795 H   0  0  0  0  0  0  0  0  0  0  0  0
  151.7828  142.6364  155.9770 H   0  0  0  0  0  0  0  0  0  0  0  0
  151.3342  141.7457  157.4305 H   0  0  0  0  0  0  0  0  0  0  0  0
  148.4854  141.1633  154.9737 H   0  0  0  0  0  0  0  0  0  0  0  0
  149.2561  137.9196  153.0203 H   0  0  0  0  0  0  0  0  0  0  0  0
  147.6618  137.1654  152.1671 H   0  0  0  0  0  0  0  0  0  0  0  0
  144.9590  138.0167  153.0609 H   0  0  0  0  0  0  0  0  0  0  0  0
  145.3823  138.1300  151.3729 H   0  0  0  0  0  0  0  0  0  0  0  0
  145.6579  135.5045  152.9315 H   0  0  0  0  0  0  0  0  0  0  0  0
  145.5895  136.0632  149.9222 H   0  0  0  0  0  0  0  0  0  0  0  0
  146.5519  134.8214  150.8104 H   0  0  0  0  0  0  0  0  0  0  0  0
  143.7853  134.4135  150.0133 H   0  0  0  0  0  0  0  0  0  0  0  0
  144.5179  133.6200  151.4633 H   0  0  0  0  0  0  0  0  0  0  0  0
  143.2813  135.3137  152.7310 H   0  0  0  0  0  0  0  0  0  0  0  0
  143.2368  136.4172  151.3036 H   0  0  0  0  0  0  0  0  0  0  0  0
  151.6395  137.7578  153.0895 H   0  0  0  0  0  0  0  0  0  0  0  0
  151.1777  136.9305  154.5928 H   0  0  0  0  0  0  0  0  0  0  0  0
  152.6907  137.8550  154.5153 H   0  0  0  0  0  0  0  0  0  0  0  0
  1  2  1  0  0  0  0
  1 17  1  0  0  0  0
  1 18  1  0  0  0  0
  1 19  1  0  0  0  0
  2 16  2  0  0  0  0
  2  3  1  0  0  0  0
  3  4  2  0  0  0  0
  3 20  1  0  0  0  0
  4  5  1  0  0  0  0
  4 14  1  0  0  0  0
  5  6  1  0  0  0  0
  5 21  1  0  0  0  0
  6  7  2  0  0  0  0
  6  8  1  0  0  0  0
  8  9  1  0  0  0  0
  8 22  1  0  0  0  0
  9 10  1  0  0  0  0
  9 23  1  0  0  0  0
  9 24  1  0  0  0  0
 10 13  1  0  0  0  0
 10 11  1  0  0  0  0
 10 25  1  0  0  0  0
 11 12  1  0  0  0  0
 11 26  1  0  0  0  0
 11 27  1  0  0  0  0
 12 13  1  0  0  0  0
 12 28  1  0  0  0  0
 12 29  1  0  0  0  0
 13 30  1  0  0  0  0
 13 31  1  0  0  0  0
 14 15  1  0  0  0  0
 14 16  1  0  0  0  0
 15 32  1  0  0  0  0
 15 33  1  0  0  0  0
 15 34  1  0  0  0  0
M  END
> <s_m_source_file>
AV-unprocessed.smi

> <i_m_source_file_index>
1262

> <i_lp_mmshare_version>
43012

> <i_f3d_flags>
0

> <s_epik_input>
W0NIM11jMVtjSF1jKG4objEpW0NIM10pW05IXUMoPU8pW05IXVtDSDJdW0NIXTJbQ0gyXVtDSDJdW0NIMl0y

> <s_epik_cmdline>
J2VwaWtfcHl0aG9uJywgJy1waCcsICc3LjAnLCAnLXRuJywgJzgnLCAnLW1hJywgJzIwMCcsICctbWV0YWxfYmluZGluZycsICctaW1hZScsICc8aW5maWxlLm1hZT4nLCAnLW9tYWUnLCAnPG91dGZpbGUubWFlPic=

> <r_lp_tautomer_probability>
1

> <r_epik_Ionization_Penalty>
9.92667e-05

> <r_epik_Ionization_Penalty_Charging>
0

> <r_epik_Ionization_Penalty_Neutral>
9.92667e-05

> <r_epik_State_Penalty>
-0

> <r_epik_Charging_Adjusted_Penalty>
0

> <i_epik_Tot_Q>
0

> <i_epik_Tot_abs_Q>
0

> <r_epik_Metal_State_Penalty>
-0

> <b_epik_Metal_Only>
0

> <s_lp_Force_Field>
OPLS_2005

> <r_lp_Energy>
13.5599

> <b_lp_Chiralities_Consistent>
1

> <s_lp_Variant>
AV-unprocessed.smi:1262-1

> <Gold.Version>
5.8.1

> <Gold.Id.Protein>
6NUR|6NUR_protein|mol2

> <Gold.PLP.Fitness>
38.1450

> <Gold.PLP.PLP>
-32.9547

> <Gold.PLP.part.hbond>
-3.9960

> <Gold.PLP.part.metal>
0.0000

> <Gold.PLP.part.buried>
-3.4618

> <Gold.PLP.part.nonpolar>
-26.0183

> <Gold.PLP.part.repulsive>
0.2630

> <Gold.PLP.ligand.clash>
0.0000

> <Gold.PLP.ligand.torsion>
0.3132

> <Gold.PLP.Chemscore.Hbond>
1.9199

> <Gold.PLP.Chemscore.CHOScore>
0.0000

> <Gold.PLP.Chemscore.Metal>
0.0000

> <Gold.Chemscore.Hbonds>
donor molecule, donor type, donor heavy atom, donor atom, acceptor molecule, acceptor atom, score
      L1  H     5    21       P1  7948  0.92
      L1  H     8    22       P1  7948  1.00

> <Gold.PLP.Chemscore.Internal.Correction>
0.0571

> <Gold.Rescore>
     Score         DG    S(hbond)    S(metal)    S(lipo)     H(rot)  DE(clash)    DE(int)     intcor
     14.29     -15.71       1.92        0.00      59.10       1.21       0.18       1.24       ----

> <Gold.Chemscore.Fitness>
14.2884

> <Gold.Chemscore.DG>
-15.7141

> <Gold.Chemscore.ZeroCoef>
-5.4800

> <Gold.Chemscore.Hbond>
1.9217

> <Gold.Chemscore.Metal>
0.0000

> <Gold.Chemscore.Lipo>
59.0958

> <Gold.Chemscore.Internal_Hbond>
0.0000

> <Gold.Chemscore.DEClash>
0.1816

> <Gold.Chemscore.DEInternal>
1.2441

> <Gold.Chemscore.Rot>
1.2103

> <Gold.Chemscore.Internal.Correction>
   9.000000E+99

> <Gold.Chemscore.Hbonds>
donor molecule, donor type, donor heavy atom, donor atom, acceptor molecule, acceptor atom, score
      L1  H     5    21       P1  7948  0.81
      L1  H     8    22       P1  7948  0.99

> <Gold.Chemscore.Hbond.Weighted>
-6.4183

> <Gold.Chemscore.Metal.Weighted>
-0.0000

> <Gold.Chemscore.Lipo.Weighted>
-6.9142

> <Gold.Chemscore.Internal_Hbond.Weighted>
0.0000

> <Gold.Chemscore.DEClash.Weighted>
0.1816

> <Gold.Chemscore.DEInternal.Weighted>
1.2441

> <Gold.Chemscore.Rot.Weighted>
3.0984

> <Gold.Chemscore.Internal.Correction.Weighted>
   9.000000E+99

> <Gold.Protein.RotatedTorsions>
[ 6907 6896 6895 6894 ] final   35.35 input  -60.11 | X-H torsion
[ 7974 7965 7964 7962 ] final -149.96 input  175.53 | X-H torsion
[ 8008 7997 7996 7995 ] final -101.91 input   59.86 | X-H torsion
[ 10167 10162 10161 10158 ] final -137.08 input  -65.29 | X-H torsion
[ 10718 10713 10712 10709 ] final   25.05 input   66.30 | X-H torsion
[ 10763 10752 10751 10750 ] final  -38.78 input  -60.55 | X-H torsion
[ 11005 11000 10999 10996 ] final  142.61 input  -57.11 | X-H torsion

> <Gold.Protein.ActiveResidues>
 VAL166  LYS551  ARG553  GLY616  TRP617  ASP618  TYR619  PRO620  LYS621  CYS622 
 ASP623  PHE694  ASN695  SER759  ASP760  ASP761  ALA762  ILE779  LEU786  VAL792 
 PHE793  MET794  SER795  GLU796  ALA797  LYS798  CYS799  TRP800  GLU811  SER814 

> <Gold.Protein.RotatedAtoms>
  152.1149  134.9248  160.0565 H   0  0  0  0  0  0  0  0  0  0  0  0  # atno 6907 bound_to 6896
  152.0411  133.3973  159.4345 H   0  0  0  0  0  0  0  0  0  0  0  0  # atno 6908 bound_to 6896
  150.6845  134.3334  159.4880 H   0  0  0  0  0  0  0  0  0  0  0  0  # atno 6909 bound_to 6896
  144.7936  140.4995  143.5756 H   0  0  0  0  0  0  0  0  0  0  0  0  # atno 7974 bound_to 7965
  154.8491  140.0431  157.1592 H   0  0  0  0  0  0  0  0  0  0  0  0  # atno 8008 bound_to 7997
  154.8962  140.2993  155.5322 H   0  0  0  0  0  0  0  0  0  0  0  0  # atno 8009 bound_to 7997
  156.2995  140.2384  156.3984 H   0  0  0  0  0  0  0  0  0  0  0  0  # atno 8010 bound_to 7997
  139.8613  143.7074  152.2650 H   0  0  0  0  0  0  0  0  0  0  0  0  # atno 10167 bound_to 10162
  157.1881  130.6833  149.6139 H   0  0  0  0  0  0  0  0  0  0  0  0  # atno 10718 bound_to 10713
  153.9186  135.6785  153.4748 H   0  0  0  0  0  0  0  0  0  0  0  0  # atno 10763 bound_to 10752
  153.1041  135.4814  154.8916 H   0  0  0  0  0  0  0  0  0  0  0  0  # atno 10764 bound_to 10752
  154.7490  135.3180  154.8548 H   0  0  0  0  0  0  0  0  0  0  0  0  # atno 10765 bound_to 10752
  140.0490  134.9266  157.0982 H   0  0  0  0  0  0  0  0  0  0  0  0  # atno 11005 bound_to 11000
  145.5731  139.1484  143.3277 LP  0  0  0  0  0  0  0  0  0  0  0  0  # atno 17320 bound_to 7965
  146.2196  140.5864  142.9023 LP  0  0  0  0  0  0  0  0  0  0  0  0  # atno 17321 bound_to 7965
  139.7371  144.7568  151.0710 LP  0  0  0  0  0  0  0  0  0  0  0  0  # atno 17342 bound_to 10162
  140.7774  143.5017  150.9763 LP  0  0  0  0  0  0  0  0  0  0  0  0  # atno 17343 bound_to 10162
  155.9715  130.4624  150.6144 LP  0  0  0  0  0  0  0  0  0  0  0  0  # atno 17370 bound_to 10713
  157.3887  131.0792  151.1413 LP  0  0  0  0  0  0  0  0  0  0  0  0  # atno 17371 bound_to 10713
  140.3948  134.2146  155.7165 LP  0  0  0  0  0  0  0  0  0  0  0  0  # atno 17394 bound_to 11000
  141.1921  133.8181  157.0853 LP  0  0  0  0  0  0  0  0  0  0  0  0  # atno 17395 bound_to 11000

$$$$
