AV-unprocessed.smi:3146|AV-procd|sdf|11985|dock7
  -GOLD-   2272017393D 1   1.00000     0.00000
 Structure written by MMmdl.
 35 36  0  0  0  0  0  0  0  0  2 V2000
  146.5552  138.4602  151.8201 O   0  0  0  0  0  0  0  0  0  0  0  0
  146.4352  138.1566  153.0082 C   0  0  0  0  0  0  0  0  0  0  0  0
  146.0054  136.7327  153.3893 C   0  0  0  0  0  0  0  0  0  0  0  0
  146.2625  135.7593  152.3083 N   0  3  0  0  0  0  0  0  0  0  0  0
  145.4330  135.9592  151.1030 C   0  0  0  0  0  0  0  0  0  0  0  0
  144.1996  135.0417  151.1031 C   0  0  0  0  0  0  0  0  0  0  0  0
  144.5327  133.6713  150.7585 N   0  0  0  0  0  0  0  0  0  0  0  0
  143.6805  132.6033  150.5710 C   0  0  0  0  0  0  0  0  0  0  0  0
  144.4503  131.5205  150.2552 C   0  0  0  0  0  0  0  0  0  0  0  0
  145.7785  132.0310  150.2762 C   0  0  0  0  0  0  0  0  0  0  0  0
  145.8242  133.3194  150.5757 N   0  0  0  0  0  0  0  0  0  0  0  0
  146.6726  139.0378  154.0016 N   0  0  0  0  0  0  0  0  0  0  0  0
  146.5609  138.7609  155.4335 C   0  0  0  0  0  0  0  0  0  0  0  0
  147.1464  139.9852  156.1381 C   0  0  0  0  0  0  0  0  0  0  0  0
  146.9719  141.1150  155.1326 C   0  0  0  0  0  0  0  0  0  0  0  0
  147.0762  140.4240  153.7729 C   0  0  0  0  0  0  0  0  0  0  0  0
  146.5472  136.4221  154.2835 H   0  0  0  0  0  0  0  0  0  0  0  0
  144.9403  136.7263  153.6247 H   0  0  0  0  0  0  0  0  0  0  0  0
  147.2350  135.8271  152.0424 H   0  0  0  0  0  0  0  0  0  0  0  0
  145.1122  137.0010  151.0689 H   0  0  0  0  0  0  0  0  0  0  0  0
  146.0324  135.7806  150.2093 H   0  0  0  0  0  0  0  0  0  0  0  0
  143.7040  135.0568  152.0751 H   0  0  0  0  0  0  0  0  0  0  0  0
  143.4711  135.4049  150.3772 H   0  0  0  0  0  0  0  0  0  0  0  0
  142.6097  132.7006  150.6760 H   0  0  0  0  0  0  0  0  0  0  0  0
  144.1160  130.5157  150.0432 H   0  0  0  0  0  0  0  0  0  0  0  0
  146.7035  131.5077  150.0829 H   0  0  0  0  0  0  0  0  0  0  0  0
  145.5081  138.6405  155.6927 H   0  0  0  0  0  0  0  0  0  0  0  0
  147.0912  137.8532  155.7246 H   0  0  0  0  0  0  0  0  0  0  0  0
  146.6669  140.1922  157.0954 H   0  0  0  0  0  0  0  0  0  0  0  0
  148.2093  139.8261  156.3251 H   0  0  0  0  0  0  0  0  0  0  0  0
  145.9792  141.5533  155.2447 H   0  0  0  0  0  0  0  0  0  0  0  0
  147.7050  141.9120  155.2599 H   0  0  0  0  0  0  0  0  0  0  0  0
  148.1063  140.4388  153.4139 H   0  0  0  0  0  0  0  0  0  0  0  0
  146.4502  140.9181  153.0283 H   0  0  0  0  0  0  0  0  0  0  0  0
  146.0965  134.8299  152.6674 H   0  0  0  0  0  0  0  0  0  0  0  0
  1  2  2  0  0  0  0
  2  3  1  0  0  0  0
  2 12  1  0  0  0  0
  3  4  1  0  0  0  0
  3 17  1  0  0  0  0
  3 18  1  0  0  0  0
  4  5  1  0  0  0  0
  4 19  1  0  0  0  0
  4 35  1  0  0  0  0
  5  6  1  0  0  0  0
  5 20  1  0  0  0  0
  5 21  1  0  0  0  0
  6  7  1  0  0  0  0
  6 22  1  0  0  0  0
  6 23  1  0  0  0  0
  7 11  1  0  0  0  0
  7  8  1  0  0  0  0
  8  9  2  0  0  0  0
  8 24  1  0  0  0  0
  9 10  1  0  0  0  0
  9 25  1  0  0  0  0
 10 11  2  0  0  0  0
 10 26  1  0  0  0  0
 12 16  1  0  0  0  0
 12 13  1  0  0  0  0
 13 14  1  0  0  0  0
 13 27  1  0  0  0  0
 13 28  1  0  0  0  0
 14 15  1  0  0  0  0
 14 29  1  0  0  0  0
 14 30  1  0  0  0  0
 15 16  1  0  0  0  0
 15 31  1  0  0  0  0
 15 32  1  0  0  0  0
 16 33  1  0  0  0  0
 16 34  1  0  0  0  0
M  CHG  1   4   1
M  END
> <s_m_source_file>
AV-unprocessed.smi

> <i_m_source_file_index>
3146

> <i_lp_mmshare_version>
43012

> <i_f3d_flags>
0

> <s_epik_input>
W0NIMl0xW0NIMl1bQ0gyXVtDSDJdTjFDKD1PKVtDSDJdW05IXVtDSDJdW0NIMl1uMltjSF1bY0hdW2NIXW4y

> <s_epik_cmdline>
J2VwaWtfcHl0aG9uJywgJy1waCcsICc3LjAnLCAnLXRuJywgJzgnLCAnLW1hJywgJzIwMCcsICctbWV0YWxfYmluZGluZycsICctaW1hZScsICc8aW5maWxlLm1hZT4nLCAnLW9tYWUnLCAnPG91dGZpbGUubWFlPic=

> <r_lp_tautomer_probability>
1

> <r_epik_Ionization_Penalty>
0.203171

> <r_epik_Ionization_Penalty_Charging>
0.203168

> <r_epik_Ionization_Penalty_Neutral>
2.33614e-06

> <r_epik_State_Penalty>
0.193072

> <r_epik_Charging_Adjusted_Penalty>
0.39624

> <i_epik_Tot_Q>
1

> <i_epik_Tot_abs_Q>
1

> <r_epik_Metal_State_Penalty>
0.193553

> <b_epik_Metal_Only>
0

> <s_lp_Force_Field>
OPLS_2005

> <r_lp_Energy>
25.7734

> <b_lp_Chiralities_Consistent>
1

> <s_lp_Variant>
AV-unprocessed.smi:3146-1

> <Gold.Version>
5.8.1

> <Gold.Id.Protein>
6NUR|6NUR_protein|mol2

> <Gold.PLP.Fitness>
45.3994

> <Gold.PLP.PLP>
-31.6918

> <Gold.PLP.part.hbond>
-2.0000

> <Gold.PLP.part.metal>
0.0000

> <Gold.PLP.part.buried>
-4.5824

> <Gold.PLP.part.nonpolar>
-26.0206

> <Gold.PLP.part.repulsive>
0.5838

> <Gold.PLP.ligand.clash>
0.0000

> <Gold.PLP.ligand.torsion>
0.6587

> <Gold.PLP.Chemscore.Hbond>
3.0000

> <Gold.PLP.Chemscore.CHOScore>
2.0000

> <Gold.PLP.Chemscore.Metal>
0.0000

> <Gold.Chemscore.Hbonds>
donor molecule, donor type, donor heavy atom, donor atom, acceptor molecule, acceptor atom, score
      L1  H     4    19       P1  7948  2.00
      L1  C     8    24       P1 10186  0.81
      L1  C    10    26       P1 10747  1.00

> <Gold.PLP.Chemscore.Internal.Correction>
0.0249

> <Gold.Rescore>
     Score         DG    S(hbond)    S(metal)    S(lipo)     H(rot)  DE(clash)    DE(int)     intcor
     12.28     -14.65       1.85        0.00      67.10       1.90       0.44       1.93       ----

> <Gold.Chemscore.Fitness>
12.2781

> <Gold.Chemscore.DG>
-14.6510

> <Gold.Chemscore.ZeroCoef>
-5.4800

> <Gold.Chemscore.Hbond>
1.8497

> <Gold.Chemscore.Metal>
0.0000

> <Gold.Chemscore.Lipo>
67.0954

> <Gold.Chemscore.Internal_Hbond>
0.0000

> <Gold.Chemscore.DEClash>
0.4417

> <Gold.Chemscore.DEInternal>
1.9312

> <Gold.Chemscore.Rot>
1.8974

> <Gold.Chemscore.Internal.Correction>
   9.000000E+99

> <Gold.Chemscore.Hbonds>
donor molecule, donor type, donor heavy atom, donor atom, acceptor molecule, acceptor atom, score
      L1  H     4    19       P1  7948  1.00

> <Gold.Chemscore.Hbond.Weighted>
-6.1781

> <Gold.Chemscore.Metal.Weighted>
-0.0000

> <Gold.Chemscore.Lipo.Weighted>
-7.8502

> <Gold.Chemscore.Internal_Hbond.Weighted>
0.0000

> <Gold.Chemscore.DEClash.Weighted>
0.4417

> <Gold.Chemscore.DEInternal.Weighted>
1.9312

> <Gold.Chemscore.Rot.Weighted>
4.8572

> <Gold.Chemscore.Internal.Correction.Weighted>
   9.000000E+99

> <Gold.Protein.RotatedTorsions>
[ 6907 6896 6895 6894 ] final   34.94 input  -60.11 | X-H torsion
[ 7974 7965 7964 7962 ] final   90.38 input  175.53 | X-H torsion
[ 8008 7997 7996 7995 ] final   58.63 input   59.86 | X-H torsion
[ 10167 10162 10161 10158 ] final  150.78 input  -65.29 | X-H torsion
[ 10718 10713 10712 10709 ] final  -22.44 input   66.30 | X-H torsion
[ 10763 10752 10751 10750 ] final   61.57 input  -60.55 | X-H torsion
[ 11005 11000 10999 10996 ] final  -10.57 input  -57.11 | X-H torsion

> <Gold.Protein.ActiveResidues>
 VAL166  LYS551  ARG553  GLY616  TRP617  ASP618  TYR619  PRO620  LYS621  CYS622 
 ASP623  PHE694  ASN695  SER759  ASP760  ASP761  ALA762  ILE779  LEU786  VAL792 
 PHE793  MET794  SER795  GLU796  ALA797  LYS798  CYS799  TRP800  GLU811  SER814 

> <Gold.Protein.RotatedAtoms>
  152.1093  134.9286  160.0566 H   0  0  0  0  0  0  0  0  0  0  0  0  # atno 6907 bound_to 6896
  152.0470  133.3997  159.4369 H   0  0  0  0  0  0  0  0  0  0  0  0  # atno 6908 bound_to 6896
  150.6843  134.3271  159.4855 H   0  0  0  0  0  0  0  0  0  0  0  0  # atno 6909 bound_to 6896
  145.5197  139.2279  143.2678 H   0  0  0  0  0  0  0  0  0  0  0  0  # atno 7974 bound_to 7965
  155.5531  140.3487  155.4473 H   0  0  0  0  0  0  0  0  0  0  0  0  # atno 8008 bound_to 7997
  156.0568  140.1331  157.0013 H   0  0  0  0  0  0  0  0  0  0  0  0  # atno 8009 bound_to 7997
  154.4460  140.0993  156.6443 H   0  0  0  0  0  0  0  0  0  0  0  0  # atno 8010 bound_to 7997
  139.4847  144.5495  151.7426 H   0  0  0  0  0  0  0  0  0  0  0  0  # atno 10167 bound_to 10162
  156.5045  130.4595  149.6682 H   0  0  0  0  0  0  0  0  0  0  0  0  # atno 10718 bound_to 10713
  152.9955  135.5496  154.6055 H   0  0  0  0  0  0  0  0  0  0  0  0  # atno 10763 bound_to 10752
  154.5387  135.2818  155.1117 H   0  0  0  0  0  0  0  0  0  0  0  0  # atno 10764 bound_to 10752
  154.2404  135.6417  153.5258 H   0  0  0  0  0  0  0  0  0  0  0  0  # atno 10765 bound_to 10752
  140.7462  133.8630  155.9007 H   0  0  0  0  0  0  0  0  0  0  0  0  # atno 11005 bound_to 11000
  146.2114  140.6009  142.9058 LP  0  0  0  0  0  0  0  0  0  0  0  0  # atno 17320 bound_to 7965
  144.7682  140.5579  143.6688 LP  0  0  0  0  0  0  0  0  0  0  0  0  # atno 17321 bound_to 7965
  140.5046  144.1117  150.5979 LP  0  0  0  0  0  0  0  0  0  0  0  0  # atno 17342 bound_to 10162
  140.4022  143.2698  151.9934 LP  0  0  0  0  0  0  0  0  0  0  0  0  # atno 17343 bound_to 10162
  156.3300  130.7326  151.2254 LP  0  0  0  0  0  0  0  0  0  0  0  0  # atno 17370 bound_to 10713
  157.7458  131.0432  150.4733 LP  0  0  0  0  0  0  0  0  0  0  0  0  # atno 17371 bound_to 10713
  140.9792  134.1428  157.4509 LP  0  0  0  0  0  0  0  0  0  0  0  0  # atno 17394 bound_to 11000
  139.8796  135.0005  156.6013 LP  0  0  0  0  0  0  0  0  0  0  0  0  # atno 17395 bound_to 11000

$$$$
