AV-unprocessed.smi:2583|AV-procd|sdf|10142|dock2
  -GOLD-   2272014153D 1   1.00000     0.00000
 Structure written by MMmdl.
 54 56  0  0  0  0  0  0  0  0  2 V2000
  152.9669  143.1676  163.4617 C   0  0  0  0  0  0  0  0  0  0  0  0
  152.6792  143.2750  161.9790 C   0  0  0  0  0  0  0  0  0  0  0  0
  152.3483  144.5122  161.3887 C   0  0  0  0  0  0  0  0  0  0  0  0
  152.0723  144.6553  160.0755 N   0  0  0  0  0  0  0  0  0  0  0  0
  152.1231  143.5548  159.2955 C   0  0  0  0  0  0  0  0  0  0  0  0
  152.4568  142.2704  159.7746 C   0  0  0  0  0  0  0  0  0  0  0  0
  152.4532  141.1914  158.8505 N   0  0  0  0  0  0  0  0  0  0  0  0
  151.8856  141.1371  157.6336 C   0  0  0  0  0  0  0  0  0  0  0  0
  151.2066  142.0289  157.1258 O   0  0  0  0  0  0  0  0  0  0  0  0
  152.1365  139.9629  157.0372 N   0  0  0  0  0  0  0  0  0  0  0  0
  151.6742  139.5621  155.7111 C   0  0  2  0  0  0  0  0  0  0  0  0
  150.1459  139.7270  155.6147 C   0  0  0  0  0  0  0  0  0  0  0  0
  149.6046  139.1426  154.2955 C   0  0  0  0  0  0  0  0  0  0  0  0
  149.9805  137.7092  154.1285 N   0  3  2  0  0  0  0  0  0  0  0  0
  149.2649  136.7493  155.0364 C   0  0  0  0  0  0  0  0  0  0  0  0
  149.6652  135.2785  154.7688 C   0  0  0  0  0  0  0  0  0  0  0  0
  148.8436  134.2883  155.6114 C   0  0  0  0  0  0  0  0  0  0  0  0
  147.4205  134.4509  155.3295 N   0  0  0  0  0  0  0  0  0  0  0  0
  146.6633  133.4559  156.0759 C   0  0  0  0  0  0  0  0  0  0  0  0
  146.9950  135.7877  155.7337 C   0  0  0  0  0  0  0  0  0  0  0  0
  147.7270  136.8502  154.8968 C   0  0  0  0  0  0  0  0  0  0  0  0
  151.4668  137.5922  154.1209 C   0  0  0  0  0  0  0  0  0  0  0  0
  152.0858  138.1042  155.4353 C   0  0  0  0  0  0  0  0  0  0  0  0
  152.7311  142.1317  161.1565 C   0  0  0  0  0  0  0  0  0  0  0  0
  152.9201  144.1431  163.9470 H   0  0  0  0  0  0  0  0  0  0  0  0
  153.9621  142.7530  163.6242 H   0  0  0  0  0  0  0  0  0  0  0  0
  152.2391  142.5119  163.9404 H   0  0  0  0  0  0  0  0  0  0  0  0
  152.2965  145.4117  161.9846 H   0  0  0  0  0  0  0  0  0  0  0  0
  151.8928  143.7068  158.2510 H   0  0  0  0  0  0  0  0  0  0  0  0
  152.8990  140.3452  159.1733 H   0  0  0  0  0  0  0  0  0  0  0  0
  152.6983  139.2921  157.5409 H   0  0  0  0  0  0  0  0  0  0  0  0
  152.1299  140.1871  154.9408 H   0  0  0  0  0  0  0  0  0  0  0  0
  149.6581  139.2448  156.4625 H   0  0  0  0  0  0  0  0  0  0  0  0
  149.8857  140.7841  155.6791 H   0  0  0  0  0  0  0  0  0  0  0  0
  148.5314  139.2994  154.2108 H   0  0  0  0  0  0  0  0  0  0  0  0
  150.0298  139.7035  153.4618 H   0  0  0  0  0  0  0  0  0  0  0  0
  149.5215  136.9796  156.0704 H   0  0  0  0  0  0  0  0  0  0  0  0
  149.5443  135.0439  153.7100 H   0  0  0  0  0  0  0  0  0  0  0  0
  150.7130  135.1092  155.0120 H   0  0  0  0  0  0  0  0  0  0  0  0
  149.1481  133.2690  155.3703 H   0  0  0  0  0  0  0  0  0  0  0  0
  149.0409  134.4379  156.6745 H   0  0  0  0  0  0  0  0  0  0  0  0
  145.5963  133.5563  155.8732 H   0  0  0  0  0  0  0  0  0  0  0  0
  146.8182  133.5582  157.1511 H   0  0  0  0  0  0  0  0  0  0  0  0
  146.9615  132.4489  155.7819 H   0  0  0  0  0  0  0  0  0  0  0  0
  145.9192  135.8875  155.5839 H   0  0  0  0  0  0  0  0  0  0  0  0
  147.1853  135.9427  156.7971 H   0  0  0  0  0  0  0  0  0  0  0  0
  147.3675  137.8221  155.2317 H   0  0  0  0  0  0  0  0  0  0  0  0
  147.4389  136.7514  153.8490 H   0  0  0  0  0  0  0  0  0  0  0  0
  151.7996  136.5802  153.9000 H   0  0  0  0  0  0  0  0  0  0  0  0
  151.8500  138.1923  153.2945 H   0  0  0  0  0  0  0  0  0  0  0  0
  153.1727  138.0340  155.3787 H   0  0  0  0  0  0  0  0  0  0  0  0
  151.7843  137.4615  156.2632 H   0  0  0  0  0  0  0  0  0  0  0  0
  152.9619  141.1753  161.5999 H   0  0  0  0  0  0  0  0  0  0  0  0
  149.6829  137.4554  153.1972 H   0  0  0  0  0  0  0  0  0  0  0  0
  1  2  1  0  0  0  0
  1 25  1  0  0  0  0
  1 26  1  0  0  0  0
  1 27  1  0  0  0  0
  2 24  1  0  0  0  0
  2  3  2  0  0  0  0
  3  4  1  0  0  0  0
  3 28  1  0  0  0  0
  4  5  2  0  0  0  0
  5  6  1  0  0  0  0
  5 29  1  0  0  0  0
  6  7  1  0  0  0  0
  6 24  2  0  0  0  0
  7  8  1  0  0  0  0
  7 30  1  0  0  0  0
  8  9  2  0  0  0  0
  8 10  1  0  0  0  0
 10 11  1  0  0  0  0
 10 31  1  0  0  0  0
 11 23  1  0  0  0  0
 11 12  1  0  0  0  0
 11 32  1  0  0  0  0
 12 13  1  0  0  0  0
 12 33  1  0  0  0  0
 12 34  1  0  0  0  0
 13 14  1  0  0  0  0
 13 35  1  0  0  0  0
 13 36  1  0  0  0  0
 14 15  1  0  0  0  0
 14 22  1  0  0  0  0
 14 54  1  0  0  0  0
 15 21  1  0  0  0  0
 15 16  1  0  0  0  0
 15 37  1  0  0  0  0
 16 17  1  0  0  0  0
 16 38  1  0  0  0  0
 16 39  1  0  0  0  0
 17 18  1  0  0  0  0
 17 40  1  0  0  0  0
 17 41  1  0  0  0  0
 18 19  1  0  0  0  0
 18 20  1  0  0  0  0
 19 42  1  0  0  0  0
 19 43  1  0  0  0  0
 19 44  1  0  0  0  0
 20 21  1  0  0  0  0
 20 45  1  0  0  0  0
 20 46  1  0  0  0  0
 21 47  1  0  0  0  0
 21 48  1  0  0  0  0
 22 23  1  0  0  0  0
 22 49  1  0  0  0  0
 22 50  1  0  0  0  0
 23 51  1  0  0  0  0
 23 52  1  0  0  0  0
 24 53  1  0  0  0  0
M  CHG  1  14   1
M  END
> <s_m_source_file>
AV-unprocessed.smi

> <i_m_source_file_index>
2583

> <i_lp_mmshare_version>
43012

> <i_f3d_flags>
0

> <s_epik_input>
W0NIM11jMVtjSF1uW2NIXWMoW2NIXTEpW05IXUMoPU8pW05IXVtDSF0yW0NIMl1bQ0gyXU4oW0NIMl1bQ0gyXTIpW0NIXTNbQ0gyXVtDSDJdTihbQ0gzXSlbQ0gyXVtDSDJdMw==

> <s_epik_cmdline>
J2VwaWtfcHl0aG9uJywgJy1waCcsICc3LjAnLCAnLXRuJywgJzgnLCAnLW1hJywgJzIwMCcsICctbWV0YWxfYmluZGluZycsICctaW1hZScsICc8aW5maWxlLm1hZT4nLCAnLW9tYWUnLCAnPG91dGZpbGUubWFlPic=

> <r_epik_Ionization_Penalty>
1.38006

> <r_epik_Ionization_Penalty_Charging>
0.00081195

> <r_epik_Ionization_Penalty_Neutral>
1.37925

> <r_epik_State_Penalty>
1.55585

> <r_epik_Charging_Adjusted_Penalty>
1.55666

> <i_epik_Tot_Q>
1

> <i_epik_Tot_abs_Q>
1

> <r_epik_Metal_State_Penalty>
1.55173

> <b_epik_Metal_Only>
0

> <s_lp_Force_Field>
OPLS_2005

> <r_lp_Energy>
35.4229

> <b_lp_Chiralities_Consistent>
1

> <s_lp_Variant>
AV-unprocessed.smi:2583-8

> <Gold.Version>
5.8.1

> <Gold.Id.Protein>
6NUR|6NUR_protein|mol2

> <Gold.PLP.Fitness>
49.5173

> <Gold.PLP.PLP>
-43.7149

> <Gold.PLP.part.hbond>
-1.0000

> <Gold.PLP.part.metal>
0.0000

> <Gold.PLP.part.buried>
-5.7010

> <Gold.PLP.part.nonpolar>
-36.8870

> <Gold.PLP.part.repulsive>
0.4937

> <Gold.PLP.ligand.clash>
0.0000

> <Gold.PLP.ligand.torsion>
0.1208

> <Gold.PLP.Chemscore.Hbond>
2.0000

> <Gold.PLP.Chemscore.CHOScore>
0.0000

> <Gold.PLP.Chemscore.Metal>
0.0000

> <Gold.Chemscore.Hbonds>
donor molecule, donor type, donor heavy atom, donor atom, acceptor molecule, acceptor atom, score
      L1  H    14    54       P1  7948  2.00

> <Gold.PLP.Chemscore.Internal.Correction>
0.0440

> <Gold.Rescore>
     Score         DG    S(hbond)    S(metal)    S(lipo)     H(rot)  DE(clash)    DE(int)     intcor
     17.12     -20.32       0.88        0.00     127.70       1.19       0.69       2.51       ----

> <Gold.Chemscore.Fitness>
17.1165

> <Gold.Chemscore.DG>
-20.3171

> <Gold.Chemscore.ZeroCoef>
-5.4800

> <Gold.Chemscore.Hbond>
0.8816

> <Gold.Chemscore.Metal>
0.0000

> <Gold.Chemscore.Lipo>
127.7035

> <Gold.Chemscore.Internal_Hbond>
0.0000

> <Gold.Chemscore.DEClash>
0.6949

> <Gold.Chemscore.DEInternal>
2.5056

> <Gold.Chemscore.Rot>
1.1910

> <Gold.Chemscore.Internal.Correction>
   9.000000E+99

> <Gold.Chemscore.Hbonds>
donor molecule, donor type, donor heavy atom, donor atom, acceptor molecule, acceptor atom, score
      L1  H    14    54       P1  7948  0.68

> <Gold.Chemscore.Hbond.Weighted>
-2.9446

> <Gold.Chemscore.Metal.Weighted>
-0.0000

> <Gold.Chemscore.Lipo.Weighted>
-14.9413

> <Gold.Chemscore.Internal_Hbond.Weighted>
0.0000

> <Gold.Chemscore.DEClash.Weighted>
0.6949

> <Gold.Chemscore.DEInternal.Weighted>
2.5056

> <Gold.Chemscore.Rot.Weighted>
3.0489

> <Gold.Chemscore.Internal.Correction.Weighted>
   9.000000E+99

> <Gold.Protein.RotatedTorsions>
[ 6907 6896 6895 6894 ] final  -35.28 input  -60.11 | X-H torsion
[ 7974 7965 7964 7962 ] final   54.09 input  175.53 | X-H torsion
[ 8008 7997 7996 7995 ] final  -91.14 input   59.86 | X-H torsion
[ 10167 10162 10161 10158 ] final  -27.48 input  -65.29 | X-H torsion
[ 10718 10713 10712 10709 ] final  -70.99 input   66.30 | X-H torsion
[ 10763 10752 10751 10750 ] final  170.30 input  -60.55 | X-H torsion
[ 11005 11000 10999 10996 ] final   43.81 input  -57.11 | X-H torsion

> <Gold.Protein.ActiveResidues>
 VAL166  LYS551  ARG553  GLY616  TRP617  ASP618  TYR619  PRO620  LYS621  CYS622 
 ASP623  PHE694  ASN695  SER759  ASP760  ASP761  ALA762  ILE779  LEU786  VAL792 
 PHE793  MET794  SER795  GLU796  ALA797  LYS798  CYS799  TRP800  GLU811  SER814 

> <Gold.Protein.RotatedAtoms>
  151.0419  134.9613  159.8165 H   0  0  0  0  0  0  0  0  0  0  0  0  # atno 6907 bound_to 6896
  152.5365  134.2647  159.8959 H   0  0  0  0  0  0  0  0  0  0  0  0  # atno 6908 bound_to 6896
  151.2660  133.4236  159.2652 H   0  0  0  0  0  0  0  0  0  0  0  0  # atno 6909 bound_to 6896
  145.9645  139.4090  143.0228 H   0  0  0  0  0  0  0  0  0  0  0  0  # atno 7974 bound_to 7965
  154.7071  140.0523  157.0514 H   0  0  0  0  0  0  0  0  0  0  0  0  # atno 8008 bound_to 7997
  155.0605  140.3189  155.4643 H   0  0  0  0  0  0  0  0  0  0  0  0  # atno 8009 bound_to 7997
  156.2778  140.2099  156.5732 H   0  0  0  0  0  0  0  0  0  0  0  0  # atno 8010 bound_to 7997
  140.7277  143.4090  151.1137 H   0  0  0  0  0  0  0  0  0  0  0  0  # atno 10167 bound_to 10162
  156.0383  130.4342  150.2377 H   0  0  0  0  0  0  0  0  0  0  0  0  # atno 10718 bound_to 10713
  154.3957  135.2754  155.2128 H   0  0  0  0  0  0  0  0  0  0  0  0  # atno 10763 bound_to 10752
  154.4175  135.6008  153.5993 H   0  0  0  0  0  0  0  0  0  0  0  0  # atno 10764 bound_to 10752
  152.9831  135.5964  154.4218 H   0  0  0  0  0  0  0  0  0  0  0  0  # atno 10765 bound_to 10752
  140.1610  134.4341  155.8317 H   0  0  0  0  0  0  0  0  0  0  0  0  # atno 11005 bound_to 11000
  145.7993  140.9778  143.1007 LP  0  0  0  0  0  0  0  0  0  0  0  0  # atno 17320 bound_to 7965
  144.6822  139.9782  143.7483 LP  0  0  0  0  0  0  0  0  0  0  0  0  # atno 17321 bound_to 7965
  139.7721  143.8479  152.3122 LP  0  0  0  0  0  0  0  0  0  0  0  0  # atno 17342 bound_to 10162
  139.8401  144.7214  150.9341 LP  0  0  0  0  0  0  0  0  0  0  0  0  # atno 17343 bound_to 10162
  157.0475  131.0053  151.3264 LP  0  0  0  0  0  0  0  0  0  0  0  0  # atno 17370 bound_to 10713
  157.5165  130.7971  149.7762 LP  0  0  0  0  0  0  0  0  0  0  0  0  # atno 17371 bound_to 10713
  141.2209  133.6913  156.7594 LP  0  0  0  0  0  0  0  0  0  0  0  0  # atno 17394 bound_to 11000
  140.2490  134.8555  157.3648 LP  0  0  0  0  0  0  0  0  0  0  0  0  # atno 17395 bound_to 11000

$$$$
