AV-unprocessed.smi:2784|AV-procd|sdf|10726|dock4
  -GOLD-   2272015163D 1   1.00000     0.00000
 Structure written by MMmdl.
 31 32  0  0  0  0  0  0  0  0  1 V2000
  150.7269  137.8951  154.4364 C   0  0  0  0  0  0  0  0  0  0  0  0
  150.5253  139.2368  154.0212 O   0  0  0  0  0  0  0  0  0  0  0  0
  149.4037  139.8598  154.6318 C   0  0  2  0  0  0  0  0  0  0  0  0
  148.1197  139.1693  154.1635 C   0  0  0  0  0  0  0  0  0  0  0  0
  147.0514  140.2531  154.2545 C   0  0  0  0  0  0  0  0  0  0  0  0
  147.7755  141.5191  153.7983 C   0  0  0  0  0  0  0  0  0  0  0  0
  149.2443  141.3451  154.2324 C   0  0  1  0  0  0  0  0  0  0  0  0
  149.5604  142.2166  155.3616 N   0  0  0  0  0  0  0  0  0  0  0  0
  150.5596  142.0177  156.2329 C   0  0  0  0  0  0  0  0  0  0  0  0
  151.3398  141.0673  156.1679 O   0  0  0  0  0  0  0  0  0  0  0  0
  150.5916  142.9832  157.1665 N   0  0  0  0  0  0  0  0  0  0  0  0
  151.4847  143.0950  158.2619 C   0  0  0  0  0  0  0  0  0  0  0  0
  152.3261  142.1574  158.7003 N   0  0  0  0  0  0  0  0  0  0  0  0
  152.9669  142.7413  159.7835 C   0  0  0  0  0  0  0  0  0  0  0  0
  152.4721  144.0105  159.9397 C   0  0  0  0  0  0  0  0  0  0  0  0
  151.5267  144.2493  158.9784 O   0  0  0  0  0  0  0  0  0  0  0  0
  151.5813  137.4747  153.9061 H   0  0  0  0  0  0  0  0  0  0  0  0
  149.8566  137.2775  154.2120 H   0  0  0  0  0  0  0  0  0  0  0  0
  150.9344  137.8306  155.5048 H   0  0  0  0  0  0  0  0  0  0  0  0
  149.4612  139.7543  155.7174 H   0  0  0  0  0  0  0  0  0  0  0  0
  148.2233  138.8541  153.1241 H   0  0  0  0  0  0  0  0  0  0  0  0
  147.8781  138.2861  154.7553 H   0  0  0  0  0  0  0  0  0  0  0  0
  146.1722  140.0301  153.6494 H   0  0  0  0  0  0  0  0  0  0  0  0
  146.7268  140.3652  155.2898 H   0  0  0  0  0  0  0  0  0  0  0  0
  147.7299  141.5853  152.7103 H   0  0  0  0  0  0  0  0  0  0  0  0
  147.3085  142.4230  154.1918 H   0  0  0  0  0  0  0  0  0  0  0  0
  149.8940  141.5744  153.3854 H   0  0  0  0  0  0  0  0  0  0  0  0
  148.9697  143.0251  155.4891 H   0  0  0  0  0  0  0  0  0  0  0  0
  149.8980  143.7123  157.0921 H   0  0  0  0  0  0  0  0  0  0  0  0
  153.7171  142.2132  160.3533 H   0  0  0  0  0  0  0  0  0  0  0  0
  152.6714  144.8124  160.6351 H   0  0  0  0  0  0  0  0  0  0  0  0
  1  2  1  0  0  0  0
  1 17  1  0  0  0  0
  1 18  1  0  0  0  0
  1 19  1  0  0  0  0
  2  3  1  0  0  0  0
  3  7  1  0  0  0  0
  3  4  1  0  0  0  0
  3 20  1  0  0  0  0
  4  5  1  0  0  0  0
  4 21  1  0  0  0  0
  4 22  1  0  0  0  0
  5  6  1  0  0  0  0
  5 23  1  0  0  0  0
  5 24  1  0  0  0  0
  6  7  1  0  0  0  0
  6 25  1  0  0  0  0
  6 26  1  0  0  0  0
  7  8  1  0  0  0  0
  7 27  1  0  0  0  0
  8  9  1  0  0  0  0
  8 28  1  0  0  0  0
  9 10  2  0  0  0  0
  9 11  1  0  0  0  0
 11 12  1  0  0  0  0
 11 29  1  0  0  0  0
 12 16  1  0  0  0  0
 12 13  2  0  0  0  0
 13 14  1  0  0  0  0
 14 15  2  0  0  0  0
 14 30  1  0  0  0  0
 15 16  1  0  0  0  0
 15 31  1  0  0  0  0
M  END
> <s_m_source_file>
AV-unprocessed.smi

> <i_m_source_file_index>
2784

> <i_lp_mmshare_version>
43012

> <i_f3d_flags>
0

> <s_epik_input>
W0NIM11PW0NAQEhdMVtDSDJdW0NIMl1bQ0gyXVtDQEhdMVtOSF1DKD1PKVtOSF1jMm5bY0hdW2NIXW8y

> <s_epik_cmdline>
J2VwaWtfcHl0aG9uJywgJy1waCcsICc3LjAnLCAnLXRuJywgJzgnLCAnLW1hJywgJzIwMCcsICctbWV0YWxfYmluZGluZycsICctaW1hZScsICc8aW5maWxlLm1hZT4nLCAnLW9tYWUnLCAnPG91dGZpbGUubWFlPic=

> <r_lp_tautomer_probability>
0.785861

> <r_epik_Ionization_Penalty>
4.58897e-05

> <r_epik_Ionization_Penalty_Charging>
0

> <r_epik_Ionization_Penalty_Neutral>
4.58897e-05

> <r_epik_State_Penalty>
0.0380021

> <r_epik_Charging_Adjusted_Penalty>
0.0380021

> <i_epik_Tot_Q>
0

> <i_epik_Tot_abs_Q>
0

> <r_epik_Metal_State_Penalty>
0.0585611

> <b_epik_Metal_Only>
0

> <s_lp_Force_Field>
OPLS_2005

> <r_lp_Energy>
17.9939

> <b_lp_Chiralities_Consistent>
1

> <s_lp_Variant>
AV-unprocessed.smi:2784-1

> <Gold.Version>
5.8.1

> <Gold.Id.Protein>
6NUR|6NUR_protein|mol2

> <Gold.PLP.Fitness>
38.2957

> <Gold.PLP.PLP>
-30.7496

> <Gold.PLP.part.hbond>
-3.0000

> <Gold.PLP.part.metal>
0.0000

> <Gold.PLP.part.buried>
-2.6652

> <Gold.PLP.part.nonpolar>
-24.7615

> <Gold.PLP.part.repulsive>
0.6901

> <Gold.PLP.ligand.clash>
0.0000

> <Gold.PLP.ligand.torsion>
0.3461

> <Gold.PLP.Chemscore.Hbond>
2.7440

> <Gold.PLP.Chemscore.CHOScore>
0.0000

> <Gold.PLP.Chemscore.Metal>
0.0000

> <Gold.Chemscore.Hbonds>
donor molecule, donor type, donor heavy atom, donor atom, acceptor molecule, acceptor atom, score
      L1  H     8    28       P1  8028  0.94
      L1  H    11    29       P1  8028  0.80
      P1  H  7989  7998       L1     2  1.00

> <Gold.PLP.Chemscore.Internal.Correction>
0.0063

> <Gold.Rescore>
     Score         DG    S(hbond)    S(metal)    S(lipo)     H(rot)  DE(clash)    DE(int)     intcor
     11.86     -16.21       1.96        0.00      64.61       1.32       0.13       4.22       ----

> <Gold.Chemscore.Fitness>
11.8606

> <Gold.Chemscore.DG>
-16.2087

> <Gold.Chemscore.ZeroCoef>
-5.4800

> <Gold.Chemscore.Hbond>
1.9635

> <Gold.Chemscore.Metal>
0.0000

> <Gold.Chemscore.Lipo>
64.6054

> <Gold.Chemscore.Internal_Hbond>
0.0000

> <Gold.Chemscore.DEClash>
0.1282

> <Gold.Chemscore.DEInternal>
4.2199

> <Gold.Chemscore.Rot>
1.3235

> <Gold.Chemscore.Internal.Correction>
   9.000000E+99

> <Gold.Chemscore.Hbonds>
donor molecule, donor type, donor heavy atom, donor atom, acceptor molecule, acceptor atom, score
      L1  H     8    28       P1  8028  0.91
      L1  H    11    29       P1  8028  0.73
      P1  H  7989  7998       L1     2  0.28

> <Gold.Chemscore.Hbond.Weighted>
-6.5581

> <Gold.Chemscore.Metal.Weighted>
-0.0000

> <Gold.Chemscore.Lipo.Weighted>
-7.5588

> <Gold.Chemscore.Internal_Hbond.Weighted>
0.0000

> <Gold.Chemscore.DEClash.Weighted>
0.1282

> <Gold.Chemscore.DEInternal.Weighted>
4.2199

> <Gold.Chemscore.Rot.Weighted>
3.3882

> <Gold.Chemscore.Internal.Correction.Weighted>
   9.000000E+99

> <Gold.Protein.RotatedTorsions>
[ 6907 6896 6895 6894 ] final  -19.79 input  -60.11 | X-H torsion
[ 7974 7965 7964 7962 ] final   64.55 input  175.53 | X-H torsion
[ 8008 7997 7996 7995 ] final -154.61 input   59.86 | X-H torsion
[ 10167 10162 10161 10158 ] final  -45.53 input  -65.29 | X-H torsion
[ 10718 10713 10712 10709 ] final  153.19 input   66.30 | X-H torsion
[ 10763 10752 10751 10750 ] final -151.88 input  -60.55 | X-H torsion
[ 11005 11000 10999 10996 ] final   99.01 input  -57.11 | X-H torsion

> <Gold.Protein.ActiveResidues>
 VAL166  LYS551  ARG553  GLY616  TRP617  ASP618  TYR619  PRO620  LYS621  CYS622 
 ASP623  PHE694  ASN695  SER759  ASP760  ASP761  ALA762  ILE779  LEU786  VAL792 
 PHE793  MET794  SER795  GLU796  ALA797  LYS798  CYS799  TRP800  GLU811  SER814 

> <Gold.Protein.RotatedAtoms>
  151.2578  135.0644  159.9086 H   0  0  0  0  0  0  0  0  0  0  0  0  # atno 6907 bound_to 6896
  152.5370  134.0263  159.8015 H   0  0  0  0  0  0  0  0  0  0  0  0  # atno 6908 bound_to 6896
  151.0481  133.5598  159.2676 H   0  0  0  0  0  0  0  0  0  0  0  0  # atno 6909 bound_to 6896
  145.8489  139.3241  143.0887 H   0  0  0  0  0  0  0  0  0  0  0  0  # atno 7974 bound_to 7965
  155.6891  140.0753  157.2455 H   0  0  0  0  0  0  0  0  0  0  0  0  # atno 8008 bound_to 7997
  154.4092  140.1668  156.2119 H   0  0  0  0  0  0  0  0  0  0  0  0  # atno 8009 bound_to 7997
  155.9468  140.3380  155.6376 H   0  0  0  0  0  0  0  0  0  0  0  0  # atno 8010 bound_to 7997
  140.6854  143.2875  151.3652 H   0  0  0  0  0  0  0  0  0  0  0  0  # atno 10167 bound_to 10162
  157.2480  131.0773  151.1748 H   0  0  0  0  0  0  0  0  0  0  0  0  # atno 10718 bound_to 10713
  154.8030  135.3249  154.7503 H   0  0  0  0  0  0  0  0  0  0  0  0  # atno 10763 bound_to 10752
  153.8167  135.6891  153.4837 H   0  0  0  0  0  0  0  0  0  0  0  0  # atno 10764 bound_to 10752
  153.1758  135.4605  154.9907 H   0  0  0  0  0  0  0  0  0  0  0  0  # atno 10765 bound_to 10752
  139.8771  134.9076  156.4541 H   0  0  0  0  0  0  0  0  0  0  0  0  # atno 11005 bound_to 11000
  145.9380  140.9000  143.0322 LP  0  0  0  0  0  0  0  0  0  0  0  0  # atno 17320 bound_to 7965
  144.6730  140.1510  143.7430 LP  0  0  0  0  0  0  0  0  0  0  0  0  # atno 17321 bound_to 7965
  139.6209  144.0910  152.2390 LP  0  0  0  0  0  0  0  0  0  0  0  0  # atno 17342 bound_to 10162
  140.0354  144.6049  150.7454 LP  0  0  0  0  0  0  0  0  0  0  0  0  # atno 17343 bound_to 10162
  157.3308  130.6984  149.6323 LP  0  0  0  0  0  0  0  0  0  0  0  0  # atno 17370 bound_to 10713
  155.9667  130.4308  150.4892 LP  0  0  0  0  0  0  0  0  0  0  0  0  # atno 17371 bound_to 10713
  140.8911  133.7848  155.9572 LP  0  0  0  0  0  0  0  0  0  0  0  0  # atno 17394 bound_to 11000
  140.8753  134.2677  157.5171 LP  0  0  0  0  0  0  0  0  0  0  0  0  # atno 17395 bound_to 11000

$$$$
