AV-unprocessed.smi:2593|AV-procd|sdf|10164|dock4
  -GOLD-   2272014173D 1   1.00000     0.00000
 Structure written by MMmdl.
 41 43  0  0  0  0  0  0  0  0  2 V2000
  140.6616  138.3052  153.0830 C   0  0  0  0  0  0  0  0  0  0  0  0
  141.2448  137.0759  153.4769 O   0  0  0  0  0  0  0  0  0  0  0  0
  142.5448  136.8927  152.9395 C   0  0  0  0  0  0  0  0  0  0  0  0
  143.0213  135.4624  153.2284 C   0  0  0  0  0  0  0  0  0  0  0  0
  144.3281  135.1785  152.6185 N   0  0  0  0  0  0  0  0  0  0  0  0
  145.5206  135.8286  152.7288 C   0  0  0  0  0  0  0  0  0  0  0  0
  145.8685  137.2434  153.7207 S   0  0  0  0  0  0  0  0  0  0  0  0
  146.4556  138.4940  152.5424 C   0  0  0  0  0  0  0  0  0  0  0  0
  147.3388  139.4995  153.2561 C   0  0  0  0  0  0  0  0  0  0  0  0
  146.9694  140.8591  153.3250 C   0  0  0  0  0  0  0  0  0  0  0  0
  147.8398  141.7578  153.9713 C   0  0  0  0  0  0  0  0  0  0  0  0
  149.0424  141.2656  154.5148 C   0  0  0  0  0  0  0  0  0  0  0  0
  149.3209  139.8890  154.3933 C   0  0  0  0  0  0  0  0  0  0  0  0
  150.5028  139.3657  154.9106 N   0  0  0  0  0  0  0  0  0  0  0  0
  148.4895  139.0198  153.7809 N   0  0  0  0  0  0  0  0  0  0  0  0
  146.4247  135.1728  151.9513 N   0  3  0  0  0  0  0  0  0  0  0  0
  145.8059  134.0828  151.3379 C   0  0  0  0  0  0  0  0  0  0  0  0
  146.3091  133.1207  150.4677 C   0  0  0  0  0  0  0  0  0  0  0  0
  145.4032  132.1370  150.0197 C   0  0  0  0  0  0  0  0  0  0  0  0
  144.0560  132.1348  150.4357 C   0  0  0  0  0  0  0  0  0  0  0  0
  143.5565  133.1150  151.3186 C   0  0  0  0  0  0  0  0  0  0  0  0
  144.4590  134.0823  151.7592 C   0  0  0  0  0  0  0  0  0  0  0  0
  139.6700  138.3986  153.5258 H   0  0  0  0  0  0  0  0  0  0  0  0
  140.5530  138.3605  151.9992 H   0  0  0  0  0  0  0  0  0  0  0  0
  141.2614  139.1519  153.4191 H   0  0  0  0  0  0  0  0  0  0  0  0
  142.5341  137.0675  151.8627 H   0  0  0  0  0  0  0  0  0  0  0  0
  143.2343  137.6142  153.3801 H   0  0  0  0  0  0  0  0  0  0  0  0
  143.1127  135.3138  154.3038 H   0  0  0  0  0  0  0  0  0  0  0  0
  142.2981  134.7265  152.8761 H   0  0  0  0  0  0  0  0  0  0  0  0
  147.0158  138.0049  151.7452 H   0  0  0  0  0  0  0  0  0  0  0  0
  145.6047  138.9943  152.0794 H   0  0  0  0  0  0  0  0  0  0  0  0
  146.0439  141.2066  152.8893 H   0  0  0  0  0  0  0  0  0  0  0  0
  147.5922  142.8064  154.0441 H   0  0  0  0  0  0  0  0  0  0  0  0
  149.7313  141.9325  155.0128 H   0  0  0  0  0  0  0  0  0  0  0  0
  151.1777  139.9536  155.3783 H   0  0  0  0  0  0  0  0  0  0  0  0
  150.6668  138.3697  154.9368 H   0  0  0  0  0  0  0  0  0  0  0  0
  147.3405  133.1207  150.1464 H   0  0  0  0  0  0  0  0  0  0  0  0
  145.7485  131.3692  149.3425 H   0  0  0  0  0  0  0  0  0  0  0  0
  143.3915  131.3652  150.0704 H   0  0  0  0  0  0  0  0  0  0  0  0
  142.5226  133.1052  151.6307 H   0  0  0  0  0  0  0  0  0  0  0  0
  147.3939  135.4476  151.8579 H   0  0  0  0  0  0  0  0  0  0  0  0
  1  2  1  0  0  0  0
  1 23  1  0  0  0  0
  1 24  1  0  0  0  0
  1 25  1  0  0  0  0
  2  3  1  0  0  0  0
  3  4  1  0  0  0  0
  3 26  1  0  0  0  0
  3 27  1  0  0  0  0
  4  5  1  0  0  0  0
  4 28  1  0  0  0  0
  4 29  1  0  0  0  0
  5 22  1  0  0  0  0
  5  6  1  0  0  0  0
  6  7  1  0  0  0  0
  6 16  2  0  0  0  0
  7  8  1  0  0  0  0
  8  9  1  0  0  0  0
  8 30  1  0  0  0  0
  8 31  1  0  0  0  0
  9 15  1  0  0  0  0
  9 10  2  0  0  0  0
 10 11  1  0  0  0  0
 10 32  1  0  0  0  0
 11 12  2  0  0  0  0
 11 33  1  0  0  0  0
 12 13  1  0  0  0  0
 12 34  1  0  0  0  0
 13 14  1  0  0  0  0
 13 15  2  0  0  0  0
 14 35  1  0  0  0  0
 14 36  1  0  0  0  0
 16 17  1  0  0  0  0
 16 41  1  0  0  0  0
 17 22  2  0  0  0  0
 17 18  1  0  0  0  0
 18 19  2  0  0  0  0
 18 37  1  0  0  0  0
 19 20  1  0  0  0  0
 19 38  1  0  0  0  0
 20 21  2  0  0  0  0
 20 39  1  0  0  0  0
 21 22  1  0  0  0  0
 21 40  1  0  0  0  0
M  CHG  1  16   1
M  END
> <s_m_source_file>
AV-unprocessed.smi

> <i_m_source_file_index>
2593

> <i_lp_mmshare_version>
43012

> <i_f3d_flags>
0

> <s_epik_input>
W2NIXTFbY0hdW2NIXVtjSF1jKGMxMiluKFtDSDJdW0NIMl1PW0NIM10pYyhuMilTW0NIMl1jM1tjSF1bY0hdW2NIXWMobjMpW05IMl0=

> <s_epik_cmdline>
J2VwaWtfcHl0aG9uJywgJy1waCcsICc3LjAnLCAnLXRuJywgJzgnLCAnLW1hJywgJzIwMCcsICctbWV0YWxfYmluZGluZycsICctaW1hZScsICc8aW5maWxlLm1hZT4nLCAnLW9tYWUnLCAnPG91dGZpbGUubWFlPic=

> <r_lp_tautomer_probability>
1

> <r_epik_Ionization_Penalty>
1.62501

> <r_epik_Ionization_Penalty_Charging>
1.62036

> <r_epik_Ionization_Penalty_Neutral>
0.00464699

> <r_epik_State_Penalty>
1.7318

> <r_epik_Charging_Adjusted_Penalty>
3.35216

> <i_epik_Tot_Q>
1

> <i_epik_Tot_abs_Q>
1

> <r_epik_Metal_State_Penalty>
1.7649

> <b_epik_Metal_Only>
0

> <s_lp_Force_Field>
OPLS_2005

> <r_lp_Energy>
8.46533

> <b_lp_Chiralities_Consistent>
1

> <s_lp_Variant>
AV-unprocessed.smi:2593-2

> <Gold.Version>
5.8.1

> <Gold.Id.Protein>
6NUR|6NUR_protein|mol2

> <Gold.PLP.Fitness>
49.5631

> <Gold.PLP.PLP>
-43.8906

> <Gold.PLP.part.hbond>
-1.0000

> <Gold.PLP.part.metal>
0.0000

> <Gold.PLP.part.buried>
-6.4166

> <Gold.PLP.part.nonpolar>
-37.1885

> <Gold.PLP.part.repulsive>
1.2254

> <Gold.PLP.ligand.clash>
0.0000

> <Gold.PLP.ligand.torsion>
0.1953

> <Gold.PLP.Chemscore.Hbond>
2.0000

> <Gold.PLP.Chemscore.CHOScore>
0.0000

> <Gold.PLP.Chemscore.Metal>
0.0000

> <Gold.Chemscore.Hbonds>
donor molecule, donor type, donor heavy atom, donor atom, acceptor molecule, acceptor atom, score
      L1  H    16    41       P1  7948  2.00

> <Gold.PLP.Chemscore.Internal.Correction>
0.0631

> <Gold.Rescore>
     Score         DG    S(hbond)    S(metal)    S(lipo)     H(rot)  DE(clash)    DE(int)     intcor
     14.23     -14.55       1.00        0.00      97.11       2.19       0.07       0.25       ----

> <Gold.Chemscore.Fitness>
14.2255

> <Gold.Chemscore.DG>
-14.5513

> <Gold.Chemscore.ZeroCoef>
-5.4800

> <Gold.Chemscore.Hbond>
0.9958

> <Gold.Chemscore.Metal>
0.0000

> <Gold.Chemscore.Lipo>
97.1131

> <Gold.Chemscore.Internal_Hbond>
0.0000

> <Gold.Chemscore.DEClash>
0.0719

> <Gold.Chemscore.DEInternal>
0.2538

> <Gold.Chemscore.Rot>
2.1941

> <Gold.Chemscore.Internal.Correction>
   9.000000E+99

> <Gold.Chemscore.Hbonds>
donor molecule, donor type, donor heavy atom, donor atom, acceptor molecule, acceptor atom, score
      L1  H    16    41       P1  7948  1.00

> <Gold.Chemscore.Hbond.Weighted>
-3.3260

> <Gold.Chemscore.Metal.Weighted>
-0.0000

> <Gold.Chemscore.Lipo.Weighted>
-11.3622

> <Gold.Chemscore.Internal_Hbond.Weighted>
0.0000

> <Gold.Chemscore.DEClash.Weighted>
0.0719

> <Gold.Chemscore.DEInternal.Weighted>
0.2538

> <Gold.Chemscore.Rot.Weighted>
5.6169

> <Gold.Chemscore.Internal.Correction.Weighted>
   9.000000E+99

> <Gold.Protein.RotatedTorsions>
[ 6907 6896 6895 6894 ] final   77.81 input  -60.11 | X-H torsion
[ 7974 7965 7964 7962 ] final  -52.31 input  175.53 | X-H torsion
[ 8008 7997 7996 7995 ] final -170.56 input   59.86 | X-H torsion
[ 10167 10162 10161 10158 ] final  -92.99 input  -65.29 | X-H torsion
[ 10718 10713 10712 10709 ] final   -3.01 input   66.30 | X-H torsion
[ 10763 10752 10751 10750 ] final  102.34 input  -60.55 | X-H torsion
[ 11005 11000 10999 10996 ] final   83.72 input  -57.11 | X-H torsion

> <Gold.Protein.ActiveResidues>
 VAL166  LYS551  ARG553  GLY616  TRP617  ASP618  TYR619  PRO620  LYS621  CYS622 
 ASP623  PHE694  ASN695  SER759  ASP760  ASP761  ALA762  ILE779  LEU786  VAL792 
 PHE793  MET794  SER795  GLU796  ALA797  LYS798  CYS799  TRP800  GLU811  SER814 

> <Gold.Protein.RotatedAtoms>
  152.5133  134.3761  159.9334 H   0  0  0  0  0  0  0  0  0  0  0  0  # atno 6907 bound_to 6896
  151.3716  133.3846  159.2708 H   0  0  0  0  0  0  0  0  0  0  0  0  # atno 6908 bound_to 6896
  150.9573  134.8985  159.7767 H   0  0  0  0  0  0  0  0  0  0  0  0  # atno 6909 bound_to 6896
  145.9094  140.7928  142.9703 H   0  0  0  0  0  0  0  0  0  0  0  0  # atno 7974 bound_to 7965
  155.9199  140.1072  157.1215 H   0  0  0  0  0  0  0  0  0  0  0  0  # atno 8008 bound_to 7997
  154.4052  140.1258  156.4731 H   0  0  0  0  0  0  0  0  0  0  0  0  # atno 8009 bound_to 7997
  155.7208  140.3470  155.5017 H   0  0  0  0  0  0  0  0  0  0  0  0  # atno 8010 bound_to 7997
  140.3292  143.3004  151.9961 H   0  0  0  0  0  0  0  0  0  0  0  0  # atno 10167 bound_to 10162
  156.7824  130.5335  149.5749 H   0  0  0  0  0  0  0  0  0  0  0  0  # atno 10718 bound_to 10713
  153.3384  135.4014  155.1552 H   0  0  0  0  0  0  0  0  0  0  0  0  # atno 10763 bound_to 10752
  154.8638  135.3627  154.5379 H   0  0  0  0  0  0  0  0  0  0  0  0  # atno 10764 bound_to 10752
  153.5822  135.7076  153.5518 H   0  0  0  0  0  0  0  0  0  0  0  0  # atno 10765 bound_to 10752
  139.9022  134.8165  156.2348 H   0  0  0  0  0  0  0  0  0  0  0  0  # atno 11005 bound_to 11000
  144.6742  140.1802  143.7406 LP  0  0  0  0  0  0  0  0  0  0  0  0  # atno 17320 bound_to 7965
  145.8691  139.2262  143.1672 LP  0  0  0  0  0  0  0  0  0  0  0  0  # atno 17321 bound_to 7965
  139.4859  144.6249  151.7184 LP  0  0  0  0  0  0  0  0  0  0  0  0  # atno 17342 bound_to 10162
  140.5413  144.0575  150.6089 LP  0  0  0  0  0  0  0  0  0  0  0  0  # atno 17343 bound_to 10162
  156.1209  130.6109  151.0192 LP  0  0  0  0  0  0  0  0  0  0  0  0  # atno 17370 bound_to 10713
  157.6640  131.0875  150.7773 LP  0  0  0  0  0  0  0  0  0  0  0  0  # atno 17371 bound_to 10713
  141.0322  133.6982  156.1451 LP  0  0  0  0  0  0  0  0  0  0  0  0  # atno 17394 bound_to 11000
  140.7079  134.4493  157.5583 LP  0  0  0  0  0  0  0  0  0  0  0  0  # atno 17395 bound_to 11000

$$$$
