AV-unprocessed.smi:1425|AV-procd|sdf|5804|dock9
  -GOLD-   22720 5453D 1   1.00000     0.00000
 Structure written by MMmdl.
 36 37  0  0  0  0  0  0  0  0  1 V2000
  147.7053  132.9250  152.3416 C   0  0  0  0  0  0  0  0  0  0  0  0
  146.3259  132.8806  151.7043 C   0  0  0  0  0  0  0  0  0  0  0  0
  145.7628  131.6324  151.3638 C   0  0  0  0  0  0  0  0  0  0  0  0
  144.4879  131.5931  150.7741 C   0  0  0  0  0  0  0  0  0  0  0  0
  143.8257  132.8119  150.5482 C   0  0  0  0  0  0  0  0  0  0  0  0
  144.3563  134.0093  150.8706 N   0  0  0  0  0  0  0  0  0  0  0  0
  145.5864  134.0648  151.4407 C   0  0  0  0  0  0  0  0  0  0  0  0
  146.2124  135.2911  151.8017 N   0  0  0  0  0  0  0  0  0  0  0  0
  145.6371  136.4552  152.1513 C   0  0  0  0  0  0  0  0  0  0  0  0
  144.4257  136.6506  152.2528 O   0  0  0  0  0  0  0  0  0  0  0  0
  146.5617  137.3978  152.3862 N   0  0  0  0  0  0  0  0  0  0  0  0
  146.2882  138.7772  152.7786 C   0  0  0  0  0  0  0  0  0  0  0  0
  147.5769  139.5342  153.1519 C   0  0  1  0  0  0  0  0  0  0  0  0
  147.2914  140.9683  153.6387 C   0  0  0  0  0  0  0  0  0  0  0  0
  148.5793  141.5522  154.2274 C   0  0  0  0  0  0  0  0  0  0  0  0
  149.4460  140.1414  155.0094 S   0  0  0  0  0  0  0  0  0  0  0  0
  150.8171  140.0711  154.4820 O   0  0  0  0  0  0  0  0  0  0  0  0
  149.1913  140.1512  156.4578 O   0  0  0  0  0  0  0  0  0  0  0  0
  148.4199  138.8352  154.2333 C   0  0  0  0  0  0  0  0  0  0  0  0
  148.1155  131.9232  152.4714 H   0  0  0  0  0  0  0  0  0  0  0  0
  147.6575  133.3970  153.3235 H   0  0  0  0  0  0  0  0  0  0  0  0
  148.3966  133.4915  151.7170 H   0  0  0  0  0  0  0  0  0  0  0  0
  146.2995  130.7137  151.5503 H   0  0  0  0  0  0  0  0  0  0  0  0
  144.0300  130.6538  150.5018 H   0  0  0  0  0  0  0  0  0  0  0  0
  142.8449  132.8268  150.0965 H   0  0  0  0  0  0  0  0  0  0  0  0
  147.2211  135.2824  151.7767 H   0  0  0  0  0  0  0  0  0  0  0  0
  147.5328  137.1437  152.2798 H   0  0  0  0  0  0  0  0  0  0  0  0
  145.8088  139.2694  151.9320 H   0  0  0  0  0  0  0  0  0  0  0  0
  145.5683  138.8179  153.5981 H   0  0  0  0  0  0  0  0  0  0  0  0
  148.1968  139.6182  152.2581 H   0  0  0  0  0  0  0  0  0  0  0  0
  146.9004  141.5970  152.8382 H   0  0  0  0  0  0  0  0  0  0  0  0
  146.5302  140.9372  154.4195 H   0  0  0  0  0  0  0  0  0  0  0  0
  149.2209  141.9479  153.4397 H   0  0  0  0  0  0  0  0  0  0  0  0
  148.3981  142.3387  154.9600 H   0  0  0  0  0  0  0  0  0  0  0  0
  147.7847  138.4083  155.0102 H   0  0  0  0  0  0  0  0  0  0  0  0
  149.0560  138.0446  153.8350 H   0  0  0  0  0  0  0  0  0  0  0  0
  1  2  1  0  0  0  0
  1 20  1  0  0  0  0
  1 21  1  0  0  0  0
  1 22  1  0  0  0  0
  2  7  1  0  0  0  0
  2  3  2  0  0  0  0
  3  4  1  0  0  0  0
  3 23  1  0  0  0  0
  4  5  2  0  0  0  0
  4 24  1  0  0  0  0
  5  6  1  0  0  0  0
  5 25  1  0  0  0  0
  6  7  2  0  0  0  0
  7  8  1  0  0  0  0
  8  9  1  0  0  0  0
  8 26  1  0  0  0  0
  9 10  2  0  0  0  0
  9 11  1  0  0  0  0
 11 12  1  0  0  0  0
 11 27  1  0  0  0  0
 12 13  1  0  0  0  0
 12 28  1  0  0  0  0
 12 29  1  0  0  0  0
 13 19  1  0  0  0  0
 13 14  1  0  0  0  0
 13 30  1  0  0  0  0
 14 15  1  0  0  0  0
 14 31  1  0  0  0  0
 14 32  1  0  0  0  0
 15 16  1  0  0  0  0
 15 33  1  0  0  0  0
 15 34  1  0  0  0  0
 16 17  2  0  0  0  0
 16 18  2  0  0  0  0
 16 19  1  0  0  0  0
 19 35  1  0  0  0  0
 19 36  1  0  0  0  0
M  END
> <s_m_source_file>
AV-unprocessed.smi

> <i_m_source_file_index>
1425

> <i_lp_mmshare_version>
43012

> <i_f3d_flags>
0

> <s_epik_input>
W0NIM11jMVtjSF1bY0hdW2NIXW5jMVtOSF1DKD1PKVtOSF1bQ0gyXVtDQEBIXShbQ0gyXTIpW0NIMl1bQ0gyXVMyKD1PKT1P

> <s_epik_cmdline>
J2VwaWtfcHl0aG9uJywgJy1waCcsICc3LjAnLCAnLXRuJywgJzgnLCAnLW1hJywgJzIwMCcsICctbWV0YWxfYmluZGluZycsICctaW1hZScsICc8aW5maWxlLm1hZT4nLCAnLW9tYWUnLCAnPG91dGZpbGUubWFlPic=

> <r_lp_tautomer_probability>
1

> <r_epik_Ionization_Penalty>
5.46275e-05

> <r_epik_Ionization_Penalty_Charging>
0

> <r_epik_Ionization_Penalty_Neutral>
5.46275e-05

> <r_epik_State_Penalty>
-0

> <r_epik_Charging_Adjusted_Penalty>
0

> <i_epik_Tot_Q>
0

> <i_epik_Tot_abs_Q>
0

> <r_epik_Metal_State_Penalty>
-0

> <b_epik_Metal_Only>
0

> <s_lp_Force_Field>
OPLS_2005

> <r_lp_Energy>
7.35863

> <b_lp_Chiralities_Consistent>
1

> <s_lp_Variant>
AV-unprocessed.smi:1425-2

> <Gold.Version>
5.8.1

> <Gold.Id.Protein>
6NUR|6NUR_protein|mol2

> <Gold.PLP.Fitness>
44.4536

> <Gold.PLP.PLP>
-32.8611

> <Gold.PLP.part.hbond>
-2.9981

> <Gold.PLP.part.metal>
0.0000

> <Gold.PLP.part.buried>
-2.7882

> <Gold.PLP.part.nonpolar>
-28.7806

> <Gold.PLP.part.repulsive>
0.5485

> <Gold.PLP.ligand.clash>
0.0000

> <Gold.PLP.ligand.torsion>
0.2049

> <Gold.PLP.Chemscore.Hbond>
3.0000

> <Gold.PLP.Chemscore.CHOScore>
1.0000

> <Gold.PLP.Chemscore.Metal>
0.0000

> <Gold.Chemscore.Hbonds>
donor molecule, donor type, donor heavy atom, donor atom, acceptor molecule, acceptor atom, score
      L1  H     8    26       P1  7948  1.00
      L1  H    11    27       P1  7948  1.00
      P1  H  7989  7998       L1    17  0.94
      L1  C     5    25       P1 10186  1.00

> <Gold.PLP.Chemscore.Internal.Correction>
0.0023

> <Gold.Rescore>
     Score         DG    S(hbond)    S(metal)    S(lipo)     H(rot)  DE(clash)    DE(int)     intcor
     18.77     -20.11       2.93        0.00      69.71       1.29       0.02       1.33       ----

> <Gold.Chemscore.Fitness>
18.7699

> <Gold.Chemscore.DG>
-20.1132

> <Gold.Chemscore.ZeroCoef>
-5.4800

> <Gold.Chemscore.Hbond>
2.9311

> <Gold.Chemscore.Metal>
0.0000

> <Gold.Chemscore.Lipo>
69.7050

> <Gold.Chemscore.Internal_Hbond>
0.0000

> <Gold.Chemscore.DEClash>
0.0178

> <Gold.Chemscore.DEInternal>
1.3255

> <Gold.Chemscore.Rot>
1.2939

> <Gold.Chemscore.Internal.Correction>
   9.000000E+99

> <Gold.Chemscore.Hbonds>
donor molecule, donor type, donor heavy atom, donor atom, acceptor molecule, acceptor atom, score
      L1  H     8    26       P1  7948  0.93
      L1  H    11    27       P1  7948  1.00
      P1  H  7989  7998       L1    17  0.90

> <Gold.Chemscore.Hbond.Weighted>
-9.7900

> <Gold.Chemscore.Metal.Weighted>
-0.0000

> <Gold.Chemscore.Lipo.Weighted>
-8.1555

> <Gold.Chemscore.Internal_Hbond.Weighted>
0.0000

> <Gold.Chemscore.DEClash.Weighted>
0.0178

> <Gold.Chemscore.DEInternal.Weighted>
1.3255

> <Gold.Chemscore.Rot.Weighted>
3.3123

> <Gold.Chemscore.Internal.Correction.Weighted>
   9.000000E+99

> <Gold.Protein.RotatedTorsions>
[ 6907 6896 6895 6894 ] final   31.62 input  -60.11 | X-H torsion
[ 7974 7965 7964 7962 ] final  119.15 input  175.53 | X-H torsion
[ 8008 7997 7996 7995 ] final  -74.61 input   59.86 | X-H torsion
[ 10167 10162 10161 10158 ] final   76.94 input  -65.29 | X-H torsion
[ 10718 10713 10712 10709 ] final  136.61 input   66.30 | X-H torsion
[ 10763 10752 10751 10750 ] final   96.43 input  -60.55 | X-H torsion
[ 11005 11000 10999 10996 ] final -119.50 input  -57.11 | X-H torsion

> <Gold.Protein.ActiveResidues>
 VAL166  LYS551  ARG553  GLY616  TRP617  ASP618  TYR619  PRO620  LYS621  CYS622 
 ASP623  PHE694  ASN695  SER759  ASP760  ASP761  ALA762  ILE779  LEU786  VAL792 
 PHE793  MET794  SER795  GLU796  ALA797  LYS798  CYS799  TRP800  GLU811  SER814 

> <Gold.Protein.RotatedAtoms>
  152.0628  134.9583  160.0574 H   0  0  0  0  0  0  0  0  0  0  0  0  # atno 6907 bound_to 6896
  152.0940  133.4210  159.4565 H   0  0  0  0  0  0  0  0  0  0  0  0  # atno 6908 bound_to 6896
  150.6837  134.2758  159.4650 H   0  0  0  0  0  0  0  0  0  0  0  0  # atno 6909 bound_to 6896
  145.1465  139.3236  143.4588 H   0  0  0  0  0  0  0  0  0  0  0  0  # atno 7974 bound_to 7965
  154.5345  140.0758  156.8404 H   0  0  0  0  0  0  0  0  0  0  0  0  # atno 8008 bound_to 7997
  155.3306  140.3401  155.4221 H   0  0  0  0  0  0  0  0  0  0  0  0  # atno 8009 bound_to 7997
  156.1815  140.1654  156.8252 H   0  0  0  0  0  0  0  0  0  0  0  0  # atno 8010 bound_to 7997
  139.9869  144.5786  150.7852 H   0  0  0  0  0  0  0  0  0  0  0  0  # atno 10167 bound_to 10162
  157.4449  131.1061  151.0101 H   0  0  0  0  0  0  0  0  0  0  0  0  # atno 10718 bound_to 10713
  153.2648  135.4219  155.0930 H   0  0  0  0  0  0  0  0  0  0  0  0  # atno 10763 bound_to 10752
  154.8434  135.3458  154.6326 H   0  0  0  0  0  0  0  0  0  0  0  0  # atno 10764 bound_to 10752
  153.6746  135.7042  153.5193 H   0  0  0  0  0  0  0  0  0  0  0  0  # atno 10765 bound_to 10752
  141.0211  134.0122  157.3281 H   0  0  0  0  0  0  0  0  0  0  0  0  # atno 11005 bound_to 11000
  146.3499  140.1523  142.8592 LP  0  0  0  0  0  0  0  0  0  0  0  0  # atno 17320 bound_to 7965
  145.0476  140.8993  143.5015 LP  0  0  0  0  0  0  0  0  0  0  0  0  # atno 17321 bound_to 7965
  140.7469  143.2898  151.3363 LP  0  0  0  0  0  0  0  0  0  0  0  0  # atno 17342 bound_to 10162
  139.6369  144.0614  152.2523 LP  0  0  0  0  0  0  0  0  0  0  0  0  # atno 17343 bound_to 10162
  157.0951  130.5958  149.5448 LP  0  0  0  0  0  0  0  0  0  0  0  0  # atno 17370 bound_to 10713
  155.9963  130.5032  150.7492 LP  0  0  0  0  0  0  0  0  0  0  0  0  # atno 17371 bound_to 10713
  139.9147  135.0195  156.7832 LP  0  0  0  0  0  0  0  0  0  0  0  0  # atno 17394 bound_to 11000
  140.6571  133.9679  155.7785 LP  0  0  0  0  0  0  0  0  0  0  0  0  # atno 17395 bound_to 11000

$$$$
