AV-unprocessed.smi:3350|AV-procd|sdf|12946|dock7
  -GOLD-   2272019383D 1   1.00000     0.00000
 Structure written by MMmdl.
 41 42  0  0  0  0  0  0  0  0  1 V2000
  143.3615  136.3842  152.5597 C   0  0  0  0  0  0  0  0  0  0  0  0
  144.8716  136.6563  152.5372 C   0  0  1  0  0  0  0  0  0  0  0  0
  145.5062  136.1949  151.2070 C   0  0  0  0  0  0  0  0  0  0  0  0
  145.3868  134.7630  150.9939 N   0  0  0  0  0  0  0  0  0  0  0  0
  144.2509  134.0289  150.7219 C   0  0  0  0  0  0  0  0  0  0  0  0
  144.6345  132.7269  150.5756 C   0  0  0  0  0  0  0  0  0  0  0  0
  146.0417  132.7640  150.7843 C   0  0  0  0  0  0  0  0  0  0  0  0
  146.4884  133.9833  151.0388 N   0  0  0  0  0  0  0  0  0  0  0  0
  145.1012  138.0848  152.7521 N   0  0  0  0  0  0  0  0  0  0  0  0
  146.2459  138.6334  153.1847 C   0  0  0  0  0  0  0  0  0  0  0  0
  147.2442  137.9898  153.5077 O   0  0  0  0  0  0  0  0  0  0  0  0
  146.1811  139.9715  153.1934 N   0  0  0  0  0  0  0  0  0  0  0  0
  147.2786  140.8649  153.5564 C   0  0  1  0  0  0  0  0  0  0  0  0
  146.7370  142.2806  153.8202 C   0  0  0  0  0  0  0  0  0  0  0  0
  148.0257  140.3018  154.7799 C   0  0  1  0  0  0  0  0  0  0  0  0
  149.2649  141.0956  155.1962 C   0  0  0  0  0  0  0  0  0  0  0  0
  149.4281  140.7497  156.6673 C   0  0  0  0  0  0  0  0  0  0  0  0
  148.0652  140.1779  157.0701 C   0  0  0  0  0  0  0  0  0  0  0  0
  147.2211  140.3859  155.9459 O   0  0  0  0  0  0  0  0  0  0  0  0
  143.1537  135.3215  152.4310 H   0  0  0  0  0  0  0  0  0  0  0  0
  142.8474  136.9225  151.7626 H   0  0  0  0  0  0  0  0  0  0  0  0
  142.9208  136.6919  153.5087 H   0  0  0  0  0  0  0  0  0  0  0  0
  145.3131  136.0825  153.3541 H   0  0  0  0  0  0  0  0  0  0  0  0
  145.0292  136.7020  150.3670 H   0  0  0  0  0  0  0  0  0  0  0  0
  146.5625  136.4656  151.1726 H   0  0  0  0  0  0  0  0  0  0  0  0
  143.2776  134.4910  150.6459 H   0  0  0  0  0  0  0  0  0  0  0  0
  144.0063  131.8778  150.3508 H   0  0  0  0  0  0  0  0  0  0  0  0
  146.7468  131.9464  150.7589 H   0  0  0  0  0  0  0  0  0  0  0  0
  144.3407  138.7048  152.5154 H   0  0  0  0  0  0  0  0  0  0  0  0
  145.3165  140.4078  152.9090 H   0  0  0  0  0  0  0  0  0  0  0  0
  147.9831  140.9121  152.7236 H   0  0  0  0  0  0  0  0  0  0  0  0
  147.5430  142.9685  154.0765 H   0  0  0  0  0  0  0  0  0  0  0  0
  146.0221  142.2853  154.6437 H   0  0  0  0  0  0  0  0  0  0  0  0
  146.2337  142.6840  152.9408 H   0  0  0  0  0  0  0  0  0  0  0  0
  148.2967  139.2571  154.6135 H   0  0  0  0  0  0  0  0  0  0  0  0
  150.1459  140.8487  154.6030 H   0  0  0  0  0  0  0  0  0  0  0  0
  149.0778  142.1653  155.0915 H   0  0  0  0  0  0  0  0  0  0  0  0
  150.2116  140.0053  156.8142 H   0  0  0  0  0  0  0  0  0  0  0  0
  149.6893  141.6324  157.2521 H   0  0  0  0  0  0  0  0  0  0  0  0
  148.1419  139.1082  157.2684 H   0  0  0  0  0  0  0  0  0  0  0  0
  147.6555  140.6597  157.9579 H   0  0  0  0  0  0  0  0  0  0  0  0
  1  2  1  0  0  0  0
  1 20  1  0  0  0  0
  1 21  1  0  0  0  0
  1 22  1  0  0  0  0
  2  3  1  0  0  0  0
  2  9  1  0  0  0  0
  2 23  1  0  0  0  0
  3  4  1  0  0  0  0
  3 24  1  0  0  0  0
  3 25  1  0  0  0  0
  4  8  1  0  0  0  0
  4  5  1  0  0  0  0
  5  6  2  0  0  0  0
  5 26  1  0  0  0  0
  6  7  1  0  0  0  0
  6 27  1  0  0  0  0
  7  8  2  0  0  0  0
  7 28  1  0  0  0  0
  9 10  1  0  0  0  0
  9 29  1  0  0  0  0
 10 11  2  0  0  0  0
 10 12  1  0  0  0  0
 12 13  1  0  0  0  0
 12 30  1  0  0  0  0
 13 14  1  0  0  0  0
 13 15  1  0  0  0  0
 13 31  1  0  0  0  0
 14 32  1  0  0  0  0
 14 33  1  0  0  0  0
 14 34  1  0  0  0  0
 15 19  1  0  0  0  0
 15 16  1  0  0  0  0
 15 35  1  0  0  0  0
 16 17  1  0  0  0  0
 16 36  1  0  0  0  0
 16 37  1  0  0  0  0
 17 18  1  0  0  0  0
 17 38  1  0  0  0  0
 17 39  1  0  0  0  0
 18 19  1  0  0  0  0
 18 40  1  0  0  0  0
 18 41  1  0  0  0  0
M  END
> <s_m_source_file>
AV-unprocessed.smi

> <i_m_source_file_index>
3350

> <i_lp_mmshare_version>
43012

> <i_f3d_flags>
0

> <s_epik_input>
bjFbY0hdW2NIXVtjSF1uMVtDSDJdW0NAQEhdKFtDSDNdKVtOSF1DKD1PKVtOSF1bQ0BIXShbQ0gzXSlbQ0BASF0yW0NIMl1bQ0gyXVtDSDJdTzI=

> <s_epik_cmdline>
J2VwaWtfcHl0aG9uJywgJy1waCcsICc3LjAnLCAnLXRuJywgJzgnLCAnLW1hJywgJzIwMCcsICctbWV0YWxfYmluZGluZycsICctaW1hZScsICc8aW5maWxlLm1hZT4nLCAnLW9tYWUnLCAnPG91dGZpbGUubWFlPic=

> <r_lp_tautomer_probability>
1

> <r_epik_Ionization_Penalty>
6.42349e-05

> <r_epik_Ionization_Penalty_Charging>
0

> <r_epik_Ionization_Penalty_Neutral>
6.42349e-05

> <r_epik_State_Penalty>
-0

> <r_epik_Charging_Adjusted_Penalty>
0

> <i_epik_Tot_Q>
0

> <i_epik_Tot_abs_Q>
0

> <r_epik_Metal_State_Penalty>
-0

> <b_epik_Metal_Only>
0

> <s_lp_Force_Field>
OPLS_2005

> <r_lp_Energy>
15.5841

> <b_lp_Chiralities_Consistent>
1

> <s_lp_Variant>
AV-unprocessed.smi:3350-8

> <Gold.Version>
5.8.1

> <Gold.Id.Protein>
6NUR|6NUR_protein|mol2

> <Gold.PLP.Fitness>
41.2512

> <Gold.PLP.PLP>
-30.4706

> <Gold.PLP.part.hbond>
-2.2906

> <Gold.PLP.part.metal>
0.0000

> <Gold.PLP.part.buried>
-6.7998

> <Gold.PLP.part.nonpolar>
-24.2374

> <Gold.PLP.part.repulsive>
1.9451

> <Gold.PLP.ligand.clash>
0.0000

> <Gold.PLP.ligand.torsion>
0.6312

> <Gold.PLP.Chemscore.Hbond>
2.0000

> <Gold.PLP.Chemscore.CHOScore>
2.0000

> <Gold.PLP.Chemscore.Metal>
0.0000

> <Gold.Chemscore.Hbonds>
donor molecule, donor type, donor heavy atom, donor atom, acceptor molecule, acceptor atom, score
      L1  H     9    29       P1 10175  0.98
      L1  H    12    30       P1 10175  1.00
      L1  C     5    26       P1 10186  1.00
      L1  C     7    28       P1 10747  1.00

> <Gold.PLP.Chemscore.Internal.Correction>
0.0429

> <Gold.Rescore>
     Score         DG    S(hbond)    S(metal)    S(lipo)     H(rot)  DE(clash)    DE(int)     intcor
     12.71     -15.08       1.90        0.00      67.61       1.82       0.53       1.85       ----

> <Gold.Chemscore.Fitness>
12.7057

> <Gold.Chemscore.DG>
-15.0814

> <Gold.Chemscore.ZeroCoef>
-5.4800

> <Gold.Chemscore.Hbond>
1.9008

> <Gold.Chemscore.Metal>
0.0000

> <Gold.Chemscore.Lipo>
67.6146

> <Gold.Chemscore.Internal_Hbond>
0.0000

> <Gold.Chemscore.DEClash>
0.5255

> <Gold.Chemscore.DEInternal>
1.8502

> <Gold.Chemscore.Rot>
1.8197

> <Gold.Chemscore.Internal.Correction>
   9.000000E+99

> <Gold.Chemscore.Hbonds>
donor molecule, donor type, donor heavy atom, donor atom, acceptor molecule, acceptor atom, score
      L1  H     9    29       P1 10175  0.93
      L1  H    12    30       P1 10175  0.90

> <Gold.Chemscore.Hbond.Weighted>
-6.3488

> <Gold.Chemscore.Metal.Weighted>
-0.0000

> <Gold.Chemscore.Lipo.Weighted>
-7.9109

> <Gold.Chemscore.Internal_Hbond.Weighted>
0.0000

> <Gold.Chemscore.DEClash.Weighted>
0.5255

> <Gold.Chemscore.DEInternal.Weighted>
1.8502

> <Gold.Chemscore.Rot.Weighted>
4.6583

> <Gold.Chemscore.Internal.Correction.Weighted>
   9.000000E+99

> <Gold.Protein.RotatedTorsions>
[ 6907 6896 6895 6894 ] final  110.98 input  -60.11 | X-H torsion
[ 7974 7965 7964 7962 ] final  121.08 input  175.53 | X-H torsion
[ 8008 7997 7996 7995 ] final  -55.05 input   59.86 | X-H torsion
[ 10167 10162 10161 10158 ] final  -67.10 input  -65.29 | X-H torsion
[ 10718 10713 10712 10709 ] final   60.19 input   66.30 | X-H torsion
[ 10763 10752 10751 10750 ] final  119.38 input  -60.55 | X-H torsion
[ 11005 11000 10999 10996 ] final -132.08 input  -57.11 | X-H torsion

> <Gold.Protein.ActiveResidues>
 VAL166  LYS551  ARG553  GLY616  TRP617  ASP618  TYR619  PRO620  LYS621  CYS622 
 ASP623  PHE694  ASN695  SER759  ASP760  ASP761  ALA762  ILE779  LEU786  VAL792 
 PHE793  MET794  SER795  GLU796  ALA797  LYS798  CYS799  TRP800  GLU811  SER814 

> <Gold.Protein.RotatedAtoms>
  152.4993  133.8723  159.7304 H   0  0  0  0  0  0  0  0  0  0  0  0  # atno 6907 bound_to 6896
  150.9207  133.6875  159.2839 H   0  0  0  0  0  0  0  0  0  0  0  0  # atno 6908 bound_to 6896
  151.4253  135.1007  159.9678 H   0  0  0  0  0  0  0  0  0  0  0  0  # atno 6909 bound_to 6896
  145.1236  139.3373  143.4701 H   0  0  0  0  0  0  0  0  0  0  0  0  # atno 7974 bound_to 7965
  154.4182  140.1162  156.5414 H   0  0  0  0  0  0  0  0  0  0  0  0  # atno 8008 bound_to 7997
  155.6504  140.3496  155.4727 H   0  0  0  0  0  0  0  0  0  0  0  0  # atno 8009 bound_to 7997
  155.9797  140.1158  157.0727 H   0  0  0  0  0  0  0  0  0  0  0  0  # atno 8010 bound_to 7997
  140.5608  143.2313  151.6732 H   0  0  0  0  0  0  0  0  0  0  0  0  # atno 10167 bound_to 10162
  157.5734  130.8925  149.9305 H   0  0  0  0  0  0  0  0  0  0  0  0  # atno 10718 bound_to 10713
  153.5821  135.3482  155.2879 H   0  0  0  0  0  0  0  0  0  0  0  0  # atno 10763 bound_to 10752
  154.8666  135.4184  154.2609 H   0  0  0  0  0  0  0  0  0  0  0  0  # atno 10764 bound_to 10752
  153.3398  135.7049  153.6947 H   0  0  0  0  0  0  0  0  0  0  0  0  # atno 10765 bound_to 10752
  140.9202  134.1454  157.4320 H   0  0  0  0  0  0  0  0  0  0  0  0  # atno 11005 bound_to 11000
  146.3519  140.1206  142.8600 LP  0  0  0  0  0  0  0  0  0  0  0  0  # atno 17320 bound_to 7965
  145.0713  140.9157  143.4880 LP  0  0  0  0  0  0  0  0  0  0  0  0  # atno 17321 bound_to 7965
  139.5069  144.3665  152.0511 LP  0  0  0  0  0  0  0  0  0  0  0  0  # atno 17342 bound_to 10162
  140.2792  144.3879  150.6125 LP  0  0  0  0  0  0  0  0  0  0  0  0  # atno 17343 bound_to 10162
  156.0779  130.3676  150.0641 LP  0  0  0  0  0  0  0  0  0  0  0  0  # atno 17370 bound_to 10713
  156.8791  130.9550  151.3601 LP  0  0  0  0  0  0  0  0  0  0  0  0  # atno 17371 bound_to 10713
  139.8774  134.9968  156.5816 LP  0  0  0  0  0  0  0  0  0  0  0  0  # atno 17394 bound_to 11000
  140.7998  133.8515  155.8717 LP  0  0  0  0  0  0  0  0  0  0  0  0  # atno 17395 bound_to 11000

$$$$
