AV-unprocessed.smi:189|AV-procd|sdf|1475|dock3
  -GOLD-   2262019293D 1   1.00000     0.00000
 Structure written by MMmdl.
 53 57  0  0  0  0  0  0  0  0  1 V2000
  151.2748  138.8165  155.8394 C   0  0  0  0  0  0  0  0  0  0  0  0
  151.4280  140.1605  156.5803 C   0  0  2  0  0  0  0  0  0  0  0  0
  152.4785  140.1379  157.7083 C   0  0  0  0  0  0  0  0  0  0  0  0
  151.8045  140.8475  158.8891 C   0  0  1  0  0  0  0  0  0  0  0  0
  152.7127  141.7007  159.7977 C   0  0  0  0  0  0  0  0  0  0  0  0
  153.0665  143.0661  159.1912 C   0  0  0  0  0  0  0  0  0  0  0  0
  151.7997  143.8172  158.7619 C   0  0  0  0  0  0  0  0  0  0  0  0
  151.0294  143.0024  157.7165 C   0  0  0  0  0  0  0  0  0  0  0  0
  150.6283  141.6061  158.2466 C   0  0  1  0  0  0  0  0  0  0  0  0
  150.2027  140.7394  157.1507 N   0  0  0  0  0  0  0  0  0  0  0  0
  149.1452  139.9196  157.3746 C   0  0  0  0  0  0  0  0  0  0  0  0
  147.9506  140.1413  156.7647 N   0  0  0  0  0  0  0  0  0  0  0  0
  146.9127  139.3357  157.0089 C   0  0  0  0  0  0  0  0  0  0  0  0
  146.8522  138.2727  157.8138 N   0  0  0  0  0  0  0  0  0  0  0  0
  148.0501  138.0473  158.4262 C   0  0  0  0  0  0  0  0  0  0  0  0
  149.2371  138.8139  158.2614 C   0  0  0  0  0  0  0  0  0  0  0  0
  150.2588  138.2842  159.0389 N   0  0  0  0  0  0  0  0  0  0  0  0
  149.7054  137.2629  159.6343 C   0  0  0  0  0  0  0  0  0  0  0  0
  148.3782  137.0538  159.3321 N   0  0  0  0  0  0  0  0  0  0  0  0
  147.5208  135.9980  159.8493 C   0  0  0  0  0  0  0  0  0  0  0  0
  146.9465  136.2855  161.2599 C   0  0  1  0  0  0  0  0  0  0  0  0
  147.9277  136.9521  162.0331 O   0  0  0  0  0  0  0  0  0  0  0  0
  145.6620  137.1152  161.2558 C   0  0  0  0  0  0  0  0  0  0  0  0
  144.5773  136.0508  161.3192 C   0  0  0  0  0  0  0  0  0  0  0  0
  145.1209  135.1207  162.2396 O   0  0  0  0  0  0  0  0  0  0  0  0
  146.5124  134.9862  161.9695 C   0  0  0  0  0  0  0  0  0  0  0  0
  152.2308  138.4992  155.4226 H   0  0  0  0  0  0  0  0  0  0  0  0
  150.5718  138.8952  155.0101 H   0  0  0  0  0  0  0  0  0  0  0  0
  150.9309  138.0229  156.5038 H   0  0  0  0  0  0  0  0  0  0  0  0
  151.7658  140.8791  155.8332 H   0  0  0  0  0  0  0  0  0  0  0  0
  152.7674  139.1231  157.9844 H   0  0  0  0  0  0  0  0  0  0  0  0
  153.3808  140.6586  157.3868 H   0  0  0  0  0  0  0  0  0  0  0  0
  151.3875  140.0601  159.5178 H   0  0  0  0  0  0  0  0  0  0  0  0
  152.1957  141.8696  160.7431 H   0  0  0  0  0  0  0  0  0  0  0  0
  153.6207  141.1499  160.0449 H   0  0  0  0  0  0  0  0  0  0  0  0
  153.6220  143.6594  159.9181 H   0  0  0  0  0  0  0  0  0  0  0  0
  153.7259  142.9334  158.3328 H   0  0  0  0  0  0  0  0  0  0  0  0
  151.1654  144.0097  159.6281 H   0  0  0  0  0  0  0  0  0  0  0  0
  152.0679  144.7900  158.3485 H   0  0  0  0  0  0  0  0  0  0  0  0
  150.1363  143.5454  157.4064 H   0  0  0  0  0  0  0  0  0  0  0  0
  151.6525  142.9155  156.8262 H   0  0  0  0  0  0  0  0  0  0  0  0
  149.8332  141.7364  158.9826 H   0  0  0  0  0  0  0  0  0  0  0  0
  145.9995  139.5792  156.4861 H   0  0  0  0  0  0  0  0  0  0  0  0
  150.2525  136.6316  160.3193 H   0  0  0  0  0  0  0  0  0  0  0  0
  146.7077  135.8419  159.1392 H   0  0  0  0  0  0  0  0  0  0  0  0
  148.0957  135.0709  159.8600 H   0  0  0  0  0  0  0  0  0  0  0  0
  148.6496  136.3588  162.1752 H   0  0  0  0  0  0  0  0  0  0  0  0
  145.5974  137.7302  162.1550 H   0  0  0  0  0  0  0  0  0  0  0  0
  145.5519  137.7814  160.4015 H   0  0  0  0  0  0  0  0  0  0  0  0
  143.6189  136.4424  161.6600 H   0  0  0  0  0  0  0  0  0  0  0  0
  144.4345  135.5751  160.3476 H   0  0  0  0  0  0  0  0  0  0  0  0
  146.6643  134.1135  161.3327 H   0  0  0  0  0  0  0  0  0  0  0  0
  147.0517  134.8066  162.9005 H   0  0  0  0  0  0  0  0  0  0  0  0
  1  2  1  0  0  0  0
  1 27  1  0  0  0  0
  1 28  1  0  0  0  0
  1 29  1  0  0  0  0
  2 10  1  0  0  0  0
  2  3  1  0  0  0  0
  2 30  1  0  0  0  0
  3  4  1  0  0  0  0
  3 31  1  0  0  0  0
  3 32  1  0  0  0  0
  4  9  1  0  0  0  0
  4  5  1  0  0  0  0
  4 33  1  0  0  0  0
  5  6  1  0  0  0  0
  5 34  1  0  0  0  0
  5 35  1  0  0  0  0
  6  7  1  0  0  0  0
  6 36  1  0  0  0  0
  6 37  1  0  0  0  0
  7  8  1  0  0  0  0
  7 38  1  0  0  0  0
  7 39  1  0  0  0  0
  8  9  1  0  0  0  0
  8 40  1  0  0  0  0
  8 41  1  0  0  0  0
  9 10  1  0  0  0  0
  9 42  1  0  0  0  0
 10 11  1  0  0  0  0
 11 16  1  0  0  0  0
 11 12  2  0  0  0  0
 12 13  1  0  0  0  0
 13 14  2  0  0  0  0
 13 43  1  0  0  0  0
 14 15  1  0  0  0  0
 15 19  1  0  0  0  0
 15 16  2  0  0  0  0
 16 17  1  0  0  0  0
 17 18  2  0  0  0  0
 18 19  1  0  0  0  0
 18 44  1  0  0  0  0
 19 20  1  0  0  0  0
 20 21  1  0  0  0  0
 20 45  1  0  0  0  0
 20 46  1  0  0  0  0
 21 26  1  0  0  0  0
 21 22  1  0  0  0  0
 21 23  1  0  0  0  0
 22 47  1  0  0  0  0
 23 24  1  0  0  0  0
 23 48  1  0  0  0  0
 23 49  1  0  0  0  0
 24 25  1  0  0  0  0
 24 50  1  0  0  0  0
 24 51  1  0  0  0  0
 25 26  1  0  0  0  0
 26 52  1  0  0  0  0
 26 53  1  0  0  0  0
M  END
> <s_m_source_file>
AV-unprocessed.smi

> <i_m_source_file_index>
189

> <i_lp_mmshare_version>
43012

> <i_f3d_flags>
0

> <s_epik_input>
W0NIMl0xW0NIMl1bQ0gyXVtDSDJdW0NASF0oW0NASF0xMilOKFtDQEhdKFtDSDNdKVtDSDJdMiljKG5bY0hdbjMpYyhjMzQpbltjSF1uNFtDSDJdW0NAQF01KFtPSF0pW0NIMl1bQ0gyXU9bQ0gyXTU=

> <s_epik_cmdline>
J2VwaWtfcHl0aG9uJywgJy1waCcsICc3LjAnLCAnLXRuJywgJzgnLCAnLW1hJywgJzIwMCcsICctbWV0YWxfYmluZGluZycsICctaW1hZScsICc8aW5maWxlLm1hZT4nLCAnLW9tYWUnLCAnPG91dGZpbGUubWFlPic=

> <r_lp_tautomer_probability>
1

> <r_epik_Ionization_Penalty>
0.00594261

> <r_epik_Ionization_Penalty_Charging>
0

> <r_epik_Ionization_Penalty_Neutral>
0.00594261

> <r_epik_State_Penalty>
0.00429776

> <r_epik_Charging_Adjusted_Penalty>
0.00429776

> <i_epik_Tot_Q>
0

> <i_epik_Tot_abs_Q>
0

> <r_epik_Metal_State_Penalty>
-0

> <b_epik_Metal_Only>
0

> <s_lp_Force_Field>
OPLS_2005

> <r_lp_Energy>
62.973

> <b_lp_Chiralities_Consistent>
1

> <s_lp_Variant>
AV-unprocessed.smi:189-1

> <Gold.Version>
5.8.1

> <Gold.Id.Protein>
6NUR|6NUR_protein|mol2

> <Gold.PLP.Fitness>
41.1668

> <Gold.PLP.PLP>
-39.5421

> <Gold.PLP.part.hbond>
-1.6241

> <Gold.PLP.part.metal>
0.0000

> <Gold.PLP.part.buried>
-3.3224

> <Gold.PLP.part.nonpolar>
-35.1446

> <Gold.PLP.part.repulsive>
0.0186

> <Gold.PLP.ligand.clash>
0.0000

> <Gold.PLP.ligand.torsion>
0.7429

> <Gold.PLP.Chemscore.Hbond>
1.0000

> <Gold.PLP.Chemscore.CHOScore>
0.0000

> <Gold.PLP.Chemscore.Metal>
0.0000

> <Gold.Chemscore.Hbonds>
donor molecule, donor type, donor heavy atom, donor atom, acceptor molecule, acceptor atom, score
      P1  H  6931  6943       L1    22  0.50

> <Gold.PLP.Chemscore.Internal.Correction>
0.1105

> <Gold.Rescore>
     Score         DG    S(hbond)    S(metal)    S(lipo)     H(rot)  DE(clash)    DE(int)     intcor
     14.12     -15.72       0.98        0.00     103.97       2.03       0.19       1.40       ----

> <Gold.Chemscore.Fitness>
14.1245

> <Gold.Chemscore.DG>
-15.7180

> <Gold.Chemscore.ZeroCoef>
-5.4800

> <Gold.Chemscore.Hbond>
0.9791

> <Gold.Chemscore.Metal>
0.0000

> <Gold.Chemscore.Lipo>
103.9651

> <Gold.Chemscore.Internal_Hbond>
0.0000

> <Gold.Chemscore.DEClash>
0.1949

> <Gold.Chemscore.DEInternal>
1.3986

> <Gold.Chemscore.Rot>
2.0297

> <Gold.Chemscore.Internal.Correction>
   9.000000E+99

> <Gold.Chemscore.Hbonds>
donor molecule, donor type, donor heavy atom, donor atom, acceptor molecule, acceptor atom, score
      P1  H  6931  6943       L1    22  0.02

> <Gold.Chemscore.Hbond.Weighted>
-3.2700

> <Gold.Chemscore.Metal.Weighted>
-0.0000

> <Gold.Chemscore.Lipo.Weighted>
-12.1639

> <Gold.Chemscore.Internal_Hbond.Weighted>
0.0000

> <Gold.Chemscore.DEClash.Weighted>
0.1949

> <Gold.Chemscore.DEInternal.Weighted>
1.3986

> <Gold.Chemscore.Rot.Weighted>
5.1960

> <Gold.Chemscore.Internal.Correction.Weighted>
   9.000000E+99

> <Gold.Protein.RotatedTorsions>
[ 6907 6896 6895 6894 ] final  -50.18 input  -60.11 | X-H torsion
[ 7974 7965 7964 7962 ] final -173.25 input  175.53 | X-H torsion
[ 8008 7997 7996 7995 ] final -138.38 input   59.86 | X-H torsion
[ 10167 10162 10161 10158 ] final   46.65 input  -65.29 | X-H torsion
[ 10718 10713 10712 10709 ] final  -57.55 input   66.30 | X-H torsion
[ 10763 10752 10751 10750 ] final  147.93 input  -60.55 | X-H torsion
[ 11005 11000 10999 10996 ] final   17.49 input  -57.11 | X-H torsion

> <Gold.Protein.ActiveResidues>
 VAL166  LYS551  ARG553  GLY616  TRP617  ASP618  TYR619  PRO620  LYS621  CYS622 
 ASP623  PHE694  ASN695  SER759  ASP760  ASP761  ALA762  ILE779  LEU786  VAL792 
 PHE793  MET794  SER795  GLU796  ALA797  LYS798  CYS799  TRP800  GLU811  SER814 

> <Gold.Protein.RotatedAtoms>
  150.8733  134.8111  159.7170 H   0  0  0  0  0  0  0  0  0  0  0  0  # atno 6907 bound_to 6896
  152.4729  134.4912  159.9706 H   0  0  0  0  0  0  0  0  0  0  0  0  # atno 6908 bound_to 6896
  151.4998  133.3468  159.2902 H   0  0  0  0  0  0  0  0  0  0  0  0  # atno 6909 bound_to 6896
  144.7139  140.1649  143.6373 H   0  0  0  0  0  0  0  0  0  0  0  0  # atno 7974 bound_to 7965
  155.4274  140.0522  157.3021 H   0  0  0  0  0  0  0  0  0  0  0  0  # atno 8008 bound_to 7997
  154.4875  140.2107  155.9580 H   0  0  0  0  0  0  0  0  0  0  0  0  # atno 8009 bound_to 7997
  156.1296  140.3174  155.8334 H   0  0  0  0  0  0  0  0  0  0  0  0  # atno 8010 bound_to 7997
  140.3117  144.2812  150.6198 H   0  0  0  0  0  0  0  0  0  0  0  0  # atno 10167 bound_to 10162
  156.1202  130.4167  150.0456 H   0  0  0  0  0  0  0  0  0  0  0  0  # atno 10718 bound_to 10713
  154.0464  135.2885  155.3347 H   0  0  0  0  0  0  0  0  0  0  0  0  # atno 10763 bound_to 10752
  154.6897  135.5231  153.8378 H   0  0  0  0  0  0  0  0  0  0  0  0  # atno 10764 bound_to 10752
  153.0579  135.6602  154.0663 H   0  0  0  0  0  0  0  0  0  0  0  0  # atno 10765 bound_to 10752
  140.4354  134.1376  155.7685 H   0  0  0  0  0  0  0  0  0  0  0  0  # atno 11005 bound_to 11000
  145.8996  139.2423  143.1501 LP  0  0  0  0  0  0  0  0  0  0  0  0  # atno 17320 bound_to 7965
  145.9823  140.8672  143.0108 LP  0  0  0  0  0  0  0  0  0  0  0  0  # atno 17321 bound_to 7965
  140.5562  143.2199  151.7844 LP  0  0  0  0  0  0  0  0  0  0  0  0  # atno 17342 bound_to 10162
  139.4892  144.4411  151.9764 LP  0  0  0  0  0  0  0  0  0  0  0  0  # atno 17343 bound_to 10162
  156.8396  130.9421  151.3632 LP  0  0  0  0  0  0  0  0  0  0  0  0  # atno 17370 bound_to 10713
  157.6386  130.8787  149.9405 LP  0  0  0  0  0  0  0  0  0  0  0  0  # atno 17371 bound_to 10713
  141.1728  133.8575  157.1517 LP  0  0  0  0  0  0  0  0  0  0  0  0  # atno 17394 bound_to 11000
  140.0106  134.9990  157.0386 LP  0  0  0  0  0  0  0  0  0  0  0  0  # atno 17395 bound_to 11000

$$$$
