AV-unprocessed.smi:2226|AV-procd|sdf|9016|dock7
  -GOLD-   2272012223D 1   1.00000     0.00000
 Structure written by MMmdl.
 40 42  0  0  0  0  0  0  0  0  2 V2000
  149.9690  141.9080  154.7817 C   0  0  0  0  0  0  0  0  0  0  0  0
  149.7978  140.8693  155.8253 N   0  3  1  0  0  0  0  0  0  0  0  0
  149.2666  139.5741  155.3351 C   0  0  1  0  0  0  0  0  0  0  0  0
  150.3140  138.8253  154.4720 C   0  0  0  0  0  0  0  0  0  0  0  0
  151.6899  138.6727  155.1477 C   0  0  0  0  0  0  0  0  0  0  0  0
  152.1273  139.9504  155.8889 C   0  0  0  0  0  0  0  0  0  0  0  0
  150.9881  140.6420  156.6805 C   0  0  2  0  0  0  0  0  0  0  0  0
  150.5461  139.9008  157.9633 C   0  0  0  0  0  0  0  0  0  0  0  0
  149.7232  138.6143  157.7103 C   0  0  1  0  0  0  0  0  0  0  0  0
  148.9853  138.2729  158.9256 N   0  0  0  0  0  0  0  0  0  0  0  0
  148.4843  137.0706  159.2490 C   0  0  0  0  0  0  0  0  0  0  0  0
  148.6093  136.0912  158.5072 O   0  0  0  0  0  0  0  0  0  0  0  0
  147.8509  137.1440  160.4815 N   0  0  0  0  0  0  0  0  0  0  0  0
  147.1593  136.1375  160.9216 C   0  0  0  0  0  0  0  0  0  0  0  0
  146.8743  134.8785  160.3991 N   0  0  0  0  0  0  0  0  0  0  0  0
  146.0885  134.2121  161.2971 C   0  0  0  0  0  0  0  0  0  0  0  0
  145.8853  135.0119  162.3396 C   0  0  0  0  0  0  0  0  0  0  0  0
  146.5279  136.1965  162.1384 O   0  0  0  0  0  0  0  0  0  0  0  0
  148.7234  138.7705  156.5389 C   0  0  0  0  0  0  0  0  0  0  0  0
  150.7189  141.6316  154.0410 H   0  0  0  0  0  0  0  0  0  0  0  0
  150.2729  142.8527  155.2332 H   0  0  0  0  0  0  0  0  0  0  0  0
  149.0272  142.0806  154.2603 H   0  0  0  0  0  0  0  0  0  0  0  0
  148.4100  139.7861  154.6934 H   0  0  0  0  0  0  0  0  0  0  0  0
  149.9333  137.8443  154.1858 H   0  0  0  0  0  0  0  0  0  0  0  0
  150.4491  139.3667  153.5352 H   0  0  0  0  0  0  0  0  0  0  0  0
  151.6868  137.8238  155.8258 H   0  0  0  0  0  0  0  0  0  0  0  0
  152.4369  138.4157  154.3959 H   0  0  0  0  0  0  0  0  0  0  0  0
  152.9625  139.7236  156.5526 H   0  0  0  0  0  0  0  0  0  0  0  0
  152.5239  140.6541  155.1567 H   0  0  0  0  0  0  0  0  0  0  0  0
  151.3607  141.6165  156.9997 H   0  0  0  0  0  0  0  0  0  0  0  0
  151.4111  139.6742  158.5880 H   0  0  0  0  0  0  0  0  0  0  0  0
  149.9374  140.5949  158.5457 H   0  0  0  0  0  0  0  0  0  0  0  0
  150.4099  137.8067  157.4723 H   0  0  0  0  0  0  0  0  0  0  0  0
  148.8394  139.0216  159.5874 H   0  0  0  0  0  0  0  0  0  0  0  0
  147.1727  134.4840  159.5185 H   0  0  0  0  0  0  0  0  0  0  0  0
  145.7492  133.2084  161.0880 H   0  0  0  0  0  0  0  0  0  0  0  0
  145.3334  134.8914  163.2599 H   0  0  0  0  0  0  0  0  0  0  0  0
  147.8373  139.2927  156.9046 H   0  0  0  0  0  0  0  0  0  0  0  0
  148.3727  137.7901  156.2139 H   0  0  0  0  0  0  0  0  0  0  0  0
  149.0874  141.2404  156.4398 H   0  0  0  0  0  0  0  0  0  0  0  0
  1  2  1  0  0  0  0
  1 20  1  0  0  0  0
  1 21  1  0  0  0  0
  1 22  1  0  0  0  0
  2  7  1  0  0  0  0
  2  3  1  0  0  0  0
  2 40  1  0  0  0  0
  3 19  1  0  0  0  0
  3  4  1  0  0  0  0
  3 23  1  0  0  0  0
  4  5  1  0  0  0  0
  4 24  1  0  0  0  0
  4 25  1  0  0  0  0
  5  6  1  0  0  0  0
  5 26  1  0  0  0  0
  5 27  1  0  0  0  0
  6  7  1  0  0  0  0
  6 28  1  0  0  0  0
  6 29  1  0  0  0  0
  7  8  1  0  0  0  0
  7 30  1  0  0  0  0
  8  9  1  0  0  0  0
  8 31  1  0  0  0  0
  8 32  1  0  0  0  0
  9 10  1  0  0  0  0
  9 19  1  0  0  0  0
  9 33  1  0  0  0  0
 10 34  1  0  0  0  0
 10 11  1  0  0  0  0
 11 13  1  0  0  0  0
 11 12  2  0  0  0  0
 13 14  2  0  0  0  0
 14 18  1  0  0  0  0
 14 15  1  0  0  0  0
 15 35  1  0  0  0  0
 15 16  1  0  0  0  0
 16 36  1  0  0  0  0
 16 17  2  0  0  0  0
 17 37  1  0  0  0  0
 17 18  1  0  0  0  0
 19 38  1  0  0  0  0
 19 39  1  0  0  0  0
M  CHG  1   2   1
M  END
> <s_m_source_file>
AV-unprocessed.smi

> <i_m_source_file_index>
2226

> <i_lp_mmshare_version>
43012

> <i_f3d_flags>
0

> <s_epik_input>
W0NIMl0xW0NIMl1bQ0gyXVtDQEhdKE4oW0NIM10pW0NIXTEyKVtDSDJdW0NASF0oW0NIMl0yKVtOSF1DKD1PKVtOSF1jM25bY0hdW2NIXW8z

> <s_epik_cmdline>
J2VwaWtfcHl0aG9uJywgJy1waCcsICc3LjAnLCAnLXRuJywgJzgnLCAnLW1hJywgJzIwMCcsICctbWV0YWxfYmluZGluZycsICctaW1hZScsICc8aW5maWxlLm1hZT4nLCAnLW9tYWUnLCAnPG91dGZpbGUubWFlPic=

> <r_lp_tautomer_probability>
0.107061

> <r_epik_Ionization_Penalty>
1.08307

> <r_epik_Ionization_Penalty_Charging>
1.08272

> <r_epik_Ionization_Penalty_Neutral>
0.000345913

> <r_epik_State_Penalty>
2.5744

> <r_epik_Charging_Adjusted_Penalty>
3.65713

> <i_epik_Tot_Q>
1

> <i_epik_Tot_abs_Q>
1

> <r_epik_Metal_State_Penalty>
3.72133

> <b_epik_Metal_Only>
0

> <s_lp_Force_Field>
OPLS_2005

> <r_lp_Energy>
58.4837

> <b_lp_Chiralities_Consistent>
1

> <s_lp_Variant>
AV-unprocessed.smi:2226-16

> <Gold.Version>
5.8.1

> <Gold.Id.Protein>
6NUR|6NUR_protein|mol2

> <Gold.PLP.Fitness>
36.9918

> <Gold.PLP.PLP>
-30.7710

> <Gold.PLP.part.hbond>
-3.0000

> <Gold.PLP.part.metal>
0.0000

> <Gold.PLP.part.buried>
-1.5159

> <Gold.PLP.part.nonpolar>
-26.7434

> <Gold.PLP.part.repulsive>
0.3650

> <Gold.PLP.ligand.clash>
0.0000

> <Gold.PLP.ligand.torsion>
0.2786

> <Gold.PLP.Chemscore.Hbond>
2.2575

> <Gold.PLP.Chemscore.CHOScore>
0.0000

> <Gold.PLP.Chemscore.Metal>
0.0000

> <Gold.Chemscore.Hbonds>
donor molecule, donor type, donor heavy atom, donor atom, acceptor molecule, acceptor atom, score
      P1  H  6931  6943       L1    13  0.54
      P1  H  6934  6947       L1    13  0.83

> <Gold.PLP.Chemscore.Internal.Correction>
0.0054

> <Gold.Rescore>
     Score         DG    S(hbond)    S(metal)    S(lipo)     H(rot)  DE(clash)    DE(int)     intcor
     16.15     -16.64       1.90        0.00      63.18       1.00       0.19       0.31       ----

> <Gold.Chemscore.Fitness>
16.1468

> <Gold.Chemscore.DG>
-16.6446

> <Gold.Chemscore.ZeroCoef>
-5.4800

> <Gold.Chemscore.Hbond>
1.8960

> <Gold.Chemscore.Metal>
0.0000

> <Gold.Chemscore.Lipo>
63.1790

> <Gold.Chemscore.Internal_Hbond>
0.0000

> <Gold.Chemscore.DEClash>
0.1927

> <Gold.Chemscore.DEInternal>
0.3052

> <Gold.Chemscore.Rot>
1.0000

> <Gold.Chemscore.Internal.Correction>
   9.000000E+99

> <Gold.Chemscore.Hbonds>
donor molecule, donor type, donor heavy atom, donor atom, acceptor molecule, acceptor atom, score
      P1  H  6931  6943       L1    13  0.41
      P1  H  6934  6947       L1    13  0.63

> <Gold.Chemscore.Hbond.Weighted>
-6.3327

> <Gold.Chemscore.Metal.Weighted>
-0.0000

> <Gold.Chemscore.Lipo.Weighted>
-7.3919

> <Gold.Chemscore.Internal_Hbond.Weighted>
0.0000

> <Gold.Chemscore.DEClash.Weighted>
0.1927

> <Gold.Chemscore.DEInternal.Weighted>
0.3052

> <Gold.Chemscore.Rot.Weighted>
2.5600

> <Gold.Chemscore.Internal.Correction.Weighted>
   9.000000E+99

> <Gold.Protein.RotatedTorsions>
[ 6907 6896 6895 6894 ] final  -56.50 input  -60.11 | X-H torsion
[ 7974 7965 7964 7962 ] final  124.85 input  175.53 | X-H torsion
[ 8008 7997 7996 7995 ] final  -46.33 input   59.86 | X-H torsion
[ 10167 10162 10161 10158 ] final  -81.50 input  -65.29 | X-H torsion
[ 10718 10713 10712 10709 ] final  152.17 input   66.30 | X-H torsion
[ 10763 10752 10751 10750 ] final  168.83 input  -60.55 | X-H torsion
[ 11005 11000 10999 10996 ] final -170.83 input  -57.11 | X-H torsion

> <Gold.Protein.ActiveResidues>
 VAL166  LYS551  ARG553  GLY616  TRP617  ASP618  TYR619  PRO620  LYS621  CYS622 
 ASP623  PHE694  ASN695  SER759  ASP760  ASP761  ALA762  ILE779  LEU786  VAL792 
 PHE793  MET794  SER795  GLU796  ALA797  LYS798  CYS799  TRP800  GLU811  SER814 

> <Gold.Protein.RotatedAtoms>
  150.8162  134.7345  159.6731 H   0  0  0  0  0  0  0  0  0  0  0  0  # atno 6907 bound_to 6896
  152.4281  134.5827  159.9962 H   0  0  0  0  0  0  0  0  0  0  0  0  # atno 6908 bound_to 6896
  151.6023  133.3318  159.3086 H   0  0  0  0  0  0  0  0  0  0  0  0  # atno 6909 bound_to 6896
  145.0796  139.3667  143.4916 H   0  0  0  0  0  0  0  0  0  0  0  0  # atno 7974 bound_to 7965
  154.4006  140.1374  156.3993 H   0  0  0  0  0  0  0  0  0  0  0  0  # atno 8008 bound_to 7997
  155.7839  140.3480  155.5292 H   0  0  0  0  0  0  0  0  0  0  0  0  # atno 8009 bound_to 7997
  155.8646  140.0962  157.1581 H   0  0  0  0  0  0  0  0  0  0  0  0  # atno 8010 bound_to 7997
  140.4406  143.2516  151.8631 H   0  0  0  0  0  0  0  0  0  0  0  0  # atno 10167 bound_to 10162
  157.2612  131.0798  151.1664 H   0  0  0  0  0  0  0  0  0  0  0  0  # atno 10718 bound_to 10713
  154.3742  135.2753  155.2248 H   0  0  0  0  0  0  0  0  0  0  0  0  # atno 10763 bound_to 10752
  154.4383  135.5960  153.6116 H   0  0  0  0  0  0  0  0  0  0  0  0  # atno 10764 bound_to 10752
  152.9837  135.6012  154.3977 H   0  0  0  0  0  0  0  0  0  0  0  0  # atno 10765 bound_to 10752
  140.5151  134.5764  157.5031 H   0  0  0  0  0  0  0  0  0  0  0  0  # atno 11005 bound_to 11000
  146.3531  140.0581  142.8631 LP  0  0  0  0  0  0  0  0  0  0  0  0  # atno 17320 bound_to 7965
  145.1194  140.9453  143.4609 LP  0  0  0  0  0  0  0  0  0  0  0  0  # atno 17321 bound_to 7965
  139.4789  144.5233  151.8770 LP  0  0  0  0  0  0  0  0  0  0  0  0  # atno 17342 bound_to 10162
  140.4323  144.2099  150.5888 LP  0  0  0  0  0  0  0  0  0  0  0  0  # atno 17343 bound_to 10162
  157.3173  130.6920  149.6249 LP  0  0  0  0  0  0  0  0  0  0  0  0  # atno 17370 bound_to 10713
  155.9664  130.4346  150.5054 LP  0  0  0  0  0  0  0  0  0  0  0  0  # atno 17371 bound_to 10713
  139.9637  134.7409  156.0183 LP  0  0  0  0  0  0  0  0  0  0  0  0  # atno 17394 bound_to 11000
  141.1365  133.6574  156.3607 LP  0  0  0  0  0  0  0  0  0  0  0  0  # atno 17395 bound_to 11000

$$$$
