AV-unprocessed.smi:1673|AV-procd|sdf|6709|dock4
  -GOLD-   22720 7453D 1   1.00000     0.00000
 Structure written by MMmdl.
 39 40  0  0  0  0  0  0  0  0  1 V2000
  144.7752  142.8464  161.1074 C   0  0  0  0  0  0  0  0  0  0  0  0
  144.3036  143.1655  159.7158 C   0  0  0  0  0  0  0  0  0  0  0  0
  143.0382  142.9362  159.3967 N   0  0  0  0  0  0  0  0  0  0  0  0
  142.9011  143.2531  158.0364 O   0  0  0  0  0  0  0  0  0  0  0  0
  144.1019  143.6732  157.5598 C   0  0  0  0  0  0  0  0  0  0  0  0
  144.1669  144.0397  156.1155 C   0  0  0  0  0  0  0  0  0  0  0  0
  145.0064  143.6653  158.5802 C   0  0  0  0  0  0  0  0  0  0  0  0
  146.3729  144.0177  158.4500 N   0  0  0  0  0  0  0  0  0  0  0  0
  147.4062  143.4904  159.1237 C   0  0  0  0  0  0  0  0  0  0  0  0
  147.3072  142.6354  160.0034 O   0  0  0  0  0  0  0  0  0  0  0  0
  148.5700  144.0277  158.7299 N   0  0  0  0  0  0  0  0  0  0  0  0
  149.8912  143.6929  159.2601 C   0  0  2  0  0  0  0  0  0  0  0  0
  150.4721  144.9375  159.9597 C   0  0  0  0  0  0  0  0  0  0  0  0
  151.8885  144.6807  160.4944 C   0  0  0  0  0  0  0  0  0  0  0  0
  152.8195  144.2008  159.3733 C   0  0  0  0  0  0  0  0  0  0  0  0
  152.2531  142.9501  158.6849 C   0  0  0  0  0  0  0  0  0  0  0  0
  150.8321  143.1893  158.1345 C   0  0  1  0  0  0  0  0  0  0  0  0
  150.3063  141.9218  157.4367 C   0  0  0  0  0  0  0  0  0  0  0  0
  145.8115  142.5089  161.1057 H   0  0  0  0  0  0  0  0  0  0  0  0
  144.1776  142.0537  161.5588 H   0  0  0  0  0  0  0  0  0  0  0  0
  144.7063  143.7211  161.7542 H   0  0  0  0  0  0  0  0  0  0  0  0
  145.1901  144.2617  155.8121 H   0  0  0  0  0  0  0  0  0  0  0  0
  143.5564  144.9197  155.9133 H   0  0  0  0  0  0  0  0  0  0  0  0
  143.8008  143.2229  155.4934 H   0  0  0  0  0  0  0  0  0  0  0  0
  146.5738  144.8019  157.8470 H   0  0  0  0  0  0  0  0  0  0  0  0
  148.5428  144.7258  158.0015 H   0  0  0  0  0  0  0  0  0  0  0  0
  149.8035  142.9050  160.0108 H   0  0  0  0  0  0  0  0  0  0  0  0
  150.4983  145.7760  159.2619 H   0  0  0  0  0  0  0  0  0  0  0  0
  149.8223  145.2408  160.7815 H   0  0  0  0  0  0  0  0  0  0  0  0
  152.2872  145.5899  160.9453 H   0  0  0  0  0  0  0  0  0  0  0  0
  151.8513  143.9320  161.2868 H   0  0  0  0  0  0  0  0  0  0  0  0
  152.9509  144.9968  158.6391 H   0  0  0  0  0  0  0  0  0  0  0  0
  153.8090  143.9870  159.7785 H   0  0  0  0  0  0  0  0  0  0  0  0
  152.9202  142.6481  157.8770 H   0  0  0  0  0  0  0  0  0  0  0  0
  152.2371  142.1221  159.3953 H   0  0  0  0  0  0  0  0  0  0  0  0
  150.9014  143.9722  157.3774 H   0  0  0  0  0  0  0  0  0  0  0  0
  150.1695  141.1069  158.1481 H   0  0  0  0  0  0  0  0  0  0  0  0
  151.0022  141.5800  156.6701 H   0  0  0  0  0  0  0  0  0  0  0  0
  149.3499  142.0985  156.9446 H   0  0  0  0  0  0  0  0  0  0  0  0
  1  2  1  0  0  0  0
  1 19  1  0  0  0  0
  1 20  1  0  0  0  0
  1 21  1  0  0  0  0
  2  7  1  0  0  0  0
  2  3  2  0  0  0  0
  3  4  1  0  0  0  0
  4  5  1  0  0  0  0
  5  6  1  0  0  0  0
  5  7  2  0  0  0  0
  6 22  1  0  0  0  0
  6 23  1  0  0  0  0
  6 24  1  0  0  0  0
  7  8  1  0  0  0  0
  8  9  1  0  0  0  0
  8 25  1  0  0  0  0
  9 10  2  0  0  0  0
  9 11  1  0  0  0  0
 11 12  1  0  0  0  0
 11 26  1  0  0  0  0
 12 17  1  0  0  0  0
 12 13  1  0  0  0  0
 12 27  1  0  0  0  0
 13 14  1  0  0  0  0
 13 28  1  0  0  0  0
 13 29  1  0  0  0  0
 14 15  1  0  0  0  0
 14 30  1  0  0  0  0
 14 31  1  0  0  0  0
 15 16  1  0  0  0  0
 15 32  1  0  0  0  0
 15 33  1  0  0  0  0
 16 17  1  0  0  0  0
 16 34  1  0  0  0  0
 16 35  1  0  0  0  0
 17 18  1  0  0  0  0
 17 36  1  0  0  0  0
 18 37  1  0  0  0  0
 18 38  1  0  0  0  0
 18 39  1  0  0  0  0
M  END
> <s_m_source_file>
AV-unprocessed.smi

> <i_m_source_file_index>
1673

> <i_lp_mmshare_version>
43012

> <i_f3d_flags>
0

> <s_epik_input>
W0NIM11jMW5vYyhbQ0gzXSljMVtOSF1DKD1PKVtOSF1bQ0BASF0yW0NIMl1bQ0gyXVtDSDJdW0NIMl1bQ0BIXTJbQ0gzXQ==

> <s_epik_cmdline>
J2VwaWtfcHl0aG9uJywgJy1waCcsICc3LjAnLCAnLXRuJywgJzgnLCAnLW1hJywgJzIwMCcsICctbWV0YWxfYmluZGluZycsICctaW1hZScsICc8aW5maWxlLm1hZT4nLCAnLW9tYWUnLCAnPG91dGZpbGUubWFlPic=

> <r_lp_tautomer_probability>
1

> <r_epik_Ionization_Penalty>
4.01865e-05

> <r_epik_Ionization_Penalty_Charging>
0

> <r_epik_Ionization_Penalty_Neutral>
4.01865e-05

> <r_epik_State_Penalty>
-0

> <r_epik_Charging_Adjusted_Penalty>
0

> <i_epik_Tot_Q>
0

> <i_epik_Tot_abs_Q>
0

> <r_epik_Metal_State_Penalty>
-0

> <b_epik_Metal_Only>
0

> <s_lp_Force_Field>
OPLS_2005

> <r_lp_Energy>
12.0287

> <b_lp_Chiralities_Consistent>
1

> <s_lp_Variant>
AV-unprocessed.smi:1673-1

> <Gold.Version>
5.8.1

> <Gold.Id.Protein>
6NUR|6NUR_protein|mol2

> <Gold.PLP.Fitness>
37.1688

> <Gold.PLP.PLP>
-27.0466

> <Gold.PLP.part.hbond>
-4.3665

> <Gold.PLP.part.metal>
0.0000

> <Gold.PLP.part.buried>
-2.0523

> <Gold.PLP.part.nonpolar>
-21.6078

> <Gold.PLP.part.repulsive>
0.1395

> <Gold.PLP.ligand.clash>
0.0000

> <Gold.PLP.ligand.torsion>
0.2177

> <Gold.PLP.Chemscore.Hbond>
3.4324

> <Gold.PLP.Chemscore.CHOScore>
0.0000

> <Gold.PLP.Chemscore.Metal>
0.0000

> <Gold.Chemscore.Hbonds>
donor molecule, donor type, donor heavy atom, donor atom, acceptor molecule, acceptor atom, score
      L1  H     8    25       P1  8029  0.93
      L1  H    11    26       P1  8029  1.00
      P1  H  6933  6944       L1    10  0.72
      P1  H  6934  6946       L1    10  0.70

> <Gold.PLP.Chemscore.Internal.Correction>
0.2604

> <Gold.Rescore>
     Score         DG    S(hbond)    S(metal)    S(lipo)     H(rot)  DE(clash)    DE(int)     intcor
     21.25     -23.67       3.32        0.00      82.45       1.00       0.02       2.41       ----

> <Gold.Chemscore.Fitness>
21.2456

> <Gold.Chemscore.DG>
-23.6669

> <Gold.Chemscore.ZeroCoef>
-5.4800

> <Gold.Chemscore.Hbond>
3.3236

> <Gold.Chemscore.Metal>
0.0000

> <Gold.Chemscore.Lipo>
82.4458

> <Gold.Chemscore.Internal_Hbond>
0.0000

> <Gold.Chemscore.DEClash>
0.0162

> <Gold.Chemscore.DEInternal>
2.4051

> <Gold.Chemscore.Rot>
1.0000

> <Gold.Chemscore.Internal.Correction>
   9.000000E+99

> <Gold.Chemscore.Hbonds>
donor molecule, donor type, donor heavy atom, donor atom, acceptor molecule, acceptor atom, score
      L1  H     8    25       P1  8029  0.45
      L1  H    11    26       P1  8029  0.28
      P1  H  6933  6944       L1    10  0.72
      P1  H  6934  6946       L1    10  0.69

> <Gold.Chemscore.Hbond.Weighted>
-11.1008

> <Gold.Chemscore.Metal.Weighted>
-0.0000

> <Gold.Chemscore.Lipo.Weighted>
-9.6462

> <Gold.Chemscore.Internal_Hbond.Weighted>
0.0000

> <Gold.Chemscore.DEClash.Weighted>
0.0162

> <Gold.Chemscore.DEInternal.Weighted>
2.4051

> <Gold.Chemscore.Rot.Weighted>
2.5600

> <Gold.Chemscore.Internal.Correction.Weighted>
   9.000000E+99

> <Gold.Protein.RotatedTorsions>
[ 6907 6896 6895 6894 ] final  115.43 input  -60.11 | X-H torsion
[ 7974 7965 7964 7962 ] final  -13.78 input  175.53 | X-H torsion
[ 8008 7997 7996 7995 ] final  172.14 input   59.86 | X-H torsion
[ 10167 10162 10161 10158 ] final -166.20 input  -65.29 | X-H torsion
[ 10718 10713 10712 10709 ] final -150.89 input   66.30 | X-H torsion
[ 10763 10752 10751 10750 ] final   68.18 input  -60.55 | X-H torsion
[ 11005 11000 10999 10996 ] final  130.61 input  -57.11 | X-H torsion

> <Gold.Protein.ActiveResidues>
 VAL166  LYS551  ARG553  GLY616  TRP617  ASP618  TYR619  PRO620  LYS621  CYS622 
 ASP623  PHE694  ASN695  SER759  ASP760  ASP761  ALA762  ILE779  LEU786  VAL792 
 PHE793  MET794  SER795  GLU796  ALA797  LYS798  CYS799  TRP800  GLU811  SER814 

> <Gold.Protein.RotatedAtoms>
  152.4742  133.8099  159.6997 H   0  0  0  0  0  0  0  0  0  0  0  0  # atno 6907 bound_to 6896
  150.8749  133.7444  159.2956 H   0  0  0  0  0  0  0  0  0  0  0  0  # atno 6908 bound_to 6896
  151.4967  135.1063  159.9870 H   0  0  0  0  0  0  0  0  0  0  0  0  # atno 6909 bound_to 6896
  146.2101  140.3252  142.8394 H   0  0  0  0  0  0  0  0  0  0  0  0  # atno 7974 bound_to 7965
  156.1204  140.1494  156.9213 H   0  0  0  0  0  0  0  0  0  0  0  0  # atno 8008 bound_to 7997
  154.4831  140.0873  156.7466 H   0  0  0  0  0  0  0  0  0  0  0  0  # atno 8009 bound_to 7997
  155.4439  140.3432  155.4295 H   0  0  0  0  0  0  0  0  0  0  0  0  # atno 8010 bound_to 7997
  139.6131  144.0774  152.1861 H   0  0  0  0  0  0  0  0  0  0  0  0  # atno 10167 bound_to 10162
  156.4520  130.8172  151.2403 H   0  0  0  0  0  0  0  0  0  0  0  0  # atno 10718 bound_to 10713
  153.0223  135.5256  154.7095 H   0  0  0  0  0  0  0  0  0  0  0  0  # atno 10763 bound_to 10752
  154.6181  135.2886  155.0359 H   0  0  0  0  0  0  0  0  0  0  0  0  # atno 10764 bound_to 10752
  154.1355  135.6586  153.4983 H   0  0  0  0  0  0  0  0  0  0  0  0  # atno 10765 bound_to 10752
  139.9682  134.9585  156.9319 H   0  0  0  0  0  0  0  0  0  0  0  0  # atno 11005 bound_to 11000
  144.8891  140.7500  143.5938 LP  0  0  0  0  0  0  0  0  0  0  0  0  # atno 17320 bound_to 7965
  145.3174  139.1799  143.4606 LP  0  0  0  0  0  0  0  0  0  0  0  0  # atno 17321 bound_to 7965
  140.0398  144.6016  150.7420 LP  0  0  0  0  0  0  0  0  0  0  0  0  # atno 17342 bound_to 10162
  140.7332  143.2715  151.3874 LP  0  0  0  0  0  0  0  0  0  0  0  0  # atno 17343 bound_to 10162
  157.7502  131.0135  150.3425 LP  0  0  0  0  0  0  0  0  0  0  0  0  # atno 17370 bound_to 10713
  156.3806  130.3880  149.7105 LP  0  0  0  0  0  0  0  0  0  0  0  0  # atno 17371 bound_to 10713
  140.5351  134.0775  155.7326 LP  0  0  0  0  0  0  0  0  0  0  0  0  # atno 17394 bound_to 11000
  141.1362  133.9218  157.2429 LP  0  0  0  0  0  0  0  0  0  0  0  0  # atno 17395 bound_to 11000

$$$$
