AV-unprocessed.smi:2836|AV-procd|sdf|10919|dock10
  -GOLD-   2272015363D 1   1.00000     0.00000
 Structure written by MMmdl.
 30 31  0  0  0  0  0  0  0  0  1 V2000
  146.2242  140.9083  153.5052 N   0  0  0  0  0  0  0  0  0  0  0  0
  146.6527  141.6070  154.5603 C   0  0  0  0  0  0  0  0  0  0  0  0
  146.0033  142.5212  155.0631 O   0  0  0  0  0  0  0  0  0  0  0  0
  148.0146  141.2518  155.0698 C   0  0  0  0  0  0  0  0  0  0  0  0
  149.1645  140.9841  154.2815 C   0  0  0  0  0  0  0  0  0  0  0  0
  150.2145  140.7319  155.0493 N   0  0  0  0  0  0  0  0  0  0  0  0
  149.7596  140.8535  156.3227 N   0  0  0  0  0  0  0  0  0  0  0  0
  150.6727  140.6584  157.4337 C   0  0  0  0  0  0  0  0  0  0  0  0
  151.8879  141.5931  157.3514 C   0  0  0  0  0  0  0  0  0  0  0  0
  151.6691  142.7203  158.1889 O   0  0  0  0  0  0  0  0  0  0  0  0
  152.1467  142.6865  159.4816 C   0  0  0  0  0  0  0  0  0  0  0  0
  152.9460  141.6370  160.0020 C   0  0  0  0  0  0  0  0  0  0  0  0
  153.3990  141.6784  161.3349 C   0  0  0  0  0  0  0  0  0  0  0  0
  153.0604  142.7640  162.1628 C   0  0  0  0  0  0  0  0  0  0  0  0
  153.4973  142.8025  163.4437 F   0  0  0  0  0  0  0  0  0  0  0  0
  152.2669  143.8095  161.6567 C   0  0  0  0  0  0  0  0  0  0  0  0
  151.8129  143.7708  160.3238 C   0  0  0  0  0  0  0  0  0  0  0  0
  150.8371  145.0652  159.7266 Cl  0  0  0  0  0  0  0  0  0  0  0  0
  148.4183  141.1790  156.3707 C   0  0  0  0  0  0  0  0  0  0  0  0
  145.3152  141.1041  153.1118 H   0  0  0  0  0  0  0  0  0  0  0  0
  146.8099  140.1918  153.1020 H   0  0  0  0  0  0  0  0  0  0  0  0
  149.2705  140.9622  153.2068 H   0  0  0  0  0  0  0  0  0  0  0  0
  150.1284  140.8296  158.3630 H   0  0  0  0  0  0  0  0  0  0  0  0
  150.9978  139.6169  157.4465 H   0  0  0  0  0  0  0  0  0  0  0  0
  152.7841  141.0566  157.6676 H   0  0  0  0  0  0  0  0  0  0  0  0
  152.0310  141.9113  156.3178 H   0  0  0  0  0  0  0  0  0  0  0  0
  153.2286  140.7888  159.3977 H   0  0  0  0  0  0  0  0  0  0  0  0
  154.0087  140.8753  161.7219 H   0  0  0  0  0  0  0  0  0  0  0  0
  152.0065  144.6430  162.2924 H   0  0  0  0  0  0  0  0  0  0  0  0
  147.8887  141.3278  157.3002 H   0  0  0  0  0  0  0  0  0  0  0  0
  1  2  1  0  0  0  0
  1 20  1  0  0  0  0
  1 21  1  0  0  0  0
  2  3  2  0  0  0  0
  2  4  1  0  0  0  0
  4 19  2  0  0  0  0
  4  5  1  0  0  0  0
  5  6  2  0  0  0  0
  5 22  1  0  0  0  0
  6  7  1  0  0  0  0
  7  8  1  0  0  0  0
  7 19  1  0  0  0  0
  8  9  1  0  0  0  0
  8 23  1  0  0  0  0
  8 24  1  0  0  0  0
  9 10  1  0  0  0  0
  9 25  1  0  0  0  0
  9 26  1  0  0  0  0
 10 11  1  0  0  0  0
 11 17  1  0  0  0  0
 11 12  2  0  0  0  0
 12 13  1  0  0  0  0
 12 27  1  0  0  0  0
 13 14  2  0  0  0  0
 13 28  1  0  0  0  0
 14 15  1  0  0  0  0
 14 16  1  0  0  0  0
 16 17  2  0  0  0  0
 16 29  1  0  0  0  0
 17 18  1  0  0  0  0
 19 30  1  0  0  0  0
M  END
> <s_m_source_file>
AV-unprocessed.smi

> <i_m_source_file_index>
2836

> <i_lp_mmshare_version>
43012

> <i_f3d_flags>
0

> <s_epik_input>
W05IMl1DKD1PKWMxW2NIXW5uKFtjSF0xKVtDSDJdW0NIMl1PYzJbY0hdW2NIXWMoRilbY0hdYzJDbA==

> <s_epik_cmdline>
J2VwaWtfcHl0aG9uJywgJy1waCcsICc3LjAnLCAnLXRuJywgJzgnLCAnLW1hJywgJzIwMCcsICctbWV0YWxfYmluZGluZycsICctaW1hZScsICc8aW5maWxlLm1hZT4nLCAnLW9tYWUnLCAnPG91dGZpbGUubWFlPic=

> <r_lp_tautomer_probability>
1

> <r_epik_Ionization_Penalty>
2.53738e-06

> <r_epik_Ionization_Penalty_Charging>
0

> <r_epik_Ionization_Penalty_Neutral>
2.53738e-06

> <r_epik_State_Penalty>
-0

> <r_epik_Charging_Adjusted_Penalty>
0

> <i_epik_Tot_Q>
0

> <i_epik_Tot_abs_Q>
0

> <r_epik_Metal_State_Penalty>
-0

> <b_epik_Metal_Only>
0

> <s_lp_Force_Field>
OPLS_2005

> <r_lp_Energy>
11.0812

> <b_lp_Chiralities_Consistent>
1

> <s_lp_Variant>
AV-unprocessed.smi:2836-1

> <Gold.Version>
5.8.1

> <Gold.Id.Protein>
6NUR|6NUR_protein|mol2

> <Gold.PLP.Fitness>
49.9702

> <Gold.PLP.PLP>
-44.7495

> <Gold.PLP.part.hbond>
-2.0000

> <Gold.PLP.part.metal>
0.0000

> <Gold.PLP.part.buried>
-7.1303

> <Gold.PLP.part.nonpolar>
-36.1547

> <Gold.PLP.part.repulsive>
0.3249

> <Gold.PLP.ligand.clash>
0.0000

> <Gold.PLP.ligand.torsion>
1.1966

> <Gold.PLP.Chemscore.Hbond>
1.5307

> <Gold.PLP.Chemscore.CHOScore>
1.0000

> <Gold.PLP.Chemscore.Metal>
0.0000

> <Gold.Chemscore.Hbonds>
donor molecule, donor type, donor heavy atom, donor atom, acceptor molecule, acceptor atom, score
      L1  H     1    20       P1 10175  1.00
      P1  H  7989  7998       L1     6  0.53
      L1  C     5    22       P1  7957  1.00

> <Gold.PLP.Chemscore.Internal.Correction>
0.0217

> <Gold.Rescore>
     Score         DG    S(hbond)    S(metal)    S(lipo)     H(rot)  DE(clash)    DE(int)     intcor
     14.70     -16.17       0.98        0.00     104.52       1.89       0.24       1.24       ----

> <Gold.Chemscore.Fitness>
14.6951

> <Gold.Chemscore.DG>
-16.1689

> <Gold.Chemscore.ZeroCoef>
-5.4800

> <Gold.Chemscore.Hbond>
0.9843

> <Gold.Chemscore.Metal>
0.0000

> <Gold.Chemscore.Lipo>
104.5183

> <Gold.Chemscore.Internal_Hbond>
0.0000

> <Gold.Chemscore.DEClash>
0.2379

> <Gold.Chemscore.DEInternal>
1.2359

> <Gold.Chemscore.Rot>
1.8857

> <Gold.Chemscore.Internal.Correction>
   9.000000E+99

> <Gold.Chemscore.Hbonds>
donor molecule, donor type, donor heavy atom, donor atom, acceptor molecule, acceptor atom, score
      L1  H     1    20       P1 10175  0.24
      P1  H  7989  7998       L1     6  0.06

> <Gold.Chemscore.Hbond.Weighted>
-3.2877

> <Gold.Chemscore.Metal.Weighted>
-0.0000

> <Gold.Chemscore.Lipo.Weighted>
-12.2286

> <Gold.Chemscore.Internal_Hbond.Weighted>
0.0000

> <Gold.Chemscore.DEClash.Weighted>
0.2379

> <Gold.Chemscore.DEInternal.Weighted>
1.2359

> <Gold.Chemscore.Rot.Weighted>
4.8275

> <Gold.Chemscore.Internal.Correction.Weighted>
   9.000000E+99

> <Gold.Protein.RotatedTorsions>
[ 6907 6896 6895 6894 ] final  -25.46 input  -60.11 | X-H torsion
[ 7974 7965 7964 7962 ] final   -1.93 input  175.53 | X-H torsion
[ 8008 7997 7996 7995 ] final  -75.82 input   59.86 | X-H torsion
[ 10167 10162 10161 10158 ] final  119.66 input  -65.29 | X-H torsion
[ 10718 10713 10712 10709 ] final  -17.49 input   66.30 | X-H torsion
[ 10763 10752 10751 10750 ] final   40.02 input  -60.55 | X-H torsion
[ 11005 11000 10999 10996 ] final   99.46 input  -57.11 | X-H torsion

> <Gold.Protein.ActiveResidues>
 VAL166  LYS551  ARG553  GLY616  TRP617  ASP618  TYR619  PRO620  LYS621  CYS622 
 ASP623  PHE694  ASN695  SER759  ASP760  ASP761  ALA762  ILE779  LEU786  VAL792 
 PHE793  MET794  SER795  GLU796  ALA797  LYS798  CYS799  TRP800  GLU811  SER814 

> <Gold.Protein.RotatedAtoms>
  151.1749  135.0334  159.8767 H   0  0  0  0  0  0  0  0  0  0  0  0  # atno 6907 bound_to 6896
  152.5447  134.1129  159.8376 H   0  0  0  0  0  0  0  0  0  0  0  0  # atno 6908 bound_to 6896
  151.1239  133.5038  159.2633 H   0  0  0  0  0  0  0  0  0  0  0  0  # atno 6909 bound_to 6896
  146.2411  140.1495  142.8334 H   0  0  0  0  0  0  0  0  0  0  0  0  # atno 7974 bound_to 7965
  154.5451  140.0737  156.8575 H   0  0  0  0  0  0  0  0  0  0  0  0  # atno 8008 bound_to 7997
  155.3104  140.3390  155.4226 H   0  0  0  0  0  0  0  0  0  0  0  0  # atno 8009 bound_to 7997
  156.1910  140.1686  156.8078 H   0  0  0  0  0  0  0  0  0  0  0  0  # atno 8010 bound_to 7997
  139.6032  144.7062  151.3015 H   0  0  0  0  0  0  0  0  0  0  0  0  # atno 10167 bound_to 10162
  156.5728  130.4754  149.6355 H   0  0  0  0  0  0  0  0  0  0  0  0  # atno 10718 bound_to 10713
  152.9949  135.6203  154.2560 H   0  0  0  0  0  0  0  0  0  0  0  0  # atno 10763 bound_to 10752
  154.2297  135.2792  155.2896 H   0  0  0  0  0  0  0  0  0  0  0  0  # atno 10764 bound_to 10752
  154.5460  135.5747  153.6938 H   0  0  0  0  0  0  0  0  0  0  0  0  # atno 10765 bound_to 10752
  139.8771  134.9097  156.4610 H   0  0  0  0  0  0  0  0  0  0  0  0  # atno 11005 bound_to 11000
  145.0180  140.8770  143.5184 LP  0  0  0  0  0  0  0  0  0  0  0  0  # atno 17320 bound_to 7965
  145.1539  139.2498  143.5427 LP  0  0  0  0  0  0  0  0  0  0  0  0  # atno 17321 bound_to 7965
  140.7265  143.6988  150.7861 LP  0  0  0  0  0  0  0  0  0  0  0  0  # atno 17342 bound_to 10162
  140.0569  143.5194  152.2647 LP  0  0  0  0  0  0  0  0  0  0  0  0  # atno 17343 bound_to 10162
  156.2699  130.7011  151.1805 LP  0  0  0  0  0  0  0  0  0  0  0  0  # atno 17370 bound_to 10713
  157.7344  131.0582  150.5525 LP  0  0  0  0  0  0  0  0  0  0  0  0  # atno 17371 bound_to 10713
  140.8864  133.7880  155.9523 LP  0  0  0  0  0  0  0  0  0  0  0  0  # atno 17394 bound_to 11000
  140.8800  134.2623  157.5149 LP  0  0  0  0  0  0  0  0  0  0  0  0  # atno 17395 bound_to 11000

$$$$
