AV-unprocessed.smi:2605|AV-procd|sdf|10194|dock2
  -GOLD-   2272014203D 1   1.00000     0.00000
 Structure written by MMmdl.
 26 27  0  0  0  0  0  0  0  0  2 V2000
  143.4953  132.3969  150.3151 C   0  0  0  0  0  0  0  0  0  0  0  0
  143.9375  133.6036  150.8937 C   0  0  0  0  0  0  0  0  0  0  0  0
  145.3175  133.7713  151.1322 C   0  0  0  0  0  0  0  0  0  0  0  0
  145.8369  135.0539  151.7623 C   0  0  1  0  0  0  0  0  0  0  0  0
  145.7088  136.2482  150.7895 C   0  0  0  0  0  0  0  0  0  0  0  0
  146.2550  137.4765  151.4026 N   0  3  0  0  0  0  0  0  0  0  0  0
  145.6097  137.7558  152.7007 C   0  0  0  0  0  0  0  0  0  0  0  0
  145.7516  136.5381  153.6318 C   0  0  0  0  0  0  0  0  0  0  0  0
  145.1400  135.3681  153.0096 N   0  0  0  0  0  0  0  0  0  0  0  0
  146.1910  132.7176  150.7851 C   0  0  0  0  0  0  0  0  0  0  0  0
  145.6459  131.5517  150.2112 C   0  0  0  0  0  0  0  0  0  0  0  0
  144.3263  131.3876  149.9784 N   0  0  0  0  0  0  0  0  0  0  0  0
  142.4453  132.2385  150.1180 H   0  0  0  0  0  0  0  0  0  0  0  0
  143.2291  134.3793  151.1450 H   0  0  0  0  0  0  0  0  0  0  0  0
  146.8910  134.8985  151.9987 H   0  0  0  0  0  0  0  0  0  0  0  0
  146.2537  136.0474  149.8667 H   0  0  0  0  0  0  0  0  0  0  0  0
  144.6662  136.4160  150.5143 H   0  0  0  0  0  0  0  0  0  0  0  0
  147.2456  137.3508  151.5540 H   0  0  0  0  0  0  0  0  0  0  0  0
  146.0759  138.6334  153.1491 H   0  0  0  0  0  0  0  0  0  0  0  0
  144.5576  137.9973  152.5414 H   0  0  0  0  0  0  0  0  0  0  0  0
  146.8004  136.3374  153.8555 H   0  0  0  0  0  0  0  0  0  0  0  0
  145.2536  136.7334  154.5818 H   0  0  0  0  0  0  0  0  0  0  0  0
  145.1947  134.5762  153.6355 H   0  0  0  0  0  0  0  0  0  0  0  0
  147.2553  132.7965  150.9518 H   0  0  0  0  0  0  0  0  0  0  0  0
  146.2874  130.7288  149.9328 H   0  0  0  0  0  0  0  0  0  0  0  0
  146.1107  138.2575  150.7787 H   0  0  0  0  0  0  0  0  0  0  0  0
  1 12  1  0  0  0  0
  1  2  2  0  0  0  0
  1 13  1  0  0  0  0
  2  3  1  0  0  0  0
  2 14  1  0  0  0  0
  3  4  1  0  0  0  0
  3 10  2  0  0  0  0
  4  9  1  0  0  0  0
  4  5  1  0  0  0  0
  4 15  1  0  0  0  0
  5  6  1  0  0  0  0
  5 16  1  0  0  0  0
  5 17  1  0  0  0  0
  6  7  1  0  0  0  0
  6 18  1  0  0  0  0
  6 26  1  0  0  0  0
  7  8  1  0  0  0  0
  7 19  1  0  0  0  0
  7 20  1  0  0  0  0
  8  9  1  0  0  0  0
  8 21  1  0  0  0  0
  8 22  1  0  0  0  0
  9 23  1  0  0  0  0
 10 11  1  0  0  0  0
 10 24  1  0  0  0  0
 11 12  2  0  0  0  0
 11 25  1  0  0  0  0
M  CHG  1   6   1
M  END
> <s_m_source_file>
AV-unprocessed.smi

> <i_m_source_file_index>
2605

> <i_lp_mmshare_version>
43012

> <i_f3d_flags>
0

> <s_epik_input>
W2NIXTFbY0hdbltjSF1bY0hdYzFbQ0BASF0yW0NIMl1bTkhdW0NIMl1bQ0gyXVtOSF0y

> <s_epik_cmdline>
J2VwaWtfcHl0aG9uJywgJy1waCcsICc3LjAnLCAnLXRuJywgJzgnLCAnLW1hJywgJzIwMCcsICctbWV0YWxfYmluZGluZycsICctaW1hZScsICc8aW5maWxlLm1hZT4nLCAnLW9tYWUnLCAnPG91dGZpbGUubWFlPic=

> <r_epik_Ionization_Penalty>
0.0197506

> <r_epik_Ionization_Penalty_Charging>
0.010317

> <r_epik_Ionization_Penalty_Neutral>
0.00943359

> <r_epik_State_Penalty>
0.319455

> <r_epik_Charging_Adjusted_Penalty>
0.329772

> <i_epik_Tot_Q>
1

> <i_epik_Tot_abs_Q>
1

> <r_epik_Metal_State_Penalty>
0.318246

> <b_epik_Metal_Only>
0

> <s_lp_Force_Field>
OPLS_2005

> <r_lp_Energy>
9.79217

> <b_lp_Chiralities_Consistent>
1

> <s_lp_Variant>
AV-unprocessed.smi:2605-2

> <Gold.Version>
5.8.1

> <Gold.Id.Protein>
6NUR|6NUR_protein|mol2

> <Gold.PLP.Fitness>
34.6279

> <Gold.PLP.PLP>
-21.5840

> <Gold.PLP.part.hbond>
-2.8654

> <Gold.PLP.part.metal>
0.0000

> <Gold.PLP.part.buried>
-2.1813

> <Gold.PLP.part.nonpolar>
-18.1543

> <Gold.PLP.part.repulsive>
0.2131

> <Gold.PLP.ligand.clash>
0.0000

> <Gold.PLP.ligand.torsion>
0.1283

> <Gold.PLP.Chemscore.Hbond>
2.4659

> <Gold.PLP.Chemscore.CHOScore>
1.9651

> <Gold.PLP.Chemscore.Metal>
0.0000

> <Gold.Chemscore.Hbonds>
donor molecule, donor type, donor heavy atom, donor atom, acceptor molecule, acceptor atom, score
      L1  H     6    18       P1  7948  1.98
      P1  H 10785 10796       L1    12  0.46
      L1  C     1    13       P1 10186  0.49
      L1  C     1    13       P1 10952  0.97
      L1  C    11    25       P1 10747  0.50

> <Gold.PLP.Chemscore.Internal.Correction>
0.0074

> <Gold.Rescore>
     Score         DG    S(hbond)    S(metal)    S(lipo)     H(rot)  DE(clash)    DE(int)     intcor
     15.40     -15.67       1.63        0.00      62.54       1.00       0.16       0.11       ----

> <Gold.Chemscore.Fitness>
15.3991

> <Gold.Chemscore.DG>
-15.6688

> <Gold.Chemscore.ZeroCoef>
-5.4800

> <Gold.Chemscore.Hbond>
1.6262

> <Gold.Chemscore.Metal>
0.0000

> <Gold.Chemscore.Lipo>
62.5408

> <Gold.Chemscore.Internal_Hbond>
0.0000

> <Gold.Chemscore.DEClash>
0.1611

> <Gold.Chemscore.DEInternal>
0.1086

> <Gold.Chemscore.Rot>
1.0000

> <Gold.Chemscore.Internal.Correction>
   9.000000E+99

> <Gold.Chemscore.Hbonds>
donor molecule, donor type, donor heavy atom, donor atom, acceptor molecule, acceptor atom, score
      L1  H     6    18       P1  7948  0.90
      L1  H     6    26       P1 10171  0.02
      P1  H 10785 10796       L1    12  0.25

> <Gold.Chemscore.Hbond.Weighted>
-5.4316

> <Gold.Chemscore.Metal.Weighted>
-0.0000

> <Gold.Chemscore.Lipo.Weighted>
-7.3173

> <Gold.Chemscore.Internal_Hbond.Weighted>
0.0000

> <Gold.Chemscore.DEClash.Weighted>
0.1611

> <Gold.Chemscore.DEInternal.Weighted>
0.1086

> <Gold.Chemscore.Rot.Weighted>
2.5600

> <Gold.Chemscore.Internal.Correction.Weighted>
   9.000000E+99

> <Gold.Protein.RotatedTorsions>
[ 6907 6896 6895 6894 ] final   20.87 input  -60.11 | X-H torsion
[ 7974 7965 7964 7962 ] final  142.94 input  175.53 | X-H torsion
[ 8008 7997 7996 7995 ] final   99.47 input   59.86 | X-H torsion
[ 10167 10162 10161 10158 ] final  147.13 input  -65.29 | X-H torsion
[ 10718 10713 10712 10709 ] final  145.61 input   66.30 | X-H torsion
[ 10763 10752 10751 10750 ] final  -58.90 input  -60.55 | X-H torsion
[ 11005 11000 10999 10996 ] final -161.61 input  -57.11 | X-H torsion

> <Gold.Protein.ActiveResidues>
 VAL166  LYS551  ARG553  GLY616  TRP617  ASP618  TYR619  PRO620  LYS621  CYS622 
 ASP623  PHE694  ASN695  SER759  ASP760  ASP761  ALA762  ILE779  LEU786  VAL792 
 PHE793  MET794  SER795  GLU796  ALA797  LYS798  CYS799  TRP800  GLU811  SER814 

> <Gold.Protein.RotatedAtoms>
  151.9031  135.0370  160.0507 H   0  0  0  0  0  0  0  0  0  0  0  0  # atno 6907 bound_to 6896
  152.2342  133.5078  159.5241 H   0  0  0  0  0  0  0  0  0  0  0  0  # atno 6908 bound_to 6896
  150.7034  134.1092  159.4036 H   0  0  0  0  0  0  0  0  0  0  0  0  # atno 6909 bound_to 6896
  144.8963  139.5486  143.5774 H   0  0  0  0  0  0  0  0  0  0  0  0  # atno 7974 bound_to 7965
  156.1108  140.3228  155.8070 H   0  0  0  0  0  0  0  0  0  0  0  0  # atno 8008 bound_to 7997
  155.4676  140.0544  157.3001 H   0  0  0  0  0  0  0  0  0  0  0  0  # atno 8009 bound_to 7997
  154.4759  140.2032  155.9894 H   0  0  0  0  0  0  0  0  0  0  0  0  # atno 8010 bound_to 7997
  139.4895  144.5778  151.6931 H   0  0  0  0  0  0  0  0  0  0  0  0  # atno 10167 bound_to 10162
  157.3432  131.0939  151.1064 H   0  0  0  0  0  0  0  0  0  0  0  0  # atno 10718 bound_to 10713
  154.2453  135.6336  153.5221 H   0  0  0  0  0  0  0  0  0  0  0  0  # atno 10763 bound_to 10752
  152.9922  135.5552  154.5866 H   0  0  0  0  0  0  0  0  0  0  0  0  # atno 10764 bound_to 10752
  154.5381  135.2893  155.1095 H   0  0  0  0  0  0  0  0  0  0  0  0  # atno 10765 bound_to 10752
  140.6184  134.4776  157.5221 H   0  0  0  0  0  0  0  0  0  0  0  0  # atno 11005 bound_to 11000
  146.3083  139.7657  142.9039 LP  0  0  0  0  0  0  0  0  0  0  0  0  # atno 17320 bound_to 7965
  145.3694  141.0340  143.3240 LP  0  0  0  0  0  0  0  0  0  0  0  0  # atno 17321 bound_to 7965
  140.5378  144.0628  150.6077 LP  0  0  0  0  0  0  0  0  0  0  0  0  # atno 17342 bound_to 10162
  140.3640  143.2892  152.0353 LP  0  0  0  0  0  0  0  0  0  0  0  0  # atno 17343 bound_to 10162
  157.2268  130.6507  149.5833 LP  0  0  0  0  0  0  0  0  0  0  0  0  # atno 17370 bound_to 10713
  155.9710  130.4611  150.6098 LP  0  0  0  0  0  0  0  0  0  0  0  0  # atno 17371 bound_to 10713
  139.9163  134.8239  156.1355 LP  0  0  0  0  0  0  0  0  0  0  0  0  # atno 17394 bound_to 11000
  141.0759  133.6775  156.2236 LP  0  0  0  0  0  0  0  0  0  0  0  0  # atno 17395 bound_to 11000

$$$$
