AV-unprocessed.smi:1830|AV-procd|sdf|7434|dock2
  -GOLD-   22720 9123D 1   1.00000     0.00000
 Structure written by MMmdl.
 53 56  0  0  0  0  0  0  0  0  2 V2000
  150.7763  134.9402  155.5547 O   0  0  0  0  0  0  0  0  0  0  0  0
  149.9094  135.4247  154.8276 C   0  0  0  0  0  0  0  0  0  0  0  0
  148.9880  134.6932  154.1856 N   0  0  0  0  0  0  0  0  0  0  0  0
  148.8869  133.2385  154.2359 C   0  0  0  0  0  0  0  0  0  0  0  0
  147.8202  132.7097  153.2608 C   0  0  2  0  0  0  0  0  0  0  0  0
  146.5661  133.6055  153.2443 C   0  0  0  0  0  0  0  0  0  0  0  0
  145.4853  133.0322  152.4081 N   0  3  1  0  0  0  0  0  0  0  0  0
  145.5986  133.2431  150.9480 C   0  0  0  0  0  0  0  0  0  0  0  0
  144.9296  132.0294  150.2831 C   0  0  0  0  0  0  0  0  0  0  0  0
  144.3845  131.1799  151.4360 C   0  0  0  0  0  0  0  0  0  0  0  0
  145.2287  131.5961  152.6414 C   0  0  1  0  0  0  0  0  0  0  0  0
  146.5472  130.7967  152.7365 C   0  0  0  0  0  0  0  0  0  0  0  0
  147.4221  131.4072  153.6731 O   0  0  0  0  0  0  0  0  0  0  0  0
  149.7702  136.7313  154.5490 N   0  0  0  0  0  0  0  0  0  0  0  0
  150.5718  137.8201  154.9959 C   0  0  0  0  0  0  0  0  0  0  0  0
  151.9010  137.6311  155.4479 C   0  0  0  0  0  0  0  0  0  0  0  0
  152.6536  138.7431  155.8631 C   0  0  0  0  0  0  0  0  0  0  0  0
  152.0490  140.0099  155.8151 C   0  0  0  0  0  0  0  0  0  0  0  0
  150.7796  140.2046  155.4055 N   0  0  0  0  0  0  0  0  0  0  0  0
  150.0358  139.1398  155.0164 C   0  0  0  0  0  0  0  0  0  0  0  0
  148.7048  139.4016  154.6181 N   0  0  0  0  0  0  0  0  0  0  0  0
  148.2741  140.7663  154.3332 C   0  0  0  0  0  0  0  0  0  0  0  0
  146.7497  140.7057  154.3288 C   0  0  0  0  0  0  0  0  0  0  0  0
  146.4629  139.6804  155.4216 C   0  0  0  0  0  0  0  0  0  0  0  0
  147.6325  138.6956  155.3134 C   0  0  0  0  0  0  0  0  0  0  0  0
  148.3141  135.1774  153.6105 H   0  0  0  0  0  0  0  0  0  0  0  0
  149.8552  132.7736  154.0415 H   0  0  0  0  0  0  0  0  0  0  0  0
  148.6161  132.9678  155.2567 H   0  0  0  0  0  0  0  0  0  0  0  0
  148.2561  132.6626  152.2611 H   0  0  0  0  0  0  0  0  0  0  0  0
  146.1816  133.7052  154.2603 H   0  0  0  0  0  0  0  0  0  0  0  0
  146.8060  134.6125  152.9009 H   0  0  0  0  0  0  0  0  0  0  0  0
  145.1108  134.1782  150.6716 H   0  0  0  0  0  0  0  0  0  0  0  0
  146.6422  133.3099  150.6382 H   0  0  0  0  0  0  0  0  0  0  0  0
  144.1410  132.3217  149.5889 H   0  0  0  0  0  0  0  0  0  0  0  0
  145.6705  131.4630  149.7173 H   0  0  0  0  0  0  0  0  0  0  0  0
  143.3408  131.4411  151.6161 H   0  0  0  0  0  0  0  0  0  0  0  0
  144.4248  130.1094  151.2311 H   0  0  0  0  0  0  0  0  0  0  0  0
  144.6707  131.4762  153.5710 H   0  0  0  0  0  0  0  0  0  0  0  0
  146.3422  129.7760  153.0602 H   0  0  0  0  0  0  0  0  0  0  0  0
  147.0434  130.7221  151.7674 H   0  0  0  0  0  0  0  0  0  0  0  0
  149.0744  136.9662  153.8566 H   0  0  0  0  0  0  0  0  0  0  0  0
  152.3529  136.6521  155.4914 H   0  0  0  0  0  0  0  0  0  0  0  0
  153.6702  138.6271  156.2085 H   0  0  0  0  0  0  0  0  0  0  0  0
  152.5952  140.8898  156.1215 H   0  0  0  0  0  0  0  0  0  0  0  0
  148.6065  141.4505  155.1150 H   0  0  0  0  0  0  0  0  0  0  0  0
  148.6688  141.1164  153.3791 H   0  0  0  0  0  0  0  0  0  0  0  0
  146.2849  141.6740  154.5162 H   0  0  0  0  0  0  0  0  0  0  0  0
  146.3924  140.3359  153.3666 H   0  0  0  0  0  0  0  0  0  0  0  0
  146.4851  140.1701  156.3963 H   0  0  0  0  0  0  0  0  0  0  0  0
  145.4913  139.1989  155.3097 H   0  0  0  0  0  0  0  0  0  0  0  0
  147.3355  137.8321  154.7176 H   0  0  0  0  0  0  0  0  0  0  0  0
  147.9447  138.3397  156.2964 H   0  0  0  0  0  0  0  0  0  0  0  0
  144.6339  133.5080  152.6716 H   0  0  0  0  0  0  0  0  0  0  0  0
  1  2  2  0  0  0  0
  2  3  1  0  0  0  0
  2 14  1  0  0  0  0
  3  4  1  0  0  0  0
  3 26  1  0  0  0  0
  4  5  1  0  0  0  0
  4 27  1  0  0  0  0
  4 28  1  0  0  0  0
  5 13  1  0  0  0  0
  5  6  1  0  0  0  0
  5 29  1  0  0  0  0
  6  7  1  0  0  0  0
  6 30  1  0  0  0  0
  6 31  1  0  0  0  0
  7 11  1  0  0  0  0
  7  8  1  0  0  0  0
  7 53  1  0  0  0  0
  8  9  1  0  0  0  0
  8 32  1  0  0  0  0
  8 33  1  0  0  0  0
  9 10  1  0  0  0  0
  9 34  1  0  0  0  0
  9 35  1  0  0  0  0
 10 11  1  0  0  0  0
 10 36  1  0  0  0  0
 10 37  1  0  0  0  0
 11 12  1  0  0  0  0
 11 38  1  0  0  0  0
 12 13  1  0  0  0  0
 12 39  1  0  0  0  0
 12 40  1  0  0  0  0
 14 15  1  0  0  0  0
 14 41  1  0  0  0  0
 15 20  1  0  0  0  0
 15 16  2  0  0  0  0
 16 17  1  0  0  0  0
 16 42  1  0  0  0  0
 17 18  2  0  0  0  0
 17 43  1  0  0  0  0
 18 19  1  0  0  0  0
 18 44  1  0  0  0  0
 19 20  2  0  0  0  0
 20 21  1  0  0  0  0
 21 25  1  0  0  0  0
 21 22  1  0  0  0  0
 22 23  1  0  0  0  0
 22 45  1  0  0  0  0
 22 46  1  0  0  0  0
 23 24  1  0  0  0  0
 23 47  1  0  0  0  0
 23 48  1  0  0  0  0
 24 25  1  0  0  0  0
 24 49  1  0  0  0  0
 24 50  1  0  0  0  0
 25 51  1  0  0  0  0
 25 52  1  0  0  0  0
M  CHG  1   7   1
M  END
> <s_m_source_file>
AV-unprocessed.smi

> <i_m_source_file_index>
1830

> <i_lp_mmshare_version>
43012

> <i_f3d_flags>
0

> <s_epik_input>
W0NIMl0xW0NIMl1bQ0gyXVtDQEhdKE4xMilbQ0gyXU9bQ0BASF0oW0NIMl0yKVtDSDJdW05IXUMoPU8pW05IXWMzW2NIXVtjSF1bY0hdbmMzTjRbQ0gyXVtDSDJdW0NIMl1bQ0gyXTQ=

> <s_epik_cmdline>
J2VwaWtfcHl0aG9uJywgJy1waCcsICc3LjAnLCAnLXRuJywgJzgnLCAnLW1hJywgJzIwMCcsICctbWV0YWxfYmluZGluZycsICctaW1hZScsICc8aW5maWxlLm1hZT4nLCAnLW9tYWUnLCAnPG91dGZpbGUubWFlPic=

> <r_lp_tautomer_probability>
1

> <r_epik_Ionization_Penalty>
0.193547

> <r_epik_Ionization_Penalty_Charging>
0.10673

> <r_epik_Ionization_Penalty_Neutral>
0.0868166

> <r_epik_State_Penalty>
0.173595

> <r_epik_Charging_Adjusted_Penalty>
0.280326

> <i_epik_Tot_Q>
1

> <i_epik_Tot_abs_Q>
1

> <r_epik_Metal_State_Penalty>
0.164683

> <b_epik_Metal_Only>
0

> <s_lp_Force_Field>
OPLS_2005

> <r_lp_Energy>
64.5086

> <b_lp_Chiralities_Consistent>
1

> <s_lp_Variant>
AV-unprocessed.smi:1830-3

> <Gold.Version>
5.8.1

> <Gold.Id.Protein>
6NUR|6NUR_protein|mol2

> <Gold.PLP.Fitness>
47.3440

> <Gold.PLP.PLP>
-40.5803

> <Gold.PLP.part.hbond>
-3.2407

> <Gold.PLP.part.metal>
0.0000

> <Gold.PLP.part.buried>
-0.8182

> <Gold.PLP.part.nonpolar>
-36.5254

> <Gold.PLP.part.repulsive>
0.6142

> <Gold.PLP.ligand.clash>
0.0000

> <Gold.PLP.ligand.torsion>
0.5119

> <Gold.PLP.Chemscore.Hbond>
2.4880

> <Gold.PLP.Chemscore.CHOScore>
0.0000

> <Gold.PLP.Chemscore.Metal>
0.0000

> <Gold.Chemscore.Hbonds>
donor molecule, donor type, donor heavy atom, donor atom, acceptor molecule, acceptor atom, score
      L1  H     3    26       P1  7948  0.30
      L1  H    14    41       P1  7948  0.42
      P1  H  7989  7998       L1    19  0.21
      P1  H 10752 10764       L1     1  0.07

> <Gold.PLP.Chemscore.Internal.Correction>
0.3234

> <Gold.Rescore>
     Score         DG    S(hbond)    S(metal)    S(lipo)     H(rot)  DE(clash)    DE(int)     intcor
     15.52     -17.98       1.29        0.00     100.76       1.41       0.04       2.41       ----

> <Gold.Chemscore.Fitness>
15.5220

> <Gold.Chemscore.DG>
-17.9779

> <Gold.Chemscore.ZeroCoef>
-5.4800

> <Gold.Chemscore.Hbond>
1.2903

> <Gold.Chemscore.Metal>
0.0000

> <Gold.Chemscore.Lipo>
100.7645

> <Gold.Chemscore.Internal_Hbond>
0.0000

> <Gold.Chemscore.DEClash>
0.0437

> <Gold.Chemscore.DEInternal>
2.4121

> <Gold.Chemscore.Rot>
1.4067

> <Gold.Chemscore.Internal.Correction>
   9.000000E+99

> <Gold.Chemscore.Hbonds>
donor molecule, donor type, donor heavy atom, donor atom, acceptor molecule, acceptor atom, score
      L1  H     3    26       P1  7948  0.28
      L1  H    14    41       P1  7948  0.41
      P1  H 10752 10764       L1     1  0.08

> <Gold.Chemscore.Hbond.Weighted>
-4.3095

> <Gold.Chemscore.Metal.Weighted>
-0.0000

> <Gold.Chemscore.Lipo.Weighted>
-11.7894

> <Gold.Chemscore.Internal_Hbond.Weighted>
0.0000

> <Gold.Chemscore.DEClash.Weighted>
0.0437

> <Gold.Chemscore.DEInternal.Weighted>
2.4121

> <Gold.Chemscore.Rot.Weighted>
3.6011

> <Gold.Chemscore.Internal.Correction.Weighted>
   9.000000E+99

> <Gold.Protein.RotatedTorsions>
[ 6907 6896 6895 6894 ] final  169.85 input  -60.11 | X-H torsion
[ 7974 7965 7964 7962 ] final  125.53 input  175.53 | X-H torsion
[ 8008 7997 7996 7995 ] final    3.65 input   59.86 | X-H torsion
[ 10167 10162 10161 10158 ] final -147.64 input  -65.29 | X-H torsion
[ 10718 10713 10712 10709 ] final   89.22 input   66.30 | X-H torsion
[ 10763 10752 10751 10750 ] final  -42.89 input  -60.55 | X-H torsion
[ 11005 11000 10999 10996 ] final   93.48 input  -57.11 | X-H torsion

> <Gold.Protein.ActiveResidues>
 VAL166  LYS551  ARG553  GLY616  TRP617  ASP618  TYR619  PRO620  LYS621  CYS622 
 ASP623  PHE694  ASN695  SER759  ASP760  ASP761  ALA762  ILE779  LEU786  VAL792 
 PHE793  MET794  SER795  GLU796  ALA797  LYS798  CYS799  TRP800  GLU811  SER814 

> <Gold.Protein.RotatedAtoms>
  151.8254  133.3400  159.3596 H   0  0  0  0  0  0  0  0  0  0  0  0  # atno 6907 bound_to 6896
  150.7281  134.5534  159.5815 H   0  0  0  0  0  0  0  0  0  0  0  0  # atno 6908 bound_to 6896
  152.2975  134.7651  160.0416 H   0  0  0  0  0  0  0  0  0  0  0  0  # atno 6909 bound_to 6896
  145.0719  139.3723  143.4953 H   0  0  0  0  0  0  0  0  0  0  0  0  # atno 7974 bound_to 7965
  154.7062  140.2683  155.6672 H   0  0  0  0  0  0  0  0  0  0  0  0  # atno 8008 bound_to 7997
  156.2781  140.2762  156.1613 H   0  0  0  0  0  0  0  0  0  0  0  0  # atno 8009 bound_to 7997
  155.0696  140.0372  157.2594 H   0  0  0  0  0  0  0  0  0  0  0  0  # atno 8010 bound_to 7997
  139.7604  143.8385  152.2606 H   0  0  0  0  0  0  0  0  0  0  0  0  # atno 10167 bound_to 10162
  157.6954  131.0325  150.3393 H   0  0  0  0  0  0  0  0  0  0  0  0  # atno 10718 bound_to 10713
  153.9865  135.6710  153.4752 H   0  0  0  0  0  0  0  0  0  0  0  0  # atno 10763 bound_to 10752
  153.0724  135.4967  154.8330 H   0  0  0  0  0  0  0  0  0  0  0  0  # atno 10764 bound_to 10752
  154.7134  135.3102  154.9124 H   0  0  0  0  0  0  0  0  0  0  0  0  # atno 10765 bound_to 10752
  139.8809  134.8792  156.3724 H   0  0  0  0  0  0  0  0  0  0  0  0  # atno 11005 bound_to 11000
  146.3529  140.0468  142.8639 LP  0  0  0  0  0  0  0  0  0  0  0  0  # atno 17320 bound_to 7965
  145.1282  140.9502  143.4560 LP  0  0  0  0  0  0  0  0  0  0  0  0  # atno 17321 bound_to 7965
  139.8390  144.7219  150.9355 LP  0  0  0  0  0  0  0  0  0  0  0  0  # atno 17342 bound_to 10162
  140.7806  143.4001  151.1164 LP  0  0  0  0  0  0  0  0  0  0  0  0  # atno 17343 bound_to 10162
  156.3856  130.3888  149.7069 LP  0  0  0  0  0  0  0  0  0  0  0  0  # atno 17370 bound_to 10713
  156.4436  130.7873  151.2894 LP  0  0  0  0  0  0  0  0  0  0  0  0  # atno 17371 bound_to 10713
  140.9455  133.7486  156.0202 LP  0  0  0  0  0  0  0  0  0  0  0  0  # atno 17394 bound_to 11000
  140.8169  134.3335  157.5394 LP  0  0  0  0  0  0  0  0  0  0  0  0  # atno 17395 bound_to 11000

$$$$
