AV-unprocessed.smi:3028|AV-procd|sdf|11518|dock2
  -GOLD-   2272016453D 1   1.00000     0.00000
 Structure written by MMmdl.
 48 49  0  0  0  0  0  0  0  0  2 V2000
  151.9009  141.3568  158.2488 C   0  0  0  0  0  0  0  0  0  0  0  0
  151.0621  141.1150  157.0273 C   0  0  0  0  0  0  0  0  0  0  0  0
  150.0180  141.9305  156.5067 C   0  0  0  0  0  0  0  0  0  0  0  0
  149.4783  141.4320  155.4068 N   0  0  0  0  0  0  0  0  0  0  0  0
  150.1547  140.2830  155.1849 N   0  0  0  0  0  0  0  0  0  0  0  0
  149.8382  139.4533  154.0276 C   0  0  1  0  0  0  0  0  0  0  0  0
  150.7839  138.2380  153.9824 C   0  0  0  0  0  0  0  0  0  0  0  0
  148.3354  139.0636  154.0047 C   0  0  2  0  0  0  0  0  0  0  0  0
  148.0017  137.9056  154.9596 C   0  0  0  0  0  0  0  0  0  0  0  0
  147.9265  138.6790  152.6339 N   0  3  0  0  0  0  0  0  0  0  0  0
  146.4709  138.7226  152.3801 C   0  0  0  0  0  0  0  0  0  0  0  0
  145.8550  137.3210  152.2838 C   0  0  0  0  0  0  0  0  0  0  0  0
  144.7738  137.0868  152.8214 O   0  0  0  0  0  0  0  0  0  0  0  0
  146.5085  136.3594  151.6103 N   0  0  0  0  0  0  0  0  0  0  0  0
  146.1043  134.9698  151.3982 C   0  0  0  0  0  0  0  0  0  0  0  0
  144.7160  134.9225  150.7424 C   0  0  0  0  0  0  0  0  0  0  0  0
  144.1959  133.4771  150.6760 C   0  0  0  0  0  0  0  0  0  0  0  0
  144.1745  132.9066  151.9800 O   0  0  0  0  0  0  0  0  0  0  0  0
  145.4674  132.8208  152.5696 C   0  0  0  0  0  0  0  0  0  0  0  0
  146.0615  134.2283  152.7430 C   0  0  0  0  0  0  0  0  0  0  0  0
  151.1128  140.0665  156.1534 C   0  0  0  0  0  0  0  0  0  0  0  0
  151.6702  142.3138  158.7174 H   0  0  0  0  0  0  0  0  0  0  0  0
  152.9647  141.3644  158.0108 H   0  0  0  0  0  0  0  0  0  0  0  0
  151.7449  140.5847  159.0022 H   0  0  0  0  0  0  0  0  0  0  0  0
  149.6400  142.8662  156.8918 H   0  0  0  0  0  0  0  0  0  0  0  0
  150.0432  140.0570  153.1419 H   0  0  0  0  0  0  0  0  0  0  0  0
  150.6935  137.6908  153.0445 H   0  0  0  0  0  0  0  0  0  0  0  0
  150.5807  137.5417  154.7967 H   0  0  0  0  0  0  0  0  0  0  0  0
  151.8250  138.5515  154.0672 H   0  0  0  0  0  0  0  0  0  0  0  0
  147.7484  139.9272  154.3231 H   0  0  0  0  0  0  0  0  0  0  0  0
  148.1754  138.1774  156.0004 H   0  0  0  0  0  0  0  0  0  0  0  0
  148.6003  137.0211  154.7390 H   0  0  0  0  0  0  0  0  0  0  0  0
  146.9512  137.6244  154.8778 H   0  0  0  0  0  0  0  0  0  0  0  0
  148.3743  139.3074  151.9820 H   0  0  0  0  0  0  0  0  0  0  0  0
  145.9856  139.2790  153.1831 H   0  0  0  0  0  0  0  0  0  0  0  0
  146.2889  139.2528  151.4450 H   0  0  0  0  0  0  0  0  0  0  0  0
  147.3900  136.6232  151.1934 H   0  0  0  0  0  0  0  0  0  0  0  0
  146.7988  134.4408  150.7465 H   0  0  0  0  0  0  0  0  0  0  0  0
  144.0122  135.5286  151.3150 H   0  0  0  0  0  0  0  0  0  0  0  0
  144.7557  135.3518  149.7405 H   0  0  0  0  0  0  0  0  0  0  0  0
  143.1849  133.4617  150.2687 H   0  0  0  0  0  0  0  0  0  0  0  0
  144.8150  132.8711  150.0126 H   0  0  0  0  0  0  0  0  0  0  0  0
  145.3794  132.3299  153.5389 H   0  0  0  0  0  0  0  0  0  0  0  0
  146.1183  132.1969  151.9552 H   0  0  0  0  0  0  0  0  0  0  0  0
  147.0626  134.1611  153.1707 H   0  0  0  0  0  0  0  0  0  0  0  0
  145.4534  134.7859  153.4570 H   0  0  0  0  0  0  0  0  0  0  0  0
  151.7501  139.1944  156.1396 H   0  0  0  0  0  0  0  0  0  0  0  0
  148.2544  137.7424  152.4464 H   0  0  0  0  0  0  0  0  0  0  0  0
  1  2  1  0  0  0  0
  1 22  1  0  0  0  0
  1 23  1  0  0  0  0
  1 24  1  0  0  0  0
  2 21  2  0  0  0  0
  2  3  1  0  0  0  0
  3  4  2  0  0  0  0
  3 25  1  0  0  0  0
  4  5  1  0  0  0  0
  5  6  1  0  0  0  0
  5 21  1  0  0  0  0
  6  7  1  0  0  0  0
  6  8  1  0  0  0  0
  6 26  1  0  0  0  0
  7 27  1  0  0  0  0
  7 28  1  0  0  0  0
  7 29  1  0  0  0  0
  8  9  1  0  0  0  0
  8 10  1  0  0  0  0
  8 30  1  0  0  0  0
  9 31  1  0  0  0  0
  9 32  1  0  0  0  0
  9 33  1  0  0  0  0
 10 11  1  0  0  0  0
 10 34  1  0  0  0  0
 10 48  1  0  0  0  0
 11 12  1  0  0  0  0
 11 35  1  0  0  0  0
 11 36  1  0  0  0  0
 12 13  2  0  0  0  0
 12 14  1  0  0  0  0
 14 15  1  0  0  0  0
 14 37  1  0  0  0  0
 15 20  1  0  0  0  0
 15 16  1  0  0  0  0
 15 38  1  0  0  0  0
 16 17  1  0  0  0  0
 16 39  1  0  0  0  0
 16 40  1  0  0  0  0
 17 18  1  0  0  0  0
 17 41  1  0  0  0  0
 17 42  1  0  0  0  0
 18 19  1  0  0  0  0
 19 20  1  0  0  0  0
 19 43  1  0  0  0  0
 19 44  1  0  0  0  0
 20 45  1  0  0  0  0
 20 46  1  0  0  0  0
 21 47  1  0  0  0  0
M  CHG  1  10   1
M  END
> <s_m_source_file>
AV-unprocessed.smi

> <i_m_source_file_index>
3028

> <i_lp_mmshare_version>
43012

> <i_f3d_flags>
0

> <s_epik_input>
W0NIM11jMVtjSF1ubihbY0hdMSlbQ0BIXShbQ0gzXSlbQ0BIXShbQ0gzXSlbTkhdW0NIMl1DKD1PKVtOSF1bQ0hdMltDSDJdW0NIMl1PW0NIMl1bQ0gyXTI=

> <s_epik_cmdline>
J2VwaWtfcHl0aG9uJywgJy1waCcsICc3LjAnLCAnLXRuJywgJzgnLCAnLW1hJywgJzIwMCcsICctbWV0YWxfYmluZGluZycsICctaW1hZScsICc8aW5maWxlLm1hZT4nLCAnLW9tYWUnLCAnPG91dGZpbGUubWFlPic=

> <r_lp_tautomer_probability>
1

> <r_epik_Ionization_Penalty>
0.151514

> <r_epik_Ionization_Penalty_Charging>
0.151494

> <r_epik_Ionization_Penalty_Neutral>
1.95502e-05

> <r_epik_State_Penalty>
0.141395

> <r_epik_Charging_Adjusted_Penalty>
0.292889

> <i_epik_Tot_Q>
1

> <i_epik_Tot_abs_Q>
1

> <r_epik_Metal_State_Penalty>
0.141632

> <b_epik_Metal_Only>
0

> <s_lp_Force_Field>
OPLS_2005

> <r_lp_Energy>
16.7547

> <b_lp_Chiralities_Consistent>
1

> <s_lp_Variant>
AV-unprocessed.smi:3028-2

> <Gold.Version>
5.8.1

> <Gold.Id.Protein>
6NUR|6NUR_protein|mol2

> <Gold.PLP.Fitness>
47.8466

> <Gold.PLP.PLP>
-36.0887

> <Gold.PLP.part.hbond>
-2.6000

> <Gold.PLP.part.metal>
0.0000

> <Gold.PLP.part.buried>
-3.6179

> <Gold.PLP.part.nonpolar>
-31.6822

> <Gold.PLP.part.repulsive>
0.6421

> <Gold.PLP.ligand.clash>
0.0000

> <Gold.PLP.ligand.torsion>
1.0758

> <Gold.PLP.Chemscore.Hbond>
3.5920

> <Gold.PLP.Chemscore.CHOScore>
1.0000

> <Gold.PLP.Chemscore.Metal>
0.0000

> <Gold.Chemscore.Hbonds>
donor molecule, donor type, donor heavy atom, donor atom, acceptor molecule, acceptor atom, score
      L1  H    10    34       P1  7957  1.00
      L1  H    10    48       P1  7948  2.00
      L1  H    14    37       P1  7948  0.53
      L1  C     3    25       P1  8028  0.96

> <Gold.PLP.Chemscore.Internal.Correction>
0.1336

> <Gold.Rescore>
     Score         DG    S(hbond)    S(metal)    S(lipo)     H(rot)  DE(clash)    DE(int)     intcor
     16.29     -18.97       2.81        0.00      78.59       1.99       0.04       2.64       ----

> <Gold.Chemscore.Fitness>
16.2870

> <Gold.Chemscore.DG>
-18.9688

> <Gold.Chemscore.ZeroCoef>
-5.4800

> <Gold.Chemscore.Hbond>
2.8105

> <Gold.Chemscore.Metal>
0.0000

> <Gold.Chemscore.Lipo>
78.5921

> <Gold.Chemscore.Internal_Hbond>
0.0000

> <Gold.Chemscore.DEClash>
0.0405

> <Gold.Chemscore.DEInternal>
2.6413

> <Gold.Chemscore.Rot>
1.9897

> <Gold.Chemscore.Internal.Correction>
   9.000000E+99

> <Gold.Chemscore.Hbonds>
donor molecule, donor type, donor heavy atom, donor atom, acceptor molecule, acceptor atom, score
      L1  H    10    34       P1  7957  0.99
      L1  H    10    48       P1  7948  1.00
      L1  H    14    37       P1  7948  0.52

> <Gold.Chemscore.Hbond.Weighted>
-9.3871

> <Gold.Chemscore.Metal.Weighted>
-0.0000

> <Gold.Chemscore.Lipo.Weighted>
-9.1953

> <Gold.Chemscore.Internal_Hbond.Weighted>
0.0000

> <Gold.Chemscore.DEClash.Weighted>
0.0405

> <Gold.Chemscore.DEInternal.Weighted>
2.6413

> <Gold.Chemscore.Rot.Weighted>
5.0936

> <Gold.Chemscore.Internal.Correction.Weighted>
   9.000000E+99

> <Gold.Protein.RotatedTorsions>
[ 6907 6896 6895 6894 ] final   98.94 input  -60.11 | X-H torsion
[ 7974 7965 7964 7962 ] final  127.64 input  175.53 | X-H torsion
[ 8008 7997 7996 7995 ] final  118.93 input   59.86 | X-H torsion
[ 10167 10162 10161 10158 ] final   62.03 input  -65.29 | X-H torsion
[ 10718 10713 10712 10709 ] final   39.46 input   66.30 | X-H torsion
[ 10763 10752 10751 10750 ] final   52.04 input  -60.55 | X-H torsion
[ 11005 11000 10999 10996 ] final  -46.91 input  -57.11 | X-H torsion

> <Gold.Protein.ActiveResidues>
 VAL166  LYS551  ARG553  GLY616  TRP617  ASP618  TYR619  PRO620  LYS621  CYS622 
 ASP623  PHE694  ASN695  SER759  ASP760  ASP761  ALA762  ILE779  LEU786  VAL792 
 PHE793  MET794  SER795  GLU796  ALA797  LYS798  CYS799  TRP800  GLU811  SER814 

> <Gold.Protein.RotatedAtoms>
  152.5401  134.0503  159.8106 H   0  0  0  0  0  0  0  0  0  0  0  0  # atno 6907 bound_to 6896
  151.0646  133.5508  159.2639 H   0  0  0  0  0  0  0  0  0  0  0  0  # atno 6908 bound_to 6896
  151.2394  135.0591  159.9073 H   0  0  0  0  0  0  0  0  0  0  0  0  # atno 6909 bound_to 6896
  145.0484  139.3904  143.5066 H   0  0  0  0  0  0  0  0  0  0  0  0  # atno 7974 bound_to 7965
  156.2571  140.2864  156.0912 H   0  0  0  0  0  0  0  0  0  0  0  0  # atno 8008 bound_to 7997
  155.1461  140.0396  157.2827 H   0  0  0  0  0  0  0  0  0  0  0  0  # atno 8009 bound_to 7997
  154.6494  140.2541  155.7237 H   0  0  0  0  0  0  0  0  0  0  0  0  # atno 8010 bound_to 7997
  140.1484  144.4487  150.6773 H   0  0  0  0  0  0  0  0  0  0  0  0  # atno 10167 bound_to 10162
  157.3708  130.7700  149.7117 H   0  0  0  0  0  0  0  0  0  0  0  0  # atno 10718 bound_to 10713
  152.9787  135.5826  154.4514 H   0  0  0  0  0  0  0  0  0  0  0  0  # atno 10763 bound_to 10752
  154.4102  135.2770  155.2043 H   0  0  0  0  0  0  0  0  0  0  0  0  # atno 10764 bound_to 10752
  154.3836  135.6141  153.5858 H   0  0  0  0  0  0  0  0  0  0  0  0  # atno 10765 bound_to 10752
  141.0608  133.6710  156.3222 H   0  0  0  0  0  0  0  0  0  0  0  0  # atno 11005 bound_to 11000
  146.3516  140.0121  142.8666 LP  0  0  0  0  0  0  0  0  0  0  0  0  # atno 17320 bound_to 7965
  145.1559  140.9647  143.4405 LP  0  0  0  0  0  0  0  0  0  0  0  0  # atno 17321 bound_to 7965
  140.6718  143.2289  151.5607 LP  0  0  0  0  0  0  0  0  0  0  0  0  # atno 17342 bound_to 10162
  139.5438  144.2576  152.1402 LP  0  0  0  0  0  0  0  0  0  0  0  0  # atno 17343 bound_to 10162
  155.9755  130.4088  150.3844 LP  0  0  0  0  0  0  0  0  0  0  0  0  # atno 17370 bound_to 10713
  157.1935  131.0421  151.2688 LP  0  0  0  0  0  0  0  0  0  0  0  0  # atno 17371 bound_to 10713
  140.5872  134.5687  157.5492 LP  0  0  0  0  0  0  0  0  0  0  0  0  # atno 17394 bound_to 11000
  139.9431  134.7751  156.0629 LP  0  0  0  0  0  0  0  0  0  0  0  0  # atno 17395 bound_to 11000

$$$$
