AV-unprocessed.smi:2300|AV-procd|sdf|9233|dock3
  -GOLD-   2272012453D 1   1.00000     0.00000
 Structure written by MMmdl.
 51 52  0  0  0  0  0  0  0  0  1 V2000
  148.8174  133.1689  153.2306 C   0  0  0  0  0  0  0  0  0  0  0  0
  149.1933  133.7675  154.5826 C   0  0  0  0  0  0  0  0  0  0  0  0
  149.2549  133.0454  155.5770 O   0  0  0  0  0  0  0  0  0  0  0  0
  149.4369  135.0867  154.6090 N   0  0  0  0  0  0  0  0  0  0  0  0
  149.7952  135.8494  155.8000 C   0  0  0  0  0  0  0  0  0  0  0  0
  150.4302  137.2031  155.4398 C   0  0  1  0  0  0  0  0  0  0  0  0
  150.9386  137.9471  156.6889 C   0  0  0  0  0  0  0  0  0  0  0  0
  151.6207  139.1814  156.3055 N   0  0  0  0  0  0  0  0  0  0  0  0
  151.9077  140.1194  157.3197 C   0  0  0  0  0  0  0  0  0  0  0  0
  152.7816  139.7952  158.3841 C   0  0  0  0  0  0  0  0  0  0  0  0
  153.0148  140.7971  159.3499 C   0  0  0  0  0  0  0  0  0  0  0  0
  153.9435  140.5540  160.5312 C   0  0  0  0  0  0  0  0  0  0  0  0
  153.8649  141.6900  161.5627 C   0  0  0  0  0  0  0  0  0  0  0  0
  155.3846  140.2758  160.0761 C   0  0  0  0  0  0  0  0  0  0  0  0
  152.4295  142.0124  159.2643 N   0  0  0  0  0  0  0  0  0  0  0  0
  151.6241  142.2246  158.2207 C   0  0  0  0  0  0  0  0  0  0  0  0
  150.9651  143.5946  158.1289 C   0  0  0  0  0  0  0  0  0  0  0  0
  152.0016  144.7242  158.0266 C   0  0  0  0  0  0  0  0  0  0  0  0
  149.9415  143.8178  159.2532 C   0  0  0  0  0  0  0  0  0  0  0  0
  151.3376  141.3474  157.2537 N   0  0  0  0  0  0  0  0  0  0  0  0
  152.6680  138.9813  155.3078 C   0  0  0  0  0  0  0  0  0  0  0  0
  152.1215  138.1842  154.1111 C   0  0  0  0  0  0  0  0  0  0  0  0
  151.5335  136.9703  154.5671 O   0  0  0  0  0  0  0  0  0  0  0  0
  149.0148  133.8662  152.4155 H   0  0  0  0  0  0  0  0  0  0  0  0
  147.7574  132.9142  153.2149 H   0  0  0  0  0  0  0  0  0  0  0  0
  149.3912  132.2602  153.0460 H   0  0  0  0  0  0  0  0  0  0  0  0
  149.3564  135.6027  153.7448 H   0  0  0  0  0  0  0  0  0  0  0  0
  148.9098  135.9989  156.4205 H   0  0  0  0  0  0  0  0  0  0  0  0
  150.4908  135.2558  156.3940 H   0  0  0  0  0  0  0  0  0  0  0  0
  149.6897  137.8235  154.9309 H   0  0  0  0  0  0  0  0  0  0  0  0
  150.0944  138.1730  157.3418 H   0  0  0  0  0  0  0  0  0  0  0  0
  151.6271  137.3152  157.2519 H   0  0  0  0  0  0  0  0  0  0  0  0
  153.2675  138.8336  158.4546 H   0  0  0  0  0  0  0  0  0  0  0  0
  153.5935  139.6509  161.0328 H   0  0  0  0  0  0  0  0  0  0  0  0
  152.8426  141.8266  161.9167 H   0  0  0  0  0  0  0  0  0  0  0  0
  154.2010  142.6377  161.1407 H   0  0  0  0  0  0  0  0  0  0  0  0
  154.4887  141.4749  162.4306 H   0  0  0  0  0  0  0  0  0  0  0  0
  155.4222  139.4244  159.3960 H   0  0  0  0  0  0  0  0  0  0  0  0
  156.0272  140.0472  160.9266 H   0  0  0  0  0  0  0  0  0  0  0  0
  155.8134  141.1347  159.5588 H   0  0  0  0  0  0  0  0  0  0  0  0
  150.3988  143.6169  157.1958 H   0  0  0  0  0  0  0  0  0  0  0  0
  152.6626  144.5721  157.1729 H   0  0  0  0  0  0  0  0  0  0  0  0
  152.6212  144.7798  158.9223 H   0  0  0  0  0  0  0  0  0  0  0  0
  151.5154  145.6916  157.8994 H   0  0  0  0  0  0  0  0  0  0  0  0
  149.1804  143.0369  159.2503 H   0  0  0  0  0  0  0  0  0  0  0  0
  149.4337  144.7753  159.1366 H   0  0  0  0  0  0  0  0  0  0  0  0
  150.4191  143.8139  160.2337 H   0  0  0  0  0  0  0  0  0  0  0  0
  153.0702  139.9274  154.9486 H   0  0  0  0  0  0  0  0  0  0  0  0
  153.4940  138.4398  155.7705 H   0  0  0  0  0  0  0  0  0  0  0  0
  151.3874  138.7703  153.5555 H   0  0  0  0  0  0  0  0  0  0  0  0
  152.9291  137.9482  153.4182 H   0  0  0  0  0  0  0  0  0  0  0  0
  1  2  1  0  0  0  0
  1 24  1  0  0  0  0
  1 25  1  0  0  0  0
  1 26  1  0  0  0  0
  2  3  2  0  0  0  0
  2  4  1  0  0  0  0
  4  5  1  0  0  0  0
  4 27  1  0  0  0  0
  5  6  1  0  0  0  0
  5 28  1  0  0  0  0
  5 29  1  0  0  0  0
  6 23  1  0  0  0  0
  6  7  1  0  0  0  0
  6 30  1  0  0  0  0
  7  8  1  0  0  0  0
  7 31  1  0  0  0  0
  7 32  1  0  0  0  0
  8  9  1  0  0  0  0
  8 21  1  0  0  0  0
  9 20  1  0  0  0  0
  9 10  2  0  0  0  0
 10 11  1  0  0  0  0
 10 33  1  0  0  0  0
 11 12  1  0  0  0  0
 11 15  2  0  0  0  0
 12 13  1  0  0  0  0
 12 14  1  0  0  0  0
 12 34  1  0  0  0  0
 13 35  1  0  0  0  0
 13 36  1  0  0  0  0
 13 37  1  0  0  0  0
 14 38  1  0  0  0  0
 14 39  1  0  0  0  0
 14 40  1  0  0  0  0
 15 16  1  0  0  0  0
 16 17  1  0  0  0  0
 16 20  2  0  0  0  0
 17 18  1  0  0  0  0
 17 19  1  0  0  0  0
 17 41  1  0  0  0  0
 18 42  1  0  0  0  0
 18 43  1  0  0  0  0
 18 44  1  0  0  0  0
 19 45  1  0  0  0  0
 19 46  1  0  0  0  0
 19 47  1  0  0  0  0
 21 22  1  0  0  0  0
 21 48  1  0  0  0  0
 21 49  1  0  0  0  0
 22 23  1  0  0  0  0
 22 50  1  0  0  0  0
 22 51  1  0  0  0  0
M  END
> <s_m_source_file>
AV-unprocessed.smi

> <i_m_source_file_index>
2300

> <i_lp_mmshare_version>
43012

> <i_f3d_flags>
0

> <s_epik_input>
W0NIM11DKD1PKVtOSF1bQ0gyXVtDQEBIXTFbQ0gyXU4oW0NIMl1bQ0gyXU8xKWMyW2NIXWMoW0NIXShbQ0gzXSlbQ0gzXSluYyhuMilbQ0hdKFtDSDNdKVtDSDNd

> <s_epik_cmdline>
J2VwaWtfcHl0aG9uJywgJy1waCcsICc3LjAnLCAnLXRuJywgJzgnLCAnLW1hJywgJzIwMCcsICctbWV0YWxfYmluZGluZycsICctaW1hZScsICc8aW5maWxlLm1hZT4nLCAnLW9tYWUnLCAnPG91dGZpbGUubWFlPic=

> <r_lp_tautomer_probability>
1

> <r_epik_Ionization_Penalty>
0.0035465

> <r_epik_Ionization_Penalty_Charging>
0

> <r_epik_Ionization_Penalty_Neutral>
0.0035465

> <r_epik_State_Penalty>
0.00247846

> <r_epik_Charging_Adjusted_Penalty>
0.00247846

> <i_epik_Tot_Q>
0

> <i_epik_Tot_abs_Q>
0

> <r_epik_Metal_State_Penalty>
-0

> <b_epik_Metal_Only>
0

> <s_lp_Force_Field>
OPLS_2005

> <r_lp_Energy>
1.47364

> <b_lp_Chiralities_Consistent>
1

> <s_lp_Variant>
AV-unprocessed.smi:2300-2

> <Gold.Version>
5.8.1

> <Gold.Id.Protein>
6NUR|6NUR_protein|mol2

> <Gold.PLP.Fitness>
46.8566

> <Gold.PLP.PLP>
-41.4038

> <Gold.PLP.part.hbond>
-2.0000

> <Gold.PLP.part.metal>
0.0000

> <Gold.PLP.part.buried>
-6.1913

> <Gold.PLP.part.nonpolar>
-33.2719

> <Gold.PLP.part.repulsive>
0.2118

> <Gold.PLP.ligand.clash>
0.0000

> <Gold.PLP.ligand.torsion>
0.5110

> <Gold.PLP.Chemscore.Hbond>
2.0000

> <Gold.PLP.Chemscore.CHOScore>
0.0000

> <Gold.PLP.Chemscore.Metal>
0.0000

> <Gold.Chemscore.Hbonds>
donor molecule, donor type, donor heavy atom, donor atom, acceptor molecule, acceptor atom, score
      L1  H     4    27       P1  7948  1.00
      P1  H 10752 10764       L1    23  1.00

> <Gold.PLP.Chemscore.Internal.Correction>
0.4747

> <Gold.Rescore>
     Score         DG    S(hbond)    S(metal)    S(lipo)     H(rot)  DE(clash)    DE(int)     intcor
     16.66     -17.04       1.19        0.00     104.56       1.82       0.07       0.31       ----

> <Gold.Chemscore.Fitness>
16.6634

> <Gold.Chemscore.DG>
-17.0396

> <Gold.Chemscore.ZeroCoef>
-5.4800

> <Gold.Chemscore.Hbond>
1.1897

> <Gold.Chemscore.Metal>
0.0000

> <Gold.Chemscore.Lipo>
104.5646

> <Gold.Chemscore.Internal_Hbond>
0.0000

> <Gold.Chemscore.DEClash>
0.0703

> <Gold.Chemscore.DEInternal>
0.3059

> <Gold.Chemscore.Rot>
1.8156

> <Gold.Chemscore.Internal.Correction>
   9.000000E+99

> <Gold.Chemscore.Hbonds>
donor molecule, donor type, donor heavy atom, donor atom, acceptor molecule, acceptor atom, score
      L1  H     4    27       P1  7948  0.43
      P1  H 10752 10764       L1    23  0.59

> <Gold.Chemscore.Hbond.Weighted>
-3.9736

> <Gold.Chemscore.Metal.Weighted>
-0.0000

> <Gold.Chemscore.Lipo.Weighted>
-12.2341

> <Gold.Chemscore.Internal_Hbond.Weighted>
0.0000

> <Gold.Chemscore.DEClash.Weighted>
0.0703

> <Gold.Chemscore.DEInternal.Weighted>
0.3059

> <Gold.Chemscore.Rot.Weighted>
4.6481

> <Gold.Chemscore.Internal.Correction.Weighted>
   9.000000E+99

> <Gold.Protein.RotatedTorsions>
[ 6907 6896 6895 6894 ] final -106.79 input  -60.11 | X-H torsion
[ 7974 7965 7964 7962 ] final -158.71 input  175.53 | X-H torsion
[ 8008 7997 7996 7995 ] final  -74.04 input   59.86 | X-H torsion
[ 10167 10162 10161 10158 ] final  -98.11 input  -65.29 | X-H torsion
[ 10718 10713 10712 10709 ] final   45.67 input   66.30 | X-H torsion
[ 10763 10752 10751 10750 ] final  -63.90 input  -60.55 | X-H torsion
[ 11005 11000 10999 10996 ] final  173.96 input  -57.11 | X-H torsion

> <Gold.Protein.ActiveResidues>
 VAL166  LYS551  ARG553  GLY616  TRP617  ASP618  TYR619  PRO620  LYS621  CYS622 
 ASP623  PHE694  ASN695  SER759  ASP760  ASP761  ALA762  ILE779  LEU786  VAL792 
 PHE793  MET794  SER795  GLU796  ALA797  LYS798  CYS799  TRP800  GLU811  SER814 

> <Gold.Protein.RotatedAtoms>
  150.7408  133.9923  159.3610 H   0  0  0  0  0  0  0  0  0  0  0  0  # atno 6907 bound_to 6896
  151.7872  135.0743  160.0391 H   0  0  0  0  0  0  0  0  0  0  0  0  # atno 6908 bound_to 6896
  152.3233  133.5841  159.5795 H   0  0  0  0  0  0  0  0  0  0  0  0  # atno 6909 bound_to 6896
  144.7494  140.3788  143.6059 H   0  0  0  0  0  0  0  0  0  0  0  0  # atno 7974 bound_to 7965
  154.5297  140.0768  156.8322 H   0  0  0  0  0  0  0  0  0  0  0  0  # atno 8008 bound_to 7997
  155.3401  140.3407  155.4221 H   0  0  0  0  0  0  0  0  0  0  0  0  # atno 8009 bound_to 7997
  156.1768  140.1638  156.8334 H   0  0  0  0  0  0  0  0  0  0  0  0  # atno 8010 bound_to 7997
  140.2763  143.3311  152.0485 H   0  0  0  0  0  0  0  0  0  0  0  0  # atno 10167 bound_to 10162
  157.4401  130.8076  149.7685 H   0  0  0  0  0  0  0  0  0  0  0  0  # atno 10718 bound_to 10713
  154.3220  135.6194  153.5512 H   0  0  0  0  0  0  0  0  0  0  0  0  # atno 10763 bound_to 10752
  152.9819  135.5726  154.5059 H   0  0  0  0  0  0  0  0  0  0  0  0  # atno 10764 bound_to 10752
  154.4729  135.2860  155.1606 H   0  0  0  0  0  0  0  0  0  0  0  0  # atno 10765 bound_to 10752
  140.3461  134.7235  157.4236 H   0  0  0  0  0  0  0  0  0  0  0  0  # atno 11005 bound_to 11000
  145.6999  139.1659  143.2598 LP  0  0  0  0  0  0  0  0  0  0  0  0  # atno 17320 bound_to 7965
  146.1423  140.7041  142.9361 LP  0  0  0  0  0  0  0  0  0  0  0  0  # atno 17321 bound_to 7965
  139.4975  144.6622  151.6438 LP  0  0  0  0  0  0  0  0  0  0  0  0  # atno 17342 bound_to 10162
  140.5848  143.9883  150.6289 LP  0  0  0  0  0  0  0  0  0  0  0  0  # atno 17343 bound_to 10162
  155.9945  130.3917  150.2856 LP  0  0  0  0  0  0  0  0  0  0  0  0  # atno 17370 bound_to 10713
  157.1020  131.0198  151.3082 LP  0  0  0  0  0  0  0  0  0  0  0  0  # atno 17371 bound_to 10713
  140.0741  134.5822  155.8610 LP  0  0  0  0  0  0  0  0  0  0  0  0  # atno 17394 bound_to 11000
  141.2025  133.6625  156.6010 LP  0  0  0  0  0  0  0  0  0  0  0  0  # atno 17395 bound_to 11000

$$$$
