AV-unprocessed.smi:3058|AV-procd|sdf|11670|dock3
  -GOLD-   2272017 73D 1   1.00000     0.00000
 Structure written by MMmdl.
 38 40  0  0  0  0  0  0  0  0  1 V2000
  150.1170  141.4369  158.6621 O   0  0  0  0  0  0  0  0  0  0  0  0
  150.0060  142.4081  157.9126 C   0  0  0  0  0  0  0  0  0  0  0  0
  149.3119  142.3681  156.7649 N   0  0  0  0  0  0  0  0  0  0  0  0
  148.6203  141.1943  156.2462 C   0  0  0  0  0  0  0  0  0  0  0  0
  149.1729  140.7717  154.8755 C   0  0  0  0  0  0  0  0  0  0  0  0
  150.4000  139.8913  155.0042 C   0  0  0  0  0  0  0  0  0  0  0  0
  150.4746  138.6539  154.3324 C   0  0  0  0  0  0  0  0  0  0  0  0
  151.6375  137.8730  154.4765 C   0  0  0  0  0  0  0  0  0  0  0  0
  152.6792  138.3651  155.2883 C   0  0  0  0  0  0  0  0  0  0  0  0
  152.6189  139.5491  155.9356 N   0  0  0  0  0  0  0  0  0  0  0  0
  151.5000  140.2914  155.7923 C   0  0  0  0  0  0  0  0  0  0  0  0
  150.6515  143.7599  158.2651 C   0  0  1  0  0  0  0  0  0  0  0  0
  150.2655  144.3193  159.6570 C   0  0  0  0  0  0  0  0  0  0  0  0
  151.6329  144.5923  160.3116 C   0  0  1  0  0  0  0  0  0  0  0  0
  152.2959  143.2561  160.6957 C   0  0  0  0  0  0  0  0  0  0  0  0
  152.7448  142.6964  159.3335 C   0  0  0  0  0  0  0  0  0  0  0  0
  152.2017  143.7463  158.3389 C   0  0  2  0  0  0  0  0  0  0  0  0
  152.4700  145.0321  159.1157 C   0  0  0  0  0  0  0  0  0  0  0  0
  149.2620  143.2105  156.2104 H   0  0  0  0  0  0  0  0  0  0  0  0
  148.6946  140.3718  156.9599 H   0  0  0  0  0  0  0  0  0  0  0  0
  147.5604  141.4363  156.1614 H   0  0  0  0  0  0  0  0  0  0  0  0
  148.4081  140.2357  154.3118 H   0  0  0  0  0  0  0  0  0  0  0  0
  149.4320  141.6504  154.2831 H   0  0  0  0  0  0  0  0  0  0  0  0
  149.6576  138.3090  153.7155 H   0  0  0  0  0  0  0  0  0  0  0  0
  151.7292  136.9203  153.9763 H   0  0  0  0  0  0  0  0  0  0  0  0
  153.5853  137.7925  155.4204 H   0  0  0  0  0  0  0  0  0  0  0  0
  151.4845  141.2340  156.3197 H   0  0  0  0  0  0  0  0  0  0  0  0
  150.3471  144.4881  157.5106 H   0  0  0  0  0  0  0  0  0  0  0  0
  149.7057  145.2487  159.5449 H   0  0  0  0  0  0  0  0  0  0  0  0
  149.6537  143.6478  160.2608 H   0  0  0  0  0  0  0  0  0  0  0  0
  151.5878  145.3088  161.1321 H   0  0  0  0  0  0  0  0  0  0  0  0
  153.1563  143.4171  161.3465 H   0  0  0  0  0  0  0  0  0  0  0  0
  151.6052  142.5879  161.2116 H   0  0  0  0  0  0  0  0  0  0  0  0
  153.8339  142.6614  159.2847 H   0  0  0  0  0  0  0  0  0  0  0  0
  152.3878  141.6838  159.1499 H   0  0  0  0  0  0  0  0  0  0  0  0
  152.6819  143.7079  157.3607 H   0  0  0  0  0  0  0  0  0  0  0  0
  152.0856  145.9271  158.6230 H   0  0  0  0  0  0  0  0  0  0  0  0
  153.5236  145.1835  159.3576 H   0  0  0  0  0  0  0  0  0  0  0  0
  1  2  2  0  0  0  0
  2  3  1  0  0  0  0
  2 12  1  0  0  0  0
  3  4  1  0  0  0  0
  3 19  1  0  0  0  0
  4  5  1  0  0  0  0
  4 20  1  0  0  0  0
  4 21  1  0  0  0  0
  5  6  1  0  0  0  0
  5 22  1  0  0  0  0
  5 23  1  0  0  0  0
  6 11  1  0  0  0  0
  6  7  2  0  0  0  0
  7  8  1  0  0  0  0
  7 24  1  0  0  0  0
  8  9  2  0  0  0  0
  8 25  1  0  0  0  0
  9 10  1  0  0  0  0
  9 26  1  0  0  0  0
 10 11  2  0  0  0  0
 11 27  1  0  0  0  0
 12 17  1  0  0  0  0
 12 13  1  0  0  0  0
 12 28  1  0  0  0  0
 13 14  1  0  0  0  0
 13 29  1  0  0  0  0
 13 30  1  0  0  0  0
 14 18  1  0  0  0  0
 14 15  1  0  0  0  0
 14 31  1  0  0  0  0
 15 16  1  0  0  0  0
 15 32  1  0  0  0  0
 15 33  1  0  0  0  0
 16 17  1  0  0  0  0
 16 34  1  0  0  0  0
 16 35  1  0  0  0  0
 17 18  1  0  0  0  0
 17 36  1  0  0  0  0
 18 37  1  0  0  0  0
 18 38  1  0  0  0  0
M  END
> <s_m_source_file>
AV-unprocessed.smi

> <i_m_source_file_index>
3058

> <i_lp_mmshare_version>
43012

> <i_f3d_flags>
0

> <s_epik_input>
W0NIMl0xW0NIMl1bQ0BIXShbQ0gyXTIpW0NAQEhdKFtDSDJdW0NAQEhdMTIpQyg9TylbTkhdW0NIMl1bQ0gyXWMzW2NIXVtjSF1bY0hdbltjSF0z

> <s_epik_cmdline>
J2VwaWtfcHl0aG9uJywgJy1waCcsICc3LjAnLCAnLXRuJywgJzgnLCAnLW1hJywgJzIwMCcsICctbWV0YWxfYmluZGluZycsICctaW1hZScsICc8aW5maWxlLm1hZT4nLCAnLW9tYWUnLCAnPG91dGZpbGUubWFlPic=

> <r_epik_Ionization_Penalty>
0.0135821

> <r_epik_Ionization_Penalty_Charging>
0

> <r_epik_Ionization_Penalty_Neutral>
0.0135821

> <r_epik_State_Penalty>
0.0105782

> <r_epik_Charging_Adjusted_Penalty>
0.0105782

> <i_epik_Tot_Q>
0

> <i_epik_Tot_abs_Q>
0

> <r_epik_Metal_State_Penalty>
0.0103407

> <b_epik_Metal_Only>
0

> <s_lp_Force_Field>
OPLS_2005

> <r_lp_Energy>
46.4092

> <b_lp_Chiralities_Consistent>
1

> <s_lp_Variant>
AV-unprocessed.smi:3058-2

> <Gold.Version>
5.8.1

> <Gold.Id.Protein>
6NUR|6NUR_protein|mol2

> <Gold.PLP.Fitness>
51.5131

> <Gold.PLP.PLP>
-45.9671

> <Gold.PLP.part.hbond>
-2.2284

> <Gold.PLP.part.metal>
0.0000

> <Gold.PLP.part.buried>
-4.8104

> <Gold.PLP.part.nonpolar>
-39.2263

> <Gold.PLP.part.repulsive>
0.0313

> <Gold.PLP.ligand.clash>
0.0000

> <Gold.PLP.ligand.torsion>
0.2340

> <Gold.PLP.Chemscore.Hbond>
2.0000

> <Gold.PLP.Chemscore.CHOScore>
0.0000

> <Gold.PLP.Chemscore.Metal>
0.0000

> <Gold.Chemscore.Hbonds>
donor molecule, donor type, donor heavy atom, donor atom, acceptor molecule, acceptor atom, score
      L1  H     3    19       P1  8028  1.00
      P1  H  7997  8010       L1    10  1.00

> <Gold.PLP.Chemscore.Internal.Correction>
0.0141

> <Gold.Rescore>
     Score         DG    S(hbond)    S(metal)    S(lipo)     H(rot)  DE(clash)    DE(int)     intcor
     22.23     -23.78       1.95        0.00     130.66       1.37       0.27       1.27       ----

> <Gold.Chemscore.Fitness>
22.2297

> <Gold.Chemscore.DG>
-23.7775

> <Gold.Chemscore.ZeroCoef>
-5.4800

> <Gold.Chemscore.Hbond>
1.9477

> <Gold.Chemscore.Metal>
0.0000

> <Gold.Chemscore.Lipo>
130.6605

> <Gold.Chemscore.Internal_Hbond>
0.0000

> <Gold.Chemscore.DEClash>
0.2730

> <Gold.Chemscore.DEInternal>
1.2748

> <Gold.Chemscore.Rot>
1.3653

> <Gold.Chemscore.Internal.Correction>
   9.000000E+99

> <Gold.Chemscore.Hbonds>
donor molecule, donor type, donor heavy atom, donor atom, acceptor molecule, acceptor atom, score
      L1  H     3    19       P1  8028  1.00
      P1  H  7997  8010       L1    10  0.74

> <Gold.Chemscore.Hbond.Weighted>
-6.5054

> <Gold.Chemscore.Metal.Weighted>
-0.0000

> <Gold.Chemscore.Lipo.Weighted>
-15.2873

> <Gold.Chemscore.Internal_Hbond.Weighted>
0.0000

> <Gold.Chemscore.DEClash.Weighted>
0.2730

> <Gold.Chemscore.DEInternal.Weighted>
1.2748

> <Gold.Chemscore.Rot.Weighted>
3.4951

> <Gold.Chemscore.Internal.Correction.Weighted>
   9.000000E+99

> <Gold.Protein.RotatedTorsions>
[ 6907 6896 6895 6894 ] final   15.76 input  -60.11 | X-H torsion
[ 7974 7965 7964 7962 ] final  133.51 input  175.53 | X-H torsion
[ 8008 7997 7996 7995 ] final   73.03 input   59.86 | X-H torsion
[ 10167 10162 10161 10158 ] final    1.13 input  -65.29 | X-H torsion
[ 10718 10713 10712 10709 ] final -164.04 input   66.30 | X-H torsion
[ 10763 10752 10751 10750 ] final  146.73 input  -60.55 | X-H torsion
[ 11005 11000 10999 10996 ] final -102.88 input  -57.11 | X-H torsion

> <Gold.Protein.ActiveResidues>
 VAL166  LYS551  ARG553  GLY616  TRP617  ASP618  TYR619  PRO620  LYS621  CYS622 
 ASP623  PHE694  ASN695  SER759  ASP760  ASP761  ALA762  ILE779  LEU786  VAL792 
 PHE793  MET794  SER795  GLU796  ALA797  LYS798  CYS799  TRP800  GLU811  SER814 

> <Gold.Protein.RotatedAtoms>
  151.8231  135.0645  160.0427 H   0  0  0  0  0  0  0  0  0  0  0  0  # atno 6907 bound_to 6896
  152.2936  133.5581  159.5581 H   0  0  0  0  0  0  0  0  0  0  0  0  # atno 6908 bound_to 6896
  150.7241  134.0309  159.3775 H   0  0  0  0  0  0  0  0  0  0  0  0  # atno 6909 bound_to 6896
  144.9858  139.4457  143.5363 H   0  0  0  0  0  0  0  0  0  0  0  0  # atno 7974 bound_to 7965
  155.7777  140.3483  155.5280 H   0  0  0  0  0  0  0  0  0  0  0  0  # atno 8008 bound_to 7997
  155.8760  140.0994  157.1539 H   0  0  0  0  0  0  0  0  0  0  0  0  # atno 8009 bound_to 7997
  154.4021  140.1331  156.4124 H   0  0  0  0  0  0  0  0  0  0  0  0  # atno 8010 bound_to 7997
  140.6697  143.7083  150.7898 H   0  0  0  0  0  0  0  0  0  0  0  0  # atno 10167 bound_to 10162
  156.6333  130.8939  151.2982 H   0  0  0  0  0  0  0  0  0  0  0  0  # atno 10718 bound_to 10713
  154.0267  135.2901  155.3374 H   0  0  0  0  0  0  0  0  0  0  0  0  # atno 10763 bound_to 10752
  154.7013  135.5187  153.8534 H   0  0  0  0  0  0  0  0  0  0  0  0  # atno 10764 bound_to 10752
  153.0658  135.6630  154.0484 H   0  0  0  0  0  0  0  0  0  0  0  0  # atno 10765 bound_to 10752
  141.1170  133.8595  157.1416 H   0  0  0  0  0  0  0  0  0  0  0  0  # atno 11005 bound_to 11000
  146.3419  139.9159  142.8773 LP  0  0  0  0  0  0  0  0  0  0  0  0  # atno 17320 bound_to 7965
  145.2355  140.9989  143.3966 LP  0  0  0  0  0  0  0  0  0  0  0  0  # atno 17321 bound_to 7965
  140.0766  143.5009  152.2552 LP  0  0  0  0  0  0  0  0  0  0  0  0  # atno 17342 bound_to 10162
  139.5960  144.7567  151.3285 LP  0  0  0  0  0  0  0  0  0  0  0  0  # atno 17343 bound_to 10162
  157.7193  130.9538  150.1376 LP  0  0  0  0  0  0  0  0  0  0  0  0  # atno 17370 bound_to 10713
  156.2217  130.3674  149.8548 LP  0  0  0  0  0  0  0  0  0  0  0  0  # atno 17371 bound_to 10713
  140.0099  134.9992  157.0373 LP  0  0  0  0  0  0  0  0  0  0  0  0  # atno 17394 bound_to 11000
  140.4617  134.1477  155.7192 LP  0  0  0  0  0  0  0  0  0  0  0  0  # atno 17395 bound_to 11000

$$$$
