AV-unprocessed.smi:740|AV-procd|sdf|3546|dock2
  -GOLD-   22720 0543D 1   1.00000     0.00000
 Structure written by MMmdl.
 44 46  0  0  0  0  0  0  0  0  1 V2000
  152.8120  142.9716  161.4386 C   0  0  0  0  0  0  0  0  0  0  0  0
  152.2666  142.5574  160.0833 C   0  0  0  0  0  0  0  0  0  0  0  0
  152.8526  141.4599  159.4134 C   0  0  0  0  0  0  0  0  0  0  0  0
  152.3785  141.0452  158.1499 C   0  0  0  0  0  0  0  0  0  0  0  0
  152.7989  140.0142  157.3272 N   0  0  0  0  0  0  0  0  0  0  0  0
  151.9725  140.1431  156.2934 C   0  0  0  0  0  0  0  0  0  0  0  0
  151.0644  141.1359  156.3495 N   0  0  0  0  0  0  0  0  0  0  0  0
  150.0740  141.4671  155.3410 C   0  0  0  0  0  0  0  0  0  0  0  0
  149.3959  140.2152  154.7519 C   0  0  2  0  0  0  0  0  0  0  0  0
  150.1276  139.7975  153.6152 O   0  0  0  0  0  0  0  0  0  0  0  0
  147.9403  140.5011  154.3283 C   0  0  0  0  0  0  0  0  0  0  0  0
  147.1813  141.1717  155.3904 N   0  0  0  0  0  0  0  0  0  0  0  0
  146.3268  142.1821  155.1789 C   0  0  0  0  0  0  0  0  0  0  0  0
  146.0466  142.6830  154.0903 O   0  0  0  0  0  0  0  0  0  0  0  0
  145.7220  142.6694  156.4880 C   0  0  0  0  0  0  0  0  0  0  0  0
  146.3706  141.7554  157.5384 C   0  0  1  0  0  0  0  0  0  0  0  0
  145.3580  140.9389  158.3583 C   0  0  0  0  0  0  0  0  0  0  0  0
  147.2710  140.8585  156.6908 C   0  0  0  0  0  0  0  0  0  0  0  0
  147.9753  139.9737  157.1774 O   0  0  0  0  0  0  0  0  0  0  0  0
  151.2931  141.7644  157.5691 C   0  0  0  0  0  0  0  0  0  0  0  0
  150.7002  142.8569  158.2267 C   0  0  0  0  0  0  0  0  0  0  0  0
  151.1863  143.2579  159.4889 C   0  0  0  0  0  0  0  0  0  0  0  0
  150.5410  144.4400  160.1900 C   0  0  0  0  0  0  0  0  0  0  0  0
  153.6137  142.3085  161.7650 H   0  0  0  0  0  0  0  0  0  0  0  0
  152.0263  142.9419  162.1938 H   0  0  0  0  0  0  0  0  0  0  0  0
  153.2125  143.9846  161.3943 H   0  0  0  0  0  0  0  0  0  0  0  0
  153.6760  140.9262  159.8648 H   0  0  0  0  0  0  0  0  0  0  0  0
  152.0315  139.4795  155.4430 H   0  0  0  0  0  0  0  0  0  0  0  0
  149.3282  142.1161  155.8023 H   0  0  0  0  0  0  0  0  0  0  0  0
  150.5525  142.0536  154.5556 H   0  0  0  0  0  0  0  0  0  0  0  0
  149.4225  139.4180  155.4961 H   0  0  0  0  0  0  0  0  0  0  0  0
  149.6134  139.9769  152.8429 H   0  0  0  0  0  0  0  0  0  0  0  0
  147.9383  141.1517  153.4521 H   0  0  0  0  0  0  0  0  0  0  0  0
  147.4458  139.5843  154.0019 H   0  0  0  0  0  0  0  0  0  0  0  0
  145.9719  143.7177  156.6547 H   0  0  0  0  0  0  0  0  0  0  0  0
  144.6362  142.5712  156.4601 H   0  0  0  0  0  0  0  0  0  0  0  0
  146.9976  142.3445  158.2088 H   0  0  0  0  0  0  0  0  0  0  0  0
  145.8612  140.3080  159.0920 H   0  0  0  0  0  0  0  0  0  0  0  0
  144.7525  140.2930  157.7212 H   0  0  0  0  0  0  0  0  0  0  0  0
  144.6799  141.5967  158.9024 H   0  0  0  0  0  0  0  0  0  0  0  0
  149.8805  143.3836  157.7612 H   0  0  0  0  0  0  0  0  0  0  0  0
  149.7370  144.8683  159.5905 H   0  0  0  0  0  0  0  0  0  0  0  0
  151.2760  145.2239  160.3729 H   0  0  0  0  0  0  0  0  0  0  0  0
  150.1174  144.1316  161.1460 H   0  0  0  0  0  0  0  0  0  0  0  0
  1  2  1  0  0  0  0
  1 24  1  0  0  0  0
  1 25  1  0  0  0  0
  1 26  1  0  0  0  0
  2 22  1  0  0  0  0
  2  3  2  0  0  0  0
  3  4  1  0  0  0  0
  3 27  1  0  0  0  0
  4 20  2  0  0  0  0
  4  5  1  0  0  0  0
  5  6  2  0  0  0  0
  6  7  1  0  0  0  0
  6 28  1  0  0  0  0
  7  8  1  0  0  0  0
  7 20  1  0  0  0  0
  8  9  1  0  0  0  0
  8 29  1  0  0  0  0
  8 30  1  0  0  0  0
  9 10  1  0  0  0  0
  9 11  1  0  0  0  0
  9 31  1  0  0  0  0
 10 32  1  0  0  0  0
 11 12  1  0  0  0  0
 11 33  1  0  0  0  0
 11 34  1  0  0  0  0
 12 18  1  0  0  0  0
 12 13  1  0  0  0  0
 13 14  2  0  0  0  0
 13 15  1  0  0  0  0
 15 16  1  0  0  0  0
 15 35  1  0  0  0  0
 15 36  1  0  0  0  0
 16 17  1  0  0  0  0
 16 18  1  0  0  0  0
 16 37  1  0  0  0  0
 17 38  1  0  0  0  0
 17 39  1  0  0  0  0
 17 40  1  0  0  0  0
 18 19  2  0  0  0  0
 20 21  1  0  0  0  0
 21 22  2  0  0  0  0
 21 41  1  0  0  0  0
 22 23  1  0  0  0  0
 23 42  1  0  0  0  0
 23 43  1  0  0  0  0
 23 44  1  0  0  0  0
M  END
> <s_m_source_file>
AV-unprocessed.smi

> <i_m_source_file_index>
740

> <i_lp_mmshare_version>
43012

> <i_f3d_flags>
0

> <s_epik_input>
W0NIM11jKFtjSF0xKWMoW0NIM10pW2NIXWMoYzEyKW4oW2NIXW4yKVtDSDJdW0NASF0oW09IXSlbQ0gyXU4zQyg9TylbQ0gyXVtDQEBIXShbQ0gzXSlDMz1P

> <s_epik_cmdline>
J2VwaWtfcHl0aG9uJywgJy1waCcsICc3LjAnLCAnLXRuJywgJzgnLCAnLW1hJywgJzIwMCcsICctbWV0YWxfYmluZGluZycsICctaW1hZScsICc8aW5maWxlLm1hZT4nLCAnLW9tYWUnLCAnPG91dGZpbGUubWFlPic=

> <r_lp_tautomer_probability>
1

> <r_epik_Ionization_Penalty>
0.104021

> <r_epik_Ionization_Penalty_Charging>
0

> <r_epik_Ionization_Penalty_Neutral>
0.104021

> <r_epik_State_Penalty>
0.0939354

> <r_epik_Charging_Adjusted_Penalty>
0.0939354

> <i_epik_Tot_Q>
0

> <i_epik_Tot_abs_Q>
0

> <r_epik_Metal_State_Penalty>
0.000101783

> <b_epik_Metal_Only>
0

> <s_lp_Force_Field>
OPLS_2005

> <r_lp_Energy>
16.4677

> <b_lp_Chiralities_Consistent>
1

> <s_lp_Variant>
AV-unprocessed.smi:740-1

> <Gold.Version>
5.8.1

> <Gold.Id.Protein>
6NUR|6NUR_protein|mol2

> <Gold.PLP.Fitness>
49.7270

> <Gold.PLP.PLP>
-42.9619

> <Gold.PLP.part.hbond>
-3.0000

> <Gold.PLP.part.metal>
0.0000

> <Gold.PLP.part.buried>
-6.8599

> <Gold.PLP.part.nonpolar>
-32.9975

> <Gold.PLP.part.repulsive>
0.2037

> <Gold.PLP.ligand.clash>
0.0000

> <Gold.PLP.ligand.torsion>
0.9473

> <Gold.PLP.Chemscore.Hbond>
2.8720

> <Gold.PLP.Chemscore.CHOScore>
0.0000

> <Gold.PLP.Chemscore.Metal>
0.0000

> <Gold.Chemscore.Hbonds>
donor molecule, donor type, donor heavy atom, donor atom, acceptor molecule, acceptor atom, score
      L1  H    10    32       P1  7957  0.90
      P1  H  7989  7998       L1    10  0.80
      P1  H  7997  8010       L1     5  1.00

> <Gold.PLP.Chemscore.Internal.Correction>
0.0437

> <Gold.Rescore>
     Score         DG    S(hbond)    S(metal)    S(lipo)     H(rot)  DE(clash)    DE(int)     intcor
     15.13     -17.06       1.86        0.00      96.56       2.31       0.08       1.85       ----

> <Gold.Chemscore.Fitness>
15.1301

> <Gold.Chemscore.DG>
-17.0610

> <Gold.Chemscore.ZeroCoef>
-5.4800

> <Gold.Chemscore.Hbond>
1.8591

> <Gold.Chemscore.Metal>
0.0000

> <Gold.Chemscore.Lipo>
96.5583

> <Gold.Chemscore.Internal_Hbond>
0.0000

> <Gold.Chemscore.DEClash>
0.0787

> <Gold.Chemscore.DEInternal>
1.8522

> <Gold.Chemscore.Rot>
2.3147

> <Gold.Chemscore.Internal.Correction>
   9.000000E+99

> <Gold.Chemscore.Hbonds>
donor molecule, donor type, donor heavy atom, donor atom, acceptor molecule, acceptor atom, score
      L1  H    10    32       P1  7957  0.88
      P1  H  7989  7998       L1    10  0.26
      P1  H  7997  8010       L1     5  0.52

> <Gold.Chemscore.Hbond.Weighted>
-6.2092

> <Gold.Chemscore.Metal.Weighted>
-0.0000

> <Gold.Chemscore.Lipo.Weighted>
-11.2973

> <Gold.Chemscore.Internal_Hbond.Weighted>
0.0000

> <Gold.Chemscore.DEClash.Weighted>
0.0787

> <Gold.Chemscore.DEInternal.Weighted>
1.8522

> <Gold.Chemscore.Rot.Weighted>
5.9256

> <Gold.Chemscore.Internal.Correction.Weighted>
   9.000000E+99

> <Gold.Protein.RotatedTorsions>
[ 6907 6896 6895 6894 ] final  139.69 input  -60.11 | X-H torsion
[ 7974 7965 7964 7962 ] final  174.07 input  175.53 | X-H torsion
[ 8008 7997 7996 7995 ] final   57.87 input   59.86 | X-H torsion
[ 10167 10162 10161 10158 ] final  -81.38 input  -65.29 | X-H torsion
[ 10718 10713 10712 10709 ] final   52.85 input   66.30 | X-H torsion
[ 10763 10752 10751 10750 ] final  104.86 input  -60.55 | X-H torsion
[ 11005 11000 10999 10996 ] final  -34.75 input  -57.11 | X-H torsion

> <Gold.Protein.ActiveResidues>
 VAL166  LYS551  ARG553  GLY616  TRP617  ASP618  TYR619  PRO620  LYS621  CYS622 
 ASP623  PHE694  ASN695  SER759  ASP760  ASP761  ALA762  ILE779  LEU786  VAL792 
 PHE793  MET794  SER795  GLU796  ALA797  LYS798  CYS799  TRP800  GLU811  SER814 

> <Gold.Protein.RotatedAtoms>
  152.2519  133.5222  159.5330 H   0  0  0  0  0  0  0  0  0  0  0  0  # atno 6907 bound_to 6896
  150.7096  134.0948  159.3953 H   0  0  0  0  0  0  0  0  0  0  0  0  # atno 6908 bound_to 6896
  151.8868  135.0432  160.0545 H   0  0  0  0  0  0  0  0  0  0  0  0  # atno 6909 bound_to 6896
  144.7229  139.9742  143.6437 H   0  0  0  0  0  0  0  0  0  0  0  0  # atno 7974 bound_to 7965
  155.5408  140.3484  155.4446 H   0  0  0  0  0  0  0  0  0  0  0  0  # atno 8008 bound_to 7997
  156.0653  140.1350  156.9920 H   0  0  0  0  0  0  0  0  0  0  0  0  # atno 8009 bound_to 7997
  154.4500  140.0977  156.6562 H   0  0  0  0  0  0  0  0  0  0  0  0  # atno 8010 bound_to 7997
  140.4417  143.2512  151.8616 H   0  0  0  0  0  0  0  0  0  0  0  0  # atno 10167 bound_to 10162
  157.5113  130.8503  149.8439 H   0  0  0  0  0  0  0  0  0  0  0  0  # atno 10718 bound_to 10713
  153.3716  135.3929  155.1792 H   0  0  0  0  0  0  0  0  0  0  0  0  # atno 10763 bound_to 10752
  154.8695  135.3704  154.4971 H   0  0  0  0  0  0  0  0  0  0  0  0  # atno 10764 bound_to 10752
  153.5439  135.7084  153.5684 H   0  0  0  0  0  0  0  0  0  0  0  0  # atno 10765 bound_to 10752
  140.9741  133.7092  156.1574 H   0  0  0  0  0  0  0  0  0  0  0  0  # atno 11005 bound_to 11000
  146.0539  139.3537  143.0622 LP  0  0  0  0  0  0  0  0  0  0  0  0  # atno 17320 bound_to 7965
  145.8180  140.9693  143.0914 LP  0  0  0  0  0  0  0  0  0  0  0  0  # atno 17321 bound_to 7965
  139.4790  144.5221  151.8787 LP  0  0  0  0  0  0  0  0  0  0  0  0  # atno 17342 bound_to 10162
  140.4310  144.2115  150.5888 LP  0  0  0  0  0  0  0  0  0  0  0  0  # atno 17343 bound_to 10162
  156.0291  130.3770  150.1738 LP  0  0  0  0  0  0  0  0  0  0  0  0  # atno 17370 bound_to 10713
  156.9928  130.9898  151.3410 LP  0  0  0  0  0  0  0  0  0  0  0  0  # atno 17371 bound_to 10713
  140.7284  134.4281  157.5568 LP  0  0  0  0  0  0  0  0  0  0  0  0  # atno 17394 bound_to 11000
  139.8924  134.8756  156.2274 LP  0  0  0  0  0  0  0  0  0  0  0  0  # atno 17395 bound_to 11000

$$$$
