AV-unprocessed.smi:970|AV-procd|sdf|4291|dock6
  -GOLD-   22720 2193D 1   1.00000     0.00000
 Structure written by MMmdl.
 31 31  0  0  0  0  0  0  0  0  1 V2000
  150.2411  136.5827  155.0002 C   0  0  0  0  0  0  0  0  0  0  0  0
  149.5119  135.4642  154.4227 N   0  0  0  0  0  0  0  0  0  0  0  0
  149.4389  134.2455  154.9765 C   0  0  0  0  0  0  0  0  0  0  0  0
  149.9851  133.9574  156.0431 O   0  0  0  0  0  0  0  0  0  0  0  0
  148.6054  133.2013  154.2159 C   0  0  2  0  0  0  0  0  0  0  0  0
  149.5553  132.0886  153.7428 C   0  0  0  0  0  0  0  0  0  0  0  0
  147.9912  133.7998  153.0323 N   0  0  0  0  0  0  0  0  0  0  0  0
  146.9292  133.3072  152.3727 C   0  0  0  0  0  0  0  0  0  0  0  0
  146.3543  132.2717  152.7117 O   0  0  0  0  0  0  0  0  0  0  0  0
  146.4432  134.1189  151.1584 C   0  0  2  0  0  0  0  0  0  0  0  0
  145.8397  135.4845  151.5447 C   0  0  0  0  0  0  0  0  0  0  0  0
  145.5203  133.3354  150.3450 N   0  0  0  0  0  0  0  0  0  0  0  0
  145.6765  132.1332  149.7864 C   0  0  0  0  0  0  0  0  0  0  0  0
  144.6063  131.6984  149.1362 N   0  0  0  0  0  0  0  0  0  0  0  0
  143.7642  132.7518  149.3531 C   0  0  0  0  0  0  0  0  0  0  0  0
  144.2592  133.7563  150.0759 N   0  0  0  0  0  0  0  0  0  0  0  0
  150.1796  137.4478  154.3402 H   0  0  0  0  0  0  0  0  0  0  0  0
  151.2941  136.3326  155.1371 H   0  0  0  0  0  0  0  0  0  0  0  0
  149.8203  136.8606  155.9674 H   0  0  0  0  0  0  0  0  0  0  0  0
  149.0351  135.6249  153.5470 H   0  0  0  0  0  0  0  0  0  0  0  0
  147.8380  132.7771  154.8665 H   0  0  0  0  0  0  0  0  0  0  0  0
  150.0389  131.5957  154.5872 H   0  0  0  0  0  0  0  0  0  0  0  0
  150.3389  132.4721  153.0873 H   0  0  0  0  0  0  0  0  0  0  0  0
  149.0110  131.3222  153.1901 H   0  0  0  0  0  0  0  0  0  0  0  0
  148.3999  134.6596  152.6965 H   0  0  0  0  0  0  0  0  0  0  0  0
  147.3239  134.3157  150.5448 H   0  0  0  0  0  0  0  0  0  0  0  0
  146.5627  136.0979  152.0835 H   0  0  0  0  0  0  0  0  0  0  0  0
  144.9588  135.3763  152.1786 H   0  0  0  0  0  0  0  0  0  0  0  0
  145.5404  136.0408  150.6561 H   0  0  0  0  0  0  0  0  0  0  0  0
  146.5905  131.5624  149.8609 H   0  0  0  0  0  0  0  0  0  0  0  0
  142.7542  132.7770  148.9712 H   0  0  0  0  0  0  0  0  0  0  0  0
  1  2  1  0  0  0  0
  1 17  1  0  0  0  0
  1 18  1  0  0  0  0
  1 19  1  0  0  0  0
  2  3  1  0  0  0  0
  2 20  1  0  0  0  0
  3  4  2  0  0  0  0
  3  5  1  0  0  0  0
  5  6  1  0  0  0  0
  5  7  1  0  0  0  0
  5 21  1  0  0  0  0
  6 22  1  0  0  0  0
  6 23  1  0  0  0  0
  6 24  1  0  0  0  0
  7  8  1  0  0  0  0
  7 25  1  0  0  0  0
  8  9  2  0  0  0  0
  8 10  1  0  0  0  0
 10 11  1  0  0  0  0
 10 12  1  0  0  0  0
 10 26  1  0  0  0  0
 11 27  1  0  0  0  0
 11 28  1  0  0  0  0
 11 29  1  0  0  0  0
 12 16  1  0  0  0  0
 12 13  1  0  0  0  0
 13 14  2  0  0  0  0
 13 30  1  0  0  0  0
 14 15  1  0  0  0  0
 15 16  2  0  0  0  0
 15 31  1  0  0  0  0
M  END
> <s_m_source_file>
AV-unprocessed.smi

> <i_m_source_file_index>
970

> <i_lp_mmshare_version>
43012

> <i_f3d_flags>
0

> <s_epik_input>
W0NIM11bTkhdQyg9TylbQ0BIXShbQ0gzXSlbTkhdQyg9TylbQ0BIXShbQ0gzXSluMVtjSF1uW2NIXW4x

> <s_epik_cmdline>
J2VwaWtfcHl0aG9uJywgJy1waCcsICc3LjAnLCAnLXRuJywgJzgnLCAnLW1hJywgJzIwMCcsICctbWV0YWxfYmluZGluZycsICctaW1hZScsICc8aW5maWxlLm1hZT4nLCAnLW9tYWUnLCAnPG91dGZpbGUubWFlPic=

> <r_lp_tautomer_probability>
1

> <r_epik_Ionization_Penalty>
1.07271e-05

> <r_epik_Ionization_Penalty_Charging>
0

> <r_epik_Ionization_Penalty_Neutral>
1.07271e-05

> <r_epik_State_Penalty>
-0

> <r_epik_Charging_Adjusted_Penalty>
0

> <i_epik_Tot_Q>
0

> <i_epik_Tot_abs_Q>
0

> <r_epik_Metal_State_Penalty>
-0

> <b_epik_Metal_Only>
0

> <s_lp_Force_Field>
OPLS_2005

> <r_lp_Energy>
8.61602

> <b_lp_Chiralities_Consistent>
1

> <s_lp_Variant>
AV-unprocessed.smi:970-1

> <Gold.Version>
5.8.1

> <Gold.Id.Protein>
6NUR|6NUR_protein|mol2

> <Gold.PLP.Fitness>
37.7129

> <Gold.PLP.PLP>
-25.9207

> <Gold.PLP.part.hbond>
-3.0000

> <Gold.PLP.part.metal>
0.0000

> <Gold.PLP.part.buried>
-2.0592

> <Gold.PLP.part.nonpolar>
-20.3098

> <Gold.PLP.part.repulsive>
0.5153

> <Gold.PLP.ligand.clash>
0.0000

> <Gold.PLP.ligand.torsion>
0.6060

> <Gold.PLP.Chemscore.Hbond>
2.3445

> <Gold.PLP.Chemscore.CHOScore>
1.9517

> <Gold.PLP.Chemscore.Metal>
0.0000

> <Gold.Chemscore.Hbonds>
donor molecule, donor type, donor heavy atom, donor atom, acceptor molecule, acceptor atom, score
      L1  H     2    20       P1  7948  1.00
      L1  H     7    25       P1  7948  1.00
      P1  H 10785 10796       L1    14  0.29
      L1  C    13    30       P1 10747  1.00
      L1  C    15    31       P1 10186  0.95

> <Gold.PLP.Chemscore.Internal.Correction>
0.1154

> <Gold.Rescore>
     Score         DG    S(hbond)    S(metal)    S(lipo)     H(rot)  DE(clash)    DE(int)     intcor
      6.60      -8.78       2.07        0.00      25.56       2.59       0.33       1.85       ----

> <Gold.Chemscore.Fitness>
6.5967

> <Gold.Chemscore.DG>
-8.7797

> <Gold.Chemscore.ZeroCoef>
-5.4800

> <Gold.Chemscore.Hbond>
2.0740

> <Gold.Chemscore.Metal>
0.0000

> <Gold.Chemscore.Lipo>
25.5623

> <Gold.Chemscore.Internal_Hbond>
0.0000

> <Gold.Chemscore.DEClash>
0.3350

> <Gold.Chemscore.DEInternal>
1.8480

> <Gold.Chemscore.Rot>
2.5852

> <Gold.Chemscore.Internal.Correction>
   9.000000E+99

> <Gold.Chemscore.Hbonds>
donor molecule, donor type, donor heavy atom, donor atom, acceptor molecule, acceptor atom, score
      L1  H     2    20       P1  7948  0.75
      L1  H     7    25       P1  7948  0.30
      P1  H 10785 10796       L1    14  0.10

> <Gold.Chemscore.Hbond.Weighted>
-6.9271

> <Gold.Chemscore.Metal.Weighted>
-0.0000

> <Gold.Chemscore.Lipo.Weighted>
-2.9908

> <Gold.Chemscore.Internal_Hbond.Weighted>
0.0000

> <Gold.Chemscore.DEClash.Weighted>
0.3350

> <Gold.Chemscore.DEInternal.Weighted>
1.8480

> <Gold.Chemscore.Rot.Weighted>
6.6182

> <Gold.Chemscore.Internal.Correction.Weighted>
   9.000000E+99

> <Gold.Protein.RotatedTorsions>
[ 6907 6896 6895 6894 ] final -115.77 input  -60.11 | X-H torsion
[ 7974 7965 7964 7962 ] final   77.12 input  175.53 | X-H torsion
[ 8008 7997 7996 7995 ] final  161.92 input   59.86 | X-H torsion
[ 10167 10162 10161 10158 ] final  -27.52 input  -65.29 | X-H torsion
[ 10718 10713 10712 10709 ] final   37.66 input   66.30 | X-H torsion
[ 10763 10752 10751 10750 ] final   95.13 input  -60.55 | X-H torsion
[ 11005 11000 10999 10996 ] final -142.05 input  -57.11 | X-H torsion

> <Gold.Protein.ActiveResidues>
 VAL166  LYS551  ARG553  GLY616  TRP617  ASP618  TYR619  PRO620  LYS621  CYS622 
 ASP623  PHE694  ASN695  SER759  ASP760  ASP761  ALA762  ILE779  LEU786  VAL792 
 PHE793  MET794  SER795  GLU796  ALA797  LYS798  CYS799  TRP800  GLU811  SER814 

> <Gold.Protein.RotatedAtoms>
  150.8003  133.8611  159.3231 H   0  0  0  0  0  0  0  0  0  0  0  0  # atno 6907 bound_to 6896
  151.6425  135.1009  160.0154 H   0  0  0  0  0  0  0  0  0  0  0  0  # atno 6908 bound_to 6896
  152.4090  133.6894  159.6416 H   0  0  0  0  0  0  0  0  0  0  0  0  # atno 6909 bound_to 6896
  145.6941  139.2562  143.1743 H   0  0  0  0  0  0  0  0  0  0  0  0  # atno 7974 bound_to 7965
  156.2069  140.1764  156.7781 H   0  0  0  0  0  0  0  0  0  0  0  0  # atno 8008 bound_to 7997
  154.5667  140.0690  156.8933 H   0  0  0  0  0  0  0  0  0  0  0  0  # atno 8009 bound_to 7997
  155.2747  140.3345  155.4265 H   0  0  0  0  0  0  0  0  0  0  0  0  # atno 8010 bound_to 7997
  140.7276  143.4086  151.1143 H   0  0  0  0  0  0  0  0  0  0  0  0  # atno 10167 bound_to 10162
  157.3496  130.7591  149.6969 H   0  0  0  0  0  0  0  0  0  0  0  0  # atno 10718 bound_to 10713
  153.2496  135.4265  155.0784 H   0  0  0  0  0  0  0  0  0  0  0  0  # atno 10763 bound_to 10752
  154.8376  135.3422  154.6531 H   0  0  0  0  0  0  0  0  0  0  0  0  # atno 10764 bound_to 10752
  153.6953  135.7031  153.5135 H   0  0  0  0  0  0  0  0  0  0  0  0  # atno 10765 bound_to 10752
  140.8264  134.2570  157.4877 H   0  0  0  0  0  0  0  0  0  0  0  0  # atno 11005 bound_to 11000
  146.0855  140.7715  142.9620 LP  0  0  0  0  0  0  0  0  0  0  0  0  # atno 17320 bound_to 7965
  144.6988  140.3556  143.7173 LP  0  0  0  0  0  0  0  0  0  0  0  0  # atno 17321 bound_to 7965
  139.7717  143.8485  152.3121 LP  0  0  0  0  0  0  0  0  0  0  0  0  # atno 17342 bound_to 10162
  139.8406  144.7212  150.9336 LP  0  0  0  0  0  0  0  0  0  0  0  0  # atno 17343 bound_to 10162
  155.9719  130.4144  150.4132 LP  0  0  0  0  0  0  0  0  0  0  0  0  # atno 17370 bound_to 10713
  157.2193  131.0478  151.2555 LP  0  0  0  0  0  0  0  0  0  0  0  0  # atno 17371 bound_to 10713
  139.8706  134.9562  156.4232 LP  0  0  0  0  0  0  0  0  0  0  0  0  # atno 17394 bound_to 11000
  140.9045  133.7756  155.9719 LP  0  0  0  0  0  0  0  0  0  0  0  0  # atno 17395 bound_to 11000

$$$$
