AV-unprocessed.smi:240|AV-procd|sdf|1828|dock9
  -GOLD-   2262020433D 1   1.00000     0.00000
 Structure written by MMmdl.
 55 59  0  0  0  0  0  0  0  0  1 V2000
  145.8357  140.5571  156.5589 O   0  0  0  0  0  0  0  0  0  0  0  0
  146.4572  141.5199  155.7332 C   0  0  2  0  0  0  0  0  0  0  0  0
  145.4455  142.5614  155.2587 C   0  0  0  0  0  0  0  0  0  0  0  0
  146.1157  143.1830  154.0358 C   0  0  0  0  0  0  0  0  0  0  0  0
  146.9081  142.0437  153.3800 C   0  0  0  0  0  0  0  0  0  0  0  0
  147.0169  140.9150  154.4285 C   0  0  1  0  0  0  0  0  0  0  0  0
  148.4255  140.2428  154.5086 C   0  0  1  0  0  0  0  0  0  0  0  0
  149.5555  141.2372  154.8857 C   0  0  0  0  0  0  0  0  0  0  0  0
  150.8109  140.5706  154.9092 O   0  0  0  0  0  0  0  0  0  0  0  0
  150.8423  139.5568  155.9039 C   0  0  0  0  0  0  0  0  0  0  0  0
  149.7937  138.4918  155.5597 C   0  0  0  0  0  0  0  0  0  0  0  0
  148.4690  139.0907  155.4239 N   0  0  0  0  0  0  0  0  0  0  0  0
  147.5493  138.1126  155.2453 C   0  0  0  0  0  0  0  0  0  0  0  0
  147.2162  137.2853  156.2720 N   0  0  0  0  0  0  0  0  0  0  0  0
  146.3065  136.3241  156.0872 C   0  0  0  0  0  0  0  0  0  0  0  0
  145.6188  136.0267  154.9822 N   0  0  0  0  0  0  0  0  0  0  0  0
  145.9384  136.8679  153.9568 C   0  0  0  0  0  0  0  0  0  0  0  0
  146.8813  137.9318  154.0056 C   0  0  0  0  0  0  0  0  0  0  0  0
  146.9439  138.5718  152.7750 N   0  0  0  0  0  0  0  0  0  0  0  0
  146.0920  137.9160  152.0350 C   0  0  0  0  0  0  0  0  0  0  0  0
  145.4380  136.8808  152.6662 N   0  0  0  0  0  0  0  0  0  0  0  0
  144.4494  135.9874  152.0814 C   0  0  0  0  0  0  0  0  0  0  0  0
  145.0132  135.0905  150.9546 C   0  0  1  0  0  0  0  0  0  0  0  0
  145.2759  135.8949  149.8175 O   0  0  0  0  0  0  0  0  0  0  0  0
  146.3034  134.3830  151.3483 C   0  0  0  0  0  0  0  0  0  0  0  0
  146.2661  133.1209  150.4973 C   0  0  0  0  0  0  0  0  0  0  0  0
  144.8991  132.7484  150.5402 O   0  0  0  0  0  0  0  0  0  0  0  0
  144.0958  133.9252  150.5286 C   0  0  0  0  0  0  0  0  0  0  0  0
  146.5072  140.0714  157.0129 H   0  0  0  0  0  0  0  0  0  0  0  0
  147.2317  142.0278  156.3051 H   0  0  0  0  0  0  0  0  0  0  0  0
  144.5153  142.0777  154.9562 H   0  0  0  0  0  0  0  0  0  0  0  0
  145.2055  143.2974  156.0266 H   0  0  0  0  0  0  0  0  0  0  0  0
  145.3973  143.6393  153.3543 H   0  0  0  0  0  0  0  0  0  0  0  0
  146.8048  143.9643  154.3592 H   0  0  0  0  0  0  0  0  0  0  0  0
  146.3824  141.6759  152.4979 H   0  0  0  0  0  0  0  0  0  0  0  0
  147.8745  142.4049  153.0318 H   0  0  0  0  0  0  0  0  0  0  0  0
  146.2919  140.1718  154.0962 H   0  0  0  0  0  0  0  0  0  0  0  0
  148.6597  139.8633  153.5128 H   0  0  0  0  0  0  0  0  0  0  0  0
  149.6254  142.0491  154.1638 H   0  0  0  0  0  0  0  0  0  0  0  0
  149.3886  141.6978  155.8589 H   0  0  0  0  0  0  0  0  0  0  0  0
  151.8366  139.1110  155.9272 H   0  0  0  0  0  0  0  0  0  0  0  0
  150.6597  139.9841  156.8915 H   0  0  0  0  0  0  0  0  0  0  0  0
  150.0654  137.9956  154.6265 H   0  0  0  0  0  0  0  0  0  0  0  0
  149.7830  137.7275  156.3385 H   0  0  0  0  0  0  0  0  0  0  0  0
  146.1014  135.7041  156.9473 H   0  0  0  0  0  0  0  0  0  0  0  0
  145.9143  138.1729  151.0007 H   0  0  0  0  0  0  0  0  0  0  0  0
  144.0299  135.3729  152.8791 H   0  0  0  0  0  0  0  0  0  0  0  0
  143.6267  136.5938  151.7004 H   0  0  0  0  0  0  0  0  0  0  0  0
  145.4374  135.3262  149.0802 H   0  0  0  0  0  0  0  0  0  0  0  0
  147.2010  134.9823  151.1897 H   0  0  0  0  0  0  0  0  0  0  0  0
  146.2747  134.1010  152.4017 H   0  0  0  0  0  0  0  0  0  0  0  0
  146.5568  133.3335  149.4676 H   0  0  0  0  0  0  0  0  0  0  0  0
  146.9112  132.3312  150.8827 H   0  0  0  0  0  0  0  0  0  0  0  0
  143.2709  133.7724  151.2235 H   0  0  0  0  0  0  0  0  0  0  0  0
  143.6638  134.0778  149.5382 H   0  0  0  0  0  0  0  0  0  0  0  0
  1  2  1  0  0  0  0
  1 29  1  0  0  0  0
  2  6  1  0  0  0  0
  2  3  1  0  0  0  0
  2 30  1  0  0  0  0
  3  4  1  0  0  0  0
  3 31  1  0  0  0  0
  3 32  1  0  0  0  0
  4  5  1  0  0  0  0
  4 33  1  0  0  0  0
  4 34  1  0  0  0  0
  5  6  1  0  0  0  0
  5 35  1  0  0  0  0
  5 36  1  0  0  0  0
  6  7  1  0  0  0  0
  6 37  1  0  0  0  0
  7 12  1  0  0  0  0
  7  8  1  0  0  0  0
  7 38  1  0  0  0  0
  8  9  1  0  0  0  0
  8 39  1  0  0  0  0
  8 40  1  0  0  0  0
  9 10  1  0  0  0  0
 10 11  1  0  0  0  0
 10 41  1  0  0  0  0
 10 42  1  0  0  0  0
 11 12  1  0  0  0  0
 11 43  1  0  0  0  0
 11 44  1  0  0  0  0
 12 13  1  0  0  0  0
 13 18  1  0  0  0  0
 13 14  2  0  0  0  0
 14 15  1  0  0  0  0
 15 16  2  0  0  0  0
 15 45  1  0  0  0  0
 16 17  1  0  0  0  0
 17 21  1  0  0  0  0
 17 18  2  0  0  0  0
 18 19  1  0  0  0  0
 19 20  2  0  0  0  0
 20 21  1  0  0  0  0
 20 46  1  0  0  0  0
 21 22  1  0  0  0  0
 22 23  1  0  0  0  0
 22 47  1  0  0  0  0
 22 48  1  0  0  0  0
 23 28  1  0  0  0  0
 23 24  1  0  0  0  0
 23 25  1  0  0  0  0
 24 49  1  0  0  0  0
 25 26  1  0  0  0  0
 25 50  1  0  0  0  0
 25 51  1  0  0  0  0
 26 27  1  0  0  0  0
 26 52  1  0  0  0  0
 26 53  1  0  0  0  0
 27 28  1  0  0  0  0
 28 54  1  0  0  0  0
 28 55  1  0  0  0  0
M  END
> <s_m_source_file>
AV-unprocessed.smi

> <i_m_source_file_index>
240

> <i_lp_mmshare_version>
43012

> <i_f3d_flags>
0

> <s_epik_input>
W09IXVtDQEBIXTFbQ0gyXVtDSDJdW0NIMl1bQ0BIXTFbQ0BASF0yW0NIMl1PW0NIMl1bQ0gyXU4yYyhuW2NIXW4zKWMoYzM0KW5bY0hdbjRbQ0gyXVtDQEBdNShbT0hdKVtDSDJdW0NIMl1PW0NIMl01

> <s_epik_cmdline>
J2VwaWtfcHl0aG9uJywgJy1waCcsICc3LjAnLCAnLXRuJywgJzgnLCAnLW1hJywgJzIwMCcsICctbWV0YWxfYmluZGluZycsICctaW1hZScsICc8aW5maWxlLm1hZT4nLCAnLW9tYWUnLCAnPG91dGZpbGUubWFlPic=

> <r_lp_tautomer_probability>
1

> <r_epik_Ionization_Penalty>
0.000130618

> <r_epik_Ionization_Penalty_Charging>
0

> <r_epik_Ionization_Penalty_Neutral>
0.000130618

> <r_epik_State_Penalty>
-0

> <r_epik_Charging_Adjusted_Penalty>
0

> <i_epik_Tot_Q>
0

> <i_epik_Tot_abs_Q>
0

> <r_epik_Metal_State_Penalty>
-0

> <b_epik_Metal_Only>
0

> <s_lp_Force_Field>
OPLS_2005

> <r_lp_Energy>
59.9569

> <b_lp_Chiralities_Consistent>
1

> <s_lp_Variant>
AV-unprocessed.smi:240-5

> <Gold.Version>
5.8.1

> <Gold.Id.Protein>
6NUR|6NUR_protein|mol2

> <Gold.PLP.Fitness>
44.9021

> <Gold.PLP.PLP>
-36.8143

> <Gold.PLP.part.hbond>
-3.0000

> <Gold.PLP.part.metal>
0.0000

> <Gold.PLP.part.buried>
-6.1014

> <Gold.PLP.part.nonpolar>
-29.4670

> <Gold.PLP.part.repulsive>
0.5617

> <Gold.PLP.ligand.clash>
0.0000

> <Gold.PLP.ligand.torsion>
0.5573

> <Gold.PLP.Chemscore.Hbond>
2.0000

> <Gold.PLP.Chemscore.CHOScore>
1.0000

> <Gold.PLP.Chemscore.Metal>
0.0000

> <Gold.Chemscore.Hbonds>
donor molecule, donor type, donor heavy atom, donor atom, acceptor molecule, acceptor atom, score
      L1  H    24    49       P1  7921  1.00
      P1  H  7989  7998       L1     9  0.99
      L1  C    20    46       P1 10171  1.00

> <Gold.PLP.Chemscore.Internal.Correction>
0.2023

> <Gold.Rescore>
     Score         DG    S(hbond)    S(metal)    S(lipo)     H(rot)  DE(clash)    DE(int)     intcor
     11.06     -13.21       1.85        0.00      78.88       3.00       0.13       2.02       ----

> <Gold.Chemscore.Fitness>
11.0608

> <Gold.Chemscore.DG>
-13.2114

> <Gold.Chemscore.ZeroCoef>
-5.4800

> <Gold.Chemscore.Hbond>
1.8541

> <Gold.Chemscore.Metal>
0.0000

> <Gold.Chemscore.Lipo>
78.8763

> <Gold.Chemscore.Internal_Hbond>
0.0000

> <Gold.Chemscore.DEClash>
0.1260

> <Gold.Chemscore.DEInternal>
2.0247

> <Gold.Chemscore.Rot>
3.0039

> <Gold.Chemscore.Internal.Correction>
   9.000000E+99

> <Gold.Chemscore.Hbonds>
donor molecule, donor type, donor heavy atom, donor atom, acceptor molecule, acceptor atom, score
      L1  H    24    49       P1  7921  0.98
      P1  H  7989  7998       L1     9  0.66

> <Gold.Chemscore.Hbond.Weighted>
-6.1928

> <Gold.Chemscore.Metal.Weighted>
-0.0000

> <Gold.Chemscore.Lipo.Weighted>
-9.2285

> <Gold.Chemscore.Internal_Hbond.Weighted>
0.0000

> <Gold.Chemscore.DEClash.Weighted>
0.1260

> <Gold.Chemscore.DEInternal.Weighted>
2.0247

> <Gold.Chemscore.Rot.Weighted>
7.6899

> <Gold.Chemscore.Internal.Correction.Weighted>
   9.000000E+99

> <Gold.Protein.RotatedTorsions>
[ 6907 6896 6895 6894 ] final    9.40 input  -60.11 | X-H torsion
[ 7974 7965 7964 7962 ] final   56.73 input  175.53 | X-H torsion
[ 8008 7997 7996 7995 ] final   -0.65 input   59.86 | X-H torsion
[ 10167 10162 10161 10158 ] final  158.58 input  -65.29 | X-H torsion
[ 10718 10713 10712 10709 ] final  123.81 input   66.30 | X-H torsion
[ 10763 10752 10751 10750 ] final -106.29 input  -60.55 | X-H torsion
[ 11005 11000 10999 10996 ] final  -34.61 input  -57.11 | X-H torsion

> <Gold.Protein.ActiveResidues>
 VAL166  LYS551  ARG553  GLY616  TRP617  ASP618  TYR619  PRO620  LYS621  CYS622 
 ASP623  PHE694  ASN695  SER759  ASP760  ASP761  ALA762  ILE779  LEU786  VAL792 
 PHE793  MET794  SER795  GLU796  ALA797  LYS798  CYS799  TRP800  GLU811  SER814 

> <Gold.Protein.RotatedAtoms>
  151.7216  135.0893  160.0284 H   0  0  0  0  0  0  0  0  0  0  0  0  # atno 6907 bound_to 6896
  152.3598  133.6278  159.6015 H   0  0  0  0  0  0  0  0  0  0  0  0  # atno 6908 bound_to 6896
  150.7596  133.9358  159.3482 H   0  0  0  0  0  0  0  0  0  0  0  0  # atno 6909 bound_to 6896
  145.9367  139.3853  143.0388 H   0  0  0  0  0  0  0  0  0  0  0  0  # atno 7974 bound_to 7965
  154.6556  140.2579  155.7165 H   0  0  0  0  0  0  0  0  0  0  0  0  # atno 8008 bound_to 7997
  156.2595  140.2859  156.0929 H   0  0  0  0  0  0  0  0  0  0  0  0  # atno 8009 bound_to 7997
  155.1384  140.0380  157.2782 H   0  0  0  0  0  0  0  0  0  0  0  0  # atno 8010 bound_to 7997
  139.4827  144.4811  151.8442 H   0  0  0  0  0  0  0  0  0  0  0  0  # atno 10167 bound_to 10162
  157.5635  131.1088  150.8495 H   0  0  0  0  0  0  0  0  0  0  0  0  # atno 10718 bound_to 10713
  154.8002  135.4717  154.0258 H   0  0  0  0  0  0  0  0  0  0  0  0  # atno 10763 bound_to 10752
  153.1769  135.6834  153.8537 H   0  0  0  0  0  0  0  0  0  0  0  0  # atno 10764 bound_to 10752
  153.8101  135.3218  155.3377 H   0  0  0  0  0  0  0  0  0  0  0  0  # atno 10765 bound_to 10752
  140.9730  133.7099  156.1555 H   0  0  0  0  0  0  0  0  0  0  0  0  # atno 11005 bound_to 11000
  145.8354  140.9608  143.0827 LP  0  0  0  0  0  0  0  0  0  0  0  0  # atno 17320 bound_to 7965
  144.6773  140.0216  143.7483 LP  0  0  0  0  0  0  0  0  0  0  0  0  # atno 17321 bound_to 7965
  140.4287  144.2145  150.5887 LP  0  0  0  0  0  0  0  0  0  0  0  0  # atno 17342 bound_to 10162
  140.4801  143.2382  151.8968 LP  0  0  0  0  0  0  0  0  0  0  0  0  # atno 17343 bound_to 10162
  156.8986  130.5238  149.5283 LP  0  0  0  0  0  0  0  0  0  0  0  0  # atno 17370 bound_to 10713
  156.0686  130.5723  150.9338 LP  0  0  0  0  0  0  0  0  0  0  0  0  # atno 17371 bound_to 10713
  140.7301  134.4264  157.5567 LP  0  0  0  0  0  0  0  0  0  0  0  0  # atno 17394 bound_to 11000
  139.8919  134.8767  156.2295 LP  0  0  0  0  0  0  0  0  0  0  0  0  # atno 17395 bound_to 11000

$$$$
