AV-unprocessed.smi:2198|AV-procd|sdf|8918|dock8
  -GOLD-   2272012133D 1   1.00000     0.00000
 Structure written by MMmdl.
 43 44  0  0  0  0  0  0  0  0  1 V2000
  150.7268  134.4209  155.3738 C   0  0  0  0  0  0  0  0  0  0  0  0
  150.6583  135.6877  156.1989 C   0  0  0  0  0  0  0  0  0  0  0  0
  150.6556  136.8473  155.4414 N   0  0  0  0  0  0  0  0  0  0  0  0
  150.6121  138.0580  156.1104 C   0  0  0  0  0  0  0  0  0  0  0  0
  150.6303  139.2783  155.2063 C   0  0  0  0  0  0  0  0  0  0  0  0
  150.5612  138.1099  157.4659 C   0  0  0  0  0  0  0  0  0  0  0  0
  150.5196  139.4240  158.2426 C   0  0  0  0  0  0  0  0  0  0  0  0
  151.8030  140.2541  158.1931 C   0  0  0  0  0  0  0  0  0  0  0  0
  152.7310  139.9095  157.4621 O   0  0  0  0  0  0  0  0  0  0  0  0
  151.8418  141.3427  158.9761 N   0  0  0  0  0  0  0  0  0  0  0  0
  152.9584  142.2798  159.0793 C   0  0  1  0  0  0  0  0  0  0  0  0
  152.5282  143.7085  158.6858 C   0  0  0  0  0  0  0  0  0  0  0  0
  151.5789  144.3326  159.7228 C   0  0  0  0  0  0  0  0  0  0  0  0
  152.1940  144.3075  161.1307 C   0  0  0  0  0  0  0  0  0  0  0  0
  152.5945  142.8797  161.5494 C   0  0  2  0  0  0  0  0  0  0  0  0
  153.2161  142.8606  162.9528 C   0  0  0  0  0  0  0  0  0  0  0  0
  153.5439  142.2541  160.5053 C   0  0  0  0  0  0  0  0  0  0  0  0
  150.5468  136.8349  158.2212 C   0  0  0  0  0  0  0  0  0  0  0  0
  150.4796  136.8143  159.4494 O   0  0  0  0  0  0  0  0  0  0  0  0
  150.6080  135.6344  157.4952 N   0  0  0  0  0  0  0  0  0  0  0  0
  150.6932  136.8538  154.4323 H   0  0  0  0  0  0  0  0  0  0  0  0
  150.8909  133.5502  156.0100 H   0  0  0  0  0  0  0  0  0  0  0  0
  151.5461  134.4751  154.6560 H   0  0  0  0  0  0  0  0  0  0  0  0
  149.7946  134.2738  154.8275 H   0  0  0  0  0  0  0  0  0  0  0  0
  151.5032  139.8966  155.4169 H   0  0  0  0  0  0  0  0  0  0  0  0
  149.7345  139.8803  155.3590 H   0  0  0  0  0  0  0  0  0  0  0  0
  150.6669  138.9977  154.1529 H   0  0  0  0  0  0  0  0  0  0  0  0
  150.2746  139.2041  159.2824 H   0  0  0  0  0  0  0  0  0  0  0  0
  149.6965  140.0500  157.8965 H   0  0  0  0  0  0  0  0  0  0  0  0
  151.0308  141.5436  159.5427 H   0  0  0  0  0  0  0  0  0  0  0  0
  153.7419  141.9522  158.3933 H   0  0  0  0  0  0  0  0  0  0  0  0
  153.4162  144.3354  158.5958 H   0  0  0  0  0  0  0  0  0  0  0  0
  152.0590  143.7094  157.7011 H   0  0  0  0  0  0  0  0  0  0  0  0
  151.3458  145.3592  159.4392 H   0  0  0  0  0  0  0  0  0  0  0  0
  150.6309  143.7933  159.7270 H   0  0  0  0  0  0  0  0  0  0  0  0
  153.0685  144.9589  161.1564 H   0  0  0  0  0  0  0  0  0  0  0  0
  151.4818  144.7199  161.8463 H   0  0  0  0  0  0  0  0  0  0  0  0
  151.6872  142.2757  161.5899 H   0  0  0  0  0  0  0  0  0  0  0  0
  154.1334  143.4492  162.9889 H   0  0  0  0  0  0  0  0  0  0  0  0
  153.4609  141.8434  163.2597 H   0  0  0  0  0  0  0  0  0  0  0  0
  152.5280  143.2711  163.6924 H   0  0  0  0  0  0  0  0  0  0  0  0
  153.7887  141.2288  160.7865 H   0  0  0  0  0  0  0  0  0  0  0  0
  154.4884  142.8001  160.5083 H   0  0  0  0  0  0  0  0  0  0  0  0
  1 22  1  0  0  0  0
  1 23  1  0  0  0  0
  1 24  1  0  0  0  0
  1  2  1  0  0  0  0
  2  3  1  0  0  0  0
  2 20  2  0  0  0  0
  3  4  1  0  0  0  0
  3 21  1  0  0  0  0
  4  6  2  0  0  0  0
  4  5  1  0  0  0  0
  5 25  1  0  0  0  0
  5 26  1  0  0  0  0
  5 27  1  0  0  0  0
  6 18  1  0  0  0  0
  6  7  1  0  0  0  0
  7  8  1  0  0  0  0
  7 28  1  0  0  0  0
  7 29  1  0  0  0  0
  8  9  2  0  0  0  0
  8 10  1  0  0  0  0
 10 11  1  0  0  0  0
 10 30  1  0  0  0  0
 11 17  1  0  0  0  0
 11 12  1  0  0  0  0
 11 31  1  0  0  0  0
 12 13  1  0  0  0  0
 12 32  1  0  0  0  0
 12 33  1  0  0  0  0
 13 14  1  0  0  0  0
 13 34  1  0  0  0  0
 13 35  1  0  0  0  0
 14 15  1  0  0  0  0
 14 36  1  0  0  0  0
 14 37  1  0  0  0  0
 15 16  1  0  0  0  0
 15 17  1  0  0  0  0
 15 38  1  0  0  0  0
 16 39  1  0  0  0  0
 16 40  1  0  0  0  0
 16 41  1  0  0  0  0
 17 42  1  0  0  0  0
 17 43  1  0  0  0  0
 18 19  2  0  0  0  0
 18 20  1  0  0  0  0
M  END
> <s_m_source_file>
AV-unprocessed.smi

> <i_m_source_file_index>
2198

> <i_lp_mmshare_version>
43012

> <i_f3d_flags>
0

> <s_epik_input>
W0NIM11jMW5jKFtDSDNdKWMoYyg9TylbbkhdMSlbQ0gyXUMoPU8pW05IXVtDQEBIXTJbQ0gyXVtDSDJdW0NIMl1bQ0BASF0oW0NIM10pW0NIMl0y

> <s_epik_cmdline>
J2VwaWtfcHl0aG9uJywgJy1waCcsICc3LjAnLCAnLXRuJywgJzgnLCAnLW1hJywgJzIwMCcsICctbWV0YWxfYmluZGluZycsICctaW1hZScsICc8aW5maWxlLm1hZT4nLCAnLW9tYWUnLCAnPG91dGZpbGUubWFlPic=

> <r_lp_tautomer_probability>
0.156392

> <r_epik_Ionization_Penalty>
0.0136514

> <r_epik_Ionization_Penalty_Charging>
0.0135207

> <r_epik_Ionization_Penalty_Neutral>
0.000130657

> <r_epik_State_Penalty>
1.15342

> <r_epik_Charging_Adjusted_Penalty>
1.16694

> <i_epik_Tot_Q>
0

> <i_epik_Tot_abs_Q>
0

> <r_epik_Metal_State_Penalty>
1.31404

> <b_epik_Metal_Only>
0

> <s_lp_Force_Field>
OPLS_2005

> <r_lp_Energy>
13.6567

> <b_lp_Chiralities_Consistent>
1

> <s_lp_Variant>
AV-unprocessed.smi:2198-8

> <Gold.Version>
5.8.1

> <Gold.Id.Protein>
6NUR|6NUR_protein|mol2

> <Gold.PLP.Fitness>
47.7709

> <Gold.PLP.PLP>
-42.0126

> <Gold.PLP.part.hbond>
-2.6814

> <Gold.PLP.part.metal>
0.0000

> <Gold.PLP.part.buried>
-6.4055

> <Gold.PLP.part.nonpolar>
-32.3768

> <Gold.PLP.part.repulsive>
0.1838

> <Gold.PLP.ligand.clash>
0.0000

> <Gold.PLP.ligand.torsion>
0.1243

> <Gold.PLP.Chemscore.Hbond>
2.0000

> <Gold.PLP.Chemscore.CHOScore>
0.0000

> <Gold.PLP.Chemscore.Metal>
0.0000

> <Gold.Chemscore.Hbonds>
donor molecule, donor type, donor heavy atom, donor atom, acceptor molecule, acceptor atom, score
      P1  H  6896  6907       L1    19  1.00
      P1  H  7997  8009       L1     9  1.00

> <Gold.PLP.Chemscore.Internal.Correction>
0.0068

> <Gold.Rescore>
     Score         DG    S(hbond)    S(metal)    S(lipo)     H(rot)  DE(clash)    DE(int)     intcor
     20.43     -20.60       1.97        0.00     105.28       1.48       0.01       0.16       ----

> <Gold.Chemscore.Fitness>
20.4284

> <Gold.Chemscore.DG>
-20.5988

> <Gold.Chemscore.ZeroCoef>
-5.4800

> <Gold.Chemscore.Hbond>
1.9732

> <Gold.Chemscore.Metal>
0.0000

> <Gold.Chemscore.Lipo>
105.2757

> <Gold.Chemscore.Internal_Hbond>
0.0000

> <Gold.Chemscore.DEClash>
0.0060

> <Gold.Chemscore.DEInternal>
0.1643

> <Gold.Chemscore.Rot>
1.4801

> <Gold.Chemscore.Internal.Correction>
   9.000000E+99

> <Gold.Chemscore.Hbonds>
donor molecule, donor type, donor heavy atom, donor atom, acceptor molecule, acceptor atom, score
      P1  H  6896  6907       L1    19  0.35
      P1  H  7997  8009       L1     9  1.00

> <Gold.Chemscore.Hbond.Weighted>
-6.5906

> <Gold.Chemscore.Metal.Weighted>
-0.0000

> <Gold.Chemscore.Lipo.Weighted>
-12.3173

> <Gold.Chemscore.Internal_Hbond.Weighted>
0.0000

> <Gold.Chemscore.DEClash.Weighted>
0.0060

> <Gold.Chemscore.DEInternal.Weighted>
0.1643

> <Gold.Chemscore.Rot.Weighted>
3.7891

> <Gold.Chemscore.Internal.Correction.Weighted>
   9.000000E+99

> <Gold.Protein.RotatedTorsions>
[ 6907 6896 6895 6894 ] final  -30.50 input  -60.11 | X-H torsion
[ 7974 7965 7964 7962 ] final -164.81 input  175.53 | X-H torsion
[ 8008 7997 7996 7995 ] final  173.30 input   59.86 | X-H torsion
[ 10167 10162 10161 10158 ] final -136.53 input  -65.29 | X-H torsion
[ 10718 10713 10712 10709 ] final  130.38 input   66.30 | X-H torsion
[ 10763 10752 10751 10750 ] final  107.51 input  -60.55 | X-H torsion
[ 11005 11000 10999 10996 ] final -157.06 input  -57.11 | X-H torsion

> <Gold.Protein.ActiveResidues>
 VAL166  LYS551  ARG553  GLY616  TRP617  ASP618  TYR619  PRO620  LYS621  CYS622 
 ASP623  PHE694  ASN695  SER759  ASP760  ASP761  ALA762  ILE779  LEU786  VAL792 
 PHE793  MET794  SER795  GLU796  ALA797  LYS798  CYS799  TRP800  GLU811  SER814 

> <Gold.Protein.RotatedAtoms>
  151.1048  134.9993  159.8465 H   0  0  0  0  0  0  0  0  0  0  0  0  # atno 6907 bound_to 6896
  152.5439  134.1907  159.8683 H   0  0  0  0  0  0  0  0  0  0  0  0  # atno 6908 bound_to 6896
  151.1953  133.4599  159.2628 H   0  0  0  0  0  0  0  0  0  0  0  0  # atno 6909 bound_to 6896
  144.7286  140.2906  143.6221 H   0  0  0  0  0  0  0  0  0  0  0  0  # atno 7974 bound_to 7965
  156.1089  140.1464  156.9365 H   0  0  0  0  0  0  0  0  0  0  0  0  # atno 8008 bound_to 7997
  154.4753  140.0896  156.7291 H   0  0  0  0  0  0  0  0  0  0  0  0  # atno 8009 bound_to 7997
  155.4630  140.3439  155.4317 H   0  0  0  0  0  0  0  0  0  0  0  0  # atno 8010 bound_to 7997
  139.8668  143.7007  152.2644 H   0  0  0  0  0  0  0  0  0  0  0  0  # atno 10167 bound_to 10162
  157.5067  131.1096  150.9351 H   0  0  0  0  0  0  0  0  0  0  0  0  # atno 10718 bound_to 10713
  153.4077  135.3842  155.2030 H   0  0  0  0  0  0  0  0  0  0  0  0  # atno 10763 bound_to 10752
  154.8735  135.3787  154.4539 H   0  0  0  0  0  0  0  0  0  0  0  0  # atno 10764 bound_to 10752
  153.5044  135.7088  153.5876 H   0  0  0  0  0  0  0  0  0  0  0  0  # atno 10765 bound_to 10752
  140.6687  134.4270  157.5232 H   0  0  0  0  0  0  0  0  0  0  0  0  # atno 11005 bound_to 11000
  145.7859  139.1908  143.2131 LP  0  0  0  0  0  0  0  0  0  0  0  0  # atno 17320 bound_to 7965
  146.0796  140.7779  142.9648 LP  0  0  0  0  0  0  0  0  0  0  0  0  # atno 17321 bound_to 7965
  139.7321  144.7580  151.0785 LP  0  0  0  0  0  0  0  0  0  0  0  0  # atno 17342 bound_to 10162
  140.7767  143.5075  150.9694 LP  0  0  0  0  0  0  0  0  0  0  0  0  # atno 17343 bound_to 10162
  157.0004  130.5597  149.5311 LP  0  0  0  0  0  0  0  0  0  0  0  0  # atno 17370 bound_to 10713
  156.0263  130.5356  150.8415 LP  0  0  0  0  0  0  0  0  0  0  0  0  # atno 17371 bound_to 10713
  139.8988  134.8604  156.1984 LP  0  0  0  0  0  0  0  0  0  0  0  0  # atno 17394 bound_to 11000
  141.0409  133.6938  156.1596 LP  0  0  0  0  0  0  0  0  0  0  0  0  # atno 17395 bound_to 11000

$$$$
