AV-unprocessed.smi:3283|AV-procd|sdf|12570|dock5
  -GOLD-   2272018493D 1   1.00000     0.00000
 Structure written by MMmdl.
 44 45  0  0  0  0  0  0  0  0  2 V2000
  151.2468  137.9166  154.0976 C   0  0  0  0  0  0  0  0  0  0  0  0
  150.7119  139.1917  154.7278 C   0  0  0  0  0  0  0  0  0  0  0  0
  151.3897  139.7732  155.7359 C   0  0  0  0  0  0  0  0  0  0  0  0
  150.9959  141.0795  156.3852 C   0  0  0  0  0  0  0  0  0  0  0  0
  150.0812  141.8944  155.4681 C   0  0  0  0  0  0  0  0  0  0  0  0
  148.9164  141.0432  154.9366 C   0  0  1  0  0  0  0  0  0  0  0  0
  147.9773  141.9304  154.0958 C   0  0  0  0  0  0  0  0  0  0  0  0
  149.4085  139.7857  154.1548 C   0  0  2  0  0  0  0  0  0  0  0  0
  148.2655  138.7407  154.0552 C   0  0  0  0  0  0  0  0  0  0  0  0
  147.8207  138.5086  152.6662 N   0  3  0  0  0  0  0  0  0  0  0  0
  146.3583  138.3807  152.5097 C   0  0  0  0  0  0  0  0  0  0  0  0
  145.8305  137.0863  153.1469 C   0  0  0  0  0  0  0  0  0  0  0  0
  145.1983  136.1470  152.1651 C   0  0  0  0  0  0  0  0  0  0  0  0
  145.6346  135.7597  150.9288 C   0  0  0  0  0  0  0  0  0  0  0  0
  144.6406  134.8488  150.4778 C   0  0  0  0  0  0  0  0  0  0  0  0
  143.6705  134.6822  151.3593 N   0  0  0  0  0  0  0  0  0  0  0  0
  144.0046  135.4818  152.3943 N   0  0  0  0  0  0  0  0  0  0  0  0
  143.1269  135.5338  153.5490 C   0  0  0  0  0  0  0  0  0  0  0  0
  151.3079  138.0237  153.0148 H   0  0  0  0  0  0  0  0  0  0  0  0
  150.6108  137.0648  154.3367 H   0  0  0  0  0  0  0  0  0  0  0  0
  152.2483  137.6851  154.4613 H   0  0  0  0  0  0  0  0  0  0  0  0
  152.2870  139.3107  156.1210 H   0  0  0  0  0  0  0  0  0  0  0  0
  150.5044  140.8642  157.3344 H   0  0  0  0  0  0  0  0  0  0  0  0
  151.8955  141.6527  156.6115 H   0  0  0  0  0  0  0  0  0  0  0  0
  149.7042  142.7615  156.0118 H   0  0  0  0  0  0  0  0  0  0  0  0
  150.6608  142.2843  154.6297 H   0  0  0  0  0  0  0  0  0  0  0  0
  148.3552  140.7007  155.8078 H   0  0  0  0  0  0  0  0  0  0  0  0
  148.4795  142.2987  153.2007 H   0  0  0  0  0  0  0  0  0  0  0  0
  147.6483  142.7993  154.6665 H   0  0  0  0  0  0  0  0  0  0  0  0
  147.0788  141.4043  153.7776 H   0  0  0  0  0  0  0  0  0  0  0  0
  149.6601  140.1142  153.1450 H   0  0  0  0  0  0  0  0  0  0  0  0
  148.5877  137.7982  154.5006 H   0  0  0  0  0  0  0  0  0  0  0  0
  147.3899  139.0606  154.6179 H   0  0  0  0  0  0  0  0  0  0  0  0
  148.1386  139.2790  152.0950 H   0  0  0  0  0  0  0  0  0  0  0  0
  145.8761  139.2406  152.9764 H   0  0  0  0  0  0  0  0  0  0  0  0
  146.1022  138.4057  151.4495 H   0  0  0  0  0  0  0  0  0  0  0  0
  146.6357  136.5893  153.6879 H   0  0  0  0  0  0  0  0  0  0  0  0
  145.0914  137.3472  153.9052 H   0  0  0  0  0  0  0  0  0  0  0  0
  146.5334  136.0785  150.4218 H   0  0  0  0  0  0  0  0  0  0  0  0
  144.5970  134.3062  149.5449 H   0  0  0  0  0  0  0  0  0  0  0  0
  142.9629  136.5686  153.8494 H   0  0  0  0  0  0  0  0  0  0  0  0
  143.5751  134.9838  154.3756 H   0  0  0  0  0  0  0  0  0  0  0  0
  142.1596  135.0863  153.3152 H   0  0  0  0  0  0  0  0  0  0  0  0
  148.2532  137.6594  152.3321 H   0  0  0  0  0  0  0  0  0  0  0  0
  1  2  1  0  0  0  0
  1 19  1  0  0  0  0
  1 20  1  0  0  0  0
  1 21  1  0  0  0  0
  2  8  1  0  0  0  0
  2  3  2  0  0  0  0
  3  4  1  0  0  0  0
  3 22  1  0  0  0  0
  4  5  1  0  0  0  0
  4 23  1  0  0  0  0
  4 24  1  0  0  0  0
  5  6  1  0  0  0  0
  5 25  1  0  0  0  0
  5 26  1  0  0  0  0
  6  7  1  0  0  0  0
  6  8  1  0  0  0  0
  6 27  1  0  0  0  0
  7 28  1  0  0  0  0
  7 29  1  0  0  0  0
  7 30  1  0  0  0  0
  8  9  1  0  0  0  0
  8 31  1  0  0  0  0
  9 10  1  0  0  0  0
  9 32  1  0  0  0  0
  9 33  1  0  0  0  0
 10 11  1  0  0  0  0
 10 34  1  0  0  0  0
 10 44  1  0  0  0  0
 11 12  1  0  0  0  0
 11 35  1  0  0  0  0
 11 36  1  0  0  0  0
 12 13  1  0  0  0  0
 12 37  1  0  0  0  0
 12 38  1  0  0  0  0
 13 17  1  0  0  0  0
 13 14  2  0  0  0  0
 14 15  1  0  0  0  0
 14 39  1  0  0  0  0
 15 16  2  0  0  0  0
 15 40  1  0  0  0  0
 16 17  1  0  0  0  0
 17 18  1  0  0  0  0
 18 41  1  0  0  0  0
 18 42  1  0  0  0  0
 18 43  1  0  0  0  0
M  CHG  1  10   1
M  END
> <s_m_source_file>
AV-unprocessed.smi

> <i_m_source_file_index>
3283

> <i_lp_mmshare_version>
43012

> <i_f3d_flags>
0

> <s_epik_input>
W0NIM11DMT1bQ0hdW0NIMl1bQ0gyXVtDQEBIXShbQ0gzXSlbQ0BIXTFbQ0gyXVtOSF1bQ0gyXVtDSDJdYzJbY0hdW2NIXW5uMltDSDNd

> <s_epik_cmdline>
J2VwaWtfcHl0aG9uJywgJy1waCcsICc3LjAnLCAnLXRuJywgJzgnLCAnLW1hJywgJzIwMCcsICctbWV0YWxfYmluZGluZycsICctaW1hZScsICc8aW5maWxlLm1hZT4nLCAnLW9tYWUnLCAnPG91dGZpbGUubWFlPic=

> <r_lp_tautomer_probability>
1

> <r_epik_Ionization_Penalty>
0.000866911

> <r_epik_Ionization_Penalty_Charging>
0.000836385

> <r_epik_Ionization_Penalty_Neutral>
3.05258e-05

> <r_epik_State_Penalty>
-0

> <r_epik_Charging_Adjusted_Penalty>
0.000836385

> <i_epik_Tot_Q>
1

> <i_epik_Tot_abs_Q>
1

> <r_epik_Metal_State_Penalty>
-0

> <b_epik_Metal_Only>
0

> <s_lp_Force_Field>
OPLS_2005

> <r_lp_Energy>
14.6104

> <b_lp_Chiralities_Consistent>
1

> <s_lp_Variant>
AV-unprocessed.smi:3283-3

> <Gold.Version>
5.8.1

> <Gold.Id.Protein>
6NUR|6NUR_protein|mol2

> <Gold.PLP.Fitness>
46.0615

> <Gold.PLP.PLP>
-37.8767

> <Gold.PLP.part.hbond>
-2.0000

> <Gold.PLP.part.metal>
0.0000

> <Gold.PLP.part.buried>
-1.9032

> <Gold.PLP.part.nonpolar>
-34.6455

> <Gold.PLP.part.repulsive>
0.2776

> <Gold.PLP.ligand.clash>
0.0000

> <Gold.PLP.ligand.torsion>
1.6214

> <Gold.PLP.Chemscore.Hbond>
2.9440

> <Gold.PLP.Chemscore.CHOScore>
0.8476

> <Gold.PLP.Chemscore.Metal>
0.0000

> <Gold.Chemscore.Hbonds>
donor molecule, donor type, donor heavy atom, donor atom, acceptor molecule, acceptor atom, score
      L1  H    10    34       P1  7957  0.93
      L1  H    10    44       P1  7948  2.00
      L1  C    15    40       P1  7921  0.85

> <Gold.PLP.Chemscore.Internal.Correction>
0.0527

> <Gold.Rescore>
     Score         DG    S(hbond)    S(metal)    S(lipo)     H(rot)  DE(clash)    DE(int)     intcor
     17.52     -19.53       1.91        0.00      98.13       1.48       0.47       1.54       ----

> <Gold.Chemscore.Fitness>
17.5153

> <Gold.Chemscore.DG>
-19.5299

> <Gold.Chemscore.ZeroCoef>
-5.4800

> <Gold.Chemscore.Hbond>
1.9070

> <Gold.Chemscore.Metal>
0.0000

> <Gold.Chemscore.Lipo>
98.1324

> <Gold.Chemscore.Internal_Hbond>
0.0000

> <Gold.Chemscore.DEClash>
0.4717

> <Gold.Chemscore.DEInternal>
1.5429

> <Gold.Chemscore.Rot>
1.4847

> <Gold.Chemscore.Internal.Correction>
   9.000000E+99

> <Gold.Chemscore.Hbonds>
donor molecule, donor type, donor heavy atom, donor atom, acceptor molecule, acceptor atom, score
      L1  H    10    34       P1  7957  0.89
      L1  H    10    44       P1  7948  1.00

> <Gold.Chemscore.Hbond.Weighted>
-6.3692

> <Gold.Chemscore.Metal.Weighted>
-0.0000

> <Gold.Chemscore.Lipo.Weighted>
-11.4815

> <Gold.Chemscore.Internal_Hbond.Weighted>
0.0000

> <Gold.Chemscore.DEClash.Weighted>
0.4717

> <Gold.Chemscore.DEInternal.Weighted>
1.5429

> <Gold.Chemscore.Rot.Weighted>
3.8008

> <Gold.Chemscore.Internal.Correction.Weighted>
   9.000000E+99

> <Gold.Protein.RotatedTorsions>
[ 6907 6896 6895 6894 ] final   -3.09 input  -60.11 | X-H torsion
[ 7974 7965 7964 7962 ] final    5.24 input  175.53 | X-H torsion
[ 8008 7997 7996 7995 ] final   84.63 input   59.86 | X-H torsion
[ 10167 10162 10161 10158 ] final -131.16 input  -65.29 | X-H torsion
[ 10718 10713 10712 10709 ] final   59.93 input   66.30 | X-H torsion
[ 10763 10752 10751 10750 ] final    6.50 input  -60.55 | X-H torsion
[ 11005 11000 10999 10996 ] final  104.33 input  -57.11 | X-H torsion

> <Gold.Protein.ActiveResidues>
 VAL166  LYS551  ARG553  GLY616  TRP617  ASP618  TYR619  PRO620  LYS621  CYS622 
 ASP623  PHE694  ASN695  SER759  ASP760  ASP761  ALA762  ILE779  LEU786  VAL792 
 PHE793  MET794  SER795  GLU796  ALA797  LYS798  CYS799  TRP800  GLU811  SER814 

> <Gold.Protein.RotatedAtoms>
  151.5193  135.1067  159.9874 H   0  0  0  0  0  0  0  0  0  0  0  0  # atno 6907 bound_to 6896
  152.4627  133.7853  159.6883 H   0  0  0  0  0  0  0  0  0  0  0  0  # atno 6908 bound_to 6896
  150.8597  133.7598  159.3022 H   0  0  0  0  0  0  0  0  0  0  0  0  # atno 6909 bound_to 6896
  146.2441  140.0414  142.8382 H   0  0  0  0  0  0  0  0  0  0  0  0  # atno 7974 bound_to 7965
  155.9395  140.3409  155.6316 H   0  0  0  0  0  0  0  0  0  0  0  0  # atno 8008 bound_to 7997
  155.7057  140.0765  157.2410 H   0  0  0  0  0  0  0  0  0  0  0  0  # atno 8009 bound_to 7997
  154.4100  140.1632  156.2227 H   0  0  0  0  0  0  0  0  0  0  0  0  # atno 8010 bound_to 7997
  139.9218  143.6374  152.2552 H   0  0  0  0  0  0  0  0  0  0  0  0  # atno 10167 bound_to 10162
  157.5714  130.8910  149.9273 H   0  0  0  0  0  0  0  0  0  0  0  0  # atno 10718 bound_to 10713
  153.2470  135.6909  153.7721 H   0  0  0  0  0  0  0  0  0  0  0  0  # atno 10763 bound_to 10752
  153.6829  135.3325  155.3184 H   0  0  0  0  0  0  0  0  0  0  0  0  # atno 10764 bound_to 10752
  154.8379  135.4527  154.1413 H   0  0  0  0  0  0  0  0  0  0  0  0  # atno 10765 bound_to 10752
  139.8791  134.9296  156.5345 H   0  0  0  0  0  0  0  0  0  0  0  0  # atno 11005 bound_to 11000
  145.1066  140.9379  143.4681 LP  0  0  0  0  0  0  0  0  0  0  0  0  # atno 17320 bound_to 7965
  145.0618  139.3099  143.5876 LP  0  0  0  0  0  0  0  0  0  0  0  0  # atno 17321 bound_to 7965
  139.6855  144.7652  151.1531 LP  0  0  0  0  0  0  0  0  0  0  0  0  # atno 17342 bound_to 10162
  140.7660  143.5663  150.9044 LP  0  0  0  0  0  0  0  0  0  0  0  0  # atno 17343 bound_to 10162
  156.0760  130.3679  150.0678 LP  0  0  0  0  0  0  0  0  0  0  0  0  # atno 17370 bound_to 10713
  156.8830  130.9563  151.3597 LP  0  0  0  0  0  0  0  0  0  0  0  0  # atno 17371 bound_to 10713
  140.8356  133.8245  155.9026 LP  0  0  0  0  0  0  0  0  0  0  0  0  # atno 17394 bound_to 11000
  140.9286  134.2050  157.4879 LP  0  0  0  0  0  0  0  0  0  0  0  0  # atno 17395 bound_to 11000

$$$$
