AV-unprocessed.smi:1070|AV-procd|sdf|4676|dock7
  -GOLD-   22720 3193D 1   1.00000     0.00000
 Structure written by MMmdl.
 48 49  0  0  0  0  0  0  0  0  1 V2000
  143.8640  133.4478  151.8996 C   0  0  0  0  0  0  0  0  0  0  0  0
  145.3562  133.4517  151.5601 C   0  0  0  0  0  0  0  0  0  0  0  0
  145.9611  134.5789  152.1686 O   0  0  0  0  0  0  0  0  0  0  0  0
  146.1261  134.4257  153.5716 C   0  0  0  0  0  0  0  0  0  0  0  0
  147.4867  133.7871  153.8499 C   0  0  0  0  0  0  0  0  0  0  0  0
  148.1662  133.3725  152.9116 O   0  0  0  0  0  0  0  0  0  0  0  0
  147.8516  133.7267  155.1427 N   0  0  0  0  0  0  0  0  0  0  0  0
  148.9970  133.0989  155.7057 C   0  0  0  0  0  0  0  0  0  0  0  0
  149.9207  132.3666  154.9234 C   0  0  0  0  0  0  0  0  0  0  0  0
  151.0557  131.8125  155.5423 C   0  0  0  0  0  0  0  0  0  0  0  0
  151.2411  132.0153  156.9222 C   0  0  0  0  0  0  0  0  0  0  0  0
  152.3549  131.4713  157.5283 O   0  0  0  0  0  0  0  0  0  0  0  0
  153.4376  131.0573  156.7022 C   0  0  0  0  0  0  0  0  0  0  0  0
  150.3685  132.7273  157.6752 N   0  0  0  0  0  0  0  0  0  0  0  0
  149.2706  133.2615  157.0896 C   0  0  0  0  0  0  0  0  0  0  0  0
  148.3818  133.9777  157.9159 N   0  0  0  0  0  0  0  0  0  0  0  0
  148.6262  135.4118  158.0784 C   0  0  0  0  0  0  0  0  0  0  0  0
  147.4347  136.0859  158.7854 C   0  0  0  0  0  0  0  0  0  0  0  0
  147.1684  135.3869  160.0498 N   0  0  0  0  0  0  0  0  0  0  0  0
  147.3486  135.9641  161.2615 C   0  0  0  0  0  0  0  0  0  0  0  0
  147.1029  135.1395  162.5270 C   0  0  0  0  0  0  0  0  0  0  0  0
  147.7047  137.1350  161.3944 O   0  0  0  0  0  0  0  0  0  0  0  0
  146.8110  133.9802  159.8184 C   0  0  0  0  0  0  0  0  0  0  0  0
  147.9943  133.2696  159.1363 C   0  0  0  0  0  0  0  0  0  0  0  0
  143.3673  132.5812  151.4631 H   0  0  0  0  0  0  0  0  0  0  0  0
  143.3738  134.3421  151.5148 H   0  0  0  0  0  0  0  0  0  0  0  0
  143.7071  133.4161  152.9781 H   0  0  0  0  0  0  0  0  0  0  0  0
  145.8244  132.5350  151.9217 H   0  0  0  0  0  0  0  0  0  0  0  0
  145.4909  133.4882  150.4781 H   0  0  0  0  0  0  0  0  0  0  0  0
  146.0676  135.3955  154.0689 H   0  0  0  0  0  0  0  0  0  0  0  0
  145.3413  133.7887  153.9822 H   0  0  0  0  0  0  0  0  0  0  0  0
  147.1572  134.0368  155.8074 H   0  0  0  0  0  0  0  0  0  0  0  0
  149.7862  132.2373  153.8603 H   0  0  0  0  0  0  0  0  0  0  0  0
  151.7747  131.2486  154.9667 H   0  0  0  0  0  0  0  0  0  0  0  0
  154.2368  130.6591  157.3272 H   0  0  0  0  0  0  0  0  0  0  0  0
  153.8483  131.8931  156.1338 H   0  0  0  0  0  0  0  0  0  0  0  0
  153.1339  130.2695  156.0113 H   0  0  0  0  0  0  0  0  0  0  0  0
  149.5354  135.5646  158.6618 H   0  0  0  0  0  0  0  0  0  0  0  0
  148.7868  135.8706  157.1018 H   0  0  0  0  0  0  0  0  0  0  0  0
  147.6413  137.1481  158.9210 H   0  0  0  0  0  0  0  0  0  0  0  0
  146.5461  136.0329  158.1546 H   0  0  0  0  0  0  0  0  0  0  0  0
  147.7641  134.2730  162.5586 H   0  0  0  0  0  0  0  0  0  0  0  0
  146.0680  134.7993  162.5714 H   0  0  0  0  0  0  0  0  0  0  0  0
  147.2949  135.7371  163.4188 H   0  0  0  0  0  0  0  0  0  0  0  0
  146.5317  133.4408  160.7220 H   0  0  0  0  0  0  0  0  0  0  0  0
  145.9340  133.9404  159.1711 H   0  0  0  0  0  0  0  0  0  0  0  0
  147.7248  132.2360  158.9201 H   0  0  0  0  0  0  0  0  0  0  0  0
  148.8499  133.2355  159.8120 H   0  0  0  0  0  0  0  0  0  0  0  0
  1  2  1  0  0  0  0
  1 25  1  0  0  0  0
  1 26  1  0  0  0  0
  1 27  1  0  0  0  0
  2  3  1  0  0  0  0
  2 28  1  0  0  0  0
  2 29  1  0  0  0  0
  3  4  1  0  0  0  0
  4  5  1  0  0  0  0
  4 30  1  0  0  0  0
  4 31  1  0  0  0  0
  5  6  2  0  0  0  0
  5  7  1  0  0  0  0
  7  8  1  0  0  0  0
  7 32  1  0  0  0  0
  8 15  1  0  0  0  0
  8  9  2  0  0  0  0
  9 10  1  0  0  0  0
  9 33  1  0  0  0  0
 10 11  2  0  0  0  0
 10 34  1  0  0  0  0
 11 12  1  0  0  0  0
 11 14  1  0  0  0  0
 12 13  1  0  0  0  0
 13 35  1  0  0  0  0
 13 36  1  0  0  0  0
 13 37  1  0  0  0  0
 14 15  2  0  0  0  0
 15 16  1  0  0  0  0
 16 24  1  0  0  0  0
 16 17  1  0  0  0  0
 17 18  1  0  0  0  0
 17 38  1  0  0  0  0
 17 39  1  0  0  0  0
 18 19  1  0  0  0  0
 18 40  1  0  0  0  0
 18 41  1  0  0  0  0
 19 20  1  0  0  0  0
 19 23  1  0  0  0  0
 20 21  1  0  0  0  0
 20 22  2  0  0  0  0
 21 42  1  0  0  0  0
 21 43  1  0  0  0  0
 21 44  1  0  0  0  0
 23 24  1  0  0  0  0
 23 45  1  0  0  0  0
 23 46  1  0  0  0  0
 24 47  1  0  0  0  0
 24 48  1  0  0  0  0
M  END
> <s_m_source_file>
AV-unprocessed.smi

> <i_m_source_file_index>
1070

> <i_lp_mmshare_version>
43012

> <i_f3d_flags>
0

> <s_epik_input>
W0NIM11bQ0gyXU9bQ0gyXUMoPU8pW05IXWMxW2NIXVtjSF1jKE9bQ0gzXSluYzFOMltDSDJdW0NIMl1OKEMoPU8pW0NIM10pW0NIMl1bQ0gyXTI=

> <s_epik_cmdline>
J2VwaWtfcHl0aG9uJywgJy1waCcsICc3LjAnLCAnLXRuJywgJzgnLCAnLW1hJywgJzIwMCcsICctbWV0YWxfYmluZGluZycsICctaW1hZScsICc8aW5maWxlLm1hZT4nLCAnLW9tYWUnLCAnPG91dGZpbGUubWFlPic=

> <r_lp_tautomer_probability>
1

> <r_epik_Ionization_Penalty>
0.000131804

> <r_epik_Ionization_Penalty_Charging>
0

> <r_epik_Ionization_Penalty_Neutral>
0.000131804

> <r_epik_State_Penalty>
-0

> <r_epik_Charging_Adjusted_Penalty>
0

> <i_epik_Tot_Q>
0

> <i_epik_Tot_abs_Q>
0

> <r_epik_Metal_State_Penalty>
-0

> <b_epik_Metal_Only>
0

> <s_lp_Force_Field>
OPLS_2005

> <r_lp_Energy>
37.3921

> <b_lp_Chiralities_Consistent>
1

> <s_lp_Variant>
AV-unprocessed.smi:1070-1

> <Gold.Version>
5.8.1

> <Gold.Id.Protein>
6NUR|6NUR_protein|mol2

> <Gold.PLP.Fitness>
36.5422

> <Gold.PLP.PLP>
-29.5423

> <Gold.PLP.part.hbond>
-3.0000

> <Gold.PLP.part.metal>
0.0000

> <Gold.PLP.part.buried>
-5.5830

> <Gold.PLP.part.nonpolar>
-21.6281

> <Gold.PLP.part.repulsive>
0.3687

> <Gold.PLP.ligand.clash>
0.0000

> <Gold.PLP.ligand.torsion>
0.9975

> <Gold.PLP.Chemscore.Hbond>
2.8480

> <Gold.PLP.Chemscore.CHOScore>
0.0000

> <Gold.PLP.Chemscore.Metal>
0.0000

> <Gold.Chemscore.Hbonds>
donor molecule, donor type, donor heavy atom, donor atom, acceptor molecule, acceptor atom, score
      P1  H  6896  6908       L1    14  0.94
      P1  H  6931  6943       L1    22  1.00
      P1  H  6934  6947       L1    22  0.82

> <Gold.PLP.Chemscore.Internal.Correction>
0.4509

> <Gold.Rescore>
     Score         DG    S(hbond)    S(metal)    S(lipo)     H(rot)  DE(clash)    DE(int)     intcor
     13.84     -16.08       2.72        0.00      53.83       1.86       0.00       2.23       ----

> <Gold.Chemscore.Fitness>
13.8437

> <Gold.Chemscore.DG>
-16.0807

> <Gold.Chemscore.ZeroCoef>
-5.4800

> <Gold.Chemscore.Hbond>
2.7164

> <Gold.Chemscore.Metal>
0.0000

> <Gold.Chemscore.Lipo>
53.8256

> <Gold.Chemscore.Internal_Hbond>
0.0000

> <Gold.Chemscore.DEClash>
0.0045

> <Gold.Chemscore.DEInternal>
2.2325

> <Gold.Chemscore.Rot>
1.8631

> <Gold.Chemscore.Internal.Correction>
   9.000000E+99

> <Gold.Chemscore.Hbonds>
donor molecule, donor type, donor heavy atom, donor atom, acceptor molecule, acceptor atom, score
      P1  H  6896  6908       L1    14  0.50
      P1  H  6931  6943       L1    22  0.95
      P1  H  6934  6947       L1    22  0.76

> <Gold.Chemscore.Hbond.Weighted>
-9.0727

> <Gold.Chemscore.Metal.Weighted>
-0.0000

> <Gold.Chemscore.Lipo.Weighted>
-6.2976

> <Gold.Chemscore.Internal_Hbond.Weighted>
0.0000

> <Gold.Chemscore.DEClash.Weighted>
0.0045

> <Gold.Chemscore.DEInternal.Weighted>
2.2325

> <Gold.Chemscore.Rot.Weighted>
4.7696

> <Gold.Chemscore.Internal.Correction.Weighted>
   9.000000E+99

> <Gold.Protein.RotatedTorsions>
[ 6907 6896 6895 6894 ] final   75.55 input  -60.11 | X-H torsion
[ 7974 7965 7964 7962 ] final   57.82 input  175.53 | X-H torsion
[ 8008 7997 7996 7995 ] final   38.53 input   59.86 | X-H torsion
[ 10167 10162 10161 10158 ] final  162.24 input  -65.29 | X-H torsion
[ 10718 10713 10712 10709 ] final  103.75 input   66.30 | X-H torsion
[ 10763 10752 10751 10750 ] final -127.37 input  -60.55 | X-H torsion
[ 11005 11000 10999 10996 ] final   82.12 input  -57.11 | X-H torsion

> <Gold.Protein.ActiveResidues>
 VAL166  LYS551  ARG553  GLY616  TRP617  ASP618  TYR619  PRO620  LYS621  CYS622 
 ASP623  PHE694  ASN695  SER759  ASP760  ASP761  ALA762  ILE779  LEU786  VAL792 
 PHE793  MET794  SER795  GLU796  ALA797  LYS798  CYS799  TRP800  GLU811  SER814 

> <Gold.Protein.RotatedAtoms>
  152.5031  134.4103  159.9446 H   0  0  0  0  0  0  0  0  0  0  0  0  # atno 6907 bound_to 6896
  151.4071  133.3733  159.2747 H   0  0  0  0  0  0  0  0  0  0  0  0  # atno 6908 bound_to 6896
  150.9319  134.8755  159.7616 H   0  0  0  0  0  0  0  0  0  0  0  0  # atno 6909 bound_to 6896
  145.9249  139.3759  143.0456 H   0  0  0  0  0  0  0  0  0  0  0  0  # atno 7974 bound_to 7965
  155.2217  140.3331  155.4315 H   0  0  0  0  0  0  0  0  0  0  0  0  # atno 8008 bound_to 7997
  156.2330  140.1859  156.7239 H   0  0  0  0  0  0  0  0  0  0  0  0  # atno 8009 bound_to 7997
  154.6011  140.0623  156.9355 H   0  0  0  0  0  0  0  0  0  0  0  0  # atno 8010 bound_to 7997
  139.4858  144.4457  151.8895 H   0  0  0  0  0  0  0  0  0  0  0  0  # atno 10167 bound_to 10162
  157.6762  131.0786  150.5602 H   0  0  0  0  0  0  0  0  0  0  0  0  # atno 10718 bound_to 10713
  154.8752  135.3964  154.3583 H   0  0  0  0  0  0  0  0  0  0  0  0  # atno 10763 bound_to 10752
  153.4359  135.7026  153.6205 H   0  0  0  0  0  0  0  0  0  0  0  0  # atno 10764 bound_to 10752
  153.4807  135.3770  155.2410 H   0  0  0  0  0  0  0  0  0  0  0  0  # atno 10765 bound_to 10752
  139.9074  134.8047  156.2132 H   0  0  0  0  0  0  0  0  0  0  0  0  # atno 11005 bound_to 11000
  145.8502  140.9533  143.0753 LP  0  0  0  0  0  0  0  0  0  0  0  0  # atno 17320 bound_to 7965
  144.6757  140.0397  143.7481 LP  0  0  0  0  0  0  0  0  0  0  0  0  # atno 17321 bound_to 7965
  140.3911  144.2614  150.5899 LP  0  0  0  0  0  0  0  0  0  0  0  0  # atno 17342 bound_to 10162
  140.5145  143.2282  151.8484 LP  0  0  0  0  0  0  0  0  0  0  0  0  # atno 17343 bound_to 10162
  156.5905  130.4328  149.5939 LP  0  0  0  0  0  0  0  0  0  0  0  0  # atno 17370 bound_to 10713
  156.2587  130.6950  151.1711 LP  0  0  0  0  0  0  0  0  0  0  0  0  # atno 17371 bound_to 10713
  141.0452  133.6917  156.1671 LP  0  0  0  0  0  0  0  0  0  0  0  0  # atno 17394 bound_to 11000
  140.6894  134.4682  157.5589 LP  0  0  0  0  0  0  0  0  0  0  0  0  # atno 17395 bound_to 11000

$$$$
