AV-unprocessed.smi:2823|AV-procd|sdf|10885|dock7
  -GOLD-   2272015323D 1   1.00000     0.00000
 Structure written by MMmdl.
 41 42  0  0  0  0  0  0  0  0  2 V2000
  147.0187  133.8189  162.3630 C   0  0  0  0  0  0  0  0  0  0  0  0
  147.2411  135.1399  161.7096 C   0  0  0  0  0  0  0  0  0  0  0  0
  146.9725  136.2736  162.3400 N   0  0  0  0  0  0  0  0  0  0  0  0
  147.3200  137.2510  161.3972 O   0  0  0  0  0  0  0  0  0  0  0  0
  147.7572  136.5898  160.2939 C   0  0  0  0  0  0  0  0  0  0  0  0
  148.1728  137.2516  159.2015 N   0  5  0  0  0  0  0  0  0  0  0  0
  149.4879  137.5187  159.0364 C   0  0  0  0  0  0  0  0  0  0  0  0
  150.4267  136.8723  159.5057 O   0  0  0  0  0  0  0  0  0  0  0  0
  149.7270  138.5975  158.2761 N   0  0  0  0  0  0  0  0  0  0  0  0
  151.0368  139.1304  157.8956 C   0  0  0  0  0  0  0  0  0  0  0  0
  151.6920  138.3489  156.7142 C   0  0  0  0  0  0  0  0  0  0  0  0
  152.4388  137.0569  157.1906 C   0  0  0  0  0  0  0  0  0  0  0  0
  152.0957  135.9762  156.7041 O   0  0  0  0  0  0  0  0  0  0  0  0
  153.4257  137.0907  158.1274 N   0  0  0  0  0  0  0  0  0  0  0  0
  153.8966  138.3854  158.6299 C   0  0  0  0  0  0  0  0  0  0  0  0
  154.1317  135.9594  158.7376 C   0  0  0  0  0  0  0  0  0  0  0  0
  150.5741  138.0060  155.6892 C   0  0  0  0  0  0  0  0  0  0  0  0
  151.2452  137.8261  154.3234 C   0  0  0  0  0  0  0  0  0  0  0  0
  152.5467  138.6264  154.3997 C   0  0  0  0  0  0  0  0  0  0  0  0
  152.6027  139.2209  155.8138 C   0  0  0  0  0  0  0  0  0  0  0  0
  147.7346  135.2652  160.4488 N   0  0  0  0  0  0  0  0  0  0  0  0
  146.1971  133.8761  163.0779 H   0  0  0  0  0  0  0  0  0  0  0  0
  147.9191  133.5063  162.8920 H   0  0  0  0  0  0  0  0  0  0  0  0
  146.7732  133.0616  161.6180 H   0  0  0  0  0  0  0  0  0  0  0  0
  148.9214  139.0884  157.9169 H   0  0  0  0  0  0  0  0  0  0  0  0
  150.8715  140.1654  157.5950 H   0  0  0  0  0  0  0  0  0  0  0  0
  151.6839  139.2109  158.7653 H   0  0  0  0  0  0  0  0  0  0  0  0
  153.0976  138.9074  159.1584 H   0  0  0  0  0  0  0  0  0  0  0  0
  154.2352  139.0178  157.8075 H   0  0  0  0  0  0  0  0  0  0  0  0
  154.7354  138.2843  159.3201 H   0  0  0  0  0  0  0  0  0  0  0  0
  153.7044  134.9810  158.5480 H   0  0  0  0  0  0  0  0  0  0  0  0
  154.1521  136.0743  159.8218 H   0  0  0  0  0  0  0  0  0  0  0  0
  155.1648  135.9368  158.3907 H   0  0  0  0  0  0  0  0  0  0  0  0
  149.9703  137.1406  155.9663 H   0  0  0  0  0  0  0  0  0  0  0  0
  149.8758  138.8409  155.6126 H   0  0  0  0  0  0  0  0  0  0  0  0
  151.4650  136.7735  154.1421 H   0  0  0  0  0  0  0  0  0  0  0  0
  150.6003  138.1684  153.5136 H   0  0  0  0  0  0  0  0  0  0  0  0
  153.3964  137.9624  154.2353 H   0  0  0  0  0  0  0  0  0  0  0  0
  152.5912  139.4069  153.6396 H   0  0  0  0  0  0  0  0  0  0  0  0
  152.2198  140.2420  155.7869 H   0  0  0  0  0  0  0  0  0  0  0  0
  153.6394  139.2867  156.1369 H   0  0  0  0  0  0  0  0  0  0  0  0
  1  2  1  0  0  0  0
  1 22  1  0  0  0  0
  1 23  1  0  0  0  0
  1 24  1  0  0  0  0
  2 21  1  0  0  0  0
  2  3  2  0  0  0  0
  3  4  1  0  0  0  0
  4  5  1  0  0  0  0
  5  6  1  0  0  0  0
  5 21  2  0  0  0  0
  6  7  1  0  0  0  0
  7  8  2  0  0  0  0
  7  9  1  0  0  0  0
  9 10  1  0  0  0  0
  9 25  1  0  0  0  0
 10 11  1  0  0  0  0
 10 26  1  0  0  0  0
 10 27  1  0  0  0  0
 11 20  1  0  0  0  0
 11 12  1  0  0  0  0
 11 17  1  0  0  0  0
 12 13  2  0  0  0  0
 12 14  1  0  0  0  0
 14 15  1  0  0  0  0
 14 16  1  0  0  0  0
 15 28  1  0  0  0  0
 15 29  1  0  0  0  0
 15 30  1  0  0  0  0
 16 31  1  0  0  0  0
 16 32  1  0  0  0  0
 16 33  1  0  0  0  0
 17 18  1  0  0  0  0
 17 34  1  0  0  0  0
 17 35  1  0  0  0  0
 18 19  1  0  0  0  0
 18 36  1  0  0  0  0
 18 37  1  0  0  0  0
 19 20  1  0  0  0  0
 19 38  1  0  0  0  0
 19 39  1  0  0  0  0
 20 40  1  0  0  0  0
 20 41  1  0  0  0  0
M  CHG  1   6  -1
M  END
> <s_m_source_file>
AV-unprocessed.smi

> <i_m_source_file_index>
2823

> <i_lp_mmshare_version>
43012

> <i_f3d_flags>
0

> <s_epik_input>
W0NIM11jMW5vYyhuMSlbTkhdQyg9TylbTkhdW0NIMl1DMihDKD1PKU4oW0NIM10pW0NIM10pW0NIMl1bQ0gyXVtDSDJdW0NIMl0y

> <s_epik_cmdline>
J2VwaWtfcHl0aG9uJywgJy1waCcsICc3LjAnLCAnLXRuJywgJzgnLCAnLW1hJywgJzIwMCcsICctbWV0YWxfYmluZGluZycsICctaW1hZScsICc8aW5maWxlLm1hZT4nLCAnLW9tYWUnLCAnPG91dGZpbGUubWFlPic=

> <r_lp_tautomer_probability>
1

> <r_epik_Ionization_Penalty>
6.03325

> <r_epik_Ionization_Penalty_Charging>
6.03318

> <r_epik_Ionization_Penalty_Neutral>
6.91426e-05

> <r_epik_State_Penalty>
6.03316

> <r_epik_Charging_Adjusted_Penalty>
12.0663

> <i_epik_Tot_Q>
-1

> <i_epik_Tot_abs_Q>
1

> <r_epik_Metal_State_Penalty>
1.98358

> <b_epik_Metal_Only>
1

> <s_lp_Force_Field>
OPLS_2005

> <r_lp_Energy>
29.6758

> <b_lp_Chiralities_Consistent>
1

> <s_lp_Variant>
AV-unprocessed.smi:2823-2

> <Gold.Version>
5.8.1

> <Gold.Id.Protein>
6NUR|6NUR_protein|mol2

> <Gold.PLP.Fitness>
38.1058

> <Gold.PLP.PLP>
-29.6236

> <Gold.PLP.part.hbond>
-4.0000

> <Gold.PLP.part.metal>
0.0000

> <Gold.PLP.part.buried>
-4.2528

> <Gold.PLP.part.nonpolar>
-21.2796

> <Gold.PLP.part.repulsive>
0.1490

> <Gold.PLP.ligand.clash>
0.0000

> <Gold.PLP.ligand.torsion>
1.5969

> <Gold.PLP.Chemscore.Hbond>
3.8240

> <Gold.PLP.Chemscore.CHOScore>
0.0000

> <Gold.PLP.Chemscore.Metal>
0.0000

> <Gold.Chemscore.Hbonds>
donor molecule, donor type, donor heavy atom, donor atom, acceptor molecule, acceptor atom, score
      P1  H  6896  6907       L1     8  1.00
      P1  H  6931  6943       L1     4  0.83
      P1  H  6934  6947       L1     4  0.96
      P1  H 10752 10763       L1    13  1.00

> <Gold.PLP.Chemscore.Internal.Correction>
0.2039

> <Gold.Rescore>
     Score         DG    S(hbond)    S(metal)    S(lipo)     H(rot)  DE(clash)    DE(int)     intcor
     16.15     -19.10       3.42        0.00      56.26       1.71       1.48       1.47       ----

> <Gold.Chemscore.Fitness>
16.1540

> <Gold.Chemscore.DG>
-19.1018

> <Gold.Chemscore.ZeroCoef>
-5.4800

> <Gold.Chemscore.Hbond>
3.4219

> <Gold.Chemscore.Metal>
0.0000

> <Gold.Chemscore.Lipo>
56.2639

> <Gold.Chemscore.Internal_Hbond>
0.0000

> <Gold.Chemscore.DEClash>
1.4819

> <Gold.Chemscore.DEInternal>
1.4659

> <Gold.Chemscore.Rot>
1.7149

> <Gold.Chemscore.Internal.Correction>
   9.000000E+99

> <Gold.Chemscore.Hbonds>
donor molecule, donor type, donor heavy atom, donor atom, acceptor molecule, acceptor atom, score
      P1  H  6896  6907       L1     8  0.98
      P1  H  6931  6943       L1     4  0.17
      P1  H  6934  6947       L1     4  0.56
      P1  H 10752 10763       L1    13  0.82

> <Gold.Chemscore.Hbond.Weighted>
-11.4291

> <Gold.Chemscore.Metal.Weighted>
-0.0000

> <Gold.Chemscore.Lipo.Weighted>
-6.5829

> <Gold.Chemscore.Internal_Hbond.Weighted>
0.0000

> <Gold.Chemscore.DEClash.Weighted>
1.4819

> <Gold.Chemscore.DEInternal.Weighted>
1.4659

> <Gold.Chemscore.Rot.Weighted>
4.3901

> <Gold.Chemscore.Internal.Correction.Weighted>
   9.000000E+99

> <Gold.Protein.RotatedTorsions>
[ 6907 6896 6895 6894 ] final  -38.34 input  -60.11 | X-H torsion
[ 7974 7965 7964 7962 ] final  103.48 input  175.53 | X-H torsion
[ 8008 7997 7996 7995 ] final   51.62 input   59.86 | X-H torsion
[ 10167 10162 10161 10158 ] final  103.14 input  -65.29 | X-H torsion
[ 10718 10713 10712 10709 ] final  -20.54 input   66.30 | X-H torsion
[ 10763 10752 10751 10750 ] final   93.48 input  -60.55 | X-H torsion
[ 11005 11000 10999 10996 ] final   26.63 input  -57.11 | X-H torsion

> <Gold.Protein.ActiveResidues>
 VAL166  LYS551  ARG553  GLY616  TRP617  ASP618  TYR619  PRO620  LYS621  CYS622 
 ASP623  PHE694  ASN695  SER759  ASP760  ASP761  ALA762  ILE779  LEU786  VAL792 
 PHE793  MET794  SER795  GLU796  ALA797  LYS798  CYS799  TRP800  GLU811  SER814 

> <Gold.Protein.RotatedAtoms>
  151.0037  134.9342  159.7967 H   0  0  0  0  0  0  0  0  0  0  0  0  # atno 6907 bound_to 6896
  152.5284  134.3120  159.9127 H   0  0  0  0  0  0  0  0  0  0  0  0  # atno 6908 bound_to 6896
  151.3126  133.4032  159.2682 H   0  0  0  0  0  0  0  0  0  0  0  0  # atno 6909 bound_to 6896
  145.3454  139.2452  143.3587 H   0  0  0  0  0  0  0  0  0  0  0  0  # atno 7974 bound_to 7965
  155.4382  140.3453  155.4287 H   0  0  0  0  0  0  0  0  0  0  0  0  # atno 8008 bound_to 7997
  156.1295  140.1510  156.9117 H   0  0  0  0  0  0  0  0  0  0  0  0  # atno 8009 bound_to 7997
  154.4883  140.0848  156.7517 H   0  0  0  0  0  0  0  0  0  0  0  0  # atno 8010 bound_to 7997
  139.7288  144.7041  151.0754 H   0  0  0  0  0  0  0  0  0  0  0  0  # atno 10167 bound_to 10162
  156.5305  130.4654  149.6549 H   0  0  0  0  0  0  0  0  0  0  0  0  # atno 10718 bound_to 10713
  153.2308  135.4324  155.0593 H   0  0  0  0  0  0  0  0  0  0  0  0  # atno 10763 bound_to 10752
  154.8296  135.3379  154.6790 H   0  0  0  0  0  0  0  0  0  0  0  0  # atno 10764 bound_to 10752
  153.7217  135.7016  153.5067 H   0  0  0  0  0  0  0  0  0  0  0  0  # atno 10765 bound_to 10752
  140.3349  134.2397  155.7697 H   0  0  0  0  0  0  0  0  0  0  0  0  # atno 11005 bound_to 11000
  146.2990  140.4060  142.8711 LP  0  0  0  0  0  0  0  0  0  0  0  0  # atno 17320 bound_to 7965
  144.8758  140.7334  143.6018 LP  0  0  0  0  0  0  0  0  0  0  0  0  # atno 17321 bound_to 7965
  140.7767  143.5070  150.9700 LP  0  0  0  0  0  0  0  0  0  0  0  0  # atno 17342 bound_to 10162
  139.8758  143.7135  152.3162 LP  0  0  0  0  0  0  0  0  0  0  0  0  # atno 17343 bound_to 10162
  156.3064  130.7205  151.2088 LP  0  0  0  0  0  0  0  0  0  0  0  0  # atno 17370 bound_to 10713
  157.7422  131.0493  150.5038 LP  0  0  0  0  0  0  0  0  0  0  0  0  # atno 17371 bound_to 10713
  141.2054  133.7862  157.0236 LP  0  0  0  0  0  0  0  0  0  0  0  0  # atno 17394 bound_to 11000
  140.0829  134.9637  157.1654 LP  0  0  0  0  0  0  0  0  0  0  0  0  # atno 17395 bound_to 11000

$$$$
