AV-unprocessed.smi:177|AV-procd|sdf|1443|dock5
  -GOLD-   2262019233D 1   1.00000     0.00000
 Structure written by MMmdl.
 61 65  0  0  0  0  0  0  0  0  1 V2000
  152.6303  144.6035  157.5610 C   0  0  0  0  0  0  0  0  0  0  0  0
  152.7505  144.7129  158.9712 O   0  0  0  0  0  0  0  0  0  0  0  0
  151.6925  144.1104  159.7104 C   0  0  2  0  0  0  0  0  0  0  0  0
  152.1529  143.9868  161.1748 C   0  0  0  0  0  0  0  0  0  0  0  0
  153.2896  142.9628  161.3372 C   0  0  0  0  0  0  0  0  0  0  0  0
  152.8925  141.5973  160.7556 C   0  0  2  0  0  0  0  0  0  0  0  0
  153.9939  140.7024  160.8734 O   0  0  0  0  0  0  0  0  0  0  0  0
  153.6649  139.3936  160.4203 C   0  0  0  0  0  0  0  0  0  0  0  0
  153.2758  139.4466  158.9343 C   0  0  0  0  0  0  0  0  0  0  0  0
  152.1921  140.4005  158.7260 N   0  0  0  0  0  0  0  0  0  0  0  0
  151.7304  140.3420  157.4557 C   0  0  0  0  0  0  0  0  0  0  0  0
  152.5707  139.8297  156.5235 N   0  0  0  0  0  0  0  0  0  0  0  0
  152.1764  139.7290  155.2509 C   0  0  0  0  0  0  0  0  0  0  0  0
  151.0093  140.0816  154.7085 N   0  0  0  0  0  0  0  0  0  0  0  0
  150.1675  140.6168  155.6389 C   0  0  0  0  0  0  0  0  0  0  0  0
  150.4453  140.7828  157.0254 C   0  0  0  0  0  0  0  0  0  0  0  0
  149.3507  141.3570  157.6593 N   0  0  0  0  0  0  0  0  0  0  0  0
  148.4719  141.5070  156.7076 C   0  0  0  0  0  0  0  0  0  0  0  0
  148.8850  141.1076  155.4562 N   0  0  0  0  0  0  0  0  0  0  0  0
  148.1066  141.1630  154.2257 C   0  0  0  0  0  0  0  0  0  0  0  0
  147.4976  139.8004  153.7629 C   0  0  0  0  0  0  0  0  0  0  0  0
  147.4861  139.7041  152.2143 C   0  0  0  0  0  0  0  0  0  0  0  0
  146.9214  138.4909  151.7580 O   0  0  0  0  0  0  0  0  0  0  0  0
  148.3174  138.6217  154.3465 C   0  0  0  0  0  0  0  0  0  0  0  0
  148.1142  138.4411  155.8631 C   0  0  0  0  0  0  0  0  0  0  0  0
  146.7323  138.2834  156.1586 O   0  0  0  0  0  0  0  0  0  0  0  0
  145.9530  139.4104  155.7796 C   0  0  0  0  0  0  0  0  0  0  0  0
  146.0403  139.6120  154.2566 C   0  0  0  0  0  0  0  0  0  0  0  0
  152.4928  141.7284  159.2683 C   0  0  1  0  0  0  0  0  0  0  0  0
  151.3170  142.7255  159.1407 C   0  0  0  0  0  0  0  0  0  0  0  0
  153.4461  145.1496  157.0880 H   0  0  0  0  0  0  0  0  0  0  0  0
  151.6927  145.0341  157.2078 H   0  0  0  0  0  0  0  0  0  0  0  0
  152.6917  143.5696  157.2228 H   0  0  0  0  0  0  0  0  0  0  0  0
  150.8208  144.7664  159.6827 H   0  0  0  0  0  0  0  0  0  0  0  0
  152.4704  144.9598  161.5507 H   0  0  0  0  0  0  0  0  0  0  0  0
  151.3071  143.6818  161.7926 H   0  0  0  0  0  0  0  0  0  0  0  0
  154.1872  143.3287  160.8369 H   0  0  0  0  0  0  0  0  0  0  0  0
  153.5449  142.8579  162.3920 H   0  0  0  0  0  0  0  0  0  0  0  0
  152.0533  141.2031  161.3326 H   0  0  0  0  0  0  0  0  0  0  0  0
  154.5273  138.7419  160.5605 H   0  0  0  0  0  0  0  0  0  0  0  0
  152.8525  138.9810  161.0205 H   0  0  0  0  0  0  0  0  0  0  0  0
  154.1386  139.7412  158.3346 H   0  0  0  0  0  0  0  0  0  0  0  0
  152.9738  138.4538  158.5971 H   0  0  0  0  0  0  0  0  0  0  0  0
  152.8988  139.3042  154.5697 H   0  0  0  0  0  0  0  0  0  0  0  0
  147.4934  141.9238  156.8949 H   0  0  0  0  0  0  0  0  0  0  0  0
  147.3157  141.9017  154.3610 H   0  0  0  0  0  0  0  0  0  0  0  0
  148.7551  141.5816  153.4577 H   0  0  0  0  0  0  0  0  0  0  0  0
  146.9064  140.5207  151.7823 H   0  0  0  0  0  0  0  0  0  0  0  0
  148.4931  139.7985  151.8079 H   0  0  0  0  0  0  0  0  0  0  0  0
  147.5739  137.8106  151.8253 H   0  0  0  0  0  0  0  0  0  0  0  0
  148.0222  137.6945  153.8532 H   0  0  0  0  0  0  0  0  0  0  0  0
  149.3793  138.7509  154.1337 H   0  0  0  0  0  0  0  0  0  0  0  0
  148.6439  137.5508  156.2024 H   0  0  0  0  0  0  0  0  0  0  0  0
  148.5263  139.2778  156.4276 H   0  0  0  0  0  0  0  0  0  0  0  0
  144.9182  139.2296  156.0705 H   0  0  0  0  0  0  0  0  0  0  0  0
  146.2802  140.2963  156.3240 H   0  0  0  0  0  0  0  0  0  0  0  0
  145.4059  140.4414  153.9469 H   0  0  0  0  0  0  0  0  0  0  0  0
  145.6094  138.7288  153.7823 H   0  0  0  0  0  0  0  0  0  0  0  0
  153.3529  142.1288  158.7316 H   0  0  0  0  0  0  0  0  0  0  0  0
  150.4544  142.3361  159.6829 H   0  0  0  0  0  0  0  0  0  0  0  0
  150.9897  142.8262  158.1073 H   0  0  0  0  0  0  0  0  0  0  0  0
  1  2  1  0  0  0  0
  1 31  1  0  0  0  0
  1 32  1  0  0  0  0
  1 33  1  0  0  0  0
  2  3  1  0  0  0  0
  3 30  1  0  0  0  0
  3  4  1  0  0  0  0
  3 34  1  0  0  0  0
  4  5  1  0  0  0  0
  4 35  1  0  0  0  0
  4 36  1  0  0  0  0
  5  6  1  0  0  0  0
  5 37  1  0  0  0  0
  5 38  1  0  0  0  0
  6 29  1  0  0  0  0
  6  7  1  0  0  0  0
  6 39  1  0  0  0  0
  7  8  1  0  0  0  0
  8  9  1  0  0  0  0
  8 40  1  0  0  0  0
  8 41  1  0  0  0  0
  9 10  1  0  0  0  0
  9 42  1  0  0  0  0
  9 43  1  0  0  0  0
 10 11  1  0  0  0  0
 10 29  1  0  0  0  0
 11 16  1  0  0  0  0
 11 12  2  0  0  0  0
 12 13  1  0  0  0  0
 13 14  2  0  0  0  0
 13 44  1  0  0  0  0
 14 15  1  0  0  0  0
 15 19  1  0  0  0  0
 15 16  2  0  0  0  0
 16 17  1  0  0  0  0
 17 18  2  0  0  0  0
 18 19  1  0  0  0  0
 18 45  1  0  0  0  0
 19 20  1  0  0  0  0
 20 21  1  0  0  0  0
 20 46  1  0  0  0  0
 20 47  1  0  0  0  0
 21 28  1  0  0  0  0
 21 22  1  0  0  0  0
 21 24  1  0  0  0  0
 22 23  1  0  0  0  0
 22 48  1  0  0  0  0
 22 49  1  0  0  0  0
 23 50  1  0  0  0  0
 24 25  1  0  0  0  0
 24 51  1  0  0  0  0
 24 52  1  0  0  0  0
 25 26  1  0  0  0  0
 25 53  1  0  0  0  0
 25 54  1  0  0  0  0
 26 27  1  0  0  0  0
 27 28  1  0  0  0  0
 27 55  1  0  0  0  0
 27 56  1  0  0  0  0
 28 57  1  0  0  0  0
 28 58  1  0  0  0  0
 29 30  1  0  0  0  0
 29 59  1  0  0  0  0
 30 60  1  0  0  0  0
 30 61  1  0  0  0  0
M  END
> <s_m_source_file>
AV-unprocessed.smi

> <i_m_source_file_index>
177

> <i_lp_mmshare_version>
43012

> <i_f3d_flags>
0

> <s_epik_input>
W0NIM11PW0NASF0oW0NIMl1bQ0gyXTEpW0NIMl1bQ0BIXShbQ0BASF0xMilOKFtDSDJdW0NIMl1PMiljKG5bY0hdbjMpYyhjMzQpbltjSF1uNFtDSDJdQzUoW0NIMl1bT0hdKVtDSDJdW0NIMl1PW0NIMl1bQ0gyXTU=

> <s_epik_cmdline>
J2VwaWtfcHl0aG9uJywgJy1waCcsICc3LjAnLCAnLXRuJywgJzgnLCAnLW1hJywgJzIwMCcsICctbWV0YWxfYmluZGluZycsICctaW1hZScsICc8aW5maWxlLm1hZT4nLCAnLW9tYWUnLCAnPG91dGZpbGUubWFlPic=

> <r_lp_tautomer_probability>
1

> <r_epik_Ionization_Penalty>
0.0065899

> <r_epik_Ionization_Penalty_Charging>
0

> <r_epik_Ionization_Penalty_Neutral>
0.0065899

> <r_epik_State_Penalty>
0.00470042

> <r_epik_Charging_Adjusted_Penalty>
0.00470042

> <i_epik_Tot_Q>
0

> <i_epik_Tot_abs_Q>
0

> <r_epik_Metal_State_Penalty>
-0

> <b_epik_Metal_Only>
0

> <s_lp_Force_Field>
OPLS_2005

> <r_lp_Energy>
42.7066

> <b_lp_Chiralities_Consistent>
1

> <s_lp_Variant>
AV-unprocessed.smi:177-7

> <Gold.Version>
5.8.1

> <Gold.Id.Protein>
6NUR|6NUR_protein|mol2

> <Gold.PLP.Fitness>
50.2918

> <Gold.PLP.PLP>
-44.9649

> <Gold.PLP.part.hbond>
-4.2213

> <Gold.PLP.part.metal>
0.0000

> <Gold.PLP.part.buried>
-1.3558

> <Gold.PLP.part.nonpolar>
-39.9654

> <Gold.PLP.part.repulsive>
0.1241

> <Gold.PLP.ligand.clash>
0.0008

> <Gold.PLP.ligand.torsion>
1.4697

> <Gold.PLP.Chemscore.Hbond>
2.7000

> <Gold.PLP.Chemscore.CHOScore>
0.0000

> <Gold.PLP.Chemscore.Metal>
0.0000

> <Gold.Chemscore.Hbonds>
donor molecule, donor type, donor heavy atom, donor atom, acceptor molecule, acceptor atom, score
      L1  H    23    50       P1  7948  0.91
      P1  H  7989  7998       L1    14  0.80
      P1  H  7997  8008       L1    12  1.00

> <Gold.PLP.Chemscore.Internal.Correction>
0.1671

> <Gold.Rescore>
     Score         DG    S(hbond)    S(metal)    S(lipo)     H(rot)  DE(clash)    DE(int)     intcor
     10.42     -18.36       1.70        0.00     117.96       2.58       1.94       6.00       ----

> <Gold.Chemscore.Fitness>
10.4208

> <Gold.Chemscore.DG>
-18.3644

> <Gold.Chemscore.ZeroCoef>
-5.4800

> <Gold.Chemscore.Hbond>
1.7034

> <Gold.Chemscore.Metal>
0.0000

> <Gold.Chemscore.Lipo>
117.9599

> <Gold.Chemscore.Internal_Hbond>
0.0000

> <Gold.Chemscore.DEClash>
1.9431

> <Gold.Chemscore.DEInternal>
6.0004

> <Gold.Chemscore.Rot>
2.5806

> <Gold.Chemscore.Internal.Correction>
   9.000000E+99

> <Gold.Chemscore.Hbonds>
donor molecule, donor type, donor heavy atom, donor atom, acceptor molecule, acceptor atom, score
      L1  H    23    50       P1  7948  0.87
      P1  H  7989  7998       L1    14  0.11
      P1  H  7997  8008       L1    12  0.30

> <Gold.Chemscore.Hbond.Weighted>
-5.6893

> <Gold.Chemscore.Metal.Weighted>
-0.0000

> <Gold.Chemscore.Lipo.Weighted>
-13.8013

> <Gold.Chemscore.Internal_Hbond.Weighted>
0.0000

> <Gold.Chemscore.DEClash.Weighted>
1.9431

> <Gold.Chemscore.DEInternal.Weighted>
6.0004

> <Gold.Chemscore.Rot.Weighted>
6.6062

> <Gold.Chemscore.Internal.Correction.Weighted>
   9.000000E+99

> <Gold.Protein.RotatedTorsions>
[ 6907 6896 6895 6894 ] final  176.76 input  -60.11 | X-H torsion
[ 7974 7965 7964 7962 ] final  -66.17 input  175.53 | X-H torsion
[ 8008 7997 7996 7995 ] final  -40.59 input   59.86 | X-H torsion
[ 10167 10162 10161 10158 ] final -133.94 input  -65.29 | X-H torsion
[ 10718 10713 10712 10709 ] final -129.42 input   66.30 | X-H torsion
[ 10763 10752 10751 10750 ] final -119.25 input  -60.55 | X-H torsion
[ 11005 11000 10999 10996 ] final  -84.45 input  -57.11 | X-H torsion

> <Gold.Protein.ActiveResidues>
 VAL166  LYS551  ARG553  GLY616  TRP617  ASP618  TYR619  PRO620  LYS621  CYS622 
 ASP623  PHE694  ASN695  SER759  ASP760  ASP761  ALA762  ILE779  LEU786  VAL792 
 PHE793  MET794  SER795  GLU796  ALA797  LYS798  CYS799  TRP800  GLU811  SER814 

> <Gold.Protein.RotatedAtoms>
  151.7150  133.3313  159.3300 H   0  0  0  0  0  0  0  0  0  0  0  0  # atno 6907 bound_to 6896
  150.7677  134.6499  159.6292 H   0  0  0  0  0  0  0  0  0  0  0  0  # atno 6908 bound_to 6896
  152.3688  134.6767  160.0235 H   0  0  0  0  0  0  0  0  0  0  0  0  # atno 6909 bound_to 6896
  145.7451  140.8935  143.0509 H   0  0  0  0  0  0  0  0  0  0  0  0  # atno 7974 bound_to 7965
  154.4011  140.1521  156.3052 H   0  0  0  0  0  0  0  0  0  0  0  0  # atno 8008 bound_to 7997
  155.8665  140.3451  155.5770 H   0  0  0  0  0  0  0  0  0  0  0  0  # atno 8009 bound_to 7997
  155.7822  140.0845  157.2043 H   0  0  0  0  0  0  0  0  0  0  0  0  # atno 8010 bound_to 7997
  139.8931  143.6698  152.2609 H   0  0  0  0  0  0  0  0  0  0  0  0  # atno 10167 bound_to 10162
  156.2045  130.6879  151.0578 H   0  0  0  0  0  0  0  0  0  0  0  0  # atno 10718 bound_to 10713
  154.8612  135.4245  154.2269 H   0  0  0  0  0  0  0  0  0  0  0  0  # atno 10763 bound_to 10752
  153.3262  135.6985  153.6993 H   0  0  0  0  0  0  0  0  0  0  0  0  # atno 10764 bound_to 10752
  153.6028  135.3534  155.2925 H   0  0  0  0  0  0  0  0  0  0  0  0  # atno 10765 bound_to 10752
  141.1650  133.7347  156.8870 H   0  0  0  0  0  0  0  0  0  0  0  0  # atno 11005 bound_to 11000
  144.6862  139.9514  143.7478 LP  0  0  0  0  0  0  0  0  0  0  0  0  # atno 17320 bound_to 7965
  146.0411  139.3422  143.0697 LP  0  0  0  0  0  0  0  0  0  0  0  0  # atno 17321 bound_to 7965
  139.7092  144.7623  151.1141 LP  0  0  0  0  0  0  0  0  0  0  0  0  # atno 17342 bound_to 10162
  140.7722  143.5353  150.9375 LP  0  0  0  0  0  0  0  0  0  0  0  0  # atno 17343 bound_to 10162
  157.7004  131.0778  150.6837 LP  0  0  0  0  0  0  0  0  0  0  0  0  # atno 17370 bound_to 10713
  156.6895  130.4591  149.5604 LP  0  0  0  0  0  0  0  0  0  0  0  0  # atno 17371 bound_to 10713
  140.1675  134.9123  157.2792 LP  0  0  0  0  0  0  0  0  0  0  0  0  # atno 17394 bound_to 11000
  140.2540  134.3649  155.7431 LP  0  0  0  0  0  0  0  0  0  0  0  0  # atno 17395 bound_to 11000

$$$$
