AV-unprocessed.smi:1005|AV-procd|sdf|4364|dock8
  -GOLD-   22720 2263D 1   1.00000     0.00000
 Structure written by MMmdl.
 56 58  0  0  0  0  0  0  0  0  2 V2000
  153.4374  142.6026  161.4085 C   0  0  0  0  0  0  0  0  0  0  0  0
  152.6942  142.3284  160.1131 C   0  0  0  0  0  0  0  0  0  0  0  0
  153.0292  141.1819  159.3580 C   0  0  0  0  0  0  0  0  0  0  0  0
  152.3604  140.8898  158.1493 C   0  0  0  0  0  0  0  0  0  0  0  0
  152.5214  139.8366  157.2654 N   0  0  0  0  0  0  0  0  0  0  0  0
  151.6107  140.1226  156.3399 C   0  0  0  0  0  0  0  0  0  0  0  0
  150.8712  141.2330  156.5238 N   0  0  0  0  0  0  0  0  0  0  0  0
  149.8163  141.7290  155.6582 C   0  0  0  0  0  0  0  0  0  0  0  0
  149.2633  140.6322  154.7293 C   0  0  2  0  0  0  0  0  0  0  0  0
  149.7711  140.8672  153.4327 O   0  0  0  0  0  0  0  0  0  0  0  0
  147.7196  140.6191  154.6497 C   0  0  0  0  0  0  0  0  0  0  0  0
  147.1318  139.3887  154.1193 N   0  0  0  0  0  0  0  0  0  0  0  0
  146.9260  139.4928  152.6789 C   0  0  0  0  0  0  0  0  0  0  0  0
  146.2979  138.2168  152.0956 C   0  0  0  0  0  0  0  0  0  0  0  0
  145.0693  137.9467  152.7623 O   0  0  0  0  0  0  0  0  0  0  0  0
  145.2222  137.7846  154.1704 C   0  0  2  0  0  0  0  0  0  0  0  0
  143.8328  137.5128  154.7730 C   0  0  0  0  0  0  0  0  0  0  0  0
  142.7584  138.2868  154.1010 N   0  3  0  0  0  0  0  0  0  0  0  0
  142.2552  137.6423  152.8662 C   0  0  0  0  0  0  0  0  0  0  0  0
  141.6539  138.6258  155.0252 C   0  0  0  0  0  0  0  0  0  0  0  0
  145.8524  139.0668  154.7510 C   0  0  0  0  0  0  0  0  0  0  0  0
  151.3385  141.7830  157.7128 C   0  0  0  0  0  0  0  0  0  0  0  0
  150.9969  142.9275  158.4548 C   0  0  0  0  0  0  0  0  0  0  0  0
  151.6762  143.2053  159.6594 C   0  0  0  0  0  0  0  0  0  0  0  0
  151.2996  144.4436  160.4530 C   0  0  0  0  0  0  0  0  0  0  0  0
  154.1471  141.8068  161.6374 H   0  0  0  0  0  0  0  0  0  0  0  0
  152.7394  142.6765  162.2425 H   0  0  0  0  0  0  0  0  0  0  0  0
  153.9940  143.5374  161.3379 H   0  0  0  0  0  0  0  0  0  0  0  0
  153.8045  140.5136  159.7028 H   0  0  0  0  0  0  0  0  0  0  0  0
  151.4662  139.4836  155.4809 H   0  0  0  0  0  0  0  0  0  0  0  0
  149.0198  142.1480  156.2743 H   0  0  0  0  0  0  0  0  0  0  0  0
  150.2226  142.5537  155.0708 H   0  0  0  0  0  0  0  0  0  0  0  0
  149.6524  139.6736  155.0691 H   0  0  0  0  0  0  0  0  0  0  0  0
  149.3857  140.2376  152.8425 H   0  0  0  0  0  0  0  0  0  0  0  0
  147.2939  140.8009  155.6366 H   0  0  0  0  0  0  0  0  0  0  0  0
  147.4042  141.4701  154.0438 H   0  0  0  0  0  0  0  0  0  0  0  0
  146.2820  140.3454  152.4572 H   0  0  0  0  0  0  0  0  0  0  0  0
  147.8776  139.6838  152.1813 H   0  0  0  0  0  0  0  0  0  0  0  0
  146.1062  138.3410  151.0297 H   0  0  0  0  0  0  0  0  0  0  0  0
  146.9744  137.3675  152.2036 H   0  0  0  0  0  0  0  0  0  0  0  0
  145.8916  136.9464  154.3662 H   0  0  0  0  0  0  0  0  0  0  0  0
  143.5954  136.4487  154.7282 H   0  0  0  0  0  0  0  0  0  0  0  0
  143.8645  137.7741  155.8321 H   0  0  0  0  0  0  0  0  0  0  0  0
  141.8152  136.6683  153.0849 H   0  0  0  0  0  0  0  0  0  0  0  0
  143.0495  137.5019  152.1339 H   0  0  0  0  0  0  0  0  0  0  0  0
  141.4898  138.2611  152.3964 H   0  0  0  0  0  0  0  0  0  0  0  0
  141.1634  137.7247  155.3958 H   0  0  0  0  0  0  0  0  0  0  0  0
  140.9061  139.2417  154.5245 H   0  0  0  0  0  0  0  0  0  0  0  0
  142.0244  139.1917  155.8808 H   0  0  0  0  0  0  0  0  0  0  0  0
  145.9796  138.9330  155.8240 H   0  0  0  0  0  0  0  0  0  0  0  0
  145.1595  139.9004  154.6243 H   0  0  0  0  0  0  0  0  0  0  0  0
  150.2171  143.5852  158.1006 H   0  0  0  0  0  0  0  0  0  0  0  0
  150.5496  145.0380  159.9302 H   0  0  0  0  0  0  0  0  0  0  0  0
  152.1723  145.0766  160.6146 H   0  0  0  0  0  0  0  0  0  0  0  0
  150.8891  144.1634  161.4232 H   0  0  0  0  0  0  0  0  0  0  0  0
  143.1706  139.1679  153.8267 H   0  0  0  0  0  0  0  0  0  0  0  0
  1  2  1  0  0  0  0
  1 26  1  0  0  0  0
  1 27  1  0  0  0  0
  1 28  1  0  0  0  0
  2 24  1  0  0  0  0
  2  3  2  0  0  0  0
  3  4  1  0  0  0  0
  3 29  1  0  0  0  0
  4 22  2  0  0  0  0
  4  5  1  0  0  0  0
  5  6  2  0  0  0  0
  6  7  1  0  0  0  0
  6 30  1  0  0  0  0
  7  8  1  0  0  0  0
  7 22  1  0  0  0  0
  8  9  1  0  0  0  0
  8 31  1  0  0  0  0
  8 32  1  0  0  0  0
  9 10  1  0  0  0  0
  9 11  1  0  0  0  0
  9 33  1  0  0  0  0
 10 34  1  0  0  0  0
 11 12  1  0  0  0  0
 11 35  1  0  0  0  0
 11 36  1  0  0  0  0
 12 21  1  0  0  0  0
 12 13  1  0  0  0  0
 13 14  1  0  0  0  0
 13 37  1  0  0  0  0
 13 38  1  0  0  0  0
 14 15  1  0  0  0  0
 14 39  1  0  0  0  0
 14 40  1  0  0  0  0
 15 16  1  0  0  0  0
 16 17  1  0  0  0  0
 16 21  1  0  0  0  0
 16 41  1  0  0  0  0
 17 18  1  0  0  0  0
 17 42  1  0  0  0  0
 17 43  1  0  0  0  0
 18 19  1  0  0  0  0
 18 20  1  0  0  0  0
 18 56  1  0  0  0  0
 19 44  1  0  0  0  0
 19 45  1  0  0  0  0
 19 46  1  0  0  0  0
 20 47  1  0  0  0  0
 20 48  1  0  0  0  0
 20 49  1  0  0  0  0
 21 50  1  0  0  0  0
 21 51  1  0  0  0  0
 22 23  1  0  0  0  0
 23 24  2  0  0  0  0
 23 52  1  0  0  0  0
 24 25  1  0  0  0  0
 25 53  1  0  0  0  0
 25 54  1  0  0  0  0
 25 55  1  0  0  0  0
M  CHG  1  18   1
M  END
> <s_m_source_file>
AV-unprocessed.smi

> <i_m_source_file_index>
1005

> <i_lp_mmshare_version>
43012

> <i_f3d_flags>
0

> <s_epik_input>
W0NIM11jKFtjSF0xKWMoW0NIM10pW2NIXWMoYzEyKW4oW2NIXW4yKVtDSDJdW0NASF0oW09IXSlbQ0gyXU4zW0NIMl1bQ0gyXU9bQ0BIXShbQ0gyXTMpW0NIMl1OKFtDSDNdKVtDSDNd

> <s_epik_cmdline>
J2VwaWtfcHl0aG9uJywgJy1waCcsICc3LjAnLCAnLXRuJywgJzgnLCAnLW1hJywgJzIwMCcsICctbWV0YWxfYmluZGluZycsICctaW1hZScsICc8aW5maWxlLm1hZT4nLCAnLW9tYWUnLCAnPG91dGZpbGUubWFlPic=

> <r_epik_Ionization_Penalty>
0.226781

> <r_epik_Ionization_Penalty_Charging>
0.00915946

> <r_epik_Ionization_Penalty_Neutral>
0.217622

> <r_epik_State_Penalty>
0.173018

> <r_epik_Charging_Adjusted_Penalty>
0.182178

> <i_epik_Tot_Q>
1

> <i_epik_Tot_abs_Q>
1

> <r_epik_Metal_State_Penalty>
0.0905268

> <b_epik_Metal_Only>
0

> <s_lp_Force_Field>
OPLS_2005

> <r_lp_Energy>
37.9452

> <b_lp_Chiralities_Consistent>
1

> <s_lp_Variant>
AV-unprocessed.smi:1005-3

> <Gold.Version>
5.8.1

> <Gold.Id.Protein>
6NUR|6NUR_protein|mol2

> <Gold.PLP.Fitness>
54.8974

> <Gold.PLP.PLP>
-44.0478

> <Gold.PLP.part.hbond>
-4.3700

> <Gold.PLP.part.metal>
0.0000

> <Gold.PLP.part.buried>
-3.7308

> <Gold.PLP.part.nonpolar>
-36.3809

> <Gold.PLP.part.repulsive>
1.1058

> <Gold.PLP.ligand.clash>
0.0000

> <Gold.PLP.ligand.torsion>
2.0667

> <Gold.PLP.Chemscore.Hbond>
4.9120

> <Gold.PLP.Chemscore.CHOScore>
0.0000

> <Gold.PLP.Chemscore.Metal>
0.0000

> <Gold.Chemscore.Hbonds>
donor molecule, donor type, donor heavy atom, donor atom, acceptor molecule, acceptor atom, score
      L1  H    10    34       P1  7957  0.59
      L1  H    18    56       P1 10175  2.00
      P1  H  7989  7998       L1    10  0.29
      P1  H  7997  8010       L1     5  1.00
      P1  H  8011  8017       L1    10  1.00

> <Gold.PLP.Chemscore.Internal.Correction>
0.2470

> <Gold.Rescore>
     Score         DG    S(hbond)    S(metal)    S(lipo)     H(rot)  DE(clash)    DE(int)     intcor
     19.83     -23.46       3.04        0.00     119.79       2.41       0.23       3.40       ----

> <Gold.Chemscore.Fitness>
19.8269

> <Gold.Chemscore.DG>
-23.4624

> <Gold.Chemscore.ZeroCoef>
-5.4800

> <Gold.Chemscore.Hbond>
3.0376

> <Gold.Chemscore.Metal>
0.0000

> <Gold.Chemscore.Lipo>
119.7928

> <Gold.Chemscore.Internal_Hbond>
0.0000

> <Gold.Chemscore.DEClash>
0.2342

> <Gold.Chemscore.DEInternal>
3.4014

> <Gold.Chemscore.Rot>
2.4136

> <Gold.Chemscore.Internal.Correction>
   9.000000E+99

> <Gold.Chemscore.Hbonds>
donor molecule, donor type, donor heavy atom, donor atom, acceptor molecule, acceptor atom, score
      L1  H    10    34       P1  7957  0.58
      L1  H    18    56       P1 10175  0.95
      P1  H  7989  7998       L1    10  0.21
      P1  H  7997  8010       L1     5  0.32
      P1  H  8011  8017       L1    10  0.29

> <Gold.Chemscore.Hbond.Weighted>
-10.1455

> <Gold.Chemscore.Metal.Weighted>
-0.0000

> <Gold.Chemscore.Lipo.Weighted>
-14.0158

> <Gold.Chemscore.Internal_Hbond.Weighted>
0.0000

> <Gold.Chemscore.DEClash.Weighted>
0.2342

> <Gold.Chemscore.DEInternal.Weighted>
3.4014

> <Gold.Chemscore.Rot.Weighted>
6.1788

> <Gold.Chemscore.Internal.Correction.Weighted>
   9.000000E+99

> <Gold.Protein.RotatedTorsions>
[ 6907 6896 6895 6894 ] final  -57.26 input  -60.11 | X-H torsion
[ 7974 7965 7964 7962 ] final -144.86 input  175.53 | X-H torsion
[ 8008 7997 7996 7995 ] final   67.05 input   59.86 | X-H torsion
[ 10167 10162 10161 10158 ] final -120.70 input  -65.29 | X-H torsion
[ 10718 10713 10712 10709 ] final  -40.76 input   66.30 | X-H torsion
[ 10763 10752 10751 10750 ] final   91.02 input  -60.55 | X-H torsion
[ 11005 11000 10999 10996 ] final  129.28 input  -57.11 | X-H torsion

> <Gold.Protein.ActiveResidues>
 VAL166  LYS551  ARG553  GLY616  TRP617  ASP618  TYR619  PRO620  LYS621  CYS622 
 ASP623  PHE694  ASN695  SER759  ASP760  ASP761  ALA762  ILE779  LEU786  VAL792 
 PHE793  MET794  SER795  GLU796  ALA797  LYS798  CYS799  TRP800  GLU811  SER814 

> <Gold.Protein.RotatedAtoms>
  150.8100  134.7249  159.6678 H   0  0  0  0  0  0  0  0  0  0  0  0  # atno 6907 bound_to 6896
  152.4220  134.5934  159.9990 H   0  0  0  0  0  0  0  0  0  0  0  0  # atno 6908 bound_to 6896
  151.6147  133.3307  159.3111 H   0  0  0  0  0  0  0  0  0  0  0  0  # atno 6909 bound_to 6896
  144.8267  140.5656  143.5542 H   0  0  0  0  0  0  0  0  0  0  0  0  # atno 7974 bound_to 7965
  155.6870  140.3496  155.4878 H   0  0  0  0  0  0  0  0  0  0  0  0  # atno 8008 bound_to 7997
  155.9558  140.1128  157.0961 H   0  0  0  0  0  0  0  0  0  0  0  0  # atno 8009 bound_to 7997
  154.4132  140.1185  156.5099 H   0  0  0  0  0  0  0  0  0  0  0  0  # atno 8010 bound_to 7997
  140.0330  143.5229  152.2167 H   0  0  0  0  0  0  0  0  0  0  0  0  # atno 10167 bound_to 10162
  156.2777  130.4213  149.8369 H   0  0  0  0  0  0  0  0  0  0  0  0  # atno 10718 bound_to 10713
  153.2038  135.4412  155.0298 H   0  0  0  0  0  0  0  0  0  0  0  0  # atno 10763 bound_to 10752
  154.8162  135.3316  154.7172 H   0  0  0  0  0  0  0  0  0  0  0  0  # atno 10764 bound_to 10752
  153.7615  135.6991  153.4980 H   0  0  0  0  0  0  0  0  0  0  0  0  # atno 10765 bound_to 10752
  139.9607  134.9603  156.9125 H   0  0  0  0  0  0  0  0  0  0  0  0  # atno 11005 bound_to 11000
  145.4984  139.1484  143.3671 LP  0  0  0  0  0  0  0  0  0  0  0  0  # atno 17320 bound_to 7965
  146.2572  140.5123  142.8868 LP  0  0  0  0  0  0  0  0  0  0  0  0  # atno 17321 bound_to 7965
  139.6063  144.7597  151.3054 LP  0  0  0  0  0  0  0  0  0  0  0  0  # atno 17342 bound_to 10162
  140.7294  143.6910  150.7922 LP  0  0  0  0  0  0  0  0  0  0  0  0  # atno 17343 bound_to 10162
  156.5828  130.8473  151.3387 LP  0  0  0  0  0  0  0  0  0  0  0  0  # atno 17370 bound_to 10713
  157.7305  130.9686  150.1834 LP  0  0  0  0  0  0  0  0  0  0  0  0  # atno 17371 bound_to 10713
  140.5508  134.0629  155.7368 LP  0  0  0  0  0  0  0  0  0  0  0  0  # atno 17394 bound_to 11000
  141.1283  133.9345  157.2588 LP  0  0  0  0  0  0  0  0  0  0  0  0  # atno 17395 bound_to 11000

$$$$
