AV-unprocessed.smi:1554|AV-procd|sdf|6254|dock8
  -GOLD-   22720 6443D 1   1.00000     0.00000
 Structure written by MMmdl.
 48 50  0  0  0  0  0  0  0  0  2 V2000
  152.3165  144.3743  159.8966 C   0  0  0  0  0  0  0  0  0  0  0  0
  152.0267  143.2170  158.9559 C   0  0  0  0  0  0  0  0  0  0  0  0
  151.1370  143.4301  157.8790 C   0  0  0  0  0  0  0  0  0  0  0  0
  150.8912  142.3525  157.0363 C   0  0  0  0  0  0  0  0  0  0  0  0
  150.0773  142.2431  155.9069 N   0  3  0  0  0  0  0  0  0  0  0  0
  150.1568  140.9777  155.4104 C   0  0  0  0  0  0  0  0  0  0  0  0
  151.0095  140.2769  156.2060 N   0  0  0  0  0  0  0  0  0  0  0  0
  151.4346  138.8729  156.1110 C   0  0  0  0  0  0  0  0  0  0  0  0
  151.9981  138.5136  154.7204 C   0  0  2  0  0  0  0  0  0  0  0  0
  152.0176  137.1091  154.5646 O   0  0  0  0  0  0  0  0  0  0  0  0
  153.4367  139.0268  154.5110 C   0  0  0  0  0  0  0  0  0  0  0  0
  154.5006  138.0896  154.8729 N   0  0  0  0  0  0  0  0  0  0  0  0
  154.6911  137.9842  156.3177 C   0  0  0  0  0  0  0  0  0  0  0  0
  155.8351  137.0209  156.6770 C   0  0  0  0  0  0  0  0  0  0  0  0
  157.0337  137.4371  156.0314 O   0  0  0  0  0  0  0  0  0  0  0  0
  156.9067  137.5042  154.6140 C   0  0  2  0  0  0  0  0  0  0  0  0
  158.2512  137.9512  154.0306 C   0  0  0  0  0  0  0  0  0  0  0  0
  155.7659  138.4768  154.2577 C   0  0  0  0  0  0  0  0  0  0  0  0
  151.4951  141.0951  157.2335 C   0  0  0  0  0  0  0  0  0  0  0  0
  152.3746  140.8691  158.2899 C   0  0  0  0  0  0  0  0  0  0  0  0
  152.6388  141.9529  159.1576 C   0  0  0  0  0  0  0  0  0  0  0  0
  153.5952  141.7352  160.3177 C   0  0  0  0  0  0  0  0  0  0  0  0
  151.7293  145.2559  159.6375 H   0  0  0  0  0  0  0  0  0  0  0  0
  153.3703  144.6495  159.8497 H   0  0  0  0  0  0  0  0  0  0  0  0
  152.0734  144.1050  160.9247 H   0  0  0  0  0  0  0  0  0  0  0  0
  150.6674  144.3897  157.7191 H   0  0  0  0  0  0  0  0  0  0  0  0
  149.6363  140.5977  154.5430 H   0  0  0  0  0  0  0  0  0  0  0  0
  152.2020  138.7249  156.8720 H   0  0  0  0  0  0  0  0  0  0  0  0
  150.6051  138.2218  156.3869 H   0  0  0  0  0  0  0  0  0  0  0  0
  151.3387  138.9048  153.9462 H   0  0  0  0  0  0  0  0  0  0  0  0
  151.1339  136.7856  154.6478 H   0  0  0  0  0  0  0  0  0  0  0  0
  153.5450  139.2963  153.4592 H   0  0  0  0  0  0  0  0  0  0  0  0
  153.5732  139.9547  155.0694 H   0  0  0  0  0  0  0  0  0  0  0  0
  154.9040  138.9691  156.7363 H   0  0  0  0  0  0  0  0  0  0  0  0
  153.7792  137.6304  156.7971 H   0  0  0  0  0  0  0  0  0  0  0  0
  155.9971  137.0094  157.7549 H   0  0  0  0  0  0  0  0  0  0  0  0
  155.5884  136.0008  156.3787 H   0  0  0  0  0  0  0  0  0  0  0  0
  156.6718  136.5091  154.2318 H   0  0  0  0  0  0  0  0  0  0  0  0
  158.2076  138.0089  152.9427 H   0  0  0  0  0  0  0  0  0  0  0  0
  159.0427  137.2495  154.2945 H   0  0  0  0  0  0  0  0  0  0  0  0
  158.5371  138.9336  154.4075 H   0  0  0  0  0  0  0  0  0  0  0  0
  155.6516  138.5140  153.1737 H   0  0  0  0  0  0  0  0  0  0  0  0
  156.0367  139.4850  154.5761 H   0  0  0  0  0  0  0  0  0  0  0  0
  152.8373  139.9066  158.4488 H   0  0  0  0  0  0  0  0  0  0  0  0
  154.0061  140.7250  160.3122 H   0  0  0  0  0  0  0  0  0  0  0  0
  153.0821  141.8809  161.2685 H   0  0  0  0  0  0  0  0  0  0  0  0
  154.4308  142.4333  160.2630 H   0  0  0  0  0  0  0  0  0  0  0  0
  149.5074  142.9757  155.5037 H   0  0  0  0  0  0  0  0  0  0  0  0
  1  2  1  0  0  0  0
  1 23  1  0  0  0  0
  1 24  1  0  0  0  0
  1 25  1  0  0  0  0
  2 21  1  0  0  0  0
  2  3  2  0  0  0  0
  3  4  1  0  0  0  0
  3 26  1  0  0  0  0
  4 19  2  0  0  0  0
  4  5  1  0  0  0  0
  5  6  2  0  0  0  0
  5 48  1  0  0  0  0
  6  7  1  0  0  0  0
  6 27  1  0  0  0  0
  7  8  1  0  0  0  0
  7 19  1  0  0  0  0
  8  9  1  0  0  0  0
  8 28  1  0  0  0  0
  8 29  1  0  0  0  0
  9 10  1  0  0  0  0
  9 11  1  0  0  0  0
  9 30  1  0  0  0  0
 10 31  1  0  0  0  0
 11 12  1  0  0  0  0
 11 32  1  0  0  0  0
 11 33  1  0  0  0  0
 12 18  1  0  0  0  0
 12 13  1  0  0  0  0
 13 14  1  0  0  0  0
 13 34  1  0  0  0  0
 13 35  1  0  0  0  0
 14 15  1  0  0  0  0
 14 36  1  0  0  0  0
 14 37  1  0  0  0  0
 15 16  1  0  0  0  0
 16 17  1  0  0  0  0
 16 18  1  0  0  0  0
 16 38  1  0  0  0  0
 17 39  1  0  0  0  0
 17 40  1  0  0  0  0
 17 41  1  0  0  0  0
 18 42  1  0  0  0  0
 18 43  1  0  0  0  0
 19 20  1  0  0  0  0
 20 21  2  0  0  0  0
 20 44  1  0  0  0  0
 21 22  1  0  0  0  0
 22 45  1  0  0  0  0
 22 46  1  0  0  0  0
 22 47  1  0  0  0  0
M  CHG  1   5   1
M  END
> <s_m_source_file>
AV-unprocessed.smi

> <i_m_source_file_index>
1554

> <i_lp_mmshare_version>
43012

> <i_f3d_flags>
0

> <s_epik_input>
W0NIM11jKFtjSF0xKWMoW0NIM10pW2NIXWMoYzEyKW4oW2NIXW4yKVtDSDJdW0NASF0oW09IXSlbQ0gyXU4zW0NIMl1bQ0gyXU9bQ0BASF0oW0NIM10pW0NIMl0z

> <s_epik_cmdline>
J2VwaWtfcHl0aG9uJywgJy1waCcsICc3LjAnLCAnLXRuJywgJzgnLCAnLW1hJywgJzIwMCcsICctbWV0YWxfYmluZGluZycsICctaW1hZScsICc8aW5maWxlLm1hZT4nLCAnLW9tYWUnLCAnPG91dGZpbGUubWFlPic=

> <r_epik_Ionization_Penalty>
1.42504

> <r_epik_Ionization_Penalty_Charging>
1.21068

> <r_epik_Ionization_Penalty_Neutral>
0.214359

> <r_epik_State_Penalty>
1.46962

> <r_epik_Charging_Adjusted_Penalty>
2.6803

> <i_epik_Tot_Q>
1

> <i_epik_Tot_abs_Q>
1

> <r_epik_Metal_State_Penalty>
5.48754

> <b_epik_Metal_Only>
0

> <s_lp_Force_Field>
OPLS_2005

> <r_lp_Energy>
32.4448

> <b_lp_Chiralities_Consistent>
1

> <s_lp_Variant>
AV-unprocessed.smi:1554-15

> <Gold.Version>
5.8.1

> <Gold.Id.Protein>
6NUR|6NUR_protein|mol2

> <Gold.PLP.Fitness>
51.6972

> <Gold.PLP.PLP>
-44.1373

> <Gold.PLP.part.hbond>
-4.0000

> <Gold.PLP.part.metal>
0.0000

> <Gold.PLP.part.buried>
0.8590

> <Gold.PLP.part.nonpolar>
-41.2576

> <Gold.PLP.part.repulsive>
0.2017

> <Gold.PLP.ligand.clash>
0.0000

> <Gold.PLP.ligand.torsion>
0.7216

> <Gold.PLP.Chemscore.Hbond>
3.0000

> <Gold.PLP.Chemscore.CHOScore>
0.0000

> <Gold.PLP.Chemscore.Metal>
0.0000

> <Gold.Chemscore.Hbonds>
donor molecule, donor type, donor heavy atom, donor atom, acceptor molecule, acceptor atom, score
      L1  H     5    48       P1  8028  1.89
      P1  H 10752 10765       L1    10  0.98

> <Gold.PLP.Chemscore.Internal.Correction>
0.0031

> <Gold.Rescore>
     Score         DG    S(hbond)    S(metal)    S(lipo)     H(rot)  DE(clash)    DE(int)     intcor
     20.82     -22.81       1.90        0.00     138.51       2.04       1.23       0.75       ----

> <Gold.Chemscore.Fitness>
20.8239

> <Gold.Chemscore.DG>
-22.8082

> <Gold.Chemscore.ZeroCoef>
-5.4800

> <Gold.Chemscore.Hbond>
1.9016

> <Gold.Chemscore.Metal>
0.0000

> <Gold.Chemscore.Lipo>
138.5142

> <Gold.Chemscore.Internal_Hbond>
0.0000

> <Gold.Chemscore.DEClash>
1.2349

> <Gold.Chemscore.DEInternal>
0.7493

> <Gold.Chemscore.Rot>
2.0427

> <Gold.Chemscore.Internal.Correction>
   9.000000E+99

> <Gold.Chemscore.Hbonds>
donor molecule, donor type, donor heavy atom, donor atom, acceptor molecule, acceptor atom, score
      L1  H     5    48       P1  8028  0.91
      P1  H 10752 10765       L1    10  0.37

> <Gold.Chemscore.Hbond.Weighted>
-6.3515

> <Gold.Chemscore.Metal.Weighted>
-0.0000

> <Gold.Chemscore.Lipo.Weighted>
-16.2062

> <Gold.Chemscore.Internal_Hbond.Weighted>
0.0000

> <Gold.Chemscore.DEClash.Weighted>
1.2349

> <Gold.Chemscore.DEInternal.Weighted>
0.7493

> <Gold.Chemscore.Rot.Weighted>
5.2294

> <Gold.Chemscore.Internal.Correction.Weighted>
   9.000000E+99

> <Gold.Protein.RotatedTorsions>
[ 6907 6896 6895 6894 ] final   79.13 input  -60.11 | X-H torsion
[ 7974 7965 7964 7962 ] final   30.93 input  175.53 | X-H torsion
[ 8008 7997 7996 7995 ] final -158.47 input   59.86 | X-H torsion
[ 10167 10162 10161 10158 ] final   37.02 input  -65.29 | X-H torsion
[ 10718 10713 10712 10709 ] final -132.59 input   66.30 | X-H torsion
[ 10763 10752 10751 10750 ] final  167.22 input  -60.55 | X-H torsion
[ 11005 11000 10999 10996 ] final  134.82 input  -57.11 | X-H torsion

> <Gold.Protein.ActiveResidues>
 VAL166  LYS551  ARG553  GLY616  TRP617  ASP618  TYR619  PRO620  LYS621  CYS622 
 ASP623  PHE694  ASN695  SER759  ASP760  ASP761  ALA762  ILE779  LEU786  VAL792 
 PHE793  MET794  SER795  GLU796  ALA797  LYS798  CYS799  TRP800  GLU811  SER814 

> <Gold.Protein.RotatedAtoms>
  152.5187  134.3558  159.9266 H   0  0  0  0  0  0  0  0  0  0  0  0  # atno 6907 bound_to 6896
  151.3509  133.3919  159.2688 H   0  0  0  0  0  0  0  0  0  0  0  0  # atno 6908 bound_to 6896
  150.9728  134.9116  159.7856 H   0  0  0  0  0  0  0  0  0  0  0  0  # atno 6909 bound_to 6896
  146.1581  139.6723  142.9052 H   0  0  0  0  0  0  0  0  0  0  0  0  # atno 7974 bound_to 7965
  155.7481  140.0823  157.2214 H   0  0  0  0  0  0  0  0  0  0  0  0  # atno 8008 bound_to 7997
  154.4015  140.1565  156.2748 H   0  0  0  0  0  0  0  0  0  0  0  0  # atno 8009 bound_to 7997
  155.8957  140.3412  155.5991 H   0  0  0  0  0  0  0  0  0  0  0  0  # atno 8010 bound_to 7997
  140.4072  144.1642  150.6137 H   0  0  0  0  0  0  0  0  0  0  0  0  # atno 10167 bound_to 10162
  156.2361  130.7067  151.0909 H   0  0  0  0  0  0  0  0  0  0  0  0  # atno 10718 bound_to 10713
  154.3507  135.2753  155.2373 H   0  0  0  0  0  0  0  0  0  0  0  0  # atno 10763 bound_to 10752
  154.4604  135.5908  153.6255 H   0  0  0  0  0  0  0  0  0  0  0  0  # atno 10764 bound_to 10752
  152.9850  135.6063  154.3717 H   0  0  0  0  0  0  0  0  0  0  0  0  # atno 10765 bound_to 10752
  139.9939  134.9504  156.9920 H   0  0  0  0  0  0  0  0  0  0  0  0  # atno 11005 bound_to 11000
  145.4657  141.0434  143.2727 LP  0  0  0  0  0  0  0  0  0  0  0  0  # atno 17320 bound_to 7965
  144.7990  139.6177  143.7080 LP  0  0  0  0  0  0  0  0  0  0  0  0  # atno 17321 bound_to 7965
  140.4677  143.2425  151.9133 LP  0  0  0  0  0  0  0  0  0  0  0  0  # atno 17342 bound_to 10162
  139.4783  144.5402  151.8539 LP  0  0  0  0  0  0  0  0  0  0  0  0  # atno 17343 bound_to 10162
  157.7155  131.0712  150.6343 LP  0  0  0  0  0  0  0  0  0  0  0  0  # atno 17370 bound_to 10713
  156.6414  130.4459  149.5751 LP  0  0  0  0  0  0  0  0  0  0  0  0  # atno 17371 bound_to 10713
  140.4855  134.1246  155.7224 LP  0  0  0  0  0  0  0  0  0  0  0  0  # atno 17394 bound_to 11000
  141.1589  133.8831  157.1903 LP  0  0  0  0  0  0  0  0  0  0  0  0  # atno 17395 bound_to 11000

$$$$
