AV-unprocessed.smi:1856|AV-procd|sdf|7535|dock6
  -GOLD-   22720 9253D 1   1.00000     0.00000
 Structure written by MMmdl.
 44 45  0  0  0  0  0  0  0  0  1 V2000
  154.1668  136.7411  162.9484 C   0  0  0  0  0  0  0  0  0  0  0  0
  153.6324  137.5462  161.7541 C   0  0  0  0  0  0  0  0  0  0  0  0
  154.2805  137.1986  160.3995 C   0  0  0  0  0  0  0  0  0  0  0  0
  153.8233  138.1036  159.2516 C   0  0  0  0  0  0  0  0  0  0  0  0
  154.6418  138.7919  158.6419 O   0  0  0  0  0  0  0  0  0  0  0  0
  152.5146  138.0757  158.9559 N   0  0  0  0  0  0  0  0  0  0  0  0
  151.8652  138.8294  157.8863 C   0  0  2  0  0  0  0  0  0  0  0  0
  152.5138  138.5207  156.5293 C   0  0  0  0  0  0  0  0  0  0  0  0
  151.9519  140.2904  158.2446 C   0  0  0  0  0  0  0  0  0  0  0  0
  152.4213  140.6996  159.4266 N   0  0  0  0  0  0  0  0  0  0  0  0
  152.3278  142.0736  159.3376 C   0  0  0  0  0  0  0  0  0  0  0  0
  152.6712  143.0787  160.2698 C   0  0  0  0  0  0  0  0  0  0  0  0
  152.4820  144.4400  159.9537 C   0  0  0  0  0  0  0  0  0  0  0  0
  151.9474  144.8143  158.7040 C   0  0  0  0  0  0  0  0  0  0  0  0
  151.5985  143.8282  157.7613 C   0  0  0  0  0  0  0  0  0  0  0  0
  151.7908  142.4702  158.0810 C   0  0  0  0  0  0  0  0  0  0  0  0
  151.5561  141.2787  157.3997 N   0  0  0  0  0  0  0  0  0  0  0  0
  151.0004  141.1568  156.0583 C   0  0  0  0  0  0  0  0  0  0  0  0
  149.4742  141.3769  156.0197 C   0  0  1  0  0  0  0  0  0  0  0  0
  148.9015  141.9959  157.3040 C   0  0  0  0  0  0  0  0  0  0  0  0
  149.1760  142.2303  154.9357 O   0  0  0  0  0  0  0  0  0  0  0  0
  153.6018  136.9727  163.8514 H   0  0  0  0  0  0  0  0  0  0  0  0
  155.2131  136.9671  163.1541 H   0  0  0  0  0  0  0  0  0  0  0  0
  154.0816  135.6689  162.7701 H   0  0  0  0  0  0  0  0  0  0  0  0
  152.5586  137.3729  161.6750 H   0  0  0  0  0  0  0  0  0  0  0  0
  153.7463  138.6123  161.9555 H   0  0  0  0  0  0  0  0  0  0  0  0
  155.3665  137.2571  160.4806 H   0  0  0  0  0  0  0  0  0  0  0  0
  154.0534  136.1612  160.1493 H   0  0  0  0  0  0  0  0  0  0  0  0
  151.9183  137.4725  159.5043 H   0  0  0  0  0  0  0  0  0  0  0  0
  150.8206  138.5299  157.8264 H   0  0  0  0  0  0  0  0  0  0  0  0
  152.0312  139.0843  155.7306 H   0  0  0  0  0  0  0  0  0  0  0  0
  152.4271  137.4616  156.2847 H   0  0  0  0  0  0  0  0  0  0  0  0
  153.5737  138.7779  156.5249 H   0  0  0  0  0  0  0  0  0  0  0  0
  153.0806  142.8020  161.2300 H   0  0  0  0  0  0  0  0  0  0  0  0
  152.7474  145.2004  160.6733 H   0  0  0  0  0  0  0  0  0  0  0  0
  151.8046  145.8591  158.4695 H   0  0  0  0  0  0  0  0  0  0  0  0
  151.1863  144.1139  156.8052 H   0  0  0  0  0  0  0  0  0  0  0  0
  151.4956  141.8832  155.4131 H   0  0  0  0  0  0  0  0  0  0  0  0
  151.2637  140.1788  155.6542 H   0  0  0  0  0  0  0  0  0  0  0  0
  148.9701  140.4277  155.8366 H   0  0  0  0  0  0  0  0  0  0  0  0
  149.0494  141.3397  158.1619 H   0  0  0  0  0  0  0  0  0  0  0  0
  147.8292  142.1697  157.2114 H   0  0  0  0  0  0  0  0  0  0  0  0
  149.3764  142.9516  157.5294 H   0  0  0  0  0  0  0  0  0  0  0  0
  149.1388  143.1192  155.2545 H   0  0  0  0  0  0  0  0  0  0  0  0
  1  2  1  0  0  0  0
  1 22  1  0  0  0  0
  1 23  1  0  0  0  0
  1 24  1  0  0  0  0
  2  3  1  0  0  0  0
  2 25  1  0  0  0  0
  2 26  1  0  0  0  0
  3  4  1  0  0  0  0
  3 27  1  0  0  0  0
  3 28  1  0  0  0  0
  4  5  2  0  0  0  0
  4  6  1  0  0  0  0
  6  7  1  0  0  0  0
  6 29  1  0  0  0  0
  7  8  1  0  0  0  0
  7  9  1  0  0  0  0
  7 30  1  0  0  0  0
  8 31  1  0  0  0  0
  8 32  1  0  0  0  0
  8 33  1  0  0  0  0
  9 17  1  0  0  0  0
  9 10  2  0  0  0  0
 10 11  1  0  0  0  0
 11 16  2  0  0  0  0
 11 12  1  0  0  0  0
 12 13  2  0  0  0  0
 12 34  1  0  0  0  0
 13 14  1  0  0  0  0
 13 35  1  0  0  0  0
 14 15  2  0  0  0  0
 14 36  1  0  0  0  0
 15 16  1  0  0  0  0
 15 37  1  0  0  0  0
 16 17  1  0  0  0  0
 17 18  1  0  0  0  0
 18 19  1  0  0  0  0
 18 38  1  0  0  0  0
 18 39  1  0  0  0  0
 19 20  1  0  0  0  0
 19 21  1  0  0  0  0
 19 40  1  0  0  0  0
 20 41  1  0  0  0  0
 20 42  1  0  0  0  0
 20 43  1  0  0  0  0
 21 44  1  0  0  0  0
M  END
> <s_m_source_file>
AV-unprocessed.smi

> <i_m_source_file_index>
1856

> <i_lp_mmshare_version>
43012

> <i_f3d_flags>
0

> <s_epik_input>
W0NIM11bQ0gyXVtDSDJdQyg9TylbTkhdW0NASF0oW0NIM10pYyhuMSluKFtDSDJdW0NASF0oW0NIM10pW09IXSljKGMxMilbY0hdW2NIXVtjSF1bY0hdMg==

> <s_epik_cmdline>
J2VwaWtfcHl0aG9uJywgJy1waCcsICc3LjAnLCAnLXRuJywgJzgnLCAnLW1hJywgJzIwMCcsICctbWV0YWxfYmluZGluZycsICctaW1hZScsICc8aW5maWxlLm1hZT4nLCAnLW9tYWUnLCAnPG91dGZpbGUubWFlPic=

> <r_epik_Ionization_Penalty>
0.134222

> <r_epik_Ionization_Penalty_Charging>
0

> <r_epik_Ionization_Penalty_Neutral>
0.134222

> <r_epik_State_Penalty>
0.123585

> <r_epik_Charging_Adjusted_Penalty>
0.123585

> <i_epik_Tot_Q>
0

> <i_epik_Tot_abs_Q>
0

> <r_epik_Metal_State_Penalty>
0.100548

> <b_epik_Metal_Only>
0

> <s_lp_Force_Field>
OPLS_2005

> <r_lp_Energy>
3.90486

> <b_lp_Chiralities_Consistent>
1

> <s_lp_Variant>
AV-unprocessed.smi:1856-3

> <Gold.Version>
5.8.1

> <Gold.Id.Protein>
6NUR|6NUR_protein|mol2

> <Gold.PLP.Fitness>
47.5424

> <Gold.PLP.PLP>
-43.5443

> <Gold.PLP.part.hbond>
-2.5472

> <Gold.PLP.part.metal>
0.0000

> <Gold.PLP.part.buried>
-5.6209

> <Gold.PLP.part.nonpolar>
-34.4813

> <Gold.PLP.part.repulsive>
0.0968

> <Gold.PLP.ligand.clash>
0.0000

> <Gold.PLP.ligand.torsion>
1.0307

> <Gold.PLP.Chemscore.Hbond>
2.0000

> <Gold.PLP.Chemscore.CHOScore>
0.0000

> <Gold.PLP.Chemscore.Metal>
0.0000

> <Gold.Chemscore.Hbonds>
donor molecule, donor type, donor heavy atom, donor atom, acceptor molecule, acceptor atom, score
      L1  H    21    44       P1  8028  1.00
      P1  H  7997  8009       L1     5  1.00

> <Gold.PLP.Chemscore.Internal.Correction>
0.0594

> <Gold.Rescore>
     Score         DG    S(hbond)    S(metal)    S(lipo)     H(rot)  DE(clash)    DE(int)     intcor
     16.61     -19.76       2.00        0.00     118.59       2.45       0.01       3.14       ----

> <Gold.Chemscore.Fitness>
16.6061

> <Gold.Chemscore.DG>
-19.7599

> <Gold.Chemscore.ZeroCoef>
-5.4800

> <Gold.Chemscore.Hbond>
1.9958

> <Gold.Chemscore.Metal>
0.0000

> <Gold.Chemscore.Lipo>
118.5918

> <Gold.Chemscore.Internal_Hbond>
0.0000

> <Gold.Chemscore.DEClash>
0.0132

> <Gold.Chemscore.DEInternal>
3.1406

> <Gold.Chemscore.Rot>
2.4459

> <Gold.Chemscore.Internal.Correction>
   9.000000E+99

> <Gold.Chemscore.Hbonds>
donor molecule, donor type, donor heavy atom, donor atom, acceptor molecule, acceptor atom, score
      L1  H    21    44       P1  8028  1.00
      P1  H  7997  8009       L1     5  1.00

> <Gold.Chemscore.Hbond.Weighted>
-6.6661

> <Gold.Chemscore.Metal.Weighted>
-0.0000

> <Gold.Chemscore.Lipo.Weighted>
-13.8752

> <Gold.Chemscore.Internal_Hbond.Weighted>
0.0000

> <Gold.Chemscore.DEClash.Weighted>
0.0132

> <Gold.Chemscore.DEInternal.Weighted>
3.1406

> <Gold.Chemscore.Rot.Weighted>
6.2614

> <Gold.Chemscore.Internal.Correction.Weighted>
   9.000000E+99

> <Gold.Protein.RotatedTorsions>
[ 6907 6896 6895 6894 ] final  -89.71 input  -60.11 | X-H torsion
[ 7974 7965 7964 7962 ] final  142.04 input  175.53 | X-H torsion
[ 8008 7997 7996 7995 ] final  118.17 input   59.86 | X-H torsion
[ 10167 10162 10161 10158 ] final -108.00 input  -65.29 | X-H torsion
[ 10718 10713 10712 10709 ] final  -51.90 input   66.30 | X-H torsion
[ 10763 10752 10751 10750 ] final  161.67 input  -60.55 | X-H torsion
[ 11005 11000 10999 10996 ] final    1.46 input  -57.11 | X-H torsion

> <Gold.Protein.ActiveResidues>
 VAL166  LYS551  ARG553  GLY616  TRP617  ASP618  TYR619  PRO620  LYS621  CYS622 
 ASP623  PHE694  ASN695  SER759  ASP760  ASP761  ALA762  ILE779  LEU786  VAL792 
 PHE793  MET794  SER795  GLU796  ALA797  LYS798  CYS799  TRP800  GLU811  SER814 

> <Gold.Protein.RotatedAtoms>
  150.6876  134.2545  159.4523 H   0  0  0  0  0  0  0  0  0  0  0  0  # atno 6907 bound_to 6896
  152.0479  134.9669  160.0584 H   0  0  0  0  0  0  0  0  0  0  0  0  # atno 6908 bound_to 6896
  152.1144  133.4284  159.4683 H   0  0  0  0  0  0  0  0  0  0  0  0  # atno 6909 bound_to 6896
  144.9042  139.5381  143.5739 H   0  0  0  0  0  0  0  0  0  0  0  0  # atno 7974 bound_to 7965
  156.2532  140.2880  156.0792 H   0  0  0  0  0  0  0  0  0  0  0  0  # atno 8008 bound_to 7997
  155.1585  140.0399  157.2854 H   0  0  0  0  0  0  0  0  0  0  0  0  # atno 8009 bound_to 7997
  154.6410  140.2522  155.7329 H   0  0  0  0  0  0  0  0  0  0  0  0  # atno 8010 bound_to 7997
  140.1709  143.4044  152.1355 H   0  0  0  0  0  0  0  0  0  0  0  0  # atno 10167 bound_to 10162
  156.1669  130.4149  149.9706 H   0  0  0  0  0  0  0  0  0  0  0  0  # atno 10718 bound_to 10713
  154.2665  135.2767  155.2756 H   0  0  0  0  0  0  0  0  0  0  0  0  # atno 10763 bound_to 10752
  154.5339  135.5722  153.6785 H   0  0  0  0  0  0  0  0  0  0  0  0  # atno 10764 bound_to 10752
  152.9953  135.6234  154.2817 H   0  0  0  0  0  0  0  0  0  0  0  0  # atno 10765 bound_to 10752
  140.6152  133.9712  155.8197 H   0  0  0  0  0  0  0  0  0  0  0  0  # atno 11005 bound_to 11000
  146.3125  139.7797  142.9009 LP  0  0  0  0  0  0  0  0  0  0  0  0  # atno 17320 bound_to 7965
  145.3564  141.0317  143.3309 LP  0  0  0  0  0  0  0  0  0  0  0  0  # atno 17321 bound_to 7965
  139.5338  144.7188  151.4962 LP  0  0  0  0  0  0  0  0  0  0  0  0  # atno 17342 bound_to 10162
  140.6583  143.8553  150.6859 LP  0  0  0  0  0  0  0  0  0  0  0  0  # atno 17343 bound_to 10162
  156.7519  130.9118  151.3638 LP  0  0  0  0  0  0  0  0  0  0  0  0  # atno 17370 bound_to 10713
  157.6774  130.9108  150.0184 LP  0  0  0  0  0  0  0  0  0  0  0  0  # atno 17371 bound_to 10713
  141.0780  134.0105  157.3428 LP  0  0  0  0  0  0  0  0  0  0  0  0  # atno 17394 bound_to 11000
  139.9176  135.0198  156.7940 LP  0  0  0  0  0  0  0  0  0  0  0  0  # atno 17395 bound_to 11000

$$$$
