AV-unprocessed.smi:2768|AV-procd|sdf|10655|dock1
  -GOLD-   2272015103D 1   1.00000     0.00000
 Structure written by MMmdl.
 34 35  0  0  0  0  0  0  0  0  2 V2000
  152.5689  139.9290  155.1064 O   0  0  0  0  0  0  0  0  0  0  0  0
  151.5045  139.8245  155.7271 C   0  0  0  0  0  0  0  0  0  0  0  0
  151.0829  140.4771  156.8487 N   0  5  0  0  0  0  0  0  0  0  0  0
  151.8549  141.5137  157.5379 C   0  0  1  0  0  0  0  0  0  0  0  0
  151.0512  142.8391  157.5681 C   0  0  0  0  0  0  0  0  0  0  0  0
  151.7288  143.9498  158.4095 C   0  0  0  0  0  0  0  0  0  0  0  0
  152.0125  143.5043  159.8591 C   0  0  0  0  0  0  0  0  0  0  0  0
  152.8250  142.1928  159.8454 C   0  0  0  0  0  0  0  0  0  0  0  0
  152.1478  141.0812  159.0007 C   0  0  2  0  0  0  0  0  0  0  0  0
  152.9867  139.9436  158.9979 O   0  0  0  0  0  0  0  0  0  0  0  0
  150.4446  138.8388  155.1897 C   0  0  0  0  0  0  0  0  0  0  0  0
  150.9986  138.1125  154.2155 F   0  0  0  0  0  0  0  0  0  0  0  0
  150.0641  137.9878  156.1497 F   0  0  0  0  0  0  0  0  0  0  0  0
  149.2432  139.5983  154.6296 C   0  0  0  0  0  0  0  0  0  0  0  0
  148.1730  138.9062  154.0172 C   0  0  0  0  0  0  0  0  0  0  0  0
  147.0908  139.6485  153.5068 C   0  0  0  0  0  0  0  0  0  0  0  0
  147.1143  141.0510  153.6243 C   0  0  0  0  0  0  0  0  0  0  0  0
  148.2263  141.6510  154.2471 C   0  0  0  0  0  0  0  0  0  0  0  0
  149.2679  140.9486  154.7404 N   0  0  0  0  0  0  0  0  0  0  0  0
  152.8094  141.7076  157.0446 H   0  0  0  0  0  0  0  0  0  0  0  0
  151.2109  140.8013  159.4853 H   0  0  0  0  0  0  0  0  0  0  0  0
  150.8987  143.2015  156.5506 H   0  0  0  0  0  0  0  0  0  0  0  0
  150.0557  142.6527  157.9744 H   0  0  0  0  0  0  0  0  0  0  0  0
  152.6618  144.2623  157.9360 H   0  0  0  0  0  0  0  0  0  0  0  0
  151.0913  144.8341  158.4211 H   0  0  0  0  0  0  0  0  0  0  0  0
  152.5521  144.2822  160.3995 H   0  0  0  0  0  0  0  0  0  0  0  0
  151.0708  143.3471  160.3867 H   0  0  0  0  0  0  0  0  0  0  0  0
  153.8294  142.3975  159.4677 H   0  0  0  0  0  0  0  0  0  0  0  0
  152.9586  141.8434  160.8699 H   0  0  0  0  0  0  0  0  0  0  0  0
  153.8657  140.2401  159.1821 H   0  0  0  0  0  0  0  0  0  0  0  0
  148.1844  137.8295  153.9341 H   0  0  0  0  0  0  0  0  0  0  0  0
  146.2579  139.1507  153.0323 H   0  0  0  0  0  0  0  0  0  0  0  0
  146.3014  141.6525  153.2454 H   0  0  0  0  0  0  0  0  0  0  0  0
  148.2793  142.7243  154.3542 H   0  0  0  0  0  0  0  0  0  0  0  0
  1  2  2  0  0  0  0
  2  3  1  0  0  0  0
  2 11  1  0  0  0  0
  3  4  1  0  0  0  0
  4 20  1  0  0  0  0
  4  9  1  0  0  0  0
  4  5  1  0  0  0  0
  5  6  1  0  0  0  0
  5 22  1  0  0  0  0
  5 23  1  0  0  0  0
  6  7  1  0  0  0  0
  6 24  1  0  0  0  0
  6 25  1  0  0  0  0
  7  8  1  0  0  0  0
  7 26  1  0  0  0  0
  7 27  1  0  0  0  0
  8  9  1  0  0  0  0
  8 28  1  0  0  0  0
  8 29  1  0  0  0  0
  9 21  1  0  0  0  0
  9 10  1  0  0  0  0
 10 30  1  0  0  0  0
 11 12  1  0  0  0  0
 11 13  1  0  0  0  0
 11 14  1  0  0  0  0
 14 19  1  0  0  0  0
 14 15  2  0  0  0  0
 15 16  1  0  0  0  0
 15 31  1  0  0  0  0
 16 17  2  0  0  0  0
 16 32  1  0  0  0  0
 17 18  1  0  0  0  0
 17 33  1  0  0  0  0
 18 19  2  0  0  0  0
 18 34  1  0  0  0  0
M  CHG  1   3  -1
M  END
> <s_m_source_file>
AV-unprocessed.smi

> <i_m_source_file_index>
2768

> <i_lp_mmshare_version>
43012

> <i_f3d_flags>
0

> <s_epik_input>
bjFbY0hdW2NIXVtjSF1bY0hdYzFDKEYpKEYpQyg9TylbTkhdW0NAQEhdMltDSDJdW0NIMl1bQ0gyXVtDSDJdW0NASF0yW09IXQ==

> <s_epik_cmdline>
J2VwaWtfcHl0aG9uJywgJy1waCcsICc3LjAnLCAnLXRuJywgJzgnLCAnLW1hJywgJzIwMCcsICctbWV0YWxfYmluZGluZycsICctaW1hZScsICc8aW5maWxlLm1hZT4nLCAnLW9tYWUnLCAnPG91dGZpbGUubWFlPic=

> <r_lp_tautomer_probability>
1

> <r_epik_Ionization_Penalty>
5.70553

> <r_epik_Ionization_Penalty_Charging>
5.70553

> <r_epik_Ionization_Penalty_Neutral>
5.5493e-06

> <r_epik_State_Penalty>
5.70549

> <r_epik_Charging_Adjusted_Penalty>
11.411

> <i_epik_Tot_Q>
-1

> <i_epik_Tot_abs_Q>
1

> <r_epik_Metal_State_Penalty>
1.6859

> <b_epik_Metal_Only>
1

> <s_lp_Force_Field>
OPLS_2005

> <r_lp_Energy>
26.4517

> <b_lp_Chiralities_Consistent>
1

> <s_lp_Variant>
AV-unprocessed.smi:2768-8

> <Gold.Version>
5.8.1

> <Gold.Id.Protein>
6NUR|6NUR_protein|mol2

> <Gold.PLP.Fitness>
46.4739

> <Gold.PLP.PLP>
-40.0908

> <Gold.PLP.part.hbond>
-2.1983

> <Gold.PLP.part.metal>
0.0000

> <Gold.PLP.part.buried>
-4.4495

> <Gold.PLP.part.nonpolar>
-33.5818

> <Gold.PLP.part.repulsive>
0.1458

> <Gold.PLP.ligand.clash>
0.0000

> <Gold.PLP.ligand.torsion>
0.2120

> <Gold.PLP.Chemscore.Hbond>
1.2553

> <Gold.PLP.Chemscore.CHOScore>
1.0000

> <Gold.PLP.Chemscore.Metal>
0.0000

> <Gold.Chemscore.Hbonds>
donor molecule, donor type, donor heavy atom, donor atom, acceptor molecule, acceptor atom, score
      P1  H  7989  7998       L1     1  0.37
      P1  H  7997  8010       L1     1  0.91
      L1  C    18    34       P1  8028  1.00

> <Gold.PLP.Chemscore.Internal.Correction>
0.0415

> <Gold.Rescore>
     Score         DG    S(hbond)    S(metal)    S(lipo)     H(rot)  DE(clash)    DE(int)     intcor
     13.65     -15.19       1.00        0.00      97.15       1.95       0.03       1.52       ----

> <Gold.Chemscore.Fitness>
13.6477

> <Gold.Chemscore.DG>
-15.1919

> <Gold.Chemscore.ZeroCoef>
-5.4800

> <Gold.Chemscore.Hbond>
0.9993

> <Gold.Chemscore.Metal>
0.0000

> <Gold.Chemscore.Lipo>
97.1530

> <Gold.Chemscore.Internal_Hbond>
0.0000

> <Gold.Chemscore.DEClash>
0.0268

> <Gold.Chemscore.DEInternal>
1.5174

> <Gold.Chemscore.Rot>
1.9503

> <Gold.Chemscore.Internal.Correction>
   9.000000E+99

> <Gold.Chemscore.Hbonds>
donor molecule, donor type, donor heavy atom, donor atom, acceptor molecule, acceptor atom, score
      P1  H  7989  7998       L1     1  0.04
      P1  H  7997  8010       L1     1  0.88

> <Gold.Chemscore.Hbond.Weighted>
-3.3378

> <Gold.Chemscore.Metal.Weighted>
-0.0000

> <Gold.Chemscore.Lipo.Weighted>
-11.3669

> <Gold.Chemscore.Internal_Hbond.Weighted>
0.0000

> <Gold.Chemscore.DEClash.Weighted>
0.0268

> <Gold.Chemscore.DEInternal.Weighted>
1.5174

> <Gold.Chemscore.Rot.Weighted>
4.9928

> <Gold.Chemscore.Internal.Correction.Weighted>
   9.000000E+99

> <Gold.Protein.RotatedTorsions>
[ 6907 6896 6895 6894 ] final  -45.44 input  -60.11 | X-H torsion
[ 7974 7965 7964 7962 ] final  115.58 input  175.53 | X-H torsion
[ 8008 7997 7996 7995 ] final   91.30 input   59.86 | X-H torsion
[ 10167 10162 10161 10158 ] final   81.60 input  -65.29 | X-H torsion
[ 10718 10713 10712 10709 ] final   63.88 input   66.30 | X-H torsion
[ 10763 10752 10751 10750 ] final  142.63 input  -60.55 | X-H torsion
[ 11005 11000 10999 10996 ] final -173.09 input  -57.11 | X-H torsion

> <Gold.Protein.ActiveResidues>
 VAL166  LYS551  ARG553  GLY616  TRP617  ASP618  TYR619  PRO620  LYS621  CYS622 
 ASP623  PHE694  ASN695  SER759  ASP760  ASP761  ALA762  ILE779  LEU786  VAL792 
 PHE793  MET794  SER795  GLU796  ALA797  LYS798  CYS799  TRP800  GLU811  SER814 

> <Gold.Protein.RotatedAtoms>
  150.9220  134.8637  159.7494 H   0  0  0  0  0  0  0  0  0  0  0  0  # atno 6907 bound_to 6896
  152.4997  134.4205  159.9489 H   0  0  0  0  0  0  0  0  0  0  0  0  # atno 6908 bound_to 6896
  151.4238  133.3651  159.2794 H   0  0  0  0  0  0  0  0  0  0  0  0  # atno 6909 bound_to 6896
  145.1903  139.3004  143.4372 H   0  0  0  0  0  0  0  0  0  0  0  0  # atno 7974 bound_to 7965
  156.0221  140.3339  155.7050 H   0  0  0  0  0  0  0  0  0  0  0  0  # atno 8008 bound_to 7997
  155.6007  140.0655  157.2751 H   0  0  0  0  0  0  0  0  0  0  0  0  # atno 8009 bound_to 7997
  154.4320  140.1811  156.1158 H   0  0  0  0  0  0  0  0  0  0  0  0  # atno 8010 bound_to 7997
  139.9376  144.6111  150.8283 H   0  0  0  0  0  0  0  0  0  0  0  0  # atno 10167 bound_to 10162
  157.6002  130.9130  149.9774 H   0  0  0  0  0  0  0  0  0  0  0  0  # atno 10718 bound_to 10713
  153.9590  135.2962  155.3434 H   0  0  0  0  0  0  0  0  0  0  0  0  # atno 10763 bound_to 10752
  154.7385  135.5035  153.9086 H   0  0  0  0  0  0  0  0  0  0  0  0  # atno 10764 bound_to 10752
  153.0956  135.6720  153.9879 H   0  0  0  0  0  0  0  0  0  0  0  0  # atno 10765 bound_to 10752
  140.4897  134.5997  157.4950 H   0  0  0  0  0  0  0  0  0  0  0  0  # atno 11005 bound_to 11000
  146.3437  140.2113  142.8590 LP  0  0  0  0  0  0  0  0  0  0  0  0  # atno 17320 bound_to 7965
  145.0048  140.8663  143.5260 LP  0  0  0  0  0  0  0  0  0  0  0  0  # atno 17321 bound_to 7965
  140.7620  143.3188  151.2671 LP  0  0  0  0  0  0  0  0  0  0  0  0  # atno 17342 bound_to 10162
  139.6731  143.9985  152.2765 LP  0  0  0  0  0  0  0  0  0  0  0  0  # atno 17343 bound_to 10162
  156.1073  130.3652  150.0110 LP  0  0  0  0  0  0  0  0  0  0  0  0  # atno 17370 bound_to 10713
  156.8215  130.9360  151.3641 LP  0  0  0  0  0  0  0  0  0  0  0  0  # atno 17371 bound_to 10713
  139.9777  134.7189  155.9919 LP  0  0  0  0  0  0  0  0  0  0  0  0  # atno 17394 bound_to 11000
  141.1490  133.6551  156.3956 LP  0  0  0  0  0  0  0  0  0  0  0  0  # atno 17395 bound_to 11000

$$$$
