AV-unprocessed.smi:3015|AV-procd|sdf|11471|dock5
  -GOLD-   2272016403D 1   1.00000     0.00000
 Structure written by MMmdl.
 24 24  0  0  0  0  0  0  0  0  2 V2000
  146.6768  137.3350  151.4284 N   0  3  0  0  0  0  0  0  0  0  0  0
  145.7415  136.2666  151.8288 C   0  0  1  0  0  0  0  0  0  0  0  0
  144.7335  136.8000  152.8615 C   0  0  0  0  0  0  0  0  0  0  0  0
  144.2697  138.0773  152.4761 O   0  0  0  0  0  0  0  0  0  0  0  0
  145.0276  135.6842  150.5937 C   0  0  0  0  0  0  0  0  0  0  0  0
  144.9153  134.1699  150.6290 C   0  0  0  0  0  0  0  0  0  0  0  0
  145.6459  133.4125  151.5682 C   0  0  0  0  0  0  0  0  0  0  0  0
  145.5129  132.0108  151.5608 C   0  0  0  0  0  0  0  0  0  0  0  0
  144.6512  131.4233  150.6132 C   0  0  0  0  0  0  0  0  0  0  0  0
  143.9460  132.1384  149.7102 N   0  0  0  0  0  0  0  0  0  0  0  0
  144.0760  133.4820  149.7263 C   0  0  0  0  0  0  0  0  0  0  0  0
  147.6110  136.9587  151.3571 H   0  0  0  0  0  0  0  0  0  0  0  0
  146.6608  138.0718  152.1190 H   0  0  0  0  0  0  0  0  0  0  0  0
  146.3257  135.4716  152.2947 H   0  0  0  0  0  0  0  0  0  0  0  0
  143.8878  136.1210  152.9772 H   0  0  0  0  0  0  0  0  0  0  0  0
  145.2062  136.8957  153.8397 H   0  0  0  0  0  0  0  0  0  0  0  0
  144.2096  138.1059  151.5327 H   0  0  0  0  0  0  0  0  0  0  0  0
  144.0194  136.0945  150.5212 H   0  0  0  0  0  0  0  0  0  0  0  0
  145.5433  135.9886  149.6817 H   0  0  0  0  0  0  0  0  0  0  0  0
  146.2989  133.8951  152.2807 H   0  0  0  0  0  0  0  0  0  0  0  0
  146.0576  131.3995  152.2653 H   0  0  0  0  0  0  0  0  0  0  0  0
  144.5257  130.3510  150.5795 H   0  0  0  0  0  0  0  0  0  0  0  0
  143.4991  134.0228  148.9906 H   0  0  0  0  0  0  0  0  0  0  0  0
  146.3935  137.7053  150.5323 H   0  0  0  0  0  0  0  0  0  0  0  0
  1  2  1  0  0  0  0
  1 12  1  0  0  0  0
  1 13  1  0  0  0  0
  1 24  1  0  0  0  0
  2  3  1  0  0  0  0
  2  5  1  0  0  0  0
  2 14  1  0  0  0  0
  3  4  1  0  0  0  0
  3 15  1  0  0  0  0
  3 16  1  0  0  0  0
  4 17  1  0  0  0  0
  5  6  1  0  0  0  0
  5 18  1  0  0  0  0
  5 19  1  0  0  0  0
  6 11  1  0  0  0  0
  6  7  2  0  0  0  0
  7  8  1  0  0  0  0
  7 20  1  0  0  0  0
  8  9  2  0  0  0  0
  8 21  1  0  0  0  0
  9 10  1  0  0  0  0
  9 22  1  0  0  0  0
 10 11  2  0  0  0  0
 11 23  1  0  0  0  0
M  CHG  1   1   1
M  END
> <s_m_source_file>
AV-unprocessed.smi

> <i_m_source_file_index>
3015

> <i_lp_mmshare_version>
43012

> <i_f3d_flags>
0

> <s_epik_input>
W09IXVtDSDJdW0NAQEhdKFtOSDJdKVtDSDJdYzFbY0hdW2NIXVtjSF1uW2NIXTE=

> <s_epik_cmdline>
J2VwaWtfcHl0aG9uJywgJy1waCcsICc3LjAnLCAnLXRuJywgJzgnLCAnLW1hJywgJzIwMCcsICctbWV0YWxfYmluZGluZycsICctaW1hZScsICc8aW5maWxlLm1hZT4nLCAnLW9tYWUnLCAnPG91dGZpbGUubWFlPic=

> <r_epik_Ionization_Penalty>
0.0193991

> <r_epik_Ionization_Penalty_Charging>
0.0188044

> <r_epik_Ionization_Penalty_Neutral>
0.000594726

> <r_epik_State_Penalty>
0.00921718

> <r_epik_Charging_Adjusted_Penalty>
0.0280216

> <i_epik_Tot_Q>
1

> <i_epik_Tot_abs_Q>
1

> <r_epik_Metal_State_Penalty>
0.00867471

> <b_epik_Metal_Only>
0

> <s_lp_Force_Field>
OPLS_2005

> <r_lp_Energy>
6.76442

> <b_lp_Chiralities_Consistent>
1

> <s_lp_Variant>
AV-unprocessed.smi:3015-2

> <Gold.Version>
5.8.1

> <Gold.Id.Protein>
6NUR|6NUR_protein|mol2

> <Gold.PLP.Fitness>
37.9339

> <Gold.PLP.PLP>
-25.5276

> <Gold.PLP.part.hbond>
-5.0000

> <Gold.PLP.part.metal>
0.0000

> <Gold.PLP.part.buried>
-5.2378

> <Gold.PLP.part.nonpolar>
-16.6645

> <Gold.PLP.part.repulsive>
0.2672

> <Gold.PLP.ligand.clash>
0.0000

> <Gold.PLP.ligand.torsion>
0.8697

> <Gold.PLP.Chemscore.Hbond>
3.7862

> <Gold.PLP.Chemscore.CHOScore>
0.9252

> <Gold.PLP.Chemscore.Metal>
0.0000

> <Gold.Chemscore.Hbonds>
donor molecule, donor type, donor heavy atom, donor atom, acceptor molecule, acceptor atom, score
      L1  H     1    12       P1  7948  2.00
      L1  H     4    17       P1 10171  1.00
      P1  H 10785 10796       L1    10  0.09
      L1  C    11    23       P1 10186  0.66

> <Gold.PLP.Chemscore.Internal.Correction>
0.0113

> <Gold.Rescore>
     Score         DG    S(hbond)    S(metal)    S(lipo)     H(rot)  DE(clash)    DE(int)     intcor
     14.11     -15.21       2.61        0.00      55.62       2.14       0.00       1.10       ----

> <Gold.Chemscore.Fitness>
14.1090

> <Gold.Chemscore.DG>
-15.2118

> <Gold.Chemscore.ZeroCoef>
-5.4800

> <Gold.Chemscore.Hbond>
2.6059

> <Gold.Chemscore.Metal>
0.0000

> <Gold.Chemscore.Lipo>
55.6209

> <Gold.Chemscore.Internal_Hbond>
0.0000

> <Gold.Chemscore.DEClash>
0.0000

> <Gold.Chemscore.DEInternal>
1.1028

> <Gold.Chemscore.Rot>
2.1405

> <Gold.Chemscore.Internal.Correction>
   9.000000E+99

> <Gold.Chemscore.Hbonds>
donor molecule, donor type, donor heavy atom, donor atom, acceptor molecule, acceptor atom, score
      L1  H     1    12       P1  7948  0.96
      L1  H     4    17       P1 10171  1.00

> <Gold.Chemscore.Hbond.Weighted>
-8.7039

> <Gold.Chemscore.Metal.Weighted>
-0.0000

> <Gold.Chemscore.Lipo.Weighted>
-6.5076

> <Gold.Chemscore.Internal_Hbond.Weighted>
0.0000

> <Gold.Chemscore.DEClash.Weighted>
0.0000

> <Gold.Chemscore.DEInternal.Weighted>
1.1028

> <Gold.Chemscore.Rot.Weighted>
5.4797

> <Gold.Chemscore.Internal.Correction.Weighted>
   9.000000E+99

> <Gold.Protein.RotatedTorsions>
[ 6907 6896 6895 6894 ] final  -72.97 input  -60.11 | X-H torsion
[ 7974 7965 7964 7962 ] final  122.81 input  175.53 | X-H torsion
[ 8008 7997 7996 7995 ] final  155.19 input   59.86 | X-H torsion
[ 10167 10162 10161 10158 ] final  -68.80 input  -65.29 | X-H torsion
[ 10718 10713 10712 10709 ] final  168.51 input   66.30 | X-H torsion
[ 10763 10752 10751 10750 ] final -167.81 input  -60.55 | X-H torsion
[ 11005 11000 10999 10996 ] final  112.99 input  -57.11 | X-H torsion

> <Gold.Protein.ActiveResidues>
 VAL166  LYS551  ARG553  GLY616  TRP617  ASP618  TYR619  PRO620  LYS621  CYS622 
 ASP623  PHE694  ASN695  SER759  ASP760  ASP761  ALA762  ILE779  LEU786  VAL792 
 PHE793  MET794  SER795  GLU796  ALA797  LYS798  CYS799  TRP800  GLU811  SER814 

> <Gold.Protein.RotatedAtoms>
  150.7148  134.5085  159.5595 H   0  0  0  0  0  0  0  0  0  0  0  0  # atno 6907 bound_to 6896
  152.2667  134.7973  160.0430 H   0  0  0  0  0  0  0  0  0  0  0  0  # atno 6908 bound_to 6896
  151.8668  133.3432  159.3758 H   0  0  0  0  0  0  0  0  0  0  0  0  # atno 6909 bound_to 6896
  145.1032  139.3504  143.4801 H   0  0  0  0  0  0  0  0  0  0  0  0  # atno 7974 bound_to 7965
  156.2491  140.1946  156.6763 H   0  0  0  0  0  0  0  0  0  0  0  0  # atno 8008 bound_to 7997
  154.6355  140.0590  156.9809 H   0  0  0  0  0  0  0  0  0  0  0  0  # atno 8009 bound_to 7997
  155.1644  140.3262  155.4407 H   0  0  0  0  0  0  0  0  0  0  0  0  # atno 8010 bound_to 7997
  140.5480  143.2312  151.6965 H   0  0  0  0  0  0  0  0  0  0  0  0  # atno 10167 bound_to 10162
  157.0360  131.0273  151.2729 H   0  0  0  0  0  0  0  0  0  0  0  0  # atno 10718 bound_to 10713
  154.6693  135.2937  154.9763 H   0  0  0  0  0  0  0  0  0  0  0  0  # atno 10763 bound_to 10752
  154.0795  135.6606  153.4840 H   0  0  0  0  0  0  0  0  0  0  0  0  # atno 10764 bound_to 10752
  153.0477  135.5194  154.7682 H   0  0  0  0  0  0  0  0  0  0  0  0  # atno 10765 bound_to 10752
  139.8941  134.9541  156.6671 H   0  0  0  0  0  0  0  0  0  0  0  0  # atno 11005 bound_to 11000
  146.3529  140.0919  142.8612 LP  0  0  0  0  0  0  0  0  0  0  0  0  # atno 17320 bound_to 7965
  145.0931  140.9297  143.4757 LP  0  0  0  0  0  0  0  0  0  0  0  0  # atno 17321 bound_to 7965
  139.5015  144.3864  152.0324 LP  0  0  0  0  0  0  0  0  0  0  0  0  # atno 17342 bound_to 10162
  140.2978  144.3681  150.6069 LP  0  0  0  0  0  0  0  0  0  0  0  0  # atno 17343 bound_to 10162
  157.5141  130.7957  149.7737 LP  0  0  0  0  0  0  0  0  0  0  0  0  # atno 17370 bound_to 10713
  156.0053  130.3858  150.2452 LP  0  0  0  0  0  0  0  0  0  0  0  0  # atno 17371 bound_to 10713
  140.7402  133.8984  155.8273 LP  0  0  0  0  0  0  0  0  0  0  0  0  # atno 17394 bound_to 11000
  141.0084  134.1055  157.4247 LP  0  0  0  0  0  0  0  0  0  0  0  0  # atno 17395 bound_to 11000

$$$$
