AV-unprocessed.smi:1826|AV-procd|sdf|7415|dock7
  -GOLD-   22720 9 93D 1   1.00000     0.00000
 Structure written by MMmdl.
 39 41  0  0  0  0  0  0  0  0  1 V2000
  152.0679  137.4698  154.2976 O   0  0  0  0  0  0  0  0  0  0  0  0
  150.9652  138.2923  154.6133 C   0  0  0  0  0  0  0  0  0  0  0  0
  151.2715  139.2732  155.7042 C   0  0  0  0  0  0  0  0  0  0  0  0
  152.0841  138.9599  156.7140 N   0  0  0  0  0  0  0  0  0  0  0  0
  152.0448  140.0935  157.5004 C   0  0  0  0  0  0  0  0  0  0  0  0
  152.6936  140.3855  158.7216 C   0  0  0  0  0  0  0  0  0  0  0  0
  152.4907  141.6267  159.3594 C   0  0  0  0  0  0  0  0  0  0  0  0
  151.6338  142.5896  158.7890 C   0  0  0  0  0  0  0  0  0  0  0  0
  150.9771  142.3177  157.5739 C   0  0  0  0  0  0  0  0  0  0  0  0
  151.1915  141.0818  156.9336 C   0  0  0  0  0  0  0  0  0  0  0  0
  150.7280  140.5176  155.7468 N   0  0  0  0  0  0  0  0  0  0  0  0
  149.8245  141.1482  154.7879 C   0  0  0  0  0  0  0  0  0  0  0  0
  148.4409  140.4630  154.6726 C   0  0  2  0  0  0  0  0  0  0  0  0
  148.3998  139.6087  153.5465 O   0  0  0  0  0  0  0  0  0  0  0  0
  147.2830  141.4535  154.7055 C   0  0  0  0  0  0  0  0  0  0  0  0
  147.0146  142.3037  153.6091 C   0  0  0  0  0  0  0  0  0  0  0  0
  145.9584  143.2328  153.6702 C   0  0  0  0  0  0  0  0  0  0  0  0
  145.1565  143.3263  154.8281 C   0  0  0  0  0  0  0  0  0  0  0  0
  144.0130  144.3271  154.9041 C   0  0  0  0  0  0  0  0  0  0  0  0
  142.8609  143.6692  155.0278 F   0  0  0  0  0  0  0  0  0  0  0  0
  144.1656  145.1285  155.9589 F   0  0  0  0  0  0  0  0  0  0  0  0
  143.9577  145.0859  153.8088 F   0  0  0  0  0  0  0  0  0  0  0  0
  145.4170  142.4683  155.9178 C   0  0  0  0  0  0  0  0  0  0  0  0
  146.4734  141.5393  155.8574 C   0  0  0  0  0  0  0  0  0  0  0  0
  152.4605  137.7882  153.4993 H   0  0  0  0  0  0  0  0  0  0  0  0
  150.6690  138.8352  153.7150 H   0  0  0  0  0  0  0  0  0  0  0  0
  150.1186  137.6673  154.8900 H   0  0  0  0  0  0  0  0  0  0  0  0
  153.3475  139.6520  159.1693 H   0  0  0  0  0  0  0  0  0  0  0  0
  152.9926  141.8398  160.2920 H   0  0  0  0  0  0  0  0  0  0  0  0
  151.4812  143.5377  159.2839 H   0  0  0  0  0  0  0  0  0  0  0  0
  150.3215  143.0552  157.1361 H   0  0  0  0  0  0  0  0  0  0  0  0
  149.6964  142.1954  155.0613 H   0  0  0  0  0  0  0  0  0  0  0  0
  150.3142  141.1593  153.8136 H   0  0  0  0  0  0  0  0  0  0  0  0
  148.3247  139.8111  155.5393 H   0  0  0  0  0  0  0  0  0  0  0  0
  149.0242  139.9228  152.9106 H   0  0  0  0  0  0  0  0  0  0  0  0
  147.6272  142.2614  152.7204 H   0  0  0  0  0  0  0  0  0  0  0  0
  145.7721  143.8759  152.8229 H   0  0  0  0  0  0  0  0  0  0  0  0
  144.8070  142.5224  156.8076 H   0  0  0  0  0  0  0  0  0  0  0  0
  146.6664  140.8976  156.7046 H   0  0  0  0  0  0  0  0  0  0  0  0
  1  2  1  0  0  0  0
  1 25  1  0  0  0  0
  2  3  1  0  0  0  0
  2 26  1  0  0  0  0
  2 27  1  0  0  0  0
  3 11  1  0  0  0  0
  3  4  2  0  0  0  0
  4  5  1  0  0  0  0
  5 10  2  0  0  0  0
  5  6  1  0  0  0  0
  6  7  2  0  0  0  0
  6 28  1  0  0  0  0
  7  8  1  0  0  0  0
  7 29  1  0  0  0  0
  8  9  2  0  0  0  0
  8 30  1  0  0  0  0
  9 10  1  0  0  0  0
  9 31  1  0  0  0  0
 10 11  1  0  0  0  0
 11 12  1  0  0  0  0
 12 13  1  0  0  0  0
 12 32  1  0  0  0  0
 12 33  1  0  0  0  0
 13 14  1  0  0  0  0
 13 15  1  0  0  0  0
 13 34  1  0  0  0  0
 14 35  1  0  0  0  0
 15 24  1  0  0  0  0
 15 16  2  0  0  0  0
 16 17  1  0  0  0  0
 16 36  1  0  0  0  0
 17 18  2  0  0  0  0
 17 37  1  0  0  0  0
 18 19  1  0  0  0  0
 18 23  1  0  0  0  0
 19 20  1  0  0  0  0
 19 21  1  0  0  0  0
 19 22  1  0  0  0  0
 23 24  2  0  0  0  0
 23 38  1  0  0  0  0
 24 39  1  0  0  0  0
M  END
> <s_m_source_file>
AV-unprocessed.smi

> <i_m_source_file_index>
1826

> <i_lp_mmshare_version>
43012

> <i_f3d_flags>
0

> <s_epik_input>
W2NIXTFbY0hdW2NIXVtjSF1jKGMxMiluKGMobjIpW0NIMl1bT0hdKVtDSDJdW0NASF0oW09IXSljM1tjSF1bY0hdYyhDKEYpKEYpRilbY0hdW2NIXTM=

> <s_epik_cmdline>
J2VwaWtfcHl0aG9uJywgJy1waCcsICc3LjAnLCAnLXRuJywgJzgnLCAnLW1hJywgJzIwMCcsICctbWV0YWxfYmluZGluZycsICctaW1hZScsICc8aW5maWxlLm1hZT4nLCAnLW9tYWUnLCAnPG91dGZpbGUubWFlPic=

> <r_epik_Ionization_Penalty>
0.0634718

> <r_epik_Ionization_Penalty_Charging>
0

> <r_epik_Ionization_Penalty_Neutral>
0.0634718

> <r_epik_State_Penalty>
0.0551572

> <r_epik_Charging_Adjusted_Penalty>
0.0551572

> <i_epik_Tot_Q>
0

> <i_epik_Tot_abs_Q>
0

> <r_epik_Metal_State_Penalty>
5.78034e-05

> <b_epik_Metal_Only>
0

> <s_lp_Force_Field>
OPLS_2005

> <r_lp_Energy>
13.2523

> <b_lp_Chiralities_Consistent>
1

> <s_lp_Variant>
AV-unprocessed.smi:1826-1

> <Gold.Version>
5.8.1

> <Gold.Id.Protein>
6NUR|6NUR_protein|mol2

> <Gold.PLP.Fitness>
50.9297

> <Gold.PLP.PLP>
-47.9579

> <Gold.PLP.part.hbond>
-2.4459

> <Gold.PLP.part.metal>
0.0000

> <Gold.PLP.part.buried>
-6.9317

> <Gold.PLP.part.nonpolar>
-38.7040

> <Gold.PLP.part.repulsive>
0.0000

> <Gold.PLP.ligand.clash>
0.7048

> <Gold.PLP.ligand.torsion>
1.2009

> <Gold.PLP.Chemscore.Hbond>
1.7426

> <Gold.PLP.Chemscore.CHOScore>
0.0000

> <Gold.PLP.Chemscore.Metal>
0.0000

> <Gold.Chemscore.Hbonds>
donor molecule, donor type, donor heavy atom, donor atom, acceptor molecule, acceptor atom, score
      L1  H    14    35       P1  7957  0.99
      P1  H 10752 10765       L1     1  0.73

> <Gold.PLP.Chemscore.Internal.Correction>
0.8506

> <Gold.Rescore>
     Score         DG    S(hbond)    S(metal)    S(lipo)     H(rot)  DE(clash)    DE(int)     intcor
     12.10     -13.73       1.13        0.00     101.95       2.91       0.56       1.07       ----

> <Gold.Chemscore.Fitness>
12.0958

> <Gold.Chemscore.DG>
-13.7304

> <Gold.Chemscore.ZeroCoef>
-5.4800

> <Gold.Chemscore.Hbond>
1.1323

> <Gold.Chemscore.Metal>
0.0000

> <Gold.Chemscore.Lipo>
101.9539

> <Gold.Chemscore.Internal_Hbond>
0.0000

> <Gold.Chemscore.DEClash>
0.5650

> <Gold.Chemscore.DEInternal>
1.0696

> <Gold.Chemscore.Rot>
2.9141

> <Gold.Chemscore.Internal.Correction>
   9.000000E+99

> <Gold.Chemscore.Hbonds>
donor molecule, donor type, donor heavy atom, donor atom, acceptor molecule, acceptor atom, score
      L1  H    14    35       P1  7957  0.94
      P1  H 10752 10765       L1     1  0.12

> <Gold.Chemscore.Hbond.Weighted>
-3.7818

> <Gold.Chemscore.Metal.Weighted>
-0.0000

> <Gold.Chemscore.Lipo.Weighted>
-11.9286

> <Gold.Chemscore.Internal_Hbond.Weighted>
0.0000

> <Gold.Chemscore.DEClash.Weighted>
0.5650

> <Gold.Chemscore.DEInternal.Weighted>
1.0696

> <Gold.Chemscore.Rot.Weighted>
7.4600

> <Gold.Chemscore.Internal.Correction.Weighted>
   9.000000E+99

> <Gold.Protein.RotatedTorsions>
[ 6907 6896 6895 6894 ] final  -76.46 input  -60.11 | X-H torsion
[ 7974 7965 7964 7962 ] final -167.37 input  175.53 | X-H torsion
[ 8008 7997 7996 7995 ] final -171.42 input   59.86 | X-H torsion
[ 10167 10162 10161 10158 ] final -177.39 input  -65.29 | X-H torsion
[ 10718 10713 10712 10709 ] final -131.07 input   66.30 | X-H torsion
[ 10763 10752 10751 10750 ] final  164.46 input  -60.55 | X-H torsion
[ 11005 11000 10999 10996 ] final  179.90 input  -57.11 | X-H torsion

> <Gold.Protein.ActiveResidues>
 VAL166  LYS551  ARG553  GLY616  TRP617  ASP618  TYR619  PRO620  LYS621  CYS622 
 ASP623  PHE694  ASN695  SER759  ASP760  ASP761  ALA762  ILE779  LEU786  VAL792 
 PHE793  MET794  SER795  GLU796  ALA797  LYS798  CYS799  TRP800  GLU811  SER814 

> <Gold.Protein.RotatedAtoms>
  150.7027  134.4568  159.5361 H   0  0  0  0  0  0  0  0  0  0  0  0  # atno 6907 bound_to 6896
  152.2251  134.8373  160.0490 H   0  0  0  0  0  0  0  0  0  0  0  0  # atno 6908 bound_to 6896
  151.9210  133.3550  159.3934 H   0  0  0  0  0  0  0  0  0  0  0  0  # atno 6909 bound_to 6896
  144.7225  140.2529  143.6276 H   0  0  0  0  0  0  0  0  0  0  0  0  # atno 7974 bound_to 7965
  155.9314  140.1092  157.1129 H   0  0  0  0  0  0  0  0  0  0  0  0  # atno 8008 bound_to 7997
  154.4071  140.1237  156.4873 H   0  0  0  0  0  0  0  0  0  0  0  0  # atno 8009 bound_to 7997
  155.7076  140.3471  155.4962 H   0  0  0  0  0  0  0  0  0  0  0  0  # atno 8010 bound_to 7997
  139.5482  144.2178  152.1029 H   0  0  0  0  0  0  0  0  0  0  0  0  # atno 10167 bound_to 10162
  156.2207  130.6977  151.0753 H   0  0  0  0  0  0  0  0  0  0  0  0  # atno 10718 bound_to 10713
  154.3092  135.2757  155.2574 H   0  0  0  0  0  0  0  0  0  0  0  0  # atno 10763 bound_to 10752
  154.4977  135.5816  153.6510 H   0  0  0  0  0  0  0  0  0  0  0  0  # atno 10764 bound_to 10752
  152.9890  135.6150  154.3268 H   0  0  0  0  0  0  0  0  0  0  0  0  # atno 10765 bound_to 10752
  140.4113  134.6689  157.4615 H   0  0  0  0  0  0  0  0  0  0  0  0  # atno 11005 bound_to 11000
  145.8210  139.2044  143.1938 LP  0  0  0  0  0  0  0  0  0  0  0  0  # atno 17320 bound_to 7965
  146.0514  140.8066  142.9780 LP  0  0  0  0  0  0  0  0  0  0  0  0  # atno 17321 bound_to 7965
  140.1668  144.4973  150.6601 LP  0  0  0  0  0  0  0  0  0  0  0  0  # atno 17342 bound_to 10162
  140.6737  143.2296  151.5560 LP  0  0  0  0  0  0  0  0  0  0  0  0  # atno 17343 bound_to 10162
  157.7086  131.0745  150.6580 LP  0  0  0  0  0  0  0  0  0  0  0  0  # atno 17370 bound_to 10713
  156.6643  130.4521  149.5677 LP  0  0  0  0  0  0  0  0  0  0  0  0  # atno 17371 bound_to 10713
  140.0265  134.6469  155.9165 LP  0  0  0  0  0  0  0  0  0  0  0  0  # atno 17394 bound_to 11000
  141.1820  133.6548  156.5058 LP  0  0  0  0  0  0  0  0  0  0  0  0  # atno 17395 bound_to 11000

$$$$
