AV-unprocessed.smi:1831|AV-procd|sdf|7456|dock2
  -GOLD-   22720 9143D 1   1.00000     0.00000
 Structure written by MMmdl.
 41 42  0  0  0  0  0  0  0  0  2 V2000
  151.6785  140.8793  157.0685 C   0  0  0  0  0  0  0  0  0  0  0  0
  151.1842  139.8121  156.1527 C   0  0  0  0  0  0  0  0  0  0  0  0
  151.2371  139.9185  154.8188 N   0  0  0  0  0  0  0  0  0  0  0  0
  150.7174  138.8014  154.1782 N   0  0  0  0  0  0  0  0  0  0  0  0
  150.2855  137.8835  155.0476 C   0  0  0  0  0  0  0  0  0  0  0  0
  149.7294  136.6859  154.5321 N   0  0  0  0  0  0  0  0  0  0  0  0
  149.5802  135.5079  155.1592 C   0  0  0  0  0  0  0  0  0  0  0  0
  149.9054  135.2739  156.3230 O   0  0  0  0  0  0  0  0  0  0  0  0
  149.0202  134.5957  154.3511 N   0  0  0  0  0  0  0  0  0  0  0  0
  148.7417  133.2071  154.7062 C   0  0  0  0  0  0  0  0  0  0  0  0
  147.5141  132.6494  153.9594 C   0  0  2  0  0  0  0  0  0  0  0  0
  147.4858  131.1316  153.7879 C   0  0  0  0  0  0  0  0  0  0  0  0
  146.5451  130.9485  152.6032 C   0  0  0  0  0  0  0  0  0  0  0  0
  146.8612  132.0648  151.6849 N   0  3  1  0  0  0  0  0  0  0  0  0
  145.7857  132.4336  150.7213 C   0  0  0  0  0  0  0  0  0  0  0  0
  144.3870  132.0844  151.2653 C   0  0  0  0  0  0  0  0  0  0  0  0
  145.9944  131.7364  149.3632 C   0  0  0  0  0  0  0  0  0  0  0  0
  147.3740  133.1798  152.5227 C   0  0  0  0  0  0  0  0  0  0  0  0
  150.4788  138.3142  156.7469 S   0  0  0  0  0  0  0  0  0  0  0  0
  152.3248  141.5760  156.5336 H   0  0  0  0  0  0  0  0  0  0  0  0
  152.2466  140.4361  157.8865 H   0  0  0  0  0  0  0  0  0  0  0  0
  150.8359  141.4314  157.4850 H   0  0  0  0  0  0  0  0  0  0  0  0
  149.4161  136.7325  153.5736 H   0  0  0  0  0  0  0  0  0  0  0  0
  148.7860  134.8780  153.4104 H   0  0  0  0  0  0  0  0  0  0  0  0
  149.6223  132.6193  154.4451 H   0  0  0  0  0  0  0  0  0  0  0  0
  148.6164  133.1011  155.7853 H   0  0  0  0  0  0  0  0  0  0  0  0
  146.6136  132.9359  154.5056 H   0  0  0  0  0  0  0  0  0  0  0  0
  148.4785  130.7570  153.5333 H   0  0  0  0  0  0  0  0  0  0  0  0
  147.1445  130.6081  154.6816 H   0  0  0  0  0  0  0  0  0  0  0  0
  146.6729  129.9775  152.1233 H   0  0  0  0  0  0  0  0  0  0  0  0
  145.5108  131.0290  152.9423 H   0  0  0  0  0  0  0  0  0  0  0  0
  145.8263  133.5127  150.5644 H   0  0  0  0  0  0  0  0  0  0  0  0
  143.6146  132.3162  150.5313 H   0  0  0  0  0  0  0  0  0  0  0  0
  144.1437  132.6498  152.1650 H   0  0  0  0  0  0  0  0  0  0  0  0
  144.3073  131.0232  151.5032 H   0  0  0  0  0  0  0  0  0  0  0  0
  145.1965  131.9942  148.6660 H   0  0  0  0  0  0  0  0  0  0  0  0
  145.9980  130.6513  149.4724 H   0  0  0  0  0  0  0  0  0  0  0  0
  146.9322  132.0256  148.8896 H   0  0  0  0  0  0  0  0  0  0  0  0
  146.7096  134.0446  152.5137 H   0  0  0  0  0  0  0  0  0  0  0  0
  148.3342  133.4987  152.1156 H   0  0  0  0  0  0  0  0  0  0  0  0
  147.6487  131.7503  151.1361 H   0  0  0  0  0  0  0  0  0  0  0  0
  1  2  1  0  0  0  0
  1 20  1  0  0  0  0
  1 21  1  0  0  0  0
  1 22  1  0  0  0  0
  2 19  1  0  0  0  0
  2  3  2  0  0  0  0
  3  4  1  0  0  0  0
  4  5  2  0  0  0  0
  5  6  1  0  0  0  0
  5 19  1  0  0  0  0
  6  7  1  0  0  0  0
  6 23  1  0  0  0  0
  7  8  2  0  0  0  0
  7  9  1  0  0  0  0
  9 10  1  0  0  0  0
  9 24  1  0  0  0  0
 10 11  1  0  0  0  0
 10 25  1  0  0  0  0
 10 26  1  0  0  0  0
 11 18  1  0  0  0  0
 11 12  1  0  0  0  0
 11 27  1  0  0  0  0
 12 13  1  0  0  0  0
 12 28  1  0  0  0  0
 12 29  1  0  0  0  0
 13 14  1  0  0  0  0
 13 30  1  0  0  0  0
 13 31  1  0  0  0  0
 14 15  1  0  0  0  0
 14 18  1  0  0  0  0
 14 41  1  0  0  0  0
 15 16  1  0  0  0  0
 15 17  1  0  0  0  0
 15 32  1  0  0  0  0
 16 33  1  0  0  0  0
 16 34  1  0  0  0  0
 16 35  1  0  0  0  0
 17 36  1  0  0  0  0
 17 37  1  0  0  0  0
 17 38  1  0  0  0  0
 18 39  1  0  0  0  0
 18 40  1  0  0  0  0
M  CHG  1  14   1
M  END
> <s_m_source_file>
AV-unprocessed.smi

> <i_m_source_file_index>
1831

> <i_lp_mmshare_version>
43012

> <i_f3d_flags>
0

> <s_epik_input>
W0NIM11jMW5uYyhzMSlbTkhdQyg9TylbTkhdW0NIMl1bQ0BASF0yW0NIMl1bQ0gyXU4oW0NIMl0yKVtDSF0oW0NIM10pW0NIM10=

> <s_epik_cmdline>
J2VwaWtfcHl0aG9uJywgJy1waCcsICc3LjAnLCAnLXRuJywgJzgnLCAnLW1hJywgJzIwMCcsICctbWV0YWxfYmluZGluZycsICctaW1hZScsICc8aW5maWxlLm1hZT4nLCAnLW9tYWUnLCAnPG91dGZpbGUubWFlPic=

> <r_lp_tautomer_probability>
1

> <r_epik_Ionization_Penalty>
0.00080807

> <r_epik_Ionization_Penalty_Charging>
0.000218981

> <r_epik_Ionization_Penalty_Neutral>
0.00058909

> <r_epik_State_Penalty>
-0

> <r_epik_Charging_Adjusted_Penalty>
0.000218981

> <i_epik_Tot_Q>
1

> <i_epik_Tot_abs_Q>
1

> <r_epik_Metal_State_Penalty>
0.236062

> <b_epik_Metal_Only>
0

> <s_lp_Force_Field>
OPLS_2005

> <r_lp_Energy>
28.9112

> <b_lp_Chiralities_Consistent>
1

> <s_lp_Variant>
AV-unprocessed.smi:1831-1

> <Gold.Version>
5.8.1

> <Gold.Id.Protein>
6NUR|6NUR_protein|mol2

> <Gold.PLP.Fitness>
41.6485

> <Gold.PLP.PLP>
-32.7893

> <Gold.PLP.part.hbond>
-4.3726

> <Gold.PLP.part.metal>
0.0000

> <Gold.PLP.part.buried>
-4.5814

> <Gold.PLP.part.nonpolar>
-23.9712

> <Gold.PLP.part.repulsive>
0.3769

> <Gold.PLP.ligand.clash>
0.0000

> <Gold.PLP.ligand.torsion>
1.5605

> <Gold.PLP.Chemscore.Hbond>
3.9760

> <Gold.PLP.Chemscore.CHOScore>
0.0000

> <Gold.PLP.Chemscore.Metal>
0.0000

> <Gold.Chemscore.Hbonds>
donor molecule, donor type, donor heavy atom, donor atom, acceptor molecule, acceptor atom, score
      L1  H     6    23       P1  7948  1.00
      L1  H     9    24       P1  7948  1.00
      L1  H    14    41       P1 10747  1.00
      P1  H  7989  7998       L1     3  1.00

> <Gold.PLP.Chemscore.Internal.Correction>
0.0522

> <Gold.Rescore>
     Score         DG    S(hbond)    S(metal)    S(lipo)     H(rot)  DE(clash)    DE(int)     intcor
     18.08     -19.90       2.96        0.00      72.39       1.54       0.05       1.78       ----

> <Gold.Chemscore.Fitness>
18.0787

> <Gold.Chemscore.DG>
-19.9023

> <Gold.Chemscore.ZeroCoef>
-5.4800

> <Gold.Chemscore.Hbond>
2.9622

> <Gold.Chemscore.Metal>
0.0000

> <Gold.Chemscore.Lipo>
72.3907

> <Gold.Chemscore.Internal_Hbond>
0.0000

> <Gold.Chemscore.DEClash>
0.0453

> <Gold.Chemscore.DEInternal>
1.7783

> <Gold.Chemscore.Rot>
1.5396

> <Gold.Chemscore.Internal.Correction>
   9.000000E+99

> <Gold.Chemscore.Hbonds>
donor molecule, donor type, donor heavy atom, donor atom, acceptor molecule, acceptor atom, score
      L1  H     6    23       P1  7948  0.88
      L1  H     9    24       P1  7948  0.40
      L1  H    14    41       P1 10747  1.00
      P1  H  7989  7998       L1     3  0.30

> <Gold.Chemscore.Hbond.Weighted>
-9.8939

> <Gold.Chemscore.Metal.Weighted>
-0.0000

> <Gold.Chemscore.Lipo.Weighted>
-8.4697

> <Gold.Chemscore.Internal_Hbond.Weighted>
0.0000

> <Gold.Chemscore.DEClash.Weighted>
0.0453

> <Gold.Chemscore.DEInternal.Weighted>
1.7783

> <Gold.Chemscore.Rot.Weighted>
3.9413

> <Gold.Chemscore.Internal.Correction.Weighted>
   9.000000E+99

> <Gold.Protein.RotatedTorsions>
[ 6907 6896 6895 6894 ] final  -19.45 input  -60.11 | X-H torsion
[ 7974 7965 7964 7962 ] final  -68.39 input  175.53 | X-H torsion
[ 8008 7997 7996 7995 ] final -154.03 input   59.86 | X-H torsion
[ 10167 10162 10161 10158 ] final  -14.89 input  -65.29 | X-H torsion
[ 10718 10713 10712 10709 ] final  141.60 input   66.30 | X-H torsion
[ 10763 10752 10751 10750 ] final  179.61 input  -60.55 | X-H torsion
[ 11005 11000 10999 10996 ] final   -6.14 input  -57.11 | X-H torsion

> <Gold.Protein.ActiveResidues>
 VAL166  LYS551  ARG553  GLY616  TRP617  ASP618  TYR619  PRO620  LYS621  CYS622 
 ASP623  PHE694  ASN695  SER759  ASP760  ASP761  ALA762  ILE779  LEU786  VAL792 
 PHE793  MET794  SER795  GLU796  ALA797  LYS798  CYS799  TRP800  GLU811  SER814 

> <Gold.Protein.RotatedAtoms>
  151.2630  135.0660  159.9105 H   0  0  0  0  0  0  0  0  0  0  0  0  # atno 6907 bound_to 6896
  152.5363  134.0211  159.7992 H   0  0  0  0  0  0  0  0  0  0  0  0  # atno 6908 bound_to 6896
  151.0437  133.5634  159.2680 H   0  0  0  0  0  0  0  0  0  0  0  0  # atno 6909 bound_to 6896
  145.7171  140.9054  143.0650 H   0  0  0  0  0  0  0  0  0  0  0  0  # atno 7974 bound_to 7965
  155.6800  140.0743  157.2488 H   0  0  0  0  0  0  0  0  0  0  0  0  # atno 8008 bound_to 7997
  154.4107  140.1683  156.2024 H   0  0  0  0  0  0  0  0  0  0  0  0  # atno 8009 bound_to 7997
  155.9543  140.3375  155.6438 H   0  0  0  0  0  0  0  0  0  0  0  0  # atno 8010 bound_to 7997
  140.7209  143.5274  150.9560 H   0  0  0  0  0  0  0  0  0  0  0  0  # atno 10167 bound_to 10162
  157.3902  131.1003  151.0654 H   0  0  0  0  0  0  0  0  0  0  0  0  # atno 10718 bound_to 10713
  154.5229  135.2795  155.1247 H   0  0  0  0  0  0  0  0  0  0  0  0  # atno 10763 bound_to 10752
  154.2797  135.6288  153.5346 H   0  0  0  0  0  0  0  0  0  0  0  0  # atno 10764 bound_to 10752
  152.9940  135.5648  154.5723 H   0  0  0  0  0  0  0  0  0  0  0  0  # atno 10765 bound_to 10752
  140.6987  133.9008  155.8668 H   0  0  0  0  0  0  0  0  0  0  0  0  # atno 11005 bound_to 11000
  144.6926  139.9152  143.7465 LP  0  0  0  0  0  0  0  0  0  0  0  0  # atno 17320 bound_to 7965
  146.0660  139.3650  143.0552 LP  0  0  0  0  0  0  0  0  0  0  0  0  # atno 17321 bound_to 7965
  139.8993  143.6855  152.3133 LP  0  0  0  0  0  0  0  0  0  0  0  0  # atno 17342 bound_to 10162
  139.7199  144.7604  151.0972 LP  0  0  0  0  0  0  0  0  0  0  0  0  # atno 17343 bound_to 10162
  157.1691  130.6259  149.5635 LP  0  0  0  0  0  0  0  0  0  0  0  0  # atno 17370 bound_to 10713
  155.9796  130.4791  150.6726 LP  0  0  0  0  0  0  0  0  0  0  0  0  # atno 17371 bound_to 10713
  141.0181  134.0927  157.4150 LP  0  0  0  0  0  0  0  0  0  0  0  0  # atno 17394 bound_to 11000
  139.8903  135.0111  156.6726 LP  0  0  0  0  0  0  0  0  0  0  0  0  # atno 17395 bound_to 11000

$$$$
