AV-unprocessed.smi:1268|AV-procd|sdf|5324|dock1
  -GOLD-   22720 4453D 1   1.00000     0.00000
 Structure written by MMmdl.
 40 41  0  0  0  0  0  0  0  0  2 V2000
  144.7855  137.5091  152.4524 O   0  0  0  0  0  0  0  0  0  0  0  0
  145.9429  137.2500  152.1225 C   0  0  0  0  0  0  0  0  0  0  0  0
  146.9341  138.1532  152.1459 N   0  0  0  0  0  0  0  0  0  0  0  0
  146.7817  139.5499  152.5413 C   0  0  0  0  0  0  0  0  0  0  0  0
  147.6167  139.8919  153.7926 C   0  0  1  0  0  0  0  0  0  0  0  0
  148.8177  139.1470  153.7363 O   0  0  0  0  0  0  0  0  0  0  0  0
  147.9953  141.3862  153.8264 C   0  0  0  0  0  0  0  0  0  0  0  0
  148.5453  141.8055  155.1411 N   0  3  0  0  0  0  0  0  0  0  0  0
  147.6980  141.3571  156.2766 C   0  0  0  0  0  0  0  0  0  0  0  0
  148.2033  141.9368  157.6084 C   0  0  0  0  0  0  0  0  0  0  0  0
  149.6728  141.5668  157.8477 C   0  0  0  0  0  0  0  0  0  0  0  0
  150.5251  141.9999  156.6477 C   0  0  0  0  0  0  0  0  0  0  0  0
  149.9688  141.4189  155.3365 C   0  0  0  0  0  0  0  0  0  0  0  0
  146.3832  136.0523  151.7053 N   0  0  0  0  0  0  0  0  0  0  0  0
  145.6330  134.8612  151.5431 C   0  0  0  0  0  0  0  0  0  0  0  0
  144.3022  134.9397  151.4919 N   0  0  0  0  0  0  0  0  0  0  0  0
  143.7078  133.6840  151.3355 C   0  0  0  0  0  0  0  0  0  0  0  0
  144.6094  132.6509  151.2681 C   0  0  0  0  0  0  0  0  0  0  0  0
  146.2538  133.2146  151.3981 S   0  0  0  0  0  0  0  0  0  0  0  0
  147.8558  137.8591  151.8569 H   0  0  0  0  0  0  0  0  0  0  0  0
  147.0475  140.1964  151.7038 H   0  0  0  0  0  0  0  0  0  0  0  0
  145.7235  139.7334  152.7357 H   0  0  0  0  0  0  0  0  0  0  0  0
  147.0690  139.6207  154.6944 H   0  0  0  0  0  0  0  0  0  0  0  0
  149.3347  139.4656  153.0114 H   0  0  0  0  0  0  0  0  0  0  0  0
  148.7275  141.5743  153.0391 H   0  0  0  0  0  0  0  0  0  0  0  0
  147.1307  142.0077  153.5881 H   0  0  0  0  0  0  0  0  0  0  0  0
  146.6677  141.6783  156.1184 H   0  0  0  0  0  0  0  0  0  0  0  0
  147.6892  140.2666  156.3176 H   0  0  0  0  0  0  0  0  0  0  0  0
  148.0951  143.0223  157.5992 H   0  0  0  0  0  0  0  0  0  0  0  0
  147.5883  141.5715  158.4313 H   0  0  0  0  0  0  0  0  0  0  0  0
  150.0365  142.0398  158.7605 H   0  0  0  0  0  0  0  0  0  0  0  0
  149.7631  140.4899  157.9957 H   0  0  0  0  0  0  0  0  0  0  0  0
  150.5455  143.0889  156.5858 H   0  0  0  0  0  0  0  0  0  0  0  0
  151.5574  141.6786  156.7897 H   0  0  0  0  0  0  0  0  0  0  0  0
  150.0532  140.3311  155.3446 H   0  0  0  0  0  0  0  0  0  0  0  0
  150.5790  141.7744  154.5071 H   0  0  0  0  0  0  0  0  0  0  0  0
  147.3631  135.9837  151.4734 H   0  0  0  0  0  0  0  0  0  0  0  0
  142.6313  133.6162  151.2819 H   0  0  0  0  0  0  0  0  0  0  0  0
  144.4063  131.5968  151.1508 H   0  0  0  0  0  0  0  0  0  0  0  0
  148.5084  142.8151  155.1474 H   0  0  0  0  0  0  0  0  0  0  0  0
  1  2  2  0  0  0  0
  2  3  1  0  0  0  0
  2 14  1  0  0  0  0
  3  4  1  0  0  0  0
  3 20  1  0  0  0  0
  4  5  1  0  0  0  0
  4 21  1  0  0  0  0
  4 22  1  0  0  0  0
  5  6  1  0  0  0  0
  5  7  1  0  0  0  0
  5 23  1  0  0  0  0
  6 24  1  0  0  0  0
  7  8  1  0  0  0  0
  7 25  1  0  0  0  0
  7 26  1  0  0  0  0
  8 13  1  0  0  0  0
  8  9  1  0  0  0  0
  8 40  1  0  0  0  0
  9 10  1  0  0  0  0
  9 27  1  0  0  0  0
  9 28  1  0  0  0  0
 10 11  1  0  0  0  0
 10 29  1  0  0  0  0
 10 30  1  0  0  0  0
 11 12  1  0  0  0  0
 11 31  1  0  0  0  0
 11 32  1  0  0  0  0
 12 13  1  0  0  0  0
 12 33  1  0  0  0  0
 12 34  1  0  0  0  0
 13 35  1  0  0  0  0
 13 36  1  0  0  0  0
 14 15  1  0  0  0  0
 14 37  1  0  0  0  0
 15 19  1  0  0  0  0
 15 16  2  0  0  0  0
 16 17  1  0  0  0  0
 17 18  2  0  0  0  0
 17 38  1  0  0  0  0
 18 19  1  0  0  0  0
 18 39  1  0  0  0  0
M  CHG  1   8   1
M  END
> <s_m_source_file>
AV-unprocessed.smi

> <i_m_source_file_index>
1268

> <i_lp_mmshare_version>
43012

> <i_f3d_flags>
0

> <s_epik_input>
czFbY0hdW2NIXW5jMVtOSF1DKD1PKVtOSF1bQ0gyXVtDQEhdKFtPSF0pW0NIMl1OMltDSDJdW0NIMl1bQ0gyXVtDSDJdW0NIMl0y

> <s_epik_cmdline>
J2VwaWtfcHl0aG9uJywgJy1waCcsICc3LjAnLCAnLXRuJywgJzgnLCAnLW1hJywgJzIwMCcsICctbWV0YWxfYmluZGluZycsICctaW1hZScsICc8aW5maWxlLm1hZT4nLCAnLW9tYWUnLCAnPG91dGZpbGUubWFlPic=

> <r_lp_tautomer_probability>
0.999

> <r_epik_Ionization_Penalty>
0.00539631

> <r_epik_Ionization_Penalty_Charging>
0.00525788

> <r_epik_Ionization_Penalty_Neutral>
0.000138432

> <r_epik_State_Penalty>
0.0038355

> <r_epik_Charging_Adjusted_Penalty>
0.00909338

> <i_epik_Tot_Q>
1

> <i_epik_Tot_abs_Q>
1

> <r_epik_Metal_State_Penalty>
0.0500806

> <b_epik_Metal_Only>
0

> <s_lp_Force_Field>
OPLS_2005

> <r_lp_Energy>
15.7881

> <b_lp_Chiralities_Consistent>
1

> <s_lp_Variant>
AV-unprocessed.smi:1268-2

> <Gold.Version>
5.8.1

> <Gold.Id.Protein>
6NUR|6NUR_protein|mol2

> <Gold.PLP.Fitness>
48.5437

> <Gold.PLP.PLP>
-32.2772

> <Gold.PLP.part.hbond>
-3.9746

> <Gold.PLP.part.metal>
0.0000

> <Gold.PLP.part.buried>
-4.4243

> <Gold.PLP.part.nonpolar>
-24.9260

> <Gold.PLP.part.repulsive>
1.4118

> <Gold.PLP.ligand.clash>
0.0000

> <Gold.PLP.ligand.torsion>
0.5529

> <Gold.PLP.Chemscore.Hbond>
4.7680

> <Gold.PLP.Chemscore.CHOScore>
1.0000

> <Gold.PLP.Chemscore.Metal>
0.0000

> <Gold.Chemscore.Hbonds>
donor molecule, donor type, donor heavy atom, donor atom, acceptor molecule, acceptor atom, score
      L1  H     3    20       P1  7948  0.80
      L1  H     6    24       P1  7957  1.00
      L1  H     8    40       P1  8028  2.00
      L1  H    14    37       P1  7948  1.00
      L1  C    17    38       P1 10186  1.00

> <Gold.PLP.Chemscore.Internal.Correction>
0.0682

> <Gold.Rescore>
     Score         DG    S(hbond)    S(metal)    S(lipo)     H(rot)  DE(clash)    DE(int)     intcor
     17.10     -19.44       3.81        0.00      66.20       2.54       0.29       2.05       ----

> <Gold.Chemscore.Fitness>
17.1011

> <Gold.Chemscore.DG>
-19.4411

> <Gold.Chemscore.ZeroCoef>
-5.4800

> <Gold.Chemscore.Hbond>
3.8067

> <Gold.Chemscore.Metal>
0.0000

> <Gold.Chemscore.Lipo>
66.1954

> <Gold.Chemscore.Internal_Hbond>
0.0000

> <Gold.Chemscore.DEClash>
0.2865

> <Gold.Chemscore.DEInternal>
2.0534

> <Gold.Chemscore.Rot>
2.5383

> <Gold.Chemscore.Internal.Correction>
   9.000000E+99

> <Gold.Chemscore.Hbonds>
donor molecule, donor type, donor heavy atom, donor atom, acceptor molecule, acceptor atom, score
      L1  H     3    20       P1  7948  0.79
      L1  H     6    24       P1  7957  0.96
      L1  H     8    40       P1  8028  0.97
      L1  H    14    37       P1  7948  0.95

> <Gold.Chemscore.Hbond.Weighted>
-12.7143

> <Gold.Chemscore.Metal.Weighted>
-0.0000

> <Gold.Chemscore.Lipo.Weighted>
-7.7449

> <Gold.Chemscore.Internal_Hbond.Weighted>
0.0000

> <Gold.Chemscore.DEClash.Weighted>
0.2865

> <Gold.Chemscore.DEInternal.Weighted>
2.0534

> <Gold.Chemscore.Rot.Weighted>
6.4981

> <Gold.Chemscore.Internal.Correction.Weighted>
   9.000000E+99

> <Gold.Protein.RotatedTorsions>
[ 6907 6896 6895 6894 ] final  -87.84 input  -60.11 | X-H torsion
[ 7974 7965 7964 7962 ] final  -43.23 input  175.53 | X-H torsion
[ 8008 7997 7996 7995 ] final   86.37 input   59.86 | X-H torsion
[ 10167 10162 10161 10158 ] final  -44.81 input  -65.29 | X-H torsion
[ 10718 10713 10712 10709 ] final -150.01 input   66.30 | X-H torsion
[ 10763 10752 10751 10750 ] final    5.13 input  -60.55 | X-H torsion
[ 11005 11000 10999 10996 ] final  121.75 input  -57.11 | X-H torsion

> <Gold.Protein.ActiveResidues>
 VAL166  LYS551  ARG553  GLY616  TRP617  ASP618  TYR619  PRO620  LYS621  CYS622 
 ASP623  PHE694  ASN695  SER759  ASP760  ASP761  ALA762  ILE779  LEU786  VAL792 
 PHE793  MET794  SER795  GLU796  ALA797  LYS798  CYS799  TRP800  GLU811  SER814 

> <Gold.Protein.RotatedAtoms>
  150.6867  134.2835  159.4636 H   0  0  0  0  0  0  0  0  0  0  0  0  # atno 6907 bound_to 6896
  152.0746  134.9508  160.0583 H   0  0  0  0  0  0  0  0  0  0  0  0  # atno 6908 bound_to 6896
  152.0885  133.4153  159.4570 H   0  0  0  0  0  0  0  0  0  0  0  0  # atno 6909 bound_to 6896
  146.0039  140.7042  142.9257 H   0  0  0  0  0  0  0  0  0  0  0  0  # atno 7974 bound_to 7965
  155.9619  140.3392  155.6498 H   0  0  0  0  0  0  0  0  0  0  0  0  # atno 8008 bound_to 7997
  155.6787  140.0735  157.2511 H   0  0  0  0  0  0  0  0  0  0  0  0  # atno 8009 bound_to 7997
  154.4145  140.1678  156.1946 H   0  0  0  0  0  0  0  0  0  0  0  0  # atno 8010 bound_to 7997
  140.6882  143.2911  151.3549 H   0  0  0  0  0  0  0  0  0  0  0  0  # atno 10167 bound_to 10162
  156.4406  130.8120  151.2349 H   0  0  0  0  0  0  0  0  0  0  0  0  # atno 10718 bound_to 10713
  153.2630  135.6925  153.7559 H   0  0  0  0  0  0  0  0  0  0  0  0  # atno 10763 bound_to 10752
  153.6611  135.3360  155.3128 H   0  0  0  0  0  0  0  0  0  0  0  0  # atno 10764 bound_to 10752
  154.8437  135.4477  154.1626 H   0  0  0  0  0  0  0  0  0  0  0  0  # atno 10765 bound_to 10752
  139.9239  134.9639  156.8006 H   0  0  0  0  0  0  0  0  0  0  0  0  # atno 11005 bound_to 11000
  144.6929  140.3281  143.7221 LP  0  0  0  0  0  0  0  0  0  0  0  0  # atno 17320 bound_to 7965
  145.7445  139.1774  143.2357 LP  0  0  0  0  0  0  0  0  0  0  0  0  # atno 17321 bound_to 7965
  139.6260  144.0813  152.2435 LP  0  0  0  0  0  0  0  0  0  0  0  0  # atno 17342 bound_to 10162
  140.0272  144.6108  150.7517 LP  0  0  0  0  0  0  0  0  0  0  0  0  # atno 17343 bound_to 10162
  157.7506  131.0169  150.3565 LP  0  0  0  0  0  0  0  0  0  0  0  0  # atno 17370 bound_to 10713
  156.3922  130.3900  149.7021 LP  0  0  0  0  0  0  0  0  0  0  0  0  # atno 17371 bound_to 10713
  140.6393  133.9833  155.7700 LP  0  0  0  0  0  0  0  0  0  0  0  0  # atno 17394 bound_to 11000
  141.0782  134.0103  157.3426 LP  0  0  0  0  0  0  0  0  0  0  0  0  # atno 17395 bound_to 11000

$$$$
