AV-unprocessed.smi:1196|AV-procd|sdf|5002|dock9
  -GOLD-   22720 4 13D 1   1.00000     0.00000
 Structure written by MMmdl.
 36 37  0  0  0  0  0  0  0  0  2 V2000
  152.2524  139.7631  156.9618 C   0  0  0  0  0  0  0  0  0  0  0  0
  150.7198  139.8649  156.9114 C   0  0  2  0  0  0  0  0  0  0  0  0
  150.1782  140.7670  158.0374 C   0  0  0  0  0  0  0  0  0  0  0  0
  151.0458  141.9010  158.3034 N   0  0  0  0  0  0  0  0  0  0  0  0
  151.0063  143.1605  157.7435 C   0  0  0  0  0  0  0  0  0  0  0  0
  152.0250  143.8828  158.2956 C   0  0  0  0  0  0  0  0  0  0  0  0
  152.6400  142.9667  159.1939 C   0  0  0  0  0  0  0  0  0  0  0  0
  152.0510  141.7817  159.1975 N   0  0  0  0  0  0  0  0  0  0  0  0
  150.1257  138.5331  157.0093 N   0  0  0  0  0  0  0  0  0  0  0  0
  150.1186  137.7616  158.1067 C   0  0  0  0  0  0  0  0  0  0  0  0
  150.5956  138.1187  159.1847 O   0  0  0  0  0  0  0  0  0  0  0  0
  149.4707  136.3831  157.9434 C   0  0  0  0  0  0  0  0  0  0  0  0
  148.1732  136.2065  158.7570 C   0  0  0  0  0  0  0  0  0  0  0  0
  148.4248  136.0836  160.2746 C   0  0  1  0  0  0  0  0  0  0  0  0
  147.7695  137.1510  161.0108 N   0  5  0  0  0  0  0  0  0  0  0  0
  146.9039  136.5964  161.8920 C   0  0  0  0  0  0  0  0  0  0  0  0
  146.1730  137.1749  162.6927 O   0  0  0  0  0  0  0  0  0  0  0  0
  146.9211  135.2628  161.7967 N   0  0  0  0  0  0  0  0  0  0  0  0
  147.7733  134.8477  160.8652 C   0  0  0  0  0  0  0  0  0  0  0  0
  148.0070  133.6876  160.5290 O   0  0  0  0  0  0  0  0  0  0  0  0
  152.7120  140.7479  156.8771 H   0  0  0  0  0  0  0  0  0  0  0  0
  152.6363  139.1529  156.1436 H   0  0  0  0  0  0  0  0  0  0  0  0
  152.5905  139.3167  157.8976 H   0  0  0  0  0  0  0  0  0  0  0  0
  150.4408  140.3122  155.9553 H   0  0  0  0  0  0  0  0  0  0  0  0
  149.1830  141.1386  157.7884 H   0  0  0  0  0  0  0  0  0  0  0  0
  150.0733  140.1948  158.9604 H   0  0  0  0  0  0  0  0  0  0  0  0
  150.2678  143.4329  157.0042 H   0  0  0  0  0  0  0  0  0  0  0  0
  152.2915  144.9083  158.0874 H   0  0  0  0  0  0  0  0  0  0  0  0
  153.4912  143.1266  159.8392 H   0  0  0  0  0  0  0  0  0  0  0  0
  149.7082  138.1584  156.1699 H   0  0  0  0  0  0  0  0  0  0  0  0
  149.2675  136.2187  156.8848 H   0  0  0  0  0  0  0  0  0  0  0  0
  150.1989  135.6282  158.2432 H   0  0  0  0  0  0  0  0  0  0  0  0
  147.4934  137.0374  158.5581 H   0  0  0  0  0  0  0  0  0  0  0  0
  147.6617  135.3076  158.4083 H   0  0  0  0  0  0  0  0  0  0  0  0
  149.4960  136.0347  160.4744 H   0  0  0  0  0  0  0  0  0  0  0  0
  146.3483  134.6484  162.3556 H   0  0  0  0  0  0  0  0  0  0  0  0
  1  2  1  0  0  0  0
  1 21  1  0  0  0  0
  1 22  1  0  0  0  0
  1 23  1  0  0  0  0
  2  3  1  0  0  0  0
  2  9  1  0  0  0  0
  2 24  1  0  0  0  0
  3  4  1  0  0  0  0
  3 25  1  0  0  0  0
  3 26  1  0  0  0  0
  4  8  1  0  0  0  0
  4  5  1  0  0  0  0
  5  6  2  0  0  0  0
  5 27  1  0  0  0  0
  6  7  1  0  0  0  0
  6 28  1  0  0  0  0
  7  8  2  0  0  0  0
  7 29  1  0  0  0  0
  9 10  1  0  0  0  0
  9 30  1  0  0  0  0
 10 11  2  0  0  0  0
 10 12  1  0  0  0  0
 12 13  1  0  0  0  0
 12 31  1  0  0  0  0
 12 32  1  0  0  0  0
 13 14  1  0  0  0  0
 13 33  1  0  0  0  0
 13 34  1  0  0  0  0
 14 19  1  0  0  0  0
 14 15  1  0  0  0  0
 14 35  1  0  0  0  0
 15 16  1  0  0  0  0
 16 17  2  0  0  0  0
 16 18  1  0  0  0  0
 18 19  1  0  0  0  0
 18 36  1  0  0  0  0
 19 20  2  0  0  0  0
M  CHG  1  15  -1
M  END
> <s_m_source_file>
AV-unprocessed.smi

> <i_m_source_file_index>
1196

> <i_lp_mmshare_version>
43012

> <i_f3d_flags>
0

> <s_epik_input>
bjFbY0hdW2NIXVtjSF1uMVtDSDJdW0NAQEhdKFtDSDNdKVtOSF1DKD1PKVtDSDJdW0NIMl1bQ0BASF0yW05IXUMoPU8pW05IXUMyPU8=

> <s_epik_cmdline>
J2VwaWtfcHl0aG9uJywgJy1waCcsICc3LjAnLCAnLXRuJywgJzgnLCAnLW1hJywgJzIwMCcsICctbWV0YWxfYmluZGluZycsICctaW1hZScsICc8aW5maWxlLm1hZT4nLCAnLW9tYWUnLCAnPG91dGZpbGUubWFlPic=

> <r_lp_tautomer_probability>
1

> <r_epik_Ionization_Penalty>
5.79547

> <r_epik_Ionization_Penalty_Charging>
5.79516

> <r_epik_Ionization_Penalty_Neutral>
0.000313087

> <r_epik_State_Penalty>
5.80096

> <r_epik_Charging_Adjusted_Penalty>
11.5961

> <i_epik_Tot_Q>
-1

> <i_epik_Tot_abs_Q>
1

> <r_epik_Metal_State_Penalty>
2.14443

> <b_epik_Metal_Only>
1

> <s_lp_Force_Field>
OPLS_2005

> <r_lp_Energy>
10.7967

> <b_lp_Chiralities_Consistent>
1

> <s_lp_Variant>
AV-unprocessed.smi:1196-7

> <Gold.Version>
5.8.1

> <Gold.Id.Protein>
6NUR|6NUR_protein|mol2

> <Gold.PLP.Fitness>
40.4369

> <Gold.PLP.PLP>
-29.6137

> <Gold.PLP.part.hbond>
-2.5724

> <Gold.PLP.part.metal>
0.0000

> <Gold.PLP.part.buried>
-4.2719

> <Gold.PLP.part.nonpolar>
-23.0329

> <Gold.PLP.part.repulsive>
0.0466

> <Gold.PLP.ligand.clash>
0.0000

> <Gold.PLP.ligand.torsion>
1.4877

> <Gold.PLP.Chemscore.Hbond>
3.5840

> <Gold.PLP.Chemscore.CHOScore>
1.0000

> <Gold.PLP.Chemscore.Metal>
0.0000

> <Gold.Chemscore.Hbonds>
donor molecule, donor type, donor heavy atom, donor atom, acceptor molecule, acceptor atom, score
      P1  H  6931  6943       L1    15  1.86
      P1  H  6934  6947       L1    15  1.73
      L1  C     5    27       P1  8028  1.00

> <Gold.PLP.Chemscore.Internal.Correction>
0.0466

> <Gold.Rescore>
     Score         DG    S(hbond)    S(metal)    S(lipo)     H(rot)  DE(clash)    DE(int)     intcor
      7.26      -9.60       1.38        0.00      59.29       2.89       0.06       2.29       ----

> <Gold.Chemscore.Fitness>
7.2552

> <Gold.Chemscore.DG>
-9.6005

> <Gold.Chemscore.ZeroCoef>
-5.4800

> <Gold.Chemscore.Hbond>
1.3755

> <Gold.Chemscore.Metal>
0.0000

> <Gold.Chemscore.Lipo>
59.2873

> <Gold.Chemscore.Internal_Hbond>
0.0000

> <Gold.Chemscore.DEClash>
0.0580

> <Gold.Chemscore.DEInternal>
2.2873

> <Gold.Chemscore.Rot>
2.8946

> <Gold.Chemscore.Internal.Correction>
   9.000000E+99

> <Gold.Chemscore.Hbonds>
donor molecule, donor type, donor heavy atom, donor atom, acceptor molecule, acceptor atom, score
      P1  H  6931  6943       L1    15  0.55
      P1  H  6934  6947       L1    15  0.33

> <Gold.Chemscore.Hbond.Weighted>
-4.5940

> <Gold.Chemscore.Metal.Weighted>
-0.0000

> <Gold.Chemscore.Lipo.Weighted>
-6.9366

> <Gold.Chemscore.Internal_Hbond.Weighted>
0.0000

> <Gold.Chemscore.DEClash.Weighted>
0.0580

> <Gold.Chemscore.DEInternal.Weighted>
2.2873

> <Gold.Chemscore.Rot.Weighted>
7.4101

> <Gold.Chemscore.Internal.Correction.Weighted>
   9.000000E+99

> <Gold.Protein.RotatedTorsions>
[ 6907 6896 6895 6894 ] final  111.20 input  -60.11 | X-H torsion
[ 7974 7965 7964 7962 ] final  166.04 input  175.53 | X-H torsion
[ 8008 7997 7996 7995 ] final -117.77 input   59.86 | X-H torsion
[ 10167 10162 10161 10158 ] final  -25.69 input  -65.29 | X-H torsion
[ 10718 10713 10712 10709 ] final  -95.40 input   66.30 | X-H torsion
[ 10763 10752 10751 10750 ] final   36.63 input  -60.55 | X-H torsion
[ 11005 11000 10999 10996 ] final   42.81 input  -57.11 | X-H torsion

> <Gold.Protein.ActiveResidues>
 VAL166  LYS551  ARG553  GLY616  TRP617  ASP618  TYR619  PRO620  LYS621  CYS622 
 ASP623  PHE694  ASN695  SER759  ASP760  ASP761  ALA762  ILE779  LEU786  VAL792 
 PHE793  MET794  SER795  GLU796  ALA797  LYS798  CYS799  TRP800  GLU811  SER814 

> <Gold.Protein.RotatedAtoms>
  152.4981  133.8691  159.7288 H   0  0  0  0  0  0  0  0  0  0  0  0  # atno 6907 bound_to 6896
  150.9182  133.6904  159.2845 H   0  0  0  0  0  0  0  0  0  0  0  0  # atno 6908 bound_to 6896
  151.4290  135.1011  159.9689 H   0  0  0  0  0  0  0  0  0  0  0  0  # atno 6909 bound_to 6896
  144.7478  139.8558  143.6376 H   0  0  0  0  0  0  0  0  0  0  0  0  # atno 7974 bound_to 7965
  155.0890  140.0395  157.2663 H   0  0  0  0  0  0  0  0  0  0  0  0  # atno 8008 bound_to 7997
  154.6847  140.2640  155.6848 H   0  0  0  0  0  0  0  0  0  0  0  0  # atno 8009 bound_to 7997
  156.2707  140.2771  156.1404 H   0  0  0  0  0  0  0  0  0  0  0  0  # atno 8010 bound_to 7997
  140.7285  143.4242  151.0902 H   0  0  0  0  0  0  0  0  0  0  0  0  # atno 10167 bound_to 10162
  156.0043  130.5107  150.6070 H   0  0  0  0  0  0  0  0  0  0  0  0  # atno 10718 bound_to 10713
  153.0069  135.6300  154.2015 H   0  0  0  0  0  0  0  0  0  0  0  0  # atno 10763 bound_to 10752
  154.1759  135.2816  155.3069 H   0  0  0  0  0  0  0  0  0  0  0  0  # atno 10764 bound_to 10752
  154.5873  135.5629  153.7303 H   0  0  0  0  0  0  0  0  0  0  0  0  # atno 10765 bound_to 10752
  140.1704  134.4229  155.8261 H   0  0  0  0  0  0  0  0  0  0  0  0  # atno 11005 bound_to 11000
  146.1383  139.4434  143.0125 LP  0  0  0  0  0  0  0  0  0  0  0  0  # atno 17320 bound_to 7965
  145.7057  141.0122  143.1480 LP  0  0  0  0  0  0  0  0  0  0  0  0  # atno 17321 bound_to 7965
  139.7892  143.8243  152.3149 LP  0  0  0  0  0  0  0  0  0  0  0  0  # atno 17342 bound_to 10162
  139.8221  144.7291  150.9559 LP  0  0  0  0  0  0  0  0  0  0  0  0  # atno 17343 bound_to 10162
  157.3909  131.0795  151.1394 LP  0  0  0  0  0  0  0  0  0  0  0  0  # atno 17370 bound_to 10713
  157.2086  130.6427  149.5765 LP  0  0  0  0  0  0  0  0  0  0  0  0  # atno 17371 bound_to 10713
  141.2217  133.6953  156.7753 LP  0  0  0  0  0  0  0  0  0  0  0  0  # atno 17394 bound_to 11000
  140.2384  134.8632  157.3548 LP  0  0  0  0  0  0  0  0  0  0  0  0  # atno 17395 bound_to 11000

$$$$
