AV-unprocessed.smi:2990|AV-procd|sdf|11395|dock1
  -GOLD-   2272016323D 1   1.00000     0.00000
 Structure written by MMmdl.
 40 42  0  0  0  0  0  0  0  0  2 V2000
  151.8679  137.8752  154.1277 C   0  0  0  0  0  0  0  0  0  0  0  0
  150.6718  138.7619  154.2207 C   0  0  0  0  0  0  0  0  0  0  0  0
  149.4891  138.5856  153.5669 N   0  3  0  0  0  0  0  0  0  0  0  0
  148.6070  139.6142  153.9010 C   0  0  0  0  0  0  0  0  0  0  0  0
  147.3002  139.8617  153.4916 C   0  0  0  0  0  0  0  0  0  0  0  0
  146.6746  141.0060  154.0289 C   0  0  0  0  0  0  0  0  0  0  0  0
  147.3457  141.8514  154.9360 C   0  0  0  0  0  0  0  0  0  0  0  0
  148.6714  141.5913  155.3417 C   0  0  0  0  0  0  0  0  0  0  0  0
  149.2842  140.4593  154.8045 C   0  0  0  0  0  0  0  0  0  0  0  0
  150.5554  139.8954  154.9696 N   0  0  0  0  0  0  0  0  0  0  0  0
  151.5349  140.5428  155.8572 C   0  0  0  0  0  0  0  0  0  0  0  0
  151.9412  139.6550  157.0505 C   0  0  2  0  0  0  0  0  0  0  0  0
  151.0278  138.5861  157.1960 O   0  0  0  0  0  0  0  0  0  0  0  0
  151.9949  140.4321  158.3739 C   0  0  0  0  0  0  0  0  0  0  0  0
  151.6173  141.7807  158.1310 O   0  0  0  0  0  0  0  0  0  0  0  0
  151.8060  142.7033  159.1373 C   0  0  0  0  0  0  0  0  0  0  0  0
  151.4458  144.0375  158.8563 C   0  0  0  0  0  0  0  0  0  0  0  0
  151.6077  145.0475  159.8242 C   0  0  0  0  0  0  0  0  0  0  0  0
  152.1353  144.7312  161.0895 C   0  0  0  0  0  0  0  0  0  0  0  0
  152.4977  143.4039  161.3843 C   0  0  0  0  0  0  0  0  0  0  0  0
  152.3346  142.3932  160.4165 C   0  0  0  0  0  0  0  0  0  0  0  0
  151.6640  137.0228  153.4793 H   0  0  0  0  0  0  0  0  0  0  0  0
  152.1382  137.5023  155.1158 H   0  0  0  0  0  0  0  0  0  0  0  0
  152.7142  138.4278  153.7193 H   0  0  0  0  0  0  0  0  0  0  0  0
  146.7835  139.2142  152.7983 H   0  0  0  0  0  0  0  0  0  0  0  0
  145.6595  141.2385  153.7409 H   0  0  0  0  0  0  0  0  0  0  0  0
  146.8333  142.7174  155.3297 H   0  0  0  0  0  0  0  0  0  0  0  0
  149.1732  142.2429  156.0418 H   0  0  0  0  0  0  0  0  0  0  0  0
  152.4113  140.7736  155.2506 H   0  0  0  0  0  0  0  0  0  0  0  0
  151.1418  141.5029  156.1921 H   0  0  0  0  0  0  0  0  0  0  0  0
  152.9225  139.2186  156.8602 H   0  0  0  0  0  0  0  0  0  0  0  0
  150.1552  138.9143  157.0403 H   0  0  0  0  0  0  0  0  0  0  0  0
  151.3320  139.9714  159.1086 H   0  0  0  0  0  0  0  0  0  0  0  0
  153.0118  140.4063  158.7701 H   0  0  0  0  0  0  0  0  0  0  0  0
  151.0403  144.2895  157.8875 H   0  0  0  0  0  0  0  0  0  0  0  0
  151.3274  146.0647  159.5946 H   0  0  0  0  0  0  0  0  0  0  0  0
  152.2619  145.5052  161.8320 H   0  0  0  0  0  0  0  0  0  0  0  0
  152.9029  143.1601  162.3553 H   0  0  0  0  0  0  0  0  0  0  0  0
  152.6250  141.3878  160.6806 H   0  0  0  0  0  0  0  0  0  0  0  0
  149.3011  137.8157  152.9378 H   0  0  0  0  0  0  0  0  0  0  0  0
  1  2  1  0  0  0  0
  1 22  1  0  0  0  0
  1 23  1  0  0  0  0
  1 24  1  0  0  0  0
  2 10  1  0  0  0  0
  2  3  2  0  0  0  0
  3  4  1  0  0  0  0
  3 40  1  0  0  0  0
  4  9  2  0  0  0  0
  4  5  1  0  0  0  0
  5  6  2  0  0  0  0
  5 25  1  0  0  0  0
  6  7  1  0  0  0  0
  6 26  1  0  0  0  0
  7  8  2  0  0  0  0
  7 27  1  0  0  0  0
  8  9  1  0  0  0  0
  8 28  1  0  0  0  0
  9 10  1  0  0  0  0
 10 11  1  0  0  0  0
 11 12  1  0  0  0  0
 11 29  1  0  0  0  0
 11 30  1  0  0  0  0
 12 13  1  0  0  0  0
 12 14  1  0  0  0  0
 12 31  1  0  0  0  0
 13 32  1  0  0  0  0
 14 15  1  0  0  0  0
 14 33  1  0  0  0  0
 14 34  1  0  0  0  0
 15 16  1  0  0  0  0
 16 21  1  0  0  0  0
 16 17  2  0  0  0  0
 17 18  1  0  0  0  0
 17 35  1  0  0  0  0
 18 19  2  0  0  0  0
 18 36  1  0  0  0  0
 19 20  1  0  0  0  0
 19 37  1  0  0  0  0
 20 21  2  0  0  0  0
 20 38  1  0  0  0  0
 21 39  1  0  0  0  0
M  CHG  1   3   1
M  END
> <s_m_source_file>
AV-unprocessed.smi

> <i_m_source_file_index>
2990

> <i_lp_mmshare_version>
43012

> <i_f3d_flags>
0

> <s_epik_input>
W2NIXTFbY0hdW2NIXVtjSF1jKGMxMiluKGMobjIpW0NIM10pW0NIMl1bQ0BIXShbT0hdKVtDSDJdT2MzW2NIXVtjSF1bY0hdW2NIXVtjSF0z

> <s_epik_cmdline>
J2VwaWtfcHl0aG9uJywgJy1waCcsICc3LjAnLCAnLXRuJywgJzgnLCAnLW1hJywgJzIwMCcsICctbWV0YWxfYmluZGluZycsICctaW1hZScsICc8aW5maWxlLm1hZT4nLCAnLW9tYWUnLCAnPG91dGZpbGUubWFlPic=

> <r_lp_tautomer_probability>
1

> <r_epik_Ionization_Penalty>
1.00673

> <r_epik_Ionization_Penalty_Charging>
1.00673

> <r_epik_Ionization_Penalty_Neutral>
2.3993e-06

> <r_epik_State_Penalty>
1.05579

> <r_epik_Charging_Adjusted_Penalty>
2.06252

> <i_epik_Tot_Q>
1

> <i_epik_Tot_abs_Q>
1

> <r_epik_Metal_State_Penalty>
5.03947

> <b_epik_Metal_Only>
0

> <s_lp_Force_Field>
OPLS_2005

> <r_lp_Energy>
19.3411

> <b_lp_Chiralities_Consistent>
1

> <s_lp_Variant>
AV-unprocessed.smi:2990-3

> <Gold.Version>
5.8.1

> <Gold.Id.Protein>
6NUR|6NUR_protein|mol2

> <Gold.PLP.Fitness>
51.7958

> <Gold.PLP.PLP>
-48.5446

> <Gold.PLP.part.hbond>
-2.0000

> <Gold.PLP.part.metal>
0.0000

> <Gold.PLP.part.buried>
0.5499

> <Gold.PLP.part.nonpolar>
-46.2363

> <Gold.PLP.part.repulsive>
0.0869

> <Gold.PLP.ligand.clash>
0.0000

> <Gold.PLP.ligand.torsion>
1.4147

> <Gold.PLP.Chemscore.Hbond>
2.0000

> <Gold.PLP.Chemscore.CHOScore>
0.0000

> <Gold.PLP.Chemscore.Metal>
0.0000

> <Gold.Chemscore.Hbonds>
donor molecule, donor type, donor heavy atom, donor atom, acceptor molecule, acceptor atom, score
      L1  H     3    40       P1  7948  2.00

> <Gold.PLP.Chemscore.Internal.Correction>
0.0806

> <Gold.Rescore>
     Score         DG    S(hbond)    S(metal)    S(lipo)     H(rot)  DE(clash)    DE(int)     intcor
     16.35     -19.24       0.98        0.00     136.08       2.12       0.49       2.40       ----

> <Gold.Chemscore.Fitness>
16.3542

> <Gold.Chemscore.DG>
-19.2426

> <Gold.Chemscore.ZeroCoef>
-5.4800

> <Gold.Chemscore.Hbond>
0.9774

> <Gold.Chemscore.Metal>
0.0000

> <Gold.Chemscore.Lipo>
136.0782

> <Gold.Chemscore.Internal_Hbond>
0.0000

> <Gold.Chemscore.DEClash>
0.4869

> <Gold.Chemscore.DEInternal>
2.4015

> <Gold.Chemscore.Rot>
2.1184

> <Gold.Chemscore.Internal.Correction>
   9.000000E+99

> <Gold.Chemscore.Hbonds>
donor molecule, donor type, donor heavy atom, donor atom, acceptor molecule, acceptor atom, score
      L1  H     3    40       P1  7948  0.96

> <Gold.Chemscore.Hbond.Weighted>
-3.2646

> <Gold.Chemscore.Metal.Weighted>
-0.0000

> <Gold.Chemscore.Lipo.Weighted>
-15.9211

> <Gold.Chemscore.Internal_Hbond.Weighted>
0.0000

> <Gold.Chemscore.DEClash.Weighted>
0.4869

> <Gold.Chemscore.DEInternal.Weighted>
2.4015

> <Gold.Chemscore.Rot.Weighted>
5.4231

> <Gold.Chemscore.Internal.Correction.Weighted>
   9.000000E+99

> <Gold.Protein.RotatedTorsions>
[ 6907 6896 6895 6894 ] final   -0.13 input  -60.11 | X-H torsion
[ 7974 7965 7964 7962 ] final  150.83 input  175.53 | X-H torsion
[ 8008 7997 7996 7995 ] final  -55.79 input   59.86 | X-H torsion
[ 10167 10162 10161 10158 ] final -178.35 input  -65.29 | X-H torsion
[ 10718 10713 10712 10709 ] final   30.76 input   66.30 | X-H torsion
[ 10763 10752 10751 10750 ] final  -67.09 input  -60.55 | X-H torsion
[ 11005 11000 10999 10996 ] final -136.34 input  -57.11 | X-H torsion

> <Gold.Protein.ActiveResidues>
 VAL166  LYS551  ARG553  GLY616  TRP617  ASP618  TYR619  PRO620  LYS621  CYS622 
 ASP623  PHE694  ASN695  SER759  ASP760  ASP761  ALA762  ILE779  LEU786  VAL792 
 PHE793  MET794  SER795  GLU796  ALA797  LYS798  CYS799  TRP800  GLU811  SER814 

> <Gold.Protein.RotatedAtoms>
  151.5672  135.1063  159.9986 H   0  0  0  0  0  0  0  0  0  0  0  0  # atno 6907 bound_to 6896
  152.4418  133.7459  159.6677 H   0  0  0  0  0  0  0  0  0  0  0  0  # atno 6908 bound_to 6896
  150.8325  133.7998  159.3116 H   0  0  0  0  0  0  0  0  0  0  0  0  # atno 6909 bound_to 6896
  144.8336  139.6459  143.6048 H   0  0  0  0  0  0  0  0  0  0  0  0  # atno 7974 bound_to 7965
  154.4207  140.1145  156.5533 H   0  0  0  0  0  0  0  0  0  0  0  0  # atno 8008 bound_to 7997
  155.6387  140.3496  155.4688 H   0  0  0  0  0  0  0  0  0  0  0  0  # atno 8009 bound_to 7997
  155.9888  140.1175  157.0647 H   0  0  0  0  0  0  0  0  0  0  0  0  # atno 8010 bound_to 7997
  139.5436  144.2295  152.0945 H   0  0  0  0  0  0  0  0  0  0  0  0  # atno 10167 bound_to 10162
  157.2638  130.7174  149.6468 H   0  0  0  0  0  0  0  0  0  0  0  0  # atno 10718 bound_to 10713
  154.3694  135.6098  153.5732 H   0  0  0  0  0  0  0  0  0  0  0  0  # atno 10763 bound_to 10752
  152.9790  135.5834  154.4539 H   0  0  0  0  0  0  0  0  0  0  0  0  # atno 10764 bound_to 10752
  154.4291  135.2847  155.1902 H   0  0  0  0  0  0  0  0  0  0  0  0  # atno 10765 bound_to 10752
  140.8814  134.1927  157.4588 H   0  0  0  0  0  0  0  0  0  0  0  0  # atno 11005 bound_to 11000
  146.2637  139.6469  142.9344 LP  0  0  0  0  0  0  0  0  0  0  0  0  # atno 17320 bound_to 7965
  145.4843  141.0438  143.2628 LP  0  0  0  0  0  0  0  0  0  0  0  0  # atno 17321 bound_to 7965
  140.1778  144.4874  150.6545 LP  0  0  0  0  0  0  0  0  0  0  0  0  # atno 17342 bound_to 10162
  140.6676  143.2274  151.5704 LP  0  0  0  0  0  0  0  0  0  0  0  0  # atno 17343 bound_to 10162
  155.9663  130.4389  150.5236 LP  0  0  0  0  0  0  0  0  0  0  0  0  # atno 17370 bound_to 10713
  157.3146  131.0670  151.1976 LP  0  0  0  0  0  0  0  0  0  0  0  0  # atno 17371 bound_to 10713
  139.8720  134.9819  156.5134 LP  0  0  0  0  0  0  0  0  0  0  0  0  # atno 17394 bound_to 11000
  140.8457  133.8171  155.9118 LP  0  0  0  0  0  0  0  0  0  0  0  0  # atno 17395 bound_to 11000

$$$$
