AV-unprocessed.smi:2787|AV-procd|sdf|10758|dock1
  -GOLD-   2272015193D 1   1.00000     0.00000
 Structure written by MMmdl.
 36 37  0  0  0  0  0  0  0  0  2 V2000
  149.4618  141.0733  153.3283 O   0  0  0  0  0  0  0  0  0  0  0  0
  148.5307  140.7426  154.3367 C   0  0  0  0  0  0  0  0  0  0  0  0
  148.9410  141.3753  155.6745 C   0  0  0  0  0  0  0  0  0  0  0  0
  150.4602  141.3307  155.9209 C   0  0  0  0  0  0  0  0  0  0  0  0
  150.8932  142.1160  157.1212 C   0  0  0  0  0  0  0  0  0  0  0  0
  150.6298  143.4292  157.3829 N   0  3  0  0  0  0  0  0  0  0  0  0
  151.2101  143.7977  158.5967 C   0  0  0  0  0  0  0  0  0  0  0  0
  151.2127  145.0139  159.2728 C   0  0  0  0  0  0  0  0  0  0  0  0
  151.9031  145.0530  160.5018 C   0  0  0  0  0  0  0  0  0  0  0  0
  152.5552  143.9126  161.0140 C   0  0  0  0  0  0  0  0  0  0  0  0
  152.5465  142.6855  160.3183 C   0  0  0  0  0  0  0  0  0  0  0  0
  151.8630  142.6552  159.1027 C   0  0  0  0  0  0  0  0  0  0  0  0
  151.6432  141.6443  158.1587 N   0  0  0  0  0  0  0  0  0  0  0  0
  152.2100  140.3031  158.3786 C   0  0  0  0  0  0  0  0  0  0  0  0
  151.2661  139.1695  157.9277 C   0  0  2  0  0  0  0  0  0  0  0  0
  150.1582  139.0925  158.8040 O   0  0  0  0  0  0  0  0  0  0  0  0
  151.9647  137.7972  157.8674 C   0  0  0  0  0  0  0  0  0  0  0  0
  152.9827  137.8380  157.0075 F   0  0  0  0  0  0  0  0  0  0  0  0
  152.4543  137.4957  159.0701 F   0  0  0  0  0  0  0  0  0  0  0  0
  151.1090  136.8413  157.5036 F   0  0  0  0  0  0  0  0  0  0  0  0
  149.4701  140.3797  152.6860 H   0  0  0  0  0  0  0  0  0  0  0  0
  147.5360  141.0742  154.0377 H   0  0  0  0  0  0  0  0  0  0  0  0
  148.4945  139.6569  154.4308 H   0  0  0  0  0  0  0  0  0  0  0  0
  148.6092  142.4144  155.6798 H   0  0  0  0  0  0  0  0  0  0  0  0
  148.4129  140.8781  156.4894 H   0  0  0  0  0  0  0  0  0  0  0  0
  150.7845  140.2979  156.0517 H   0  0  0  0  0  0  0  0  0  0  0  0
  150.9875  141.7162  155.0477 H   0  0  0  0  0  0  0  0  0  0  0  0
  150.7138  145.8891  158.8828 H   0  0  0  0  0  0  0  0  0  0  0  0
  151.9329  145.9758  161.0631 H   0  0  0  0  0  0  0  0  0  0  0  0
  153.0728  143.9794  161.9600 H   0  0  0  0  0  0  0  0  0  0  0  0
  153.0463  141.8182  160.7238 H   0  0  0  0  0  0  0  0  0  0  0  0
  153.1443  140.2535  157.8192 H   0  0  0  0  0  0  0  0  0  0  0  0
  152.4844  140.1962  159.4281 H   0  0  0  0  0  0  0  0  0  0  0  0
  150.8775  139.4051  156.9360 H   0  0  0  0  0  0  0  0  0  0  0  0
  150.2886  138.3601  159.3864 H   0  0  0  0  0  0  0  0  0  0  0  0
  150.0899  144.0280  156.7714 H   0  0  0  0  0  0  0  0  0  0  0  0
  1  2  1  0  0  0  0
  1 21  1  0  0  0  0
  2  3  1  0  0  0  0
  2 22  1  0  0  0  0
  2 23  1  0  0  0  0
  3  4  1  0  0  0  0
  3 24  1  0  0  0  0
  3 25  1  0  0  0  0
  4  5  1  0  0  0  0
  4 26  1  0  0  0  0
  4 27  1  0  0  0  0
  5 13  1  0  0  0  0
  5  6  2  0  0  0  0
  6  7  1  0  0  0  0
  6 36  1  0  0  0  0
  7 12  2  0  0  0  0
  7  8  1  0  0  0  0
  8  9  2  0  0  0  0
  8 28  1  0  0  0  0
  9 10  1  0  0  0  0
  9 29  1  0  0  0  0
 10 11  2  0  0  0  0
 10 30  1  0  0  0  0
 11 12  1  0  0  0  0
 11 31  1  0  0  0  0
 12 13  1  0  0  0  0
 13 14  1  0  0  0  0
 14 15  1  0  0  0  0
 14 32  1  0  0  0  0
 14 33  1  0  0  0  0
 15 16  1  0  0  0  0
 15 17  1  0  0  0  0
 15 34  1  0  0  0  0
 16 35  1  0  0  0  0
 17 18  1  0  0  0  0
 17 19  1  0  0  0  0
 17 20  1  0  0  0  0
M  CHG  1   6   1
M  END
> <s_m_source_file>
AV-unprocessed.smi

> <i_m_source_file_index>
2787

> <i_lp_mmshare_version>
43012

> <i_f3d_flags>
0

> <s_epik_input>
W09IXVtDSDJdW0NIMl1bQ0gyXWMobjEpbihbQ0gyXVtDQEhdKFtPSF0pQyhGKShGKUYpYyhjMTIpW2NIXVtjSF1bY0hdW2NIXTI=

> <s_epik_cmdline>
J2VwaWtfcHl0aG9uJywgJy1waCcsICc3LjAnLCAnLXRuJywgJzgnLCAnLW1hJywgJzIwMCcsICctbWV0YWxfYmluZGluZycsICctaW1hZScsICc8aW5maWxlLm1hZT4nLCAnLW9tYWUnLCAnPG91dGZpbGUubWFlPic=

> <r_epik_Ionization_Penalty>
0.964009

> <r_epik_Ionization_Penalty_Charging>
0.952215

> <r_epik_Ionization_Penalty_Neutral>
0.0117938

> <r_epik_State_Penalty>
1.09527

> <r_epik_Charging_Adjusted_Penalty>
2.04749

> <i_epik_Tot_Q>
1

> <i_epik_Tot_abs_Q>
1

> <r_epik_Metal_State_Penalty>
5.08046

> <b_epik_Metal_Only>
0

> <s_lp_Force_Field>
OPLS_2005

> <r_lp_Energy>
17.2873

> <b_lp_Chiralities_Consistent>
1

> <s_lp_Variant>
AV-unprocessed.smi:2787-3

> <Gold.Version>
5.8.1

> <Gold.Id.Protein>
6NUR|6NUR_protein|mol2

> <Gold.PLP.Fitness>
54.5037

> <Gold.PLP.PLP>
-43.4449

> <Gold.PLP.part.hbond>
-3.8009

> <Gold.PLP.part.metal>
0.0000

> <Gold.PLP.part.buried>
-6.9665

> <Gold.PLP.part.nonpolar>
-32.6906

> <Gold.PLP.part.repulsive>
0.0000

> <Gold.PLP.ligand.clash>
0.0000

> <Gold.PLP.ligand.torsion>
0.5389

> <Gold.PLP.Chemscore.Hbond>
3.9758

> <Gold.PLP.Chemscore.CHOScore>
0.0000

> <Gold.PLP.Chemscore.Metal>
0.0000

> <Gold.Chemscore.Hbonds>
donor molecule, donor type, donor heavy atom, donor atom, acceptor molecule, acceptor atom, score
      L1  H     1    21       P1  7957  0.90
      L1  H     6    36       P1  8028  2.00
      P1  H  7989  7998       L1     1  0.05
      P1  H  8011  8017       L1     1  1.00

> <Gold.PLP.Chemscore.Internal.Correction>
0.2092

> <Gold.Rescore>
     Score         DG    S(hbond)    S(metal)    S(lipo)     H(rot)  DE(clash)    DE(int)     intcor
     16.18     -16.68       2.39        0.00     104.39       3.51       0.06       0.44       ----

> <Gold.Chemscore.Fitness>
16.1772

> <Gold.Chemscore.DG>
-16.6776

> <Gold.Chemscore.ZeroCoef>
-5.4800

> <Gold.Chemscore.Hbond>
2.3896

> <Gold.Chemscore.Metal>
0.0000

> <Gold.Chemscore.Lipo>
104.3853

> <Gold.Chemscore.Internal_Hbond>
0.0000

> <Gold.Chemscore.DEClash>
0.0582

> <Gold.Chemscore.DEInternal>
0.4422

> <Gold.Chemscore.Rot>
3.5143

> <Gold.Chemscore.Internal.Correction>
   9.000000E+99

> <Gold.Chemscore.Hbonds>
donor molecule, donor type, donor heavy atom, donor atom, acceptor molecule, acceptor atom, score
      L1  H     1    21       P1  7957  0.85
      L1  H     6    36       P1  8028  0.99
      P1  H  8011  8017       L1     1  0.25

> <Gold.Chemscore.Hbond.Weighted>
-7.9812

> <Gold.Chemscore.Metal.Weighted>
-0.0000

> <Gold.Chemscore.Lipo.Weighted>
-12.2131

> <Gold.Chemscore.Internal_Hbond.Weighted>
0.0000

> <Gold.Chemscore.DEClash.Weighted>
0.0582

> <Gold.Chemscore.DEInternal.Weighted>
0.4422

> <Gold.Chemscore.Rot.Weighted>
8.9967

> <Gold.Chemscore.Internal.Correction.Weighted>
   9.000000E+99

> <Gold.Protein.RotatedTorsions>
[ 6907 6896 6895 6894 ] final  -55.17 input  -60.11 | X-H torsion
[ 7974 7965 7964 7962 ] final -150.13 input  175.53 | X-H torsion
[ 8008 7997 7996 7995 ] final  -45.72 input   59.86 | X-H torsion
[ 10167 10162 10161 10158 ] final  -77.84 input  -65.29 | X-H torsion
[ 10718 10713 10712 10709 ] final  110.09 input   66.30 | X-H torsion
[ 10763 10752 10751 10750 ] final -171.61 input  -60.55 | X-H torsion
[ 11005 11000 10999 10996 ] final  169.42 input  -57.11 | X-H torsion

> <Gold.Protein.ActiveResidues>
 VAL166  LYS551  ARG553  GLY616  TRP617  ASP618  TYR619  PRO620  LYS621  CYS622 
 ASP623  PHE694  ASN695  SER759  ASP760  ASP761  ALA762  ILE779  LEU786  VAL792 
 PHE793  MET794  SER795  GLU796  ALA797  LYS798  CYS799  TRP800  GLU811  SER814 

> <Gold.Protein.RotatedAtoms>
  150.8275  134.7513  159.6824 H   0  0  0  0  0  0  0  0  0  0  0  0  # atno 6907 bound_to 6896
  152.4384  134.5637  159.9911 H   0  0  0  0  0  0  0  0  0  0  0  0  # atno 6908 bound_to 6896
  151.5806  133.3340  159.3043 H   0  0  0  0  0  0  0  0  0  0  0  0  # atno 6909 bound_to 6896
  144.7926  140.4973  143.5762 H   0  0  0  0  0  0  0  0  0  0  0  0  # atno 7974 bound_to 7965
  154.4002  140.1389  156.3893 H   0  0  0  0  0  0  0  0  0  0  0  0  # atno 8008 bound_to 7997
  155.7929  140.3478  155.5339 H   0  0  0  0  0  0  0  0  0  0  0  0  # atno 8009 bound_to 7997
  155.8561  140.0949  157.1634 H   0  0  0  0  0  0  0  0  0  0  0  0  # atno 8010 bound_to 7997
  140.4735  143.2420  151.8168 H   0  0  0  0  0  0  0  0  0  0  0  0  # atno 10167 bound_to 10162
  157.6511  131.0926  150.6550 H   0  0  0  0  0  0  0  0  0  0  0  0  # atno 10718 bound_to 10713
  154.6286  135.2884  155.0243 H   0  0  0  0  0  0  0  0  0  0  0  0  # atno 10763 bound_to 10752
  154.1412  135.6518  153.4946 H   0  0  0  0  0  0  0  0  0  0  0  0  # atno 10764 bound_to 10752
  153.0269  135.5333  154.7104 H   0  0  0  0  0  0  0  0  0  0  0  0  # atno 10765 bound_to 10752
  140.2976  134.7622  157.3890 H   0  0  0  0  0  0  0  0  0  0  0  0  # atno 11005 bound_to 11000
  145.5755  139.1486  143.3264 LP  0  0  0  0  0  0  0  0  0  0  0  0  # atno 17320 bound_to 7965
  146.2183  140.5887  142.9028 LP  0  0  0  0  0  0  0  0  0  0  0  0  # atno 17321 bound_to 7965
  139.4822  144.4862  151.9244 LP  0  0  0  0  0  0  0  0  0  0  0  0  # atno 17342 bound_to 10162
  140.3947  144.2570  150.5897 LP  0  0  0  0  0  0  0  0  0  0  0  0  # atno 17343 bound_to 10162
  156.6862  130.4581  149.5613 LP  0  0  0  0  0  0  0  0  0  0  0  0  # atno 17370 bound_to 10713
  156.1894  130.6550  151.1044 LP  0  0  0  0  0  0  0  0  0  0  0  0  # atno 17371 bound_to 10713
  140.1138  134.5310  155.8242 LP  0  0  0  0  0  0  0  0  0  0  0  0  # atno 17394 bound_to 11000
  141.2134  133.6733  156.6739 LP  0  0  0  0  0  0  0  0  0  0  0  0  # atno 17395 bound_to 11000

$$$$
