AV-unprocessed.smi:1875|AV-procd|sdf|7615|dock3
  -GOLD-   22720 9343D 1   1.00000     0.00000
 Structure written by MMmdl.
 47 49  0  0  0  0  0  0  0  0  1 V2000
  143.2760  146.4206  155.0217 C   0  0  0  0  0  0  0  0  0  0  0  0
  144.1750  145.4994  154.2232 C   0  0  0  0  0  0  0  0  0  0  0  0
  144.4041  145.8367  152.9500 N   0  0  0  0  0  0  0  0  0  0  0  0
  145.1972  145.0109  152.2328 C   0  0  0  0  0  0  0  0  0  0  0  0
  145.7588  143.8473  152.7957 C   0  0  0  0  0  0  0  0  0  0  0  0
  145.4461  143.5965  154.1485 C   0  0  0  0  0  0  0  0  0  0  0  0
  145.9818  142.3738  154.8643 C   0  0  0  0  0  0  0  0  0  0  0  0
  147.4376  142.3896  154.9528 N   0  0  0  0  0  0  0  0  0  0  0  0
  148.0788  141.3468  154.1588 C   0  0  0  0  0  0  0  0  0  0  0  0
  149.2500  140.7082  154.9237 C   0  0  1  0  0  0  0  0  0  0  0  0
  149.9656  139.8736  154.0327 O   0  0  0  0  0  0  0  0  0  0  0  0
  150.2062  141.7733  155.4943 C   0  0  0  0  0  0  0  0  0  0  0  0
  151.0313  141.2598  156.5733 N   0  0  0  0  0  0  0  0  0  0  0  0
  151.6590  140.0690  156.6133 C   0  0  0  0  0  0  0  0  0  0  0  0
  152.3689  139.7910  157.7031 N   0  0  0  0  0  0  0  0  0  0  0  0
  152.1816  140.9367  158.4573 C   0  0  0  0  0  0  0  0  0  0  0  0
  152.6738  141.2832  159.7347 C   0  0  0  0  0  0  0  0  0  0  0  0
  152.3519  142.5272  160.3225 C   0  0  0  0  0  0  0  0  0  0  0  0
  152.9030  142.8585  161.6983 C   0  0  0  0  0  0  0  0  0  0  0  0
  151.5250  143.4477  159.6296 C   0  0  0  0  0  0  0  0  0  0  0  0
  151.1685  144.7916  160.2402 C   0  0  0  0  0  0  0  0  0  0  0  0
  151.0232  143.1166  158.3534 C   0  0  0  0  0  0  0  0  0  0  0  0
  151.3500  141.8753  157.7791 C   0  0  0  0  0  0  0  0  0  0  0  0
  144.6509  144.4255  154.8609 N   0  0  0  0  0  0  0  0  0  0  0  0
  143.3023  147.4365  154.6254 H   0  0  0  0  0  0  0  0  0  0  0  0
  143.5879  146.4592  156.0661 H   0  0  0  0  0  0  0  0  0  0  0  0
  142.2462  146.0639  154.9835 H   0  0  0  0  0  0  0  0  0  0  0  0
  145.3850  145.2809  151.2042 H   0  0  0  0  0  0  0  0  0  0  0  0
  146.3916  143.1863  152.2218 H   0  0  0  0  0  0  0  0  0  0  0  0
  145.5444  142.3444  155.8630 H   0  0  0  0  0  0  0  0  0  0  0  0
  145.6454  141.4731  154.3482 H   0  0  0  0  0  0  0  0  0  0  0  0
  147.7190  142.2952  155.9236 H   0  0  0  0  0  0  0  0  0  0  0  0
  147.3576  140.5828  153.8648 H   0  0  0  0  0  0  0  0  0  0  0  0
  148.4515  141.7901  153.2345 H   0  0  0  0  0  0  0  0  0  0  0  0
  148.8697  140.1000  155.7463 H   0  0  0  0  0  0  0  0  0  0  0  0
  149.5496  139.9118  153.1852 H   0  0  0  0  0  0  0  0  0  0  0  0
  150.8562  142.1663  154.7115 H   0  0  0  0  0  0  0  0  0  0  0  0
  149.6371  142.6208  155.8788 H   0  0  0  0  0  0  0  0  0  0  0  0
  151.5907  139.3666  155.7954 H   0  0  0  0  0  0  0  0  0  0  0  0
  153.3041  140.5822  160.2614 H   0  0  0  0  0  0  0  0  0  0  0  0
  152.0903  143.0430  162.4010 H   0  0  0  0  0  0  0  0  0  0  0  0
  153.5326  143.7477  161.6536 H   0  0  0  0  0  0  0  0  0  0  0  0
  153.5065  142.0409  162.0935 H   0  0  0  0  0  0  0  0  0  0  0  0
  150.5354  145.3767  159.5726 H   0  0  0  0  0  0  0  0  0  0  0  0
  152.0697  145.3717  160.4400 H   0  0  0  0  0  0  0  0  0  0  0  0
  150.6292  144.6543  161.1776 H   0  0  0  0  0  0  0  0  0  0  0  0
  150.3932  143.8089  157.8152 H   0  0  0  0  0  0  0  0  0  0  0  0
  1  2  1  0  0  0  0
  1 25  1  0  0  0  0
  1 26  1  0  0  0  0
  1 27  1  0  0  0  0
  2 24  1  0  0  0  0
  2  3  2  0  0  0  0
  3  4  1  0  0  0  0
  4  5  2  0  0  0  0
  4 28  1  0  0  0  0
  5  6  1  0  0  0  0
  5 29  1  0  0  0  0
  6  7  1  0  0  0  0
  6 24  2  0  0  0  0
  7  8  1  0  0  0  0
  7 30  1  0  0  0  0
  7 31  1  0  0  0  0
  8  9  1  0  0  0  0
  8 32  1  0  0  0  0
  9 10  1  0  0  0  0
  9 33  1  0  0  0  0
  9 34  1  0  0  0  0
 10 11  1  0  0  0  0
 10 12  1  0  0  0  0
 10 35  1  0  0  0  0
 11 36  1  0  0  0  0
 12 13  1  0  0  0  0
 12 37  1  0  0  0  0
 12 38  1  0  0  0  0
 13 23  1  0  0  0  0
 13 14  1  0  0  0  0
 14 15  2  0  0  0  0
 14 39  1  0  0  0  0
 15 16  1  0  0  0  0
 16 23  2  0  0  0  0
 16 17  1  0  0  0  0
 17 18  2  0  0  0  0
 17 40  1  0  0  0  0
 18 19  1  0  0  0  0
 18 20  1  0  0  0  0
 19 41  1  0  0  0  0
 19 42  1  0  0  0  0
 19 43  1  0  0  0  0
 20 21  1  0  0  0  0
 20 22  2  0  0  0  0
 21 44  1  0  0  0  0
 21 45  1  0  0  0  0
 21 46  1  0  0  0  0
 22 23  1  0  0  0  0
 22 47  1  0  0  0  0
M  END
> <s_m_source_file>
AV-unprocessed.smi

> <i_m_source_file_index>
1875

> <i_lp_mmshare_version>
43012

> <i_f3d_flags>
0

> <s_epik_input>
W0NIM11jMW5bY0hdW2NIXWMobjEpW0NIMl1bTkhdW0NIMl1bQ0BIXShbT0hdKVtDSDJdbihbY0hdbjIpYyhjMjMpW2NIXWMoW0NIM10pYyhbY0hdMylbQ0gzXQ==

> <s_epik_cmdline>
J2VwaWtfcHl0aG9uJywgJy1waCcsICc3LjAnLCAnLXRuJywgJzgnLCAnLW1hJywgJzIwMCcsICctbWV0YWxfYmluZGluZycsICctaW1hZScsICc8aW5maWxlLm1hZT4nLCAnLW9tYWUnLCAnPG91dGZpbGUubWFlPic=

> <r_lp_tautomer_probability>
1

> <r_epik_Ionization_Penalty>
1.21192

> <r_epik_Ionization_Penalty_Charging>
0

> <r_epik_Ionization_Penalty_Neutral>
1.21192

> <r_epik_State_Penalty>
1.26105

> <r_epik_Charging_Adjusted_Penalty>
1.26105

> <i_epik_Tot_Q>
0

> <i_epik_Tot_abs_Q>
0

> <r_epik_Metal_State_Penalty>
1.2224

> <b_epik_Metal_Only>
0

> <s_epik_Chemistry_Notes>
This compound contains an electron-poor aromatic ring that is susceptible to covalent hydrolysis at low pH, typically resulting in measured values for nitrogen ring protonation that are around two units higher than predicted values.

> <s_lp_Force_Field>
OPLS_2005

> <r_lp_Energy>
10.0128

> <b_lp_Chiralities_Consistent>
1

> <s_lp_Variant>
AV-unprocessed.smi:1875-4

> <Gold.Version>
5.8.1

> <Gold.Id.Protein>
6NUR|6NUR_protein|mol2

> <Gold.PLP.Fitness>
63.4457

> <Gold.PLP.PLP>
-56.9714

> <Gold.PLP.part.hbond>
-5.4289

> <Gold.PLP.part.metal>
0.0000

> <Gold.PLP.part.buried>
-8.0502

> <Gold.PLP.part.nonpolar>
-44.4426

> <Gold.PLP.part.repulsive>
0.2271

> <Gold.PLP.ligand.clash>
0.0000

> <Gold.PLP.ligand.torsion>
1.1253

> <Gold.PLP.Chemscore.Hbond>
2.8720

> <Gold.PLP.Chemscore.CHOScore>
0.0000

> <Gold.PLP.Chemscore.Metal>
0.0000

> <Gold.Chemscore.Hbonds>
donor molecule, donor type, donor heavy atom, donor atom, acceptor molecule, acceptor atom, score
      L1  H    11    36       P1  7957  1.00
      P1  H  7989  7998       L1    11  0.71
      P1  H  7997  8010       L1    15  0.28

> <Gold.PLP.Chemscore.Internal.Correction>
0.1089

> <Gold.Rescore>
     Score         DG    S(hbond)    S(metal)    S(lipo)     H(rot)  DE(clash)    DE(int)     intcor
     17.58     -19.49       1.52        0.00     135.84       2.72       0.60       1.31       ----

> <Gold.Chemscore.Fitness>
17.5808

> <Gold.Chemscore.DG>
-19.4909

> <Gold.Chemscore.ZeroCoef>
-5.4800

> <Gold.Chemscore.Hbond>
1.5232

> <Gold.Chemscore.Metal>
0.0000

> <Gold.Chemscore.Lipo>
135.8424

> <Gold.Chemscore.Internal_Hbond>
0.0000

> <Gold.Chemscore.DEClash>
0.5957

> <Gold.Chemscore.DEInternal>
1.3143

> <Gold.Chemscore.Rot>
2.7228

> <Gold.Chemscore.Internal.Correction>
   9.000000E+99

> <Gold.Chemscore.Hbonds>
donor molecule, donor type, donor heavy atom, donor atom, acceptor molecule, acceptor atom, score
      L1  H    11    36       P1  7957  0.90
      P1  H  7989  7998       L1    11  0.05
      P1  H  7997  8010       L1    15  0.02

> <Gold.Chemscore.Hbond.Weighted>
-5.0875

> <Gold.Chemscore.Metal.Weighted>
-0.0000

> <Gold.Chemscore.Lipo.Weighted>
-15.8936

> <Gold.Chemscore.Internal_Hbond.Weighted>
0.0000

> <Gold.Chemscore.DEClash.Weighted>
0.5957

> <Gold.Chemscore.DEInternal.Weighted>
1.3143

> <Gold.Chemscore.Rot.Weighted>
6.9702

> <Gold.Chemscore.Internal.Correction.Weighted>
   9.000000E+99

> <Gold.Protein.RotatedTorsions>
[ 6907 6896 6895 6894 ] final  -54.75 input  -60.11 | X-H torsion
[ 7974 7965 7964 7962 ] final -153.11 input  175.53 | X-H torsion
[ 8008 7997 7996 7995 ] final   57.43 input   59.86 | X-H torsion
[ 10167 10162 10161 10158 ] final -145.36 input  -65.29 | X-H torsion
[ 10718 10713 10712 10709 ] final -123.63 input   66.30 | X-H torsion
[ 10763 10752 10751 10750 ] final   13.09 input  -60.55 | X-H torsion
[ 11005 11000 10999 10996 ] final -114.40 input  -57.11 | X-H torsion

> <Gold.Protein.ActiveResidues>
 VAL166  LYS551  ARG553  GLY616  TRP617  ASP618  TYR619  PRO620  LYS621  CYS622 
 ASP623  PHE694  ASN695  SER759  ASP760  ASP761  ALA762  ILE779  LEU786  VAL792 
 PHE793  MET794  SER795  GLU796  ALA797  LYS798  CYS799  TRP800  GLU811  SER814 

> <Gold.Protein.RotatedAtoms>
  150.8311  134.7565  159.6854 H   0  0  0  0  0  0  0  0  0  0  0  0  # atno 6907 bound_to 6896
  152.4415  134.5577  159.9895 H   0  0  0  0  0  0  0  0  0  0  0  0  # atno 6908 bound_to 6896
  151.5738  133.3349  159.3030 H   0  0  0  0  0  0  0  0  0  0  0  0  # atno 6909 bound_to 6896
  144.7758  140.4570  143.5875 H   0  0  0  0  0  0  0  0  0  0  0  0  # atno 7974 bound_to 7965
  155.5336  140.3482  155.4431 H   0  0  0  0  0  0  0  0  0  0  0  0  # atno 8008 bound_to 7997
  156.0701  140.1361  156.9865 H   0  0  0  0  0  0  0  0  0  0  0  0  # atno 8009 bound_to 7997
  154.4523  140.0967  156.6631 H   0  0  0  0  0  0  0  0  0  0  0  0  # atno 8010 bound_to 7997
  139.7813  143.8097  152.2639 H   0  0  0  0  0  0  0  0  0  0  0  0  # atno 10167 bound_to 10162
  156.1518  130.6540  150.9925 H   0  0  0  0  0  0  0  0  0  0  0  0  # atno 10718 bound_to 10713
  153.1756  135.6819  153.8547 H   0  0  0  0  0  0  0  0  0  0  0  0  # atno 10763 bound_to 10752
  153.7896  135.3171  155.3378 H   0  0  0  0  0  0  0  0  0  0  0  0  # atno 10764 bound_to 10752
  154.8027  135.4768  154.0408 H   0  0  0  0  0  0  0  0  0  0  0  0  # atno 10765 bound_to 10752
  141.0554  133.9620  157.2763 H   0  0  0  0  0  0  0  0  0  0  0  0  # atno 11005 bound_to 11000
  145.6191  139.1522  143.3032 LP  0  0  0  0  0  0  0  0  0  0  0  0  # atno 17320 bound_to 7965
  146.1936  140.6302  142.9134 LP  0  0  0  0  0  0  0  0  0  0  0  0  # atno 17321 bound_to 7965
  139.8160  144.7316  150.9634 LP  0  0  0  0  0  0  0  0  0  0  0  0  # atno 17342 bound_to 10162
  140.7818  143.4204  151.0850 LP  0  0  0  0  0  0  0  0  0  0  0  0  # atno 17343 bound_to 10162
  157.6663  131.0871  150.7720 LP  0  0  0  0  0  0  0  0  0  0  0  0  # atno 17370 bound_to 10713
  156.7788  130.4852  149.5405 LP  0  0  0  0  0  0  0  0  0  0  0  0  # atno 17371 bound_to 10713
  139.9386  135.0194  156.8635 LP  0  0  0  0  0  0  0  0  0  0  0  0  # atno 17394 bound_to 11000
  140.5974  134.0204  155.7523 LP  0  0  0  0  0  0  0  0  0  0  0  0  # atno 17395 bound_to 11000

$$$$
