AV-unprocessed.smi:3277|AV-procd|sdf|12538|dock8
  -GOLD-   2272018453D 1   1.00000     0.00000
 Structure written by MMmdl.
 35 37  0  0  0  0  0  0  0  0  1 V2000
  146.1982  142.7468  155.0135 C   0  0  0  0  0  0  0  0  0  0  0  0
  147.6014  142.3929  154.8677 N   0  0  0  0  0  0  0  0  0  0  0  0
  148.0548  141.1353  154.7615 C   0  0  0  0  0  0  0  0  0  0  0  0
  147.3190  140.1486  154.7677 O   0  0  0  0  0  0  0  0  0  0  0  0
  149.5684  140.9608  154.6254 C   0  0  0  0  0  0  0  0  0  0  0  0
  150.1808  141.1904  155.9694 C   0  0  0  0  0  0  0  0  0  0  0  0
  150.7845  142.3284  156.3204 N   0  0  0  0  0  0  0  0  0  0  0  0
  151.2910  142.3014  157.6253 C   0  0  0  0  0  0  0  0  0  0  0  0
  152.0343  143.4780  158.2086 C   0  0  2  0  0  0  0  0  0  0  0  0
  152.6015  143.2616  159.6290 C   0  0  0  0  0  0  0  0  0  0  0  0
  152.1339  144.5300  160.3697 C   0  0  2  0  0  0  0  0  0  0  0  0
  150.6179  144.4376  160.6332 C   0  0  0  0  0  0  0  0  0  0  0  0
  150.0126  144.6948  159.2402 C   0  0  0  0  0  0  0  0  0  0  0  0
  151.2623  144.8146  158.3440 C   0  0  1  0  0  0  0  0  0  0  0  0
  152.1963  145.5875  159.2720 C   0  0  0  0  0  0  0  0  0  0  0  0
  151.0438  141.1114  158.2646 C   0  0  0  0  0  0  0  0  0  0  0  0
  150.1756  139.9888  157.2542 S   0  0  0  0  0  0  0  0  0  0  0  0
  146.0953  143.8279  155.1082 H   0  0  0  0  0  0  0  0  0  0  0  0
  145.7713  142.2843  155.9045 H   0  0  0  0  0  0  0  0  0  0  0  0
  145.6243  142.4238  154.1439 H   0  0  0  0  0  0  0  0  0  0  0  0
  148.2704  143.1489  154.8541 H   0  0  0  0  0  0  0  0  0  0  0  0
  149.8061  139.9552  154.2761 H   0  0  0  0  0  0  0  0  0  0  0  0
  149.9782  141.6694  153.9047 H   0  0  0  0  0  0  0  0  0  0  0  0
  152.8873  143.6795  157.5579 H   0  0  0  0  0  0  0  0  0  0  0  0
  152.2308  142.3584  160.1148 H   0  0  0  0  0  0  0  0  0  0  0  0
  153.6898  143.1951  159.6020 H   0  0  0  0  0  0  0  0  0  0  0  0
  152.7187  144.7543  161.2622 H   0  0  0  0  0  0  0  0  0  0  0  0
  150.3282  143.4672  161.0383 H   0  0  0  0  0  0  0  0  0  0  0  0
  150.2945  145.2041  161.3384 H   0  0  0  0  0  0  0  0  0  0  0  0
  149.3114  143.9246  158.9250 H   0  0  0  0  0  0  0  0  0  0  0  0
  149.4625  145.6368  159.2414 H   0  0  0  0  0  0  0  0  0  0  0  0
  151.0630  145.3000  157.3882 H   0  0  0  0  0  0  0  0  0  0  0  0
  151.7994  146.5562  159.5812 H   0  0  0  0  0  0  0  0  0  0  0  0
  153.1988  145.7284  158.8638 H   0  0  0  0  0  0  0  0  0  0  0  0
  151.3238  140.8263  159.2679 H   0  0  0  0  0  0  0  0  0  0  0  0
  1  2  1  0  0  0  0
  1 18  1  0  0  0  0
  1 19  1  0  0  0  0
  1 20  1  0  0  0  0
  2  3  1  0  0  0  0
  2 21  1  0  0  0  0
  3  4  2  0  0  0  0
  3  5  1  0  0  0  0
  5  6  1  0  0  0  0
  5 22  1  0  0  0  0
  5 23  1  0  0  0  0
  6 17  1  0  0  0  0
  6  7  2  0  0  0  0
  7  8  1  0  0  0  0
  8  9  1  0  0  0  0
  8 16  2  0  0  0  0
  9 14  1  0  0  0  0
  9 10  1  0  0  0  0
  9 24  1  0  0  0  0
 10 11  1  0  0  0  0
 10 25  1  0  0  0  0
 10 26  1  0  0  0  0
 11 15  1  0  0  0  0
 11 12  1  0  0  0  0
 11 27  1  0  0  0  0
 12 13  1  0  0  0  0
 12 28  1  0  0  0  0
 12 29  1  0  0  0  0
 13 14  1  0  0  0  0
 13 30  1  0  0  0  0
 13 31  1  0  0  0  0
 14 15  1  0  0  0  0
 14 32  1  0  0  0  0
 15 33  1  0  0  0  0
 15 34  1  0  0  0  0
 16 17  1  0  0  0  0
 16 35  1  0  0  0  0
M  END
> <s_m_source_file>
AV-unprocessed.smi

> <i_m_source_file_index>
3277

> <i_lp_mmshare_version>
43012

> <i_f3d_flags>
0

> <s_epik_input>
W0NIM11bTkhdQyg9TylbQ0gyXWMxbmMoW2NIXXMxKVtDQEhdKFtDSDJdW0NAQEhdMjMpW0NAQEhdKFtDSDJdMylbQ0gyXVtDSDJdMg==

> <s_epik_cmdline>
J2VwaWtfcHl0aG9uJywgJy1waCcsICc3LjAnLCAnLXRuJywgJzgnLCAnLW1hJywgJzIwMCcsICctbWV0YWxfYmluZGluZycsICctaW1hZScsICc8aW5maWxlLm1hZT4nLCAnLW9tYWUnLCAnPG91dGZpbGUubWFlPic=

> <r_lp_tautomer_probability>
1

> <r_epik_Ionization_Penalty>
8.50008e-05

> <r_epik_Ionization_Penalty_Charging>
0

> <r_epik_Ionization_Penalty_Neutral>
8.50008e-05

> <r_epik_State_Penalty>
-0

> <r_epik_Charging_Adjusted_Penalty>
0

> <i_epik_Tot_Q>
0

> <i_epik_Tot_abs_Q>
0

> <r_epik_Metal_State_Penalty>
-0

> <b_epik_Metal_Only>
0

> <s_lp_Force_Field>
OPLS_2005

> <r_lp_Energy>
46.0194

> <b_lp_Chiralities_Consistent>
1

> <s_lp_Variant>
AV-unprocessed.smi:3277-3

> <Gold.Version>
5.8.1

> <Gold.Id.Protein>
6NUR|6NUR_protein|mol2

> <Gold.PLP.Fitness>
40.1405

> <Gold.PLP.PLP>
-38.0579

> <Gold.PLP.part.hbond>
-1.0000

> <Gold.PLP.part.metal>
0.0000

> <Gold.PLP.part.buried>
-4.9903

> <Gold.PLP.part.nonpolar>
-32.4704

> <Gold.PLP.part.repulsive>
0.5227

> <Gold.PLP.ligand.clash>
0.0000

> <Gold.PLP.ligand.torsion>
0.4610

> <Gold.PLP.Chemscore.Hbond>
1.0000

> <Gold.PLP.Chemscore.CHOScore>
0.0000

> <Gold.PLP.Chemscore.Metal>
0.0000

> <Gold.Chemscore.Hbonds>
donor molecule, donor type, donor heavy atom, donor atom, acceptor molecule, acceptor atom, score
      L1  H     2    21       P1  8028  0.94

> <Gold.PLP.Chemscore.Internal.Correction>
0.0047

> <Gold.Rescore>
     Score         DG    S(hbond)    S(metal)    S(lipo)     H(rot)  DE(clash)    DE(int)     intcor
     18.35     -18.60       0.95        0.00     115.80       1.41       0.01       0.24       ----

> <Gold.Chemscore.Fitness>
18.3470

> <Gold.Chemscore.DG>
-18.6004

> <Gold.Chemscore.ZeroCoef>
-5.4800

> <Gold.Chemscore.Hbond>
0.9543

> <Gold.Chemscore.Metal>
0.0000

> <Gold.Chemscore.Lipo>
115.7959

> <Gold.Chemscore.Internal_Hbond>
0.0000

> <Gold.Chemscore.DEClash>
0.0086

> <Gold.Chemscore.DEInternal>
0.2449

> <Gold.Chemscore.Rot>
1.4122

> <Gold.Chemscore.Internal.Correction>
   9.000000E+99

> <Gold.Chemscore.Hbonds>
donor molecule, donor type, donor heavy atom, donor atom, acceptor molecule, acceptor atom, score
      L1  H     2    21       P1  8028  0.90

> <Gold.Chemscore.Hbond.Weighted>
-3.1874

> <Gold.Chemscore.Metal.Weighted>
-0.0000

> <Gold.Chemscore.Lipo.Weighted>
-13.5481

> <Gold.Chemscore.Internal_Hbond.Weighted>
0.0000

> <Gold.Chemscore.DEClash.Weighted>
0.0086

> <Gold.Chemscore.DEInternal.Weighted>
0.2449

> <Gold.Chemscore.Rot.Weighted>
3.6151

> <Gold.Chemscore.Internal.Correction.Weighted>
   9.000000E+99

> <Gold.Protein.RotatedTorsions>
[ 6907 6896 6895 6894 ] final -130.60 input  -60.11 | X-H torsion
[ 7974 7965 7964 7962 ] final  -45.77 input  175.53 | X-H torsion
[ 8008 7997 7996 7995 ] final  -13.95 input   59.86 | X-H torsion
[ 10167 10162 10161 10158 ] final  -48.64 input  -65.29 | X-H torsion
[ 10718 10713 10712 10709 ] final -128.53 input   66.30 | X-H torsion
[ 10763 10752 10751 10750 ] final  -17.54 input  -60.55 | X-H torsion
[ 11005 11000 10999 10996 ] final  -19.58 input  -57.11 | X-H torsion

> <Gold.Protein.ActiveResidues>
 VAL166  LYS551  ARG553  GLY616  TRP617  ASP618  TYR619  PRO620  LYS621  CYS622 
 ASP623  PHE694  ASN695  SER759  ASP760  ASP761  ALA762  ILE779  LEU786  VAL792 
 PHE793  MET794  SER795  GLU796  ALA797  LYS798  CYS799  TRP800  GLU811  SER814 

> <Gold.Protein.RotatedAtoms>
  150.9415  133.6651  159.2789 H   0  0  0  0  0  0  0  0  0  0  0  0  # atno 6907 bound_to 6896
  151.4038  135.0974  159.9574 H   0  0  0  0  0  0  0  0  0  0  0  0  # atno 6908 bound_to 6896
  152.5071  133.8903  159.7445 H   0  0  0  0  0  0  0  0  0  0  0  0  # atno 6909 bound_to 6896
  145.9787  140.7306  142.9374 H   0  0  0  0  0  0  0  0  0  0  0  0  # atno 7974 bound_to 7965
  154.5250  140.2236  155.8906 H   0  0  0  0  0  0  0  0  0  0  0  0  # atno 8008 bound_to 7997
  156.1703  140.3123  155.8927 H   0  0  0  0  0  0  0  0  0  0  0  0  # atno 8009 bound_to 7997
  155.3571  140.0459  157.3037 H   0  0  0  0  0  0  0  0  0  0  0  0  # atno 8010 bound_to 7997
  140.6721  143.2731  151.4100 H   0  0  0  0  0  0  0  0  0  0  0  0  # atno 10167 bound_to 10162
  156.1960  130.6826  151.0481 H   0  0  0  0  0  0  0  0  0  0  0  0  # atno 10718 bound_to 10713
  153.5754  135.7006  153.5486 H   0  0  0  0  0  0  0  0  0  0  0  0  # atno 10763 bound_to 10752
  153.3307  135.4048  155.1493 H   0  0  0  0  0  0  0  0  0  0  0  0  # atno 10764 bound_to 10752
  154.8626  135.3718  154.5279 H   0  0  0  0  0  0  0  0  0  0  0  0  # atno 10765 bound_to 10752
  140.8380  133.7947  155.9830 H   0  0  0  0  0  0  0  0  0  0  0  0  # atno 11005 bound_to 11000
  144.6856  140.2872  143.7283 LP  0  0  0  0  0  0  0  0  0  0  0  0  # atno 17320 bound_to 7965
  145.7800  139.1888  143.2163 LP  0  0  0  0  0  0  0  0  0  0  0  0  # atno 17321 bound_to 7965
  139.5995  144.1325  152.2182 LP  0  0  0  0  0  0  0  0  0  0  0  0  # atno 17342 bound_to 10162
  140.0705  144.5783  150.7195 LP  0  0  0  0  0  0  0  0  0  0  0  0  # atno 17343 bound_to 10162
  157.6957  131.0794  150.6974 LP  0  0  0  0  0  0  0  0  0  0  0  0  # atno 17370 bound_to 10713
  156.7031  130.4629  149.5567 LP  0  0  0  0  0  0  0  0  0  0  0  0  # atno 17371 bound_to 10713
  140.8926  134.2477  157.5086 LP  0  0  0  0  0  0  0  0  0  0  0  0  # atno 17394 bound_to 11000
  139.8703  134.9668  156.4577 LP  0  0  0  0  0  0  0  0  0  0  0  0  # atno 17395 bound_to 11000

$$$$
