AV-unprocessed.smi:1978|AV-procd|sdf|8010|dock8
  -GOLD-   2272010203D 1   1.00000     0.00000
 Structure written by MMmdl.
 44 45  0  0  0  0  0  0  0  0  3 V2000
  152.9036  138.9061  154.9464 C   0  0  0  0  0  0  0  0  0  0  0  0
  151.4468  138.7535  154.6730 C   0  0  0  0  0  0  0  0  0  0  0  0
  150.6535  137.6669  154.4334 C   0  0  0  0  0  0  0  0  0  0  0  0
  149.3683  138.2424  154.2480 C   0  0  0  0  0  0  0  0  0  0  0  0
  148.2428  137.4237  153.9667 N   0  0  0  0  0  0  0  0  0  0  0  0
  147.0103  137.4734  154.5035 C   0  0  0  0  0  0  0  0  0  0  0  0
  146.7358  138.3216  155.3607 O   0  0  0  0  0  0  0  0  0  0  0  0
  146.1868  136.5152  153.9951 N   0  5  0  0  0  0  0  0  0  0  0  0
  144.7991  136.3008  154.4079 C   0  0  0  0  0  0  0  0  0  0  0  0
  144.5328  134.7916  154.7319 C   0  0  2  0  0  0  0  0  0  0  0  0
  145.5432  134.2016  155.7465 C   0  0  0  0  0  0  0  0  0  0  0  0
  144.3979  133.8844  153.5325 N   0  3  2  0  0  0  0  0  0  0  0  0
  145.6872  133.3862  152.9559 C   0  0  0  0  0  0  0  0  0  0  0  0
  145.4570  132.2043  152.0049 C   0  0  0  0  0  0  0  0  0  0  0  0
  144.5038  132.6036  150.8773 C   0  0  0  0  0  0  0  0  0  0  0  0
  143.1938  133.1266  151.4733 C   0  0  0  0  0  0  0  0  0  0  0  0
  143.4258  134.2944  152.4575 C   0  0  1  0  0  0  0  0  0  0  0  0
  142.0570  134.7590  152.9970 C   0  0  0  0  0  0  0  0  0  0  0  0
  149.3763  139.5616  154.3713 N   0  0  0  0  0  0  0  0  0  0  0  0
  150.7080  139.8954  154.6436 O   0  0  0  0  0  0  0  0  0  0  0  0
  153.4244  137.9559  154.8281 H   0  0  0  0  0  0  0  0  0  0  0  0
  153.0704  139.2596  155.9639 H   0  0  0  0  0  0  0  0  0  0  0  0
  153.3518  139.6245  154.2598 H   0  0  0  0  0  0  0  0  0  0  0  0
  150.9472  136.6286  154.3931 H   0  0  0  0  0  0  0  0  0  0  0  0
  148.3864  136.7105  153.2673 H   0  0  0  0  0  0  0  0  0  0  0  0
  144.5492  136.9032  155.2820 H   0  0  0  0  0  0  0  0  0  0  0  0
  144.1019  136.6237  153.6349 H   0  0  0  0  0  0  0  0  0  0  0  0
  143.5842  134.7351  155.2617 H   0  0  0  0  0  0  0  0  0  0  0  0
  145.4681  134.6872  156.7213 H   0  0  0  0  0  0  0  0  0  0  0  0
  146.5812  134.2939  155.4242 H   0  0  0  0  0  0  0  0  0  0  0  0
  145.3467  133.1422  155.9137 H   0  0  0  0  0  0  0  0  0  0  0  0
  146.1943  134.1875  152.4162 H   0  0  0  0  0  0  0  0  0  0  0  0
  146.3665  133.0600  153.7416 H   0  0  0  0  0  0  0  0  0  0  0  0
  146.4076  131.8708  151.5877 H   0  0  0  0  0  0  0  0  0  0  0  0
  145.0460  131.3587  152.5580 H   0  0  0  0  0  0  0  0  0  0  0  0
  144.9634  133.3733  150.2558 H   0  0  0  0  0  0  0  0  0  0  0  0
  144.3089  131.7499  150.2277 H   0  0  0  0  0  0  0  0  0  0  0  0
  142.5343  133.4443  150.6647 H   0  0  0  0  0  0  0  0  0  0  0  0
  142.6801  132.3115  151.9854 H   0  0  0  0  0  0  0  0  0  0  0  0
  143.8617  135.1208  151.8942 H   0  0  0  0  0  0  0  0  0  0  0  0
  141.3480  134.9091  152.1824 H   0  0  0  0  0  0  0  0  0  0  0  0
  142.1224  135.7127  153.5194 H   0  0  0  0  0  0  0  0  0  0  0  0
  141.6251  134.0244  153.6775 H   0  0  0  0  0  0  0  0  0  0  0  0
  143.9724  133.0593  153.9289 H   0  0  0  0  0  0  0  0  0  0  0  0
  1  2  1  0  0  0  0
  1 21  1  0  0  0  0
  1 22  1  0  0  0  0
  1 23  1  0  0  0  0
  2 20  1  0  0  0  0
  2  3  2  0  0  0  0
  3  4  1  0  0  0  0
  3 24  1  0  0  0  0
  4  5  1  0  0  0  0
  4 19  2  0  0  0  0
  5  6  1  0  0  0  0
  5 25  1  0  0  0  0
  6  7  2  0  0  0  0
  6  8  1  0  0  0  0
  8  9  1  0  0  0  0
  9 10  1  0  0  0  0
  9 26  1  0  0  0  0
  9 27  1  0  0  0  0
 10 11  1  0  0  0  0
 10 12  1  0  0  0  0
 10 28  1  0  0  0  0
 11 29  1  0  0  0  0
 11 30  1  0  0  0  0
 11 31  1  0  0  0  0
 12 17  1  0  0  0  0
 12 13  1  0  0  0  0
 12 44  1  0  0  0  0
 13 14  1  0  0  0  0
 13 32  1  0  0  0  0
 13 33  1  0  0  0  0
 14 15  1  0  0  0  0
 14 34  1  0  0  0  0
 14 35  1  0  0  0  0
 15 16  1  0  0  0  0
 15 36  1  0  0  0  0
 15 37  1  0  0  0  0
 16 17  1  0  0  0  0
 16 38  1  0  0  0  0
 16 39  1  0  0  0  0
 17 18  1  0  0  0  0
 17 40  1  0  0  0  0
 18 41  1  0  0  0  0
 18 42  1  0  0  0  0
 18 43  1  0  0  0  0
 19 20  1  0  0  0  0
M  CHG  1   8  -1
M  CHG  1  12   1
M  END
> <s_m_source_file>
AV-unprocessed.smi

> <i_m_source_file_index>
1978

> <i_lp_mmshare_version>
43012

> <i_f3d_flags>
0

> <s_epik_input>
W0NIM11jMVtjSF1jKG5vMSlbTkhdQyg9TylbTkhdW0NIMl1bQ0BIXShbQ0gzXSlOMltDSDJdW0NIMl1bQ0gyXVtDSDJdW0NASF0yW0NIM10=

> <s_epik_cmdline>
J2VwaWtfcHl0aG9uJywgJy1waCcsICc3LjAnLCAnLXRuJywgJzgnLCAnLW1hJywgJzIwMCcsICctbWV0YWxfYmluZGluZycsICctaW1hZScsICc8aW5maWxlLm1hZT4nLCAnLW9tYWUnLCAnPG91dGZpbGUubWFlPic=

> <r_epik_Ionization_Penalty>
6.7666

> <r_epik_Ionization_Penalty_Charging>
6.7666

> <r_epik_Ionization_Penalty_Neutral>
5.77131e-06

> <r_epik_State_Penalty>
6.79217

> <r_epik_Charging_Adjusted_Penalty>
13.5588

> <i_epik_Tot_Q>
0

> <i_epik_Tot_abs_Q>
2

> <r_epik_Metal_State_Penalty>
2.72569

> <b_epik_Metal_Only>
1

> <s_lp_Force_Field>
OPLS_2005

> <r_lp_Energy>
22.3249

> <b_lp_Chiralities_Consistent>
1

> <s_lp_Variant>
AV-unprocessed.smi:1978-19

> <Gold.Version>
5.8.1

> <Gold.Id.Protein>
6NUR|6NUR_protein|mol2

> <Gold.PLP.Fitness>
39.1872

> <Gold.PLP.PLP>
-28.3742

> <Gold.PLP.part.hbond>
-3.0000

> <Gold.PLP.part.metal>
0.0000

> <Gold.PLP.part.buried>
-4.1335

> <Gold.PLP.part.nonpolar>
-22.3736

> <Gold.PLP.part.repulsive>
0.3229

> <Gold.PLP.ligand.clash>
0.0000

> <Gold.PLP.ligand.torsion>
0.6921

> <Gold.PLP.Chemscore.Hbond>
4.0000

> <Gold.PLP.Chemscore.CHOScore>
0.0000

> <Gold.PLP.Chemscore.Metal>
0.0000

> <Gold.Chemscore.Hbonds>
donor molecule, donor type, donor heavy atom, donor atom, acceptor molecule, acceptor atom, score
      L1  H     5    25       P1  7948  1.00
      L1  H    12    44       P1 10957  2.00
      P1  H  7989  7998       L1    20  1.00

> <Gold.PLP.Chemscore.Internal.Correction>
0.1972

> <Gold.Rescore>
     Score         DG    S(hbond)    S(metal)    S(lipo)     H(rot)  DE(clash)    DE(int)     intcor
     16.75     -17.64       2.64        0.00      61.69       1.52       0.17       0.72       ----

> <Gold.Chemscore.Fitness>
16.7523

> <Gold.Chemscore.DG>
-17.6432

> <Gold.Chemscore.ZeroCoef>
-5.4800

> <Gold.Chemscore.Hbond>
2.6450

> <Gold.Chemscore.Metal>
0.0000

> <Gold.Chemscore.Lipo>
61.6891

> <Gold.Chemscore.Internal_Hbond>
0.0000

> <Gold.Chemscore.DEClash>
0.1700

> <Gold.Chemscore.DEInternal>
0.7210

> <Gold.Chemscore.Rot>
1.5190

> <Gold.Chemscore.Internal.Correction>
   9.000000E+99

> <Gold.Chemscore.Hbonds>
donor molecule, donor type, donor heavy atom, donor atom, acceptor molecule, acceptor atom, score
      L1  H     5    25       P1  7948  0.93
      L1  H    12    44       P1 10957  0.91
      P1  H  7989  7998       L1    20  0.29

> <Gold.Chemscore.Hbond.Weighted>
-8.8342

> <Gold.Chemscore.Metal.Weighted>
-0.0000

> <Gold.Chemscore.Lipo.Weighted>
-7.2176

> <Gold.Chemscore.Internal_Hbond.Weighted>
0.0000

> <Gold.Chemscore.DEClash.Weighted>
0.1700

> <Gold.Chemscore.DEInternal.Weighted>
0.7210

> <Gold.Chemscore.Rot.Weighted>
3.8886

> <Gold.Chemscore.Internal.Correction.Weighted>
   9.000000E+99

> <Gold.Protein.RotatedTorsions>
[ 6907 6896 6895 6894 ] final -120.36 input  -60.11 | X-H torsion
[ 7974 7965 7964 7962 ] final   46.41 input  175.53 | X-H torsion
[ 8008 7997 7996 7995 ] final   70.52 input   59.86 | X-H torsion
[ 10167 10162 10161 10158 ] final -157.71 input  -65.29 | X-H torsion
[ 10718 10713 10712 10709 ] final    9.87 input   66.30 | X-H torsion
[ 10763 10752 10751 10750 ] final  142.50 input  -60.55 | X-H torsion
[ 11005 11000 10999 10996 ] final -165.23 input  -57.11 | X-H torsion

> <Gold.Protein.ActiveResidues>
 VAL166  LYS551  ARG553  GLY616  TRP617  ASP618  TYR619  PRO620  LYS621  CYS622 
 ASP623  PHE694  ASN695  SER759  ASP760  ASP761  ALA762  ILE779  LEU786  VAL792 
 PHE793  MET794  SER795  GLU796  ALA797  LYS798  CYS799  TRP800  GLU811  SER814 

> <Gold.Protein.RotatedAtoms>
  150.8386  133.7972  159.3069 H   0  0  0  0  0  0  0  0  0  0  0  0  # atno 6907 bound_to 6896
  151.5680  135.1062  159.9998 H   0  0  0  0  0  0  0  0  0  0  0  0  # atno 6908 bound_to 6896
  152.4454  133.7485  159.6737 H   0  0  0  0  0  0  0  0  0  0  0  0  # atno 6909 bound_to 6896
  146.0392  139.4858  142.9789 H   0  0  0  0  0  0  0  0  0  0  0  0  # atno 7974 bound_to 7965
  155.7400  140.3490  155.5100 H   0  0  0  0  0  0  0  0  0  0  0  0  # atno 8008 bound_to 7997
  155.9103  140.1049  157.1306 H   0  0  0  0  0  0  0  0  0  0  0  0  # atno 8009 bound_to 7997
  154.4055  140.1269  156.4535 H   0  0  0  0  0  0  0  0  0  0  0  0  # atno 8010 bound_to 7997
  139.6749  143.9681  152.2305 H   0  0  0  0  0  0  0  0  0  0  0  0  # atno 10167 bound_to 10162
  156.9726  130.5975  149.5670 H   0  0  0  0  0  0  0  0  0  0  0  0  # atno 10718 bound_to 10713
  153.9568  135.2964  155.3436 H   0  0  0  0  0  0  0  0  0  0  0  0  # atno 10763 bound_to 10752
  154.7396  135.5030  153.9103 H   0  0  0  0  0  0  0  0  0  0  0  0  # atno 10764 bound_to 10752
  153.0966  135.6723  153.9861 H   0  0  0  0  0  0  0  0  0  0  0  0  # atno 10765 bound_to 10752
  140.5780  134.5170  157.5173 H   0  0  0  0  0  0  0  0  0  0  0  0  # atno 11005 bound_to 11000
  145.6913  141.0163  143.1553 LP  0  0  0  0  0  0  0  0  0  0  0  0  # atno 17320 bound_to 7965
  144.7066  139.8536  143.7428 LP  0  0  0  0  0  0  0  0  0  0  0  0  # atno 17321 bound_to 7965
  139.9455  144.6654  150.8223 LP  0  0  0  0  0  0  0  0  0  0  0  0  # atno 17342 bound_to 10162
  140.7632  143.3216  151.2609 LP  0  0  0  0  0  0  0  0  0  0  0  0  # atno 17343 bound_to 10162
  156.0276  130.5369  150.8449 LP  0  0  0  0  0  0  0  0  0  0  0  0  # atno 17370 bound_to 10713
  157.5582  131.0945  150.9598 LP  0  0  0  0  0  0  0  0  0  0  0  0  # atno 17371 bound_to 10713
  139.9330  134.7927  156.0878 LP  0  0  0  0  0  0  0  0  0  0  0  0  # atno 17394 bound_to 11000
  141.1014  133.6676  156.2763 LP  0  0  0  0  0  0  0  0  0  0  0  0  # atno 17395 bound_to 11000

$$$$
