AV-unprocessed.smi:3314|AV-procd|sdf|12736|dock10
  -GOLD-   2272019 83D 1   1.00000     0.00000
 Structure written by MMmdl.
 37 38  0  0  0  0  0  0  0  0  1 V2000
  151.2893  145.1233  159.1031 C   0  0  0  0  0  0  0  0  0  0  0  0
  152.3165  144.0119  159.1581 C   0  0  0  0  0  0  0  0  0  0  0  0
  153.3356  144.0147  160.1299 C   0  0  0  0  0  0  0  0  0  0  0  0
  154.2618  142.9532  160.1248 C   0  0  0  0  0  0  0  0  0  0  0  0
  155.3816  142.8900  161.1422 C   0  0  0  0  0  0  0  0  0  0  0  0
  154.2164  141.9400  159.2336 N   0  0  0  0  0  0  0  0  0  0  0  0
  153.2395  141.9273  158.2932 C   0  0  0  0  0  0  0  0  0  0  0  0
  153.1048  140.9114  157.3106 N   0  0  0  0  0  0  0  0  0  0  0  0
  153.5191  139.6317  157.3685 C   0  0  0  0  0  0  0  0  0  0  0  0
  154.1011  139.1293  158.3311 O   0  0  0  0  0  0  0  0  0  0  0  0
  153.2259  138.7976  156.1158 C   0  0  1  0  0  0  0  0  0  0  0  0
  152.2657  137.6147  156.3755 C   0  0  0  0  0  0  0  0  0  0  0  0
  151.9680  136.8871  155.1486 N   0  0  0  0  0  0  0  0  0  0  0  0
  151.0709  135.7679  155.3925 C   0  0  0  0  0  0  0  0  0  0  0  0
  151.4256  137.8065  154.1570 C   0  0  0  0  0  0  0  0  0  0  0  0
  152.3730  138.9918  153.9026 C   0  0  0  0  0  0  0  0  0  0  0  0
  152.6540  139.6569  155.1310 O   0  0  0  0  0  0  0  0  0  0  0  0
  152.2692  142.9523  158.2302 C   0  0  0  0  0  0  0  0  0  0  0  0
  151.4487  145.8517  159.8988 H   0  0  0  0  0  0  0  0  0  0  0  0
  150.2843  144.7147  159.2108 H   0  0  0  0  0  0  0  0  0  0  0  0
  151.3484  145.6439  158.1471 H   0  0  0  0  0  0  0  0  0  0  0  0
  153.4054  144.8084  160.8597 H   0  0  0  0  0  0  0  0  0  0  0  0
  155.3832  143.7714  161.7842 H   0  0  0  0  0  0  0  0  0  0  0  0
  156.3483  142.8332  160.6408 H   0  0  0  0  0  0  0  0  0  0  0  0
  155.2692  142.0083  161.7735 H   0  0  0  0  0  0  0  0  0  0  0  0
  152.6442  141.1903  156.4568 H   0  0  0  0  0  0  0  0  0  0  0  0
  154.1759  138.4121  155.7402 H   0  0  0  0  0  0  0  0  0  0  0  0
  152.7106  136.9359  157.1044 H   0  0  0  0  0  0  0  0  0  0  0  0
  151.3370  137.9821  156.8163 H   0  0  0  0  0  0  0  0  0  0  0  0
  150.8848  135.2149  154.4714 H   0  0  0  0  0  0  0  0  0  0  0  0
  150.1118  136.1087  155.7850 H   0  0  0  0  0  0  0  0  0  0  0  0
  151.5059  135.0747  156.1132 H   0  0  0  0  0  0  0  0  0  0  0  0
  151.2454  137.2775  153.2204 H   0  0  0  0  0  0  0  0  0  0  0  0
  150.4588  138.1847  154.4928 H   0  0  0  0  0  0  0  0  0  0  0  0
  153.3035  138.6507  153.4466 H   0  0  0  0  0  0  0  0  0  0  0  0
  151.9172  139.6999  153.2104 H   0  0  0  0  0  0  0  0  0  0  0  0
  151.4958  142.9305  157.4759 H   0  0  0  0  0  0  0  0  0  0  0  0
  1  2  1  0  0  0  0
  1 19  1  0  0  0  0
  1 20  1  0  0  0  0
  1 21  1  0  0  0  0
  2 18  1  0  0  0  0
  2  3  2  0  0  0  0
  3  4  1  0  0  0  0
  3 22  1  0  0  0  0
  4  5  1  0  0  0  0
  4  6  2  0  0  0  0
  5 23  1  0  0  0  0
  5 24  1  0  0  0  0
  5 25  1  0  0  0  0
  6  7  1  0  0  0  0
  7  8  1  0  0  0  0
  7 18  2  0  0  0  0
  8  9  1  0  0  0  0
  8 26  1  0  0  0  0
  9 10  2  0  0  0  0
  9 11  1  0  0  0  0
 11 17  1  0  0  0  0
 11 12  1  0  0  0  0
 11 27  1  0  0  0  0
 12 13  1  0  0  0  0
 12 28  1  0  0  0  0
 12 29  1  0  0  0  0
 13 14  1  0  0  0  0
 13 15  1  0  0  0  0
 14 30  1  0  0  0  0
 14 31  1  0  0  0  0
 14 32  1  0  0  0  0
 15 16  1  0  0  0  0
 15 33  1  0  0  0  0
 15 34  1  0  0  0  0
 16 17  1  0  0  0  0
 16 35  1  0  0  0  0
 16 36  1  0  0  0  0
 18 37  1  0  0  0  0
M  END
> <s_m_source_file>
AV-unprocessed.smi

> <i_m_source_file_index>
3314

> <i_lp_mmshare_version>
43012

> <i_f3d_flags>
0

> <s_epik_input>
W0NIM11jMVtjSF1jKFtDSDNdKW5jKFtjSF0xKVtOSF1DKD1PKVtDQEBIXTJbQ0gyXU4oW0NIM10pW0NIMl1bQ0gyXU8y

> <s_epik_cmdline>
J2VwaWtfcHl0aG9uJywgJy1waCcsICc3LjAnLCAnLXRuJywgJzgnLCAnLW1hJywgJzIwMCcsICctbWV0YWxfYmluZGluZycsICctaW1hZScsICc8aW5maWxlLm1hZT4nLCAnLW9tYWUnLCAnPG91dGZpbGUubWFlPic=

> <r_epik_Ionization_Penalty>
0.55509

> <r_epik_Ionization_Penalty_Charging>
0

> <r_epik_Ionization_Penalty_Neutral>
0.55509

> <r_epik_State_Penalty>
0.632277

> <r_epik_Charging_Adjusted_Penalty>
0.632277

> <i_epik_Tot_Q>
0

> <i_epik_Tot_abs_Q>
0

> <r_epik_Metal_State_Penalty>
0.606221

> <b_epik_Metal_Only>
0

> <s_lp_Force_Field>
OPLS_2005

> <r_lp_Energy>
21.1919

> <b_lp_Chiralities_Consistent>
1

> <s_lp_Variant>
AV-unprocessed.smi:3314-6

> <Gold.Version>
5.8.1

> <Gold.Id.Protein>
6NUR|6NUR_protein|mol2

> <Gold.PLP.Fitness>
44.0684

> <Gold.PLP.PLP>
-38.8802

> <Gold.PLP.part.hbond>
-2.0000

> <Gold.PLP.part.metal>
0.0000

> <Gold.PLP.part.buried>
-4.8004

> <Gold.PLP.part.nonpolar>
-32.1788

> <Gold.PLP.part.repulsive>
0.6374

> <Gold.PLP.ligand.clash>
0.0000

> <Gold.PLP.ligand.torsion>
0.1740

> <Gold.PLP.Chemscore.Hbond>
1.8447

> <Gold.PLP.Chemscore.CHOScore>
0.0000

> <Gold.PLP.Chemscore.Metal>
0.0000

> <Gold.PLP.Chemscore.Internal.Correction>
0.0020

> <Gold.Rescore>
     Score         DG    S(hbond)    S(metal)    S(lipo)     H(rot)  DE(clash)    DE(int)     intcor
     15.83     -17.59       0.79        0.00     102.88       1.00       0.07       1.69       ----

> <Gold.Chemscore.Fitness>
15.8331

> <Gold.Chemscore.DG>
-17.5907

> <Gold.Chemscore.ZeroCoef>
-5.4800

> <Gold.Chemscore.Hbond>
0.7886

> <Gold.Chemscore.Metal>
0.0000

> <Gold.Chemscore.Lipo>
102.8797

> <Gold.Chemscore.Internal_Hbond>
0.0000

> <Gold.Chemscore.DEClash>
0.0671

> <Gold.Chemscore.DEInternal>
1.6905

> <Gold.Chemscore.Rot>
1.0000

> <Gold.Chemscore.Internal.Correction>
   9.000000E+99

> <Gold.Chemscore.Hbond.Weighted>
-2.6338

> <Gold.Chemscore.Metal.Weighted>
-0.0000

> <Gold.Chemscore.Lipo.Weighted>
-12.0369

> <Gold.Chemscore.Internal_Hbond.Weighted>
0.0000

> <Gold.Chemscore.DEClash.Weighted>
0.0671

> <Gold.Chemscore.DEInternal.Weighted>
1.6905

> <Gold.Chemscore.Rot.Weighted>
2.5600

> <Gold.Chemscore.Internal.Correction.Weighted>
   9.000000E+99

> <Gold.Protein.RotatedTorsions>
[ 6907 6896 6895 6894 ] final -116.17 input  -60.11 | X-H torsion
[ 7974 7965 7964 7962 ] final -138.01 input  175.53 | X-H torsion
[ 8008 7997 7996 7995 ] final  -38.75 input   59.86 | X-H torsion
[ 10167 10162 10161 10158 ] final   76.54 input  -65.29 | X-H torsion
[ 10718 10713 10712 10709 ] final  162.65 input   66.30 | X-H torsion
[ 10763 10752 10751 10750 ] final  -30.49 input  -60.55 | X-H torsion
[ 11005 11000 10999 10996 ] final  137.29 input  -57.11 | X-H torsion

> <Gold.Protein.ActiveResidues>
 VAL166  LYS551  ARG553  GLY616  TRP617  ASP618  TYR619  PRO620  LYS621  CYS622 
 ASP623  PHE694  ASN695  SER759  ASP760  ASP761  ALA762  ILE779  LEU786  VAL792 
 PHE793  MET794  SER795  GLU796  ALA797  LYS798  CYS799  TRP800  GLU811  SER814 

> <Gold.Protein.RotatedAtoms>
  150.8035  133.8555  159.3216 H   0  0  0  0  0  0  0  0  0  0  0  0  # atno 6907 bound_to 6896
  151.6360  135.1016  160.0141 H   0  0  0  0  0  0  0  0  0  0  0  0  # atno 6908 bound_to 6896
  152.4124  133.6944  159.6444 H   0  0  0  0  0  0  0  0  0  0  0  0  # atno 6909 bound_to 6896
  144.8794  140.6485  143.5216 H   0  0  0  0  0  0  0  0  0  0  0  0  # atno 7974 bound_to 7965
  154.4032  140.1569  156.2752 H   0  0  0  0  0  0  0  0  0  0  0  0  # atno 8008 bound_to 7997
  155.8918  140.3438  155.5940 H   0  0  0  0  0  0  0  0  0  0  0  0  # atno 8009 bound_to 7997
  155.7549  140.0810  157.2174 H   0  0  0  0  0  0  0  0  0  0  0  0  # atno 8010 bound_to 7997
  139.9911  144.5756  150.7817 H   0  0  0  0  0  0  0  0  0  0  0  0  # atno 10167 bound_to 10162
  157.1195  131.0488  151.2421 H   0  0  0  0  0  0  0  0  0  0  0  0  # atno 10718 bound_to 10713
  153.7818  135.6904  153.4887 H   0  0  0  0  0  0  0  0  0  0  0  0  # atno 10763 bound_to 10752
  153.1806  135.4508  155.0022 H   0  0  0  0  0  0  0  0  0  0  0  0  # atno 10764 bound_to 10752
  154.8078  135.3364  154.7321 H   0  0  0  0  0  0  0  0  0  0  0  0  # atno 10765 bound_to 10752
  140.0104  134.9441  157.0265 H   0  0  0  0  0  0  0  0  0  0  0  0  # atno 11005 bound_to 11000
  145.3983  139.1603  143.4192 LP  0  0  0  0  0  0  0  0  0  0  0  0  # atno 17320 bound_to 7965
  146.2984  140.4077  142.8713 LP  0  0  0  0  0  0  0  0  0  0  0  0  # atno 17321 bound_to 7965
  140.7454  143.2875  151.3422 LP  0  0  0  0  0  0  0  0  0  0  0  0  # atno 17342 bound_to 10162
  139.6339  144.0668  152.2499 LP  0  0  0  0  0  0  0  0  0  0  0  0  # atno 17343 bound_to 10162
  157.4489  130.7587  149.7134 LP  0  0  0  0  0  0  0  0  0  0  0  0  # atno 17370 bound_to 10713
  155.9832  130.4003  150.3377 LP  0  0  0  0  0  0  0  0  0  0  0  0  # atno 17371 bound_to 10713
  140.4565  134.1528  155.7187 LP  0  0  0  0  0  0  0  0  0  0  0  0  # atno 17394 bound_to 11000
  141.1706  133.8615  157.1580 LP  0  0  0  0  0  0  0  0  0  0  0  0  # atno 17395 bound_to 11000

$$$$
