AV-unprocessed.smi:232|AV-procd|sdf|1768|dock3
  -GOLD-   2262020303D 1   1.00000     0.00000
 Structure written by MMmdl.
 52 55  0  0  0  0  0  0  0  0  1 V2000
  150.2151  141.8190  156.8717 C   0  0  0  0  0  0  0  0  0  0  0  0
  150.6654  142.4144  158.2113 C   0  0  0  0  0  0  0  0  0  0  0  0
  152.1257  142.0647  158.5699 C   0  0  1  0  0  0  0  0  0  0  0  0
  152.6905  142.8815  159.7419 C   0  0  0  0  0  0  0  0  0  0  0  0
  153.6672  141.9343  160.4494 C   0  0  0  0  0  0  0  0  0  0  0  0
  153.6089  140.6391  159.6320 C   0  0  1  0  0  0  0  0  0  0  0  0
  153.8236  139.3713  160.4745 C   0  0  0  0  0  0  0  0  0  0  0  0
  152.3071  140.6751  158.9747 N   0  0  0  0  0  0  0  0  0  0  0  0
  152.1032  139.7671  157.9910 C   0  0  0  0  0  0  0  0  0  0  0  0
  152.7616  139.8707  156.8056 N   0  0  0  0  0  0  0  0  0  0  0  0
  152.5344  138.9794  155.8356 C   0  0  0  0  0  0  0  0  0  0  0  0
  151.7042  137.9335  155.8392 N   0  0  0  0  0  0  0  0  0  0  0  0
  151.0421  137.8325  157.0277 C   0  0  0  0  0  0  0  0  0  0  0  0
  151.1830  138.6982  158.1470 C   0  0  0  0  0  0  0  0  0  0  0  0
  150.3480  138.2874  159.1784 N   0  0  0  0  0  0  0  0  0  0  0  0
  149.7421  137.2374  158.6936 C   0  0  0  0  0  0  0  0  0  0  0  0
  150.0977  136.8968  157.4077 N   0  0  0  0  0  0  0  0  0  0  0  0
  149.5798  135.7901  156.6241 C   0  0  0  0  0  0  0  0  0  0  0  0
  150.1322  135.7859  155.1855 C   0  0  2  0  0  0  0  0  0  0  0  0
  149.4540  136.7400  154.3896 O   0  0  0  0  0  0  0  0  0  0  0  0
  150.0817  134.3916  154.5288 C   0  0  2  0  0  0  0  0  0  0  0  0
  148.7046  133.9026  154.0713 C   0  0  0  0  0  0  0  0  0  0  0  0
  148.9129  132.4050  154.0591 C   0  0  0  0  0  0  0  0  0  0  0  0
  149.7961  132.2045  155.2879 C   0  0  0  0  0  0  0  0  0  0  0  0
  150.6006  133.3766  155.3853 O   0  0  0  0  0  0  0  0  0  0  0  0
  149.1685  142.0541  156.6770 H   0  0  0  0  0  0  0  0  0  0  0  0
  150.3174  140.7334  156.8707 H   0  0  0  0  0  0  0  0  0  0  0  0
  150.8016  142.2130  156.0417 H   0  0  0  0  0  0  0  0  0  0  0  0
  150.5369  143.4974  158.1929 H   0  0  0  0  0  0  0  0  0  0  0  0
  149.9941  142.0427  158.9858 H   0  0  0  0  0  0  0  0  0  0  0  0
  152.7530  142.2424  157.6945 H   0  0  0  0  0  0  0  0  0  0  0  0
  153.1762  143.7944  159.3958 H   0  0  0  0  0  0  0  0  0  0  0  0
  151.8991  143.1702  160.4350 H   0  0  0  0  0  0  0  0  0  0  0  0
  154.6798  142.3365  160.4917 H   0  0  0  0  0  0  0  0  0  0  0  0
  153.3345  141.7656  161.4744 H   0  0  0  0  0  0  0  0  0  0  0  0
  154.3903  140.6906  158.8721 H   0  0  0  0  0  0  0  0  0  0  0  0
  154.7871  139.4020  160.9835 H   0  0  0  0  0  0  0  0  0  0  0  0
  153.8090  138.4747  159.8543 H   0  0  0  0  0  0  0  0  0  0  0  0
  153.0480  139.2639  161.2334 H   0  0  0  0  0  0  0  0  0  0  0  0
  153.0963  139.1271  154.9253 H   0  0  0  0  0  0  0  0  0  0  0  0
  149.0095  136.6824  159.2613 H   0  0  0  0  0  0  0  0  0  0  0  0
  149.8407  134.8612  157.1325 H   0  0  0  0  0  0  0  0  0  0  0  0
  148.4905  135.8478  156.6175 H   0  0  0  0  0  0  0  0  0  0  0  0
  151.1770  136.0980  155.2162 H   0  0  0  0  0  0  0  0  0  0  0  0
  149.4287  136.4243  153.4993 H   0  0  0  0  0  0  0  0  0  0  0  0
  150.7350  134.4026  153.6545 H   0  0  0  0  0  0  0  0  0  0  0  0
  147.9257  134.1552  154.7911 H   0  0  0  0  0  0  0  0  0  0  0  0
  148.4135  134.3024  153.0995 H   0  0  0  0  0  0  0  0  0  0  0  0
  147.9816  131.8402  154.1064 H   0  0  0  0  0  0  0  0  0  0  0  0
  149.4493  132.1079  153.1569 H   0  0  0  0  0  0  0  0  0  0  0  0
  149.1824  132.1312  156.1866 H   0  0  0  0  0  0  0  0  0  0  0  0
  150.4076  131.3047  155.2206 H   0  0  0  0  0  0  0  0  0  0  0  0
  1  2  1  0  0  0  0
  1 26  1  0  0  0  0
  1 27  1  0  0  0  0
  1 28  1  0  0  0  0
  2  3  1  0  0  0  0
  2 29  1  0  0  0  0
  2 30  1  0  0  0  0
  3  8  1  0  0  0  0
  3  4  1  0  0  0  0
  3 31  1  0  0  0  0
  4  5  1  0  0  0  0
  4 32  1  0  0  0  0
  4 33  1  0  0  0  0
  5  6  1  0  0  0  0
  5 34  1  0  0  0  0
  5 35  1  0  0  0  0
  6  7  1  0  0  0  0
  6  8  1  0  0  0  0
  6 36  1  0  0  0  0
  7 37  1  0  0  0  0
  7 38  1  0  0  0  0
  7 39  1  0  0  0  0
  8  9  1  0  0  0  0
  9 14  1  0  0  0  0
  9 10  2  0  0  0  0
 10 11  1  0  0  0  0
 11 12  2  0  0  0  0
 11 40  1  0  0  0  0
 12 13  1  0  0  0  0
 13 17  1  0  0  0  0
 13 14  2  0  0  0  0
 14 15  1  0  0  0  0
 15 16  2  0  0  0  0
 16 17  1  0  0  0  0
 16 41  1  0  0  0  0
 17 18  1  0  0  0  0
 18 19  1  0  0  0  0
 18 42  1  0  0  0  0
 18 43  1  0  0  0  0
 19 20  1  0  0  0  0
 19 21  1  0  0  0  0
 19 44  1  0  0  0  0
 20 45  1  0  0  0  0
 21 25  1  0  0  0  0
 21 22  1  0  0  0  0
 21 46  1  0  0  0  0
 22 23  1  0  0  0  0
 22 47  1  0  0  0  0
 22 48  1  0  0  0  0
 23 24  1  0  0  0  0
 23 49  1  0  0  0  0
 23 50  1  0  0  0  0
 24 25  1  0  0  0  0
 24 51  1  0  0  0  0
 24 52  1  0  0  0  0
M  END
> <s_m_source_file>
AV-unprocessed.smi

> <i_m_source_file_index>
232

> <i_lp_mmshare_version>
43012

> <i_f3d_flags>
0

> <s_epik_input>
W0NIM11bQ0gyXVtDQEBIXTFbQ0gyXVtDSDJdW0NAQEhdKFtDSDNdKU4xYyhuW2NIXW4yKWMoYzIzKW5bY0hdbjNbQ0gyXVtDQEhdKFtPSF0pW0NAQEhdNFtDSDJdW0NIMl1bQ0gyXU80

> <s_epik_cmdline>
J2VwaWtfcHl0aG9uJywgJy1waCcsICc3LjAnLCAnLXRuJywgJzgnLCAnLW1hJywgJzIwMCcsICctbWV0YWxfYmluZGluZycsICctaW1hZScsICc8aW5maWxlLm1hZT4nLCAnLW9tYWUnLCAnPG91dGZpbGUubWFlPic=

> <r_lp_tautomer_probability>
1

> <r_epik_Ionization_Penalty>
0.00258048

> <r_epik_Ionization_Penalty_Charging>
0

> <r_epik_Ionization_Penalty_Neutral>
0.00258048

> <r_epik_State_Penalty>
0.00168551

> <r_epik_Charging_Adjusted_Penalty>
0.00168551

> <i_epik_Tot_Q>
0

> <i_epik_Tot_abs_Q>
0

> <r_epik_Metal_State_Penalty>
-0

> <b_epik_Metal_Only>
0

> <s_lp_Force_Field>
OPLS_2005

> <r_lp_Energy>
54.3711

> <b_lp_Chiralities_Consistent>
1

> <s_lp_Variant>
AV-unprocessed.smi:232-2

> <Gold.Version>
5.8.1

> <Gold.Id.Protein>
6NUR|6NUR_protein|mol2

> <Gold.PLP.Fitness>
45.2062

> <Gold.PLP.PLP>
-40.5687

> <Gold.PLP.part.hbond>
-2.8634

> <Gold.PLP.part.metal>
0.0000

> <Gold.PLP.part.buried>
-2.9948

> <Gold.PLP.part.nonpolar>
-31.9991

> <Gold.PLP.part.repulsive>
0.0309

> <Gold.PLP.ligand.clash>
0.3428

> <Gold.PLP.ligand.torsion>
0.5520

> <Gold.PLP.Chemscore.Hbond>
2.0000

> <Gold.PLP.Chemscore.CHOScore>
0.0000

> <Gold.PLP.Chemscore.Metal>
0.0000

> <Gold.Chemscore.Hbonds>
donor molecule, donor type, donor heavy atom, donor atom, acceptor molecule, acceptor atom, score
      L1  H    20    45       P1  7948  1.00
      P1  H  7997  8008       L1    10  1.00

> <Gold.PLP.Chemscore.Internal.Correction>
0.0844

> <Gold.Rescore>
     Score         DG    S(hbond)    S(metal)    S(lipo)     H(rot)  DE(clash)    DE(int)     intcor
     14.01     -16.10       1.92        0.00      89.13       2.43       0.00       2.09       ----

> <Gold.Chemscore.Fitness>
14.0090

> <Gold.Chemscore.DG>
-16.1029

> <Gold.Chemscore.ZeroCoef>
-5.4800

> <Gold.Chemscore.Hbond>
1.9179

> <Gold.Chemscore.Metal>
0.0000

> <Gold.Chemscore.Lipo>
89.1265

> <Gold.Chemscore.Internal_Hbond>
0.0000

> <Gold.Chemscore.DEClash>
0.0000

> <Gold.Chemscore.DEInternal>
2.0938

> <Gold.Chemscore.Rot>
2.4260

> <Gold.Chemscore.Internal.Correction>
   9.000000E+99

> <Gold.Chemscore.Hbonds>
donor molecule, donor type, donor heavy atom, donor atom, acceptor molecule, acceptor atom, score
      L1  H    20    45       P1  7948  0.78
      P1  H  7997  8008       L1    10  0.30

> <Gold.Chemscore.Hbond.Weighted>
-6.4057

> <Gold.Chemscore.Metal.Weighted>
-0.0000

> <Gold.Chemscore.Lipo.Weighted>
-10.4278

> <Gold.Chemscore.Internal_Hbond.Weighted>
0.0000

> <Gold.Chemscore.DEClash.Weighted>
0.0000

> <Gold.Chemscore.DEInternal.Weighted>
2.0938

> <Gold.Chemscore.Rot.Weighted>
6.2107

> <Gold.Chemscore.Internal.Correction.Weighted>
   9.000000E+99

> <Gold.Protein.RotatedTorsions>
[ 6907 6896 6895 6894 ] final   58.01 input  -60.11 | X-H torsion
[ 7974 7965 7964 7962 ] final  -52.24 input  175.53 | X-H torsion
[ 8008 7997 7996 7995 ] final  -62.84 input   59.86 | X-H torsion
[ 10167 10162 10161 10158 ] final -105.68 input  -65.29 | X-H torsion
[ 10718 10713 10712 10709 ] final -160.34 input   66.30 | X-H torsion
[ 10763 10752 10751 10750 ] final  -57.58 input  -60.55 | X-H torsion
[ 11005 11000 10999 10996 ] final  115.64 input  -57.11 | X-H torsion

> <Gold.Protein.ActiveResidues>
 VAL166  LYS551  ARG553  GLY616  TRP617  ASP618  TYR619  PRO620  LYS621  CYS622 
 ASP623  PHE694  ASN695  SER759  ASP760  ASP761  ALA762  ILE779  LEU786  VAL792 
 PHE793  MET794  SER795  GLU796  ALA797  LYS798  CYS799  TRP800  GLU811  SER814 

> <Gold.Protein.RotatedAtoms>
  152.3785  134.6627  160.0151 H   0  0  0  0  0  0  0  0  0  0  0  0  # atno 6907 bound_to 6896
  151.6898  133.3305  159.3248 H   0  0  0  0  0  0  0  0  0  0  0  0  # atno 6908 bound_to 6896
  150.7728  134.6644  159.6402 H   0  0  0  0  0  0  0  0  0  0  0  0  # atno 6909 bound_to 6896
  145.9101  140.7922  142.9699 H   0  0  0  0  0  0  0  0  0  0  0  0  # atno 7974 bound_to 7965
  154.4521  140.0987  156.6650 H   0  0  0  0  0  0  0  0  0  0  0  0  # atno 8008 bound_to 7997
  155.5251  140.3480  155.4396 H   0  0  0  0  0  0  0  0  0  0  0  0  # atno 8009 bound_to 7997
  156.0703  140.1348  156.9825 H   0  0  0  0  0  0  0  0  0  0  0  0  # atno 8010 bound_to 7997
  140.1959  143.3855  152.1168 H   0  0  0  0  0  0  0  0  0  0  0  0  # atno 10167 bound_to 10162
  156.5808  130.8728  151.2864 H   0  0  0  0  0  0  0  0  0  0  0  0  # atno 10718 bound_to 10713
  154.2247  135.6371  153.5156 H   0  0  0  0  0  0  0  0  0  0  0  0  # atno 10763 bound_to 10752
  152.9961  135.5505  154.6076 H   0  0  0  0  0  0  0  0  0  0  0  0  # atno 10764 bound_to 10752
  154.5545  135.2904  155.0951 H   0  0  0  0  0  0  0  0  0  0  0  0  # atno 10765 bound_to 10752
  139.9016  134.9587  156.7076 H   0  0  0  0  0  0  0  0  0  0  0  0  # atno 11005 bound_to 11000
  144.6742  140.1812  143.7405 LP  0  0  0  0  0  0  0  0  0  0  0  0  # atno 17320 bound_to 7965
  145.8682  139.2258  143.1676 LP  0  0  0  0  0  0  0  0  0  0  0  0  # atno 17321 bound_to 7965
  139.5237  144.7074  151.5312 LP  0  0  0  0  0  0  0  0  0  0  0  0  # atno 17342 bound_to 10162
  140.6424  143.8863  150.6704 LP  0  0  0  0  0  0  0  0  0  0  0  0  # atno 17343 bound_to 10162
  157.7327  130.9719  150.1941 LP  0  0  0  0  0  0  0  0  0  0  0  0  # atno 17370 bound_to 10713
  156.2633  130.3713  149.8107 LP  0  0  0  0  0  0  0  0  0  0  0  0  # atno 17371 bound_to 10713
  140.7101  133.9231  155.8079 LP  0  0  0  0  0  0  0  0  0  0  0  0  # atno 17394 bound_to 11000
  141.0307  134.0760  157.4017 LP  0  0  0  0  0  0  0  0  0  0  0  0  # atno 17395 bound_to 11000

$$$$
