AV-unprocessed.smi:384|AV-procd|sdf|2470|dock4
  -GOLD-   2262022413D 1   1.00000     0.00000
 Structure written by MMmdl.
 33 34  0  0  0  0  0  0  0  0  3 V2000
  152.3910  144.2820  158.3357 C   0  0  0  0  0  0  0  0  0  0  0  0
  151.4589  143.4143  159.1998 C   0  0  1  0  0  0  0  0  0  0  0  0
  151.6161  141.9012  158.9492 C   0  0  0  0  0  0  0  0  0  0  0  0
  152.8449  141.4030  159.5528 N   0  0  0  0  0  0  0  0  0  0  0  0
  153.0875  140.0544  159.2639 C   0  0  0  0  0  0  0  0  0  0  0  0
  153.4946  139.1103  160.2342 C   0  0  0  0  0  0  0  0  0  0  0  0
  153.7172  137.7730  159.8465 C   0  0  0  0  0  0  0  0  0  0  0  0
  153.5303  137.3949  158.4964 C   0  0  0  0  0  0  0  0  0  0  0  0
  153.7623  135.9789  158.0516 C   0  0  0  0  0  0  0  0  0  0  0  0
  153.5118  135.6740  156.8646 O   0  0  0  0  0  0  0  0  0  0  0  0
  154.1987  135.1516  158.8822 O   0  5  0  0  0  0  0  0  0  0  0  0
  153.1197  138.3842  157.5740 C   0  0  0  0  0  0  0  0  0  0  0  0
  152.9167  139.6553  157.9851 N   0  3  0  0  0  0  0  0  0  0  0  0
  152.9326  141.7138  160.9725 C   0  0  0  0  0  0  0  0  0  0  0  0
  152.8138  143.2329  161.1849 C   0  0  2  0  0  0  0  0  0  0  0  0
  152.7933  143.6043  162.6711 C   0  0  0  0  0  0  0  0  0  0  0  0
  151.5992  143.6978  160.5947 O   0  0  0  0  0  0  0  0  0  0  0  0
  152.1793  144.1391  157.2757 H   0  0  0  0  0  0  0  0  0  0  0  0
  153.4427  144.0429  158.4900 H   0  0  0  0  0  0  0  0  0  0  0  0
  152.2522  145.3402  158.5585 H   0  0  0  0  0  0  0  0  0  0  0  0
  150.4377  143.6897  158.9346 H   0  0  0  0  0  0  0  0  0  0  0  0
  150.7652  141.3726  159.3814 H   0  0  0  0  0  0  0  0  0  0  0  0
  151.6103  141.6906  157.8789 H   0  0  0  0  0  0  0  0  0  0  0  0
  153.6364  139.4001  161.2651 H   0  0  0  0  0  0  0  0  0  0  0  0
  154.0293  137.0506  160.5867 H   0  0  0  0  0  0  0  0  0  0  0  0
  152.9487  138.2012  156.5227 H   0  0  0  0  0  0  0  0  0  0  0  0
  152.1371  141.1991  161.5131 H   0  0  0  0  0  0  0  0  0  0  0  0
  153.8813  141.3517  161.3712 H   0  0  0  0  0  0  0  0  0  0  0  0
  153.6640  143.7354  160.7228 H   0  0  0  0  0  0  0  0  0  0  0  0
  153.7051  143.2759  163.1707 H   0  0  0  0  0  0  0  0  0  0  0  0
  151.9468  143.1451  163.1825 H   0  0  0  0  0  0  0  0  0  0  0  0
  152.7145  144.6839  162.8011 H   0  0  0  0  0  0  0  0  0  0  0  0
  152.6224  140.3459  157.2944 H   0  0  0  0  0  0  0  0  0  0  0  0
  1  2  1  0  0  0  0
  1 18  1  0  0  0  0
  1 19  1  0  0  0  0
  1 20  1  0  0  0  0
  2 17  1  0  0  0  0
  2  3  1  0  0  0  0
  2 21  1  0  0  0  0
  3  4  1  0  0  0  0
  3 22  1  0  0  0  0
  3 23  1  0  0  0  0
  4  5  1  0  0  0  0
  4 14  1  0  0  0  0
  5 13  1  0  0  0  0
  5  6  2  0  0  0  0
  6  7  1  0  0  0  0
  6 24  1  0  0  0  0
  7  8  2  0  0  0  0
  7 25  1  0  0  0  0
  8  9  1  0  0  0  0
  8 12  1  0  0  0  0
  9 10  2  0  0  0  0
  9 11  1  0  0  0  0
 12 13  2  0  0  0  0
 12 26  1  0  0  0  0
 13 33  1  0  0  0  0
 14 15  1  0  0  0  0
 14 27  1  0  0  0  0
 14 28  1  0  0  0  0
 15 16  1  0  0  0  0
 15 17  1  0  0  0  0
 15 29  1  0  0  0  0
 16 30  1  0  0  0  0
 16 31  1  0  0  0  0
 16 32  1  0  0  0  0
M  CHG  1  11  -1
M  CHG  1  13   1
M  END
> <s_m_source_file>
AV-unprocessed.smi

> <i_m_source_file_index>
384

> <i_lp_mmshare_version>
43012

> <i_f3d_flags>
0

> <s_epik_input>
W0NIM11bQ0BASF0xW0NIMl1OKFtDSDJdW0NASF0oTzEpW0NIM10pYzJbY0hdW2NIXWMoW2NIXW4yKUMoPU8pW09IXQ==

> <s_epik_cmdline>
J2VwaWtfcHl0aG9uJywgJy1waCcsICc3LjAnLCAnLXRuJywgJzgnLCAnLW1hJywgJzIwMCcsICctbWV0YWxfYmluZGluZycsICctaW1hZScsICc8aW5maWxlLm1hZT4nLCAnLW9tYWUnLCAnPG91dGZpbGUubWFlPic=

> <r_epik_Ionization_Penalty>
2.35185

> <r_epik_Ionization_Penalty_Charging>
2.35185

> <r_epik_Ionization_Penalty_Neutral>
3.18713e-12

> <r_epik_State_Penalty>
2.50619

> <r_epik_Charging_Adjusted_Penalty>
4.85804

> <i_epik_Tot_Q>
0

> <i_epik_Tot_abs_Q>
2

> <r_epik_Metal_State_Penalty>
6.59026

> <b_epik_Metal_Only>
0

> <s_lp_Force_Field>
OPLS_2005

> <r_lp_Energy>
19.8992

> <b_lp_Chiralities_Consistent>
1

> <s_lp_Variant>
AV-unprocessed.smi:384-6

> <Gold.Version>
5.8.1

> <Gold.Id.Protein>
6NUR|6NUR_protein|mol2

> <Gold.PLP.Fitness>
40.7378

> <Gold.PLP.PLP>
-29.0912

> <Gold.PLP.part.hbond>
-2.0000

> <Gold.PLP.part.metal>
0.0000

> <Gold.PLP.part.buried>
-4.0577

> <Gold.PLP.part.nonpolar>
-23.9832

> <Gold.PLP.part.repulsive>
1.2751

> <Gold.PLP.ligand.clash>
0.0000

> <Gold.PLP.ligand.torsion>
0.2210

> <Gold.PLP.Chemscore.Hbond>
4.0000

> <Gold.PLP.Chemscore.CHOScore>
0.0000

> <Gold.PLP.Chemscore.Metal>
0.0000

> <Gold.Chemscore.Hbonds>
donor molecule, donor type, donor heavy atom, donor atom, acceptor molecule, acceptor atom, score
      P1  H  6896  6909       L1    11  1.82
      P1  H 10752 10765       L1    10  1.98

> <Gold.PLP.Chemscore.Internal.Correction>
0.0886

> <Gold.Rescore>
     Score         DG    S(hbond)    S(metal)    S(lipo)     H(rot)  DE(clash)    DE(int)     intcor
     18.85     -19.73       1.94        0.00      88.39       1.00       0.75       0.13       ----

> <Gold.Chemscore.Fitness>
18.8468

> <Gold.Chemscore.DG>
-19.7314

> <Gold.Chemscore.ZeroCoef>
-5.4800

> <Gold.Chemscore.Hbond>
1.9370

> <Gold.Chemscore.Metal>
0.0000

> <Gold.Chemscore.Lipo>
88.3914

> <Gold.Chemscore.Internal_Hbond>
0.0000

> <Gold.Chemscore.DEClash>
0.7514

> <Gold.Chemscore.DEInternal>
0.1331

> <Gold.Chemscore.Rot>
1.0000

> <Gold.Chemscore.Internal.Correction>
   9.000000E+99

> <Gold.Chemscore.Hbonds>
donor molecule, donor type, donor heavy atom, donor atom, acceptor molecule, acceptor atom, score
      P1  H  6896  6909       L1    11  0.54
      P1  H 10752 10765       L1    10  0.92

> <Gold.Chemscore.Hbond.Weighted>
-6.4696

> <Gold.Chemscore.Metal.Weighted>
-0.0000

> <Gold.Chemscore.Lipo.Weighted>
-10.3418

> <Gold.Chemscore.Internal_Hbond.Weighted>
0.0000

> <Gold.Chemscore.DEClash.Weighted>
0.7514

> <Gold.Chemscore.DEInternal.Weighted>
0.1331

> <Gold.Chemscore.Rot.Weighted>
2.5600

> <Gold.Chemscore.Internal.Correction.Weighted>
   9.000000E+99

> <Gold.Protein.RotatedTorsions>
[ 6907 6896 6895 6894 ] final -159.54 input  -60.11 | X-H torsion
[ 7974 7965 7964 7962 ] final -156.49 input  175.53 | X-H torsion
[ 8008 7997 7996 7995 ] final   84.37 input   59.86 | X-H torsion
[ 10167 10162 10161 10158 ] final  -25.84 input  -65.29 | X-H torsion
[ 10718 10713 10712 10709 ] final -141.21 input   66.30 | X-H torsion
[ 10763 10752 10751 10750 ] final -105.13 input  -60.55 | X-H torsion
[ 11005 11000 10999 10996 ] final  -26.90 input  -57.11 | X-H torsion

> <Gold.Protein.ActiveResidues>
 VAL166  LYS551  ARG553  GLY616  TRP617  ASP618  TYR619  PRO620  LYS621  CYS622 
 ASP623  PHE694  ASN695  SER759  ASP760  ASP761  ALA762  ILE779  LEU786  VAL792 
 PHE793  MET794  SER795  GLU796  ALA797  LYS798  CYS799  TRP800  GLU811  SER814 

> <Gold.Protein.RotatedAtoms>
  151.3351  133.3985  159.2665 H   0  0  0  0  0  0  0  0  0  0  0  0  # atno 6907 bound_to 6896
  150.9923  134.9256  159.7917 H   0  0  0  0  0  0  0  0  0  0  0  0  # atno 6908 bound_to 6896
  152.5251  134.3316  159.9237 H   0  0  0  0  0  0  0  0  0  0  0  0  # atno 6909 bound_to 6896
  144.7591  140.4102  143.5990 H   0  0  0  0  0  0  0  0  0  0  0  0  # atno 7974 bound_to 7965
  155.9361  140.3411  155.6289 H   0  0  0  0  0  0  0  0  0  0  0  0  # atno 8008 bound_to 7997
  155.7097  140.0770  157.2395 H   0  0  0  0  0  0  0  0  0  0  0  0  # atno 8009 bound_to 7997
  154.4094  140.1625  156.2270 H   0  0  0  0  0  0  0  0  0  0  0  0  # atno 8010 bound_to 7997
  140.7285  143.4230  151.0922 H   0  0  0  0  0  0  0  0  0  0  0  0  # atno 10167 bound_to 10162
  156.3314  130.7588  151.1706 H   0  0  0  0  0  0  0  0  0  0  0  0  # atno 10718 bound_to 10713
  154.7926  135.4760  154.0087 H   0  0  0  0  0  0  0  0  0  0  0  0  # atno 10763 bound_to 10752
  153.1654  135.6816  153.8690 H   0  0  0  0  0  0  0  0  0  0  0  0  # atno 10764 bound_to 10752
  153.8290  135.3194  155.3395 H   0  0  0  0  0  0  0  0  0  0  0  0  # atno 10765 bound_to 10752
  140.9071  133.7485  156.0620 H   0  0  0  0  0  0  0  0  0  0  0  0  # atno 11005 bound_to 11000
  145.6680  139.1594  143.2771 LP  0  0  0  0  0  0  0  0  0  0  0  0  # atno 17320 bound_to 7965
  146.1634  140.6754  142.9267 LP  0  0  0  0  0  0  0  0  0  0  0  0  # atno 17321 bound_to 7965
  139.7877  143.8263  152.3147 LP  0  0  0  0  0  0  0  0  0  0  0  0  # atno 17342 bound_to 10162
  139.8236  144.7285  150.9541 LP  0  0  0  0  0  0  0  0  0  0  0  0  # atno 17343 bound_to 10162
  157.7431  131.0480  150.4974 LP  0  0  0  0  0  0  0  0  0  0  0  0  # atno 17370 bound_to 10713
  156.5141  130.4146  149.6285 LP  0  0  0  0  0  0  0  0  0  0  0  0  # atno 17371 bound_to 10713
  140.8157  134.3347  157.5398 LP  0  0  0  0  0  0  0  0  0  0  0  0  # atno 17394 bound_to 11000
  139.8751  134.9280  156.3440 LP  0  0  0  0  0  0  0  0  0  0  0  0  # atno 17395 bound_to 11000

$$$$
