AV-unprocessed.smi:1207|AV-procd|sdf|5058|dock4
  -GOLD-   22720 4 93D 1   1.00000     0.00000
 Structure written by MMmdl.
 53 55  0  0  0  0  0  0  0  0  3 V2000
  152.6109  142.7523  160.8843 C   0  0  0  0  0  0  0  0  0  0  0  0
  152.2534  142.0743  159.5725 C   0  0  0  0  0  0  0  0  0  0  0  0
  151.2706  142.6714  158.7510 C   0  0  0  0  0  0  0  0  0  0  0  0
  150.9630  142.0262  157.5591 C   0  0  0  0  0  0  0  0  0  0  0  0
  150.0552  142.3522  156.5493 N   0  3  0  0  0  0  0  0  0  0  0  0
  150.1066  141.4078  155.5692 C   0  0  0  0  0  0  0  0  0  0  0  0
  151.0330  140.4819  155.9401 N   0  0  0  0  0  0  0  0  0  0  0  0
  151.4774  139.2601  155.2559 C   0  0  0  0  0  0  0  0  0  0  0  0
  150.3087  138.3291  154.8776 C   0  0  1  0  0  0  0  0  0  0  0  0
  150.0808  138.4089  153.4838 O   0  0  0  0  0  0  0  0  0  0  0  0
  150.5877  136.8603  155.2540 C   0  0  0  0  0  0  0  0  0  0  0  0
  149.5309  135.9506  154.7431 N   0  3  1  0  0  0  0  0  0  0  0  0
  150.0420  134.5866  154.4743 C   0  0  0  0  0  0  0  0  0  0  0  0
  148.3057  135.9453  155.5832 C   0  0  0  0  0  0  0  0  0  0  0  0
  148.6186  135.4938  156.9846 C   0  0  0  0  0  0  0  0  0  0  0  0
  148.8044  136.3119  158.1356 C   0  0  0  0  0  0  0  0  0  0  0  0
  148.7281  137.8086  158.2378 C   0  0  0  0  0  0  0  0  0  0  0  0
  149.0644  135.5946  159.2147 N   0  0  0  0  0  0  0  0  0  0  0  0
  149.0646  134.2606  158.7969 O   0  0  0  0  0  0  0  0  0  0  0  0
  148.7977  134.2256  157.4669 C   0  0  0  0  0  0  0  0  0  0  0  0
  148.7563  132.8748  156.8361 C   0  0  0  0  0  0  0  0  0  0  0  0
  151.5962  140.8292  157.1728 C   0  0  0  0  0  0  0  0  0  0  0  0
  152.5694  140.2293  157.9683 C   0  0  0  0  0  0  0  0  0  0  0  0
  152.8946  140.8687  159.1859 C   0  0  0  0  0  0  0  0  0  0  0  0
  153.9496  140.2357  160.0774 C   0  0  0  0  0  0  0  0  0  0  0  0
  152.0367  143.6675  161.0304 H   0  0  0  0  0  0  0  0  0  0  0  0
  153.6685  143.0165  160.9040 H   0  0  0  0  0  0  0  0  0  0  0  0
  152.4025  142.0910  161.7257 H   0  0  0  0  0  0  0  0  0  0  0  0
  150.7794  143.5896  159.0385 H   0  0  0  0  0  0  0  0  0  0  0  0
  149.5160  141.3951  154.6644 H   0  0  0  0  0  0  0  0  0  0  0  0
  152.0273  139.5641  154.3640 H   0  0  0  0  0  0  0  0  0  0  0  0
  152.1920  138.7482  155.9020 H   0  0  0  0  0  0  0  0  0  0  0  0
  149.4074  138.6792  155.3789 H   0  0  0  0  0  0  0  0  0  0  0  0
  149.6160  137.6335  153.2068 H   0  0  0  0  0  0  0  0  0  0  0  0
  151.5608  136.5757  154.8500 H   0  0  0  0  0  0  0  0  0  0  0  0
  150.6652  136.7452  156.3365 H   0  0  0  0  0  0  0  0  0  0  0  0
  150.3726  134.1040  155.3949 H   0  0  0  0  0  0  0  0  0  0  0  0
  150.8851  134.6191  153.7836 H   0  0  0  0  0  0  0  0  0  0  0  0
  149.2739  133.9628  154.0170 H   0  0  0  0  0  0  0  0  0  0  0  0
  147.8484  136.9354  155.5676 H   0  0  0  0  0  0  0  0  0  0  0  0
  147.5576  135.2819  155.1502 H   0  0  0  0  0  0  0  0  0  0  0  0
  149.3176  138.2852  157.4544 H   0  0  0  0  0  0  0  0  0  0  0  0
  149.1045  138.1682  159.1960 H   0  0  0  0  0  0  0  0  0  0  0  0
  147.6990  138.1532  158.1355 H   0  0  0  0  0  0  0  0  0  0  0  0
  148.3163  132.9168  155.8401 H   0  0  0  0  0  0  0  0  0  0  0  0
  148.1616  132.1865  157.4369 H   0  0  0  0  0  0  0  0  0  0  0  0
  149.7610  132.4617  156.7448 H   0  0  0  0  0  0  0  0  0  0  0  0
  153.0586  139.3130  157.6735 H   0  0  0  0  0  0  0  0  0  0  0  0
  154.3382  139.3137  159.6441 H   0  0  0  0  0  0  0  0  0  0  0  0
  153.5306  139.9934  161.0544 H   0  0  0  0  0  0  0  0  0  0  0  0
  154.7894  140.9164  160.2197 H   0  0  0  0  0  0  0  0  0  0  0  0
  149.2638  136.3298  153.8454 H   0  0  0  0  0  0  0  0  0  0  0  0
  149.4448  143.1596  156.5275 H   0  0  0  0  0  0  0  0  0  0  0  0
  1  2  1  0  0  0  0
  1 26  1  0  0  0  0
  1 27  1  0  0  0  0
  1 28  1  0  0  0  0
  2 24  1  0  0  0  0
  2  3  2  0  0  0  0
  3  4  1  0  0  0  0
  3 29  1  0  0  0  0
  4 22  2  0  0  0  0
  4  5  1  0  0  0  0
  5  6  2  0  0  0  0
  5 53  1  0  0  0  0
  6  7  1  0  0  0  0
  6 30  1  0  0  0  0
  7  8  1  0  0  0  0
  7 22  1  0  0  0  0
  8  9  1  0  0  0  0
  8 31  1  0  0  0  0
  8 32  1  0  0  0  0
  9 10  1  0  0  0  0
  9 11  1  0  0  0  0
  9 33  1  0  0  0  0
 10 34  1  0  0  0  0
 11 12  1  0  0  0  0
 11 35  1  0  0  0  0
 11 36  1  0  0  0  0
 12 13  1  0  0  0  0
 12 14  1  0  0  0  0
 12 52  1  0  0  0  0
 13 37  1  0  0  0  0
 13 38  1  0  0  0  0
 13 39  1  0  0  0  0
 14 15  1  0  0  0  0
 14 40  1  0  0  0  0
 14 41  1  0  0  0  0
 15 20  2  0  0  0  0
 15 16  1  0  0  0  0
 16 17  1  0  0  0  0
 16 18  2  0  0  0  0
 17 42  1  0  0  0  0
 17 43  1  0  0  0  0
 17 44  1  0  0  0  0
 18 19  1  0  0  0  0
 19 20  1  0  0  0  0
 20 21  1  0  0  0  0
 21 45  1  0  0  0  0
 21 46  1  0  0  0  0
 21 47  1  0  0  0  0
 22 23  1  0  0  0  0
 23 24  2  0  0  0  0
 23 48  1  0  0  0  0
 24 25  1  0  0  0  0
 25 49  1  0  0  0  0
 25 50  1  0  0  0  0
 25 51  1  0  0  0  0
M  CHG  1   5   1
M  CHG  1  12   1
M  END
> <s_m_source_file>
AV-unprocessed.smi

> <i_m_source_file_index>
1207

> <i_lp_mmshare_version>
43012

> <i_f3d_flags>
0

> <s_epik_input>
W0NIM11jKFtjSF0xKWMoW0NIM10pW2NIXWMoYzEyKW4oW2NIXW4yKVtDSDJdW0NASF0oW09IXSlbQ0gyXU4oW0NIM10pW0NIMl1jM2MoW0NIM10pbm9jM1tDSDNd

> <s_epik_cmdline>
J2VwaWtfcHl0aG9uJywgJy1waCcsICc3LjAnLCAnLXRuJywgJzgnLCAnLW1hJywgJzIwMCcsICctbWV0YWxfYmluZGluZycsICctaW1hZScsICc8aW5maWxlLm1hZT4nLCAnLW9tYWUnLCAnPG91dGZpbGUubWFlPic=

> <r_epik_Ionization_Penalty>
1.77463

> <r_epik_Ionization_Penalty_Charging>
1.77463

> <r_epik_Ionization_Penalty_Neutral>
3.70885e-06

> <r_epik_State_Penalty>
1.85225

> <r_epik_Charging_Adjusted_Penalty>
3.62688

> <i_epik_Tot_Q>
2

> <i_epik_Tot_abs_Q>
2

> <r_epik_Metal_State_Penalty>
1.92674

> <b_epik_Metal_Only>
0

> <s_lp_Force_Field>
OPLS_2005

> <r_lp_Energy>
18.8212

> <b_lp_Chiralities_Consistent>
1

> <s_lp_Variant>
AV-unprocessed.smi:1207-10

> <Gold.Version>
5.8.1

> <Gold.Id.Protein>
6NUR|6NUR_protein|mol2

> <Gold.PLP.Fitness>
58.0993

> <Gold.PLP.PLP>
-42.4411

> <Gold.PLP.part.hbond>
-5.7154

> <Gold.PLP.part.metal>
0.0000

> <Gold.PLP.part.buried>
-4.0561

> <Gold.PLP.part.nonpolar>
-31.9892

> <Gold.PLP.part.repulsive>
0.1148

> <Gold.PLP.ligand.clash>
0.0000

> <Gold.PLP.ligand.torsion>
1.2883

> <Gold.PLP.Chemscore.Hbond>
6.0000

> <Gold.PLP.Chemscore.CHOScore>
0.0000

> <Gold.PLP.Chemscore.Metal>
0.0000

> <Gold.Chemscore.Hbonds>
donor molecule, donor type, donor heavy atom, donor atom, acceptor molecule, acceptor atom, score
      L1  H     5    53       P1  8028  1.95
      L1  H    10    34       P1  7948  1.00
      L1  H    12    52       P1  7948  2.00
      P1  H  6896  6909       L1    19  0.55

> <Gold.PLP.Chemscore.Internal.Correction>
0.2348

> <Gold.Rescore>
     Score         DG    S(hbond)    S(metal)    S(lipo)     H(rot)  DE(clash)    DE(int)     intcor
     21.26     -22.68       3.45        0.00     103.87       2.54       0.15       1.26       ----

> <Gold.Chemscore.Fitness>
21.2625

> <Gold.Chemscore.DG>
-22.6761

> <Gold.Chemscore.ZeroCoef>
-5.4800

> <Gold.Chemscore.Hbond>
3.4531

> <Gold.Chemscore.Metal>
0.0000

> <Gold.Chemscore.Lipo>
103.8696

> <Gold.Chemscore.Internal_Hbond>
0.0000

> <Gold.Chemscore.DEClash>
0.1509

> <Gold.Chemscore.DEInternal>
1.2626

> <Gold.Chemscore.Rot>
2.5351

> <Gold.Chemscore.Internal.Correction>
   9.000000E+99

> <Gold.Chemscore.Hbonds>
donor molecule, donor type, donor heavy atom, donor atom, acceptor molecule, acceptor atom, score
      L1  H     5    53       P1  8028  0.93
      L1  H    10    34       P1  7948  0.72
      L1  H    12    52       P1  7948  0.87
      P1  H  6896  6909       L1    19  0.03

> <Gold.Chemscore.Hbond.Weighted>
-11.5333

> <Gold.Chemscore.Metal.Weighted>
-0.0000

> <Gold.Chemscore.Lipo.Weighted>
-12.1527

> <Gold.Chemscore.Internal_Hbond.Weighted>
0.0000

> <Gold.Chemscore.DEClash.Weighted>
0.1509

> <Gold.Chemscore.DEInternal.Weighted>
1.2626

> <Gold.Chemscore.Rot.Weighted>
6.4900

> <Gold.Chemscore.Internal.Correction.Weighted>
   9.000000E+99

> <Gold.Protein.RotatedTorsions>
[ 6907 6896 6895 6894 ] final   16.05 input  -60.11 | X-H torsion
[ 7974 7965 7964 7962 ] final  138.55 input  175.53 | X-H torsion
[ 8008 7997 7996 7995 ] final -146.21 input   59.86 | X-H torsion
[ 10167 10162 10161 10158 ] final -152.78 input  -65.29 | X-H torsion
[ 10718 10713 10712 10709 ] final -122.43 input   66.30 | X-H torsion
[ 10763 10752 10751 10750 ] final   48.26 input  -60.55 | X-H torsion
[ 11005 11000 10999 10996 ] final -173.87 input  -57.11 | X-H torsion

> <Gold.Protein.ActiveResidues>
 VAL166  LYS551  ARG553  GLY616  TRP617  ASP618  TYR619  PRO620  LYS621  CYS622 
 ASP623  PHE694  ASN695  SER759  ASP760  ASP761  ALA762  ILE779  LEU786  VAL792 
 PHE793  MET794  SER795  GLU796  ALA797  LYS798  CYS799  TRP800  GLU811  SER814 

> <Gold.Protein.RotatedAtoms>
  151.8277  135.0631  160.0432 H   0  0  0  0  0  0  0  0  0  0  0  0  # atno 6907 bound_to 6896
  152.2904  133.5551  159.5562 H   0  0  0  0  0  0  0  0  0  0  0  0  # atno 6908 bound_to 6896
  150.7227  134.0353  159.3789 H   0  0  0  0  0  0  0  0  0  0  0  0  # atno 6909 bound_to 6896
  144.9362  139.4986  143.5594 H   0  0  0  0  0  0  0  0  0  0  0  0  # atno 7974 bound_to 7965
  155.5557  140.0621  157.2840 H   0  0  0  0  0  0  0  0  0  0  0  0  # atno 8008 bound_to 7997
  154.4406  140.1894  156.0777 H   0  0  0  0  0  0  0  0  0  0  0  0  # atno 8009 bound_to 7997
  156.0483  140.3287  155.7326 H   0  0  0  0  0  0  0  0  0  0  0  0  # atno 8010 bound_to 7997
  139.7153  143.9044  152.2483 H   0  0  0  0  0  0  0  0  0  0  0  0  # atno 10167 bound_to 10162
  156.1418  130.6471  150.9782 H   0  0  0  0  0  0  0  0  0  0  0  0  # atno 10718 bound_to 10713
  152.9793  135.5950  154.3897 H   0  0  0  0  0  0  0  0  0  0  0  0  # atno 10763 bound_to 10752
  154.3553  135.2767  155.2351 H   0  0  0  0  0  0  0  0  0  0  0  0  # atno 10764 bound_to 10752
  154.4372  135.6022  153.6161 H   0  0  0  0  0  0  0  0  0  0  0  0  # atno 10765 bound_to 10752
  140.4809  134.6076  157.4919 H   0  0  0  0  0  0  0  0  0  0  0  0  # atno 11005 bound_to 11000
  146.3267  139.8348  142.8901 LP  0  0  0  0  0  0  0  0  0  0  0  0  # atno 17320 bound_to 7965
  145.3063  141.0208  143.3580 LP  0  0  0  0  0  0  0  0  0  0  0  0  # atno 17321 bound_to 7965
  139.8924  144.6958  150.8755 LP  0  0  0  0  0  0  0  0  0  0  0  0  # atno 17342 bound_to 10162
  140.7742  143.3576  151.1891 LP  0  0  0  0  0  0  0  0  0  0  0  0  # atno 17343 bound_to 10162
  157.6582  131.0885  150.7899 LP  0  0  0  0  0  0  0  0  0  0  0  0  # atno 17370 bound_to 10713
  156.7974  130.4910  149.5375 LP  0  0  0  0  0  0  0  0  0  0  0  0  # atno 17371 bound_to 10713
  139.9827  134.7111  155.9830 LP  0  0  0  0  0  0  0  0  0  0  0  0  # atno 17394 bound_to 11000
  141.1531  133.6546  156.4077 LP  0  0  0  0  0  0  0  0  0  0  0  0  # atno 17395 bound_to 11000

$$$$
