AV-unprocessed.smi:2556|AV-procd|sdf|10026|dock6
  -GOLD-   2272014 73D 1   1.00000     0.00000
 Structure written by MMmdl.
 34 36  0  0  0  0  0  0  0  0  2 V2000
  152.8067  143.5669  162.1790 C   0  0  0  0  0  0  0  0  0  0  0  0
  152.8333  142.6544  161.0319 N   0  0  0  0  0  0  0  0  0  0  0  0
  153.5318  141.4725  161.0304 C   0  0  0  0  0  0  0  0  0  0  0  0
  154.1623  141.1568  162.0397 O   0  0  0  0  0  0  0  0  0  0  0  0
  153.5144  140.6670  159.9101 N   0  5  0  0  0  0  0  0  0  0  0  0
  152.8422  140.9226  158.7430 C   0  0  0  0  0  0  0  0  0  0  0  0
  152.8156  140.2218  157.7326 O   0  0  0  0  0  0  0  0  0  0  0  0
  152.0978  142.1959  158.8028 C   0  0  0  0  0  0  0  0  0  0  0  0
  152.0871  143.0251  159.8819 C   0  0  0  0  0  0  0  0  0  0  0  0
  151.3004  144.1491  159.6546 N   0  0  0  0  0  0  0  0  0  0  0  0
  150.8639  143.9328  158.4133 C   0  0  0  0  0  0  0  0  0  0  0  0
  151.2907  142.7917  157.8348 N   0  0  0  0  0  0  0  0  0  0  0  0
  150.9583  142.3263  156.4975 C   0  0  0  0  0  0  0  0  0  0  0  0
  149.8081  141.3002  156.4948 C   0  0  1  0  0  0  0  0  0  0  0  0
  148.6427  141.8829  155.9419 O   0  0  0  0  0  0  0  0  0  0  0  0
  150.2133  140.0215  155.7781 C   0  0  0  0  0  0  0  0  0  0  0  0
  149.2732  138.9929  155.5450 C   0  0  0  0  0  0  0  0  0  0  0  0
  149.6594  137.8173  154.8719 C   0  0  0  0  0  0  0  0  0  0  0  0
  150.9859  137.6647  154.4247 C   0  0  0  0  0  0  0  0  0  0  0  0
  151.9252  138.6895  154.6486 C   0  0  0  0  0  0  0  0  0  0  0  0
  151.5396  139.8650  155.3221 C   0  0  0  0  0  0  0  0  0  0  0  0
  153.4437  143.2649  163.0107 H   0  0  0  0  0  0  0  0  0  0  0  0
  151.7888  143.6516  162.5601 H   0  0  0  0  0  0  0  0  0  0  0  0
  153.1325  144.5604  161.8695 H   0  0  0  0  0  0  0  0  0  0  0  0
  150.2077  144.6262  157.9078 H   0  0  0  0  0  0  0  0  0  0  0  0
  150.6946  143.1899  155.8853 H   0  0  0  0  0  0  0  0  0  0  0  0
  151.8550  141.8990  156.0478 H   0  0  0  0  0  0  0  0  0  0  0  0
  149.5598  141.0426  157.5249 H   0  0  0  0  0  0  0  0  0  0  0  0
  148.8191  142.7956  155.7718 H   0  0  0  0  0  0  0  0  0  0  0  0
  148.2516  139.1025  155.8786 H   0  0  0  0  0  0  0  0  0  0  0  0
  148.9372  137.0337  154.6969 H   0  0  0  0  0  0  0  0  0  0  0  0
  151.2817  136.7637  153.9076 H   0  0  0  0  0  0  0  0  0  0  0  0
  152.9417  138.5755  154.3023 H   0  0  0  0  0  0  0  0  0  0  0  0
  152.2656  140.6486  155.4848 H   0  0  0  0  0  0  0  0  0  0  0  0
  1  2  1  0  0  0  0
  1 22  1  0  0  0  0
  1 23  1  0  0  0  0
  1 24  1  0  0  0  0
  2  9  1  0  0  0  0
  2  3  1  0  0  0  0
  3  4  2  0  0  0  0
  3  5  1  0  0  0  0
  5  6  1  0  0  0  0
  6  7  2  0  0  0  0
  6  8  1  0  0  0  0
  8 12  1  0  0  0  0
  8  9  2  0  0  0  0
  9 10  1  0  0  0  0
 10 11  2  0  0  0  0
 11 12  1  0  0  0  0
 11 25  1  0  0  0  0
 12 13  1  0  0  0  0
 13 14  1  0  0  0  0
 13 26  1  0  0  0  0
 13 27  1  0  0  0  0
 14 15  1  0  0  0  0
 14 16  1  0  0  0  0
 14 28  1  0  0  0  0
 15 29  1  0  0  0  0
 16 21  1  0  0  0  0
 16 17  2  0  0  0  0
 17 18  1  0  0  0  0
 17 30  1  0  0  0  0
 18 19  2  0  0  0  0
 18 31  1  0  0  0  0
 19 20  1  0  0  0  0
 19 32  1  0  0  0  0
 20 21  2  0  0  0  0
 20 33  1  0  0  0  0
 21 34  1  0  0  0  0
M  CHG  1   5  -1
M  END
> <s_m_source_file>
AV-unprocessed.smi

> <i_m_source_file_index>
2556

> <i_lp_mmshare_version>
43012

> <i_f3d_flags>
0

> <s_epik_input>
Tz1jMVtuSF1jKD1PKW4oW0NIM10pYyhjMTIpbltjSF1uMltDSDJdW0NASF0oW09IXSljM1tjSF1bY0hdW2NIXVtjSF1bY0hdMw==

> <s_epik_cmdline>
J2VwaWtfcHl0aG9uJywgJy1waCcsICc3LjAnLCAnLXRuJywgJzgnLCAnLW1hJywgJzIwMCcsICctbWV0YWxfYmluZGluZycsICctaW1hZScsICc8aW5maWxlLm1hZT4nLCAnLW9tYWUnLCAnPG91dGZpbGUubWFlPic=

> <r_lp_tautomer_probability>
1

> <r_epik_Ionization_Penalty>
4.84872

> <r_epik_Ionization_Penalty_Charging>
0.03865

> <r_epik_Ionization_Penalty_Neutral>
4.81007

> <r_epik_State_Penalty>
4.80988

> <r_epik_Charging_Adjusted_Penalty>
4.84853

> <i_epik_Tot_Q>
-1

> <i_epik_Tot_abs_Q>
1

> <r_epik_Metal_State_Penalty>
0.994041

> <b_epik_Metal_Only>
1

> <s_lp_Force_Field>
OPLS_2005

> <r_lp_Energy>
31.8708

> <b_lp_Chiralities_Consistent>
1

> <s_lp_Variant>
AV-unprocessed.smi:2556-4

> <Gold.Version>
5.8.1

> <Gold.Id.Protein>
6NUR|6NUR_protein|mol2

> <Gold.PLP.Fitness>
50.1998

> <Gold.PLP.PLP>
-43.3711

> <Gold.PLP.part.hbond>
-2.1092

> <Gold.PLP.part.metal>
0.0000

> <Gold.PLP.part.buried>
-5.1653

> <Gold.PLP.part.nonpolar>
-35.7475

> <Gold.PLP.part.repulsive>
0.0686

> <Gold.PLP.ligand.clash>
0.0000

> <Gold.PLP.ligand.torsion>
1.1407

> <Gold.PLP.Chemscore.Hbond>
1.9920

> <Gold.PLP.Chemscore.CHOScore>
1.0361

> <Gold.PLP.Chemscore.Metal>
0.0000

> <Gold.Chemscore.Hbonds>
donor molecule, donor type, donor heavy atom, donor atom, acceptor molecule, acceptor atom, score
      L1  H    15    29       P1  8028  1.00
      P1  H  7997  8010       L1     7  0.98
      L1  C    11    25       P1  8028  0.72
      L1  C    11    25       P1  8029  0.24

> <Gold.PLP.Chemscore.Internal.Correction>
0.0258

> <Gold.Rescore>
     Score         DG    S(hbond)    S(metal)    S(lipo)     H(rot)  DE(clash)    DE(int)     intcor
     11.78     -14.48       1.86        0.00      73.82       2.28       0.21       2.49       ----

> <Gold.Chemscore.Fitness>
11.7798

> <Gold.Chemscore.DG>
-14.4810

> <Gold.Chemscore.ZeroCoef>
-5.4800

> <Gold.Chemscore.Hbond>
1.8583

> <Gold.Chemscore.Metal>
0.0000

> <Gold.Chemscore.Lipo>
73.8232

> <Gold.Chemscore.Internal_Hbond>
0.0000

> <Gold.Chemscore.DEClash>
0.2064

> <Gold.Chemscore.DEInternal>
2.4948

> <Gold.Chemscore.Rot>
2.2824

> <Gold.Chemscore.Internal.Correction>
   9.000000E+99

> <Gold.Chemscore.Hbonds>
donor molecule, donor type, donor heavy atom, donor atom, acceptor molecule, acceptor atom, score
      L1  H    15    29       P1  8028  1.00
      P1  H  7997  8010       L1     7  0.80

> <Gold.Chemscore.Hbond.Weighted>
-6.2068

> <Gold.Chemscore.Metal.Weighted>
-0.0000

> <Gold.Chemscore.Lipo.Weighted>
-8.6373

> <Gold.Chemscore.Internal_Hbond.Weighted>
0.0000

> <Gold.Chemscore.DEClash.Weighted>
0.2064

> <Gold.Chemscore.DEInternal.Weighted>
2.4948

> <Gold.Chemscore.Rot.Weighted>
5.8431

> <Gold.Chemscore.Internal.Correction.Weighted>
   9.000000E+99

> <Gold.Protein.RotatedTorsions>
[ 6907 6896 6895 6894 ] final  -15.35 input  -60.11 | X-H torsion
[ 7974 7965 7964 7962 ] final -171.83 input  175.53 | X-H torsion
[ 8008 7997 7996 7995 ] final   44.39 input   59.86 | X-H torsion
[ 10167 10162 10161 10158 ] final  -67.48 input  -65.29 | X-H torsion
[ 10718 10713 10712 10709 ] final   65.02 input   66.30 | X-H torsion
[ 10763 10752 10751 10750 ] final   50.13 input  -60.55 | X-H torsion
[ 11005 11000 10999 10996 ] final  -35.14 input  -57.11 | X-H torsion

> <Gold.Protein.ActiveResidues>
 VAL166  LYS551  ARG553  GLY616  TRP617  ASP618  TYR619  PRO620  LYS621  CYS622 
 ASP623  PHE694  ASN695  SER759  ASP760  ASP761  ALA762  ILE779  LEU786  VAL792 
 PHE793  MET794  SER795  GLU796  ALA797  LYS798  CYS799  TRP800  GLU811  SER814 

> <Gold.Protein.RotatedAtoms>
  151.3253  135.0828  159.9319 H   0  0  0  0  0  0  0  0  0  0  0  0  # atno 6907 bound_to 6896
  152.5247  133.9597  159.7722 H   0  0  0  0  0  0  0  0  0  0  0  0  # atno 6908 bound_to 6896
  150.9926  133.6082  159.2736 H   0  0  0  0  0  0  0  0  0  0  0  0  # atno 6909 bound_to 6896
  144.7152  140.1864  143.6353 H   0  0  0  0  0  0  0  0  0  0  0  0  # atno 7974 bound_to 7965
  155.3185  140.3395  155.4242 H   0  0  0  0  0  0  0  0  0  0  0  0  # atno 8008 bound_to 7997
  156.1921  140.1701  156.8109 H   0  0  0  0  0  0  0  0  0  0  0  0  # atno 8009 bound_to 7997
  154.5454  140.0716  156.8564 H   0  0  0  0  0  0  0  0  0  0  0  0  # atno 8010 bound_to 7997
  140.5579  143.2312  151.6785 H   0  0  0  0  0  0  0  0  0  0  0  0  # atno 10167 bound_to 10162
  157.6078  130.9191  149.9922 H   0  0  0  0  0  0  0  0  0  0  0  0  # atno 10718 bound_to 10713
  152.9785  135.5889  154.4202 H   0  0  0  0  0  0  0  0  0  0  0  0  # atno 10763 bound_to 10752
  154.3827  135.2767  155.2203 H   0  0  0  0  0  0  0  0  0  0  0  0  # atno 10764 bound_to 10752
  154.4110  135.6081  153.6007 H   0  0  0  0  0  0  0  0  0  0  0  0  # atno 10765 bound_to 10752
  140.9772  133.7076  156.1623 H   0  0  0  0  0  0  0  0  0  0  0  0  # atno 11005 bound_to 11000
  145.8809  139.2322  143.1606 LP  0  0  0  0  0  0  0  0  0  0  0  0  # atno 17320 bound_to 7965
  145.9996  140.8532  143.0025 LP  0  0  0  0  0  0  0  0  0  0  0  0  # atno 17321 bound_to 7965
  139.5056  144.3710  152.0470 LP  0  0  0  0  0  0  0  0  0  0  0  0  # atno 17342 bound_to 10162
  140.2833  144.3835  150.6112 LP  0  0  0  0  0  0  0  0  0  0  0  0  # atno 17343 bound_to 10162
  156.1170  130.3647  149.9951 LP  0  0  0  0  0  0  0  0  0  0  0  0  # atno 17370 bound_to 10713
  156.8039  130.9300  151.3645 LP  0  0  0  0  0  0  0  0  0  0  0  0  # atno 17371 bound_to 10713
  140.7240  134.4327  157.5572 LP  0  0  0  0  0  0  0  0  0  0  0  0  # atno 17394 bound_to 11000
  139.8935  134.8728  156.2218 LP  0  0  0  0  0  0  0  0  0  0  0  0  # atno 17395 bound_to 11000

$$$$
