AV-unprocessed.smi:2141|AV-procd|sdf|8719|dock8
  -GOLD-   2272011483D 1   1.00000     0.00000
 Structure written by MMmdl.
 41 42  0  0  0  0  0  0  0  0  2 V2000
  136.6617  143.0368  153.2036 C   0  0  0  0  0  0  0  0  0  0  0  0
  138.0437  143.2685  154.4021 S   0  0  0  0  0  0  0  0  0  0  0  0
  138.2988  144.7168  154.4102 O   0  0  0  0  0  0  0  0  0  0  0  0
  137.5951  142.6664  155.6691 O   0  0  0  0  0  0  0  0  0  0  0  0
  139.2611  142.4642  153.6826 N   0  5  0  0  0  0  0  0  0  0  0  0
  139.2839  141.0087  153.6416 C   0  0  0  0  0  0  0  0  0  0  0  0
  140.5978  140.4896  154.2660 C   0  0  0  0  0  0  0  0  0  0  0  0
  140.8059  138.9768  154.0934 C   0  0  0  0  0  0  0  0  0  0  0  0
  139.9872  138.1852  154.5652 O   0  0  0  0  0  0  0  0  0  0  0  0
  141.9447  138.6106  153.4726 N   0  0  0  0  0  0  0  0  0  0  0  0
  142.4010  137.3062  153.1413 C   0  0  0  0  0  0  0  0  0  0  0  0
  141.6773  136.1173  153.3915 C   0  0  0  0  0  0  0  0  0  0  0  0
  142.2307  134.8851  152.9942 C   0  0  0  0  0  0  0  0  0  0  0  0
  143.4887  134.8660  152.3465 C   0  0  0  0  0  0  0  0  0  0  0  0
  144.0615  133.6413  151.9380 N   0  0  0  0  0  0  0  0  0  0  0  0
  144.1546  133.4314  150.4950 C   0  0  0  0  0  0  0  0  0  0  0  0
  144.4941  131.9626  150.1874 C   0  0  0  0  0  0  0  0  0  0  0  0
  145.6806  131.5861  150.8782 O   0  0  0  0  0  0  0  0  0  0  0  0
  145.5266  131.6912  152.2894 C   0  0  0  0  0  0  0  0  0  0  0  0
  145.2278  133.1508  152.6706 C   0  0  0  0  0  0  0  0  0  0  0  0
  144.1760  136.0089  152.1034 N   0  0  0  0  0  0  0  0  0  0  0  0
  143.6417  137.1876  152.4849 C   0  0  0  0  0  0  0  0  0  0  0  0
  135.8019  143.6181  153.5346 H   0  0  0  0  0  0  0  0  0  0  0  0
  136.3819  141.9853  153.1524 H   0  0  0  0  0  0  0  0  0  0  0  0
  136.9729  143.3826  152.2183 H   0  0  0  0  0  0  0  0  0  0  0  0
  138.4346  140.5811  154.1756 H   0  0  0  0  0  0  0  0  0  0  0  0
  139.2108  140.6364  152.6191 H   0  0  0  0  0  0  0  0  0  0  0  0
  141.4482  141.0209  153.8347 H   0  0  0  0  0  0  0  0  0  0  0  0
  140.6115  140.7125  155.3340 H   0  0  0  0  0  0  0  0  0  0  0  0
  142.5750  139.3624  153.2333 H   0  0  0  0  0  0  0  0  0  0  0  0
  140.7092  136.1228  153.8673 H   0  0  0  0  0  0  0  0  0  0  0  0
  141.6890  133.9744  153.2006 H   0  0  0  0  0  0  0  0  0  0  0  0
  143.2279  133.6926  149.9864 H   0  0  0  0  0  0  0  0  0  0  0  0
  144.9309  134.0848  150.0947 H   0  0  0  0  0  0  0  0  0  0  0  0
  143.6704  131.3056  150.4718 H   0  0  0  0  0  0  0  0  0  0  0  0
  144.6502  131.8303  149.1167 H   0  0  0  0  0  0  0  0  0  0  0  0
  144.7287  131.0292  152.6299 H   0  0  0  0  0  0  0  0  0  0  0  0
  146.4447  131.3575  152.7731 H   0  0  0  0  0  0  0  0  0  0  0  0
  146.0892  133.7798  152.4415 H   0  0  0  0  0  0  0  0  0  0  0  0
  145.0536  133.2133  153.7456 H   0  0  0  0  0  0  0  0  0  0  0  0
  144.2296  138.0656  152.2605 H   0  0  0  0  0  0  0  0  0  0  0  0
  1  2  1  0  0  0  0
  1 23  1  0  0  0  0
  1 24  1  0  0  0  0
  1 25  1  0  0  0  0
  2  3  2  0  0  0  0
  2  4  2  0  0  0  0
  2  5  1  0  0  0  0
  5  6  1  0  0  0  0
  6  7  1  0  0  0  0
  6 26  1  0  0  0  0
  6 27  1  0  0  0  0
  7  8  1  0  0  0  0
  7 28  1  0  0  0  0
  7 29  1  0  0  0  0
  8  9  2  0  0  0  0
  8 10  1  0  0  0  0
 10 11  1  0  0  0  0
 10 30  1  0  0  0  0
 11 22  1  0  0  0  0
 11 12  2  0  0  0  0
 12 13  1  0  0  0  0
 12 31  1  0  0  0  0
 13 14  2  0  0  0  0
 13 32  1  0  0  0  0
 14 15  1  0  0  0  0
 14 21  1  0  0  0  0
 15 20  1  0  0  0  0
 15 16  1  0  0  0  0
 16 17  1  0  0  0  0
 16 33  1  0  0  0  0
 16 34  1  0  0  0  0
 17 18  1  0  0  0  0
 17 35  1  0  0  0  0
 17 36  1  0  0  0  0
 18 19  1  0  0  0  0
 19 20  1  0  0  0  0
 19 37  1  0  0  0  0
 19 38  1  0  0  0  0
 20 39  1  0  0  0  0
 20 40  1  0  0  0  0
 21 22  2  0  0  0  0
 22 41  1  0  0  0  0
M  CHG  1   5  -1
M  END
> <s_m_source_file>
AV-unprocessed.smi

> <i_m_source_file_index>
2141

> <i_lp_mmshare_version>
43012

> <i_f3d_flags>
0

> <s_epik_input>
W0NIM11TKD1PKSg9TylbTkhdW0NIMl1bQ0gyXUMoPU8pW05IXWMxW2NIXVtjSF1jKG5bY0hdMSlOMltDSDJdW0NIMl1PW0NIMl1bQ0gyXTI=

> <s_epik_cmdline>
J2VwaWtfcHl0aG9uJywgJy1waCcsICc3LjAnLCAnLXRuJywgJzgnLCAnLW1hJywgJzIwMCcsICctbWV0YWxfYmluZGluZycsICctaW1hZScsICc8aW5maWxlLm1hZT4nLCAnLW9tYWUnLCAnPG91dGZpbGUubWFlPic=

> <r_lp_tautomer_probability>
1

> <r_epik_Ionization_Penalty>
6.16997

> <r_epik_Ionization_Penalty_Charging>
6.16921

> <r_epik_Ionization_Penalty_Neutral>
0.000766965

> <r_epik_State_Penalty>
6.16956

> <r_epik_Charging_Adjusted_Penalty>
12.3388

> <i_epik_Tot_Q>
-1

> <i_epik_Tot_abs_Q>
1

> <r_epik_Metal_State_Penalty>
2.11159

> <b_epik_Metal_Only>
1

> <s_lp_Force_Field>
OPLS_2005

> <r_lp_Energy>
18.4771

> <b_lp_Chiralities_Consistent>
1

> <s_lp_Variant>
AV-unprocessed.smi:2141-2

> <Gold.Version>
5.8.1

> <Gold.Id.Protein>
6NUR|6NUR_protein|mol2

> <Gold.PLP.Fitness>
40.8953

> <Gold.PLP.PLP>
-30.3808

> <Gold.PLP.part.hbond>
-2.0000

> <Gold.PLP.part.metal>
0.0000

> <Gold.PLP.part.buried>
-3.9752

> <Gold.PLP.part.nonpolar>
-24.1080

> <Gold.PLP.part.repulsive>
0.5581

> <Gold.PLP.ligand.clash>
0.0000

> <Gold.PLP.ligand.torsion>
0.7112

> <Gold.PLP.Chemscore.Hbond>
1.9760

> <Gold.PLP.Chemscore.CHOScore>
1.5568

> <Gold.PLP.Chemscore.Metal>
0.0000

> <Gold.Chemscore.Hbonds>
donor molecule, donor type, donor heavy atom, donor atom, acceptor molecule, acceptor atom, score
      L1  H    10    30       P1 10175  1.00
      P1  H 10162 10167       L1     5  0.88
      L1  C    22    41       P1 10171  0.54
      L1  C    22    41       P1 10175  1.00

> <Gold.PLP.Chemscore.Internal.Correction>
1.3386

> <Gold.Rescore>
     Score         DG    S(hbond)    S(metal)    S(lipo)     H(rot)  DE(clash)    DE(int)     intcor
     11.33     -13.48       1.71        0.00      61.67       1.93       0.15       2.01       ----

> <Gold.Chemscore.Fitness>
11.3256

> <Gold.Chemscore.DG>
-13.4812

> <Gold.Chemscore.ZeroCoef>
-5.4800

> <Gold.Chemscore.Hbond>
1.7111

> <Gold.Chemscore.Metal>
0.0000

> <Gold.Chemscore.Lipo>
61.6709

> <Gold.Chemscore.Internal_Hbond>
0.0000

> <Gold.Chemscore.DEClash>
0.1505

> <Gold.Chemscore.DEInternal>
2.0051

> <Gold.Chemscore.Rot>
1.9255

> <Gold.Chemscore.Internal.Correction>
   9.000000E+99

> <Gold.Chemscore.Hbonds>
donor molecule, donor type, donor heavy atom, donor atom, acceptor molecule, acceptor atom, score
      L1  H    10    30       P1 10175  1.00
      P1  H 10162 10167       L1     5  0.56

> <Gold.Chemscore.Hbond.Weighted>
-5.7149

> <Gold.Chemscore.Metal.Weighted>
-0.0000

> <Gold.Chemscore.Lipo.Weighted>
-7.2155

> <Gold.Chemscore.Internal_Hbond.Weighted>
0.0000

> <Gold.Chemscore.DEClash.Weighted>
0.1505

> <Gold.Chemscore.DEInternal.Weighted>
2.0051

> <Gold.Chemscore.Rot.Weighted>
4.9292

> <Gold.Chemscore.Internal.Correction.Weighted>
   9.000000E+99

> <Gold.Protein.RotatedTorsions>
[ 6907 6896 6895 6894 ] final  113.90 input  -60.11 | X-H torsion
[ 7974 7965 7964 7962 ] final -152.03 input  175.53 | X-H torsion
[ 8008 7997 7996 7995 ] final   29.13 input   59.86 | X-H torsion
[ 10167 10162 10161 10158 ] final -127.30 input  -65.29 | X-H torsion
[ 10718 10713 10712 10709 ] final  -11.10 input   66.30 | X-H torsion
[ 10763 10752 10751 10750 ] final -158.29 input  -60.55 | X-H torsion
[ 11005 11000 10999 10996 ] final -119.01 input  -57.11 | X-H torsion

> <Gold.Protein.ActiveResidues>
 VAL166  LYS551  ARG553  GLY616  TRP617  ASP618  TYR619  PRO620  LYS621  CYS622 
 ASP623  PHE694  ASN695  SER759  ASP760  ASP761  ALA762  ILE779  LEU786  VAL792 
 PHE793  MET794  SER795  GLU796  ALA797  LYS798  CYS799  TRP800  GLU811  SER814 

> <Gold.Protein.RotatedAtoms>
  152.4834  133.8311  159.7103 H   0  0  0  0  0  0  0  0  0  0  0  0  # atno 6907 bound_to 6896
  150.8901  133.7245  159.2914 H   0  0  0  0  0  0  0  0  0  0  0  0  # atno 6908 bound_to 6896
  151.4721  135.1050  159.9806 H   0  0  0  0  0  0  0  0  0  0  0  0  # atno 6909 bound_to 6896
  144.7817  140.4717  143.5835 H   0  0  0  0  0  0  0  0  0  0  0  0  # atno 7974 bound_to 7965
  155.0696  140.3199  155.4634 H   0  0  0  0  0  0  0  0  0  0  0  0  # atno 8008 bound_to 7997
  156.2794  140.2114  156.5769 H   0  0  0  0  0  0  0  0  0  0  0  0  # atno 8009 bound_to 7997
  154.7066  140.0502  157.0497 H   0  0  0  0  0  0  0  0  0  0  0  0  # atno 8010 bound_to 7997
  139.9623  143.5936  152.2441 H   0  0  0  0  0  0  0  0  0  0  0  0  # atno 10167 bound_to 10162
  156.6639  130.4989  149.6022 H   0  0  0  0  0  0  0  0  0  0  0  0  # atno 10718 bound_to 10713
  154.7568  135.3107  154.8454 H   0  0  0  0  0  0  0  0  0  0  0  0  # atno 10763 bound_to 10752
  153.9225  135.6794  153.4751 H   0  0  0  0  0  0  0  0  0  0  0  0  # atno 10764 bound_to 10752
  153.1166  135.4841  154.9056 H   0  0  0  0  0  0  0  0  0  0  0  0  # atno 10765 bound_to 10752
  141.0246  134.0073  157.3233 H   0  0  0  0  0  0  0  0  0  0  0  0  # atno 11005 bound_to 11000
  145.6033  139.1506  143.3116 LP  0  0  0  0  0  0  0  0  0  0  0  0  # atno 17320 bound_to 7965
  146.2028  140.6153  142.9095 LP  0  0  0  0  0  0  0  0  0  0  0  0  # atno 17321 bound_to 7965
  139.6544  144.7662  151.2084 LP  0  0  0  0  0  0  0  0  0  0  0  0  # atno 17342 bound_to 10162
  140.7549  143.6109  150.8607 LP  0  0  0  0  0  0  0  0  0  0  0  0  # atno 17343 bound_to 10162
  156.1990  130.6608  151.1146 LP  0  0  0  0  0  0  0  0  0  0  0  0  # atno 17370 bound_to 10713
  157.7100  131.0738  150.6533 LP  0  0  0  0  0  0  0  0  0  0  0  0  # atno 17371 bound_to 10713
  139.9167  135.0197  156.7910 LP  0  0  0  0  0  0  0  0  0  0  0  0  # atno 17394 bound_to 11000
  140.6514  133.9728  155.7757 LP  0  0  0  0  0  0  0  0  0  0  0  0  # atno 17395 bound_to 11000

$$$$
