AV-unprocessed.smi:2238|AV-procd|sdf|9055|dock1
  -GOLD-   2272012263D 1   1.00000     0.00000
 Structure written by MMmdl.
 38 39  0  0  0  0  0  0  0  0  1 V2000
  151.7856  144.8527  159.9258 C   0  0  0  0  0  0  0  0  0  0  0  0
  152.3585  143.4503  159.9273 C   0  0  0  0  0  0  0  0  0  0  0  0
  153.0447  142.9631  161.0569 C   0  0  0  0  0  0  0  0  0  0  0  0
  153.5759  141.6608  161.0478 C   0  0  0  0  0  0  0  0  0  0  0  0
  153.4239  140.8420  159.9118 C   0  0  0  0  0  0  0  0  0  0  0  0
  154.0864  139.2465  159.9278 Cl  0  0  0  0  0  0  0  0  0  0  0  0
  152.7384  141.3151  158.7707 C   0  0  0  0  0  0  0  0  0  0  0  0
  152.6280  140.4571  157.6960 O   0  0  0  0  0  0  0  0  0  0  0  0
  151.5842  140.6780  156.7574 C   0  0  0  0  0  0  0  0  0  0  0  0
  151.4678  139.4414  155.8488 C   0  0  1  0  0  0  0  0  0  0  0  0
  152.2569  139.6650  154.6986 O   0  0  0  0  0  0  0  0  0  0  0  0
  151.9792  138.1364  156.5026 C   0  0  0  0  0  0  0  0  0  0  0  0
  151.0544  137.5908  157.5125 N   0  0  0  0  0  0  0  0  0  0  0  0
  151.5737  137.3940  158.8082 C   0  0  0  0  0  0  0  0  0  0  0  0
  150.8481  136.9185  159.7700 N   0  0  0  0  0  0  0  0  0  0  0  0
  149.5124  136.5844  159.5276 C   0  0  0  0  0  0  0  0  0  0  0  0
  148.7059  136.0416  160.6892 C   0  0  0  0  0  0  0  0  0  0  0  0
  148.9676  136.7453  158.2998 C   0  0  0  0  0  0  0  0  0  0  0  0
  149.7654  137.2732  157.1927 C   0  0  0  0  0  0  0  0  0  0  0  0
  149.3087  137.4197  156.0588 O   0  0  0  0  0  0  0  0  0  0  0  0
  152.2071  142.6303  158.7904 C   0  0  0  0  0  0  0  0  0  0  0  0
  151.8266  145.2999  160.9195 H   0  0  0  0  0  0  0  0  0  0  0  0
  150.7439  144.8382  159.6036 H   0  0  0  0  0  0  0  0  0  0  0  0
  152.3482  145.4883  159.2415 H   0  0  0  0  0  0  0  0  0  0  0  0
  153.1667  143.5841  161.9325 H   0  0  0  0  0  0  0  0  0  0  0  0
  154.1016  141.2897  161.9154 H   0  0  0  0  0  0  0  0  0  0  0  0
  150.6332  140.8863  157.2507 H   0  0  0  0  0  0  0  0  0  0  0  0
  151.8513  141.5511  156.1622 H   0  0  0  0  0  0  0  0  0  0  0  0
  150.4325  139.3132  155.5315 H   0  0  0  0  0  0  0  0  0  0  0  0
  152.9448  139.0168  154.6785 H   0  0  0  0  0  0  0  0  0  0  0  0
  152.1297  137.3790  155.7307 H   0  0  0  0  0  0  0  0  0  0  0  0
  152.9750  138.3040  156.9184 H   0  0  0  0  0  0  0  0  0  0  0  0
  152.6197  137.6736  158.9435 H   0  0  0  0  0  0  0  0  0  0  0  0
  148.1593  135.1469  160.3897 H   0  0  0  0  0  0  0  0  0  0  0  0
  147.9861  136.7870  161.0284 H   0  0  0  0  0  0  0  0  0  0  0  0
  149.3496  135.7798  161.5298 H   0  0  0  0  0  0  0  0  0  0  0  0
  147.9332  136.4836  158.1294 H   0  0  0  0  0  0  0  0  0  0  0  0
  151.6776  143.0348  157.9411 H   0  0  0  0  0  0  0  0  0  0  0  0
  1  2  1  0  0  0  0
  1 22  1  0  0  0  0
  1 23  1  0  0  0  0
  1 24  1  0  0  0  0
  2 21  1  0  0  0  0
  2  3  2  0  0  0  0
  3  4  1  0  0  0  0
  3 25  1  0  0  0  0
  4  5  2  0  0  0  0
  4 26  1  0  0  0  0
  5  6  1  0  0  0  0
  5  7  1  0  0  0  0
  7  8  1  0  0  0  0
  7 21  2  0  0  0  0
  8  9  1  0  0  0  0
  9 10  1  0  0  0  0
  9 27  1  0  0  0  0
  9 28  1  0  0  0  0
 10 11  1  0  0  0  0
 10 12  1  0  0  0  0
 10 29  1  0  0  0  0
 11 30  1  0  0  0  0
 12 13  1  0  0  0  0
 12 31  1  0  0  0  0
 12 32  1  0  0  0  0
 13 19  1  0  0  0  0
 13 14  1  0  0  0  0
 14 15  2  0  0  0  0
 14 33  1  0  0  0  0
 15 16  1  0  0  0  0
 16 17  1  0  0  0  0
 16 18  2  0  0  0  0
 17 34  1  0  0  0  0
 17 35  1  0  0  0  0
 17 36  1  0  0  0  0
 18 19  1  0  0  0  0
 18 37  1  0  0  0  0
 19 20  2  0  0  0  0
 21 38  1  0  0  0  0
M  END
> <s_m_source_file>
AV-unprocessed.smi

> <i_m_source_file_index>
2238

> <i_lp_mmshare_version>
43012

> <i_f3d_flags>
0

> <s_epik_input>
W0NIM11jMVtjSF1bY0hdYyhDbCljKFtjSF0xKU9bQ0gyXVtDQEhdKFtPSF0pW0NIMl1uMltjSF1uYyhbQ0gzXSlbY0hdYzI9Tw==

> <s_epik_cmdline>
J2VwaWtfcHl0aG9uJywgJy1waCcsICc3LjAnLCAnLXRuJywgJzgnLCAnLW1hJywgJzIwMCcsICctbWV0YWxfYmluZGluZycsICctaW1hZScsICc8aW5maWxlLm1hZT4nLCAnLW9tYWUnLCAnPG91dGZpbGUubWFlPic=

> <r_lp_tautomer_probability>
1

> <r_epik_Ionization_Penalty>
1.78029e-05

> <r_epik_Ionization_Penalty_Charging>
3.78421e-08

> <r_epik_Ionization_Penalty_Neutral>
1.7765e-05

> <r_epik_State_Penalty>
-0

> <r_epik_Charging_Adjusted_Penalty>
3.78421e-08

> <i_epik_Tot_Q>
0

> <i_epik_Tot_abs_Q>
0

> <r_epik_Metal_State_Penalty>
-0

> <b_epik_Metal_Only>
0

> <s_lp_Force_Field>
OPLS_2005

> <r_lp_Energy>
22.1977

> <b_lp_Chiralities_Consistent>
1

> <s_lp_Variant>
AV-unprocessed.smi:2238-2

> <Gold.Version>
5.8.1

> <Gold.Id.Protein>
6NUR|6NUR_protein|mol2

> <Gold.PLP.Fitness>
45.7348

> <Gold.PLP.PLP>
-40.2396

> <Gold.PLP.part.hbond>
-3.0465

> <Gold.PLP.part.metal>
0.0000

> <Gold.PLP.part.buried>
-4.4612

> <Gold.PLP.part.nonpolar>
-32.1053

> <Gold.PLP.part.repulsive>
0.0369

> <Gold.PLP.ligand.clash>
0.0000

> <Gold.PLP.ligand.torsion>
0.9165

> <Gold.PLP.Chemscore.Hbond>
2.4168

> <Gold.PLP.Chemscore.CHOScore>
0.0000

> <Gold.PLP.Chemscore.Metal>
0.0000

> <Gold.Chemscore.Hbonds>
donor molecule, donor type, donor heavy atom, donor atom, acceptor molecule, acceptor atom, score
      P1  H  6896  6908       L1    15  0.35
      P1  H  7989  7998       L1    11  0.75
      P1  H  7997  8010       L1     8  0.83

> <Gold.PLP.Chemscore.Internal.Correction>
0.0779

> <Gold.Rescore>
     Score         DG    S(hbond)    S(metal)    S(lipo)     H(rot)  DE(clash)    DE(int)     intcor
     15.22     -16.80       1.41        0.00     110.48       2.47       0.03       1.55       ----

> <Gold.Chemscore.Fitness>
15.2163

> <Gold.Chemscore.DG>
-16.7963

> <Gold.Chemscore.ZeroCoef>
-5.4800

> <Gold.Chemscore.Hbond>
1.4127

> <Gold.Chemscore.Metal>
0.0000

> <Gold.Chemscore.Lipo>
110.4768

> <Gold.Chemscore.Internal_Hbond>
0.0000

> <Gold.Chemscore.DEClash>
0.0270

> <Gold.Chemscore.DEInternal>
1.5530

> <Gold.Chemscore.Rot>
2.4718

> <Gold.Chemscore.Internal.Correction>
   9.000000E+99

> <Gold.Chemscore.Hbonds>
donor molecule, donor type, donor heavy atom, donor atom, acceptor molecule, acceptor atom, score
      P1  H  7989  7998       L1    11  0.71
      P1  H  7997  8010       L1     8  0.55

> <Gold.Chemscore.Hbond.Weighted>
-4.7185

> <Gold.Chemscore.Metal.Weighted>
-0.0000

> <Gold.Chemscore.Lipo.Weighted>
-12.9258

> <Gold.Chemscore.Internal_Hbond.Weighted>
0.0000

> <Gold.Chemscore.DEClash.Weighted>
0.0270

> <Gold.Chemscore.DEInternal.Weighted>
1.5530

> <Gold.Chemscore.Rot.Weighted>
6.3279

> <Gold.Chemscore.Internal.Correction.Weighted>
   9.000000E+99

> <Gold.Protein.RotatedTorsions>
[ 6907 6896 6895 6894 ] final -144.95 input  -60.11 | X-H torsion
[ 7974 7965 7964 7962 ] final -145.19 input  175.53 | X-H torsion
[ 8008 7997 7996 7995 ] final   49.66 input   59.86 | X-H torsion
[ 10167 10162 10161 10158 ] final  164.68 input  -65.29 | X-H torsion
[ 10718 10713 10712 10709 ] final   72.36 input   66.30 | X-H torsion
[ 10763 10752 10751 10750 ] final -163.86 input  -60.55 | X-H torsion
[ 11005 11000 10999 10996 ] final  124.18 input  -57.11 | X-H torsion

> <Gold.Protein.ActiveResidues>
 VAL166  LYS551  ARG553  GLY616  TRP617  ASP618  TYR619  PRO620  LYS621  CYS622 
 ASP623  PHE694  ASN695  SER759  ASP760  ASP761  ALA762  ILE779  LEU786  VAL792 
 PHE793  MET794  SER795  GLU796  ALA797  LYS798  CYS799  TRP800  GLU811  SER814 

> <Gold.Protein.RotatedAtoms>
  151.1211  133.5104  159.2601 H   0  0  0  0  0  0  0  0  0  0  0  0  # atno 6907 bound_to 6896
  151.1861  135.0382  159.8823 H   0  0  0  0  0  0  0  0  0  0  0  0  # atno 6908 bound_to 6896
  152.5455  134.1057  159.8390 H   0  0  0  0  0  0  0  0  0  0  0  0  # atno 6909 bound_to 6896
  144.8245  140.5615  143.5556 H   0  0  0  0  0  0  0  0  0  0  0  0  # atno 7974 bound_to 7965
  155.4059  140.3440  155.4260 H   0  0  0  0  0  0  0  0  0  0  0  0  # atno 8008 bound_to 7997
  156.1477  140.1561  156.8852 H   0  0  0  0  0  0  0  0  0  0  0  0  # atno 8009 bound_to 7997
  154.5025  140.0811  156.7807 H   0  0  0  0  0  0  0  0  0  0  0  0  # atno 8010 bound_to 7997
  139.4893  144.4211  151.9186 H   0  0  0  0  0  0  0  0  0  0  0  0  # atno 10167 bound_to 10162
  157.6497  130.9574  150.0917 H   0  0  0  0  0  0  0  0  0  0  0  0  # atno 10718 bound_to 10713
  154.7083  135.3001  154.9236 H   0  0  0  0  0  0  0  0  0  0  0  0  # atno 10763 bound_to 10752
  154.0146  135.6690  153.4772 H   0  0  0  0  0  0  0  0  0  0  0  0  # atno 10764 bound_to 10752
  153.0735  135.5048  154.8266 H   0  0  0  0  0  0  0  0  0  0  0  0  # atno 10765 bound_to 10752
  139.9346  134.9640  156.8370 H   0  0  0  0  0  0  0  0  0  0  0  0  # atno 11005 bound_to 11000
  145.5032  139.1482  143.3646 LP  0  0  0  0  0  0  0  0  0  0  0  0  # atno 17320 bound_to 7965
  146.2550  140.5172  142.8877 LP  0  0  0  0  0  0  0  0  0  0  0  0  # atno 17321 bound_to 7965
  140.3655  144.2920  150.5927 LP  0  0  0  0  0  0  0  0  0  0  0  0  # atno 17342 bound_to 10162
  140.5365  143.2232  151.8154 LP  0  0  0  0  0  0  0  0  0  0  0  0  # atno 17343 bound_to 10162
  156.1864  130.3652  149.8967 LP  0  0  0  0  0  0  0  0  0  0  0  0  # atno 17370 bound_to 10713
  156.6906  130.8894  151.3587 LP  0  0  0  0  0  0  0  0  0  0  0  0  # atno 17371 bound_to 10713
  140.6109  134.0084  155.7576 LP  0  0  0  0  0  0  0  0  0  0  0  0  # atno 17394 bound_to 11000
  141.0954  133.9852  157.3169 LP  0  0  0  0  0  0  0  0  0  0  0  0  # atno 17395 bound_to 11000

$$$$
