AV-unprocessed.smi:365|AV-procd|sdf|2428|dock9
  -GOLD-   2262022373D 1   1.00000     0.00000
 Structure written by MMmdl.
 53 54  0  0  0  0  0  0  0  0  1 V2000
  149.3314  133.9298  154.6389 C   0  0  0  0  0  0  0  0  0  0  0  0
  148.9768  135.2780  155.2979 C   0  0  1  0  0  0  0  0  0  0  0  0
  148.2749  135.1456  156.5792 N   0  0  0  0  0  0  0  0  0  0  0  0
  148.6430  134.4610  157.6793 C   0  0  0  0  0  0  0  0  0  0  0  0
  149.7069  133.8464  157.7624 O   0  0  0  0  0  0  0  0  0  0  0  0
  147.6592  134.4986  158.8731 C   0  0  0  0  0  0  0  0  0  0  0  0
  148.1918  133.5893  160.0001 C   0  0  0  0  0  0  0  0  0  0  0  0
  146.2644  133.9882  158.4451 C   0  0  0  0  0  0  0  0  0  0  0  0
  147.5118  135.9475  159.3860 C   0  0  0  0  0  0  0  0  0  0  0  0
  150.1499  136.2666  155.3554 C   0  0  0  0  0  0  0  0  0  0  0  0
  150.8496  136.3552  156.3648 O   0  0  0  0  0  0  0  0  0  0  0  0
  150.3690  136.9901  154.2466 N   0  0  0  0  0  0  0  0  0  0  0  0
  151.4555  137.9484  154.0720 C   0  0  0  0  0  0  0  0  0  0  0  0
  151.5584  138.9784  155.1877 C   0  0  0  0  0  0  0  0  0  0  0  0
  150.6320  140.0357  155.2657 C   0  0  0  0  0  0  0  0  0  0  0  0
  150.7582  140.9857  156.2974 C   0  0  0  0  0  0  0  0  0  0  0  0
  151.8187  140.8597  157.2315 C   0  0  0  0  0  0  0  0  0  0  0  0
  152.0013  141.7759  158.2943 N   0  0  0  0  0  0  0  0  0  0  0  0
  153.0510  141.4588  159.2639 C   0  0  0  0  0  0  0  0  0  0  0  0
  152.9103  142.3294  160.5239 C   0  0  0  0  0  0  0  0  0  0  0  0
  152.8798  143.7046  160.1606 O   0  0  0  0  0  0  0  0  0  0  0  0
  151.7610  144.0018  159.3337 C   0  0  0  0  0  0  0  0  0  0  0  0
  151.8557  143.2041  158.0221 C   0  0  0  0  0  0  0  0  0  0  0  0
  152.7077  139.8398  157.1473 N   0  0  0  0  0  0  0  0  0  0  0  0
  152.5819  138.9320  156.1574 C   0  0  0  0  0  0  0  0  0  0  0  0
  149.6650  134.0778  153.6112 H   0  0  0  0  0  0  0  0  0  0  0  0
  148.4670  133.2659  154.6080 H   0  0  0  0  0  0  0  0  0  0  0  0
  150.1357  133.4133  155.1625 H   0  0  0  0  0  0  0  0  0  0  0  0
  148.2299  135.7382  154.6492 H   0  0  0  0  0  0  0  0  0  0  0  0
  147.3901  135.6286  156.6346 H   0  0  0  0  0  0  0  0  0  0  0  0
  147.5000  133.5602  160.8425 H   0  0  0  0  0  0  0  0  0  0  0  0
  149.1517  133.9366  160.3847 H   0  0  0  0  0  0  0  0  0  0  0  0
  148.3279  132.5631  159.6550 H   0  0  0  0  0  0  0  0  0  0  0  0
  146.3003  132.9530  158.1022 H   0  0  0  0  0  0  0  0  0  0  0  0
  145.8444  134.5908  157.6383 H   0  0  0  0  0  0  0  0  0  0  0  0
  145.5590  134.0261  159.2759 H   0  0  0  0  0  0  0  0  0  0  0  0
  146.7781  136.0064  160.1907 H   0  0  0  0  0  0  0  0  0  0  0  0
  147.1795  136.6196  158.5937 H   0  0  0  0  0  0  0  0  0  0  0  0
  148.4496  136.3402  159.7812 H   0  0  0  0  0  0  0  0  0  0  0  0
  149.7495  136.8539  153.4610 H   0  0  0  0  0  0  0  0  0  0  0  0
  152.3926  137.3927  154.0358 H   0  0  0  0  0  0  0  0  0  0  0  0
  151.3604  138.4521  153.1082 H   0  0  0  0  0  0  0  0  0  0  0  0
  149.8331  140.1227  154.5440 H   0  0  0  0  0  0  0  0  0  0  0  0
  150.0442  141.7936  156.3399 H   0  0  0  0  0  0  0  0  0  0  0  0
  153.0214  140.4115  159.5642 H   0  0  0  0  0  0  0  0  0  0  0  0
  154.0220  141.6301  158.7974 H   0  0  0  0  0  0  0  0  0  0  0  0
  152.0074  142.0674  161.0780 H   0  0  0  0  0  0  0  0  0  0  0  0
  153.7538  142.1588  161.1929 H   0  0  0  0  0  0  0  0  0  0  0  0
  150.8335  143.7740  159.8617 H   0  0  0  0  0  0  0  0  0  0  0  0
  151.7507  145.0710  159.1221 H   0  0  0  0  0  0  0  0  0  0  0  0
  152.7081  143.5470  157.4343 H   0  0  0  0  0  0  0  0  0  0  0  0
  150.9538  143.3909  157.4390 H   0  0  0  0  0  0  0  0  0  0  0  0
  153.3289  138.1519  156.1416 H   0  0  0  0  0  0  0  0  0  0  0  0
  1  2  1  0  0  0  0
  1 26  1  0  0  0  0
  1 27  1  0  0  0  0
  1 28  1  0  0  0  0
  2  3  1  0  0  0  0
  2 10  1  0  0  0  0
  2 29  1  0  0  0  0
  3  4  1  0  0  0  0
  3 30  1  0  0  0  0
  4  5  2  0  0  0  0
  4  6  1  0  0  0  0
  6  7  1  0  0  0  0
  6  8  1  0  0  0  0
  6  9  1  0  0  0  0
  7 31  1  0  0  0  0
  7 32  1  0  0  0  0
  7 33  1  0  0  0  0
  8 34  1  0  0  0  0
  8 35  1  0  0  0  0
  8 36  1  0  0  0  0
  9 37  1  0  0  0  0
  9 38  1  0  0  0  0
  9 39  1  0  0  0  0
 10 11  2  0  0  0  0
 10 12  1  0  0  0  0
 12 13  1  0  0  0  0
 12 40  1  0  0  0  0
 13 14  1  0  0  0  0
 13 41  1  0  0  0  0
 13 42  1  0  0  0  0
 14 25  1  0  0  0  0
 14 15  2  0  0  0  0
 15 16  1  0  0  0  0
 15 43  1  0  0  0  0
 16 17  2  0  0  0  0
 16 44  1  0  0  0  0
 17 18  1  0  0  0  0
 17 24  1  0  0  0  0
 18 23  1  0  0  0  0
 18 19  1  0  0  0  0
 19 20  1  0  0  0  0
 19 45  1  0  0  0  0
 19 46  1  0  0  0  0
 20 21  1  0  0  0  0
 20 47  1  0  0  0  0
 20 48  1  0  0  0  0
 21 22  1  0  0  0  0
 22 23  1  0  0  0  0
 22 49  1  0  0  0  0
 22 50  1  0  0  0  0
 23 51  1  0  0  0  0
 23 52  1  0  0  0  0
 24 25  2  0  0  0  0
 25 53  1  0  0  0  0
M  END
> <s_m_source_file>
AV-unprocessed.smi

> <i_m_source_file_index>
365

> <i_lp_mmshare_version>
43012

> <i_f3d_flags>
0

> <s_epik_input>
W0NIM11DKFtDSDNdKShbQ0gzXSlDKD1PKVtOSF1bQ0BASF0oW0NIM10pQyg9TylbTkhdW0NIMl1jMVtjSF1bY0hdYyhuW2NIXTEpTjJbQ0gyXVtDSDJdT1tDSDJdW0NIMl0y

> <s_epik_cmdline>
J2VwaWtfcHl0aG9uJywgJy1waCcsICc3LjAnLCAnLXRuJywgJzgnLCAnLW1hJywgJzIwMCcsICctbWV0YWxfYmluZGluZycsICctaW1hZScsICc8aW5maWxlLm1hZT4nLCAnLW9tYWUnLCAnPG91dGZpbGUubWFlPic=

> <r_lp_tautomer_probability>
1

> <r_epik_Ionization_Penalty>
0.00484327

> <r_epik_Ionization_Penalty_Charging>
0

> <r_epik_Ionization_Penalty_Neutral>
0.00484327

> <r_epik_State_Penalty>
0.0035131

> <r_epik_Charging_Adjusted_Penalty>
0.0035131

> <i_epik_Tot_Q>
0

> <i_epik_Tot_abs_Q>
0

> <r_epik_Metal_State_Penalty>
-0

> <b_epik_Metal_Only>
0

> <s_lp_Force_Field>
OPLS_2005

> <r_lp_Energy>
26.0036

> <b_lp_Chiralities_Consistent>
1

> <s_lp_Variant>
AV-unprocessed.smi:365-2

> <Gold.Version>
5.8.1

> <Gold.Id.Protein>
6NUR|6NUR_protein|mol2

> <Gold.PLP.Fitness>
46.3356

> <Gold.PLP.PLP>
-40.1847

> <Gold.PLP.part.hbond>
-3.8742

> <Gold.PLP.part.metal>
0.0000

> <Gold.PLP.part.buried>
-3.8790

> <Gold.PLP.part.nonpolar>
-32.2476

> <Gold.PLP.part.repulsive>
0.0759

> <Gold.PLP.ligand.clash>
0.0000

> <Gold.PLP.ligand.torsion>
1.3167

> <Gold.PLP.Chemscore.Hbond>
2.6720

> <Gold.PLP.Chemscore.CHOScore>
0.0000

> <Gold.PLP.Chemscore.Metal>
0.0000

> <Gold.Chemscore.Hbonds>
donor molecule, donor type, donor heavy atom, donor atom, acceptor molecule, acceptor atom, score
      L1  H    12    40       P1  7948  1.00
      P1  H  6896  6908       L1     5  1.00
      P1  H  7997  8010       L1    24  0.68

> <Gold.PLP.Chemscore.Internal.Correction>
0.7684

> <Gold.Rescore>
     Score         DG    S(hbond)    S(metal)    S(lipo)     H(rot)  DE(clash)    DE(int)     intcor
     15.97     -19.74       2.36        0.00      99.20       2.04       0.35       3.42       ----

> <Gold.Chemscore.Fitness>
15.9701

> <Gold.Chemscore.DG>
-19.7399

> <Gold.Chemscore.ZeroCoef>
-5.4800

> <Gold.Chemscore.Hbond>
2.3554

> <Gold.Chemscore.Metal>
0.0000

> <Gold.Chemscore.Lipo>
99.2023

> <Gold.Chemscore.Internal_Hbond>
0.0000

> <Gold.Chemscore.DEClash>
0.3538

> <Gold.Chemscore.DEInternal>
3.4160

> <Gold.Chemscore.Rot>
2.0367

> <Gold.Chemscore.Internal.Correction>
   9.000000E+99

> <Gold.Chemscore.Hbonds>
donor molecule, donor type, donor heavy atom, donor atom, acceptor molecule, acceptor atom, score
      L1  H    12    40       P1  7948  0.50
      P1  H  6896  6908       L1     5  0.99
      P1  H  7997  8010       L1    24  0.07

> <Gold.Chemscore.Hbond.Weighted>
-7.8672

> <Gold.Chemscore.Metal.Weighted>
-0.0000

> <Gold.Chemscore.Lipo.Weighted>
-11.6067

> <Gold.Chemscore.Internal_Hbond.Weighted>
0.0000

> <Gold.Chemscore.DEClash.Weighted>
0.3538

> <Gold.Chemscore.DEInternal.Weighted>
3.4160

> <Gold.Chemscore.Rot.Weighted>
5.2140

> <Gold.Chemscore.Internal.Correction.Weighted>
   9.000000E+99

> <Gold.Protein.RotatedTorsions>
[ 6907 6896 6895 6894 ] final  125.81 input  -60.11 | X-H torsion
[ 7974 7965 7964 7962 ] final  -96.59 input  175.53 | X-H torsion
[ 8008 7997 7996 7995 ] final   41.11 input   59.86 | X-H torsion
[ 10167 10162 10161 10158 ] final   39.87 input  -65.29 | X-H torsion
[ 10718 10713 10712 10709 ] final -102.13 input   66.30 | X-H torsion
[ 10763 10752 10751 10750 ] final -173.17 input  -60.55 | X-H torsion
[ 11005 11000 10999 10996 ] final   61.13 input  -57.11 | X-H torsion

> <Gold.Protein.ActiveResidues>
 VAL166  LYS551  ARG553  GLY616  TRP617  ASP618  TYR619  PRO620  LYS621  CYS622 
 ASP623  PHE694  ASN695  SER759  ASP760  ASP761  ALA762  ILE779  LEU786  VAL792 
 PHE793  MET794  SER795  GLU796  ALA797  LYS798  CYS799  TRP800  GLU811  SER814 

> <Gold.Protein.RotatedAtoms>
  152.3959  133.6746  159.6275 H   0  0  0  0  0  0  0  0  0  0  0  0  # atno 6907 bound_to 6896
  150.7858  133.8875  159.3312 H   0  0  0  0  0  0  0  0  0  0  0  0  # atno 6908 bound_to 6896
  151.6652  135.0985  160.0238 H   0  0  0  0  0  0  0  0  0  0  0  0  # atno 6909 bound_to 6896
  145.3448  140.9466  143.2587 H   0  0  0  0  0  0  0  0  0  0  0  0  # atno 7974 bound_to 7965
  155.2643  140.3361  155.4270 H   0  0  0  0  0  0  0  0  0  0  0  0  # atno 8008 bound_to 7997
  156.2161  140.1789  156.7628 H   0  0  0  0  0  0  0  0  0  0  0  0  # atno 8009 bound_to 7997
  154.5755  140.0662  156.9013 H   0  0  0  0  0  0  0  0  0  0  0  0  # atno 8010 bound_to 7997
  140.3797  144.1996  150.6131 H   0  0  0  0  0  0  0  0  0  0  0  0  # atno 10167 bound_to 10162
  156.0218  130.5405  150.7063 H   0  0  0  0  0  0  0  0  0  0  0  0  # atno 10718 bound_to 10713
  154.6110  135.2864  155.0432 H   0  0  0  0  0  0  0  0  0  0  0  0  # atno 10763 bound_to 10752
  154.1662  135.6480  153.5002 H   0  0  0  0  0  0  0  0  0  0  0  0  # atno 10764 bound_to 10752
  153.0195  135.5390  154.6863 H   0  0  0  0  0  0  0  0  0  0  0  0  # atno 10765 bound_to 10752
  140.0182  134.6192  155.9678 H   0  0  0  0  0  0  0  0  0  0  0  0  # atno 11005 bound_to 11000
  144.8762  139.4967  143.6744 LP  0  0  0  0  0  0  0  0  0  0  0  0  # atno 17320 bound_to 7965
  146.2992  139.7374  142.9103 LP  0  0  0  0  0  0  0  0  0  0  0  0  # atno 17321 bound_to 7965
  140.4950  143.2335  151.8763 LP  0  0  0  0  0  0  0  0  0  0  0  0  # atno 17342 bound_to 10162
  139.4796  144.5124  151.8915 LP  0  0  0  0  0  0  0  0  0  0  0  0  # atno 17343 bound_to 10162
  157.4712  131.0893  151.0641 LP  0  0  0  0  0  0  0  0  0  0  0  0  # atno 17370 bound_to 10713
  157.1100  130.6018  149.5480 LP  0  0  0  0  0  0  0  0  0  0  0  0  # atno 17371 bound_to 10713
  141.1757  133.6540  156.4819 LP  0  0  0  0  0  0  0  0  0  0  0  0  # atno 17394 bound_to 11000
  140.4433  134.6996  157.5003 LP  0  0  0  0  0  0  0  0  0  0  0  0  # atno 17395 bound_to 11000

$$$$
