AV-unprocessed.smi:1669|AV-procd|sdf|6683|dock1
  -GOLD-   22720 7403D 1   1.00000     0.00000
 Structure written by MMmdl.
 48 50  0  0  0  0  0  0  0  0  2 V2000
  148.6123  141.7030  157.1769 C   0  0  0  0  0  0  0  0  0  0  0  0
  149.4656  142.0214  156.0084 N   0  3  1  0  0  0  0  0  0  0  0  0
  150.9032  141.7340  156.2522 C   0  0  0  0  0  0  0  0  0  0  0  0
  151.4295  142.4697  157.4708 C   0  0  0  0  0  0  0  0  0  0  0  0
  151.8800  141.7412  158.5918 C   0  0  0  0  0  0  0  0  0  0  0  0
  152.3734  142.4185  159.7239 C   0  0  0  0  0  0  0  0  0  0  0  0
  152.4158  143.8261  159.7402 C   0  0  0  0  0  0  0  0  0  0  0  0
  151.9634  144.5567  158.6243 C   0  0  0  0  0  0  0  0  0  0  0  0
  151.4701  143.8802  157.4918 C   0  0  0  0  0  0  0  0  0  0  0  0
  148.9593  141.3975  154.7603 C   0  0  0  0  0  0  0  0  0  0  0  0
  149.6261  140.0308  154.4885 C   0  0  2  0  0  0  0  0  0  0  0  0
  149.0499  139.4656  153.3287 O   0  0  0  0  0  0  0  0  0  0  0  0
  149.4690  139.0200  155.6417 C   0  0  0  0  0  0  0  0  0  0  0  0
  150.1808  137.7740  155.3882 N   0  0  0  0  0  0  0  0  0  0  0  0
  151.5085  137.5148  155.5079 C   0  0  0  0  0  0  0  0  0  0  0  0
  152.4931  138.5498  155.9583 C   0  0  0  0  0  0  0  0  0  0  0  0
  153.3637  138.9591  154.9256 O   0  0  0  0  0  0  0  0  0  0  0  0
  151.8878  136.2766  155.1909 N   0  0  0  0  0  0  0  0  0  0  0  0
  150.6958  135.6708  154.8460 C   0  0  0  0  0  0  0  0  0  0  0  0
  150.4264  134.3526  154.4141 C   0  0  0  0  0  0  0  0  0  0  0  0
  149.1069  133.9562  154.1128 C   0  0  0  0  0  0  0  0  0  0  0  0
  148.0402  134.8692  154.2407 C   0  0  0  0  0  0  0  0  0  0  0  0
  148.2869  136.1873  154.6695 C   0  0  0  0  0  0  0  0  0  0  0  0
  149.6064  136.5793  154.9648 C   0  0  0  0  0  0  0  0  0  0  0  0
  148.6362  140.6353  157.3989 H   0  0  0  0  0  0  0  0  0  0  0  0
  147.5773  141.9900  156.9885 H   0  0  0  0  0  0  0  0  0  0  0  0
  148.9382  142.2449  158.0647 H   0  0  0  0  0  0  0  0  0  0  0  0
  151.0564  140.6588  156.3597 H   0  0  0  0  0  0  0  0  0  0  0  0
  151.5085  142.0392  155.3986 H   0  0  0  0  0  0  0  0  0  0  0  0
  151.8506  140.6612  158.5854 H   0  0  0  0  0  0  0  0  0  0  0  0
  152.7197  141.8583  160.5798 H   0  0  0  0  0  0  0  0  0  0  0  0
  152.7942  144.3452  160.6086 H   0  0  0  0  0  0  0  0  0  0  0  0
  151.9951  145.6363  158.6370 H   0  0  0  0  0  0  0  0  0  0  0  0
  151.1263  144.4480  156.6396 H   0  0  0  0  0  0  0  0  0  0  0  0
  147.8754  141.3061  154.8398 H   0  0  0  0  0  0  0  0  0  0  0  0
  149.1422  142.0495  153.9046 H   0  0  0  0  0  0  0  0  0  0  0  0
  150.6889  140.1633  154.2904 H   0  0  0  0  0  0  0  0  0  0  0  0
  149.4409  139.8677  152.5676 H   0  0  0  0  0  0  0  0  0  0  0  0
  149.8100  139.4573  156.5793 H   0  0  0  0  0  0  0  0  0  0  0  0
  148.4148  138.7793  155.7866 H   0  0  0  0  0  0  0  0  0  0  0  0
  151.9549  139.4244  156.3258 H   0  0  0  0  0  0  0  0  0  0  0  0
  153.0748  138.1655  156.7961 H   0  0  0  0  0  0  0  0  0  0  0  0
  153.9692  138.2562  154.7456 H   0  0  0  0  0  0  0  0  0  0  0  0
  151.2357  133.6444  154.3152 H   0  0  0  0  0  0  0  0  0  0  0  0
  148.9121  132.9458  153.7840 H   0  0  0  0  0  0  0  0  0  0  0  0
  147.0321  134.5560  154.0109 H   0  0  0  0  0  0  0  0  0  0  0  0
  147.4704  136.8868  154.7715 H   0  0  0  0  0  0  0  0  0  0  0  0
  149.3873  143.0188  155.8662 H   0  0  0  0  0  0  0  0  0  0  0  0
  1  2  1  0  0  0  0
  1 25  1  0  0  0  0
  1 26  1  0  0  0  0
  1 27  1  0  0  0  0
  2  3  1  0  0  0  0
  2 10  1  0  0  0  0
  2 48  1  0  0  0  0
  3  4  1  0  0  0  0
  3 28  1  0  0  0  0
  3 29  1  0  0  0  0
  4  9  1  0  0  0  0
  4  5  2  0  0  0  0
  5  6  1  0  0  0  0
  5 30  1  0  0  0  0
  6  7  2  0  0  0  0
  6 31  1  0  0  0  0
  7  8  1  0  0  0  0
  7 32  1  0  0  0  0
  8  9  2  0  0  0  0
  8 33  1  0  0  0  0
  9 34  1  0  0  0  0
 10 11  1  0  0  0  0
 10 35  1  0  0  0  0
 10 36  1  0  0  0  0
 11 12  1  0  0  0  0
 11 13  1  0  0  0  0
 11 37  1  0  0  0  0
 12 38  1  0  0  0  0
 13 14  1  0  0  0  0
 13 39  1  0  0  0  0
 13 40  1  0  0  0  0
 14 24  1  0  0  0  0
 14 15  1  0  0  0  0
 15 16  1  0  0  0  0
 15 18  2  0  0  0  0
 16 17  1  0  0  0  0
 16 41  1  0  0  0  0
 16 42  1  0  0  0  0
 17 43  1  0  0  0  0
 18 19  1  0  0  0  0
 19 24  2  0  0  0  0
 19 20  1  0  0  0  0
 20 21  2  0  0  0  0
 20 44  1  0  0  0  0
 21 22  1  0  0  0  0
 21 45  1  0  0  0  0
 22 23  2  0  0  0  0
 22 46  1  0  0  0  0
 23 24  1  0  0  0  0
 23 47  1  0  0  0  0
M  CHG  1   2   1
M  END
> <s_m_source_file>
AV-unprocessed.smi

> <i_m_source_file_index>
1669

> <i_lp_mmshare_version>
43012

> <i_f3d_flags>
0

> <s_epik_input>
W2NIXTFbY0hdW2NIXVtjSF1bY0hdYzFbQ0gyXU4oW0NIM10pW0NIMl1bQ0BIXShbT0hdKVtDSDJdbihjKG4yKVtDSDJdW09IXSljKGMyMylbY0hdW2NIXVtjSF1bY0hdMw==

> <s_epik_cmdline>
J2VwaWtfcHl0aG9uJywgJy1waCcsICc3LjAnLCAnLXRuJywgJzgnLCAnLW1hJywgJzIwMCcsICctbWV0YWxfYmluZGluZycsICctaW1hZScsICc8aW5maWxlLm1hZT4nLCAnLW9tYWUnLCAnPG91dGZpbGUubWFlPic=

> <r_epik_Ionization_Penalty>
0.0949884

> <r_epik_Ionization_Penalty_Charging>
0.0475377

> <r_epik_Ionization_Penalty_Neutral>
0.0474507

> <r_epik_State_Penalty>
0.078247

> <r_epik_Charging_Adjusted_Penalty>
0.125785

> <i_epik_Tot_Q>
1

> <i_epik_Tot_abs_Q>
1

> <r_epik_Metal_State_Penalty>
0.0403451

> <b_epik_Metal_Only>
0

> <s_lp_Force_Field>
OPLS_2005

> <r_lp_Energy>
16.111

> <b_lp_Chiralities_Consistent>
1

> <s_lp_Variant>
AV-unprocessed.smi:1669-1

> <Gold.Version>
5.8.1

> <Gold.Id.Protein>
6NUR|6NUR_protein|mol2

> <Gold.PLP.Fitness>
60.8932

> <Gold.PLP.PLP>
-46.3183

> <Gold.PLP.part.hbond>
-3.8015

> <Gold.PLP.part.metal>
0.0000

> <Gold.PLP.part.buried>
-6.4265

> <Gold.PLP.part.nonpolar>
-35.4883

> <Gold.PLP.part.repulsive>
0.1570

> <Gold.PLP.ligand.clash>
0.0000

> <Gold.PLP.ligand.torsion>
0.7256

> <Gold.PLP.Chemscore.Hbond>
4.9920

> <Gold.PLP.Chemscore.CHOScore>
0.0000

> <Gold.PLP.Chemscore.Metal>
0.0000

> <Gold.Chemscore.Hbonds>
donor molecule, donor type, donor heavy atom, donor atom, acceptor molecule, acceptor atom, score
      L1  H     2    48       P1  8028  2.00
      L1  H    12    38       P1  7957  0.75
      P1  H  7997  8009       L1    17  0.80
      P1  H 10752 10763       L1    18  0.77

> <Gold.PLP.Chemscore.Internal.Correction>
1.0500

> <Gold.Rescore>
     Score         DG    S(hbond)    S(metal)    S(lipo)     H(rot)  DE(clash)    DE(int)     intcor
     23.05     -24.23       3.65        0.00     125.42       3.17       0.08       1.09       ----

> <Gold.Chemscore.Fitness>
23.0529

> <Gold.Chemscore.DG>
-24.2262

> <Gold.Chemscore.ZeroCoef>
-5.4800

> <Gold.Chemscore.Hbond>
3.6514

> <Gold.Chemscore.Metal>
0.0000

> <Gold.Chemscore.Lipo>
125.4152

> <Gold.Chemscore.Internal_Hbond>
0.0000

> <Gold.Chemscore.DEClash>
0.0847

> <Gold.Chemscore.DEInternal>
1.0886

> <Gold.Chemscore.Rot>
3.1731

> <Gold.Chemscore.Internal.Correction>
   9.000000E+99

> <Gold.Chemscore.Hbonds>
donor molecule, donor type, donor heavy atom, donor atom, acceptor molecule, acceptor atom, score
      L1  H     2    48       P1  8028  1.00
      L1  H    12    38       P1  7957  0.71
      P1  H  7997  8009       L1    17  0.04
      P1  H 10752 10763       L1    18  0.70

> <Gold.Chemscore.Hbond.Weighted>
-12.1956

> <Gold.Chemscore.Metal.Weighted>
-0.0000

> <Gold.Chemscore.Lipo.Weighted>
-14.6736

> <Gold.Chemscore.Internal_Hbond.Weighted>
0.0000

> <Gold.Chemscore.DEClash.Weighted>
0.0847

> <Gold.Chemscore.DEInternal.Weighted>
1.0886

> <Gold.Chemscore.Rot.Weighted>
8.1230

> <Gold.Chemscore.Internal.Correction.Weighted>
   9.000000E+99

> <Gold.Protein.RotatedTorsions>
[ 6907 6896 6895 6894 ] final -125.26 input  -60.11 | X-H torsion
[ 7974 7965 7964 7962 ] final  117.42 input  175.53 | X-H torsion
[ 8008 7997 7996 7995 ] final -143.87 input   59.86 | X-H torsion
[ 10167 10162 10161 10158 ] final  156.23 input  -65.29 | X-H torsion
[ 10718 10713 10712 10709 ] final -154.52 input   66.30 | X-H torsion
[ 10763 10752 10751 10750 ] final   89.86 input  -60.55 | X-H torsion
[ 11005 11000 10999 10996 ] final   65.76 input  -57.11 | X-H torsion

> <Gold.Protein.ActiveResidues>
 VAL166  LYS551  ARG553  GLY616  TRP617  ASP618  TYR619  PRO620  LYS621  CYS622 
 ASP623  PHE694  ASN695  SER759  ASP760  ASP761  ALA762  ILE779  LEU786  VAL792 
 PHE793  MET794  SER795  GLU796  ALA797  LYS798  CYS799  TRP800  GLU811  SER814 

> <Gold.Protein.RotatedAtoms>
  150.8850  133.7320  159.2920 H   0  0  0  0  0  0  0  0  0  0  0  0  # atno 6907 bound_to 6896
  151.4889  135.1055  159.9807 H   0  0  0  0  0  0  0  0  0  0  0  0  # atno 6908 bound_to 6896
  152.4784  133.8148  159.7078 H   0  0  0  0  0  0  0  0  0  0  0  0  # atno 6909 bound_to 6896
  145.1676  139.3119  143.4484 H   0  0  0  0  0  0  0  0  0  0  0  0  # atno 7974 bound_to 7965
  155.5176  140.0588  157.2912 H   0  0  0  0  0  0  0  0  0  0  0  0  # atno 8008 bound_to 7997
  154.4529  140.1958  156.0412 H   0  0  0  0  0  0  0  0  0  0  0  0  # atno 8009 bound_to 7997
  156.0741  140.3256  155.7616 H   0  0  0  0  0  0  0  0  0  0  0  0  # atno 8010 bound_to 7997
  139.4821  144.5028  151.8143 H   0  0  0  0  0  0  0  0  0  0  0  0  # atno 10167 bound_to 10162
  156.5003  130.8388  151.2606 H   0  0  0  0  0  0  0  0  0  0  0  0  # atno 10718 bound_to 10713
  153.1914  135.4455  155.0154 H   0  0  0  0  0  0  0  0  0  0  0  0  # atno 10763 bound_to 10752
  154.8093  135.3287  154.7351 H   0  0  0  0  0  0  0  0  0  0  0  0  # atno 10764 bound_to 10752
  153.7805  135.6978  153.4944 H   0  0  0  0  0  0  0  0  0  0  0  0  # atno 10765 bound_to 10752
  139.9874  134.6646  156.0151 H   0  0  0  0  0  0  0  0  0  0  0  0  # atno 11005 bound_to 11000
  146.3473  140.1810  142.8589 LP  0  0  0  0  0  0  0  0  0  0  0  0  # atno 17320 bound_to 7965
  145.0266  140.8837  143.5135 LP  0  0  0  0  0  0  0  0  0  0  0  0  # atno 17321 bound_to 7965
  140.4523  144.1838  150.5898 LP  0  0  0  0  0  0  0  0  0  0  0  0  # atno 17342 bound_to 10162
  140.4572  143.2463  151.9268 LP  0  0  0  0  0  0  0  0  0  0  0  0  # atno 17343 bound_to 10162
  157.7463  130.9984  150.2850 LP  0  0  0  0  0  0  0  0  0  0  0  0  # atno 17370 bound_to 10713
  156.3339  130.3804  149.7467 LP  0  0  0  0  0  0  0  0  0  0  0  0  # atno 17371 bound_to 10713
  141.1536  133.6545  156.4092 LP  0  0  0  0  0  0  0  0  0  0  0  0  # atno 17394 bound_to 11000
  140.4975  134.6517  157.5235 LP  0  0  0  0  0  0  0  0  0  0  0  0  # atno 17395 bound_to 11000

$$$$
