AV-unprocessed.smi:37|AV-procd|sdf|332|dock10
  -GOLD-   2262016163D 1   1.00000     0.00000
 Structure written by MMmdl.
 43 44  0  0  0  0  0  0  0  0  2 V2000
  147.0716  133.5938  162.1336 C   0  0  0  0  0  0  0  0  0  0  0  0
  147.4231  135.0430  162.5008 C   0  0  0  0  0  0  0  0  0  0  0  0
  147.4724  135.9862  161.2968 C   0  0  0  0  0  0  0  0  0  0  0  0
  147.6830  137.1950  161.4109 O   0  0  0  0  0  0  0  0  0  0  0  0
  147.2629  135.3347  160.1444 O   0  0  0  0  0  0  0  0  0  0  0  0
  147.3379  136.0335  158.9123 C   0  0  0  0  0  0  0  0  0  0  0  0
  148.8040  136.1114  158.4696 C   0  0  1  0  0  0  0  0  0  0  0  0
  149.2870  134.8314  158.0608 O   0  0  0  0  0  0  0  0  0  0  0  0
  150.1113  134.9522  156.9341 C   0  0  1  0  0  0  0  0  0  0  0  0
  149.4358  134.3120  155.7368 N   0  0  0  0  0  0  0  0  0  0  0  0
  148.2713  134.8327  155.1958 C   0  0  0  0  0  0  0  0  0  0  0  0
  147.6764  134.2589  154.1301 C   0  0  0  0  0  0  0  0  0  0  0  0
  146.5474  134.7886  153.6283 F   0  0  0  0  0  0  0  0  0  0  0  0
  148.2646  133.0635  153.5292 C   0  0  0  0  0  0  0  0  0  0  0  0
  147.7157  132.5422  152.5596 O   0  0  0  0  0  0  0  0  0  0  0  0
  149.4131  132.5735  154.0792 N   0  5  0  0  0  0  0  0  0  0  0  0
  150.0206  133.1527  155.1558 C   0  0  0  0  0  0  0  0  0  0  0  0
  151.0624  132.7229  155.6513 O   0  0  0  0  0  0  0  0  0  0  0  0
  150.3183  136.4497  156.6849 C   0  0  2  0  0  0  0  0  0  0  0  0
  151.9238  137.0624  157.7009 Br  0  0  0  0  0  0  0  0  0  0  0  0
  149.0453  137.0330  157.2748 C   0  0  2  0  0  0  0  0  0  0  0  0
  149.1956  138.3881  157.6761 O   0  0  0  0  0  0  0  0  0  0  0  0
  149.4040  139.3474  156.7584 C   0  0  0  0  0  0  0  0  0  0  0  0
  149.0133  139.3291  155.5913 O   0  0  0  0  0  0  0  0  0  0  0  0
  150.2017  140.5252  157.3124 C   0  0  0  0  0  0  0  0  0  0  0  0
  151.5828  140.0975  157.8267 C   0  0  0  0  0  0  0  0  0  0  0  0
  147.0444  132.9687  163.0263 H   0  0  0  0  0  0  0  0  0  0  0  0
  147.8088  133.1653  161.4536 H   0  0  0  0  0  0  0  0  0  0  0  0
  146.0928  133.5297  161.6570 H   0  0  0  0  0  0  0  0  0  0  0  0
  146.6914  135.4283  163.2114 H   0  0  0  0  0  0  0  0  0  0  0  0
  148.3916  135.0701  163.0009 H   0  0  0  0  0  0  0  0  0  0  0  0
  146.7498  135.4995  158.1649 H   0  0  0  0  0  0  0  0  0  0  0  0
  146.9144  137.0337  159.0120 H   0  0  0  0  0  0  0  0  0  0  0  0
  149.4268  136.4233  159.3099 H   0  0  0  0  0  0  0  0  0  0  0  0
  151.0343  134.3889  157.0805 H   0  0  0  0  0  0  0  0  0  0  0  0
  147.8175  135.7136  155.6209 H   0  0  0  0  0  0  0  0  0  0  0  0
  150.4683  136.6876  155.6314 H   0  0  0  0  0  0  0  0  0  0  0  0
  148.2230  136.9141  156.5671 H   0  0  0  0  0  0  0  0  0  0  0  0
  150.3133  141.2751  156.5290 H   0  0  0  0  0  0  0  0  0  0  0  0
  149.6304  140.9899  158.1163 H   0  0  0  0  0  0  0  0  0  0  0  0
  152.1454  140.9621  158.1790 H   0  0  0  0  0  0  0  0  0  0  0  0
  152.1687  139.6196  157.0409 H   0  0  0  0  0  0  0  0  0  0  0  0
  151.5008  139.3971  158.6585 H   0  0  0  0  0  0  0  0  0  0  0  0
  1  2  1  0  0  0  0
  1 27  1  0  0  0  0
  1 28  1  0  0  0  0
  1 29  1  0  0  0  0
  2  3  1  0  0  0  0
  2 30  1  0  0  0  0
  2 31  1  0  0  0  0
  3  4  2  0  0  0  0
  3  5  1  0  0  0  0
  5  6  1  0  0  0  0
  6  7  1  0  0  0  0
  6 32  1  0  0  0  0
  6 33  1  0  0  0  0
  7 21  1  0  0  0  0
  7  8  1  0  0  0  0
  7 34  1  0  0  0  0
  8  9  1  0  0  0  0
  9 10  1  0  0  0  0
  9 19  1  0  0  0  0
  9 35  1  0  0  0  0
 10 17  1  0  0  0  0
 10 11  1  0  0  0  0
 11 12  2  0  0  0  0
 11 36  1  0  0  0  0
 12 13  1  0  0  0  0
 12 14  1  0  0  0  0
 14 15  2  0  0  0  0
 14 16  1  0  0  0  0
 16 17  1  0  0  0  0
 17 18  2  0  0  0  0
 19 20  1  0  0  0  0
 19 21  1  0  0  0  0
 19 37  1  0  0  0  0
 21 22  1  0  0  0  0
 21 38  1  0  0  0  0
 22 23  1  0  0  0  0
 23 24  2  0  0  0  0
 23 25  1  0  0  0  0
 25 26  1  0  0  0  0
 25 39  1  0  0  0  0
 25 40  1  0  0  0  0
 26 41  1  0  0  0  0
 26 42  1  0  0  0  0
 26 43  1  0  0  0  0
M  CHG  1  16  -1
M  END
> <s_m_source_file>
AV-unprocessed.smi

> <i_m_source_file_index>
37

> <i_lp_mmshare_version>
43012

> <i_f3d_flags>
0

> <s_epik_input>
W0NIM11bQ0gyXUMoPU8pT1tDSDJdW0NAQEhdMU9bQ0BASF0objJbY0hdYyhGKWMoPU8pW25IXWMyPU8pW0NAQEhdKEJyKVtDQEhdMU9DKD1PKVtDSDJdW0NIM10=

> <s_epik_cmdline>
J2VwaWtfcHl0aG9uJywgJy1waCcsICc3LjAnLCAnLXRuJywgJzgnLCAnLW1hJywgJzIwMCcsICctbWV0YWxfYmluZGluZycsICctaW1hZScsICc8aW5maWxlLm1hZT4nLCAnLW9tYWUnLCAnPG91dGZpbGUubWFlPic=

> <r_epik_Ionization_Penalty>
1.08158

> <r_epik_Ionization_Penalty_Charging>
9.05154e-09

> <r_epik_Ionization_Penalty_Neutral>
1.08158

> <r_epik_State_Penalty>
1.13706

> <r_epik_Charging_Adjusted_Penalty>
1.13706

> <i_epik_Tot_Q>
-1

> <i_epik_Tot_abs_Q>
1

> <r_epik_Metal_State_Penalty>
0.00343535

> <b_epik_Metal_Only>
0

> <s_epik_Chemistry_Notes>
This compound has an ester and may undergo hydrolysis at high or low pH. This compound contains an acetal/aminal-like group ( X-CH(R)-Y where X, Y are N, S, or O) that may be acid/base labile, releasing an aldehyde.

> <s_lp_Force_Field>
OPLS_2005

> <r_lp_Energy>
34.595

> <b_lp_Chiralities_Consistent>
1

> <s_lp_Variant>
AV-unprocessed.smi:37-30

> <Gold.Version>
5.8.1

> <Gold.Id.Protein>
6NUR|6NUR_protein|mol2

> <Gold.PLP.Fitness>
38.0315

> <Gold.PLP.PLP>
-30.9126

> <Gold.PLP.part.hbond>
-3.0000

> <Gold.PLP.part.metal>
0.0000

> <Gold.PLP.part.buried>
-4.8215

> <Gold.PLP.part.nonpolar>
-23.1299

> <Gold.PLP.part.repulsive>
0.2829

> <Gold.PLP.ligand.clash>
0.0000

> <Gold.PLP.ligand.torsion>
0.6836

> <Gold.PLP.Chemscore.Hbond>
2.7840

> <Gold.PLP.Chemscore.CHOScore>
0.0000

> <Gold.PLP.Chemscore.Metal>
0.0000

> <Gold.Chemscore.Hbonds>
donor molecule, donor type, donor heavy atom, donor atom, acceptor molecule, acceptor atom, score
      P1  H  6896  6907       L1     8  1.00
      P1  H  6931  6943       L1     4  0.99
      P1  H  6934  6947       L1     4  0.80

> <Gold.PLP.Chemscore.Internal.Correction>
0.1342

> <Gold.Rescore>
     Score         DG    S(hbond)    S(metal)    S(lipo)     H(rot)  DE(clash)    DE(int)     intcor
      7.81      -8.54       1.80        0.00      46.35       3.27       0.00       0.73       ----

> <Gold.Chemscore.Fitness>
7.8058

> <Gold.Chemscore.DG>
-8.5398

> <Gold.Chemscore.ZeroCoef>
-5.4800

> <Gold.Chemscore.Hbond>
1.7964

> <Gold.Chemscore.Metal>
0.0000

> <Gold.Chemscore.Lipo>
46.3536

> <Gold.Chemscore.Internal_Hbond>
0.0000

> <Gold.Chemscore.DEClash>
0.0009

> <Gold.Chemscore.DEInternal>
0.7331

> <Gold.Chemscore.Rot>
3.2669

> <Gold.Chemscore.Internal.Correction>
   9.000000E+99

> <Gold.Chemscore.Hbonds>
donor molecule, donor type, donor heavy atom, donor atom, acceptor molecule, acceptor atom, score
      P1  H  6896  6907       L1     8  0.12
      P1  H  6931  6943       L1     4  0.93
      P1  H  6934  6947       L1     4  0.79

> <Gold.Chemscore.Hbond.Weighted>
-5.9998

> <Gold.Chemscore.Metal.Weighted>
-0.0000

> <Gold.Chemscore.Lipo.Weighted>
-5.4234

> <Gold.Chemscore.Internal_Hbond.Weighted>
0.0000

> <Gold.Chemscore.DEClash.Weighted>
0.0009

> <Gold.Chemscore.DEInternal.Weighted>
0.7331

> <Gold.Chemscore.Rot.Weighted>
8.3634

> <Gold.Chemscore.Internal.Correction.Weighted>
   9.000000E+99

> <Gold.Protein.RotatedTorsions>
[ 6907 6896 6895 6894 ] final  -85.23 input  -60.11 | X-H torsion
[ 7974 7965 7964 7962 ] final  -95.04 input  175.53 | X-H torsion
[ 8008 7997 7996 7995 ] final  175.45 input   59.86 | X-H torsion
[ 10167 10162 10161 10158 ] final  -90.42 input  -65.29 | X-H torsion
[ 10718 10713 10712 10709 ] final  104.85 input   66.30 | X-H torsion
[ 10763 10752 10751 10750 ] final   34.34 input  -60.55 | X-H torsion
[ 11005 11000 10999 10996 ] final   32.56 input  -57.11 | X-H torsion

> <Gold.Protein.ActiveResidues>
 VAL166  LYS551  ARG553  GLY616  TRP617  ASP618  TYR619  PRO620  LYS621  CYS622 
 ASP623  PHE694  ASN695  SER759  ASP760  ASP761  ALA762  ILE779  LEU786  VAL792 
 PHE793  MET794  SER795  GLU796  ALA797  LYS798  CYS799  TRP800  GLU811  SER814 

> <Gold.Protein.RotatedAtoms>
  150.6871  134.3237  159.4797 H   0  0  0  0  0  0  0  0  0  0  0  0  # atno 6907 bound_to 6896
  152.1109  134.9272  160.0576 H   0  0  0  0  0  0  0  0  0  0  0  0  # atno 6908 bound_to 6896
  152.0515  133.3986  159.4416 H   0  0  0  0  0  0  0  0  0  0  0  0  # atno 6909 bound_to 6896
  145.3653  140.9498  143.2477 H   0  0  0  0  0  0  0  0  0  0  0  0  # atno 7974 bound_to 7965
  156.0870  140.1409  156.9641 H   0  0  0  0  0  0  0  0  0  0  0  0  # atno 8008 bound_to 7997
  154.4618  140.0940  156.6962 H   0  0  0  0  0  0  0  0  0  0  0  0  # atno 8009 bound_to 7997
  155.4983  140.3450  155.4369 H   0  0  0  0  0  0  0  0  0  0  0  0  # atno 8010 bound_to 7997
  140.3551  143.2871  151.9681 H   0  0  0  0  0  0  0  0  0  0  0  0  # atno 10167 bound_to 10162
  157.6726  131.0814  150.5769 H   0  0  0  0  0  0  0  0  0  0  0  0  # atno 10718 bound_to 10713
  153.0169  135.6363  154.1653 H   0  0  0  0  0  0  0  0  0  0  0  0  # atno 10763 bound_to 10752
  154.1391  135.2835  155.3167 H   0  0  0  0  0  0  0  0  0  0  0  0  # atno 10764 bound_to 10752
  154.6137  135.5548  153.7562 H   0  0  0  0  0  0  0  0  0  0  0  0  # atno 10765 bound_to 10752
  140.2722  134.3069  155.7824 H   0  0  0  0  0  0  0  0  0  0  0  0  # atno 11005 bound_to 11000
  144.8616  139.5169  143.6810 LP  0  0  0  0  0  0  0  0  0  0  0  0  # atno 17320 bound_to 7965
  146.2909  139.7137  142.9161 LP  0  0  0  0  0  0  0  0  0  0  0  0  # atno 17321 bound_to 7965
  139.4821  144.6042  151.7551 LP  0  0  0  0  0  0  0  0  0  0  0  0  # atno 17342 bound_to 10162
  140.5182  144.0920  150.6014 LP  0  0  0  0  0  0  0  0  0  0  0  0  # atno 17343 bound_to 10162
  156.6070  130.4369  149.5874 LP  0  0  0  0  0  0  0  0  0  0  0  0  # atno 17370 bound_to 10713
  156.2461  130.6879  151.1601 LP  0  0  0  0  0  0  0  0  0  0  0  0  # atno 17371 bound_to 10713
  141.2175  133.7474  156.9352 LP  0  0  0  0  0  0  0  0  0  0  0  0  # atno 17394 bound_to 11000
  140.1362  134.9323  157.2405 LP  0  0  0  0  0  0  0  0  0  0  0  0  # atno 17395 bound_to 11000

$$$$
