AV-unprocessed.smi:360|AV-procd|sdf|2419|dock2
  -GOLD-   2262022353D 1   1.00000     0.00000
 Structure written by MMmdl.
 37 38  0  0  0  0  0  0  0  0  1 V2000
  157.2010  133.3088  167.3308 C   0  0  0  0  0  0  0  0  0  0  0  0
  156.5420  133.0104  166.2014 C   0  0  0  0  0  0  0  0  0  0  0  0
  155.2097  133.6087  165.8085 C   0  0  0  0  0  0  0  0  0  0  0  0
  155.0335  133.6484  164.3670 N   0  0  0  0  0  0  0  0  0  0  0  0
  154.7445  134.7505  163.5728 C   0  0  0  0  0  0  0  0  0  0  0  0
  154.5699  136.0859  164.1218 C   0  0  0  0  0  0  0  0  0  0  0  0
  154.3054  137.1124  163.3900 N   0  0  0  0  0  0  0  0  0  0  0  0
  154.1780  136.9607  162.0237 N   0  0  0  0  0  0  0  0  0  0  0  0
  153.8696  138.2075  161.3132 C   0  0  0  0  0  0  0  0  0  0  0  0
  155.0635  139.1758  161.3127 C   0  0  0  0  0  0  0  0  0  0  0  0
  154.6775  140.4065  161.9095 O   0  0  0  0  0  0  0  0  0  0  0  0
  154.0281  141.3377  161.1287 C   0  0  0  0  0  0  0  0  0  0  0  0
  153.6593  142.5477  161.7522 C   0  0  0  0  0  0  0  0  0  0  0  0
  152.9903  143.5557  161.0316 C   0  0  0  0  0  0  0  0  0  0  0  0
  152.6831  143.3619  159.6721 C   0  0  0  0  0  0  0  0  0  0  0  0
  151.8638  144.5951  158.7862 Cl  0  0  0  0  0  0  0  0  0  0  0  0
  153.0456  142.1593  159.0369 C   0  0  0  0  0  0  0  0  0  0  0  0
  153.7140  141.1508  159.7585 C   0  0  0  0  0  0  0  0  0  0  0  0
  154.3049  135.7743  161.3580 C   0  0  0  0  0  0  0  0  0  0  0  0
  154.1737  135.6837  160.1367 O   0  0  0  0  0  0  0  0  0  0  0  0
  154.6084  134.6268  162.2255 C   0  0  0  0  0  0  0  0  0  0  0  0
  154.7927  133.0803  161.4669 Cl  0  0  0  0  0  0  0  0  0  0  0  0
  156.8039  134.0190  168.0416 H   0  0  0  0  0  0  0  0  0  0  0  0
  158.1494  132.8447  167.5587 H   0  0  0  0  0  0  0  0  0  0  0  0
  156.9683  132.2932  165.5150 H   0  0  0  0  0  0  0  0  0  0  0  0
  154.4126  133.0089  166.2482 H   0  0  0  0  0  0  0  0  0  0  0  0
  155.1269  134.6162  166.2174 H   0  0  0  0  0  0  0  0  0  0  0  0
  155.1039  132.7545  163.9013 H   0  0  0  0  0  0  0  0  0  0  0  0
  154.6755  136.1773  165.2025 H   0  0  0  0  0  0  0  0  0  0  0  0
  153.6062  137.9707  160.2809 H   0  0  0  0  0  0  0  0  0  0  0  0
  152.9864  138.6977  161.7262 H   0  0  0  0  0  0  0  0  0  0  0  0
  155.9047  138.7318  161.8477 H   0  0  0  0  0  0  0  0  0  0  0  0
  155.3766  139.3534  160.2829 H   0  0  0  0  0  0  0  0  0  0  0  0
  153.8924  142.7045  162.7953 H   0  0  0  0  0  0  0  0  0  0  0  0
  152.7144  144.4765  161.5245 H   0  0  0  0  0  0  0  0  0  0  0  0
  152.8103  142.0069  157.9938 H   0  0  0  0  0  0  0  0  0  0  0  0
  153.9736  140.2420  159.2375 H   0  0  0  0  0  0  0  0  0  0  0  0
  1  2  2  0  0  0  0
  1 23  1  0  0  0  0
  1 24  1  0  0  0  0
  2  3  1  0  0  0  0
  2 25  1  0  0  0  0
  3  4  1  0  0  0  0
  3 26  1  0  0  0  0
  3 27  1  0  0  0  0
  4  5  1  0  0  0  0
  4 28  1  0  0  0  0
  5 21  2  0  0  0  0
  5  6  1  0  0  0  0
  6  7  2  0  0  0  0
  6 29  1  0  0  0  0
  7  8  1  0  0  0  0
  8  9  1  0  0  0  0
  8 19  1  0  0  0  0
  9 10  1  0  0  0  0
  9 30  1  0  0  0  0
  9 31  1  0  0  0  0
 10 11  1  0  0  0  0
 10 32  1  0  0  0  0
 10 33  1  0  0  0  0
 11 12  1  0  0  0  0
 12 18  1  0  0  0  0
 12 13  2  0  0  0  0
 13 14  1  0  0  0  0
 13 34  1  0  0  0  0
 14 15  2  0  0  0  0
 14 35  1  0  0  0  0
 15 16  1  0  0  0  0
 15 17  1  0  0  0  0
 17 18  2  0  0  0  0
 17 36  1  0  0  0  0
 18 37  1  0  0  0  0
 19 20  2  0  0  0  0
 19 21  1  0  0  0  0
 21 22  1  0  0  0  0
M  END
> <s_m_source_file>
AV-unprocessed.smi

> <i_m_source_file_index>
360

> <i_lp_mmshare_version>
43012

> <i_f3d_flags>
0

> <s_epik_input>
W0NIMl09W0NIXVtDSDJdW05IXWMxW2NIXW5uKGMoPU8pYzFDbClbQ0gyXVtDSDJdT2MyW2NIXVtjSF1jKENsKVtjSF1bY0hdMg==

> <s_epik_cmdline>
J2VwaWtfcHl0aG9uJywgJy1waCcsICc3LjAnLCAnLXRuJywgJzgnLCAnLW1hJywgJzIwMCcsICctbWV0YWxfYmluZGluZycsICctaW1hZScsICc8aW5maWxlLm1hZT4nLCAnLW9tYWUnLCAnPG91dGZpbGUubWFlPic=

> <r_lp_tautomer_probability>
1

> <r_epik_Ionization_Penalty>
1.57681e-05

> <r_epik_Ionization_Penalty_Charging>
9.79356e-10

> <r_epik_Ionization_Penalty_Neutral>
1.57671e-05

> <r_epik_State_Penalty>
-0

> <r_epik_Charging_Adjusted_Penalty>
9.79356e-10

> <i_epik_Tot_Q>
0

> <i_epik_Tot_abs_Q>
0

> <r_epik_Metal_State_Penalty>
-0

> <b_epik_Metal_Only>
0

> <s_lp_Force_Field>
OPLS_2005

> <r_lp_Energy>
29.545

> <b_lp_Chiralities_Consistent>
1

> <s_lp_Variant>
AV-unprocessed.smi:360-1

> <Gold.Version>
5.8.1

> <Gold.Id.Protein>
6NUR|6NUR_protein|mol2

> <Gold.PLP.Fitness>
48.0713

> <Gold.PLP.PLP>
-46.5383

> <Gold.PLP.part.hbond>
-0.9902

> <Gold.PLP.part.metal>
0.0000

> <Gold.PLP.part.buried>
-5.7596

> <Gold.PLP.part.nonpolar>
-40.4241

> <Gold.PLP.part.repulsive>
0.0310

> <Gold.PLP.ligand.clash>
0.0000

> <Gold.PLP.ligand.torsion>
0.7761

> <Gold.PLP.Chemscore.Hbond>
0.9913

> <Gold.PLP.Chemscore.CHOScore>
0.0000

> <Gold.PLP.Chemscore.Metal>
0.0000

> <Gold.Chemscore.Hbonds>
donor molecule, donor type, donor heavy atom, donor atom, acceptor molecule, acceptor atom, score
      P1  H  6896  6907       L1    20  1.00

> <Gold.PLP.Chemscore.Internal.Correction>
0.1115

> <Gold.Rescore>
     Score         DG    S(hbond)    S(metal)    S(lipo)     H(rot)  DE(clash)    DE(int)     intcor
     17.92     -18.82       0.85        0.00     127.71       1.73       0.05       0.86       ----

> <Gold.Chemscore.Fitness>
17.9169

> <Gold.Chemscore.DG>
-18.8214

> <Gold.Chemscore.ZeroCoef>
-5.4800

> <Gold.Chemscore.Hbond>
0.8505

> <Gold.Chemscore.Metal>
0.0000

> <Gold.Chemscore.Lipo>
127.7081

> <Gold.Chemscore.Internal_Hbond>
0.0000

> <Gold.Chemscore.DEClash>
0.0460

> <Gold.Chemscore.DEInternal>
0.8585

> <Gold.Chemscore.Rot>
1.7348

> <Gold.Chemscore.Internal.Correction>
   9.000000E+99

> <Gold.Chemscore.Hbonds>
donor molecule, donor type, donor heavy atom, donor atom, acceptor molecule, acceptor atom, score
      P1  H  6896  6907       L1    20  0.33

> <Gold.Chemscore.Hbond.Weighted>
-2.8406

> <Gold.Chemscore.Metal.Weighted>
-0.0000

> <Gold.Chemscore.Lipo.Weighted>
-14.9418

> <Gold.Chemscore.Internal_Hbond.Weighted>
0.0000

> <Gold.Chemscore.DEClash.Weighted>
0.0460

> <Gold.Chemscore.DEInternal.Weighted>
0.8585

> <Gold.Chemscore.Rot.Weighted>
4.4410

> <Gold.Chemscore.Internal.Correction.Weighted>
   9.000000E+99

> <Gold.Protein.RotatedTorsions>
[ 6907 6896 6895 6894 ] final   67.79 input  -60.11 | X-H torsion
[ 7974 7965 7964 7962 ] final   69.81 input  175.53 | X-H torsion
[ 8008 7997 7996 7995 ] final  168.79 input   59.86 | X-H torsion
[ 10167 10162 10161 10158 ] final  149.07 input  -65.29 | X-H torsion
[ 10718 10713 10712 10709 ] final  103.69 input   66.30 | X-H torsion
[ 10763 10752 10751 10750 ] final   62.64 input  -60.55 | X-H torsion
[ 11005 11000 10999 10996 ] final -112.46 input  -57.11 | X-H torsion

> <Gold.Protein.ActiveResidues>
 VAL166  LYS551  ARG553  GLY616  TRP617  ASP618  TYR619  PRO620  LYS621  CYS622 
 ASP623  PHE694  ASN695  SER759  ASP760  ASP761  ALA762  ILE779  LEU786  VAL792 
 PHE793  MET794  SER795  GLU796  ALA797  LYS798  CYS799  TRP800  GLU811  SER814 

> <Gold.Protein.RotatedAtoms>
  152.4576  134.5256  159.9795 H   0  0  0  0  0  0  0  0  0  0  0  0  # atno 6907 bound_to 6896
  151.5312  133.3443  159.2926 H   0  0  0  0  0  0  0  0  0  0  0  0  # atno 6908 bound_to 6896
  150.8527  134.7887  159.7084 H   0  0  0  0  0  0  0  0  0  0  0  0  # atno 6909 bound_to 6896
  145.7858  139.2910  143.1239 H   0  0  0  0  0  0  0  0  0  0  0  0  # atno 7974 bound_to 7965
  156.1515  140.1581  156.8761 H   0  0  0  0  0  0  0  0  0  0  0  0  # atno 8008 bound_to 7997
  154.5076  140.0809  156.7962 H   0  0  0  0  0  0  0  0  0  0  0  0  # atno 8009 bound_to 7997
  155.3886  140.3408  155.4252 H   0  0  0  0  0  0  0  0  0  0  0  0  # atno 8010 bound_to 7997
  139.4866  144.5630  151.7196 H   0  0  0  0  0  0  0  0  0  0  0  0  # atno 10167 bound_to 10162
  157.6764  131.0785  150.5594 H   0  0  0  0  0  0  0  0  0  0  0  0  # atno 10718 bound_to 10713
  152.9990  135.5457  154.6226 H   0  0  0  0  0  0  0  0  0  0  0  0  # atno 10763 bound_to 10752
  154.5521  135.2827  155.1000 H   0  0  0  0  0  0  0  0  0  0  0  0  # atno 10764 bound_to 10752
  154.2236  135.6446  153.5205 H   0  0  0  0  0  0  0  0  0  0  0  0  # atno 10765 bound_to 10752
  141.0674  133.9437  157.2552 H   0  0  0  0  0  0  0  0  0  0  0  0  # atno 11005 bound_to 11000
  146.0027  140.8506  143.0010 LP  0  0  0  0  0  0  0  0  0  0  0  0  # atno 17320 bound_to 7965
  144.6789  140.2376  143.7348 LP  0  0  0  0  0  0  0  0  0  0  0  0  # atno 17321 bound_to 7965
  140.5203  144.0889  150.6021 LP  0  0  0  0  0  0  0  0  0  0  0  0  # atno 17342 bound_to 10162
  140.3844  143.2785  152.0133 LP  0  0  0  0  0  0  0  0  0  0  0  0  # atno 17343 bound_to 10162
  156.5897  130.4326  149.5942 LP  0  0  0  0  0  0  0  0  0  0  0  0  # atno 17370 bound_to 10713
  156.2594  130.6953  151.1717 LP  0  0  0  0  0  0  0  0  0  0  0  0  # atno 17371 bound_to 10713
  139.9489  135.0179  156.8936 LP  0  0  0  0  0  0  0  0  0  0  0  0  # atno 17394 bound_to 11000
  140.5745  134.0411  155.7442 LP  0  0  0  0  0  0  0  0  0  0  0  0  # atno 17395 bound_to 11000

$$$$
