AV-unprocessed.smi:1648|AV-procd|sdf|6634|dock9
  -GOLD-   22720 7333D 1   1.00000     0.00000
 Structure written by MMmdl.
 41 41  0  0  0  0  0  0  0  0  1 V2000
  150.0973  140.9686  156.4064 C   0  0  0  0  0  0  0  0  0  0  0  0
  149.7761  140.1072  155.1835 C   0  0  0  0  0  0  0  0  0  0  0  0
  150.6230  139.9689  154.3043 O   0  0  0  0  0  0  0  0  0  0  0  0
  148.5763  139.5069  155.0971 N   0  0  0  0  0  0  0  0  0  0  0  0
  148.0870  138.6501  154.0140 C   0  0  1  0  0  0  0  0  0  0  0  0
  147.5054  137.3752  154.6515 C   0  0  0  0  0  0  0  0  0  0  0  0
  146.6624  137.4547  155.5464 O   0  0  0  0  0  0  0  0  0  0  0  0
  147.9680  136.2080  154.1754 N   0  0  0  0  0  0  0  0  0  0  0  0
  147.5766  134.8794  154.6437 C   0  0  1  0  0  0  0  0  0  0  0  0
  148.0214  134.7178  156.1033 C   0  0  0  0  0  0  0  0  0  0  0  0
  146.0545  134.6670  154.4926 C   0  0  0  0  0  0  0  0  0  0  0  0
  145.6594  134.3699  153.1271 N   0  0  0  0  0  0  0  0  0  0  0  0
  146.0022  135.0772  151.9820 C   0  0  0  0  0  0  0  0  0  0  0  0
  145.3934  134.4365  150.9267 C   0  0  0  0  0  0  0  0  0  0  0  0
  144.6898  133.3286  151.3936 N   0  0  0  0  0  0  0  0  0  0  0  0
  144.9003  133.3500  152.7030 C   0  0  0  0  0  0  0  0  0  0  0  0
  146.9725  139.4098  153.2355 C   0  0  0  0  0  0  0  0  0  0  0  0
  146.7294  138.8373  151.8232 C   0  0  0  0  0  0  0  0  0  0  0  0
  147.2780  140.9164  153.1229 C   0  0  0  0  0  0  0  0  0  0  0  0
  149.3228  141.7150  156.5793 H   0  0  0  0  0  0  0  0  0  0  0  0
  151.0420  141.4949  156.2668 H   0  0  0  0  0  0  0  0  0  0  0  0
  150.1861  140.3462  157.2971 H   0  0  0  0  0  0  0  0  0  0  0  0
  147.9503  139.6259  155.8804 H   0  0  0  0  0  0  0  0  0  0  0  0
  148.8936  138.3971  153.3237 H   0  0  0  0  0  0  0  0  0  0  0  0
  148.6563  136.2422  153.4375 H   0  0  0  0  0  0  0  0  0  0  0  0
  148.0976  134.1146  154.0649 H   0  0  0  0  0  0  0  0  0  0  0  0
  147.7708  133.7266  156.4821 H   0  0  0  0  0  0  0  0  0  0  0  0
  147.5406  135.4525  156.7501 H   0  0  0  0  0  0  0  0  0  0  0  0
  149.1004  134.8429  156.2006 H   0  0  0  0  0  0  0  0  0  0  0  0
  145.7286  133.8352  155.1185 H   0  0  0  0  0  0  0  0  0  0  0  0
  145.5089  135.5474  154.8357 H   0  0  0  0  0  0  0  0  0  0  0  0
  146.6234  135.9601  152.0136 H   0  0  0  0  0  0  0  0  0  0  0  0
  145.4102  134.6832  149.8755 H   0  0  0  0  0  0  0  0  0  0  0  0
  144.4864  132.6080  153.3695 H   0  0  0  0  0  0  0  0  0  0  0  0
  146.0354  139.3174  153.7877 H   0  0  0  0  0  0  0  0  0  0  0  0
  147.6430  138.8539  151.2284 H   0  0  0  0  0  0  0  0  0  0  0  0
  145.9777  139.4191  151.2889 H   0  0  0  0  0  0  0  0  0  0  0  0
  146.3680  137.8091  151.8515 H   0  0  0  0  0  0  0  0  0  0  0  0
  148.2221  141.0899  152.6057 H   0  0  0  0  0  0  0  0  0  0  0  0
  147.3414  141.3943  154.1005 H   0  0  0  0  0  0  0  0  0  0  0  0
  146.4961  141.4351  152.5676 H   0  0  0  0  0  0  0  0  0  0  0  0
  1  2  1  0  0  0  0
  1 20  1  0  0  0  0
  1 21  1  0  0  0  0
  1 22  1  0  0  0  0
  2  3  2  0  0  0  0
  2  4  1  0  0  0  0
  4  5  1  0  0  0  0
  4 23  1  0  0  0  0
  5  6  1  0  0  0  0
  5 17  1  0  0  0  0
  5 24  1  0  0  0  0
  6  7  2  0  0  0  0
  6  8  1  0  0  0  0
  8  9  1  0  0  0  0
  8 25  1  0  0  0  0
  9 10  1  0  0  0  0
  9 11  1  0  0  0  0
  9 26  1  0  0  0  0
 10 27  1  0  0  0  0
 10 28  1  0  0  0  0
 10 29  1  0  0  0  0
 11 12  1  0  0  0  0
 11 30  1  0  0  0  0
 11 31  1  0  0  0  0
 12 16  1  0  0  0  0
 12 13  1  0  0  0  0
 13 14  2  0  0  0  0
 13 32  1  0  0  0  0
 14 15  1  0  0  0  0
 14 33  1  0  0  0  0
 15 16  2  0  0  0  0
 16 34  1  0  0  0  0
 17 18  1  0  0  0  0
 17 19  1  0  0  0  0
 17 35  1  0  0  0  0
 18 36  1  0  0  0  0
 18 37  1  0  0  0  0
 18 38  1  0  0  0  0
 19 39  1  0  0  0  0
 19 40  1  0  0  0  0
 19 41  1  0  0  0  0
M  END
> <s_m_source_file>
AV-unprocessed.smi

> <i_m_source_file_index>
1648

> <i_lp_mmshare_version>
43012

> <i_f3d_flags>
0

> <s_epik_input>
W0NIM11DKD1PKVtOSF1bQ0BASF0oW0NIXShbQ0gzXSlbQ0gzXSlDKD1PKVtOSF1bQ0BIXShbQ0gzXSlbQ0gyXW4xW2NIXVtjSF1uW2NIXTE=

> <s_epik_cmdline>
J2VwaWtfcHl0aG9uJywgJy1waCcsICc3LjAnLCAnLXRuJywgJzgnLCAnLW1hJywgJzIwMCcsICctbWV0YWxfYmluZGluZycsICctaW1hZScsICc8aW5maWxlLm1hZT4nLCAnLW9tYWUnLCAnPG91dGZpbGUubWFlPic=

> <r_lp_tautomer_probability>
1

> <r_epik_Ionization_Penalty>
0.628885

> <r_epik_Ionization_Penalty_Charging>
0.628884

> <r_epik_Ionization_Penalty_Neutral>
4.35155e-07

> <r_epik_State_Penalty>
0.64556

> <r_epik_Charging_Adjusted_Penalty>
1.27444

> <i_epik_Tot_Q>
0

> <i_epik_Tot_abs_Q>
0

> <r_epik_Metal_State_Penalty>
0.30874

> <b_epik_Metal_Only>
0

> <s_lp_Force_Field>
OPLS_2005

> <r_lp_Energy>
9.11872

> <b_lp_Chiralities_Consistent>
1

> <s_lp_Variant>
AV-unprocessed.smi:1648-8

> <Gold.Version>
5.8.1

> <Gold.Id.Protein>
6NUR|6NUR_protein|mol2

> <Gold.PLP.Fitness>
36.3355

> <Gold.PLP.PLP>
-23.0798

> <Gold.PLP.part.hbond>
-1.9062

> <Gold.PLP.part.metal>
0.0000

> <Gold.PLP.part.buried>
-1.3184

> <Gold.PLP.part.nonpolar>
-19.4545

> <Gold.PLP.part.repulsive>
0.2831

> <Gold.PLP.ligand.clash>
0.0000

> <Gold.PLP.ligand.torsion>
0.9151

> <Gold.PLP.Chemscore.Hbond>
2.0000

> <Gold.PLP.Chemscore.CHOScore>
2.9834

> <Gold.PLP.Chemscore.Metal>
0.0000

> <Gold.Chemscore.Hbonds>
donor molecule, donor type, donor heavy atom, donor atom, acceptor molecule, acceptor atom, score
      L1  H     8    25       P1  7948  0.98
      P1  H  7989  7998       L1     3  1.00
      L1  C    13    32       P1  7948  1.00
      L1  C    14    33       P1  7921  1.00
      L1  C    16    34       P1 10957  1.00

> <Gold.PLP.Chemscore.Internal.Correction>
0.1356

> <Gold.Rescore>
     Score         DG    S(hbond)    S(metal)    S(lipo)     H(rot)  DE(clash)    DE(int)     intcor
      9.60     -11.41       1.93        0.00      50.91       2.52       0.04       1.77       ----

> <Gold.Chemscore.Fitness>
9.5994

> <Gold.Chemscore.DG>
-11.4121

> <Gold.Chemscore.ZeroCoef>
-5.4800

> <Gold.Chemscore.Hbond>
1.9256

> <Gold.Chemscore.Metal>
0.0000

> <Gold.Chemscore.Lipo>
50.9059

> <Gold.Chemscore.Internal_Hbond>
0.0000

> <Gold.Chemscore.DEClash>
0.0429

> <Gold.Chemscore.DEInternal>
1.7697

> <Gold.Chemscore.Rot>
2.5216

> <Gold.Chemscore.Internal.Correction>
   9.000000E+99

> <Gold.Chemscore.Hbonds>
donor molecule, donor type, donor heavy atom, donor atom, acceptor molecule, acceptor atom, score
      L1  H     8    25       P1  7948  0.92
      P1  H  7989  7998       L1     3  0.97

> <Gold.Chemscore.Hbond.Weighted>
-6.4313

> <Gold.Chemscore.Metal.Weighted>
-0.0000

> <Gold.Chemscore.Lipo.Weighted>
-5.9560

> <Gold.Chemscore.Internal_Hbond.Weighted>
0.0000

> <Gold.Chemscore.DEClash.Weighted>
0.0429

> <Gold.Chemscore.DEInternal.Weighted>
1.7697

> <Gold.Chemscore.Rot.Weighted>
6.4553

> <Gold.Chemscore.Internal.Correction.Weighted>
   9.000000E+99

> <Gold.Protein.RotatedTorsions>
[ 6907 6896 6895 6894 ] final -126.46 input  -60.11 | X-H torsion
[ 7974 7965 7964 7962 ] final  -70.83 input  175.53 | X-H torsion
[ 8008 7997 7996 7995 ] final  -44.13 input   59.86 | X-H torsion
[ 10167 10162 10161 10158 ] final -118.63 input  -65.29 | X-H torsion
[ 10718 10713 10712 10709 ] final -171.78 input   66.30 | X-H torsion
[ 10763 10752 10751 10750 ] final  120.92 input  -60.55 | X-H torsion
[ 11005 11000 10999 10996 ] final  -94.76 input  -57.11 | X-H torsion

> <Gold.Protein.ActiveResidues>
 VAL166  LYS551  ARG553  GLY616  TRP617  ASP618  TYR619  PRO620  LYS621  CYS622 
 ASP623  PHE694  ASN695  SER759  ASP760  ASP761  ALA762  ILE779  LEU786  VAL792 
 PHE793  MET794  SER795  GLU796  ALA797  LYS798  CYS799  TRP800  GLU811  SER814 

> <Gold.Protein.RotatedAtoms>
  150.8971  133.7166  159.2888 H   0  0  0  0  0  0  0  0  0  0  0  0  # atno 6907 bound_to 6896
  151.4697  135.1043  159.9757 H   0  0  0  0  0  0  0  0  0  0  0  0  # atno 6908 bound_to 6896
  152.4855  133.8314  159.7160 H   0  0  0  0  0  0  0  0  0  0  0  0  # atno 6909 bound_to 6896
  145.6859  140.9171  143.0807 H   0  0  0  0  0  0  0  0  0  0  0  0  # atno 7974 bound_to 7965
  154.3997  140.1430  156.3632 H   0  0  0  0  0  0  0  0  0  0  0  0  # atno 8008 bound_to 7997
  155.8161  140.3471  155.5466 H   0  0  0  0  0  0  0  0  0  0  0  0  # atno 8009 bound_to 7997
  155.8336  140.0916  157.1768 H   0  0  0  0  0  0  0  0  0  0  0  0  # atno 8010 bound_to 7997
  140.0554  143.5020  152.2060 H   0  0  0  0  0  0  0  0  0  0  0  0  # atno 10167 bound_to 10162
  156.7459  130.9360  151.3112 H   0  0  0  0  0  0  0  0  0  0  0  0  # atno 10718 bound_to 10713
  153.6061  135.3439  155.2962 H   0  0  0  0  0  0  0  0  0  0  0  0  # atno 10763 bound_to 10752
  154.8627  135.4239  154.2360 H   0  0  0  0  0  0  0  0  0  0  0  0  # atno 10764 bound_to 10752
  153.3200  135.7037  153.7111 H   0  0  0  0  0  0  0  0  0  0  0  0  # atno 10765 bound_to 10752
  141.1461  133.7979  157.0342 H   0  0  0  0  0  0  0  0  0  0  0  0  # atno 11005 bound_to 11000
  144.7011  139.8758  143.7444 LP  0  0  0  0  0  0  0  0  0  0  0  0  # atno 17320 bound_to 7965
  146.0924  139.3914  143.0397 LP  0  0  0  0  0  0  0  0  0  0  0  0  # atno 17321 bound_to 7965
  139.5927  144.7556  151.3361 LP  0  0  0  0  0  0  0  0  0  0  0  0  # atno 17342 bound_to 10162
  140.7197  143.7169  150.7726 LP  0  0  0  0  0  0  0  0  0  0  0  0  # atno 17343 bound_to 10162
  157.6798  130.9129  150.0239 LP  0  0  0  0  0  0  0  0  0  0  0  0  # atno 17370 bound_to 10713
  156.1433  130.3642  149.9549 LP  0  0  0  0  0  0  0  0  0  0  0  0  # atno 17371 bound_to 10713
  140.0734  134.9689  157.1505 LP  0  0  0  0  0  0  0  0  0  0  0  0  # atno 17394 bound_to 11000
  140.3678  134.2423  155.7180 LP  0  0  0  0  0  0  0  0  0  0  0  0  # atno 17395 bound_to 11000

$$$$
