AV-unprocessed.smi:113|AV-procd|sdf|1101|dock3
  -GOLD-   2262018213D 1   1.00000     0.00000
 Structure written by MMmdl.
 53 56  0  0  0  0  0  0  0  0  2 V2000
  148.5710  141.9776  155.0504 C   0  0  0  0  0  0  0  0  0  0  0  0
  149.6802  141.6451  156.0254 C   0  0  0  0  0  0  0  0  0  0  0  0
  150.2816  140.3727  156.0697 C   0  0  0  0  0  0  0  0  0  0  0  0
  151.3130  140.1091  157.0050 C   0  0  0  0  0  0  0  0  0  0  0  0
  151.9820  138.7321  157.0778 C   0  0  0  0  0  0  0  0  0  0  0  0
  151.0996  137.5738  157.0700 N   0  0  0  0  0  0  0  0  0  0  0  0
  150.3829  137.2762  158.2544 C   0  0  0  0  0  0  0  0  0  0  0  0
  150.5032  137.9630  159.2713 O   0  0  0  0  0  0  0  0  0  0  0  0
  149.5193  136.0958  158.1773 C   0  0  0  0  0  0  0  0  0  0  0  0
  148.6820  135.7397  159.3958 C   0  0  0  0  0  0  0  0  0  0  0  0
  149.4857  135.3600  157.0400 C   0  0  0  0  0  0  0  0  0  0  0  0
  150.2378  135.6418  155.9125 N   0  0  0  0  0  0  0  0  0  0  0  0
  150.1011  134.7565  154.6898 C   0  0  2  0  0  0  0  0  0  0  0  0
  148.6695  134.6730  154.1469 C   0  0  0  0  0  0  0  0  0  0  0  0
  148.6253  133.2390  153.6612 C   0  0  2  0  0  0  0  0  0  0  0  0
  147.2988  132.7526  153.6461 O   0  0  0  0  0  0  0  0  0  0  0  0
  149.5027  132.5096  154.6841 C   0  0  1  0  0  0  0  0  0  0  0  0
  150.1523  131.2330  154.1285 C   0  0  0  0  0  0  0  0  0  0  0  0
  149.1573  130.3282  153.6996 O   0  0  0  0  0  0  0  0  0  0  0  0
  150.5143  133.4618  155.0157 O   0  0  0  0  0  0  0  0  0  0  0  0
  151.0569  136.7927  155.8933 C   0  0  0  0  0  0  0  0  0  0  0  0
  151.7175  137.0947  154.8976 O   0  0  0  0  0  0  0  0  0  0  0  0
  151.7148  141.1572  157.8779 C   0  0  0  0  0  0  0  0  0  0  0  0
  152.7396  140.9872  158.8395 C   0  0  0  0  0  0  0  0  0  0  0  0
  153.1065  142.0493  159.6889 C   0  0  0  0  0  0  0  0  0  0  0  0
  152.4580  143.2944  159.5899 C   0  0  0  0  0  0  0  0  0  0  0  0
  151.4385  143.4812  158.6384 C   0  0  0  0  0  0  0  0  0  0  0  0
  151.0696  142.4203  157.7879 C   0  0  0  0  0  0  0  0  0  0  0  0
  150.0911  142.6065  156.8771 N   0  3  0  0  0  0  0  0  0  0  0  0
  148.6185  141.3309  154.1737 H   0  0  0  0  0  0  0  0  0  0  0  0
  148.6473  143.0115  154.7123 H   0  0  0  0  0  0  0  0  0  0  0  0
  147.5991  141.8407  155.5248 H   0  0  0  0  0  0  0  0  0  0  0  0
  149.9406  139.6122  155.3833 H   0  0  0  0  0  0  0  0  0  0  0  0
  152.6913  138.6163  156.2570 H   0  0  0  0  0  0  0  0  0  0  0  0
  152.5979  138.6568  157.9756 H   0  0  0  0  0  0  0  0  0  0  0  0
  148.0626  134.8600  159.2197 H   0  0  0  0  0  0  0  0  0  0  0  0
  148.0194  136.5652  159.6595 H   0  0  0  0  0  0  0  0  0  0  0  0
  149.3244  135.5293  160.2517 H   0  0  0  0  0  0  0  0  0  0  0  0
  148.8359  134.4968  157.0192 H   0  0  0  0  0  0  0  0  0  0  0  0
  150.7925  135.1503  153.9446 H   0  0  0  0  0  0  0  0  0  0  0  0
  147.9357  134.8464  154.9332 H   0  0  0  0  0  0  0  0  0  0  0  0
  148.5081  135.4059  153.3560 H   0  0  0  0  0  0  0  0  0  0  0  0
  149.0619  133.1727  152.6634 H   0  0  0  0  0  0  0  0  0  0  0  0
  147.2787  131.9494  153.1481 H   0  0  0  0  0  0  0  0  0  0  0  0
  148.9147  132.2897  155.5768 H   0  0  0  0  0  0  0  0  0  0  0  0
  150.7687  131.4733  153.2616 H   0  0  0  0  0  0  0  0  0  0  0  0
  150.8016  130.7631  154.8677 H   0  0  0  0  0  0  0  0  0  0  0  0
  149.0407  130.4287  152.7671 H   0  0  0  0  0  0  0  0  0  0  0  0
  153.2603  140.0475  158.9444 H   0  0  0  0  0  0  0  0  0  0  0  0
  153.8894  141.9076  160.4199 H   0  0  0  0  0  0  0  0  0  0  0  0
  152.7433  144.1058  160.2436 H   0  0  0  0  0  0  0  0  0  0  0  0
  150.9442  144.4394  158.5663 H   0  0  0  0  0  0  0  0  0  0  0  0
  149.6407  143.5202  156.8298 H   0  0  0  0  0  0  0  0  0  0  0  0
  1  2  1  0  0  0  0
  1 30  1  0  0  0  0
  1 31  1  0  0  0  0
  1 32  1  0  0  0  0
  2 29  1  0  0  0  0
  2  3  2  0  0  0  0
  3  4  1  0  0  0  0
  3 33  1  0  0  0  0
  4  5  1  0  0  0  0
  4 23  2  0  0  0  0
  5  6  1  0  0  0  0
  5 34  1  0  0  0  0
  5 35  1  0  0  0  0
  6 21  1  0  0  0  0
  6  7  1  0  0  0  0
  7  8  2  0  0  0  0
  7  9  1  0  0  0  0
  9 10  1  0  0  0  0
  9 11  2  0  0  0  0
 10 36  1  0  0  0  0
 10 37  1  0  0  0  0
 10 38  1  0  0  0  0
 11 12  1  0  0  0  0
 11 39  1  0  0  0  0
 12 13  1  0  0  0  0
 12 21  1  0  0  0  0
 13 20  1  0  0  0  0
 13 14  1  0  0  0  0
 13 40  1  0  0  0  0
 14 15  1  0  0  0  0
 14 41  1  0  0  0  0
 14 42  1  0  0  0  0
 15 16  1  0  0  0  0
 15 17  1  0  0  0  0
 15 43  1  0  0  0  0
 16 44  1  0  0  0  0
 17 18  1  0  0  0  0
 17 20  1  0  0  0  0
 17 45  1  0  0  0  0
 18 19  1  0  0  0  0
 18 46  1  0  0  0  0
 18 47  1  0  0  0  0
 19 48  1  0  0  0  0
 21 22  2  0  0  0  0
 23 28  1  0  0  0  0
 23 24  1  0  0  0  0
 24 25  2  0  0  0  0
 24 49  1  0  0  0  0
 25 26  1  0  0  0  0
 25 50  1  0  0  0  0
 26 27  2  0  0  0  0
 26 51  1  0  0  0  0
 27 28  1  0  0  0  0
 27 52  1  0  0  0  0
 28 29  2  0  0  0  0
 29 53  1  0  0  0  0
M  CHG  1  29   1
M  END
> <s_m_source_file>
AV-unprocessed.smi

> <i_m_source_file_index>
113

> <i_lp_mmshare_version>
43012

> <i_f3d_flags>
0

> <s_epik_input>
W2NIXTFbY0hdW2NIXVtjSF1jKGMxMiluYyhbQ0gzXSlbY0hdYzJbQ0gyXW4zYyg9TyljKFtDSDNdKVtjSF1uKGMzPU8pW0NAQEhdNFtDSDJdW0NAQEhdKFtPSF0pW0NASF0oTzQpW0NIMl1bT0hd

> <s_epik_cmdline>
J2VwaWtfcHl0aG9uJywgJy1waCcsICc3LjAnLCAnLXRuJywgJzgnLCAnLW1hJywgJzIwMCcsICctbWV0YWxfYmluZGluZycsICctaW1hZScsICc8aW5maWxlLm1hZT4nLCAnLW9tYWUnLCAnPG91dGZpbGUubWFlPic=

> <r_lp_tautomer_probability>
1

> <r_epik_Ionization_Penalty>
0.705471

> <r_epik_Ionization_Penalty_Charging>
0.70547

> <r_epik_Ionization_Penalty_Neutral>
1.19947e-07

> <r_epik_State_Penalty>
0.728574

> <r_epik_Charging_Adjusted_Penalty>
1.43404

> <i_epik_Tot_Q>
1

> <i_epik_Tot_abs_Q>
1

> <r_epik_Metal_State_Penalty>
4.61665

> <b_epik_Metal_Only>
0

> <s_epik_Chemistry_Notes>
This compound contains an acetal/aminal-like group ( X-CH(R)-Y where X, Y are N, S, or O) that may be acid/base labile, releasing an aldehyde.

> <s_lp_Force_Field>
OPLS_2005

> <r_lp_Energy>
36.4748

> <b_lp_Chiralities_Consistent>
1

> <s_lp_Variant>
AV-unprocessed.smi:113-11

> <Gold.Version>
5.8.1

> <Gold.Id.Protein>
6NUR|6NUR_protein|mol2

> <Gold.PLP.Fitness>
57.7986

> <Gold.PLP.PLP>
-49.4469

> <Gold.PLP.part.hbond>
-2.9826

> <Gold.PLP.part.metal>
0.0000

> <Gold.PLP.part.buried>
-5.6552

> <Gold.PLP.part.nonpolar>
-41.5899

> <Gold.PLP.part.repulsive>
0.2050

> <Gold.PLP.ligand.clash>
0.0000

> <Gold.PLP.ligand.torsion>
0.3426

> <Gold.PLP.Chemscore.Hbond>
3.0000

> <Gold.PLP.Chemscore.CHOScore>
0.0000

> <Gold.PLP.Chemscore.Metal>
0.0000

> <Gold.Chemscore.Hbonds>
donor molecule, donor type, donor heavy atom, donor atom, acceptor molecule, acceptor atom, score
      L1  H    29    53       P1  8028  1.76
      P1  H 10752 10764       L1    22  1.00

> <Gold.PLP.Chemscore.Internal.Correction>
0.0368

> <Gold.Rescore>
     Score         DG    S(hbond)    S(metal)    S(lipo)     H(rot)  DE(clash)    DE(int)     intcor
     17.89     -18.07       1.95        0.00     117.88       3.01       0.00       0.18       ----

> <Gold.Chemscore.Fitness>
17.8908

> <Gold.Chemscore.DG>
-18.0738

> <Gold.Chemscore.ZeroCoef>
-5.4800

> <Gold.Chemscore.Hbond>
1.9500

> <Gold.Chemscore.Metal>
0.0000

> <Gold.Chemscore.Lipo>
117.8759

> <Gold.Chemscore.Internal_Hbond>
0.0000

> <Gold.Chemscore.DEClash>
0.0000

> <Gold.Chemscore.DEInternal>
0.1830

> <Gold.Chemscore.Rot>
3.0120

> <Gold.Chemscore.Internal.Correction>
   9.000000E+99

> <Gold.Chemscore.Hbonds>
donor molecule, donor type, donor heavy atom, donor atom, acceptor molecule, acceptor atom, score
      L1  H    29    53       P1  8028  0.86
      P1  H 10752 10764       L1    22  0.72

> <Gold.Chemscore.Hbond.Weighted>
-6.5131

> <Gold.Chemscore.Metal.Weighted>
-0.0000

> <Gold.Chemscore.Lipo.Weighted>
-13.7915

> <Gold.Chemscore.Internal_Hbond.Weighted>
0.0000

> <Gold.Chemscore.DEClash.Weighted>
0.0000

> <Gold.Chemscore.DEInternal.Weighted>
0.1830

> <Gold.Chemscore.Rot.Weighted>
7.7108

> <Gold.Chemscore.Internal.Correction.Weighted>
   9.000000E+99

> <Gold.Protein.RotatedTorsions>
[ 6907 6896 6895 6894 ] final  -74.47 input  -60.11 | X-H torsion
[ 7974 7965 7964 7962 ] final  128.09 input  175.53 | X-H torsion
[ 8008 7997 7996 7995 ] final  -10.74 input   59.86 | X-H torsion
[ 10167 10162 10161 10158 ] final  -40.06 input  -65.29 | X-H torsion
[ 10718 10713 10712 10709 ] final  169.59 input   66.30 | X-H torsion
[ 10763 10752 10751 10750 ] final  -68.11 input  -60.55 | X-H torsion
[ 11005 11000 10999 10996 ] final   70.75 input  -57.11 | X-H torsion

> <Gold.Protein.ActiveResidues>
 VAL166  LYS551  ARG553  GLY616  TRP617  ASP618  TYR619  PRO620  LYS621  CYS622 
 ASP623  PHE694  ASN695  SER759  ASP760  ASP761  ALA762  ILE779  LEU786  VAL792 
 PHE793  MET794  SER795  GLU796  ALA797  LYS798  CYS799  TRP800  GLU811  SER814 

> <Gold.Protein.RotatedAtoms>
  150.7092  134.4865  159.5494 H   0  0  0  0  0  0  0  0  0  0  0  0  # atno 6907 bound_to 6896
  152.2491  134.8148  160.0458 H   0  0  0  0  0  0  0  0  0  0  0  0  # atno 6908 bound_to 6896
  151.8902  133.3479  159.3832 H   0  0  0  0  0  0  0  0  0  0  0  0  # atno 6909 bound_to 6896
  145.0434  139.3944  143.5090 H   0  0  0  0  0  0  0  0  0  0  0  0  # atno 7974 bound_to 7965
  154.5527  140.2321  155.8459 H   0  0  0  0  0  0  0  0  0  0  0  0  # atno 8008 bound_to 7997
  156.1961  140.3064  155.9391 H   0  0  0  0  0  0  0  0  0  0  0  0  # atno 8009 bound_to 7997
  155.3039  140.0432  157.3021 H   0  0  0  0  0  0  0  0  0  0  0  0  # atno 8010 bound_to 7997
  140.7045  143.3176  151.2871 H   0  0  0  0  0  0  0  0  0  0  0  0  # atno 10167 bound_to 10162
  157.0205  131.0230  151.2776 H   0  0  0  0  0  0  0  0  0  0  0  0  # atno 10718 bound_to 10713
  154.3843  135.6067  153.5808 H   0  0  0  0  0  0  0  0  0  0  0  0  # atno 10763 bound_to 10752
  152.9788  135.5868  154.4373 H   0  0  0  0  0  0  0  0  0  0  0  0  # atno 10764 bound_to 10752
  154.4147  135.2845  155.1992 H   0  0  0  0  0  0  0  0  0  0  0  0  # atno 10765 bound_to 10752
  139.9581  134.7109  156.0708 H   0  0  0  0  0  0  0  0  0  0  0  0  # atno 11005 bound_to 11000
  146.3511  140.0046  142.8673 LP  0  0  0  0  0  0  0  0  0  0  0  0  # atno 17320 bound_to 7965
  145.1619  140.9677  143.4372 LP  0  0  0  0  0  0  0  0  0  0  0  0  # atno 17321 bound_to 7965
  139.6619  144.0173  152.2698 LP  0  0  0  0  0  0  0  0  0  0  0  0  # atno 17342 bound_to 10162
  139.9743  144.6472  150.7959 LP  0  0  0  0  0  0  0  0  0  0  0  0  # atno 17343 bound_to 10162
  157.5253  130.8024  149.7855 LP  0  0  0  0  0  0  0  0  0  0  0  0  # atno 17370 bound_to 10713
  156.0104  130.3836  150.2285 LP  0  0  0  0  0  0  0  0  0  0  0  0  # atno 17371 bound_to 10713
  141.1255  133.6600  156.3324 LP  0  0  0  0  0  0  0  0  0  0  0  0  # atno 17394 bound_to 11000
  140.5563  134.5978  157.5422 LP  0  0  0  0  0  0  0  0  0  0  0  0  # atno 17395 bound_to 11000

$$$$
