AV-unprocessed.smi:680|AV-procd|sdf|3323|dock4
  -GOLD-   22720 0293D 1   1.00000     0.00000
 Structure written by MMmdl.
 32 33  0  0  0  0  0  0  0  0  1 V2000
  150.7232  141.9364  156.2911 C   0  0  0  0  0  0  0  0  0  0  0  0
  150.3953  140.7850  155.3870 C   0  0  0  0  0  0  0  0  0  0  0  0
  149.1152  140.3368  154.9575 C   0  0  0  0  0  0  0  0  0  0  0  0
  149.4209  139.2684  154.1572 C   0  0  0  0  0  0  0  0  0  0  0  0
  148.5744  138.4576  153.4703 N   0  0  0  0  0  0  0  0  0  0  0  0
  147.2329  138.5105  153.3902 C   0  0  0  0  0  0  0  0  0  0  0  0
  146.5163  139.3409  153.9492 O   0  0  0  0  0  0  0  0  0  0  0  0
  146.7581  137.5241  152.6154 N   0  0  0  0  0  0  0  0  0  0  0  0
  145.3481  137.2689  152.3308 C   0  0  0  0  0  0  0  0  0  0  0  0
  145.0668  135.7657  152.1422 C   0  0  2  0  0  0  0  0  0  0  0  0
  145.7046  135.2455  150.8412 C   0  0  0  0  0  0  0  0  0  0  0  0
  145.7158  133.4324  150.7558 S   0  0  0  0  0  0  0  0  0  0  0  0
  143.9320  133.1077  150.7844 C   0  0  0  0  0  0  0  0  0  0  0  0
  143.2788  133.6228  152.0725 C   0  0  0  0  0  0  0  0  0  0  0  0
  143.2757  135.4351  152.1518 S   0  0  0  0  0  0  0  0  0  0  0  0
  150.7600  139.0718  154.0910 O   0  0  0  0  0  0  0  0  0  0  0  0
  151.3746  140.0477  154.8844 N   0  0  0  0  0  0  0  0  0  0  0  0
  149.8182  142.4451  156.6237 H   0  0  0  0  0  0  0  0  0  0  0  0
  151.3472  142.6706  155.7812 H   0  0  0  0  0  0  0  0  0  0  0  0
  151.2597  141.5995  157.1785 H   0  0  0  0  0  0  0  0  0  0  0  0
  148.1477  140.7463  155.2053 H   0  0  0  0  0  0  0  0  0  0  0  0
  149.0191  137.7070  152.9627 H   0  0  0  0  0  0  0  0  0  0  0  0
  147.4235  136.8893  152.1987 H   0  0  0  0  0  0  0  0  0  0  0  0
  144.6965  137.6793  153.1042 H   0  0  0  0  0  0  0  0  0  0  0  0
  145.1048  137.8070  151.4142 H   0  0  0  0  0  0  0  0  0  0  0  0
  145.5087  135.2292  152.9831 H   0  0  0  0  0  0  0  0  0  0  0  0
  145.1884  135.6476  149.9687 H   0  0  0  0  0  0  0  0  0  0  0  0
  146.7411  135.5770  150.7738 H   0  0  0  0  0  0  0  0  0  0  0  0
  143.4666  133.5610  149.9086 H   0  0  0  0  0  0  0  0  0  0  0  0
  143.7835  132.0310  150.7015 H   0  0  0  0  0  0  0  0  0  0  0  0
  142.2444  133.2823  152.1205 H   0  0  0  0  0  0  0  0  0  0  0  0
  143.7858  133.2214  152.9503 H   0  0  0  0  0  0  0  0  0  0  0  0
  1  2  1  0  0  0  0
  1 18  1  0  0  0  0
  1 19  1  0  0  0  0
  1 20  1  0  0  0  0
  2 17  2  0  0  0  0
  2  3  1  0  0  0  0
  3  4  2  0  0  0  0
  3 21  1  0  0  0  0
  4  5  1  0  0  0  0
  4 16  1  0  0  0  0
  5  6  1  0  0  0  0
  5 22  1  0  0  0  0
  6  7  2  0  0  0  0
  6  8  1  0  0  0  0
  8  9  1  0  0  0  0
  8 23  1  0  0  0  0
  9 10  1  0  0  0  0
  9 24  1  0  0  0  0
  9 25  1  0  0  0  0
 10 15  1  0  0  0  0
 10 11  1  0  0  0  0
 10 26  1  0  0  0  0
 11 12  1  0  0  0  0
 11 27  1  0  0  0  0
 11 28  1  0  0  0  0
 12 13  1  0  0  0  0
 13 14  1  0  0  0  0
 13 29  1  0  0  0  0
 13 30  1  0  0  0  0
 14 15  1  0  0  0  0
 14 31  1  0  0  0  0
 14 32  1  0  0  0  0
 16 17  1  0  0  0  0
M  END
> <s_m_source_file>
AV-unprocessed.smi

> <i_m_source_file_index>
680

> <i_lp_mmshare_version>
43012

> <i_f3d_flags>
0

> <s_epik_input>
W0NIM11jMVtjSF1jKG9uMSlbTkhdQyg9TylbTkhdW0NIMl1bQ0BASF0yW0NIMl1TW0NIMl1bQ0gyXVMy

> <s_epik_cmdline>
J2VwaWtfcHl0aG9uJywgJy1waCcsICc3LjAnLCAnLXRuJywgJzgnLCAnLW1hJywgJzIwMCcsICctbWV0YWxfYmluZGluZycsICctaW1hZScsICc8aW5maWxlLm1hZT4nLCAnLW9tYWUnLCAnPG91dGZpbGUubWFlPic=

> <r_epik_Ionization_Penalty>
0.000554698

> <r_epik_Ionization_Penalty_Charging>
0

> <r_epik_Ionization_Penalty_Neutral>
0.000554698

> <r_epik_State_Penalty>
0.000333438

> <r_epik_Charging_Adjusted_Penalty>
0.000333438

> <i_epik_Tot_Q>
0

> <i_epik_Tot_abs_Q>
0

> <r_epik_Metal_State_Penalty>
-0

> <b_epik_Metal_Only>
0

> <s_lp_Force_Field>
OPLS_2005

> <r_lp_Energy>
4.32293

> <b_lp_Chiralities_Consistent>
1

> <s_lp_Variant>
AV-unprocessed.smi:680-1

> <Gold.Version>
5.8.1

> <Gold.Id.Protein>
6NUR|6NUR_protein|mol2

> <Gold.PLP.Fitness>
36.6267

> <Gold.PLP.PLP>
-30.0631

> <Gold.PLP.part.hbond>
-4.9626

> <Gold.PLP.part.metal>
0.0000

> <Gold.PLP.part.buried>
-1.8751

> <Gold.PLP.part.nonpolar>
-24.0059

> <Gold.PLP.part.repulsive>
0.5007

> <Gold.PLP.ligand.clash>
0.0000

> <Gold.PLP.ligand.torsion>
0.2450

> <Gold.PLP.Chemscore.Hbond>
2.3500

> <Gold.PLP.Chemscore.CHOScore>
0.0000

> <Gold.PLP.Chemscore.Metal>
0.0000

> <Gold.Chemscore.Hbonds>
donor molecule, donor type, donor heavy atom, donor atom, acceptor molecule, acceptor atom, score
      L1  H     5    22       P1  7948  1.00
      L1  H     8    23       P1  7948  1.00
      P1  H  7989  7998       L1    17  0.35

> <Gold.PLP.Chemscore.Internal.Correction>
0.0035

> <Gold.Rescore>
     Score         DG    S(hbond)    S(metal)    S(lipo)     H(rot)  DE(clash)    DE(int)     intcor
     14.78     -16.24       1.96        0.00      63.48       1.26       0.07       1.39       ----

> <Gold.Chemscore.Fitness>
14.7753

> <Gold.Chemscore.DG>
-16.2368

> <Gold.Chemscore.ZeroCoef>
-5.4800

> <Gold.Chemscore.Hbond>
1.9621

> <Gold.Chemscore.Metal>
0.0000

> <Gold.Chemscore.Lipo>
63.4754

> <Gold.Chemscore.Internal_Hbond>
0.0000

> <Gold.Chemscore.DEClash>
0.0682

> <Gold.Chemscore.DEInternal>
1.3932

> <Gold.Chemscore.Rot>
1.2590

> <Gold.Chemscore.Internal.Correction>
   9.000000E+99

> <Gold.Chemscore.Hbonds>
donor molecule, donor type, donor heavy atom, donor atom, acceptor molecule, acceptor atom, score
      L1  H     5    22       P1  7948  0.97
      L1  H     8    23       P1  7948  0.99

> <Gold.Chemscore.Hbond.Weighted>
-6.5533

> <Gold.Chemscore.Metal.Weighted>
-0.0000

> <Gold.Chemscore.Lipo.Weighted>
-7.4266

> <Gold.Chemscore.Internal_Hbond.Weighted>
0.0000

> <Gold.Chemscore.DEClash.Weighted>
0.0682

> <Gold.Chemscore.DEInternal.Weighted>
1.3932

> <Gold.Chemscore.Rot.Weighted>
3.2232

> <Gold.Chemscore.Internal.Correction.Weighted>
   9.000000E+99

> <Gold.Protein.RotatedTorsions>
[ 6907 6896 6895 6894 ] final -179.56 input  -60.11 | X-H torsion
[ 7974 7965 7964 7962 ] final   81.25 input  175.53 | X-H torsion
[ 8008 7997 7996 7995 ] final   17.34 input   59.86 | X-H torsion
[ 10167 10162 10161 10158 ] final   34.26 input  -65.29 | X-H torsion
[ 10718 10713 10712 10709 ] final   32.96 input   66.30 | X-H torsion
[ 10763 10752 10751 10750 ] final -157.63 input  -60.55 | X-H torsion
[ 11005 11000 10999 10996 ] final -107.80 input  -57.11 | X-H torsion

> <Gold.Protein.ActiveResidues>
 VAL166  LYS551  ARG553  GLY616  TRP617  ASP618  TYR619  PRO620  LYS621  CYS622 
 ASP623  PHE694  ASN695  SER759  ASP760  ASP761  ALA762  ILE779  LEU786  VAL792 
 PHE793  MET794  SER795  GLU796  ALA797  LYS798  CYS799  TRP800  GLU811  SER814 

> <Gold.Protein.RotatedAtoms>
  151.6554  133.3319  159.3161 H   0  0  0  0  0  0  0  0  0  0  0  0  # atno 6907 bound_to 6896
  150.7939  134.6988  159.6548 H   0  0  0  0  0  0  0  0  0  0  0  0  # atno 6908 bound_to 6896
  152.4024  134.6268  160.0116 H   0  0  0  0  0  0  0  0  0  0  0  0  # atno 6909 bound_to 6896
  145.6406  139.2424  143.2033 H   0  0  0  0  0  0  0  0  0  0  0  0  # atno 7974 bound_to 7965
  154.8901  140.2985  155.5376 H   0  0  0  0  0  0  0  0  0  0  0  0  # atno 8008 bound_to 7997
  156.3021  140.2426  156.3849 H   0  0  0  0  0  0  0  0  0  0  0  0  # atno 8009 bound_to 7997
  154.8628  140.0404  157.1664 H   0  0  0  0  0  0  0  0  0  0  0  0  # atno 8010 bound_to 7997
  140.4331  144.1295  150.6162 H   0  0  0  0  0  0  0  0  0  0  0  0  # atno 10167 bound_to 10162
  157.2919  130.7307  149.6615 H   0  0  0  0  0  0  0  0  0  0  0  0  # atno 10718 bound_to 10713
  154.7621  135.3120  154.8358 H   0  0  0  0  0  0  0  0  0  0  0  0  # atno 10763 bound_to 10752
  153.9116  135.6805  153.4755 H   0  0  0  0  0  0  0  0  0  0  0  0  # atno 10764 bound_to 10752
  153.1223  135.4817  154.9147 H   0  0  0  0  0  0  0  0  0  0  0  0  # atno 10765 bound_to 10752
  141.0935  133.9013  157.2019 H   0  0  0  0  0  0  0  0  0  0  0  0  # atno 11005 bound_to 11000
  146.1284  140.7218  142.9424 LP  0  0  0  0  0  0  0  0  0  0  0  0  # atno 17320 bound_to 7965
  144.7159  140.4206  143.7045 LP  0  0  0  0  0  0  0  0  0  0  0  0  # atno 17321 bound_to 7965
  140.4404  143.2529  151.9480 LP  0  0  0  0  0  0  0  0  0  0  0  0  # atno 17342 bound_to 10162
  139.4786  144.5660  151.8165 LP  0  0  0  0  0  0  0  0  0  0  0  0  # atno 17343 bound_to 10162
  155.9667  130.4306  150.4885 LP  0  0  0  0  0  0  0  0  0  0  0  0  # atno 17370 bound_to 10713
  157.2849  131.0614  151.2173 LP  0  0  0  0  0  0  0  0  0  0  0  0  # atno 17371 bound_to 10713
  139.9766  135.0112  156.9646 LP  0  0  0  0  0  0  0  0  0  0  0  0  # atno 17394 bound_to 11000
  140.5196  134.0921  155.7289 LP  0  0  0  0  0  0  0  0  0  0  0  0  # atno 17395 bound_to 11000

$$$$
