AV-unprocessed.smi:79|AV-procd|sdf|780|dock4
  -GOLD-   2262017143D 1   1.00000     0.00000
 Structure written by MMmdl.
 56 59  0  0  0  0  0  0  0  0  2 V2000
  151.3724  139.3391  154.7195 C   0  0  0  0  0  0  0  0  0  0  0  0
  151.4127  140.0920  156.0576 C   0  0  1  0  0  0  0  0  0  0  0  0
  152.7282  140.0182  156.5649 O   0  0  0  0  0  0  0  0  0  0  0  0
  151.0242  141.5784  155.9272 C   0  0  0  0  0  0  0  0  0  0  0  0
  149.5771  141.7758  155.6564 N   0  3  1  0  0  0  0  0  0  0  0  0
  149.1626  141.3259  154.2994 C   0  0  0  0  0  0  0  0  0  0  0  0
  147.6675  141.6012  154.0500 C   0  0  0  0  0  0  0  0  0  0  0  0
  146.8473  141.0061  155.0996 N   0  0  0  0  0  0  0  0  0  0  0  0
  146.5285  139.7107  154.8467 C   0  0  0  0  0  0  0  0  0  0  0  0
  147.4514  138.8552  154.3336 N   0  0  0  0  0  0  0  0  0  0  0  0
  147.1200  137.5885  154.0660 C   0  0  0  0  0  0  0  0  0  0  0  0
  145.9418  136.9832  154.2271 N   0  0  0  0  0  0  0  0  0  0  0  0
  145.0097  137.8402  154.7342 C   0  0  0  0  0  0  0  0  0  0  0  0
  145.2169  139.2087  155.0631 C   0  0  0  0  0  0  0  0  0  0  0  0
  144.0397  139.7665  155.5441 N   0  0  0  0  0  0  0  0  0  0  0  0
  143.1847  138.7806  155.5083 C   0  0  0  0  0  0  0  0  0  0  0  0
  143.6856  137.5833  155.0470 N   0  0  0  0  0  0  0  0  0  0  0  0
  142.9629  136.3288  154.9049 C   0  0  0  0  0  0  0  0  0  0  0  0
  141.9961  136.2680  153.7019 C   0  0  0  0  0  0  0  0  0  0  0  0
  142.3176  137.3841  152.6904 C   0  0  0  0  0  0  0  0  0  0  0  0
  143.6130  137.2491  152.1399 O   0  0  0  0  0  0  0  0  0  0  0  0
  141.7211  134.8753  153.1131 C   0  0  0  0  0  0  0  0  0  0  0  0
  140.4505  134.7718  153.7888 O   0  0  0  0  0  0  0  0  0  0  0  0
  140.5190  136.1757  154.1141 C   0  0  0  0  0  0  0  0  0  0  0  0
  147.2244  141.4449  156.4484 C   0  0  1  0  0  0  0  0  0  0  0  0
  146.2973  140.9200  157.5615 C   0  0  0  0  0  0  0  0  0  0  0  0
  148.7235  141.1978  156.7280 C   0  0  0  0  0  0  0  0  0  0  0  0
  150.3661  139.3302  154.3007 H   0  0  0  0  0  0  0  0  0  0  0  0
  151.6817  138.3008  154.8446 H   0  0  0  0  0  0  0  0  0  0  0  0
  152.0353  139.7969  153.9843 H   0  0  0  0  0  0  0  0  0  0  0  0
  150.7691  139.5880  156.7777 H   0  0  0  0  0  0  0  0  0  0  0  0
  152.7190  140.2670  157.4768 H   0  0  0  0  0  0  0  0  0  0  0  0
  151.2958  142.1284  156.8300 H   0  0  0  0  0  0  0  0  0  0  0  0
  151.6100  142.0168  155.1176 H   0  0  0  0  0  0  0  0  0  0  0  0
  149.7461  141.8349  153.5338 H   0  0  0  0  0  0  0  0  0  0  0  0
  149.3678  140.2594  154.1932 H   0  0  0  0  0  0  0  0  0  0  0  0
  147.4849  142.6762  154.0365 H   0  0  0  0  0  0  0  0  0  0  0  0
  147.3771  141.2309  153.0656 H   0  0  0  0  0  0  0  0  0  0  0  0
  147.9117  136.9723  153.6658 H   0  0  0  0  0  0  0  0  0  0  0  0
  142.1581  138.9039  155.8197 H   0  0  0  0  0  0  0  0  0  0  0  0
  143.7041  135.5318  154.8338 H   0  0  0  0  0  0  0  0  0  0  0  0
  142.4218  136.1395  155.8326 H   0  0  0  0  0  0  0  0  0  0  0  0
  141.6144  137.3676  151.8573 H   0  0  0  0  0  0  0  0  0  0  0  0
  142.2256  138.3697  153.1475 H   0  0  0  0  0  0  0  0  0  0  0  0
  143.6659  137.7852  151.3633 H   0  0  0  0  0  0  0  0  0  0  0  0
  141.6017  134.8673  152.0286 H   0  0  0  0  0  0  0  0  0  0  0  0
  142.4225  134.1044  153.4296 H   0  0  0  0  0  0  0  0  0  0  0  0
  140.3394  136.3673  155.1727 H   0  0  0  0  0  0  0  0  0  0  0  0
  139.8402  136.7656  153.4963 H   0  0  0  0  0  0  0  0  0  0  0  0
  147.0843  142.5267  156.4389 H   0  0  0  0  0  0  0  0  0  0  0  0
  146.5240  141.4065  158.5105 H   0  0  0  0  0  0  0  0  0  0  0  0
  146.3983  139.8471  157.7207 H   0  0  0  0  0  0  0  0  0  0  0  0
  145.2520  141.1274  157.3302 H   0  0  0  0  0  0  0  0  0  0  0  0
  148.9349  140.1325  156.8242 H   0  0  0  0  0  0  0  0  0  0  0  0
  148.9897  141.6532  157.6827 H   0  0  0  0  0  0  0  0  0  0  0  0
  149.4157  142.7721  155.6894 H   0  0  0  0  0  0  0  0  0  0  0  0
  1  2  1  0  0  0  0
  1 28  1  0  0  0  0
  1 29  1  0  0  0  0
  1 30  1  0  0  0  0
  2  3  1  0  0  0  0
  2  4  1  0  0  0  0
  2 31  1  0  0  0  0
  3 32  1  0  0  0  0
  4  5  1  0  0  0  0
  4 33  1  0  0  0  0
  4 34  1  0  0  0  0
  5 27  1  0  0  0  0
  5  6  1  0  0  0  0
  5 56  1  0  0  0  0
  6  7  1  0  0  0  0
  6 35  1  0  0  0  0
  6 36  1  0  0  0  0
  7  8  1  0  0  0  0
  7 37  1  0  0  0  0
  7 38  1  0  0  0  0
  8  9  1  0  0  0  0
  8 25  1  0  0  0  0
  9 14  1  0  0  0  0
  9 10  2  0  0  0  0
 10 11  1  0  0  0  0
 11 12  2  0  0  0  0
 11 39  1  0  0  0  0
 12 13  1  0  0  0  0
 13 17  1  0  0  0  0
 13 14  2  0  0  0  0
 14 15  1  0  0  0  0
 15 16  2  0  0  0  0
 16 17  1  0  0  0  0
 16 40  1  0  0  0  0
 17 18  1  0  0  0  0
 18 19  1  0  0  0  0
 18 41  1  0  0  0  0
 18 42  1  0  0  0  0
 19 24  1  0  0  0  0
 19 20  1  0  0  0  0
 19 22  1  0  0  0  0
 20 21  1  0  0  0  0
 20 43  1  0  0  0  0
 20 44  1  0  0  0  0
 21 45  1  0  0  0  0
 22 23  1  0  0  0  0
 22 46  1  0  0  0  0
 22 47  1  0  0  0  0
 23 24  1  0  0  0  0
 24 48  1  0  0  0  0
 24 49  1  0  0  0  0
 25 26  1  0  0  0  0
 25 27  1  0  0  0  0
 25 50  1  0  0  0  0
 26 51  1  0  0  0  0
 26 52  1  0  0  0  0
 26 53  1  0  0  0  0
 27 54  1  0  0  0  0
 27 55  1  0  0  0  0
M  CHG  1   5   1
M  END
> <s_m_source_file>
AV-unprocessed.smi

> <i_m_source_file_index>
79

> <i_lp_mmshare_version>
43012

> <i_f3d_flags>
0

> <s_epik_input>
W0NIM11bQ0BIXShbT0hdKVtDSDJdTjFbQ0gyXVtDSDJdTihbQ0BASF0oW0NIM10pW0NIMl0xKWMobltjSF1uMiljKGMyMyluW2NIXW4zW0NIMl1DNChbQ0gyXVtPSF0pW0NIMl1PW0NIMl00

> <s_epik_cmdline>
J2VwaWtfcHl0aG9uJywgJy1waCcsICc3LjAnLCAnLXRuJywgJzgnLCAnLW1hJywgJzIwMCcsICctbWV0YWxfYmluZGluZycsICctaW1hZScsICc8aW5maWxlLm1hZT4nLCAnLW9tYWUnLCAnPG91dGZpbGUubWFlPic=

> <r_lp_tautomer_probability>
1

> <r_epik_Ionization_Penalty>
0.00515943

> <r_epik_Ionization_Penalty_Charging>
0.00509693

> <r_epik_Ionization_Penalty_Neutral>
6.25007e-05

> <r_epik_State_Penalty>
-0

> <r_epik_Charging_Adjusted_Penalty>
0.00509693

> <i_epik_Tot_Q>
1

> <i_epik_Tot_abs_Q>
1

> <r_epik_Metal_State_Penalty>
-0

> <b_epik_Metal_Only>
0

> <s_lp_Force_Field>
OPLS_2005

> <r_lp_Energy>
48.5729

> <b_lp_Chiralities_Consistent>
1

> <s_lp_Variant>
AV-unprocessed.smi:79-4

> <Gold.Version>
5.8.1

> <Gold.Id.Protein>
6NUR|6NUR_protein|mol2

> <Gold.PLP.Fitness>
49.8716

> <Gold.PLP.PLP>
-34.5625

> <Gold.PLP.part.hbond>
-6.0000

> <Gold.PLP.part.metal>
0.0000

> <Gold.PLP.part.buried>
-4.7763

> <Gold.PLP.part.nonpolar>
-24.4258

> <Gold.PLP.part.repulsive>
0.6796

> <Gold.PLP.ligand.clash>
0.0000

> <Gold.PLP.ligand.torsion>
1.7727

> <Gold.PLP.Chemscore.Hbond>
5.0000

> <Gold.PLP.Chemscore.CHOScore>
0.9890

> <Gold.PLP.Chemscore.Metal>
0.0000

> <Gold.Chemscore.Hbonds>
donor molecule, donor type, donor heavy atom, donor atom, acceptor molecule, acceptor atom, score
      L1  H     5    56       P1  8028  2.00
      L1  H    21    45       P1 10171  1.00
      P1  H  7997  8010       L1     3  0.40
      P1  H 10995 11001       L1    23  0.03
      P1  H 11000 11005       L1    23  0.40
      L1  C    11    39       P1  7948  1.00

> <Gold.PLP.Chemscore.Internal.Correction>
0.8875

> <Gold.Rescore>
     Score         DG    S(hbond)    S(metal)    S(lipo)     H(rot)  DE(clash)    DE(int)     intcor
     12.21     -15.42       3.56        0.00      64.90       3.72       0.15       3.05       ----

> <Gold.Chemscore.Fitness>
12.2138

> <Gold.Chemscore.DG>
-15.4179

> <Gold.Chemscore.ZeroCoef>
-5.4800

> <Gold.Chemscore.Hbond>
3.5553

> <Gold.Chemscore.Metal>
0.0000

> <Gold.Chemscore.Lipo>
64.8965

> <Gold.Chemscore.Internal_Hbond>
0.0000

> <Gold.Chemscore.DEClash>
0.1528

> <Gold.Chemscore.DEInternal>
3.0513

> <Gold.Chemscore.Rot>
3.7226

> <Gold.Chemscore.Internal.Correction>
   9.000000E+99

> <Gold.Chemscore.Hbonds>
donor molecule, donor type, donor heavy atom, donor atom, acceptor molecule, acceptor atom, score
      L1  H     5    56       P1  8028  0.94
      L1  H    21    45       P1 10171  0.99
      P1  H  7997  8010       L1     3  0.01
      P1  H 10995 11001       L1    23  0.04
      P1  H 11000 11005       L1    23  0.01

> <Gold.Chemscore.Hbond.Weighted>
-11.8748

> <Gold.Chemscore.Metal.Weighted>
-0.0000

> <Gold.Chemscore.Lipo.Weighted>
-7.5929

> <Gold.Chemscore.Internal_Hbond.Weighted>
0.0000

> <Gold.Chemscore.DEClash.Weighted>
0.1528

> <Gold.Chemscore.DEInternal.Weighted>
3.0513

> <Gold.Chemscore.Rot.Weighted>
9.5298

> <Gold.Chemscore.Internal.Correction.Weighted>
   9.000000E+99

> <Gold.Protein.RotatedTorsions>
[ 6907 6896 6895 6894 ] final   35.98 input  -60.11 | X-H torsion
[ 7974 7965 7964 7962 ] final  136.09 input  175.53 | X-H torsion
[ 8008 7997 7996 7995 ] final   59.56 input   59.86 | X-H torsion
[ 10167 10162 10161 10158 ] final  176.09 input  -65.29 | X-H torsion
[ 10718 10713 10712 10709 ] final   25.12 input   66.30 | X-H torsion
[ 10763 10752 10751 10750 ] final   -4.18 input  -60.55 | X-H torsion
[ 11005 11000 10999 10996 ] final   41.00 input  -57.11 | X-H torsion

> <Gold.Protein.ActiveResidues>
 VAL166  LYS551  ARG553  GLY616  TRP617  ASP618  TYR619  PRO620  LYS621  CYS622 
 ASP623  PHE694  ASN695  SER759  ASP760  ASP761  ALA762  ILE779  LEU786  VAL792 
 PHE793  MET794  SER795  GLU796  ALA797  LYS798  CYS799  TRP800  GLU811  SER814 

> <Gold.Protein.RotatedAtoms>
  152.1235  134.9188  160.0561 H   0  0  0  0  0  0  0  0  0  0  0  0  # atno 6907 bound_to 6896
  152.0319  133.3936  159.4309 H   0  0  0  0  0  0  0  0  0  0  0  0  # atno 6908 bound_to 6896
  150.6851  134.3432  159.4920 H   0  0  0  0  0  0  0  0  0  0  0  0  # atno 6909 bound_to 6896
  144.9599  139.4722  143.5484 H   0  0  0  0  0  0  0  0  0  0  0  0  # atno 7974 bound_to 7965
  155.5681  140.3489  155.4508 H   0  0  0  0  0  0  0  0  0  0  0  0  # atno 8008 bound_to 7997
  156.0464  140.1308  157.0124 H   0  0  0  0  0  0  0  0  0  0  0  0  # atno 8009 bound_to 7997
  154.4415  140.1013  156.6298 H   0  0  0  0  0  0  0  0  0  0  0  0  # atno 8010 bound_to 7997
  139.5201  144.2955  152.0425 H   0  0  0  0  0  0  0  0  0  0  0  0  # atno 10167 bound_to 10162
  157.1891  130.6837  149.6143 H   0  0  0  0  0  0  0  0  0  0  0  0  # atno 10718 bound_to 10713
  153.3814  135.6998  153.6562 H   0  0  0  0  0  0  0  0  0  0  0  0  # atno 10763 bound_to 10752
  153.5172  135.3619  155.2615 H   0  0  0  0  0  0  0  0  0  0  0  0  # atno 10764 bound_to 10752
  154.8693  135.4149  154.3113 H   0  0  0  0  0  0  0  0  0  0  0  0  # atno 10765 bound_to 10752
  140.1876  134.4026  155.8164 H   0  0  0  0  0  0  0  0  0  0  0  0  # atno 11005 bound_to 11000
  146.3349  139.8742  142.8835 LP  0  0  0  0  0  0  0  0  0  0  0  0  # atno 17320 bound_to 7965
  145.2716  141.0110  143.3769 LP  0  0  0  0  0  0  0  0  0  0  0  0  # atno 17321 bound_to 7965
  140.2405  144.4275  150.6262 LP  0  0  0  0  0  0  0  0  0  0  0  0  # atno 17342 bound_to 10162
  140.6294  143.2185  151.6528 LP  0  0  0  0  0  0  0  0  0  0  0  0  # atno 17343 bound_to 10162
  155.9714  130.4621  150.6132 LP  0  0  0  0  0  0  0  0  0  0  0  0  # atno 17370 bound_to 10713
  157.3878  131.0791  151.1420 LP  0  0  0  0  0  0  0  0  0  0  0  0  # atno 17371 bound_to 10713
  141.2225  133.7031  156.8040 LP  0  0  0  0  0  0  0  0  0  0  0  0  # atno 17394 bound_to 11000
  140.2196  134.8767  157.3362 LP  0  0  0  0  0  0  0  0  0  0  0  0  # atno 17395 bound_to 11000

$$$$
