AV-unprocessed.smi:203|AV-procd|sdf|1589|dock9
  -GOLD-   2262019483D 1   1.00000     0.00000
 Structure written by MMmdl.
 57 61  0  0  0  0  0  0  0  0  1 V2000
  146.7125  130.8099  155.3749 O   0  0  0  0  0  0  0  0  0  0  0  0
  147.0479  131.7197  154.6202 C   0  0  0  0  0  0  0  0  0  0  0  0
  146.1269  132.8588  154.2188 C   0  0  0  0  0  0  0  0  0  0  0  0
  146.9099  133.5849  153.1055 C   0  0  2  0  0  0  0  0  0  0  0  0
  146.2880  133.4435  151.6798 C   0  0  1  0  0  0  0  0  0  0  0  0
  146.5273  132.0424  151.0566 C   0  0  0  0  0  0  0  0  0  0  0  0
  145.9052  131.9267  149.6591 C   0  0  0  0  0  0  0  0  0  0  0  0
  144.4122  132.2640  149.7254 C   0  0  0  0  0  0  0  0  0  0  0  0
  144.2072  133.6568  150.3347 C   0  0  0  0  0  0  0  0  0  0  0  0
  144.8496  133.7656  151.6444 N   0  0  0  0  0  0  0  0  0  0  0  0
  144.4805  134.9143  152.2541 C   0  0  0  0  0  0  0  0  0  0  0  0
  145.3935  135.9157  152.2943 N   0  0  0  0  0  0  0  0  0  0  0  0
  145.0808  137.0799  152.8716 C   0  0  0  0  0  0  0  0  0  0  0  0
  143.9370  137.4416  153.4577 N   0  0  0  0  0  0  0  0  0  0  0  0
  143.0213  136.4309  153.4258 C   0  0  0  0  0  0  0  0  0  0  0  0
  143.2080  135.1434  152.8497 C   0  0  0  0  0  0  0  0  0  0  0  0
  142.0573  134.3801  153.0085 N   0  0  0  0  0  0  0  0  0  0  0  0
  141.2377  135.1707  153.6463 C   0  0  0  0  0  0  0  0  0  0  0  0
  141.7350  136.4208  153.9357 N   0  0  0  0  0  0  0  0  0  0  0  0
  141.0416  137.4886  154.6337 C   0  0  0  0  0  0  0  0  0  0  0  0
  139.5934  137.1032  155.0058 C   0  0  1  0  0  0  0  0  0  0  0  0
  139.4459  137.0145  156.4088 O   0  0  0  0  0  0  0  0  0  0  0  0
  138.5174  138.0640  154.4584 C   0  0  2  0  0  0  0  0  0  0  0  0
  138.6772  139.5180  154.9136 C   0  0  0  0  0  0  0  0  0  0  0  0
  137.2547  140.0608  154.9364 C   0  0  0  0  0  0  0  0  0  0  0  0
  136.3797  138.8391  154.6533 C   0  0  0  0  0  0  0  0  0  0  0  0
  137.2201  137.7301  154.9289 O   0  0  0  0  0  0  0  0  0  0  0  0
  148.3475  133.0306  153.2050 C   0  0  0  0  0  0  0  0  0  0  0  0
  148.2418  131.8549  154.0469 N   0  0  0  0  0  0  0  0  0  0  0  0
  145.1542  132.4888  153.8939 H   0  0  0  0  0  0  0  0  0  0  0  0
  145.9690  133.5125  155.0772 H   0  0  0  0  0  0  0  0  0  0  0  0
  146.9716  134.6430  153.3610 H   0  0  0  0  0  0  0  0  0  0  0  0
  146.7895  134.1659  151.0350 H   0  0  0  0  0  0  0  0  0  0  0  0
  147.5924  131.8247  150.9860 H   0  0  0  0  0  0  0  0  0  0  0  0
  146.1004  131.2669  151.6927 H   0  0  0  0  0  0  0  0  0  0  0  0
  146.4096  132.6069  148.9716 H   0  0  0  0  0  0  0  0  0  0  0  0
  146.0468  130.9200  149.2656 H   0  0  0  0  0  0  0  0  0  0  0  0
  143.9721  132.2232  148.7288 H   0  0  0  0  0  0  0  0  0  0  0  0
  143.8920  131.5190  150.3287 H   0  0  0  0  0  0  0  0  0  0  0  0
  144.6167  134.4138  149.6643 H   0  0  0  0  0  0  0  0  0  0  0  0
  143.1387  133.8585  150.4263 H   0  0  0  0  0  0  0  0  0  0  0  0
  145.8583  137.8295  152.8616 H   0  0  0  0  0  0  0  0  0  0  0  0
  140.2412  134.8615  153.9270 H   0  0  0  0  0  0  0  0  0  0  0  0
  141.6146  137.7472  155.5248 H   0  0  0  0  0  0  0  0  0  0  0  0
  141.0510  138.3713  153.9941 H   0  0  0  0  0  0  0  0  0  0  0  0
  139.3837  136.1046  154.6204 H   0  0  0  0  0  0  0  0  0  0  0  0
  139.8252  136.1980  156.6969 H   0  0  0  0  0  0  0  0  0  0  0  0
  138.5125  138.0445  153.3663 H   0  0  0  0  0  0  0  0  0  0  0  0
  139.1022  139.5725  155.9160 H   0  0  0  0  0  0  0  0  0  0  0  0
  139.3305  140.0832  154.2483 H   0  0  0  0  0  0  0  0  0  0  0  0
  137.0285  140.4843  155.9155 H   0  0  0  0  0  0  0  0  0  0  0  0
  137.0984  140.8400  154.1898 H   0  0  0  0  0  0  0  0  0  0  0  0
  135.4770  138.8174  155.2641 H   0  0  0  0  0  0  0  0  0  0  0  0
  136.0830  138.8123  153.6035 H   0  0  0  0  0  0  0  0  0  0  0  0
  148.7857  132.7891  152.2366 H   0  0  0  0  0  0  0  0  0  0  0  0
  149.0065  133.7499  153.6927 H   0  0  0  0  0  0  0  0  0  0  0  0
  149.0076  131.2095  154.1779 H   0  0  0  0  0  0  0  0  0  0  0  0
  1  2  2  0  0  0  0
  2 29  1  0  0  0  0
  2  3  1  0  0  0  0
  3  4  1  0  0  0  0
  3 30  1  0  0  0  0
  3 31  1  0  0  0  0
  4  5  1  0  0  0  0
  4 28  1  0  0  0  0
  4 32  1  0  0  0  0
  5 10  1  0  0  0  0
  5  6  1  0  0  0  0
  5 33  1  0  0  0  0
  6  7  1  0  0  0  0
  6 34  1  0  0  0  0
  6 35  1  0  0  0  0
  7  8  1  0  0  0  0
  7 36  1  0  0  0  0
  7 37  1  0  0  0  0
  8  9  1  0  0  0  0
  8 38  1  0  0  0  0
  8 39  1  0  0  0  0
  9 10  1  0  0  0  0
  9 40  1  0  0  0  0
  9 41  1  0  0  0  0
 10 11  1  0  0  0  0
 11 16  1  0  0  0  0
 11 12  2  0  0  0  0
 12 13  1  0  0  0  0
 13 14  2  0  0  0  0
 13 42  1  0  0  0  0
 14 15  1  0  0  0  0
 15 19  1  0  0  0  0
 15 16  2  0  0  0  0
 16 17  1  0  0  0  0
 17 18  2  0  0  0  0
 18 19  1  0  0  0  0
 18 43  1  0  0  0  0
 19 20  1  0  0  0  0
 20 21  1  0  0  0  0
 20 44  1  0  0  0  0
 20 45  1  0  0  0  0
 21 22  1  0  0  0  0
 21 23  1  0  0  0  0
 21 46  1  0  0  0  0
 22 47  1  0  0  0  0
 23 27  1  0  0  0  0
 23 24  1  0  0  0  0
 23 48  1  0  0  0  0
 24 25  1  0  0  0  0
 24 49  1  0  0  0  0
 24 50  1  0  0  0  0
 25 26  1  0  0  0  0
 25 51  1  0  0  0  0
 25 52  1  0  0  0  0
 26 27  1  0  0  0  0
 26 53  1  0  0  0  0
 26 54  1  0  0  0  0
 28 29  1  0  0  0  0
 28 55  1  0  0  0  0
 28 56  1  0  0  0  0
 29 57  1  0  0  0  0
M  END
> <s_m_source_file>
AV-unprocessed.smi

> <i_m_source_file_index>
203

> <i_lp_mmshare_version>
43012

> <i_f3d_flags>
0

> <s_epik_input>
Tz1DMVtDSDJdW0NASF0oW0NIMl1bTkhdMSlbQ0BASF0yW0NIMl1bQ0gyXVtDSDJdW0NIMl1OMmMobltjSF1uMyljKGMzNCluW2NIXW40W0NIMl1bQ0BIXShbT0hdKVtDQEBIXTVbQ0gyXVtDSDJdW0NIMl1PNQ==

> <s_epik_cmdline>
J2VwaWtfcHl0aG9uJywgJy1waCcsICc3LjAnLCAnLXRuJywgJzgnLCAnLW1hJywgJzIwMCcsICctbWV0YWxfYmluZGluZycsICctaW1hZScsICc8aW5maWxlLm1hZT4nLCAnLW9tYWUnLCAnPG91dGZpbGUubWFlPic=

> <r_lp_tautomer_probability>
1

> <r_epik_Ionization_Penalty>
0.00175146

> <r_epik_Ionization_Penalty_Charging>
0

> <r_epik_Ionization_Penalty_Neutral>
0.00175146

> <r_epik_State_Penalty>
0.00109045

> <r_epik_Charging_Adjusted_Penalty>
0.00109045

> <i_epik_Tot_Q>
0

> <i_epik_Tot_abs_Q>
0

> <r_epik_Metal_State_Penalty>
-0

> <b_epik_Metal_Only>
0

> <s_lp_Force_Field>
OPLS_2005

> <r_lp_Energy>
57.3309

> <b_lp_Chiralities_Consistent>
1

> <s_lp_Variant>
AV-unprocessed.smi:203-8

> <Gold.Version>
5.8.1

> <Gold.Id.Protein>
6NUR|6NUR_protein|mol2

> <Gold.PLP.Fitness>
43.8299

> <Gold.PLP.PLP>
-43.4182

> <Gold.PLP.part.hbond>
-1.0000

> <Gold.PLP.part.metal>
0.0000

> <Gold.PLP.part.buried>
-5.8716

> <Gold.PLP.part.nonpolar>
-38.1216

> <Gold.PLP.part.repulsive>
1.1551

> <Gold.PLP.ligand.clash>
0.0000

> <Gold.PLP.ligand.torsion>
1.4895

> <Gold.PLP.Chemscore.Hbond>
0.9913

> <Gold.PLP.Chemscore.CHOScore>
0.0541

> <Gold.PLP.Chemscore.Metal>
0.0000

> <Gold.Chemscore.Hbonds>
donor molecule, donor type, donor heavy atom, donor atom, acceptor molecule, acceptor atom, score
      L1  H    22    47       P1 11000  0.88
      L1  C    18    43       P1 11000  0.16

> <Gold.PLP.Chemscore.Internal.Correction>
0.2545

> <Gold.Rescore>
     Score         DG    S(hbond)    S(metal)    S(lipo)     H(rot)  DE(clash)    DE(int)     intcor
      8.84     -12.69       0.96        0.00      93.67       2.72       1.02       2.83       ----

> <Gold.Chemscore.Fitness>
8.8387

> <Gold.Chemscore.DG>
-12.6854

> <Gold.Chemscore.ZeroCoef>
-5.4800

> <Gold.Chemscore.Hbond>
0.9585

> <Gold.Chemscore.Metal>
0.0000

> <Gold.Chemscore.Lipo>
93.6740

> <Gold.Chemscore.Internal_Hbond>
0.0000

> <Gold.Chemscore.DEClash>
1.0208

> <Gold.Chemscore.DEInternal>
2.8260

> <Gold.Chemscore.Rot>
2.7171

> <Gold.Chemscore.Internal.Correction>
   9.000000E+99

> <Gold.Chemscore.Hbonds>
donor molecule, donor type, donor heavy atom, donor atom, acceptor molecule, acceptor atom, score
      L1  H    22    47       P1 11000  0.84

> <Gold.Chemscore.Hbond.Weighted>
-3.2013

> <Gold.Chemscore.Metal.Weighted>
-0.0000

> <Gold.Chemscore.Lipo.Weighted>
-10.9599

> <Gold.Chemscore.Internal_Hbond.Weighted>
0.0000

> <Gold.Chemscore.DEClash.Weighted>
1.0208

> <Gold.Chemscore.DEInternal.Weighted>
2.8260

> <Gold.Chemscore.Rot.Weighted>
6.9557

> <Gold.Chemscore.Internal.Correction.Weighted>
   9.000000E+99

> <Gold.Protein.RotatedTorsions>
[ 6907 6896 6895 6894 ] final  -80.83 input  -60.11 | X-H torsion
[ 7974 7965 7964 7962 ] final   46.12 input  175.53 | X-H torsion
[ 8008 7997 7996 7995 ] final   30.68 input   59.86 | X-H torsion
[ 10167 10162 10161 10158 ] final   83.74 input  -65.29 | X-H torsion
[ 10718 10713 10712 10709 ] final   40.60 input   66.30 | X-H torsion
[ 10763 10752 10751 10750 ] final -109.80 input  -60.55 | X-H torsion
[ 11005 11000 10999 10996 ] final  -81.30 input  -57.11 | X-H torsion

> <Gold.Protein.ActiveResidues>
 VAL166  LYS551  ARG553  GLY616  TRP617  ASP618  TYR619  PRO620  LYS621  CYS622 
 ASP623  PHE694  ASN695  SER759  ASP760  ASP761  ALA762  ILE779  LEU786  VAL792 
 PHE793  MET794  SER795  GLU796  ALA797  LYS798  CYS799  TRP800  GLU811  SER814 

> <Gold.Protein.RotatedAtoms>
  150.6922  134.3910  159.5076 H   0  0  0  0  0  0  0  0  0  0  0  0  # atno 6907 bound_to 6896
  152.1698  134.8840  160.0544 H   0  0  0  0  0  0  0  0  0  0  0  0  # atno 6908 bound_to 6896
  151.9871  133.3743  159.4166 H   0  0  0  0  0  0  0  0  0  0  0  0  # atno 6909 bound_to 6896
  146.0419  139.4890  142.9773 H   0  0  0  0  0  0  0  0  0  0  0  0  # atno 7974 bound_to 7965
  155.0943  140.3223  155.4565 H   0  0  0  0  0  0  0  0  0  0  0  0  # atno 8008 bound_to 7997
  156.2734  140.2072  156.6016 H   0  0  0  0  0  0  0  0  0  0  0  0  # atno 8009 bound_to 7997
  154.6879  140.0519  157.0320 H   0  0  0  0  0  0  0  0  0  0  0  0  # atno 8010 bound_to 7997
  139.9153  144.6246  150.8495 H   0  0  0  0  0  0  0  0  0  0  0  0  # atno 10167 bound_to 10162
  157.3840  130.7769  149.7215 H   0  0  0  0  0  0  0  0  0  0  0  0  # atno 10718 bound_to 10713
  154.8213  135.4587  154.0788 H   0  0  0  0  0  0  0  0  0  0  0  0  # atno 10763 bound_to 10752
  153.2139  135.6885  153.8087 H   0  0  0  0  0  0  0  0  0  0  0  0  # atno 10764 bound_to 10752
  153.7529  135.3295  155.3301 H   0  0  0  0  0  0  0  0  0  0  0  0  # atno 10765 bound_to 10752
  141.1667  133.7190  156.8401 H   0  0  0  0  0  0  0  0  0  0  0  0  # atno 11005 bound_to 11000
  145.6871  141.0175  143.1575 LP  0  0  0  0  0  0  0  0  0  0  0  0  # atno 17320 bound_to 7965
  144.7078  139.8488  143.7424 LP  0  0  0  0  0  0  0  0  0  0  0  0  # atno 17321 bound_to 7965
  140.7675  143.3336  151.2357 LP  0  0  0  0  0  0  0  0  0  0  0  0  # atno 17342 bound_to 10162
  139.6908  143.9696  152.2858 LP  0  0  0  0  0  0  0  0  0  0  0  0  # atno 17343 bound_to 10162
  155.9782  130.4054  150.3662 LP  0  0  0  0  0  0  0  0  0  0  0  0  # atno 17370 bound_to 10713
  157.1770  131.0383  151.2767 LP  0  0  0  0  0  0  0  0  0  0  0  0  # atno 17371 bound_to 10713
  140.1989  134.8911  157.3146 LP  0  0  0  0  0  0  0  0  0  0  0  0  # atno 17394 bound_to 11000
  140.2209  134.4025  155.7566 LP  0  0  0  0  0  0  0  0  0  0  0  0  # atno 17395 bound_to 11000

$$$$
