AV-unprocessed.smi:2146|AV-procd|sdf|8740|dock5
  -GOLD-   2272011513D 1   1.00000     0.00000
 Structure written by MMmdl.
 45 46  0  0  0  0  0  0  0  0  2 V2000
  146.9435  137.4938  154.7453 C   0  0  0  0  0  0  0  0  0  0  0  0
  147.1947  136.0138  155.1281 C   0  0  2  0  0  0  0  0  0  0  0  0
  148.4559  135.8995  156.0219 C   0  0  0  0  0  0  0  0  0  0  0  0
  148.2272  136.4101  157.3690 N   0  0  0  0  0  0  0  0  0  0  0  0
  148.9082  136.0186  158.4554 C   0  0  0  0  0  0  0  0  0  0  0  0
  149.7976  135.1670  158.4178 O   0  0  0  0  0  0  0  0  0  0  0  0
  148.5081  136.6966  159.7745 C   0  0  0  0  0  0  0  0  0  0  0  0
  147.7894  135.8088  160.7047 N   0  0  0  0  0  0  0  0  0  0  0  0
  147.5473  134.4902  160.2719 C   0  0  0  0  0  0  0  0  0  0  0  0
  146.9104  133.5753  161.0282 C   0  0  0  0  0  0  0  0  0  0  0  0
  146.6135  132.1757  160.5121 C   0  0  0  0  0  0  0  0  0  0  0  0
  145.9291  131.4684  161.4114 F   0  0  0  0  0  0  0  0  0  0  0  0
  145.9029  132.2182  159.3843 F   0  0  0  0  0  0  0  0  0  0  0  0
  147.7537  131.5343  160.2601 F   0  0  0  0  0  0  0  0  0  0  0  0
  146.4447  134.0231  162.3259 C   0  0  0  0  0  0  0  0  0  0  0  0
  146.6632  135.2822  162.7531 C   0  0  0  0  0  0  0  0  0  0  0  0
  147.3779  136.2587  161.9280 C   0  0  0  0  0  0  0  0  0  0  0  0
  147.5929  137.4087  162.3116 O   0  0  0  0  0  0  0  0  0  0  0  0
  147.3075  135.1060  153.9381 N   0  3  0  0  0  0  0  0  0  0  0  0
  147.8404  133.7602  154.2892 C   0  0  0  0  0  0  0  0  0  0  0  0
  148.0142  132.8858  153.0368 C   0  0  0  0  0  0  0  0  0  0  0  0
  146.7671  132.7611  152.3707 O   0  0  0  0  0  0  0  0  0  0  0  0
  146.2877  134.0216  151.9287 C   0  0  0  0  0  0  0  0  0  0  0  0
  146.0623  134.9500  153.1347 C   0  0  0  0  0  0  0  0  0  0  0  0
  146.9009  138.1407  155.6212 H   0  0  0  0  0  0  0  0  0  0  0  0
  145.9876  137.6291  154.2393 H   0  0  0  0  0  0  0  0  0  0  0  0
  147.7322  137.8767  154.0966 H   0  0  0  0  0  0  0  0  0  0  0  0
  146.3306  135.6881  155.7095 H   0  0  0  0  0  0  0  0  0  0  0  0
  148.7837  134.8656  156.1176 H   0  0  0  0  0  0  0  0  0  0  0  0
  149.2826  136.4512  155.5712 H   0  0  0  0  0  0  0  0  0  0  0  0
  147.5098  137.1123  157.4815 H   0  0  0  0  0  0  0  0  0  0  0  0
  149.4050  137.0967  160.2510 H   0  0  0  0  0  0  0  0  0  0  0  0
  147.8991  137.5709  159.5398 H   0  0  0  0  0  0  0  0  0  0  0  0
  147.9160  134.2678  159.2812 H   0  0  0  0  0  0  0  0  0  0  0  0
  145.9162  133.3356  162.9699 H   0  0  0  0  0  0  0  0  0  0  0  0
  146.3051  135.5800  163.7277 H   0  0  0  0  0  0  0  0  0  0  0  0
  148.8051  133.8322  154.7869 H   0  0  0  0  0  0  0  0  0  0  0  0
  147.1607  133.2698  154.9877 H   0  0  0  0  0  0  0  0  0  0  0  0
  148.7644  133.3072  152.3654 H   0  0  0  0  0  0  0  0  0  0  0  0
  148.3622  131.8919  153.3190 H   0  0  0  0  0  0  0  0  0  0  0  0
  146.9907  134.4649  151.2214 H   0  0  0  0  0  0  0  0  0  0  0  0
  145.3507  133.8721  151.3917 H   0  0  0  0  0  0  0  0  0  0  0  0
  145.2653  134.5557  153.7672 H   0  0  0  0  0  0  0  0  0  0  0  0
  145.7273  135.9103  152.7444 H   0  0  0  0  0  0  0  0  0  0  0  0
  147.9806  135.5351  153.3189 H   0  0  0  0  0  0  0  0  0  0  0  0
  1  2  1  0  0  0  0
  1 25  1  0  0  0  0
  1 26  1  0  0  0  0
  1 27  1  0  0  0  0
  2  3  1  0  0  0  0
  2 19  1  0  0  0  0
  2 28  1  0  0  0  0
  3  4  1  0  0  0  0
  3 29  1  0  0  0  0
  3 30  1  0  0  0  0
  4  5  1  0  0  0  0
  4 31  1  0  0  0  0
  5  6  2  0  0  0  0
  5  7  1  0  0  0  0
  7  8  1  0  0  0  0
  7 32  1  0  0  0  0
  7 33  1  0  0  0  0
  8 17  1  0  0  0  0
  8  9  1  0  0  0  0
  9 10  2  0  0  0  0
  9 34  1  0  0  0  0
 10 11  1  0  0  0  0
 10 15  1  0  0  0  0
 11 12  1  0  0  0  0
 11 13  1  0  0  0  0
 11 14  1  0  0  0  0
 15 16  2  0  0  0  0
 15 35  1  0  0  0  0
 16 17  1  0  0  0  0
 16 36  1  0  0  0  0
 17 18  2  0  0  0  0
 19 24  1  0  0  0  0
 19 20  1  0  0  0  0
 19 45  1  0  0  0  0
 20 21  1  0  0  0  0
 20 37  1  0  0  0  0
 20 38  1  0  0  0  0
 21 22  1  0  0  0  0
 21 39  1  0  0  0  0
 21 40  1  0  0  0  0
 22 23  1  0  0  0  0
 23 24  1  0  0  0  0
 23 41  1  0  0  0  0
 23 42  1  0  0  0  0
 24 43  1  0  0  0  0
 24 44  1  0  0  0  0
M  CHG  1  19   1
M  END
> <s_m_source_file>
AV-unprocessed.smi

> <i_m_source_file_index>
2146

> <i_lp_mmshare_version>
43012

> <i_f3d_flags>
0

> <s_epik_input>
W0NIMl0xW0NIMl1PW0NIMl1bQ0gyXU4xW0NASF0oW0NIM10pW0NIMl1bTkhdQyg9TylbQ0gyXW4yW2NIXWMoQyhGKShGKUYpW2NIXVtjSF1jMj1P

> <s_epik_cmdline>
J2VwaWtfcHl0aG9uJywgJy1waCcsICc3LjAnLCAnLXRuJywgJzgnLCAnLW1hJywgJzIwMCcsICctbWV0YWxfYmluZGluZycsICctaW1hZScsICc8aW5maWxlLm1hZT4nLCAnLW9tYWUnLCAnPG91dGZpbGUubWFlPic=

> <r_lp_tautomer_probability>
1

> <r_epik_Ionization_Penalty>
0.656654

> <r_epik_Ionization_Penalty_Charging>
0.656653

> <r_epik_Ionization_Penalty_Neutral>
9.12373e-08

> <r_epik_State_Penalty>
0.675641

> <r_epik_Charging_Adjusted_Penalty>
1.33229

> <i_epik_Tot_Q>
1

> <i_epik_Tot_abs_Q>
1

> <r_epik_Metal_State_Penalty>
0.675692

> <b_epik_Metal_Only>
0

> <s_lp_Force_Field>
OPLS_2005

> <r_lp_Energy>
33.6044

> <b_lp_Chiralities_Consistent>
1

> <s_lp_Variant>
AV-unprocessed.smi:2146-3

> <Gold.Version>
5.8.1

> <Gold.Id.Protein>
6NUR|6NUR_protein|mol2

> <Gold.PLP.Fitness>
48.4883

> <Gold.PLP.PLP>
-37.3762

> <Gold.PLP.part.hbond>
-3.9607

> <Gold.PLP.part.metal>
0.0000

> <Gold.PLP.part.buried>
-3.6229

> <Gold.PLP.part.nonpolar>
-30.0287

> <Gold.PLP.part.repulsive>
0.5426

> <Gold.PLP.ligand.clash>
0.4945

> <Gold.PLP.ligand.torsion>
0.5711

> <Gold.PLP.Chemscore.Hbond>
4.2160

> <Gold.PLP.Chemscore.CHOScore>
0.0000

> <Gold.PLP.Chemscore.Metal>
0.0000

> <Gold.Chemscore.Hbonds>
donor molecule, donor type, donor heavy atom, donor atom, acceptor molecule, acceptor atom, score
      L1  H    19    45       P1  7948  2.00
      P1  H  6896  6908       L1     6  1.00
      P1  H  6931  6943       L1    18  0.78
      P1  H  6934  6947       L1    18  0.35

> <Gold.PLP.Chemscore.Internal.Correction>
0.1009

> <Gold.Rescore>
     Score         DG    S(hbond)    S(metal)    S(lipo)     H(rot)  DE(clash)    DE(int)     intcor
     16.27     -17.92       3.27        0.00      60.65       2.18       0.02       1.63       ----

> <Gold.Chemscore.Fitness>
16.2679

> <Gold.Chemscore.DG>
-17.9213

> <Gold.Chemscore.ZeroCoef>
-5.4800

> <Gold.Chemscore.Hbond>
3.2715

> <Gold.Chemscore.Metal>
0.0000

> <Gold.Chemscore.Lipo>
60.6548

> <Gold.Chemscore.Internal_Hbond>
0.0000

> <Gold.Chemscore.DEClash>
0.0234

> <Gold.Chemscore.DEInternal>
1.6299

> <Gold.Chemscore.Rot>
2.1805

> <Gold.Chemscore.Internal.Correction>
   9.000000E+99

> <Gold.Chemscore.Hbonds>
donor molecule, donor type, donor heavy atom, donor atom, acceptor molecule, acceptor atom, score
      L1  H    19    45       P1  7948  1.00
      P1  H  6896  6908       L1     6  0.92
      P1  H  6931  6943       L1    18  0.77
      P1  H  6934  6947       L1    18  0.34

> <Gold.Chemscore.Hbond.Weighted>
-10.9268

> <Gold.Chemscore.Metal.Weighted>
-0.0000

> <Gold.Chemscore.Lipo.Weighted>
-7.0966

> <Gold.Chemscore.Internal_Hbond.Weighted>
0.0000

> <Gold.Chemscore.DEClash.Weighted>
0.0234

> <Gold.Chemscore.DEInternal.Weighted>
1.6299

> <Gold.Chemscore.Rot.Weighted>
5.5822

> <Gold.Chemscore.Internal.Correction.Weighted>
   9.000000E+99

> <Gold.Protein.RotatedTorsions>
[ 6907 6896 6895 6894 ] final  175.40 input  -60.11 | X-H torsion
[ 7974 7965 7964 7962 ] final    8.72 input  175.53 | X-H torsion
[ 8008 7997 7996 7995 ] final  -48.44 input   59.86 | X-H torsion
[ 10167 10162 10161 10158 ] final  -97.91 input  -65.29 | X-H torsion
[ 10718 10713 10712 10709 ] final  -46.19 input   66.30 | X-H torsion
[ 10763 10752 10751 10750 ] final   84.63 input  -60.55 | X-H torsion
[ 11005 11000 10999 10996 ] final -128.70 input  -57.11 | X-H torsion

> <Gold.Protein.ActiveResidues>
 VAL166  LYS551  ARG553  GLY616  TRP617  ASP618  TYR619  PRO620  LYS621  CYS622 
 ASP623  PHE694  ASN695  SER759  ASP760  ASP761  ALA762  ILE779  LEU786  VAL792 
 PHE793  MET794  SER795  GLU796  ALA797  LYS798  CYS799  TRP800  GLU811  SER814 

> <Gold.Protein.RotatedAtoms>
  151.7369  133.3320  159.3354 H   0  0  0  0  0  0  0  0  0  0  0  0  # atno 6907 bound_to 6896
  150.7589  134.6313  159.6197 H   0  0  0  0  0  0  0  0  0  0  0  0  # atno 6908 bound_to 6896
  152.3556  134.6947  160.0275 H   0  0  0  0  0  0  0  0  0  0  0  0  # atno 6909 bound_to 6896
  146.2413  139.9891  142.8427 H   0  0  0  0  0  0  0  0  0  0  0  0  # atno 7974 bound_to 7965
  154.4029  140.1321  156.4339 H   0  0  0  0  0  0  0  0  0  0  0  0  # atno 8008 bound_to 7997
  155.7524  140.3488  155.5137 H   0  0  0  0  0  0  0  0  0  0  0  0  # atno 8009 bound_to 7997
  155.8936  140.1007  157.1391 H   0  0  0  0  0  0  0  0  0  0  0  0  # atno 8010 bound_to 7997
  140.2785  143.3297  152.0464 H   0  0  0  0  0  0  0  0  0  0  0  0  # atno 10167 bound_to 10162
  156.2207  130.4166  149.8996 H   0  0  0  0  0  0  0  0  0  0  0  0  # atno 10718 bound_to 10713
  153.1399  135.4647  154.9480 H   0  0  0  0  0  0  0  0  0  0  0  0  # atno 10763 bound_to 10752
  154.7738  135.3167  154.8136 H   0  0  0  0  0  0  0  0  0  0  0  0  # atno 10764 bound_to 10752
  153.8661  135.6908  153.4832 H   0  0  0  0  0  0  0  0  0  0  0  0  # atno 10765 bound_to 10752
  140.9494  134.1086  157.4076 H   0  0  0  0  0  0  0  0  0  0  0  0  # atno 11005 bound_to 11000
  145.1520  140.9628  143.4427 LP  0  0  0  0  0  0  0  0  0  0  0  0  # atno 17320 bound_to 7965
  145.0196  139.3436  143.6079 LP  0  0  0  0  0  0  0  0  0  0  0  0  # atno 17321 bound_to 7965
  139.4969  144.6608  151.6469 LP  0  0  0  0  0  0  0  0  0  0  0  0  # atno 17342 bound_to 10162
  140.5831  143.9911  150.6280 LP  0  0  0  0  0  0  0  0  0  0  0  0  # atno 17343 bound_to 10162
  156.6644  130.8795  151.3552 LP  0  0  0  0  0  0  0  0  0  0  0  0  # atno 17370 bound_to 10713
  157.7086  130.9414  150.1013 LP  0  0  0  0  0  0  0  0  0  0  0  0  # atno 17371 bound_to 10713
  139.8843  135.0061  156.6359 LP  0  0  0  0  0  0  0  0  0  0  0  0  # atno 17394 bound_to 11000
  140.7623  133.8807  155.8428 LP  0  0  0  0  0  0  0  0  0  0  0  0  # atno 17395 bound_to 11000

$$$$
