AV-unprocessed.smi:2775|AV-procd|sdf|10697|dock4
  -GOLD-   2272015133D 1   1.00000     0.00000
 Structure written by MMmdl.
 43 46  0  0  0  0  0  0  0  0  2 V2000
  150.6101  141.0677  155.6440 C   0  0  0  0  0  0  0  0  0  0  0  0
  149.3776  140.8979  154.7767 C   0  0  0  0  0  0  0  0  0  0  0  0
  148.5919  141.9796  154.5817 N   0  3  0  0  0  0  0  0  0  0  0  0
  147.4757  141.9505  153.8246 C   0  0  0  0  0  0  0  0  0  0  0  0
  147.0808  140.7516  153.1996 C   0  0  0  0  0  0  0  0  0  0  0  0
  147.8604  139.5811  153.3823 C   0  0  0  0  0  0  0  0  0  0  0  0
  147.5523  138.3287  152.7821 N   0  0  0  0  0  0  0  0  0  0  0  0
  146.3590  137.8151  152.4266 C   0  0  0  0  0  0  0  0  0  0  0  0
  145.2759  138.3709  152.5925 O   0  0  0  0  0  0  0  0  0  0  0  0
  146.4393  136.5941  151.8705 N   0  0  0  0  0  0  0  0  0  0  0  0
  145.3357  135.7683  151.3797 C   0  0  1  0  0  0  0  0  0  0  0  0
  145.6995  134.2840  151.3120 C   0  0  2  0  0  0  0  0  0  0  0  0
  145.9430  133.3291  150.1996 C   0  0  0  0  0  0  0  0  0  0  0  0
  145.1240  132.1398  150.7629 C   0  0  0  0  0  0  0  0  0  0  0  0
  144.4052  132.6624  151.9066 O   0  0  0  0  0  0  0  0  0  0  0  0
  144.2295  134.0350  151.6129 C   0  0  1  0  0  0  0  0  0  0  0  0
  144.3421  135.2876  152.4918 C   0  0  0  0  0  0  0  0  0  0  0  0
  143.1049  136.1080  152.8753 C   0  0  0  0  0  0  0  0  0  0  0  0
  143.7710  136.4066  154.2231 C   0  0  0  0  0  0  0  0  0  0  0  0
  144.6982  135.2096  153.9881 C   0  0  0  0  0  0  0  0  0  0  0  0
  149.0324  139.6649  154.1746 C   0  0  0  0  0  0  0  0  0  0  0  0
  150.0359  138.2726  154.4104 Cl  0  0  0  0  0  0  0  0  0  0  0  0
  150.5684  140.3928  156.4994 H   0  0  0  0  0  0  0  0  0  0  0  0
  150.6953  142.0873  156.0215 H   0  0  0  0  0  0  0  0  0  0  0  0
  151.5101  140.8429  155.0715 H   0  0  0  0  0  0  0  0  0  0  0  0
  146.9374  142.8829  153.7376 H   0  0  0  0  0  0  0  0  0  0  0  0
  146.1948  140.7620  152.5844 H   0  0  0  0  0  0  0  0  0  0  0  0
  148.3439  137.7175  152.6425 H   0  0  0  0  0  0  0  0  0  0  0  0
  147.3624  136.1938  151.7830 H   0  0  0  0  0  0  0  0  0  0  0  0
  144.8540  136.1335  150.4683 H   0  0  0  0  0  0  0  0  0  0  0  0
  146.3410  134.0233  152.1622 H   0  0  0  0  0  0  0  0  0  0  0  0
  145.5385  133.6926  149.2540 H   0  0  0  0  0  0  0  0  0  0  0  0
  146.9985  133.0887  150.0698 H   0  0  0  0  0  0  0  0  0  0  0  0
  144.4259  131.7615  150.0154 H   0  0  0  0  0  0  0  0  0  0  0  0
  145.7638  131.3151  151.0779 H   0  0  0  0  0  0  0  0  0  0  0  0
  143.5678  134.1846  150.7531 H   0  0  0  0  0  0  0  0  0  0  0  0
  142.9230  136.9844  152.2535 H   0  0  0  0  0  0  0  0  0  0  0  0
  142.2093  135.4934  152.9769 H   0  0  0  0  0  0  0  0  0  0  0  0
  144.3040  137.3582  154.2301 H   0  0  0  0  0  0  0  0  0  0  0  0
  143.1122  136.3079  155.0863 H   0  0  0  0  0  0  0  0  0  0  0  0
  144.3297  134.2961  154.4572 H   0  0  0  0  0  0  0  0  0  0  0  0
  145.7446  135.3908  154.2344 H   0  0  0  0  0  0  0  0  0  0  0  0
  148.8576  142.8603  155.0231 H   0  0  0  0  0  0  0  0  0  0  0  0
  1  2  1  0  0  0  0
  1 23  1  0  0  0  0
  1 24  1  0  0  0  0
  1 25  1  0  0  0  0
  2 21  1  0  0  0  0
  2  3  2  0  0  0  0
  3  4  1  0  0  0  0
  3 43  1  0  0  0  0
  4  5  2  0  0  0  0
  4 26  1  0  0  0  0
  5  6  1  0  0  0  0
  5 27  1  0  0  0  0
  6  7  1  0  0  0  0
  6 21  2  0  0  0  0
  7  8  1  0  0  0  0
  7 28  1  0  0  0  0
  8  9  2  0  0  0  0
  8 10  1  0  0  0  0
 10 11  1  0  0  0  0
 10 29  1  0  0  0  0
 11 17  1  0  0  0  0
 11 12  1  0  0  0  0
 11 30  1  0  0  0  0
 12 16  1  0  0  0  0
 12 13  1  0  0  0  0
 12 31  1  0  0  0  0
 13 14  1  0  0  0  0
 13 32  1  0  0  0  0
 13 33  1  0  0  0  0
 14 15  1  0  0  0  0
 14 34  1  0  0  0  0
 14 35  1  0  0  0  0
 15 16  1  0  0  0  0
 16 17  1  0  0  0  0
 16 36  1  0  0  0  0
 17 20  1  0  0  0  0
 17 18  1  0  0  0  0
 18 19  1  0  0  0  0
 18 37  1  0  0  0  0
 18 38  1  0  0  0  0
 19 20  1  0  0  0  0
 19 39  1  0  0  0  0
 19 40  1  0  0  0  0
 20 41  1  0  0  0  0
 20 42  1  0  0  0  0
 21 22  1  0  0  0  0
M  CHG  1   3   1
M  END
> <s_m_source_file>
AV-unprocessed.smi

> <i_m_source_file_index>
2775

> <i_lp_mmshare_version>
43012

> <i_f3d_flags>
0

> <s_epik_input>
W0NIM11jMW5bY0hdW2NIXWMoYzFDbClbTkhdQyg9TylbTkhdW0NAQEhdMltDQEhdKFtDSDJdW0NIMl1PMylbQ0BASF0zQzI0W0NIMl1bQ0gyXVtDSDJdNA==

> <s_epik_cmdline>
J2VwaWtfcHl0aG9uJywgJy1waCcsICc3LjAnLCAnLXRuJywgJzgnLCAnLW1hJywgJzIwMCcsICctbWV0YWxfYmluZGluZycsICctaW1hZScsICc8aW5maWxlLm1hZT4nLCAnLW9tYWUnLCAnPG91dGZpbGUubWFlPic=

> <r_epik_Ionization_Penalty>
2.4104

> <r_epik_Ionization_Penalty_Charging>
2.41038

> <r_epik_Ionization_Penalty_Neutral>
1.9872e-05

> <r_epik_State_Penalty>
2.56896

> <r_epik_Charging_Adjusted_Penalty>
4.97934

> <i_epik_Tot_Q>
1

> <i_epik_Tot_abs_Q>
1

> <r_epik_Metal_State_Penalty>
2.57906

> <b_epik_Metal_Only>
0

> <s_lp_Force_Field>
OPLS_2005

> <r_lp_Energy>
84.4101

> <b_lp_Chiralities_Consistent>
1

> <s_lp_Variant>
AV-unprocessed.smi:2775-10

> <Gold.Version>
5.8.1

> <Gold.Id.Protein>
6NUR|6NUR_protein|mol2

> <Gold.PLP.Fitness>
46.2530

> <Gold.PLP.PLP>
-34.7754

> <Gold.PLP.part.hbond>
-3.6876

> <Gold.PLP.part.metal>
0.0000

> <Gold.PLP.part.buried>
-1.3436

> <Gold.PLP.part.nonpolar>
-32.2299

> <Gold.PLP.part.repulsive>
3.7976

> <Gold.PLP.ligand.clash>
0.0000

> <Gold.PLP.ligand.torsion>
0.3364

> <Gold.PLP.Chemscore.Hbond>
3.9440

> <Gold.PLP.Chemscore.CHOScore>
0.0000

> <Gold.PLP.Chemscore.Metal>
0.0000

> <Gold.Chemscore.Hbonds>
donor molecule, donor type, donor heavy atom, donor atom, acceptor molecule, acceptor atom, score
      L1  H     3    43       P1  8028  2.00
      L1  H     7    28       P1  7948  0.93
      L1  H    10    29       P1  7948  1.00

> <Gold.PLP.Chemscore.Internal.Correction>
0.3183

> <Gold.Rescore>
     Score         DG    S(hbond)    S(metal)    S(lipo)     H(rot)  DE(clash)    DE(int)     intcor
     20.65     -23.25       2.89        0.00      91.27       1.00       1.43       1.17       ----

> <Gold.Chemscore.Fitness>
20.6499

> <Gold.Chemscore.DG>
-23.2539

> <Gold.Chemscore.ZeroCoef>
-5.4800

> <Gold.Chemscore.Hbond>
2.8908

> <Gold.Chemscore.Metal>
0.0000

> <Gold.Chemscore.Lipo>
91.2692

> <Gold.Chemscore.Internal_Hbond>
0.0000

> <Gold.Chemscore.DEClash>
1.4316

> <Gold.Chemscore.DEInternal>
1.1723

> <Gold.Chemscore.Rot>
1.0000

> <Gold.Chemscore.Internal.Correction>
   9.000000E+99

> <Gold.Chemscore.Hbonds>
donor molecule, donor type, donor heavy atom, donor atom, acceptor molecule, acceptor atom, score
      L1  H     3    43       P1  8028  0.99
      L1  H     7    28       P1  7948  0.91
      L1  H    10    29       P1  7948  0.95

> <Gold.Chemscore.Hbond.Weighted>
-9.6554

> <Gold.Chemscore.Metal.Weighted>
-0.0000

> <Gold.Chemscore.Lipo.Weighted>
-10.6785

> <Gold.Chemscore.Internal_Hbond.Weighted>
0.0000

> <Gold.Chemscore.DEClash.Weighted>
1.4316

> <Gold.Chemscore.DEInternal.Weighted>
1.1723

> <Gold.Chemscore.Rot.Weighted>
2.5600

> <Gold.Chemscore.Internal.Correction.Weighted>
   9.000000E+99

> <Gold.Protein.RotatedTorsions>
[ 6907 6896 6895 6894 ] final  -27.53 input  -60.11 | X-H torsion
[ 7974 7965 7964 7962 ] final  -59.95 input  175.53 | X-H torsion
[ 8008 7997 7996 7995 ] final  -95.59 input   59.86 | X-H torsion
[ 10167 10162 10161 10158 ] final   83.72 input  -65.29 | X-H torsion
[ 10718 10713 10712 10709 ] final  -47.68 input   66.30 | X-H torsion
[ 10763 10752 10751 10750 ] final -175.92 input  -60.55 | X-H torsion
[ 11005 11000 10999 10996 ] final -105.40 input  -57.11 | X-H torsion

> <Gold.Protein.ActiveResidues>
 VAL166  LYS551  ARG553  GLY616  TRP617  ASP618  TYR619  PRO620  LYS621  CYS622 
 ASP623  PHE694  ASN695  SER759  ASP760  ASP761  ALA762  ILE779  LEU786  VAL792 
 PHE793  MET794  SER795  GLU796  ALA797  LYS798  CYS799  TRP800  GLU811  SER814 

> <Gold.Protein.RotatedAtoms>
  151.1456  135.0201  159.8644 H   0  0  0  0  0  0  0  0  0  0  0  0  # atno 6907 bound_to 6896
  152.5453  134.1448  159.8504 H   0  0  0  0  0  0  0  0  0  0  0  0  # atno 6908 bound_to 6896
  151.1528  133.4850  159.2628 H   0  0  0  0  0  0  0  0  0  0  0  0  # atno 6909 bound_to 6896
  145.8214  140.8538  143.0131 H   0  0  0  0  0  0  0  0  0  0  0  0  # atno 7974 bound_to 7965
  154.7634  140.0479  157.0992 H   0  0  0  0  0  0  0  0  0  0  0  0  # atno 8008 bound_to 7997
  154.9910  140.3113  155.4887 H   0  0  0  0  0  0  0  0  0  0  0  0  # atno 8009 bound_to 7997
  156.2908  140.2218  156.5014 H   0  0  0  0  0  0  0  0  0  0  0  0  # atno 8010 bound_to 7997
  139.9154  144.6246  150.8494 H   0  0  0  0  0  0  0  0  0  0  0  0  # atno 10167 bound_to 10162
  156.2061  130.4158  149.9176 H   0  0  0  0  0  0  0  0  0  0  0  0  # atno 10718 bound_to 10713
  154.5786  135.2834  155.0755 H   0  0  0  0  0  0  0  0  0  0  0  0  # atno 10763 bound_to 10752
  154.2100  135.6409  153.5116 H   0  0  0  0  0  0  0  0  0  0  0  0  # atno 10764 bound_to 10752
  153.0081  135.5489  154.6433 H   0  0  0  0  0  0  0  0  0  0  0  0  # atno 10765 bound_to 10752
  141.1055  133.8805  157.1730 H   0  0  0  0  0  0  0  0  0  0  0  0  # atno 11005 bound_to 11000
  144.6747  140.0538  143.7478 LP  0  0  0  0  0  0  0  0  0  0  0  0  # atno 17320 bound_to 7965
  145.9671  139.2842  143.1121 LP  0  0  0  0  0  0  0  0  0  0  0  0  # atno 17321 bound_to 7965
  140.7675  143.3335  151.2359 LP  0  0  0  0  0  0  0  0  0  0  0  0  # atno 17342 bound_to 10162
  139.6906  143.9698  152.2857 LP  0  0  0  0  0  0  0  0  0  0  0  0  # atno 17343 bound_to 10162
  156.6870  130.8880  151.3583 LP  0  0  0  0  0  0  0  0  0  0  0  0  # atno 17370 bound_to 10713
  157.7013  130.9336  150.0794 LP  0  0  0  0  0  0  0  0  0  0  0  0  # atno 17371 bound_to 10713
  139.9923  135.0060  157.0004 LP  0  0  0  0  0  0  0  0  0  0  0  0  # atno 17394 bound_to 11000
  140.4913  134.1190  155.7233 LP  0  0  0  0  0  0  0  0  0  0  0  0  # atno 17395 bound_to 11000

$$$$
