AV-unprocessed.smi:500|AV-procd|sdf|2737|dock10
  -GOLD-   2262023193D 1   1.00000     0.00000
 Structure written by MMmdl.
 46 48  0  0  0  0  0  0  0  0  2 V2000
  149.8678  138.0837  155.0308 C   0  0  0  0  0  0  0  0  0  0  0  0
  150.0066  139.3751  154.2213 C   0  0  0  0  0  0  0  0  0  0  0  0
  150.8813  140.2570  154.9046 O   0  0  0  0  0  0  0  0  0  0  0  0
  150.2013  141.3461  155.5045 C   0  0  0  0  0  0  0  0  0  0  0  0
  149.5456  140.8613  156.8029 C   0  0  0  0  0  0  0  0  0  0  0  0
  150.5401  140.5727  157.8445 N   0  0  0  0  0  0  0  0  0  0  0  0
  150.9012  139.3888  158.4200 C   0  0  0  0  0  0  0  0  0  0  0  0
  150.3126  138.0373  158.1238 C   0  0  1  0  0  0  0  0  0  0  0  0
  151.3858  136.9641  157.8583 C   0  0  0  0  0  0  0  0  0  0  0  0
  149.3588  137.6023  159.1447 N   0  0  0  0  0  0  0  0  0  0  0  0
  148.7939  136.3876  159.2580 C   0  0  0  0  0  0  0  0  0  0  0  0
  149.0063  135.4612  158.4757 O   0  0  0  0  0  0  0  0  0  0  0  0
  147.8863  136.2091  160.4068 C   0  0  0  0  0  0  0  0  0  0  0  0
  147.4104  135.0794  161.0194 C   0  0  0  0  0  0  0  0  0  0  0  0
  146.5683  135.5150  162.0796 C   0  0  0  0  0  0  0  0  0  0  0  0
  146.5895  136.8793  162.0399 C   0  0  0  0  0  0  0  0  0  0  0  0
  147.3875  137.3173  161.0284 O   0  0  0  0  0  0  0  0  0  0  0  0
  151.8599  139.6738  159.3487 N   0  3  0  0  0  0  0  0  0  0  0  0
  152.1261  141.0431  159.3530 C   0  0  0  0  0  0  0  0  0  0  0  0
  153.0166  141.7972  160.1109 C   0  0  0  0  0  0  0  0  0  0  0  0
  153.0393  143.1859  159.8642 C   0  0  0  0  0  0  0  0  0  0  0  0
  152.1979  143.7736  158.8971 C   0  0  0  0  0  0  0  0  0  0  0  0
  151.2983  142.9985  158.1359 C   0  0  0  0  0  0  0  0  0  0  0  0
  151.2824  141.6268  158.3868 C   0  0  0  0  0  0  0  0  0  0  0  0
  149.1987  137.3823  154.5321 H   0  0  0  0  0  0  0  0  0  0  0  0
  149.4620  138.2850  156.0226 H   0  0  0  0  0  0  0  0  0  0  0  0
  150.8334  137.5932  155.1565 H   0  0  0  0  0  0  0  0  0  0  0  0
  150.3988  139.1510  153.2282 H   0  0  0  0  0  0  0  0  0  0  0  0
  149.0277  139.8393  154.0933 H   0  0  0  0  0  0  0  0  0  0  0  0
  150.9029  142.1540  155.7186 H   0  0  0  0  0  0  0  0  0  0  0  0
  149.4460  141.7362  154.8205 H   0  0  0  0  0  0  0  0  0  0  0  0
  148.8356  141.5954  157.1852 H   0  0  0  0  0  0  0  0  0  0  0  0
  148.9766  139.9500  156.6184 H   0  0  0  0  0  0  0  0  0  0  0  0
  149.7337  138.1408  157.2056 H   0  0  0  0  0  0  0  0  0  0  0  0
  152.0287  137.2517  157.0259 H   0  0  0  0  0  0  0  0  0  0  0  0
  150.9266  136.0093  157.6003 H   0  0  0  0  0  0  0  0  0  0  0  0
  152.0237  136.7978  158.7267 H   0  0  0  0  0  0  0  0  0  0  0  0
  149.1132  138.2886  159.8436 H   0  0  0  0  0  0  0  0  0  0  0  0
  147.6381  134.0611  160.7403 H   0  0  0  0  0  0  0  0  0  0  0  0
  146.0166  134.9075  162.7817 H   0  0  0  0  0  0  0  0  0  0  0  0
  146.1192  137.6549  162.6263 H   0  0  0  0  0  0  0  0  0  0  0  0
  153.6614  141.3492  160.8528 H   0  0  0  0  0  0  0  0  0  0  0  0
  153.7150  143.8126  160.4279 H   0  0  0  0  0  0  0  0  0  0  0  0
  152.2427  144.8410  158.7359 H   0  0  0  0  0  0  0  0  0  0  0  0
  150.6584  143.4577  157.3969 H   0  0  0  0  0  0  0  0  0  0  0  0
  152.2929  138.9770  159.9411 H   0  0  0  0  0  0  0  0  0  0  0  0
  1  2  1  0  0  0  0
  1 25  1  0  0  0  0
  1 26  1  0  0  0  0
  1 27  1  0  0  0  0
  2  3  1  0  0  0  0
  2 28  1  0  0  0  0
  2 29  1  0  0  0  0
  3  4  1  0  0  0  0
  4  5  1  0  0  0  0
  4 30  1  0  0  0  0
  4 31  1  0  0  0  0
  5  6  1  0  0  0  0
  5 32  1  0  0  0  0
  5 33  1  0  0  0  0
  6 24  1  0  0  0  0
  6  7  1  0  0  0  0
  7  8  1  0  0  0  0
  7 18  2  0  0  0  0
  8  9  1  0  0  0  0
  8 10  1  0  0  0  0
  8 34  1  0  0  0  0
  9 35  1  0  0  0  0
  9 36  1  0  0  0  0
  9 37  1  0  0  0  0
 10 11  1  0  0  0  0
 10 38  1  0  0  0  0
 11 12  2  0  0  0  0
 11 13  1  0  0  0  0
 13 17  1  0  0  0  0
 13 14  2  0  0  0  0
 14 15  1  0  0  0  0
 14 39  1  0  0  0  0
 15 16  2  0  0  0  0
 15 40  1  0  0  0  0
 16 17  1  0  0  0  0
 16 41  1  0  0  0  0
 18 19  1  0  0  0  0
 18 46  1  0  0  0  0
 19 24  2  0  0  0  0
 19 20  1  0  0  0  0
 20 21  2  0  0  0  0
 20 42  1  0  0  0  0
 21 22  1  0  0  0  0
 21 43  1  0  0  0  0
 22 23  2  0  0  0  0
 22 44  1  0  0  0  0
 23 24  1  0  0  0  0
 23 45  1  0  0  0  0
M  CHG  1  18   1
M  END
> <s_m_source_file>
AV-unprocessed.smi

> <i_m_source_file_index>
500

> <i_lp_mmshare_version>
43012

> <i_f3d_flags>
0

> <s_epik_input>
W0NIM11bQ0gyXU9bQ0gyXVtDSDJdbihjKGMxMilbY0hdW2NIXVtjSF1bY0hdMiljKG4xKVtDQEhdKFtDSDNdKVtOSF1DKD1PKWMzW2NIXVtjSF1bY0hdbzM=

> <s_epik_cmdline>
J2VwaWtfcHl0aG9uJywgJy1waCcsICc3LjAnLCAnLXRuJywgJzgnLCAnLW1hJywgJzIwMCcsICctbWV0YWxfYmluZGluZycsICctaW1hZScsICc8aW5maWxlLm1hZT4nLCAnLW9tYWUnLCAnPG91dGZpbGUubWFlPic=

> <r_epik_Ionization_Penalty>
1.05286

> <r_epik_Ionization_Penalty_Charging>
1.05283

> <r_epik_Ionization_Penalty_Neutral>
2.09263e-05

> <r_epik_State_Penalty>
1.10586

> <r_epik_Charging_Adjusted_Penalty>
2.15869

> <i_epik_Tot_Q>
1

> <i_epik_Tot_abs_Q>
1

> <r_epik_Metal_State_Penalty>
1.22833

> <b_epik_Metal_Only>
0

> <s_lp_Force_Field>
OPLS_2005

> <r_lp_Energy>
11.8725

> <b_lp_Chiralities_Consistent>
1

> <s_lp_Variant>
AV-unprocessed.smi:500-4

> <Gold.Version>
5.8.1

> <Gold.Id.Protein>
6NUR|6NUR_protein|mol2

> <Gold.PLP.Fitness>
56.9293

> <Gold.PLP.PLP>
-47.6351

> <Gold.PLP.part.hbond>
-4.0000

> <Gold.PLP.part.metal>
0.0000

> <Gold.PLP.part.buried>
-6.7851

> <Gold.PLP.part.nonpolar>
-38.5328

> <Gold.PLP.part.repulsive>
0.4511

> <Gold.PLP.ligand.clash>
0.0000

> <Gold.PLP.ligand.torsion>
1.0904

> <Gold.PLP.Chemscore.Hbond>
3.7760

> <Gold.PLP.Chemscore.CHOScore>
0.0000

> <Gold.PLP.Chemscore.Metal>
0.0000

> <Gold.Chemscore.Hbonds>
donor molecule, donor type, donor heavy atom, donor atom, acceptor molecule, acceptor atom, score
      P1  H  6896  6908       L1    12  0.63
      P1  H  6931  6943       L1    17  0.69
      P1  H  6934  6947       L1    17  1.00
      P1  H  7989  7998       L1     3  0.80

> <Gold.PLP.Chemscore.Internal.Correction>
0.1469

> <Gold.Rescore>
     Score         DG    S(hbond)    S(metal)    S(lipo)     H(rot)  DE(clash)    DE(int)     intcor
     19.14     -22.82       2.53        0.00     119.17       1.97       0.98       2.69       ----

> <Gold.Chemscore.Fitness>
19.1419

> <Gold.Chemscore.DG>
-22.8189

> <Gold.Chemscore.ZeroCoef>
-5.4800

> <Gold.Chemscore.Hbond>
2.5302

> <Gold.Chemscore.Metal>
0.0000

> <Gold.Chemscore.Lipo>
119.1713

> <Gold.Chemscore.Internal_Hbond>
0.0000

> <Gold.Chemscore.DEClash>
0.9842

> <Gold.Chemscore.DEInternal>
2.6928

> <Gold.Chemscore.Rot>
1.9746

> <Gold.Chemscore.Internal.Correction>
   9.000000E+99

> <Gold.Chemscore.Hbonds>
donor molecule, donor type, donor heavy atom, donor atom, acceptor molecule, acceptor atom, score
      P1  H  6896  6908       L1    12  0.19
      P1  H  6931  6943       L1    17  0.22
      P1  H  6934  6947       L1    17  0.58
      P1  H  7989  7998       L1     3  0.06

> <Gold.Chemscore.Hbond.Weighted>
-8.4509

> <Gold.Chemscore.Metal.Weighted>
-0.0000

> <Gold.Chemscore.Lipo.Weighted>
-13.9430

> <Gold.Chemscore.Internal_Hbond.Weighted>
0.0000

> <Gold.Chemscore.DEClash.Weighted>
0.9842

> <Gold.Chemscore.DEInternal.Weighted>
2.6928

> <Gold.Chemscore.Rot.Weighted>
5.0550

> <Gold.Chemscore.Internal.Correction.Weighted>
   9.000000E+99

> <Gold.Protein.RotatedTorsions>
[ 6907 6896 6895 6894 ] final  158.51 input  -60.11 | X-H torsion
[ 7974 7965 7964 7962 ] final   91.50 input  175.53 | X-H torsion
[ 8008 7997 7996 7995 ] final -127.71 input   59.86 | X-H torsion
[ 10167 10162 10161 10158 ] final   -9.30 input  -65.29 | X-H torsion
[ 10718 10713 10712 10709 ] final  -21.10 input   66.30 | X-H torsion
[ 10763 10752 10751 10750 ] final    4.26 input  -60.55 | X-H torsion
[ 11005 11000 10999 10996 ] final -134.64 input  -57.11 | X-H torsion

> <Gold.Protein.ActiveResidues>
 VAL166  LYS551  ARG553  GLY616  TRP617  ASP618  TYR619  PRO620  LYS621  CYS622 
 ASP623  PHE694  ASN695  SER759  ASP760  ASP761  ALA762  ILE779  LEU786  VAL792 
 PHE793  MET794  SER795  GLU796  ALA797  LYS798  CYS799  TRP800  GLU811  SER814 

> <Gold.Protein.RotatedAtoms>
  151.9992  133.3819  159.4174 H   0  0  0  0  0  0  0  0  0  0  0  0  # atno 6907 bound_to 6896
  150.6912  134.3852  159.5061 H   0  0  0  0  0  0  0  0  0  0  0  0  # atno 6908 bound_to 6896
  152.1597  134.8922  160.0593 H   0  0  0  0  0  0  0  0  0  0  0  0  # atno 6909 bound_to 6896
  145.5048  139.2276  143.2757 H   0  0  0  0  0  0  0  0  0  0  0  0  # atno 7974 bound_to 7965
  155.2507  140.0432  157.2986 H   0  0  0  0  0  0  0  0  0  0  0  0  # atno 8008 bound_to 7997
  154.5770  140.2390  155.8077 H   0  0  0  0  0  0  0  0  0  0  0  0  # atno 8009 bound_to 7997
  156.2165  140.2983  155.9861 H   0  0  0  0  0  0  0  0  0  0  0  0  # atno 8010 bound_to 7997
  140.7083  143.5873  150.8930 H   0  0  0  0  0  0  0  0  0  0  0  0  # atno 10167 bound_to 10162
  156.5228  130.4636  149.6588 H   0  0  0  0  0  0  0  0  0  0  0  0  # atno 10718 bound_to 10713
  153.2734  135.6934  153.7458 H   0  0  0  0  0  0  0  0  0  0  0  0  # atno 10763 bound_to 10752
  153.6472  135.3383  155.3090 H   0  0  0  0  0  0  0  0  0  0  0  0  # atno 10764 bound_to 10752
  154.8471  135.4446  154.1764 H   0  0  0  0  0  0  0  0  0  0  0  0  # atno 10765 bound_to 10752
  140.8972  134.1737  157.4486 H   0  0  0  0  0  0  0  0  0  0  0  0  # atno 11005 bound_to 11000
  146.2204  140.5851  142.9020 LP  0  0  0  0  0  0  0  0  0  0  0  0  # atno 17320 bound_to 7965
  144.7760  140.5740  143.6638 LP  0  0  0  0  0  0  0  0  0  0  0  0  # atno 17321 bound_to 7965
  139.9598  143.6176  152.3005 LP  0  0  0  0  0  0  0  0  0  0  0  0  # atno 17342 bound_to 10162
  139.6725  144.7660  151.1757 LP  0  0  0  0  0  0  0  0  0  0  0  0  # atno 17343 bound_to 10162
  156.3133  130.7241  151.2138 LP  0  0  0  0  0  0  0  0  0  0  0  0  # atno 17370 bound_to 10713
  157.7434  131.0475  150.4948 LP  0  0  0  0  0  0  0  0  0  0  0  0  # atno 17371 bound_to 10713
  139.8737  134.9883  156.5406 LP  0  0  0  0  0  0  0  0  0  0  0  0  # atno 17394 bound_to 11000
  140.8275  133.8305  155.8952 LP  0  0  0  0  0  0  0  0  0  0  0  0  # atno 17395 bound_to 11000

$$$$
