AV-unprocessed.smi:3256|AV-procd|sdf|12465|dock8
  -GOLD-   2272018363D 1   1.00000     0.00000
 Structure written by MMmdl.
 36 37  0  0  0  0  0  0  0  0  1 V2000
  144.4620  136.8101  152.2447 O   0  0  0  0  0  0  0  0  0  0  0  0
  145.6499  136.5203  152.1088 C   0  0  0  0  0  0  0  0  0  0  0  0
  146.6548  137.3491  152.4262 N   0  0  0  0  0  0  0  0  0  0  0  0
  146.5033  138.6993  152.9589 C   0  0  0  0  0  0  0  0  0  0  0  0
  146.7116  138.7339  154.4855 C   0  0  0  0  0  0  0  0  0  0  0  0
  148.0281  139.1866  154.9353 N   0  0  0  0  0  0  0  0  0  0  0  0
  148.2706  140.5700  154.5421 C   0  0  0  0  0  0  0  0  0  0  0  0
  149.6484  141.0674  155.0125 C   0  0  0  0  0  0  0  0  0  0  0  0
  150.6641  140.2124  154.4988 O   0  0  0  0  0  0  0  0  0  0  0  0
  150.4907  138.8555  154.8938 C   0  0  0  0  0  0  0  0  0  0  0  0
  149.1144  138.3524  154.4254 C   0  0  0  0  0  0  0  0  0  0  0  0
  146.1222  135.3590  151.6232 N   0  0  0  0  0  0  0  0  0  0  0  0
  145.4140  134.2067  151.1825 C   0  0  0  0  0  0  0  0  0  0  0  0
  145.9944  133.1067  150.5040 C   0  0  0  0  0  0  0  0  0  0  0  0
  145.1681  132.0343  150.1157 C   0  0  0  0  0  0  0  0  0  0  0  0
  143.7935  132.1007  150.4134 C   0  0  0  0  0  0  0  0  0  0  0  0
  143.2254  133.1438  151.0534 N   0  0  0  0  0  0  0  0  0  0  0  0
  144.0239  134.1674  151.4235 C   0  0  0  0  0  0  0  0  0  0  0  0
  147.5994  137.0265  152.2763 H   0  0  0  0  0  0  0  0  0  0  0  0
  147.1487  139.4095  152.4414 H   0  0  0  0  0  0  0  0  0  0  0  0
  145.4841  139.0167  152.7381 H   0  0  0  0  0  0  0  0  0  0  0  0
  145.9418  139.3630  154.9348 H   0  0  0  0  0  0  0  0  0  0  0  0
  146.5294  137.7286  154.8679 H   0  0  0  0  0  0  0  0  0  0  0  0
  148.2045  140.6637  153.4570 H   0  0  0  0  0  0  0  0  0  0  0  0
  147.4954  141.2142  154.9587 H   0  0  0  0  0  0  0  0  0  0  0  0
  149.8253  142.0837  154.6602 H   0  0  0  0  0  0  0  0  0  0  0  0
  149.6995  141.0910  156.1022 H   0  0  0  0  0  0  0  0  0  0  0  0
  151.2848  138.2521  154.4540 H   0  0  0  0  0  0  0  0  0  0  0  0
  150.5844  138.7695  155.9774 H   0  0  0  0  0  0  0  0  0  0  0  0
  148.9915  137.3217  154.7556 H   0  0  0  0  0  0  0  0  0  0  0  0
  149.0883  138.3364  153.3347 H   0  0  0  0  0  0  0  0  0  0  0  0
  147.1261  135.2986  151.5374 H   0  0  0  0  0  0  0  0  0  0  0  0
  147.0441  133.0588  150.2636 H   0  0  0  0  0  0  0  0  0  0  0  0
  145.5793  131.1807  149.5975 H   0  0  0  0  0  0  0  0  0  0  0  0
  143.1322  131.2964  150.1272 H   0  0  0  0  0  0  0  0  0  0  0  0
  143.5334  134.9851  151.9315 H   0  0  0  0  0  0  0  0  0  0  0  0
  1  2  2  0  0  0  0
  2  3  1  0  0  0  0
  2 12  1  0  0  0  0
  3  4  1  0  0  0  0
  3 19  1  0  0  0  0
  4  5  1  0  0  0  0
  4 20  1  0  0  0  0
  4 21  1  0  0  0  0
  5  6  1  0  0  0  0
  5 22  1  0  0  0  0
  5 23  1  0  0  0  0
  6 11  1  0  0  0  0
  6  7  1  0  0  0  0
  7  8  1  0  0  0  0
  7 24  1  0  0  0  0
  7 25  1  0  0  0  0
  8  9  1  0  0  0  0
  8 26  1  0  0  0  0
  8 27  1  0  0  0  0
  9 10  1  0  0  0  0
 10 11  1  0  0  0  0
 10 28  1  0  0  0  0
 10 29  1  0  0  0  0
 11 30  1  0  0  0  0
 11 31  1  0  0  0  0
 12 13  1  0  0  0  0
 12 32  1  0  0  0  0
 13 18  1  0  0  0  0
 13 14  2  0  0  0  0
 14 15  1  0  0  0  0
 14 33  1  0  0  0  0
 15 16  2  0  0  0  0
 15 34  1  0  0  0  0
 16 17  1  0  0  0  0
 16 35  1  0  0  0  0
 17 18  2  0  0  0  0
 18 36  1  0  0  0  0
M  END
> <s_m_source_file>
AV-unprocessed.smi

> <i_m_source_file_index>
3256

> <i_lp_mmshare_version>
43012

> <i_f3d_flags>
0

> <s_epik_input>
W2NIXTFuW2NIXVtjSF1bY0hdYzFbTkhdQyg9TylbTkhdW0NIMl1bQ0gyXU4yW0NIMl1bQ0gyXU9bQ0gyXVtDSDJdMg==

> <s_epik_cmdline>
J2VwaWtfcHl0aG9uJywgJy1waCcsICc3LjAnLCAnLXRuJywgJzgnLCAnLW1hJywgJzIwMCcsICctbWV0YWxfYmluZGluZycsICctaW1hZScsICc8aW5maWxlLm1hZT4nLCAnLW9tYWUnLCAnPG91dGZpbGUubWFlPic=

> <r_epik_Ionization_Penalty>
0.270703

> <r_epik_Ionization_Penalty_Charging>
0

> <r_epik_Ionization_Penalty_Neutral>
0.270703

> <r_epik_State_Penalty>
0.268226

> <r_epik_Charging_Adjusted_Penalty>
0.268226

> <i_epik_Tot_Q>
0

> <i_epik_Tot_abs_Q>
0

> <r_epik_Metal_State_Penalty>
0.26483

> <b_epik_Metal_Only>
0

> <s_lp_Force_Field>
OPLS_2005

> <r_lp_Energy>
28.1533

> <b_lp_Chiralities_Consistent>
1

> <s_lp_Variant>
AV-unprocessed.smi:3256-1

> <Gold.Version>
5.8.1

> <Gold.Id.Protein>
6NUR|6NUR_protein|mol2

> <Gold.PLP.Fitness>
40.8531

> <Gold.PLP.PLP>
-30.1374

> <Gold.PLP.part.hbond>
-2.9107

> <Gold.PLP.part.metal>
0.0000

> <Gold.PLP.part.buried>
-7.2722

> <Gold.PLP.part.nonpolar>
-23.3538

> <Gold.PLP.part.repulsive>
1.9557

> <Gold.PLP.ligand.clash>
0.0000

> <Gold.PLP.ligand.torsion>
0.4403

> <Gold.PLP.Chemscore.Hbond>
2.9513

> <Gold.PLP.Chemscore.CHOScore>
0.9103

> <Gold.PLP.Chemscore.Metal>
0.0000

> <Gold.Chemscore.Hbonds>
donor molecule, donor type, donor heavy atom, donor atom, acceptor molecule, acceptor atom, score
      L1  H     3    19       P1  7948  1.00
      L1  H    12    32       P1  7948  0.95
      P1  H  7989  7998       L1     9  1.00
      L1  C    16    35       P1 10952  0.92

> <Gold.PLP.Chemscore.Internal.Correction>
0.0118

> <Gold.Rescore>
     Score         DG    S(hbond)    S(metal)    S(lipo)     H(rot)  DE(clash)    DE(int)     intcor
     17.74     -19.63       2.89        0.00      71.02       1.49       0.01       1.87       ----

> <Gold.Chemscore.Fitness>
17.7420

> <Gold.Chemscore.DG>
-19.6306

> <Gold.Chemscore.ZeroCoef>
-5.4800

> <Gold.Chemscore.Hbond>
2.8945

> <Gold.Chemscore.Metal>
0.0000

> <Gold.Chemscore.Lipo>
71.0233

> <Gold.Chemscore.Internal_Hbond>
0.0000

> <Gold.Chemscore.DEClash>
0.0149

> <Gold.Chemscore.DEInternal>
1.8738

> <Gold.Chemscore.Rot>
1.4949

> <Gold.Chemscore.Internal.Correction>
   9.000000E+99

> <Gold.Chemscore.Hbonds>
donor molecule, donor type, donor heavy atom, donor atom, acceptor molecule, acceptor atom, score
      L1  H     3    19       P1  7948  0.99
      L1  H    12    32       P1  7948  0.83
      P1  H  7989  7998       L1     9  0.85

> <Gold.Chemscore.Hbond.Weighted>
-9.6678

> <Gold.Chemscore.Metal.Weighted>
-0.0000

> <Gold.Chemscore.Lipo.Weighted>
-8.3097

> <Gold.Chemscore.Internal_Hbond.Weighted>
0.0000

> <Gold.Chemscore.DEClash.Weighted>
0.0149

> <Gold.Chemscore.DEInternal.Weighted>
1.8738

> <Gold.Chemscore.Rot.Weighted>
3.8269

> <Gold.Chemscore.Internal.Correction.Weighted>
   9.000000E+99

> <Gold.Protein.RotatedTorsions>
[ 6907 6896 6895 6894 ] final   86.64 input  -60.11 | X-H torsion
[ 7974 7965 7964 7962 ] final  -70.76 input  175.53 | X-H torsion
[ 8008 7997 7996 7995 ] final    0.85 input   59.86 | X-H torsion
[ 10167 10162 10161 10158 ] final -134.03 input  -65.29 | X-H torsion
[ 10718 10713 10712 10709 ] final  -70.06 input   66.30 | X-H torsion
[ 10763 10752 10751 10750 ] final  -29.80 input  -60.55 | X-H torsion
[ 11005 11000 10999 10996 ] final   32.65 input  -57.11 | X-H torsion

> <Gold.Protein.ActiveResidues>
 VAL166  LYS551  ARG553  GLY616  TRP617  ASP618  TYR619  PRO620  LYS621  CYS622 
 ASP623  PHE694  ASN695  SER759  ASP760  ASP761  ALA762  ILE779  LEU786  VAL792 
 PHE793  MET794  SER795  GLU796  ALA797  LYS798  CYS799  TRP800  GLU811  SER814 

> <Gold.Protein.RotatedAtoms>
  152.5398  134.2399  159.8857 H   0  0  0  0  0  0  0  0  0  0  0  0  # atno 6907 bound_to 6896
  151.2367  133.4414  159.2613 H   0  0  0  0  0  0  0  0  0  0  0  0  # atno 6908 bound_to 6896
  151.0665  134.9784  159.8343 H   0  0  0  0  0  0  0  0  0  0  0  0  # atno 6909 bound_to 6896
  145.6868  140.9168  143.0803 H   0  0  0  0  0  0  0  0  0  0  0  0  # atno 7974 bound_to 7965
  154.6729  140.2616  155.6988 H   0  0  0  0  0  0  0  0  0  0  0  0  # atno 8008 bound_to 7997
  156.2666  140.2825  156.1167 H   0  0  0  0  0  0  0  0  0  0  0  0  # atno 8009 bound_to 7997
  155.1142  140.0376  157.2722 H   0  0  0  0  0  0  0  0  0  0  0  0  # atno 8010 bound_to 7997
  139.8922  143.6709  152.2610 H   0  0  0  0  0  0  0  0  0  0  0  0  # atno 10167 bound_to 10162
  156.0425  130.4324  150.2240 H   0  0  0  0  0  0  0  0  0  0  0  0  # atno 10718 bound_to 10713
  153.7705  135.6912  153.4907 H   0  0  0  0  0  0  0  0  0  0  0  0  # atno 10763 bound_to 10752
  153.1878  135.4482  155.0109 H   0  0  0  0  0  0  0  0  0  0  0  0  # atno 10764 bound_to 10752
  154.8119  135.3381  154.7214 H   0  0  0  0  0  0  0  0  0  0  0  0  # atno 10765 bound_to 10752
  140.2713  134.3079  155.7827 H   0  0  0  0  0  0  0  0  0  0  0  0  # atno 11005 bound_to 11000
  144.7009  139.8768  143.7444 LP  0  0  0  0  0  0  0  0  0  0  0  0  # atno 17320 bound_to 7965
  146.0917  139.3907  143.0402 LP  0  0  0  0  0  0  0  0  0  0  0  0  # atno 17321 bound_to 7965
  139.7100  144.7622  151.1128 LP  0  0  0  0  0  0  0  0  0  0  0  0  # atno 17342 bound_to 10162
  140.7724  143.5344  150.9386 LP  0  0  0  0  0  0  0  0  0  0  0  0  # atno 17343 bound_to 10162
  157.0333  131.0014  151.3305 LP  0  0  0  0  0  0  0  0  0  0  0  0  # atno 17370 bound_to 10713
  157.5261  130.8029  149.7864 LP  0  0  0  0  0  0  0  0  0  0  0  0  # atno 17371 bound_to 10713
  141.2177  133.7468  156.9339 LP  0  0  0  0  0  0  0  0  0  0  0  0  # atno 17394 bound_to 11000
  140.1370  134.9318  157.2416 LP  0  0  0  0  0  0  0  0  0  0  0  0  # atno 17395 bound_to 11000

$$$$
