AV-unprocessed.smi:91|AV-procd|sdf|838|dock4
  -GOLD-   2262017273D 1   1.00000     0.00000
 Structure written by MMmdl.
 60 63  0  0  0  0  0  0  0  0  1 V2000
  147.7571  136.0842  163.0871 C   0  0  0  0  0  0  0  0  0  0  0  0
  147.3353  137.1985  162.3166 O   0  0  0  0  0  0  0  0  0  0  0  0
  146.5858  136.8578  161.1571 C   0  0  0  0  0  0  0  0  0  0  0  0
  147.4805  136.5426  159.9454 C   0  0  1  0  0  0  0  0  0  0  0  0
  146.7323  135.7296  158.8734 C   0  0  0  0  0  0  0  0  0  0  0  0
  147.5581  135.5994  157.6839 N   0  0  0  0  0  0  0  0  0  0  0  0
  147.0929  134.6862  156.8048 C   0  0  0  0  0  0  0  0  0  0  0  0
  145.8598  134.1787  157.0496 N   0  0  0  0  0  0  0  0  0  0  0  0
  145.3278  133.2797  156.2163 C   0  0  0  0  0  0  0  0  0  0  0  0
  145.8456  132.7710  155.0966 N   0  0  0  0  0  0  0  0  0  0  0  0
  147.0796  133.2912  154.8389 C   0  0  0  0  0  0  0  0  0  0  0  0
  147.7752  134.2458  155.6343 C   0  0  0  0  0  0  0  0  0  0  0  0
  148.9988  134.5457  155.0465 N   0  0  0  0  0  0  0  0  0  0  0  0
  149.0262  133.8101  153.9691 C   0  0  0  0  0  0  0  0  0  0  0  0
  147.9108  133.0317  153.7632 N   0  0  0  0  0  0  0  0  0  0  0  0
  147.6767  132.1355  152.6442 C   0  0  0  0  0  0  0  0  0  0  0  0
  146.2651  132.2923  152.0257 C   0  0  2  0  0  0  0  0  0  0  0  0
  145.8820  131.1086  151.1039 C   0  0  0  0  0  0  0  0  0  0  0  0
  146.5214  131.2039  149.8478 O   0  0  0  0  0  0  0  0  0  0  0  0
  146.1013  133.6640  151.3235 C   0  0  1  0  0  0  0  0  0  0  0  0
  144.7420  133.9019  150.6896 C   0  0  0  0  0  0  0  0  0  0  0  0
  144.7278  135.4169  150.5235 C   0  0  0  0  0  0  0  0  0  0  0  0
  145.4662  135.9278  151.6270 O   0  0  0  0  0  0  0  0  0  0  0  0
  146.1881  134.8750  152.2592 C   0  0  0  0  0  0  0  0  0  0  0  0
  147.9758  136.8851  157.1415 C   0  0  0  0  0  0  0  0  0  0  0  0
  148.7216  137.7091  158.2139 C   0  0  0  0  0  0  0  0  0  0  0  0
  150.1100  137.1176  158.5389 C   0  0  0  0  0  0  0  0  0  0  0  0
  148.8913  139.1580  157.7315 C   0  0  0  0  0  0  0  0  0  0  0  0
  147.9037  137.7895  159.3882 O   0  0  0  0  0  0  0  0  0  0  0  0
  148.3748  136.4315  163.9152 H   0  0  0  0  0  0  0  0  0  0  0  0
  148.3556  135.3939  162.4914 H   0  0  0  0  0  0  0  0  0  0  0  0
  146.9136  135.5409  163.5123 H   0  0  0  0  0  0  0  0  0  0  0  0
  145.9900  135.9770  161.3983 H   0  0  0  0  0  0  0  0  0  0  0  0
  145.8751  137.6504  160.9182 H   0  0  0  0  0  0  0  0  0  0  0  0
  148.3561  135.9907  160.2831 H   0  0  0  0  0  0  0  0  0  0  0  0
  146.4759  134.7438  159.2641 H   0  0  0  0  0  0  0  0  0  0  0  0
  145.7968  136.2241  158.6071 H   0  0  0  0  0  0  0  0  0  0  0  0
  144.3462  132.9177  156.4840 H   0  0  0  0  0  0  0  0  0  0  0  0
  149.8627  133.8210  153.2854 H   0  0  0  0  0  0  0  0  0  0  0  0
  148.4468  132.3352  151.8990 H   0  0  0  0  0  0  0  0  0  0  0  0
  147.8327  131.1091  152.9781 H   0  0  0  0  0  0  0  0  0  0  0  0
  145.5567  132.2723  152.8553 H   0  0  0  0  0  0  0  0  0  0  0  0
  146.1470  130.1547  151.5597 H   0  0  0  0  0  0  0  0  0  0  0  0
  144.8045  131.0722  150.9453 H   0  0  0  0  0  0  0  0  0  0  0  0
  147.4556  131.1491  149.9803 H   0  0  0  0  0  0  0  0  0  0  0  0
  146.8642  133.7724  150.5505 H   0  0  0  0  0  0  0  0  0  0  0  0
  144.6102  133.3794  149.7417 H   0  0  0  0  0  0  0  0  0  0  0  0
  143.9443  133.5917  151.3662 H   0  0  0  0  0  0  0  0  0  0  0  0
  145.2375  135.7029  149.6026 H   0  0  0  0  0  0  0  0  0  0  0  0
  143.7175  135.8256  150.4934 H   0  0  0  0  0  0  0  0  0  0  0  0
  145.7082  134.6618  153.2152 H   0  0  0  0  0  0  0  0  0  0  0  0
  147.2176  135.1733  152.4592 H   0  0  0  0  0  0  0  0  0  0  0  0
  148.6061  136.7366  156.2635 H   0  0  0  0  0  0  0  0  0  0  0  0
  147.0954  137.4394  156.8162 H   0  0  0  0  0  0  0  0  0  0  0  0
  150.7684  137.1710  157.6715 H   0  0  0  0  0  0  0  0  0  0  0  0
  150.0603  136.0693  158.8323 H   0  0  0  0  0  0  0  0  0  0  0  0
  150.5897  137.6656  159.3503 H   0  0  0  0  0  0  0  0  0  0  0  0
  149.4871  139.2058  156.8193 H   0  0  0  0  0  0  0  0  0  0  0  0
  149.3892  139.7689  158.4853 H   0  0  0  0  0  0  0  0  0  0  0  0
  147.9263  139.6203  157.5209 H   0  0  0  0  0  0  0  0  0  0  0  0
  1  2  1  0  0  0  0
  1 30  1  0  0  0  0
  1 31  1  0  0  0  0
  1 32  1  0  0  0  0
  2  3  1  0  0  0  0
  3  4  1  0  0  0  0
  3 33  1  0  0  0  0
  3 34  1  0  0  0  0
  4 29  1  0  0  0  0
  4  5  1  0  0  0  0
  4 35  1  0  0  0  0
  5  6  1  0  0  0  0
  5 36  1  0  0  0  0
  5 37  1  0  0  0  0
  6  7  1  0  0  0  0
  6 25  1  0  0  0  0
  7 12  1  0  0  0  0
  7  8  2  0  0  0  0
  8  9  1  0  0  0  0
  9 10  2  0  0  0  0
  9 38  1  0  0  0  0
 10 11  1  0  0  0  0
 11 15  1  0  0  0  0
 11 12  2  0  0  0  0
 12 13  1  0  0  0  0
 13 14  2  0  0  0  0
 14 15  1  0  0  0  0
 14 39  1  0  0  0  0
 15 16  1  0  0  0  0
 16 17  1  0  0  0  0
 16 40  1  0  0  0  0
 16 41  1  0  0  0  0
 17 18  1  0  0  0  0
 17 20  1  0  0  0  0
 17 42  1  0  0  0  0
 18 19  1  0  0  0  0
 18 43  1  0  0  0  0
 18 44  1  0  0  0  0
 19 45  1  0  0  0  0
 20 24  1  0  0  0  0
 20 21  1  0  0  0  0
 20 46  1  0  0  0  0
 21 22  1  0  0  0  0
 21 47  1  0  0  0  0
 21 48  1  0  0  0  0
 22 23  1  0  0  0  0
 22 49  1  0  0  0  0
 22 50  1  0  0  0  0
 23 24  1  0  0  0  0
 24 51  1  0  0  0  0
 24 52  1  0  0  0  0
 25 26  1  0  0  0  0
 25 53  1  0  0  0  0
 25 54  1  0  0  0  0
 26 27  1  0  0  0  0
 26 28  1  0  0  0  0
 26 29  1  0  0  0  0
 27 55  1  0  0  0  0
 27 56  1  0  0  0  0
 27 57  1  0  0  0  0
 28 58  1  0  0  0  0
 28 59  1  0  0  0  0
 28 60  1  0  0  0  0
M  END
> <s_m_source_file>
AV-unprocessed.smi

> <i_m_source_file_index>
91

> <i_lp_mmshare_version>
43012

> <i_f3d_flags>
0

> <s_epik_input>
W0NIM11PW0NIMl1bQ0BASF0oTzEpW0NIMl1OKFtDSDJdQzEoW0NIM10pW0NIM10pYyhuW2NIXW4yKWMoYzIzKW5bY0hdbjNbQ0gyXVtDQEhdKFtDSDJdW09IXSlbQ0BASF00W0NIMl1bQ0gyXU9bQ0gyXTQ=

> <s_epik_cmdline>
J2VwaWtfcHl0aG9uJywgJy1waCcsICc3LjAnLCAnLXRuJywgJzgnLCAnLW1hJywgJzIwMCcsICctbWV0YWxfYmluZGluZycsICctaW1hZScsICc8aW5maWxlLm1hZT4nLCAnLW9tYWUnLCAnPG91dGZpbGUubWFlPic=

> <r_lp_tautomer_probability>
1

> <r_epik_Ionization_Penalty>
8.63591e-05

> <r_epik_Ionization_Penalty_Charging>
0

> <r_epik_Ionization_Penalty_Neutral>
8.63591e-05

> <r_epik_State_Penalty>
-0

> <r_epik_Charging_Adjusted_Penalty>
0

> <i_epik_Tot_Q>
0

> <i_epik_Tot_abs_Q>
0

> <r_epik_Metal_State_Penalty>
-0

> <b_epik_Metal_Only>
0

> <s_lp_Force_Field>
OPLS_2005

> <r_lp_Energy>
49.535

> <b_lp_Chiralities_Consistent>
1

> <s_lp_Variant>
AV-unprocessed.smi:91-6

> <Gold.Version>
5.8.1

> <Gold.Id.Protein>
6NUR|6NUR_protein|mol2

> <Gold.PLP.Fitness>
41.5167

> <Gold.PLP.PLP>
-33.8799

> <Gold.PLP.part.hbond>
-3.9797

> <Gold.PLP.part.metal>
0.0000

> <Gold.PLP.part.buried>
-2.2974

> <Gold.PLP.part.nonpolar>
-27.9670

> <Gold.PLP.part.repulsive>
0.4561

> <Gold.PLP.ligand.clash>
0.0000

> <Gold.PLP.ligand.torsion>
0.8033

> <Gold.PLP.Chemscore.Hbond>
2.2461

> <Gold.PLP.Chemscore.CHOScore>
0.6845

> <Gold.PLP.Chemscore.Metal>
0.0000

> <Gold.Chemscore.Hbonds>
donor molecule, donor type, donor heavy atom, donor atom, acceptor molecule, acceptor atom, score
      L1  H    19    45       P1 10747  1.00
      P1  H  6931  6943       L1     2  0.82
      P1  H  6934  6947       L1    29  0.41
      L1  C     9    38       P1 10957  0.70

> <Gold.PLP.Chemscore.Internal.Correction>
0.4519

> <Gold.Rescore>
     Score         DG    S(hbond)    S(metal)    S(lipo)     H(rot)  DE(clash)    DE(int)     intcor
     10.43     -12.56       1.75        0.00      76.73       3.03       0.13       2.01       ----

> <Gold.Chemscore.Fitness>
10.4269

> <Gold.Chemscore.DG>
-12.5576

> <Gold.Chemscore.ZeroCoef>
-5.4800

> <Gold.Chemscore.Hbond>
1.7524

> <Gold.Chemscore.Metal>
0.0000

> <Gold.Chemscore.Lipo>
76.7300

> <Gold.Chemscore.Internal_Hbond>
0.0000

> <Gold.Chemscore.DEClash>
0.1252

> <Gold.Chemscore.DEInternal>
2.0056

> <Gold.Chemscore.Rot>
3.0284

> <Gold.Chemscore.Internal.Correction>
   9.000000E+99

> <Gold.Chemscore.Hbonds>
donor molecule, donor type, donor heavy atom, donor atom, acceptor molecule, acceptor atom, score
      L1  H    19    45       P1 10747  0.96
      P1  H  6931  6943       L1     2  0.34
      P1  H  6934  6947       L1    29  0.09

> <Gold.Chemscore.Hbond.Weighted>
-5.8530

> <Gold.Chemscore.Metal.Weighted>
-0.0000

> <Gold.Chemscore.Lipo.Weighted>
-8.9774

> <Gold.Chemscore.Internal_Hbond.Weighted>
0.0000

> <Gold.Chemscore.DEClash.Weighted>
0.1252

> <Gold.Chemscore.DEInternal.Weighted>
2.0056

> <Gold.Chemscore.Rot.Weighted>
7.7528

> <Gold.Chemscore.Internal.Correction.Weighted>
   9.000000E+99

> <Gold.Protein.RotatedTorsions>
[ 6907 6896 6895 6894 ] final  -46.18 input  -60.11 | X-H torsion
[ 7974 7965 7964 7962 ] final -173.30 input  175.53 | X-H torsion
[ 8008 7997 7996 7995 ] final  109.39 input   59.86 | X-H torsion
[ 10167 10162 10161 10158 ] final  -17.03 input  -65.29 | X-H torsion
[ 10718 10713 10712 10709 ] final -129.93 input   66.30 | X-H torsion
[ 10763 10752 10751 10750 ] final  110.32 input  -60.55 | X-H torsion
[ 11005 11000 10999 10996 ] final   26.44 input  -57.11 | X-H torsion

> <Gold.Protein.ActiveResidues>
 VAL166  LYS551  ARG553  GLY616  TRP617  ASP618  TYR619  PRO620  LYS621  CYS622 
 ASP623  PHE694  ASN695  SER759  ASP760  ASP761  ALA762  ILE779  LEU786  VAL792 
 PHE793  MET794  SER795  GLU796  ALA797  LYS798  CYS799  TRP800  GLU811  SER814 

> <Gold.Protein.RotatedAtoms>
  150.9140  134.8557  159.7443 H   0  0  0  0  0  0  0  0  0  0  0  0  # atno 6907 bound_to 6896
  152.4959  134.4317  159.9524 H   0  0  0  0  0  0  0  0  0  0  0  0  # atno 6908 bound_to 6896
  151.4357  133.3618  159.2810 H   0  0  0  0  0  0  0  0  0  0  0  0  # atno 6909 bound_to 6896
  144.7139  140.1643  143.6373 H   0  0  0  0  0  0  0  0  0  0  0  0  # atno 7974 bound_to 7965
  156.1976  140.3058  155.9459 H   0  0  0  0  0  0  0  0  0  0  0  0  # atno 8008 bound_to 7997
  155.3030  140.0447  157.3047 H   0  0  0  0  0  0  0  0  0  0  0  0  # atno 8009 bound_to 7997
  154.5529  140.2297  155.8465 H   0  0  0  0  0  0  0  0  0  0  0  0  # atno 8010 bound_to 7997
  140.7242  143.5057  150.9813 H   0  0  0  0  0  0  0  0  0  0  0  0  # atno 10167 bound_to 10162
  156.2094  130.6909  151.0632 H   0  0  0  0  0  0  0  0  0  0  0  0  # atno 10718 bound_to 10713
  153.4473  135.3752  155.2263 H   0  0  0  0  0  0  0  0  0  0  0  0  # atno 10763 bound_to 10752
  154.8755  135.3877  154.4080 H   0  0  0  0  0  0  0  0  0  0  0  0  # atno 10764 bound_to 10752
  153.4634  135.7087  153.6100 H   0  0  0  0  0  0  0  0  0  0  0  0  # atno 10765 bound_to 10752
  140.3370  134.2375  155.7695 H   0  0  0  0  0  0  0  0  0  0  0  0  # atno 11005 bound_to 11000
  145.9002  139.2426  143.1498 LP  0  0  0  0  0  0  0  0  0  0  0  0  # atno 17320 bound_to 7965
  145.9818  140.8676  143.0110 LP  0  0  0  0  0  0  0  0  0  0  0  0  # atno 17321 bound_to 7965
  139.8768  143.7122  152.3161 LP  0  0  0  0  0  0  0  0  0  0  0  0  # atno 17342 bound_to 10162
  139.7391  144.7564  151.0681 LP  0  0  0  0  0  0  0  0  0  0  0  0  # atno 17343 bound_to 10162
  157.7030  131.0768  150.6758 LP  0  0  0  0  0  0  0  0  0  0  0  0  # atno 17370 bound_to 10713
  156.6818  130.4569  149.5626 LP  0  0  0  0  0  0  0  0  0  0  0  0  # atno 17371 bound_to 10713
  141.2049  133.7875  157.0264 LP  0  0  0  0  0  0  0  0  0  0  0  0  # atno 17394 bound_to 11000
  140.0813  134.9646  157.1629 LP  0  0  0  0  0  0  0  0  0  0  0  0  # atno 17395 bound_to 11000

$$$$
