AV-unprocessed.smi:69|AV-procd|sdf|649|dock8
  -GOLD-   2262016543D 1   1.00000     0.00000
 Structure written by MMmdl.
 32 34  0  0  0  0  0  0  0  0  1 V2000
  139.9558  136.8039  156.1800 N   0  0  0  0  0  0  0  0  0  0  0  0
  140.5719  137.1475  155.0406 C   0  0  0  0  0  0  0  0  0  0  0  0
  140.2509  138.3309  154.4693 N   0  0  0  0  0  0  0  0  0  0  0  0
  140.8558  138.6969  153.3360 C   0  0  0  0  0  0  0  0  0  0  0  0
  141.7819  138.0388  152.6352 N   0  0  0  0  0  0  0  0  0  0  0  0
  142.1095  136.8424  153.2077 C   0  0  0  0  0  0  0  0  0  0  0  0
  141.5452  136.3308  154.4110 C   0  0  0  0  0  0  0  0  0  0  0  0
  142.1022  135.0975  154.7109 N   0  0  0  0  0  0  0  0  0  0  0  0
  142.9544  134.8980  153.7432 C   0  0  0  0  0  0  0  0  0  0  0  0
  143.0199  135.8862  152.7833 N   0  0  0  0  0  0  0  0  0  0  0  0
  143.9473  135.8979  151.5960 C   0  0  2  0  0  0  0  0  0  0  0  0
  143.8634  134.6617  150.9626 O   0  0  0  0  0  0  0  0  0  0  0  0
  144.9024  133.8121  151.4269 C   0  0  1  0  0  0  0  0  0  0  0  0
  145.1808  132.7176  150.3860 C   0  0  0  0  0  0  0  0  0  0  0  0
  144.7755  133.1508  149.1050 O   0  0  0  0  0  0  0  0  0  0  0  0
  146.0788  134.7817  151.6206 C   0  0  2  0  0  0  0  0  0  0  0  0
  146.9074  134.3434  152.6785 O   0  0  0  0  0  0  0  0  0  0  0  0
  145.4256  136.1247  151.9622 C   0  0  1  0  0  0  0  0  0  0  0  0
  145.9975  137.1540  151.1794 O   0  0  0  0  0  0  0  0  0  0  0  0
  143.5363  136.6757  150.9503 H   0  0  0  0  0  0  0  0  0  0  0  0
  144.6092  133.3659  152.3772 H   0  0  0  0  0  0  0  0  0  0  0  0
  146.6609  134.8554  150.7003 H   0  0  0  0  0  0  0  0  0  0  0  0
  145.5270  136.4044  153.0102 H   0  0  0  0  0  0  0  0  0  0  0  0
  140.1804  135.9267  156.6273 H   0  0  0  0  0  0  0  0  0  0  0  0
  139.2759  137.4258  156.5926 H   0  0  0  0  0  0  0  0  0  0  0  0
  140.5570  139.6533  152.9330 H   0  0  0  0  0  0  0  0  0  0  0  0
  143.5697  134.0108  153.7047 H   0  0  0  0  0  0  0  0  0  0  0  0
  146.2336  132.4347  150.3776 H   0  0  0  0  0  0  0  0  0  0  0  0
  144.6060  131.8221  150.6235 H   0  0  0  0  0  0  0  0  0  0  0  0
  145.5214  133.5290  148.6654 H   0  0  0  0  0  0  0  0  0  0  0  0
  147.6325  134.9442  152.7586 H   0  0  0  0  0  0  0  0  0  0  0  0
  145.3111  137.5636  150.6752 H   0  0  0  0  0  0  0  0  0  0  0  0
  1  2  1  0  0  0  0
  1 24  1  0  0  0  0
  1 25  1  0  0  0  0
  2  7  1  0  0  0  0
  2  3  2  0  0  0  0
  3  4  1  0  0  0  0
  4  5  2  0  0  0  0
  4 26  1  0  0  0  0
  5  6  1  0  0  0  0
  6 10  1  0  0  0  0
  6  7  2  0  0  0  0
  7  8  1  0  0  0  0
  8  9  2  0  0  0  0
  9 10  1  0  0  0  0
  9 27  1  0  0  0  0
 10 11  1  0  0  0  0
 11 20  1  0  0  0  0
 11 18  1  0  0  0  0
 11 12  1  0  0  0  0
 12 13  1  0  0  0  0
 13 21  1  0  0  0  0
 13 14  1  0  0  0  0
 13 16  1  0  0  0  0
 14 15  1  0  0  0  0
 14 28  1  0  0  0  0
 14 29  1  0  0  0  0
 15 30  1  0  0  0  0
 16 22  1  0  0  0  0
 16 17  1  0  0  0  0
 16 18  1  0  0  0  0
 17 31  1  0  0  0  0
 18 23  1  0  0  0  0
 18 19  1  0  0  0  0
 19 32  1  0  0  0  0
M  END
> <s_m_source_file>
AV-unprocessed.smi

> <i_m_source_file_index>
69

> <i_lp_mmshare_version>
43012

> <i_f3d_flags>
0

> <s_epik_input>
bjFbY0hdbmMoW05IMl0pYyhjMTIpbltjSF1uMltDQEBIXTNPW0NASF0oW0NIMl1bT0hdKVtDQEBIXShbT0hdKVtDQEhdM1tPSF0=

> <s_epik_cmdline>
J2VwaWtfcHl0aG9uJywgJy1waCcsICc3LjAnLCAnLXRuJywgJzgnLCAnLW1hJywgJzIwMCcsICctbWV0YWxfYmluZGluZycsICctaW1hZScsICc8aW5maWxlLm1hZT4nLCAnLW9tYWUnLCAnPG91dGZpbGUubWFlPic=

> <r_lp_tautomer_probability>
1

> <r_epik_Ionization_Penalty>
0.000428445

> <r_epik_Ionization_Penalty_Charging>
0

> <r_epik_Ionization_Penalty_Neutral>
0.000428445

> <r_epik_State_Penalty>
-0

> <r_epik_Charging_Adjusted_Penalty>
0

> <i_epik_Tot_Q>
0

> <i_epik_Tot_abs_Q>
0

> <r_epik_Metal_State_Penalty>
-0

> <b_epik_Metal_Only>
0

> <s_epik_Chemistry_Notes>
This compound contains an acetal/aminal-like group ( X-CH(R)-Y where X, Y are N, S, or O) that may be acid/base labile, releasing an aldehyde.

> <s_lp_Force_Field>
OPLS_2005

> <r_lp_Energy>
31.8637

> <b_lp_Chiralities_Consistent>
1

> <s_lp_Variant>
AV-unprocessed.smi:69-7

> <Gold.Version>
5.8.1

> <Gold.Id.Protein>
6NUR|6NUR_protein|mol2

> <Gold.PLP.Fitness>
41.0558

> <Gold.PLP.PLP>
-24.9707

> <Gold.PLP.part.hbond>
-5.9359

> <Gold.PLP.part.metal>
0.0000

> <Gold.PLP.part.buried>
-3.8826

> <Gold.PLP.part.nonpolar>
-17.8021

> <Gold.PLP.part.repulsive>
2.3091

> <Gold.PLP.ligand.clash>
0.0000

> <Gold.PLP.ligand.torsion>
0.7094

> <Gold.PLP.Chemscore.Hbond>
4.3175

> <Gold.PLP.Chemscore.CHOScore>
1.5103

> <Gold.PLP.Chemscore.Metal>
0.0000

> <Gold.Chemscore.Hbonds>
donor molecule, donor type, donor heavy atom, donor atom, acceptor molecule, acceptor atom, score
      L1  H     1    24       P1 11000  1.00
      L1  H    15    30       P1  7921  0.96
      L1  H    17    31       P1  7948  0.96
      L1  H    19    32       P1 10171  1.00
      P1  H 11000 11005       L1     8  0.38
      L1  C     4    26       P1 10160  1.00
      L1  C     9    27       P1 10957  0.55

> <Gold.PLP.Chemscore.Internal.Correction>
0.0206

> <Gold.Rescore>
     Score         DG    S(hbond)    S(metal)    S(lipo)     H(rot)  DE(clash)    DE(int)     intcor
      9.40     -10.38       3.57        0.00      28.16       4.03       0.35       0.64       ----

> <Gold.Chemscore.Fitness>
9.4017

> <Gold.Chemscore.DG>
-10.3848

> <Gold.Chemscore.ZeroCoef>
-5.4800

> <Gold.Chemscore.Hbond>
3.5692

> <Gold.Chemscore.Metal>
0.0000

> <Gold.Chemscore.Lipo>
28.1590

> <Gold.Chemscore.Internal_Hbond>
0.0000

> <Gold.Chemscore.DEClash>
0.3456

> <Gold.Chemscore.DEInternal>
0.6376

> <Gold.Chemscore.Rot>
4.0277

> <Gold.Chemscore.Internal.Correction>
   9.000000E+99

> <Gold.Chemscore.Hbonds>
donor molecule, donor type, donor heavy atom, donor atom, acceptor molecule, acceptor atom, score
      L1  H     1    24       P1 11000  0.64
      L1  H    15    30       P1  7921  0.24
      L1  H    17    31       P1  7948  0.85
      L1  H    19    32       P1 10171  0.99
      P1  H 11000 11005       L1     8  0.34

> <Gold.Chemscore.Hbond.Weighted>
-11.9212

> <Gold.Chemscore.Metal.Weighted>
-0.0000

> <Gold.Chemscore.Lipo.Weighted>
-3.2946

> <Gold.Chemscore.Internal_Hbond.Weighted>
0.0000

> <Gold.Chemscore.DEClash.Weighted>
0.3456

> <Gold.Chemscore.DEInternal.Weighted>
0.6376

> <Gold.Chemscore.Rot.Weighted>
10.3110

> <Gold.Chemscore.Internal.Correction.Weighted>
   9.000000E+99

> <Gold.Protein.RotatedTorsions>
[ 6907 6896 6895 6894 ] final  146.12 input  -60.11 | X-H torsion
[ 7974 7965 7964 7962 ] final  -44.24 input  175.53 | X-H torsion
[ 8008 7997 7996 7995 ] final -129.20 input   59.86 | X-H torsion
[ 10167 10162 10161 10158 ] final   49.89 input  -65.29 | X-H torsion
[ 10718 10713 10712 10709 ] final   60.31 input   66.30 | X-H torsion
[ 10763 10752 10751 10750 ] final -156.87 input  -60.55 | X-H torsion
[ 11005 11000 10999 10996 ] final  -15.96 input  -57.11 | X-H torsion

> <Gold.Protein.ActiveResidues>
 VAL166  LYS551  ARG553  GLY616  TRP617  ASP618  TYR619  PRO620  LYS621  CYS622 
 ASP623  PHE694  ASN695  SER759  ASP760  ASP761  ALA762  ILE779  LEU786  VAL792 
 PHE793  MET794  SER795  GLU796  ALA797  LYS798  CYS799  TRP800  GLU811  SER814 

> <Gold.Protein.RotatedAtoms>
  152.1721  133.4650  159.4914 H   0  0  0  0  0  0  0  0  0  0  0  0  # atno 6907 bound_to 6896
  150.6921  134.1940  159.4305 H   0  0  0  0  0  0  0  0  0  0  0  0  # atno 6908 bound_to 6896
  151.9847  135.0010  160.0609 H   0  0  0  0  0  0  0  0  0  0  0  0  # atno 6909 bound_to 6896
  145.9940  140.7149  142.9303 H   0  0  0  0  0  0  0  0  0  0  0  0  # atno 7974 bound_to 7965
  155.2753  140.0441  157.3010 H   0  0  0  0  0  0  0  0  0  0  0  0  # atno 8008 bound_to 7997
  154.5629  140.2351  155.8276 H   0  0  0  0  0  0  0  0  0  0  0  0  # atno 8009 bound_to 7997
  156.2062  140.3012  155.9639 H   0  0  0  0  0  0  0  0  0  0  0  0  # atno 8010 bound_to 7997
  140.2781  144.3188  150.6271 H   0  0  0  0  0  0  0  0  0  0  0  0  # atno 10167 bound_to 10162
  157.5743  130.8932  149.9320 H   0  0  0  0  0  0  0  0  0  0  0  0  # atno 10718 bound_to 10713
  154.7680  135.3137  154.8247 H   0  0  0  0  0  0  0  0  0  0  0  0  # atno 10763 bound_to 10752
  153.8990  135.6817  153.4760 H   0  0  0  0  0  0  0  0  0  0  0  0  # atno 10764 bound_to 10752
  153.1289  135.4789  154.9250 H   0  0  0  0  0  0  0  0  0  0  0  0  # atno 10765 bound_to 10752
  140.8019  133.8207  155.9478 H   0  0  0  0  0  0  0  0  0  0  0  0  # atno 11005 bound_to 11000
  144.6898  140.3118  143.7247 LP  0  0  0  0  0  0  0  0  0  0  0  0  # atno 17320 bound_to 7965
  145.7588  139.1818  143.2279 LP  0  0  0  0  0  0  0  0  0  0  0  0  # atno 17321 bound_to 7965
  140.5834  143.2171  151.7386 LP  0  0  0  0  0  0  0  0  0  0  0  0  # atno 17342 bound_to 10162
  139.4970  144.4046  152.0145 LP  0  0  0  0  0  0  0  0  0  0  0  0  # atno 17343 bound_to 10162
  156.0788  130.3675  150.0623 LP  0  0  0  0  0  0  0  0  0  0  0  0  # atno 17370 bound_to 10713
  156.8771  130.9544  151.3603 LP  0  0  0  0  0  0  0  0  0  0  0  0  # atno 17371 bound_to 10713
  140.9286  134.2051  157.4879 LP  0  0  0  0  0  0  0  0  0  0  0  0  # atno 17394 bound_to 11000
  139.8721  134.9823  156.5151 LP  0  0  0  0  0  0  0  0  0  0  0  0  # atno 17395 bound_to 11000

$$$$
