AV-unprocessed.smi:2303|AV-procd|sdf|9243|dock4
  -GOLD-   2272012463D 1   1.00000     0.00000
 Structure written by MMmdl.
 32 33  0  0  0  0  0  0  0  0  2 V2000
  152.5168  137.5361  159.0000 C   0  0  0  0  0  0  0  0  0  0  0  0
  153.4270  138.6276  158.4151 C   0  0  0  0  0  0  0  0  0  0  0  0
  154.3740  139.2034  159.4830 C   0  0  0  0  0  0  0  0  0  0  0  0
  152.6066  139.7158  157.7175 C   0  0  0  0  0  0  0  0  0  0  0  0
  151.7791  140.5303  158.4777 C   0  0  0  0  0  0  0  0  0  0  0  0
  151.0140  141.5431  157.7545 C   0  0  0  0  0  0  0  0  0  0  0  0
  150.0867  142.4323  158.4552 C   0  0  0  0  0  0  0  0  0  0  0  0
  148.8844  142.1939  158.5791 O   0  0  0  0  0  0  0  0  0  0  0  0
  150.6245  143.5574  158.9780 N   0  0  0  0  0  0  0  0  0  0  0  0
  152.0266  143.9526  158.9767 C   0  0  0  0  0  0  0  0  0  0  0  0
  152.1083  145.0125  160.0605 C   0  0  0  0  0  0  0  0  0  0  0  0
  150.9475  144.6395  160.9686 C   0  0  0  0  0  0  0  0  0  0  0  0
  149.9648  144.1882  160.0533 O   0  0  0  0  0  0  0  0  0  0  0  0
  151.0929  141.6181  156.4058 C   0  0  0  0  0  0  0  0  0  0  0  0
  151.9846  140.7264  155.6650 C   0  0  0  0  0  0  0  0  0  0  0  0
  152.0468  140.8300  154.4417 O   0  0  0  0  0  0  0  0  0  0  0  0
  152.7171  139.8144  156.3641 N   0  5  0  0  0  0  0  0  0  0  0  0
  151.8815  137.1025  158.2272 H   0  0  0  0  0  0  0  0  0  0  0  0
  151.8671  137.9336  159.7804 H   0  0  0  0  0  0  0  0  0  0  0  0
  153.1037  136.7277  159.4367 H   0  0  0  0  0  0  0  0  0  0  0  0
  154.0605  138.1428  157.6709 H   0  0  0  0  0  0  0  0  0  0  0  0
  155.0231  139.9694  159.0577 H   0  0  0  0  0  0  0  0  0  0  0  0
  155.0126  138.4240  159.8988 H   0  0  0  0  0  0  0  0  0  0  0  0
  153.8241  139.6535  160.3101 H   0  0  0  0  0  0  0  0  0  0  0  0
  151.6996  140.4145  159.5488 H   0  0  0  0  0  0  0  0  0  0  0  0
  152.6543  143.0956  159.2269 H   0  0  0  0  0  0  0  0  0  0  0  0
  152.3350  144.3352  158.0035 H   0  0  0  0  0  0  0  0  0  0  0  0
  153.0685  145.0270  160.5769 H   0  0  0  0  0  0  0  0  0  0  0  0
  151.9367  145.9992  159.6287 H   0  0  0  0  0  0  0  0  0  0  0  0
  151.2233  143.8213  161.6354 H   0  0  0  0  0  0  0  0  0  0  0  0
  150.5889  145.4746  161.5706 H   0  0  0  0  0  0  0  0  0  0  0  0
  150.5083  142.3437  155.8572 H   0  0  0  0  0  0  0  0  0  0  0  0
  1  2  1  0  0  0  0
  1 18  1  0  0  0  0
  1 19  1  0  0  0  0
  1 20  1  0  0  0  0
  2  3  1  0  0  0  0
  2 21  1  0  0  0  0
  2  4  1  0  0  0  0
  3 22  1  0  0  0  0
  3 23  1  0  0  0  0
  3 24  1  0  0  0  0
  4 17  1  0  0  0  0
  4  5  2  0  0  0  0
  5 25  1  0  0  0  0
  5  6  1  0  0  0  0
  6  7  1  0  0  0  0
  6 14  2  0  0  0  0
  7  8  2  0  0  0  0
  7  9  1  0  0  0  0
  9 13  1  0  0  0  0
  9 10  1  0  0  0  0
 10 11  1  0  0  0  0
 10 26  1  0  0  0  0
 10 27  1  0  0  0  0
 11 12  1  0  0  0  0
 11 28  1  0  0  0  0
 11 29  1  0  0  0  0
 12 13  1  0  0  0  0
 12 30  1  0  0  0  0
 12 31  1  0  0  0  0
 14 15  1  0  0  0  0
 14 32  1  0  0  0  0
 15 16  2  0  0  0  0
 15 17  1  0  0  0  0
M  CHG  1  17  -1
M  END
> <s_m_source_file>
AV-unprocessed.smi

> <i_m_source_file_index>
2303

> <i_lp_mmshare_version>
43012

> <i_f3d_flags>
0

> <s_epik_input>
W0NIM11bQ0hdKFtDSDNdKWMxW2NIXWMoW2NIXWMobjEpW09IXSlDKD1PKU4yW0NIMl1bQ0gyXVtDSDJdTzI=

> <s_epik_cmdline>
J2VwaWtfcHl0aG9uJywgJy1waCcsICc3LjAnLCAnLXRuJywgJzgnLCAnLW1hJywgJzIwMCcsICctbWV0YWxfYmluZGluZycsICctaW1hZScsICc8aW5maWxlLm1hZT4nLCAnLW9tYWUnLCAnPG91dGZpbGUubWFlPic=

> <r_lp_tautomer_probability>
1

> <r_epik_Ionization_Penalty>
5.39588

> <r_epik_Ionization_Penalty_Charging>
0.166011

> <r_epik_Ionization_Penalty_Neutral>
5.22987

> <r_epik_State_Penalty>
5.22978

> <r_epik_Charging_Adjusted_Penalty>
5.39579

> <i_epik_Tot_Q>
-1

> <i_epik_Tot_abs_Q>
1

> <r_epik_Metal_State_Penalty>
1.21816

> <b_epik_Metal_Only>
1

> <s_epik_Chemistry_Notes>
This compound has a N-S or N-O group and may undergo hydrolysis at high or low pH.

> <s_lp_Force_Field>
OPLS_2005

> <r_lp_Energy>
27.9757

> <b_lp_Chiralities_Consistent>
1

> <s_lp_Variant>
AV-unprocessed.smi:2303-2

> <Gold.Version>
5.8.1

> <Gold.Id.Protein>
6NUR|6NUR_protein|mol2

> <Gold.PLP.Fitness>
42.1325

> <Gold.PLP.PLP>
-35.2296

> <Gold.PLP.part.hbond>
-2.1406

> <Gold.PLP.part.metal>
0.0000

> <Gold.PLP.part.buried>
-4.9876

> <Gold.PLP.part.nonpolar>
-28.0976

> <Gold.PLP.part.repulsive>
0.3620

> <Gold.PLP.ligand.clash>
0.0000

> <Gold.PLP.ligand.torsion>
1.6627

> <Gold.PLP.Chemscore.Hbond>
3.0000

> <Gold.PLP.Chemscore.CHOScore>
0.0000

> <Gold.PLP.Chemscore.Metal>
0.0000

> <Gold.Chemscore.Hbonds>
donor molecule, donor type, donor heavy atom, donor atom, acceptor molecule, acceptor atom, score
      P1  H  7997  8009       L1    17  1.90

> <Gold.PLP.Chemscore.Internal.Correction>
1.2283

> <Gold.Rescore>
     Score         DG    S(hbond)    S(metal)    S(lipo)     H(rot)  DE(clash)    DE(int)     intcor
     14.02     -15.43       0.98        0.00      78.96       1.00       0.00       1.41       ----

> <Gold.Chemscore.Fitness>
14.0185

> <Gold.Chemscore.DG>
-15.4279

> <Gold.Chemscore.ZeroCoef>
-5.4800

> <Gold.Chemscore.Hbond>
0.9790

> <Gold.Chemscore.Metal>
0.0000

> <Gold.Chemscore.Lipo>
78.9569

> <Gold.Chemscore.Internal_Hbond>
0.0000

> <Gold.Chemscore.DEClash>
0.0042

> <Gold.Chemscore.DEInternal>
1.4052

> <Gold.Chemscore.Rot>
1.0000

> <Gold.Chemscore.Internal.Correction>
   9.000000E+99

> <Gold.Chemscore.Hbonds>
donor molecule, donor type, donor heavy atom, donor atom, acceptor molecule, acceptor atom, score
      P1  H  7997  8009       L1    17  0.17

> <Gold.Chemscore.Hbond.Weighted>
-3.2699

> <Gold.Chemscore.Metal.Weighted>
-0.0000

> <Gold.Chemscore.Lipo.Weighted>
-9.2380

> <Gold.Chemscore.Internal_Hbond.Weighted>
0.0000

> <Gold.Chemscore.DEClash.Weighted>
0.0042

> <Gold.Chemscore.DEInternal.Weighted>
1.4052

> <Gold.Chemscore.Rot.Weighted>
2.5600

> <Gold.Chemscore.Internal.Correction.Weighted>
   9.000000E+99

> <Gold.Protein.RotatedTorsions>
[ 6907 6896 6895 6894 ] final   64.30 input  -60.11 | X-H torsion
[ 7974 7965 7964 7962 ] final  144.23 input  175.53 | X-H torsion
[ 8008 7997 7996 7995 ] final -157.56 input   59.86 | X-H torsion
[ 10167 10162 10161 10158 ] final  -13.48 input  -65.29 | X-H torsion
[ 10718 10713 10712 10709 ] final -124.35 input   66.30 | X-H torsion
[ 10763 10752 10751 10750 ] final  -16.37 input  -60.55 | X-H torsion
[ 11005 11000 10999 10996 ] final -102.92 input  -57.11 | X-H torsion

> <Gold.Protein.ActiveResidues>
 VAL166  LYS551  ARG553  GLY616  TRP617  ASP618  TYR619  PRO620  LYS621  CYS622 
 ASP623  PHE694  ASN695  SER759  ASP760  ASP761  ALA762  ILE779  LEU786  VAL792 
 PHE793  MET794  SER795  GLU796  ALA797  LYS798  CYS799  TRP800  GLU811  SER814 

> <Gold.Protein.RotatedAtoms>
  152.4321  134.5758  159.9933 H   0  0  0  0  0  0  0  0  0  0  0  0  # atno 6907 bound_to 6896
  151.5878  133.3364  159.3029 H   0  0  0  0  0  0  0  0  0  0  0  0  # atno 6908 bound_to 6896
  150.8215  134.7460  159.6841 H   0  0  0  0  0  0  0  0  0  0  0  0  # atno 6909 bound_to 6896
  144.8853  139.5638  143.5824 H   0  0  0  0  0  0  0  0  0  0  0  0  # atno 7974 bound_to 7965
  155.7343  140.0806  157.2274 H   0  0  0  0  0  0  0  0  0  0  0  0  # atno 8008 bound_to 7997
  154.4029  140.1589  156.2599 H   0  0  0  0  0  0  0  0  0  0  0  0  # atno 8009 bound_to 7997
  155.9079  140.3405  155.6079 H   0  0  0  0  0  0  0  0  0  0  0  0  # atno 8010 bound_to 7997
  140.7183  143.5422  150.9396 H   0  0  0  0  0  0  0  0  0  0  0  0  # atno 10167 bound_to 10162
  156.1580  130.6582  151.0010 H   0  0  0  0  0  0  0  0  0  0  0  0  # atno 10718 bound_to 10713
  153.5575  135.7010  153.5562 H   0  0  0  0  0  0  0  0  0  0  0  0  # atno 10763 bound_to 10752
  153.3459  135.4008  155.1608 H   0  0  0  0  0  0  0  0  0  0  0  0  # atno 10764 bound_to 10752
  154.8652  135.3753  154.5090 H   0  0  0  0  0  0  0  0  0  0  0  0  # atno 10765 bound_to 10752
  141.1168  133.8598  157.1421 H   0  0  0  0  0  0  0  0  0  0  0  0  # atno 11005 bound_to 11000
  146.3020  139.7458  142.9084 LP  0  0  0  0  0  0  0  0  0  0  0  0  # atno 17320 bound_to 7965
  145.3880  141.0368  143.3140 LP  0  0  0  0  0  0  0  0  0  0  0  0  # atno 17321 bound_to 7965
  139.9145  143.6680  152.3109 LP  0  0  0  0  0  0  0  0  0  0  0  0  # atno 17342 bound_to 10162
  139.7075  144.7625  151.1168 LP  0  0  0  0  0  0  0  0  0  0  0  0  # atno 17343 bound_to 10162
  157.6710  131.0861  150.7611 LP  0  0  0  0  0  0  0  0  0  0  0  0  # atno 17370 bound_to 10713
  156.7675  130.4818  149.5425 LP  0  0  0  0  0  0  0  0  0  0  0  0  # atno 17371 bound_to 10713
  140.0096  134.9994  157.0367 LP  0  0  0  0  0  0  0  0  0  0  0  0  # atno 17394 bound_to 11000
  140.4622  134.1472  155.7192 LP  0  0  0  0  0  0  0  0  0  0  0  0  # atno 17395 bound_to 11000

$$$$
