AV-unprocessed.smi:3226|AV-procd|sdf|12314|dock1
  -GOLD-   2272018163D 1   1.00000     0.00000
 Structure written by MMmdl.
 41 43  0  0  0  0  0  0  0  0  2 V2000
  149.2522  137.1147  155.2027 C   0  0  0  0  0  0  0  0  0  0  0  0
  150.5941  137.1634  154.4636 C   0  0  0  0  0  0  0  0  0  0  0  0
  151.5146  138.2109  155.0099 C   0  0  0  0  0  0  0  0  0  0  0  0
  152.7339  137.9386  155.4899 N   0  0  0  0  0  0  0  0  0  0  0  0
  153.2689  139.1551  155.8627 N   0  0  0  0  0  0  0  0  0  0  0  0
  152.3233  140.0427  155.5613 C   0  0  0  0  0  0  0  0  0  0  0  0
  151.2044  139.5249  155.0313 N   0  0  0  0  0  0  0  0  0  0  0  0
  150.0057  140.2235  154.5994 C   0  0  0  0  0  0  0  0  0  0  0  0
  149.4479  141.1599  155.6837 C   0  0  0  0  0  0  0  0  0  0  0  0
  150.3295  142.3234  155.9093 N   0  3  0  0  0  0  0  0  0  0  0  0
  151.0540  142.2876  157.1945 C   0  0  0  0  0  0  0  0  0  0  0  0
  151.0592  143.6717  157.8701 C   0  0  1  0  0  0  0  0  0  0  0  0
  150.2606  143.7464  159.2089 C   0  0  0  0  0  0  0  0  0  0  0  0
  151.2929  144.3360  160.1976 C   0  0  1  0  0  0  0  0  0  0  0  0
  152.3633  143.2894  160.4186 C   0  0  0  0  0  0  0  0  0  0  0  0
  153.0637  143.1939  159.2872 C   0  0  0  0  0  0  0  0  0  0  0  0
  152.4629  144.1753  158.2994 C   0  0  2  0  0  0  0  0  0  0  0  0
  152.0437  145.2912  159.2640 C   0  0  0  0  0  0  0  0  0  0  0  0
  148.6030  136.3477  154.7799 H   0  0  0  0  0  0  0  0  0  0  0  0
  148.7297  138.0694  155.1326 H   0  0  0  0  0  0  0  0  0  0  0  0
  149.3924  136.8868  156.2596 H   0  0  0  0  0  0  0  0  0  0  0  0
  151.0788  136.1882  154.5036 H   0  0  0  0  0  0  0  0  0  0  0  0
  150.4201  137.3720  153.4074 H   0  0  0  0  0  0  0  0  0  0  0  0
  152.4497  141.1013  155.7349 H   0  0  0  0  0  0  0  0  0  0  0  0
  150.2351  140.7849  153.6926 H   0  0  0  0  0  0  0  0  0  0  0  0
  149.2544  139.4844  154.3203 H   0  0  0  0  0  0  0  0  0  0  0  0
  148.4645  141.5182  155.3768 H   0  0  0  0  0  0  0  0  0  0  0  0
  149.3107  140.6203  156.6216 H   0  0  0  0  0  0  0  0  0  0  0  0
  151.0055  142.3652  155.1598 H   0  0  0  0  0  0  0  0  0  0  0  0
  150.5953  141.5403  157.8431 H   0  0  0  0  0  0  0  0  0  0  0  0
  152.0800  141.9665  157.0105 H   0  0  0  0  0  0  0  0  0  0  0  0
  150.6408  144.3970  157.1695 H   0  0  0  0  0  0  0  0  0  0  0  0
  149.3966  144.4043  159.1053 H   0  0  0  0  0  0  0  0  0  0  0  0
  149.8975  142.7735  159.5430 H   0  0  0  0  0  0  0  0  0  0  0  0
  150.8929  144.7836  161.1078 H   0  0  0  0  0  0  0  0  0  0  0  0
  152.4902  142.7184  161.3267 H   0  0  0  0  0  0  0  0  0  0  0  0
  153.8856  142.5272  159.0720 H   0  0  0  0  0  0  0  0  0  0  0  0
  153.1316  144.4847  157.4958 H   0  0  0  0  0  0  0  0  0  0  0  0
  151.4103  146.0567  158.8112 H   0  0  0  0  0  0  0  0  0  0  0  0
  152.8931  145.7790  159.7471 H   0  0  0  0  0  0  0  0  0  0  0  0
  149.7679  143.1626  155.8854 H   0  0  0  0  0  0  0  0  0  0  0  0
  1  2  1  0  0  0  0
  1 19  1  0  0  0  0
  1 20  1  0  0  0  0
  1 21  1  0  0  0  0
  2  3  1  0  0  0  0
  2 22  1  0  0  0  0
  2 23  1  0  0  0  0
  3  7  1  0  0  0  0
  3  4  2  0  0  0  0
  4  5  1  0  0  0  0
  5  6  2  0  0  0  0
  6  7  1  0  0  0  0
  6 24  1  0  0  0  0
  7  8  1  0  0  0  0
  8  9  1  0  0  0  0
  8 25  1  0  0  0  0
  8 26  1  0  0  0  0
  9 10  1  0  0  0  0
  9 27  1  0  0  0  0
  9 28  1  0  0  0  0
 10 11  1  0  0  0  0
 10 29  1  0  0  0  0
 10 41  1  0  0  0  0
 11 12  1  0  0  0  0
 11 30  1  0  0  0  0
 11 31  1  0  0  0  0
 12 17  1  0  0  0  0
 12 13  1  0  0  0  0
 12 32  1  0  0  0  0
 13 14  1  0  0  0  0
 13 33  1  0  0  0  0
 13 34  1  0  0  0  0
 14 18  1  0  0  0  0
 14 15  1  0  0  0  0
 14 35  1  0  0  0  0
 15 16  2  0  0  0  0
 15 36  1  0  0  0  0
 16 17  1  0  0  0  0
 16 37  1  0  0  0  0
 17 18  1  0  0  0  0
 17 38  1  0  0  0  0
 18 39  1  0  0  0  0
 18 40  1  0  0  0  0
M  CHG  1  10   1
M  END
> <s_m_source_file>
AV-unprocessed.smi

> <i_m_source_file_index>
3226

> <i_lp_mmshare_version>
43012

> <i_f3d_flags>
0

> <s_epik_input>
W0NIM11bQ0gyXWMxbm5bY0hdbjFbQ0gyXVtDSDJdW05IXVtDSDJdW0NASF0oW0NIMl1bQ0BASF0yMylbQ0BASF0oW0NIMl0zKVtDSF09W0NIXTI=

> <s_epik_cmdline>
J2VwaWtfcHl0aG9uJywgJy1waCcsICc3LjAnLCAnLXRuJywgJzgnLCAnLW1hJywgJzIwMCcsICctbWV0YWxfYmluZGluZycsICctaW1hZScsICc8aW5maWxlLm1hZT4nLCAnLW9tYWUnLCAnPG91dGZpbGUubWFlPic=

> <r_lp_tautomer_probability>
1

> <r_epik_Ionization_Penalty>
0.00175008

> <r_epik_Ionization_Penalty_Charging>
0.00173932

> <r_epik_Ionization_Penalty_Neutral>
1.07546e-05

> <r_epik_State_Penalty>
-0

> <r_epik_Charging_Adjusted_Penalty>
0.00173932

> <i_epik_Tot_Q>
1

> <i_epik_Tot_abs_Q>
1

> <r_epik_Metal_State_Penalty>
-0

> <b_epik_Metal_Only>
0

> <s_lp_Force_Field>
OPLS_2005

> <r_lp_Energy>
65.2823

> <b_lp_Chiralities_Consistent>
1

> <s_lp_Variant>
AV-unprocessed.smi:3226-2

> <Gold.Version>
5.8.1

> <Gold.Id.Protein>
6NUR|6NUR_protein|mol2

> <Gold.PLP.Fitness>
50.4504

> <Gold.PLP.PLP>
-44.2084

> <Gold.PLP.part.hbond>
-2.5600

> <Gold.PLP.part.metal>
0.0000

> <Gold.PLP.part.buried>
-2.3894

> <Gold.PLP.part.nonpolar>
-38.6255

> <Gold.PLP.part.repulsive>
0.1486

> <Gold.PLP.ligand.clash>
0.0000

> <Gold.PLP.ligand.torsion>
1.4593

> <Gold.PLP.Chemscore.Hbond>
3.0000

> <Gold.PLP.Chemscore.CHOScore>
0.0000

> <Gold.PLP.Chemscore.Metal>
0.0000

> <Gold.Chemscore.Hbonds>
donor molecule, donor type, donor heavy atom, donor atom, acceptor molecule, acceptor atom, score
      L1  H    10    41       P1  8028  2.00
      P1  H  7997  8009       L1     5  0.94

> <Gold.PLP.Chemscore.Internal.Correction>
0.1606

> <Gold.Rescore>
     Score         DG    S(hbond)    S(metal)    S(lipo)     H(rot)  DE(clash)    DE(int)     intcor
     16.67     -18.24       1.47        0.00     112.25       2.06       0.16       1.41       ----

> <Gold.Chemscore.Fitness>
16.6676

> <Gold.Chemscore.DG>
-18.2412

> <Gold.Chemscore.ZeroCoef>
-5.4800

> <Gold.Chemscore.Hbond>
1.4693

> <Gold.Chemscore.Metal>
0.0000

> <Gold.Chemscore.Lipo>
112.2508

> <Gold.Chemscore.Internal_Hbond>
0.0000

> <Gold.Chemscore.DEClash>
0.1591

> <Gold.Chemscore.DEInternal>
1.4145

> <Gold.Chemscore.Rot>
2.0623

> <Gold.Chemscore.Internal.Correction>
   9.000000E+99

> <Gold.Chemscore.Hbonds>
donor molecule, donor type, donor heavy atom, donor atom, acceptor molecule, acceptor atom, score
      L1  H    10    41       P1  8028  1.00
      P1  H  7997  8009       L1     5  0.26

> <Gold.Chemscore.Hbond.Weighted>
-4.9075

> <Gold.Chemscore.Metal.Weighted>
-0.0000

> <Gold.Chemscore.Lipo.Weighted>
-13.1333

> <Gold.Chemscore.Internal_Hbond.Weighted>
0.0000

> <Gold.Chemscore.DEClash.Weighted>
0.1591

> <Gold.Chemscore.DEInternal.Weighted>
1.4145

> <Gold.Chemscore.Rot.Weighted>
5.2796

> <Gold.Chemscore.Internal.Correction.Weighted>
   9.000000E+99

> <Gold.Protein.RotatedTorsions>
[ 6907 6896 6895 6894 ] final  117.05 input  -60.11 | X-H torsion
[ 7974 7965 7964 7962 ] final -101.30 input  175.53 | X-H torsion
[ 8008 7997 7996 7995 ] final -172.58 input   59.86 | X-H torsion
[ 10167 10162 10161 10158 ] final  140.26 input  -65.29 | X-H torsion
[ 10718 10713 10712 10709 ] final  -15.17 input   66.30 | X-H torsion
[ 10763 10752 10751 10750 ] final  163.55 input  -60.55 | X-H torsion
[ 11005 11000 10999 10996 ] final   83.61 input  -57.11 | X-H torsion

> <Gold.Protein.ActiveResidues>
 VAL166  LYS551  ARG553  GLY616  TRP617  ASP618  TYR619  PRO620  LYS621  CYS622 
 ASP623  PHE694  ASN695  SER759  ASP760  ASP761  ALA762  ILE779  LEU786  VAL792 
 PHE793  MET794  SER795  GLU796  ALA797  LYS798  CYS799  TRP800  GLU811  SER814 

> <Gold.Protein.RotatedAtoms>
  152.4638  133.7878  159.6885 H   0  0  0  0  0  0  0  0  0  0  0  0  # atno 6907 bound_to 6896
  150.8593  133.7658  159.3004 H   0  0  0  0  0  0  0  0  0  0  0  0  # atno 6908 bound_to 6896
  151.5229  135.1070  159.9935 H   0  0  0  0  0  0  0  0  0  0  0  0  # atno 6909 bound_to 6896
  145.2834  140.9333  143.2919 H   0  0  0  0  0  0  0  0  0  0  0  0  # atno 7974 bound_to 7965
  155.9465  140.1118  157.1013 H   0  0  0  0  0  0  0  0  0  0  0  0  # atno 8008 bound_to 7997
  154.4100  140.1209  156.5061 H   0  0  0  0  0  0  0  0  0  0  0  0  # atno 8009 bound_to 7997
  155.6897  140.3472  155.4890 H   0  0  0  0  0  0  0  0  0  0  0  0  # atno 8010 bound_to 7997
  139.5054  144.6245  151.5971 H   0  0  0  0  0  0  0  0  0  0  0  0  # atno 10167 bound_to 10162
  156.6056  130.4835  149.6222 H   0  0  0  0  0  0  0  0  0  0  0  0  # atno 10718 bound_to 10713
  154.2954  135.2760  155.2636 H   0  0  0  0  0  0  0  0  0  0  0  0  # atno 10763 bound_to 10752
  154.5096  135.5786  153.6598 H   0  0  0  0  0  0  0  0  0  0  0  0  # atno 10764 bound_to 10752
  152.9908  135.6178  154.3121 H   0  0  0  0  0  0  0  0  0  0  0  0  # atno 10765 bound_to 10752
  139.9026  134.8157  156.2332 H   0  0  0  0  0  0  0  0  0  0  0  0  # atno 11005 bound_to 11000
  144.9234  139.4384  143.6530 LP  0  0  0  0  0  0  0  0  0  0  0  0  # atno 17320 bound_to 7965
  146.3209  139.8107  142.8946 LP  0  0  0  0  0  0  0  0  0  0  0  0  # atno 17321 bound_to 7965
  140.5958  143.9699  150.6353 LP  0  0  0  0  0  0  0  0  0  0  0  0  # atno 17342 bound_to 10162
  140.2894  143.3334  152.1076 LP  0  0  0  0  0  0  0  0  0  0  0  0  # atno 17343 bound_to 10162
  156.2433  130.6864  151.1576 LP  0  0  0  0  0  0  0  0  0  0  0  0  # atno 17370 bound_to 10713
  157.7268  131.0643  150.5893 LP  0  0  0  0  0  0  0  0  0  0  0  0  # atno 17371 bound_to 10713
  141.0332  133.6977  156.1466 LP  0  0  0  0  0  0  0  0  0  0  0  0  # atno 17394 bound_to 11000
  140.7066  134.4507  157.5584 LP  0  0  0  0  0  0  0  0  0  0  0  0  # atno 17395 bound_to 11000

$$$$
