AV-unprocessed.smi:2888|AV-procd|sdf|11102|dock7
  -GOLD-   2272015573D 1   1.00000     0.00000
 Structure written by MMmdl.
 33 35  0  0  0  0  0  0  0  0  1 V2000
  151.7271  144.7815  158.7869 C   0  0  0  0  0  0  0  0  0  0  0  0
  152.2293  143.3699  159.0023 C   0  0  0  0  0  0  0  0  0  0  0  0
  153.0339  143.0322  160.1104 C   0  0  0  0  0  0  0  0  0  0  0  0
  153.4363  141.6828  160.1958 C   0  0  0  0  0  0  0  0  0  0  0  0
  154.3030  141.1858  161.3331 C   0  0  0  0  0  0  0  0  0  0  0  0
  153.0726  140.7705  159.2670 N   0  0  0  0  0  0  0  0  0  0  0  0
  152.3122  141.2016  158.2575 C   0  0  0  0  0  0  0  0  0  0  0  0
  151.9688  140.2433  157.3218 N   0  0  0  0  0  0  0  0  0  0  0  0
  151.6004  140.5395  155.9421 C   0  0  2  0  0  0  0  0  0  0  0  0
  150.3544  141.4201  155.8243 C   0  0  0  0  0  0  0  0  0  0  0  0
  149.4739  140.5925  154.8768 C   0  0  2  0  0  0  0  0  0  0  0  0
  148.8566  139.3852  155.5939 C   0  0  0  0  0  0  0  0  0  0  0  0
  150.0687  138.4710  155.7609 C   0  0  0  0  0  0  0  0  0  0  0  0
  151.1888  139.3054  155.1154 C   0  0  1  0  0  0  0  0  0  0  0  0
  150.4566  139.9464  154.0843 O   0  0  0  0  0  0  0  0  0  0  0  0
  151.8706  142.4523  158.0778 N   0  0  0  0  0  0  0  0  0  0  0  0
  151.9783  145.4224  159.6322 H   0  0  0  0  0  0  0  0  0  0  0  0
  150.6433  144.7861  158.6673 H   0  0  0  0  0  0  0  0  0  0  0  0
  152.1745  145.2086  157.8892 H   0  0  0  0  0  0  0  0  0  0  0  0
  153.3252  143.7638  160.8498 H   0  0  0  0  0  0  0  0  0  0  0  0
  154.4273  141.9534  162.0975 H   0  0  0  0  0  0  0  0  0  0  0  0
  155.2903  140.9093  160.9624 H   0  0  0  0  0  0  0  0  0  0  0  0
  153.8532  140.3098  161.8011 H   0  0  0  0  0  0  0  0  0  0  0  0
  152.1763  139.2841  157.5577 H   0  0  0  0  0  0  0  0  0  0  0  0
  152.4335  141.0444  155.4508 H   0  0  0  0  0  0  0  0  0  0  0  0
  149.8586  141.6122  156.7768 H   0  0  0  0  0  0  0  0  0  0  0  0
  150.6120  142.3813  155.3780 H   0  0  0  0  0  0  0  0  0  0  0  0
  148.7552  141.1842  154.3093 H   0  0  0  0  0  0  0  0  0  0  0  0
  148.3949  139.6562  156.5441 H   0  0  0  0  0  0  0  0  0  0  0  0
  148.1008  138.9069  154.9700 H   0  0  0  0  0  0  0  0  0  0  0  0
  150.2696  138.2167  156.8018 H   0  0  0  0  0  0  0  0  0  0  0  0
  149.9198  137.5407  155.2118 H   0  0  0  0  0  0  0  0  0  0  0  0
  152.0305  138.7111  154.7589 H   0  0  0  0  0  0  0  0  0  0  0  0
  1  2  1  0  0  0  0
  1 17  1  0  0  0  0
  1 18  1  0  0  0  0
  1 19  1  0  0  0  0
  2 16  1  0  0  0  0
  2  3  2  0  0  0  0
  3  4  1  0  0  0  0
  3 20  1  0  0  0  0
  4  5  1  0  0  0  0
  4  6  2  0  0  0  0
  5 21  1  0  0  0  0
  5 22  1  0  0  0  0
  5 23  1  0  0  0  0
  6  7  1  0  0  0  0
  7  8  1  0  0  0  0
  7 16  2  0  0  0  0
  8  9  1  0  0  0  0
  8 24  1  0  0  0  0
  9 14  1  0  0  0  0
  9 10  1  0  0  0  0
  9 25  1  0  0  0  0
 10 11  1  0  0  0  0
 10 26  1  0  0  0  0
 10 27  1  0  0  0  0
 11 15  1  0  0  0  0
 11 12  1  0  0  0  0
 11 28  1  0  0  0  0
 12 13  1  0  0  0  0
 12 29  1  0  0  0  0
 12 30  1  0  0  0  0
 13 14  1  0  0  0  0
 13 31  1  0  0  0  0
 13 32  1  0  0  0  0
 14 15  1  0  0  0  0
 14 33  1  0  0  0  0
M  END
> <s_m_source_file>
AV-unprocessed.smi

> <i_m_source_file_index>
2888

> <i_lp_mmshare_version>
43012

> <i_f3d_flags>
0

> <s_epik_input>
W0NIM11jMVtjSF1jKFtDSDNdKW5jKG4xKVtOSF1bQ0BIXShbQ0gyXVtDQEBIXTIzKVtDQEBIXShPMylbQ0gyXVtDSDJdMg==

> <s_epik_cmdline>
J2VwaWtfcHl0aG9uJywgJy1waCcsICc3LjAnLCAnLXRuJywgJzgnLCAnLW1hJywgJzIwMCcsICctbWV0YWxfYmluZGluZycsICctaW1hZScsICc8aW5maWxlLm1hZT4nLCAnLW9tYWUnLCAnPG91dGZpbGUubWFlPic=

> <r_lp_tautomer_probability>
1

> <r_epik_Ionization_Penalty>
0.00890508

> <r_epik_Ionization_Penalty_Charging>
0

> <r_epik_Ionization_Penalty_Neutral>
0.00890508

> <r_epik_State_Penalty>
0.0067342

> <r_epik_Charging_Adjusted_Penalty>
0.0067342

> <i_epik_Tot_Q>
0

> <i_epik_Tot_abs_Q>
0

> <r_epik_Metal_State_Penalty>
0.00663442

> <b_epik_Metal_Only>
0

> <s_lp_Force_Field>
OPLS_2005

> <r_lp_Energy>
31.8735

> <b_lp_Chiralities_Consistent>
1

> <s_lp_Variant>
AV-unprocessed.smi:2888-3

> <Gold.Version>
5.8.1

> <Gold.Id.Protein>
6NUR|6NUR_protein|mol2

> <Gold.PLP.Fitness>
38.4515

> <Gold.PLP.PLP>
-35.6968

> <Gold.PLP.part.hbond>
-1.0000

> <Gold.PLP.part.metal>
0.0000

> <Gold.PLP.part.buried>
-4.2137

> <Gold.PLP.part.nonpolar>
-30.6104

> <Gold.PLP.part.repulsive>
0.8402

> <Gold.PLP.ligand.clash>
0.0000

> <Gold.PLP.ligand.torsion>
0.1271

> <Gold.PLP.Chemscore.Hbond>
1.0000

> <Gold.PLP.Chemscore.CHOScore>
0.0000

> <Gold.PLP.Chemscore.Metal>
0.0000

> <Gold.Chemscore.Hbonds>
donor molecule, donor type, donor heavy atom, donor atom, acceptor molecule, acceptor atom, score
      P1  H  7989  7998       L1    15  0.95

> <Gold.PLP.Chemscore.Internal.Correction>
0.0089

> <Gold.Rescore>
     Score         DG    S(hbond)    S(metal)    S(lipo)     H(rot)  DE(clash)    DE(int)     intcor
     15.56     -16.54       0.82        0.00      93.07       1.00       0.00       0.98       ----

> <Gold.Chemscore.Fitness>
15.5624

> <Gold.Chemscore.DG>
-16.5410

> <Gold.Chemscore.ZeroCoef>
-5.4800

> <Gold.Chemscore.Hbond>
0.8179

> <Gold.Chemscore.Metal>
0.0000

> <Gold.Chemscore.Lipo>
93.0701

> <Gold.Chemscore.Internal_Hbond>
0.0000

> <Gold.Chemscore.DEClash>
0.0015

> <Gold.Chemscore.DEInternal>
0.9771

> <Gold.Chemscore.Rot>
1.0000

> <Gold.Chemscore.Internal.Correction>
   9.000000E+99

> <Gold.Chemscore.Hbonds>
donor molecule, donor type, donor heavy atom, donor atom, acceptor molecule, acceptor atom, score
      P1  H  7989  7998       L1    15  0.20

> <Gold.Chemscore.Hbond.Weighted>
-2.7318

> <Gold.Chemscore.Metal.Weighted>
-0.0000

> <Gold.Chemscore.Lipo.Weighted>
-10.8892

> <Gold.Chemscore.Internal_Hbond.Weighted>
0.0000

> <Gold.Chemscore.DEClash.Weighted>
0.0015

> <Gold.Chemscore.DEInternal.Weighted>
0.9771

> <Gold.Chemscore.Rot.Weighted>
2.5600

> <Gold.Chemscore.Internal.Correction.Weighted>
   9.000000E+99

> <Gold.Protein.RotatedTorsions>
[ 6907 6896 6895 6894 ] final   19.72 input  -60.11 | X-H torsion
[ 7974 7965 7964 7962 ] final  -93.37 input  175.53 | X-H torsion
[ 8008 7997 7996 7995 ] final  159.62 input   59.86 | X-H torsion
[ 10167 10162 10161 10158 ] final   -4.89 input  -65.29 | X-H torsion
[ 10718 10713 10712 10709 ] final -176.74 input   66.30 | X-H torsion
[ 10763 10752 10751 10750 ] final  -16.80 input  -60.55 | X-H torsion
[ 11005 11000 10999 10996 ] final  133.58 input  -57.11 | X-H torsion

> <Gold.Protein.ActiveResidues>
 VAL166  LYS551  ARG553  GLY616  TRP617  ASP618  TYR619  PRO620  LYS621  CYS622 
 ASP623  PHE694  ASN695  SER759  ASP760  ASP761  ALA762  ILE779  LEU786  VAL792 
 PHE793  MET794  SER795  GLU796  ALA797  LYS798  CYS799  TRP800  GLU811  SER814 

> <Gold.Protein.RotatedAtoms>
  151.8853  135.0438  160.0492 H   0  0  0  0  0  0  0  0  0  0  0  0  # atno 6907 bound_to 6896
  152.2480  133.5186  159.5317 H   0  0  0  0  0  0  0  0  0  0  0  0  # atno 6908 bound_to 6896
  150.7074  134.0915  159.3976 H   0  0  0  0  0  0  0  0  0  0  0  0  # atno 6909 bound_to 6896
  145.3875  140.9524  143.2359 H   0  0  0  0  0  0  0  0  0  0  0  0  # atno 7974 bound_to 7965
  156.2227  140.1826  156.7439 H   0  0  0  0  0  0  0  0  0  0  0  0  # atno 8008 bound_to 7997
  154.5890  140.0654  156.9241 H   0  0  0  0  0  0  0  0  0  0  0  0  # atno 8009 bound_to 7997
  155.2369  140.3319  155.4299 H   0  0  0  0  0  0  0  0  0  0  0  0  # atno 8010 bound_to 7997
  140.6944  143.6371  150.8469 H   0  0  0  0  0  0  0  0  0  0  0  0  # atno 10167 bound_to 10162
  156.8191  130.9613  151.3112 H   0  0  0  0  0  0  0  0  0  0  0  0  # atno 10718 bound_to 10713
  153.5641  135.7009  153.5534 H   0  0  0  0  0  0  0  0  0  0  0  0  # atno 10763 bound_to 10752
  153.3403  135.4023  155.1566 H   0  0  0  0  0  0  0  0  0  0  0  0  # atno 10764 bound_to 10752
  154.8643  135.3740  154.5160 H   0  0  0  0  0  0  0  0  0  0  0  0  # atno 10765 bound_to 10752
  139.9861  134.9532  156.9746 H   0  0  0  0  0  0  0  0  0  0  0  0  # atno 11005 bound_to 11000
  144.8464  139.5391  143.6877 LP  0  0  0  0  0  0  0  0  0  0  0  0  # atno 17320 bound_to 7965
  146.2813  139.6885  142.9227 LP  0  0  0  0  0  0  0  0  0  0  0  0  # atno 17321 bound_to 7965
  140.0087  143.5665  152.2847 LP  0  0  0  0  0  0  0  0  0  0  0  0  # atno 17342 bound_to 10162
  139.6381  144.7652  151.2395 LP  0  0  0  0  0  0  0  0  0  0  0  0  # atno 17343 bound_to 10162
  157.6466  130.8849  149.9551 LP  0  0  0  0  0  0  0  0  0  0  0  0  # atno 17370 bound_to 10713
  156.0999  130.3656  150.0237 LP  0  0  0  0  0  0  0  0  0  0  0  0  # atno 17371 bound_to 10713
  140.5000  134.1107  155.7248 LP  0  0  0  0  0  0  0  0  0  0  0  0  # atno 17394 bound_to 11000
  141.1525  133.8942  157.2060 LP  0  0  0  0  0  0  0  0  0  0  0  0  # atno 17395 bound_to 11000

$$$$
