AV-unprocessed.smi:2445|AV-procd|sdf|9636|dock1
  -GOLD-   2272013273D 1   1.00000     0.00000
 Structure written by MMmdl.
 40 41  0  0  0  0  0  0  0  0  1 V2000
  143.9298  132.5877  149.0357 C   0  0  0  0  0  0  0  0  0  0  0  0
  144.7548  132.7485  150.2667 C   0  0  0  0  0  0  0  0  0  0  0  0
  145.9990  132.2260  150.5188 C   0  0  0  0  0  0  0  0  0  0  0  0
  146.5111  132.5679  151.7719 N   0  0  0  0  0  0  0  0  0  0  0  0
  145.6762  133.3409  152.4722 C   0  0  0  0  0  0  0  0  0  0  0  0
  145.9953  133.8987  153.8265 C   0  0  1  0  0  0  0  0  0  0  0  0
  147.3272  133.3603  154.3693 C   0  0  0  0  0  0  0  0  0  0  0  0
  145.8958  135.4387  153.8904 C   0  0  0  0  0  0  0  0  0  0  0  0
  147.2084  136.0799  153.8276 N   0  0  0  0  0  0  0  0  0  0  0  0
  147.7499  136.8432  154.7880 C   0  0  0  0  0  0  0  0  0  0  0  0
  147.1759  137.1541  155.8315 O   0  0  0  0  0  0  0  0  0  0  0  0
  149.0024  137.2088  154.4821 N   0  0  0  0  0  0  0  0  0  0  0  0
  149.8915  137.9830  155.3488 C   0  0  1  0  0  0  0  0  0  0  0  0
  151.3523  137.6385  155.0626 C   0  0  0  0  0  0  0  0  0  0  0  0
  152.0301  138.9950  154.9008 C   0  0  0  0  0  0  0  0  0  0  0  0
  150.9974  139.8148  154.3831 O   0  0  0  0  0  0  0  0  0  0  0  0
  149.8174  139.5090  155.1119 C   0  0  1  0  0  0  0  0  0  0  0  0
  148.5842  140.0559  154.3751 C   0  0  0  0  0  0  0  0  0  0  0  0
  144.1792  133.6922  151.6153 S   0  0  0  0  0  0  0  0  0  0  0  0
  144.4687  132.0258  148.2724 H   0  0  0  0  0  0  0  0  0  0  0  0
  143.6686  133.5595  148.6162 H   0  0  0  0  0  0  0  0  0  0  0  0
  143.0051  132.0544  149.2573 H   0  0  0  0  0  0  0  0  0  0  0  0
  146.5928  131.6058  149.8636 H   0  0  0  0  0  0  0  0  0  0  0  0
  145.2245  133.5157  154.4967 H   0  0  0  0  0  0  0  0  0  0  0  0
  147.3272  132.2702  154.3982 H   0  0  0  0  0  0  0  0  0  0  0  0
  147.5120  133.7175  155.3827 H   0  0  0  0  0  0  0  0  0  0  0  0
  148.1653  133.6773  153.7478 H   0  0  0  0  0  0  0  0  0  0  0  0
  145.3046  135.8051  153.0510 H   0  0  0  0  0  0  0  0  0  0  0  0
  145.3615  135.7436  154.7919 H   0  0  0  0  0  0  0  0  0  0  0  0
  147.7633  135.8919  153.0056 H   0  0  0  0  0  0  0  0  0  0  0  0
  149.3828  136.9081  153.5968 H   0  0  0  0  0  0  0  0  0  0  0  0
  149.6720  137.7743  156.3976 H   0  0  0  0  0  0  0  0  0  0  0  0
  151.8067  137.0419  155.8542 H   0  0  0  0  0  0  0  0  0  0  0  0
  151.4468  137.0771  154.1316 H   0  0  0  0  0  0  0  0  0  0  0  0
  152.3575  139.3853  155.8658 H   0  0  0  0  0  0  0  0  0  0  0  0
  152.8911  138.9595  154.2333 H   0  0  0  0  0  0  0  0  0  0  0  0
  149.8949  140.0109  156.0782 H   0  0  0  0  0  0  0  0  0  0  0  0
  147.6671  139.8180  154.9142 H   0  0  0  0  0  0  0  0  0  0  0  0
  148.5027  139.6470  153.3677 H   0  0  0  0  0  0  0  0  0  0  0  0
  148.6407  141.1408  154.2844 H   0  0  0  0  0  0  0  0  0  0  0  0
  1  2  1  0  0  0  0
  1 20  1  0  0  0  0
  1 21  1  0  0  0  0
  1 22  1  0  0  0  0
  2 19  1  0  0  0  0
  2  3  2  0  0  0  0
  3  4  1  0  0  0  0
  3 23  1  0  0  0  0
  4  5  2  0  0  0  0
  5  6  1  0  0  0  0
  5 19  1  0  0  0  0
  6  7  1  0  0  0  0
  6  8  1  0  0  0  0
  6 24  1  0  0  0  0
  7 25  1  0  0  0  0
  7 26  1  0  0  0  0
  7 27  1  0  0  0  0
  8  9  1  0  0  0  0
  8 28  1  0  0  0  0
  8 29  1  0  0  0  0
  9 10  1  0  0  0  0
  9 30  1  0  0  0  0
 10 11  2  0  0  0  0
 10 12  1  0  0  0  0
 12 13  1  0  0  0  0
 12 31  1  0  0  0  0
 13 17  1  0  0  0  0
 13 14  1  0  0  0  0
 13 32  1  0  0  0  0
 14 15  1  0  0  0  0
 14 33  1  0  0  0  0
 14 34  1  0  0  0  0
 15 16  1  0  0  0  0
 15 35  1  0  0  0  0
 15 36  1  0  0  0  0
 16 17  1  0  0  0  0
 17 18  1  0  0  0  0
 17 37  1  0  0  0  0
 18 38  1  0  0  0  0
 18 39  1  0  0  0  0
 18 40  1  0  0  0  0
M  END
> <s_m_source_file>
AV-unprocessed.smi

> <i_m_source_file_index>
2445

> <i_lp_mmshare_version>
43012

> <i_f3d_flags>
0

> <s_epik_input>
W0NIM11jMVtjSF1uYyhzMSlbQ0BIXShbQ0gzXSlbQ0gyXVtOSF1DKD1PKVtOSF1bQ0BASF0yW0NIMl1bQ0gyXU9bQ0BIXTJbQ0gzXQ==

> <s_epik_cmdline>
J2VwaWtfcHl0aG9uJywgJy1waCcsICc3LjAnLCAnLXRuJywgJzgnLCAnLW1hJywgJzIwMCcsICctbWV0YWxfYmluZGluZycsICctaW1hZScsICc8aW5maWxlLm1hZT4nLCAnLW9tYWUnLCAnPG91dGZpbGUubWFlPic=

> <r_epik_Ionization_Penalty>
0.000649483

> <r_epik_Ionization_Penalty_Charging>
0

> <r_epik_Ionization_Penalty_Neutral>
0.000649483

> <r_epik_State_Penalty>
0.000379895

> <r_epik_Charging_Adjusted_Penalty>
0.000379895

> <i_epik_Tot_Q>
0

> <i_epik_Tot_abs_Q>
0

> <r_epik_Metal_State_Penalty>
-0

> <b_epik_Metal_Only>
0

> <s_lp_Force_Field>
OPLS_2005

> <r_lp_Energy>
6.66007

> <b_lp_Chiralities_Consistent>
1

> <s_lp_Variant>
AV-unprocessed.smi:2445-4

> <Gold.Version>
5.8.1

> <Gold.Id.Protein>
6NUR|6NUR_protein|mol2

> <Gold.PLP.Fitness>
38.9703

> <Gold.PLP.PLP>
-29.1925

> <Gold.PLP.part.hbond>
-3.0000

> <Gold.PLP.part.metal>
0.0000

> <Gold.PLP.part.buried>
-4.6923

> <Gold.PLP.part.nonpolar>
-22.2541

> <Gold.PLP.part.repulsive>
0.2806

> <Gold.PLP.ligand.clash>
0.0000

> <Gold.PLP.ligand.torsion>
0.9240

> <Gold.PLP.Chemscore.Hbond>
2.9120

> <Gold.PLP.Chemscore.CHOScore>
0.9125

> <Gold.PLP.Chemscore.Metal>
0.0000

> <Gold.Chemscore.Hbonds>
donor molecule, donor type, donor heavy atom, donor atom, acceptor molecule, acceptor atom, score
      L1  H     9    30       P1  7948  1.00
      L1  H    12    31       P1  7948  0.93
      P1  H  7989  7998       L1    16  0.96
      L1  C     3    23       P1 10747  0.94

> <Gold.PLP.Chemscore.Internal.Correction>
0.1523

> <Gold.Rescore>
     Score         DG    S(hbond)    S(metal)    S(lipo)     H(rot)  DE(clash)    DE(int)     intcor
     19.23     -20.17       2.81        0.00      78.84       1.53       0.00       0.94       ----

> <Gold.Chemscore.Fitness>
19.2274

> <Gold.Chemscore.DG>
-20.1720

> <Gold.Chemscore.ZeroCoef>
-5.4800

> <Gold.Chemscore.Hbond>
2.8116

> <Gold.Chemscore.Metal>
0.0000

> <Gold.Chemscore.Lipo>
78.8436

> <Gold.Chemscore.Internal_Hbond>
0.0000

> <Gold.Chemscore.DEClash>
0.0000

> <Gold.Chemscore.DEInternal>
0.9447

> <Gold.Chemscore.Rot>
1.5325

> <Gold.Chemscore.Internal.Correction>
   9.000000E+99

> <Gold.Chemscore.Hbonds>
donor molecule, donor type, donor heavy atom, donor atom, acceptor molecule, acceptor atom, score
      L1  H     9    30       P1  7948  0.98
      L1  H    12    31       P1  7948  0.84
      P1  H  7989  7998       L1    16  0.60

> <Gold.Chemscore.Hbond.Weighted>
-9.3906

> <Gold.Chemscore.Metal.Weighted>
-0.0000

> <Gold.Chemscore.Lipo.Weighted>
-9.2247

> <Gold.Chemscore.Internal_Hbond.Weighted>
0.0000

> <Gold.Chemscore.DEClash.Weighted>
0.0000

> <Gold.Chemscore.DEInternal.Weighted>
0.9447

> <Gold.Chemscore.Rot.Weighted>
3.9233

> <Gold.Chemscore.Internal.Correction.Weighted>
   9.000000E+99

> <Gold.Protein.RotatedTorsions>
[ 6907 6896 6895 6894 ] final  -18.67 input  -60.11 | X-H torsion
[ 7974 7965 7964 7962 ] final  -14.90 input  175.53 | X-H torsion
[ 8008 7997 7996 7995 ] final    2.73 input   59.86 | X-H torsion
[ 10167 10162 10161 10158 ] final -174.51 input  -65.29 | X-H torsion
[ 10718 10713 10712 10709 ] final -114.00 input   66.30 | X-H torsion
[ 10763 10752 10751 10750 ] final -139.74 input  -60.55 | X-H torsion
[ 11005 11000 10999 10996 ] final   56.04 input  -57.11 | X-H torsion

> <Gold.Protein.ActiveResidues>
 VAL166  LYS551  ARG553  GLY616  TRP617  ASP618  TYR619  PRO620  LYS621  CYS622 
 ASP623  PHE694  ASN695  SER759  ASP760  ASP761  ALA762  ILE779  LEU786  VAL792 
 PHE793  MET794  SER795  GLU796  ALA797  LYS798  CYS799  TRP800  GLU811  SER814 

> <Gold.Protein.RotatedAtoms>
  151.2747  135.0695  159.9146 H   0  0  0  0  0  0  0  0  0  0  0  0  # atno 6907 bound_to 6896
  152.5344  134.0094  159.7941 H   0  0  0  0  0  0  0  0  0  0  0  0  # atno 6908 bound_to 6896
  151.0338  133.5716  159.2689 H   0  0  0  0  0  0  0  0  0  0  0  0  # atno 6909 bound_to 6896
  146.2055  140.3415  142.8408 H   0  0  0  0  0  0  0  0  0  0  0  0  # atno 7974 bound_to 7965
  154.6951  140.2661  155.6774 H   0  0  0  0  0  0  0  0  0  0  0  0  # atno 8008 bound_to 7997
  156.2746  140.2783  156.1466 H   0  0  0  0  0  0  0  0  0  0  0  0  # atno 8009 bound_to 7997
  155.0842  140.0373  157.2639 H   0  0  0  0  0  0  0  0  0  0  0  0  # atno 8010 bound_to 7997
  139.5630  144.1824  152.1268 H   0  0  0  0  0  0  0  0  0  0  0  0  # atno 10167 bound_to 10162
  156.0802  130.6003  150.8717 H   0  0  0  0  0  0  0  0  0  0  0  0  # atno 10718 bound_to 10713
  154.8600  135.3574  154.5594 H   0  0  0  0  0  0  0  0  0  0  0  0  # atno 10763 bound_to 10752
  153.6210  135.7006  153.5315 H   0  0  0  0  0  0  0  0  0  0  0  0  # atno 10764 bound_to 10752
  153.3129  135.4173  155.1311 H   0  0  0  0  0  0  0  0  0  0  0  0  # atno 10765 bound_to 10752
  140.0560  134.5670  155.9208 H   0  0  0  0  0  0  0  0  0  0  0  0  # atno 11005 bound_to 11000
  144.8782  140.7365  143.6003 LP  0  0  0  0  0  0  0  0  0  0  0  0  # atno 17320 bound_to 7965
  145.3335  139.1753  143.4524 LP  0  0  0  0  0  0  0  0  0  0  0  0  # atno 17321 bound_to 7965
  140.1341  144.5262  150.6784 LP  0  0  0  0  0  0  0  0  0  0  0  0  # atno 17342 bound_to 10162
  140.6911  143.2377  151.5128 LP  0  0  0  0  0  0  0  0  0  0  0  0  # atno 17343 bound_to 10162
  157.5915  131.0944  150.9110 LP  0  0  0  0  0  0  0  0  0  0  0  0  # atno 17370 bound_to 10713
  156.9285  130.5341  149.5279 LP  0  0  0  0  0  0  0  0  0  0  0  0  # atno 17371 bound_to 10713
  141.1952  133.6586  156.5631 LP  0  0  0  0  0  0  0  0  0  0  0  0  # atno 17394 bound_to 11000
  140.3844  134.7495  157.4682 LP  0  0  0  0  0  0  0  0  0  0  0  0  # atno 17395 bound_to 11000

$$$$
