AV-unprocessed.smi:283|AV-procd|sdf|2135|dock3
  -GOLD-   2262021453D 1   1.00000     0.00000
 Structure written by MMmdl.
 48 51  0  0  0  0  0  0  0  0  1 V2000
  150.9497  142.2318  156.8433 C   0  0  0  0  0  0  0  0  0  0  0  0
  151.8720  141.6816  157.9392 C   0  0  2  0  0  0  0  0  0  0  0  0
  151.4981  140.3060  158.2637 N   0  0  0  0  0  0  0  0  0  0  0  0
  151.6948  139.3080  157.3733 C   0  0  0  0  0  0  0  0  0  0  0  0
  152.5567  139.4541  156.3334 N   0  0  0  0  0  0  0  0  0  0  0  0
  152.7355  138.4518  155.4690 C   0  0  0  0  0  0  0  0  0  0  0  0
  152.1604  137.2479  155.4592 N   0  0  0  0  0  0  0  0  0  0  0  0
  151.2885  137.0952  156.4977 C   0  0  0  0  0  0  0  0  0  0  0  0
  151.0036  138.0747  157.4902 C   0  0  0  0  0  0  0  0  0  0  0  0
  150.0742  137.5760  158.3927 N   0  0  0  0  0  0  0  0  0  0  0  0
  149.8261  136.3713  157.9550 C   0  0  0  0  0  0  0  0  0  0  0  0
  150.5140  135.9972  156.8218 N   0  0  0  0  0  0  0  0  0  0  0  0
  150.4268  134.6792  156.1105 C   0  0  1  0  0  0  0  0  0  0  0  0
  149.5427  133.8349  156.7872 O   0  0  0  0  0  0  0  0  0  0  0  0
  148.4387  133.4904  155.9512 C   0  0  2  0  0  0  0  0  0  0  0  0
  147.8716  132.1098  156.3241 C   0  0  0  0  0  0  0  0  0  0  0  0
  146.9487  131.6872  155.3432 O   0  0  0  0  0  0  0  0  0  0  0  0
  149.0025  133.6147  154.5296 C   0  0  2  0  0  0  0  0  0  0  0  0
  149.7170  132.4495  154.1583 O   0  0  0  0  0  0  0  0  0  0  0  0
  149.9432  134.8033  154.6510 C   0  0  1  0  0  0  0  0  0  0  0  0
  149.2569  136.0113  154.3733 O   0  0  0  0  0  0  0  0  0  0  0  0
  151.8932  142.6242  159.1448 C   0  0  0  0  0  0  0  0  0  0  0  0
  151.0798  143.7811  159.1404 C   0  0  0  0  0  0  0  0  0  0  0  0
  151.0793  144.6627  160.2374 C   0  0  0  0  0  0  0  0  0  0  0  0
  151.8975  144.3994  161.3504 C   0  0  0  0  0  0  0  0  0  0  0  0
  152.7185  143.2567  161.3615 C   0  0  0  0  0  0  0  0  0  0  0  0
  152.7239  142.3704  160.2654 C   0  0  0  0  0  0  0  0  0  0  0  0
  153.7613  140.9887  160.3310 Cl  0  0  0  0  0  0  0  0  0  0  0  0
  151.4319  134.2624  156.1852 H   0  0  0  0  0  0  0  0  0  0  0  0
  147.6620  134.2480  156.0618 H   0  0  0  0  0  0  0  0  0  0  0  0
  148.2158  133.7772  153.7914 H   0  0  0  0  0  0  0  0  0  0  0  0
  150.7952  134.7354  153.9733 H   0  0  0  0  0  0  0  0  0  0  0  0
  151.2639  143.2285  156.5321 H   0  0  0  0  0  0  0  0  0  0  0  0
  149.9176  142.3008  157.1888 H   0  0  0  0  0  0  0  0  0  0  0  0
  150.9637  141.5925  155.9600 H   0  0  0  0  0  0  0  0  0  0  0  0
  152.8732  141.6260  157.5137 H   0  0  0  0  0  0  0  0  0  0  0  0
  151.2640  140.1341  159.2309 H   0  0  0  0  0  0  0  0  0  0  0  0
  153.4393  138.6414  154.6721 H   0  0  0  0  0  0  0  0  0  0  0  0
  149.1288  135.7138  158.4537 H   0  0  0  0  0  0  0  0  0  0  0  0
  148.6724  131.3707  156.3585 H   0  0  0  0  0  0  0  0  0  0  0  0
  147.3980  132.1248  157.3061 H   0  0  0  0  0  0  0  0  0  0  0  0
  146.9145  132.3426  154.6632 H   0  0  0  0  0  0  0  0  0  0  0  0
  150.5509  132.7106  153.7985 H   0  0  0  0  0  0  0  0  0  0  0  0
  148.9288  135.9729  153.4880 H   0  0  0  0  0  0  0  0  0  0  0  0
  150.4477  143.9982  158.2918 H   0  0  0  0  0  0  0  0  0  0  0  0
  150.4510  145.5412  160.2242 H   0  0  0  0  0  0  0  0  0  0  0  0
  151.8975  145.0743  162.1936 H   0  0  0  0  0  0  0  0  0  0  0  0
  153.3488  143.0597  162.2162 H   0  0  0  0  0  0  0  0  0  0  0  0
  1  2  1  0  0  0  0
  1 33  1  0  0  0  0
  1 34  1  0  0  0  0
  1 35  1  0  0  0  0
  2  3  1  0  0  0  0
  2 22  1  0  0  0  0
  2 36  1  0  0  0  0
  3  4  1  0  0  0  0
  3 37  1  0  0  0  0
  4  9  1  0  0  0  0
  4  5  2  0  0  0  0
  5  6  1  0  0  0  0
  6  7  2  0  0  0  0
  6 38  1  0  0  0  0
  7  8  1  0  0  0  0
  8 12  1  0  0  0  0
  8  9  2  0  0  0  0
  9 10  1  0  0  0  0
 10 11  2  0  0  0  0
 11 12  1  0  0  0  0
 11 39  1  0  0  0  0
 12 13  1  0  0  0  0
 13 29  1  0  0  0  0
 13 20  1  0  0  0  0
 13 14  1  0  0  0  0
 14 15  1  0  0  0  0
 15 30  1  0  0  0  0
 15 16  1  0  0  0  0
 15 18  1  0  0  0  0
 16 17  1  0  0  0  0
 16 40  1  0  0  0  0
 16 41  1  0  0  0  0
 17 42  1  0  0  0  0
 18 31  1  0  0  0  0
 18 19  1  0  0  0  0
 18 20  1  0  0  0  0
 19 43  1  0  0  0  0
 20 32  1  0  0  0  0
 20 21  1  0  0  0  0
 21 44  1  0  0  0  0
 22 27  1  0  0  0  0
 22 23  2  0  0  0  0
 23 24  1  0  0  0  0
 23 45  1  0  0  0  0
 24 25  2  0  0  0  0
 24 46  1  0  0  0  0
 25 26  1  0  0  0  0
 25 47  1  0  0  0  0
 26 27  2  0  0  0  0
 26 48  1  0  0  0  0
 27 28  1  0  0  0  0
M  END
> <s_m_source_file>
AV-unprocessed.smi

> <i_m_source_file_index>
283

> <i_lp_mmshare_version>
43012

> <i_f3d_flags>
0

> <s_epik_input>
Q2xjMVtjSF1bY0hdW2NIXVtjSF1jMVtDQEhdKFtDSDNdKVtOSF1jKG5bY0hdbjIpYyhjMjMpbltjSF1uM1tDQEBIXTRPW0NASF0oW0NIMl1bT0hdKVtDQEBIXShbT0hdKVtDQEhdNFtPSF0=

> <s_epik_cmdline>
J2VwaWtfcHl0aG9uJywgJy1waCcsICc3LjAnLCAnLXRuJywgJzgnLCAnLW1hJywgJzIwMCcsICctbWV0YWxfYmluZGluZycsICctaW1hZScsICc8aW5maWxlLm1hZT4nLCAnLW9tYWUnLCAnPG91dGZpbGUubWFlPic=

> <r_lp_tautomer_probability>
1

> <r_epik_Ionization_Penalty>
0.000266407

> <r_epik_Ionization_Penalty_Charging>
0

> <r_epik_Ionization_Penalty_Neutral>
0.000266407

> <r_epik_State_Penalty>
-0

> <r_epik_Charging_Adjusted_Penalty>
0

> <i_epik_Tot_Q>
0

> <i_epik_Tot_abs_Q>
0

> <r_epik_Metal_State_Penalty>
-0

> <b_epik_Metal_Only>
0

> <s_epik_Chemistry_Notes>
This compound contains an acetal/aminal-like group ( X-CH(R)-Y where X, Y are N, S, or O) that may be acid/base labile, releasing an aldehyde.

> <s_lp_Force_Field>
OPLS_2005

> <r_lp_Energy>
46.2986

> <b_lp_Chiralities_Consistent>
1

> <s_lp_Variant>
AV-unprocessed.smi:283-11

> <Gold.Version>
5.8.1

> <Gold.Id.Protein>
6NUR|6NUR_protein|mol2

> <Gold.PLP.Fitness>
52.3608

> <Gold.PLP.PLP>
-44.1774

> <Gold.PLP.part.hbond>
-3.0000

> <Gold.PLP.part.metal>
0.0000

> <Gold.PLP.part.buried>
-7.0928

> <Gold.PLP.part.nonpolar>
-34.7088

> <Gold.PLP.part.repulsive>
0.1535

> <Gold.PLP.ligand.clash>
0.0000

> <Gold.PLP.ligand.torsion>
0.2519

> <Gold.PLP.Chemscore.Hbond>
2.8800

> <Gold.PLP.Chemscore.CHOScore>
0.0000

> <Gold.PLP.Chemscore.Metal>
0.0000

> <Gold.Chemscore.Hbonds>
donor molecule, donor type, donor heavy atom, donor atom, acceptor molecule, acceptor atom, score
      L1  H    21    44       P1  7948  1.00
      P1  H  7997  8009       L1     5  1.00
      P1  H 10752 10763       L1     7  0.85

> <Gold.PLP.Chemscore.Internal.Correction>
0.0473

> <Gold.Rescore>
     Score         DG    S(hbond)    S(metal)    S(lipo)     H(rot)  DE(clash)    DE(int)     intcor
     15.54     -15.93       2.47        0.00     108.51       4.10       0.15       0.24       ----

> <Gold.Chemscore.Fitness>
15.5363

> <Gold.Chemscore.DG>
-15.9268

> <Gold.Chemscore.ZeroCoef>
-5.4800

> <Gold.Chemscore.Hbond>
2.4668

> <Gold.Chemscore.Metal>
0.0000

> <Gold.Chemscore.Lipo>
108.5083

> <Gold.Chemscore.Internal_Hbond>
0.0000

> <Gold.Chemscore.DEClash>
0.1497

> <Gold.Chemscore.DEInternal>
0.2407

> <Gold.Chemscore.Rot>
4.0968

> <Gold.Chemscore.Internal.Correction>
   9.000000E+99

> <Gold.Chemscore.Hbonds>
donor molecule, donor type, donor heavy atom, donor atom, acceptor molecule, acceptor atom, score
      L1  H    21    44       P1  7948  0.94
      P1  H  7997  8009       L1     5  0.34
      P1  H 10752 10763       L1     7  0.74

> <Gold.Chemscore.Hbond.Weighted>
-8.2392

> <Gold.Chemscore.Metal.Weighted>
-0.0000

> <Gold.Chemscore.Lipo.Weighted>
-12.6955

> <Gold.Chemscore.Internal_Hbond.Weighted>
0.0000

> <Gold.Chemscore.DEClash.Weighted>
0.1497

> <Gold.Chemscore.DEInternal.Weighted>
0.2407

> <Gold.Chemscore.Rot.Weighted>
10.4879

> <Gold.Chemscore.Internal.Correction.Weighted>
   9.000000E+99

> <Gold.Protein.RotatedTorsions>
[ 6907 6896 6895 6894 ] final  -11.06 input  -60.11 | X-H torsion
[ 7974 7965 7964 7962 ] final  173.76 input  175.53 | X-H torsion
[ 8008 7997 7996 7995 ] final -178.96 input   59.86 | X-H torsion
[ 10167 10162 10161 10158 ] final -153.74 input  -65.29 | X-H torsion
[ 10718 10713 10712 10709 ] final   16.90 input   66.30 | X-H torsion
[ 10763 10752 10751 10750 ] final   70.30 input  -60.55 | X-H torsion
[ 11005 11000 10999 10996 ] final  -16.14 input  -57.11 | X-H torsion

> <Gold.Protein.ActiveResidues>
 VAL166  LYS551  ARG553  GLY616  TRP617  ASP618  TYR619  PRO620  LYS621  CYS622 
 ASP623  PHE694  ASN695  SER759  ASP760  ASP761  ALA762  ILE779  LEU786  VAL792 
 PHE793  MET794  SER795  GLU796  ALA797  LYS798  CYS799  TRP800  GLU811  SER814 

> <Gold.Protein.RotatedAtoms>
  151.3922  135.0958  159.9529 H   0  0  0  0  0  0  0  0  0  0  0  0  # atno 6907 bound_to 6896
  152.5076  133.8969  159.7432 H   0  0  0  0  0  0  0  0  0  0  0  0  # atno 6908 bound_to 6896
  150.9425  133.6584  159.2816 H   0  0  0  0  0  0  0  0  0  0  0  0  # atno 6909 bound_to 6896
  144.7236  139.9695  143.6436 H   0  0  0  0  0  0  0  0  0  0  0  0  # atno 7974 bound_to 7965
  156.0249  140.1269  157.0319 H   0  0  0  0  0  0  0  0  0  0  0  0  # atno 8008 bound_to 7997
  154.4326  140.1061  156.6087 H   0  0  0  0  0  0  0  0  0  0  0  0  # atno 8009 bound_to 7997
  155.5891  140.3469  155.4563 H   0  0  0  0  0  0  0  0  0  0  0  0  # atno 8010 bound_to 7997
  139.7072  143.9167  152.2453 H   0  0  0  0  0  0  0  0  0  0  0  0  # atno 10167 bound_to 10162
  157.0744  130.6362  149.5812 H   0  0  0  0  0  0  0  0  0  0  0  0  # atno 10718 bound_to 10713
  153.0334  135.5179  154.7420 H   0  0  0  0  0  0  0  0  0  0  0  0  # atno 10763 bound_to 10752
  154.6417  135.2913  155.0098 H   0  0  0  0  0  0  0  0  0  0  0  0  # atno 10764 bound_to 10752
  154.1014  135.6636  153.4921 H   0  0  0  0  0  0  0  0  0  0  0  0  # atno 10765 bound_to 10752
  140.8038  133.8193  155.9496 H   0  0  0  0  0  0  0  0  0  0  0  0  # atno 11005 bound_to 11000
  146.0574  139.3570  143.0602 LP  0  0  0  0  0  0  0  0  0  0  0  0  # atno 17320 bound_to 7965
  145.8137  140.9713  143.0935 LP  0  0  0  0  0  0  0  0  0  0  0  0  # atno 17321 bound_to 7965
  139.9026  144.6903  150.8648 LP  0  0  0  0  0  0  0  0  0  0  0  0  # atno 17342 bound_to 10162
  140.7724  143.3502  151.2029 LP  0  0  0  0  0  0  0  0  0  0  0  0  # atno 17343 bound_to 10162
  155.9941  130.5004  150.7407 LP  0  0  0  0  0  0  0  0  0  0  0  0  # atno 17370 bound_to 10713
  157.4851  131.0906  151.0491 LP  0  0  0  0  0  0  0  0  0  0  0  0  # atno 17371 bound_to 10713
  140.9268  134.2073  157.4891 LP  0  0  0  0  0  0  0  0  0  0  0  0  # atno 17394 bound_to 11000
  139.8719  134.9816  156.5121 LP  0  0  0  0  0  0  0  0  0  0  0  0  # atno 17395 bound_to 11000

$$$$
