AV-unprocessed.smi:625|AV-procd|sdf|3104|dock6
  -GOLD-   22720 0 23D 1   1.00000     0.00000
 Structure written by MMmdl.
 49 51  0  0  0  0  0  0  0  0  1 V2000
  144.2006  132.9044  149.4005 C   0  0  0  0  0  0  0  0  0  0  0  0
  145.1400  132.4692  150.4229 N   0  0  0  0  0  0  0  0  0  0  0  0
  145.8521  133.2980  151.2062 C   0  0  0  0  0  0  0  0  0  0  0  0
  145.7501  134.5218  151.1102 O   0  0  0  0  0  0  0  0  0  0  0  0
  146.7379  132.6184  152.1561 C   0  0  0  0  0  0  0  0  0  0  0  0
  146.5184  131.2147  152.4474 C   0  0  0  0  0  0  0  0  0  0  0  0
  147.2989  130.5628  153.3312 C   0  0  0  0  0  0  0  0  0  0  0  0
  148.3963  131.2351  154.0313 C   0  0  0  0  0  0  0  0  0  0  0  0
  149.0990  130.6521  154.8570 O   0  0  0  0  0  0  0  0  0  0  0  0
  148.5829  132.5533  153.7162 N   0  0  0  0  0  0  0  0  0  0  0  0
  149.6488  133.3409  154.3638 C   0  0  0  0  0  0  0  0  0  0  0  0
  149.1481  134.5141  155.2242 C   0  0  0  0  0  0  0  0  0  0  0  0
  149.1673  134.4093  156.4498 O   0  0  0  0  0  0  0  0  0  0  0  0
  148.7016  135.6129  154.5925 N   0  0  0  0  0  0  0  0  0  0  0  0
  148.1364  136.8018  155.2238 C   0  0  1  0  0  0  0  0  0  0  0  0
  147.0307  136.3712  156.2046 C   0  0  0  0  0  0  0  0  0  0  0  0
  149.2754  137.5957  155.9102 C   0  0  1  0  0  0  0  0  0  0  0  0
  150.5013  137.8445  154.9940 C   0  0  0  0  0  0  0  0  0  0  0  0
  150.7030  139.3674  155.0759 C   0  0  2  0  0  0  0  0  0  0  0  0
  151.2001  139.7485  156.4820 C   0  0  0  0  0  0  0  0  0  0  0  0
  149.9442  139.5470  157.3499 C   0  0  0  0  0  0  0  0  0  0  0  0
  148.9041  139.0402  156.3320 C   0  0  1  0  0  0  0  0  0  0  0  0
  149.2639  139.8637  155.0993 C   0  0  0  0  0  0  0  0  0  0  0  0
  147.7586  133.2309  152.7958 C   0  0  0  0  0  0  0  0  0  0  0  0
  143.7430  132.0380  148.9231 H   0  0  0  0  0  0  0  0  0  0  0  0
  144.7076  133.4890  148.6322 H   0  0  0  0  0  0  0  0  0  0  0  0
  143.4068  133.5130  149.8350 H   0  0  0  0  0  0  0  0  0  0  0  0
  145.2611  131.4742  150.5441 H   0  0  0  0  0  0  0  0  0  0  0  0
  145.7230  130.6724  151.9566 H   0  0  0  0  0  0  0  0  0  0  0  0
  147.1121  129.5177  153.5298 H   0  0  0  0  0  0  0  0  0  0  0  0
  150.2715  132.6961  154.9865 H   0  0  0  0  0  0  0  0  0  0  0  0
  150.3295  133.7418  153.6115 H   0  0  0  0  0  0  0  0  0  0  0  0
  148.7256  135.6118  153.5830 H   0  0  0  0  0  0  0  0  0  0  0  0
  147.6897  137.4320  154.4529 H   0  0  0  0  0  0  0  0  0  0  0  0
  146.5266  137.2282  156.6492 H   0  0  0  0  0  0  0  0  0  0  0  0
  147.4339  135.7639  157.0156 H   0  0  0  0  0  0  0  0  0  0  0  0
  146.2652  135.7815  155.6991 H   0  0  0  0  0  0  0  0  0  0  0  0
  149.5921  137.0317  156.7893 H   0  0  0  0  0  0  0  0  0  0  0  0
  151.3821  137.2895  155.3189 H   0  0  0  0  0  0  0  0  0  0  0  0
  150.2974  137.5585  153.9610 H   0  0  0  0  0  0  0  0  0  0  0  0
  151.3168  139.7706  154.2699 H   0  0  0  0  0  0  0  0  0  0  0  0
  152.0360  139.1274  156.8062 H   0  0  0  0  0  0  0  0  0  0  0  0
  151.5235  140.7897  156.5124 H   0  0  0  0  0  0  0  0  0  0  0  0
  150.1090  138.8439  158.1672 H   0  0  0  0  0  0  0  0  0  0  0  0
  149.6263  140.4946  157.7869 H   0  0  0  0  0  0  0  0  0  0  0  0
  147.8798  139.1667  156.6802 H   0  0  0  0  0  0  0  0  0  0  0  0
  149.1806  140.9404  155.2578 H   0  0  0  0  0  0  0  0  0  0  0  0
  148.6961  139.5898  154.2087 H   0  0  0  0  0  0  0  0  0  0  0  0
  148.0154  134.2729  152.6693 H   0  0  0  0  0  0  0  0  0  0  0  0
  1  2  1  0  0  0  0
  1 25  1  0  0  0  0
  1 26  1  0  0  0  0
  1 27  1  0  0  0  0
  2  3  1  0  0  0  0
  2 28  1  0  0  0  0
  3  4  2  0  0  0  0
  3  5  1  0  0  0  0
  5 24  2  0  0  0  0
  5  6  1  0  0  0  0
  6  7  2  0  0  0  0
  6 29  1  0  0  0  0
  7  8  1  0  0  0  0
  7 30  1  0  0  0  0
  8  9  2  0  0  0  0
  8 10  1  0  0  0  0
 10 11  1  0  0  0  0
 10 24  1  0  0  0  0
 11 12  1  0  0  0  0
 11 31  1  0  0  0  0
 11 32  1  0  0  0  0
 12 13  2  0  0  0  0
 12 14  1  0  0  0  0
 14 15  1  0  0  0  0
 14 33  1  0  0  0  0
 15 16  1  0  0  0  0
 15 17  1  0  0  0  0
 15 34  1  0  0  0  0
 16 35  1  0  0  0  0
 16 36  1  0  0  0  0
 16 37  1  0  0  0  0
 17 22  1  0  0  0  0
 17 18  1  0  0  0  0
 17 38  1  0  0  0  0
 18 19  1  0  0  0  0
 18 39  1  0  0  0  0
 18 40  1  0  0  0  0
 19 23  1  0  0  0  0
 19 20  1  0  0  0  0
 19 41  1  0  0  0  0
 20 21  1  0  0  0  0
 20 42  1  0  0  0  0
 20 43  1  0  0  0  0
 21 22  1  0  0  0  0
 21 44  1  0  0  0  0
 21 45  1  0  0  0  0
 22 23  1  0  0  0  0
 22 46  1  0  0  0  0
 23 47  1  0  0  0  0
 23 48  1  0  0  0  0
 24 49  1  0  0  0  0
M  END
> <s_m_source_file>
AV-unprocessed.smi

> <i_m_source_file_index>
625

> <i_lp_mmshare_version>
43012

> <i_f3d_flags>
0

> <s_epik_input>
W0NIM11bTkhdQyg9TyljMVtjSF1bY0hdYyg9TyluKFtjSF0xKVtDSDJdQyg9TylbTkhdW0NASF0oW0NIM10pW0NASF0oW0NIMl1bQ0BIXTIzKVtDQEhdKFtDSDJdMylbQ0gyXVtDSDJdMg==

> <s_epik_cmdline>
J2VwaWtfcHl0aG9uJywgJy1waCcsICc3LjAnLCAnLXRuJywgJzgnLCAnLW1hJywgJzIwMCcsICctbWV0YWxfYmluZGluZycsICctaW1hZScsICc8aW5maWxlLm1hZT4nLCAnLW9tYWUnLCAnPG91dGZpbGUubWFlPic=

> <r_lp_tautomer_probability>
1

> <r_epik_Ionization_Penalty>
3.7129e-07

> <r_epik_Ionization_Penalty_Charging>
5.04114e-08

> <r_epik_Ionization_Penalty_Neutral>
3.20879e-07

> <r_epik_State_Penalty>
-0

> <r_epik_Charging_Adjusted_Penalty>
5.04114e-08

> <i_epik_Tot_Q>
0

> <i_epik_Tot_abs_Q>
0

> <r_epik_Metal_State_Penalty>
-0

> <b_epik_Metal_Only>
0

> <s_lp_Force_Field>
OPLS_2005

> <r_lp_Energy>
63.0032

> <b_lp_Chiralities_Consistent>
1

> <s_lp_Variant>
AV-unprocessed.smi:625-4

> <Gold.Version>
5.8.1

> <Gold.Id.Protein>
6NUR|6NUR_protein|mol2

> <Gold.PLP.Fitness>
42.0480

> <Gold.PLP.PLP>
-37.1826

> <Gold.PLP.part.hbond>
-1.0000

> <Gold.PLP.part.metal>
0.0000

> <Gold.PLP.part.buried>
-4.5799

> <Gold.PLP.part.nonpolar>
-32.1329

> <Gold.PLP.part.repulsive>
0.2255

> <Gold.PLP.ligand.clash>
0.0000

> <Gold.PLP.ligand.torsion>
0.5753

> <Gold.PLP.Chemscore.Hbond>
1.0000

> <Gold.PLP.Chemscore.CHOScore>
0.9765

> <Gold.PLP.Chemscore.Metal>
0.0000

> <Gold.Chemscore.Hbonds>
donor molecule, donor type, donor heavy atom, donor atom, acceptor molecule, acceptor atom, score
      L1  H    14    33       P1  7948  1.00
      L1  C    24    49       P1  7948  1.00

> <Gold.PLP.Chemscore.Internal.Correction>
0.0866

> <Gold.Rescore>
     Score         DG    S(hbond)    S(metal)    S(lipo)     H(rot)  DE(clash)    DE(int)     intcor
     11.33     -13.17       0.98        0.00      74.25       1.67       0.09       1.75       ----

> <Gold.Chemscore.Fitness>
11.3323

> <Gold.Chemscore.DG>
-13.1707

> <Gold.Chemscore.ZeroCoef>
-5.4800

> <Gold.Chemscore.Hbond>
0.9824

> <Gold.Chemscore.Metal>
0.0000

> <Gold.Chemscore.Lipo>
74.2463

> <Gold.Chemscore.Internal_Hbond>
0.0000

> <Gold.Chemscore.DEClash>
0.0896

> <Gold.Chemscore.DEInternal>
1.7488

> <Gold.Chemscore.Rot>
1.6709

> <Gold.Chemscore.Internal.Correction>
   9.000000E+99

> <Gold.Chemscore.Hbonds>
donor molecule, donor type, donor heavy atom, donor atom, acceptor molecule, acceptor atom, score
      L1  H    14    33       P1  7948  0.96

> <Gold.Chemscore.Hbond.Weighted>
-3.2813

> <Gold.Chemscore.Metal.Weighted>
-0.0000

> <Gold.Chemscore.Lipo.Weighted>
-8.6868

> <Gold.Chemscore.Internal_Hbond.Weighted>
0.0000

> <Gold.Chemscore.DEClash.Weighted>
0.0896

> <Gold.Chemscore.DEInternal.Weighted>
1.7488

> <Gold.Chemscore.Rot.Weighted>
4.2774

> <Gold.Chemscore.Internal.Correction.Weighted>
   9.000000E+99

> <Gold.Protein.RotatedTorsions>
[ 6907 6896 6895 6894 ] final  -28.42 input  -60.11 | X-H torsion
[ 7974 7965 7964 7962 ] final -173.92 input  175.53 | X-H torsion
[ 8008 7997 7996 7995 ] final  -12.52 input   59.86 | X-H torsion
[ 10167 10162 10161 10158 ] final  -79.67 input  -65.29 | X-H torsion
[ 10718 10713 10712 10709 ] final  -65.36 input   66.30 | X-H torsion
[ 10763 10752 10751 10750 ] final  -69.81 input  -60.55 | X-H torsion
[ 11005 11000 10999 10996 ] final  -22.92 input  -57.11 | X-H torsion

> <Gold.Protein.ActiveResidues>
 VAL166  LYS551  ARG553  GLY616  TRP617  ASP618  TYR619  PRO620  LYS621  CYS622 
 ASP623  PHE694  ASN695  SER759  ASP760  ASP761  ALA762  ILE779  LEU786  VAL792 
 PHE793  MET794  SER795  GLU796  ALA797  LYS798  CYS799  TRP800  GLU811  SER814 

> <Gold.Protein.RotatedAtoms>
  151.1332  135.0141  159.8591 H   0  0  0  0  0  0  0  0  0  0  0  0  # atno 6907 bound_to 6896
  152.5451  134.1586  159.8558 H   0  0  0  0  0  0  0  0  0  0  0  0  # atno 6908 bound_to 6896
  151.1655  133.4772  159.2627 H   0  0  0  0  0  0  0  0  0  0  0  0  # atno 6909 bound_to 6896
  144.7135  140.1549  143.6381 H   0  0  0  0  0  0  0  0  0  0  0  0  # atno 7974 bound_to 7965
  154.5370  140.2274  155.8705 H   0  0  0  0  0  0  0  0  0  0  0  0  # atno 8008 bound_to 7997
  156.1821  140.3097  155.9132 H   0  0  0  0  0  0  0  0  0  0  0  0  # atno 8009 bound_to 7997
  155.3334  140.0446  157.3034 H   0  0  0  0  0  0  0  0  0  0  0  0  # atno 8010 bound_to 7997
  140.4572  143.2464  151.8402 H   0  0  0  0  0  0  0  0  0  0  0  0  # atno 10167 bound_to 10162
  156.0674  130.4246  150.1553 H   0  0  0  0  0  0  0  0  0  0  0  0  # atno 10718 bound_to 10713
  154.4087  135.6014  153.5940 H   0  0  0  0  0  0  0  0  0  0  0  0  # atno 10763 bound_to 10752
  152.9790  135.5924  154.4096 H   0  0  0  0  0  0  0  0  0  0  0  0  # atno 10764 bound_to 10752
  154.3905  135.2842  155.2136 H   0  0  0  0  0  0  0  0  0  0  0  0  # atno 10765 bound_to 10752
  140.8702  133.7725  156.0178 H   0  0  0  0  0  0  0  0  0  0  0  0  # atno 11005 bound_to 11000
  145.9083  139.2471  143.1453 LP  0  0  0  0  0  0  0  0  0  0  0  0  # atno 17320 bound_to 7965
  145.9742  140.8736  143.0147 LP  0  0  0  0  0  0  0  0  0  0  0  0  # atno 17321 bound_to 7965
  139.4802  144.5051  151.9009 LP  0  0  0  0  0  0  0  0  0  0  0  0  # atno 17342 bound_to 10162
  140.4137  144.2335  150.5888 LP  0  0  0  0  0  0  0  0  0  0  0  0  # atno 17343 bound_to 10162
  156.9610  130.9805  151.3479 LP  0  0  0  0  0  0  0  0  0  0  0  0  # atno 17370 bound_to 10713
  157.5724  130.8320  149.8410 LP  0  0  0  0  0  0  0  0  0  0  0  0  # atno 17371 bound_to 10713
  140.8581  134.2873  157.5246 LP  0  0  0  0  0  0  0  0  0  0  0  0  # atno 17394 bound_to 11000
  139.8711  134.9504  156.4053 LP  0  0  0  0  0  0  0  0  0  0  0  0  # atno 17395 bound_to 11000

$$$$
