AV-unprocessed.smi:1239|AV-procd|sdf|5191|dock5
  -GOLD-   22720 4273D 1   1.00000     0.00000
 Structure written by MMmdl.
 48 49  0  0  0  0  0  0  0  0  2 V2000
  146.1253  139.0378  152.1979 C   0  0  0  0  0  0  0  0  0  0  0  0
  146.8347  139.3277  153.5429 C   0  0  2  0  0  0  0  0  0  0  0  0
  147.9026  140.4452  153.3720 C   0  0  0  0  0  0  0  0  0  0  0  0
  148.1391  141.2167  154.5907 N   0  0  0  0  0  0  0  0  0  0  0  0
  149.2265  141.1247  155.3706 C   0  0  0  0  0  0  0  0  0  0  0  0
  150.1817  140.3922  155.1156 O   0  0  0  0  0  0  0  0  0  0  0  0
  149.1308  141.9448  156.4311 N   0  0  0  0  0  0  0  0  0  0  0  0
  150.0473  142.1379  157.5010 C   0  0  0  0  0  0  0  0  0  0  0  0
  151.0487  141.1662  157.6885 C   0  0  0  0  0  0  0  0  0  0  0  0
  151.9859  141.3283  158.7257 C   0  0  0  0  0  0  0  0  0  0  0  0
  151.9056  142.4722  159.5577 C   0  0  0  0  0  0  0  0  0  0  0  0
  152.8227  142.6832  160.6128 N   0  0  0  0  0  0  0  0  0  0  0  0
  154.0242  141.8600  160.7061 C   0  0  0  0  0  0  0  0  0  0  0  0
  152.5962  143.7503  161.5798 C   0  0  0  0  0  0  0  0  0  0  0  0
  150.9463  143.4111  159.3690 N   0  0  0  0  0  0  0  0  0  0  0  0
  150.0488  143.2519  158.3735 C   0  0  0  0  0  0  0  0  0  0  0  0
  147.4054  138.0694  154.1331 N   0  3  0  0  0  0  0  0  0  0  0  0
  148.2667  138.2802  155.3314 C   0  0  0  0  0  0  0  0  0  0  0  0
  148.8164  136.9505  155.8756 C   0  0  0  0  0  0  0  0  0  0  0  0
  147.7449  136.0694  156.1725 O   0  0  0  0  0  0  0  0  0  0  0  0
  146.9995  135.7589  155.0066 C   0  0  0  0  0  0  0  0  0  0  0  0
  146.3701  137.0424  154.4410 C   0  0  0  0  0  0  0  0  0  0  0  0
  145.7051  139.9405  151.7564 H   0  0  0  0  0  0  0  0  0  0  0  0
  145.2806  138.3601  152.3021 H   0  0  0  0  0  0  0  0  0  0  0  0
  146.8156  138.6076  151.4715 H   0  0  0  0  0  0  0  0  0  0  0  0
  146.0853  139.7045  154.2411 H   0  0  0  0  0  0  0  0  0  0  0  0
  148.8733  140.0142  153.1298 H   0  0  0  0  0  0  0  0  0  0  0  0
  147.6369  141.0984  152.5388 H   0  0  0  0  0  0  0  0  0  0  0  0
  147.4076  141.8527  154.8733 H   0  0  0  0  0  0  0  0  0  0  0  0
  148.3081  142.5289  156.4631 H   0  0  0  0  0  0  0  0  0  0  0  0
  151.1011  140.3000  157.0452 H   0  0  0  0  0  0  0  0  0  0  0  0
  152.7464  140.5741  158.8598 H   0  0  0  0  0  0  0  0  0  0  0  0
  154.6431  141.9847  159.8170 H   0  0  0  0  0  0  0  0  0  0  0  0
  153.7601  140.8063  160.8005 H   0  0  0  0  0  0  0  0  0  0  0  0
  154.6266  142.1313  161.5731 H   0  0  0  0  0  0  0  0  0  0  0  0
  151.6546  143.5966  162.1077 H   0  0  0  0  0  0  0  0  0  0  0  0
  152.5641  144.7190  161.0803 H   0  0  0  0  0  0  0  0  0  0  0  0
  153.3913  143.7868  162.3243 H   0  0  0  0  0  0  0  0  0  0  0  0
  149.3373  144.0568  158.2844 H   0  0  0  0  0  0  0  0  0  0  0  0
  149.1277  138.9018  155.0903 H   0  0  0  0  0  0  0  0  0  0  0  0
  147.6955  138.7948  156.1058 H   0  0  0  0  0  0  0  0  0  0  0  0
  149.4981  136.4881  155.1595 H   0  0  0  0  0  0  0  0  0  0  0  0
  149.3879  137.1277  156.7868 H   0  0  0  0  0  0  0  0  0  0  0  0
  147.6375  135.2755  154.2648 H   0  0  0  0  0  0  0  0  0  0  0  0
  146.2195  135.0434  155.2678 H   0  0  0  0  0  0  0  0  0  0  0  0
  145.6529  137.4487  155.1558 H   0  0  0  0  0  0  0  0  0  0  0  0
  145.8114  136.7629  153.5507 H   0  0  0  0  0  0  0  0  0  0  0  0
  148.0066  137.6715  153.4252 H   0  0  0  0  0  0  0  0  0  0  0  0
  1  2  1  0  0  0  0
  1 23  1  0  0  0  0
  1 24  1  0  0  0  0
  1 25  1  0  0  0  0
  2  3  1  0  0  0  0
  2 17  1  0  0  0  0
  2 26  1  0  0  0  0
  3  4  1  0  0  0  0
  3 27  1  0  0  0  0
  3 28  1  0  0  0  0
  4  5  1  0  0  0  0
  4 29  1  0  0  0  0
  5  6  2  0  0  0  0
  5  7  1  0  0  0  0
  7  8  1  0  0  0  0
  7 30  1  0  0  0  0
  8 16  1  0  0  0  0
  8  9  2  0  0  0  0
  9 10  1  0  0  0  0
  9 31  1  0  0  0  0
 10 11  2  0  0  0  0
 10 32  1  0  0  0  0
 11 12  1  0  0  0  0
 11 15  1  0  0  0  0
 12 13  1  0  0  0  0
 12 14  1  0  0  0  0
 13 33  1  0  0  0  0
 13 34  1  0  0  0  0
 13 35  1  0  0  0  0
 14 36  1  0  0  0  0
 14 37  1  0  0  0  0
 14 38  1  0  0  0  0
 15 16  2  0  0  0  0
 16 39  1  0  0  0  0
 17 22  1  0  0  0  0
 17 18  1  0  0  0  0
 17 48  1  0  0  0  0
 18 19  1  0  0  0  0
 18 40  1  0  0  0  0
 18 41  1  0  0  0  0
 19 20  1  0  0  0  0
 19 42  1  0  0  0  0
 19 43  1  0  0  0  0
 20 21  1  0  0  0  0
 21 22  1  0  0  0  0
 21 44  1  0  0  0  0
 21 45  1  0  0  0  0
 22 46  1  0  0  0  0
 22 47  1  0  0  0  0
M  CHG  1  17   1
M  END
> <s_m_source_file>
AV-unprocessed.smi

> <i_m_source_file_index>
1239

> <i_lp_mmshare_version>
43012

> <i_f3d_flags>
0

> <s_epik_input>
W0NIMl0xW0NIMl1PW0NIMl1bQ0gyXU4xW0NASF0oW0NIM10pW0NIMl1bTkhdQyg9TylbTkhdYzJbY0hdW2NIXWMoTihbQ0gzXSlbQ0gzXSluW2NIXTI=

> <s_epik_cmdline>
J2VwaWtfcHl0aG9uJywgJy1waCcsICc3LjAnLCAnLXRuJywgJzgnLCAnLW1hJywgJzIwMCcsICctbWV0YWxfYmluZGluZycsICctaW1hZScsICc8aW5maWxlLm1hZT4nLCAnLW9tYWUnLCAnPG91dGZpbGUubWFlPic=

> <r_epik_Ionization_Penalty>
1.1428

> <r_epik_Ionization_Penalty_Charging>
0.602531

> <r_epik_Ionization_Penalty_Neutral>
0.540271

> <r_epik_State_Penalty>
1.1888

> <r_epik_Charging_Adjusted_Penalty>
1.79133

> <i_epik_Tot_Q>
1

> <i_epik_Tot_abs_Q>
1

> <r_epik_Metal_State_Penalty>
0.936295

> <b_epik_Metal_Only>
0

> <s_lp_Force_Field>
OPLS_2005

> <r_lp_Energy>
25.054

> <b_lp_Chiralities_Consistent>
1

> <s_lp_Variant>
AV-unprocessed.smi:1239-7

> <Gold.Version>
5.8.1

> <Gold.Id.Protein>
6NUR|6NUR_protein|mol2

> <Gold.PLP.Fitness>
46.4893

> <Gold.PLP.PLP>
-34.9962

> <Gold.PLP.part.hbond>
-3.0000

> <Gold.PLP.part.metal>
0.0000

> <Gold.PLP.part.buried>
1.7288

> <Gold.PLP.part.nonpolar>
-33.8341

> <Gold.PLP.part.repulsive>
0.4033

> <Gold.PLP.ligand.clash>
0.0000

> <Gold.PLP.ligand.torsion>
0.5549

> <Gold.PLP.Chemscore.Hbond>
3.1872

> <Gold.PLP.Chemscore.CHOScore>
0.9939

> <Gold.PLP.Chemscore.Metal>
0.0000

> <Gold.Chemscore.Hbonds>
donor molecule, donor type, donor heavy atom, donor atom, acceptor molecule, acceptor atom, score
      L1  H     7    30       P1  8028  0.02
      L1  H    17    48       P1  7948  0.55
      P1  H  7989  7998       L1     6  0.52
      L1  C    16    39       P1  8028  0.18
      L1  C    16    39       P1  8029  0.73

> <Gold.PLP.Chemscore.Internal.Correction>
0.0596

> <Gold.Rescore>
     Score         DG    S(hbond)    S(metal)    S(lipo)     H(rot)  DE(clash)    DE(int)     intcor
     14.20     -18.63       2.00        0.00      87.82       1.48       2.51       1.93       ----

> <Gold.Chemscore.Fitness>
14.1990

> <Gold.Chemscore.DG>
-18.6302

> <Gold.Chemscore.ZeroCoef>
-5.4800

> <Gold.Chemscore.Hbond>
1.9975

> <Gold.Chemscore.Metal>
0.0000

> <Gold.Chemscore.Lipo>
87.8197

> <Gold.Chemscore.Internal_Hbond>
0.0000

> <Gold.Chemscore.DEClash>
2.5058

> <Gold.Chemscore.DEInternal>
1.9253

> <Gold.Chemscore.Rot>
1.4830

> <Gold.Chemscore.Internal.Correction>
   9.000000E+99

> <Gold.Chemscore.Hbonds>
donor molecule, donor type, donor heavy atom, donor atom, acceptor molecule, acceptor atom, score
      L1  H     7    30       P1  8028  0.02
      L1  H    17    48       P1  7948  0.29
      P1  H  7989  7998       L1     6  0.49

> <Gold.Chemscore.Hbond.Weighted>
-6.6717

> <Gold.Chemscore.Metal.Weighted>
-0.0000

> <Gold.Chemscore.Lipo.Weighted>
-10.2749

> <Gold.Chemscore.Internal_Hbond.Weighted>
0.0000

> <Gold.Chemscore.DEClash.Weighted>
2.5058

> <Gold.Chemscore.DEInternal.Weighted>
1.9253

> <Gold.Chemscore.Rot.Weighted>
3.7964

> <Gold.Chemscore.Internal.Correction.Weighted>
   9.000000E+99

> <Gold.Protein.RotatedTorsions>
[ 6907 6896 6895 6894 ] final  104.21 input  -60.11 | X-H torsion
[ 7974 7965 7964 7962 ] final   51.74 input  175.53 | X-H torsion
[ 8008 7997 7996 7995 ] final    2.96 input   59.86 | X-H torsion
[ 10167 10162 10161 10158 ] final -170.21 input  -65.29 | X-H torsion
[ 10718 10713 10712 10709 ] final  -93.25 input   66.30 | X-H torsion
[ 10763 10752 10751 10750 ] final  -87.13 input  -60.55 | X-H torsion
[ 11005 11000 10999 10996 ] final -118.47 input  -57.11 | X-H torsion

> <Gold.Protein.ActiveResidues>
 VAL166  LYS551  ARG553  GLY616  TRP617  ASP618  TYR619  PRO620  LYS621  CYS622 
 ASP623  PHE694  ASN695  SER759  ASP760  ASP761  ALA762  ILE779  LEU786  VAL792 
 PHE793  MET794  SER795  GLU796  ALA797  LYS798  CYS799  TRP800  GLU811  SER814 

> <Gold.Protein.RotatedAtoms>
  152.5271  133.9710  159.7761 H   0  0  0  0  0  0  0  0  0  0  0  0  # atno 6907 bound_to 6896
  150.9982  133.6074  159.2706 H   0  0  0  0  0  0  0  0  0  0  0  0  # atno 6908 bound_to 6896
  151.3193  135.0820  159.9353 H   0  0  0  0  0  0  0  0  0  0  0  0  # atno 6909 bound_to 6896
  145.9883  139.4312  143.0089 H   0  0  0  0  0  0  0  0  0  0  0  0  # atno 7974 bound_to 7965
  154.6978  140.2667  155.6749 H   0  0  0  0  0  0  0  0  0  0  0  0  # atno 8008 bound_to 7997
  156.2754  140.2778  156.1502 H   0  0  0  0  0  0  0  0  0  0  0  0  # atno 8009 bound_to 7997
  155.0806  140.0372  157.2628 H   0  0  0  0  0  0  0  0  0  0  0  0  # atno 8010 bound_to 7997
  139.5875  144.1285  152.1594 H   0  0  0  0  0  0  0  0  0  0  0  0  # atno 10167 bound_to 10162
  156.0011  130.5019  150.5748 H   0  0  0  0  0  0  0  0  0  0  0  0  # atno 10718 bound_to 10713
  154.6301  135.5424  153.7671 H   0  0  0  0  0  0  0  0  0  0  0  0  # atno 10763 bound_to 10752
  153.0280  135.6434  154.1313 H   0  0  0  0  0  0  0  0  0  0  0  0  # atno 10764 bound_to 10752
  154.1243  135.2918  155.3181 H   0  0  0  0  0  0  0  0  0  0  0  0  # atno 10765 bound_to 10752
  141.0283  134.0020  157.3181 H   0  0  0  0  0  0  0  0  0  0  0  0  # atno 11005 bound_to 11000
  145.7668  140.9913  143.1171 LP  0  0  0  0  0  0  0  0  0  0  0  0  # atno 17320 bound_to 7965
  144.6881  139.9397  143.7474 LP  0  0  0  0  0  0  0  0  0  0  0  0  # atno 17321 bound_to 7965
  140.0852  144.5667  150.7094 LP  0  0  0  0  0  0  0  0  0  0  0  0  # atno 17342 bound_to 10162
  140.7144  143.2532  151.4479 LP  0  0  0  0  0  0  0  0  0  0  0  0  # atno 17343 bound_to 10162
  157.3637  131.0754  151.1615 LP  0  0  0  0  0  0  0  0  0  0  0  0  # atno 17370 bound_to 10713
  157.2391  130.6561  149.5882 LP  0  0  0  0  0  0  0  0  0  0  0  0  # atno 17371 bound_to 10713
  139.9191  135.0199  156.7995 LP  0  0  0  0  0  0  0  0  0  0  0  0  # atno 17394 bound_to 11000
  140.6452  133.9782  155.7727 LP  0  0  0  0  0  0  0  0  0  0  0  0  # atno 17395 bound_to 11000

$$$$
