AV-unprocessed.smi:2358|AV-procd|sdf|9406|dock9
  -GOLD-   2272013 43D 1   1.00000     0.00000
 Structure written by MMmdl.
 46 48  0  0  0  0  0  0  0  0  2 V2000
  153.5116  140.7234  160.2275 C   0  0  0  0  0  0  0  0  0  0  0  0
  152.7217  141.7557  159.4493 C   0  0  0  0  0  0  0  0  0  0  0  0
  152.6342  143.0824  159.9157 C   0  0  0  0  0  0  0  0  0  0  0  0
  151.8946  144.0379  159.1923 C   0  0  0  0  0  0  0  0  0  0  0  0
  151.8043  145.4628  159.6982 C   0  0  0  0  0  0  0  0  0  0  0  0
  151.2443  143.6619  157.9994 C   0  0  0  0  0  0  0  0  0  0  0  0
  151.3209  142.3388  157.5189 C   0  0  0  0  0  0  0  0  0  0  0  0
  150.6508  142.0608  156.3467 O   0  0  0  0  0  0  0  0  0  0  0  0
  150.9204  140.8283  155.6912 C   0  0  0  0  0  0  0  0  0  0  0  0
  149.6344  140.3398  155.0026 C   0  0  1  0  0  0  0  0  0  0  0  0
  149.6315  140.8887  153.6993 O   0  0  0  0  0  0  0  0  0  0  0  0
  149.5947  138.8001  154.8747 C   0  0  0  0  0  0  0  0  0  0  0  0
  148.4589  138.2208  155.6025 N   0  0  0  0  0  0  0  0  0  0  0  0
  147.7725  137.2483  154.8960 N   0  0  0  0  0  0  0  0  0  0  0  0
  146.7551  136.6401  155.4130 C   0  0  0  0  0  0  0  0  0  0  0  0
  146.0420  135.6165  154.6645 N   0  0  0  0  0  0  0  0  0  0  0  0
  146.1368  135.3554  153.3197 C   0  0  0  0  0  0  0  0  0  0  0  0
  145.2871  134.3092  153.0680 C   0  0  0  0  0  0  0  0  0  0  0  0
  144.7120  133.9772  154.2661 N   0  3  0  0  0  0  0  0  0  0  0  0
  145.1701  134.7714  155.2406 C   0  0  0  0  0  0  0  0  0  0  0  0
  146.3187  136.9854  156.7619 C   0  0  0  0  0  0  0  0  0  0  0  0
  146.9991  137.9318  157.4438 C   0  0  0  0  0  0  0  0  0  0  0  0
  148.1554  138.6185  156.8723 C   0  0  0  0  0  0  0  0  0  0  0  0
  148.7998  139.4721  157.4802 O   0  0  0  0  0  0  0  0  0  0  0  0
  152.0670  141.3854  158.2568 C   0  0  0  0  0  0  0  0  0  0  0  0
  154.1692  141.1960  160.9577 H   0  0  0  0  0  0  0  0  0  0  0  0
  154.1275  140.1263  159.5546 H   0  0  0  0  0  0  0  0  0  0  0  0
  152.8344  140.0543  160.7584 H   0  0  0  0  0  0  0  0  0  0  0  0
  153.1335  143.3696  160.8298 H   0  0  0  0  0  0  0  0  0  0  0  0
  151.0467  146.0295  159.1560 H   0  0  0  0  0  0  0  0  0  0  0  0
  152.7627  145.9677  159.5753 H   0  0  0  0  0  0  0  0  0  0  0  0
  151.5427  145.4747  160.7567 H   0  0  0  0  0  0  0  0  0  0  0  0
  150.6778  144.3942  157.4425 H   0  0  0  0  0  0  0  0  0  0  0  0
  151.7372  140.9220  154.9728 H   0  0  0  0  0  0  0  0  0  0  0  0
  151.2244  140.1047  156.4491 H   0  0  0  0  0  0  0  0  0  0  0  0
  148.7667  140.6943  155.5612 H   0  0  0  0  0  0  0  0  0  0  0  0
  149.3894  140.2109  153.0866 H   0  0  0  0  0  0  0  0  0  0  0  0
  149.6141  138.4883  153.8283 H   0  0  0  0  0  0  0  0  0  0  0  0
  150.5052  138.3753  155.3016 H   0  0  0  0  0  0  0  0  0  0  0  0
  146.7819  135.9142  152.6566 H   0  0  0  0  0  0  0  0  0  0  0  0
  145.0549  133.7894  152.1498 H   0  0  0  0  0  0  0  0  0  0  0  0
  144.8723  134.7095  156.2706 H   0  0  0  0  0  0  0  0  0  0  0  0
  145.4731  136.5154  157.2360 H   0  0  0  0  0  0  0  0  0  0  0  0
  146.6805  138.1920  158.4426 H   0  0  0  0  0  0  0  0  0  0  0  0
  152.1510  140.3610  157.9271 H   0  0  0  0  0  0  0  0  0  0  0  0
  144.0355  133.2356  154.3981 H   0  0  0  0  0  0  0  0  0  0  0  0
  1  2  1  0  0  0  0
  1 26  1  0  0  0  0
  1 27  1  0  0  0  0
  1 28  1  0  0  0  0
  2 25  1  0  0  0  0
  2  3  2  0  0  0  0
  3  4  1  0  0  0  0
  3 29  1  0  0  0  0
  4  5  1  0  0  0  0
  4  6  2  0  0  0  0
  5 30  1  0  0  0  0
  5 31  1  0  0  0  0
  5 32  1  0  0  0  0
  6  7  1  0  0  0  0
  6 33  1  0  0  0  0
  7  8  1  0  0  0  0
  7 25  2  0  0  0  0
  8  9  1  0  0  0  0
  9 10  1  0  0  0  0
  9 34  1  0  0  0  0
  9 35  1  0  0  0  0
 10 11  1  0  0  0  0
 10 12  1  0  0  0  0
 10 36  1  0  0  0  0
 11 37  1  0  0  0  0
 12 13  1  0  0  0  0
 12 38  1  0  0  0  0
 12 39  1  0  0  0  0
 13 23  1  0  0  0  0
 13 14  1  0  0  0  0
 14 15  2  0  0  0  0
 15 16  1  0  0  0  0
 15 21  1  0  0  0  0
 16 20  1  0  0  0  0
 16 17  1  0  0  0  0
 17 18  2  0  0  0  0
 17 40  1  0  0  0  0
 18 19  1  0  0  0  0
 18 41  1  0  0  0  0
 19 20  2  0  0  0  0
 19 46  1  0  0  0  0
 20 42  1  0  0  0  0
 21 22  2  0  0  0  0
 21 43  1  0  0  0  0
 22 23  1  0  0  0  0
 22 44  1  0  0  0  0
 23 24  2  0  0  0  0
 25 45  1  0  0  0  0
M  CHG  1  19   1
M  END
> <s_m_source_file>
AV-unprocessed.smi

> <i_m_source_file_index>
2358

> <i_lp_mmshare_version>
43012

> <i_f3d_flags>
0

> <s_epik_input>
W0NIM11jMVtjSF1jKFtDSDNdKVtjSF1jKFtjSF0xKU9bQ0gyXVtDQEhdKFtPSF0pW0NIMl1uMm5jKFtjSF1bY0hdYzI9TyktbjNbY0hdW2NIXW5bY0hdMw==

> <s_epik_cmdline>
J2VwaWtfcHl0aG9uJywgJy1waCcsICc3LjAnLCAnLXRuJywgJzgnLCAnLW1hJywgJzIwMCcsICctbWV0YWxfYmluZGluZycsICctaW1hZScsICc8aW5maWxlLm1hZT4nLCAnLW9tYWUnLCAnPG91dGZpbGUubWFlPic=

> <r_lp_tautomer_probability>
1

> <r_epik_Ionization_Penalty>
1.66053

> <r_epik_Ionization_Penalty_Charging>
2.42216e-09

> <r_epik_Ionization_Penalty_Neutral>
1.66053

> <r_epik_State_Penalty>
1.76336

> <r_epik_Charging_Adjusted_Penalty>
1.76336

> <i_epik_Tot_Q>
1

> <i_epik_Tot_abs_Q>
1

> <r_epik_Metal_State_Penalty>
1.79856

> <b_epik_Metal_Only>
0

> <s_lp_Force_Field>
OPLS_2005

> <r_lp_Energy>
39.182

> <b_lp_Chiralities_Consistent>
1

> <s_lp_Variant>
AV-unprocessed.smi:2358-4

> <Gold.Version>
5.8.1

> <Gold.Id.Protein>
6NUR|6NUR_protein|mol2

> <Gold.PLP.Fitness>
51.3349

> <Gold.PLP.PLP>
-40.0349

> <Gold.PLP.part.hbond>
-3.9874

> <Gold.PLP.part.metal>
0.0000

> <Gold.PLP.part.buried>
-3.7861

> <Gold.PLP.part.nonpolar>
-32.0770

> <Gold.PLP.part.repulsive>
0.1777

> <Gold.PLP.ligand.clash>
0.0000

> <Gold.PLP.ligand.torsion>
1.7257

> <Gold.PLP.Chemscore.Hbond>
3.8783

> <Gold.PLP.Chemscore.CHOScore>
1.0000

> <Gold.PLP.Chemscore.Metal>
0.0000

> <Gold.Chemscore.Hbonds>
donor molecule, donor type, donor heavy atom, donor atom, acceptor molecule, acceptor atom, score
      L1  H    11    37       P1  7957  0.64
      L1  H    19    46       P1 10957  1.92
      P1  H  7989  7998       L1    11  0.33
      P1  H  8011  8017       L1    11  0.80
      L1  C    17    40       P1  7948  1.00

> <Gold.PLP.Chemscore.Internal.Correction>
0.1167

> <Gold.Rescore>
     Score         DG    S(hbond)    S(metal)    S(lipo)     H(rot)  DE(clash)    DE(int)     intcor
     14.46     -18.01       1.93        0.00     110.19       2.65       0.46       3.10       ----

> <Gold.Chemscore.Fitness>
14.4593

> <Gold.Chemscore.DG>
-18.0132

> <Gold.Chemscore.ZeroCoef>
-5.4800

> <Gold.Chemscore.Hbond>
1.9264

> <Gold.Chemscore.Metal>
0.0000

> <Gold.Chemscore.Lipo>
110.1935

> <Gold.Chemscore.Internal_Hbond>
0.0000

> <Gold.Chemscore.DEClash>
0.4563

> <Gold.Chemscore.DEInternal>
3.0976

> <Gold.Chemscore.Rot>
2.6537

> <Gold.Chemscore.Internal.Correction>
   9.000000E+99

> <Gold.Chemscore.Hbonds>
donor molecule, donor type, donor heavy atom, donor atom, acceptor molecule, acceptor atom, score
      L1  H    11    37       P1  7957  0.63
      L1  H    19    46       P1 10957  0.91
      P1  H  7989  7998       L1    11  0.01
      P1  H  8011  8017       L1    11  0.13

> <Gold.Chemscore.Hbond.Weighted>
-6.4341

> <Gold.Chemscore.Metal.Weighted>
-0.0000

> <Gold.Chemscore.Lipo.Weighted>
-12.8926

> <Gold.Chemscore.Internal_Hbond.Weighted>
0.0000

> <Gold.Chemscore.DEClash.Weighted>
0.4563

> <Gold.Chemscore.DEInternal.Weighted>
3.0976

> <Gold.Chemscore.Rot.Weighted>
6.7935

> <Gold.Chemscore.Internal.Correction.Weighted>
   9.000000E+99

> <Gold.Protein.RotatedTorsions>
[ 6907 6896 6895 6894 ] final -150.01 input  -60.11 | X-H torsion
[ 7974 7965 7964 7962 ] final   13.55 input  175.53 | X-H torsion
[ 8008 7997 7996 7995 ] final  110.89 input   59.86 | X-H torsion
[ 10167 10162 10161 10158 ] final  -79.12 input  -65.29 | X-H torsion
[ 10718 10713 10712 10709 ] final  139.68 input   66.30 | X-H torsion
[ 10763 10752 10751 10750 ] final  111.62 input  -60.55 | X-H torsion
[ 11005 11000 10999 10996 ] final  -60.47 input  -57.11 | X-H torsion

> <Gold.Protein.ActiveResidues>
 VAL166  LYS551  ARG553  GLY616  TRP617  ASP618  TYR619  PRO620  LYS621  CYS622 
 ASP623  PHE694  ASN695  SER759  ASP760  ASP761  ALA762  ILE779  LEU786  VAL792 
 PHE793  MET794  SER795  GLU796  ALA797  LYS798  CYS799  TRP800  GLU811  SER814 

> <Gold.Protein.RotatedAtoms>
  151.1924  133.4659  159.2594 H   0  0  0  0  0  0  0  0  0  0  0  0  # atno 6907 bound_to 6896
  151.1151  135.0048  159.8522 H   0  0  0  0  0  0  0  0  0  0  0  0  # atno 6908 bound_to 6896
  152.5453  134.1840  159.8700 H   0  0  0  0  0  0  0  0  0  0  0  0  # atno 6909 bound_to 6896
  146.2326  139.9172  142.8515 H   0  0  0  0  0  0  0  0  0  0  0  0  # atno 7974 bound_to 7965
  156.2085  140.3030  155.9680 H   0  0  0  0  0  0  0  0  0  0  0  0  # atno 8008 bound_to 7997
  155.2782  140.0436  157.3030 H   0  0  0  0  0  0  0  0  0  0  0  0  # atno 8009 bound_to 7997
  154.5666  140.2336  155.8262 H   0  0  0  0  0  0  0  0  0  0  0  0  # atno 8010 bound_to 7997
  140.4622  143.2450  151.8332 H   0  0  0  0  0  0  0  0  0  0  0  0  # atno 10167 bound_to 10162
  157.4117  131.1028  151.0447 H   0  0  0  0  0  0  0  0  0  0  0  0  # atno 10718 bound_to 10713
  153.4660  135.3711  155.2364 H   0  0  0  0  0  0  0  0  0  0  0  0  # atno 10763 bound_to 10752
  154.8757  135.3920  154.3869 H   0  0  0  0  0  0  0  0  0  0  0  0  # atno 10764 bound_to 10752
  153.4449  135.7084  153.6210 H   0  0  0  0  0  0  0  0  0  0  0  0  # atno 10765 bound_to 10752
  141.1288  133.6622  156.5228 H   0  0  0  0  0  0  0  0  0  0  0  0  # atno 11005 bound_to 11000
  145.2172  140.9920  143.4066 LP  0  0  0  0  0  0  0  0  0  0  0  0  # atno 17320 bound_to 7965
  144.9641  139.3949  143.6341 LP  0  0  0  0  0  0  0  0  0  0  0  0  # atno 17321 bound_to 7965
  139.4807  144.4994  151.9080 LP  0  0  0  0  0  0  0  0  0  0  0  0  # atno 17342 bound_to 10162
  140.4080  144.2407  150.5890 LP  0  0  0  0  0  0  0  0  0  0  0  0  # atno 17343 bound_to 10162
  157.1410  130.6143  149.5555 LP  0  0  0  0  0  0  0  0  0  0  0  0  # atno 17370 bound_to 10713
  155.9852  130.4881  150.7022 LP  0  0  0  0  0  0  0  0  0  0  0  0  # atno 17371 bound_to 10713
  140.4279  134.7128  157.4926 LP  0  0  0  0  0  0  0  0  0  0  0  0  # atno 17394 bound_to 11000
  140.0314  134.6400  155.9101 LP  0  0  0  0  0  0  0  0  0  0  0  0  # atno 17395 bound_to 11000

$$$$
