AV-unprocessed.smi:2143|AV-procd|sdf|8724|dock5
  -GOLD-   2272011493D 1   1.00000     0.00000
 Structure written by MMmdl.
 44 45  0  0  0  0  0  0  0  0  1 V2000
  145.0344  132.1197  149.8396 C   0  0  0  0  0  0  0  0  0  0  0  0
  144.9257  133.1814  150.9502 C   0  0  2  0  0  0  0  0  0  0  0  0
  144.4378  134.5120  150.3427 C   0  0  0  0  0  0  0  0  0  0  0  0
  144.2754  135.6001  151.4091 C   0  0  0  0  0  0  0  0  0  0  0  0
  145.5926  135.8207  152.1577 C   0  0  0  0  0  0  0  0  0  0  0  0
  146.1046  134.5128  152.7929 C   0  0  2  0  0  0  0  0  0  0  0  0
  147.3817  134.7694  153.4566 N   0  0  0  0  0  0  0  0  0  0  0  0
  147.5961  134.7136  154.7797 C   0  0  0  0  0  0  0  0  0  0  0  0
  146.7238  134.4094  155.5945 O   0  0  0  0  0  0  0  0  0  0  0  0
  149.0216  135.0369  155.2464 C   0  0  0  0  0  0  0  0  0  0  0  0
  149.3978  136.4347  154.9993 N   0  0  0  0  0  0  0  0  0  0  0  0
  148.4201  137.3681  154.7064 C   0  0  0  0  0  0  0  0  0  0  0  0
  148.6847  138.6674  154.4474 C   0  0  0  0  0  0  0  0  0  0  0  0
  150.0526  139.1714  154.4648 C   0  0  0  0  0  0  0  0  0  0  0  0
  150.3389  140.3426  154.2143 O   0  0  0  0  0  0  0  0  0  0  0  0
  151.0316  138.1993  154.7825 N   0  0  0  0  0  0  0  0  0  0  0  0
  152.4238  138.5978  154.8074 C   0  0  0  0  0  0  0  0  0  0  0  0
  150.7497  136.8389  155.0379 C   0  0  0  0  0  0  0  0  0  0  0  0
  151.6425  136.0227  155.2799 O   0  0  0  0  0  0  0  0  0  0  0  0
  146.2505  133.3788  151.7415 C   0  0  1  0  0  0  0  0  0  0  0  0
  146.7292  132.0678  152.4031 C   0  0  0  0  0  0  0  0  0  0  0  0
  145.8443  132.3514  149.1472 H   0  0  0  0  0  0  0  0  0  0  0  0
  144.1116  132.0634  149.2614 H   0  0  0  0  0  0  0  0  0  0  0  0
  145.2096  131.1235  150.2441 H   0  0  0  0  0  0  0  0  0  0  0  0
  144.1618  132.8415  151.6515 H   0  0  0  0  0  0  0  0  0  0  0  0
  145.1419  134.8513  149.5816 H   0  0  0  0  0  0  0  0  0  0  0  0
  143.4845  134.3638  149.8344 H   0  0  0  0  0  0  0  0  0  0  0  0
  143.9515  136.5316  150.9443 H   0  0  0  0  0  0  0  0  0  0  0  0
  143.4926  135.3152  152.1132 H   0  0  0  0  0  0  0  0  0  0  0  0
  146.3403  136.2157  151.4683 H   0  0  0  0  0  0  0  0  0  0  0  0
  145.4483  136.5825  152.9248 H   0  0  0  0  0  0  0  0  0  0  0  0
  145.3781  134.1839  153.5387 H   0  0  0  0  0  0  0  0  0  0  0  0
  148.1582  135.0220  152.8625 H   0  0  0  0  0  0  0  0  0  0  0  0
  149.0891  134.8139  156.3120 H   0  0  0  0  0  0  0  0  0  0  0  0
  149.7345  134.3689  154.7592 H   0  0  0  0  0  0  0  0  0  0  0  0
  147.3901  137.0436  154.6753 H   0  0  0  0  0  0  0  0  0  0  0  0
  147.8729  139.3426  154.2197 H   0  0  0  0  0  0  0  0  0  0  0  0
  152.9022  138.1253  155.6670 H   0  0  0  0  0  0  0  0  0  0  0  0
  152.5125  139.6784  154.9190 H   0  0  0  0  0  0  0  0  0  0  0  0
  152.8659  138.2616  153.8685 H   0  0  0  0  0  0  0  0  0  0  0  0
  147.0189  133.6850  151.0295 H   0  0  0  0  0  0  0  0  0  0  0  0
  145.9795  131.6785  153.0926 H   0  0  0  0  0  0  0  0  0  0  0  0
  147.6518  132.2087  152.9658 H   0  0  0  0  0  0  0  0  0  0  0  0
  146.9402  131.2944  151.6659 H   0  0  0  0  0  0  0  0  0  0  0  0
  1  2  1  0  0  0  0
  1 22  1  0  0  0  0
  1 23  1  0  0  0  0
  1 24  1  0  0  0  0
  2 20  1  0  0  0  0
  2  3  1  0  0  0  0
  2 25  1  0  0  0  0
  3  4  1  0  0  0  0
  3 26  1  0  0  0  0
  3 27  1  0  0  0  0
  4  5  1  0  0  0  0
  4 28  1  0  0  0  0
  4 29  1  0  0  0  0
  5  6  1  0  0  0  0
  5 30  1  0  0  0  0
  5 31  1  0  0  0  0
  6  7  1  0  0  0  0
  6 20  1  0  0  0  0
  6 32  1  0  0  0  0
  7  8  1  0  0  0  0
  7 33  1  0  0  0  0
  8  9  2  0  0  0  0
  8 10  1  0  0  0  0
 10 11  1  0  0  0  0
 10 34  1  0  0  0  0
 10 35  1  0  0  0  0
 11 18  1  0  0  0  0
 11 12  1  0  0  0  0
 12 13  2  0  0  0  0
 12 36  1  0  0  0  0
 13 14  1  0  0  0  0
 13 37  1  0  0  0  0
 14 15  2  0  0  0  0
 14 16  1  0  0  0  0
 16 17  1  0  0  0  0
 16 18  1  0  0  0  0
 17 38  1  0  0  0  0
 17 39  1  0  0  0  0
 17 40  1  0  0  0  0
 18 19  2  0  0  0  0
 20 21  1  0  0  0  0
 20 41  1  0  0  0  0
 21 42  1  0  0  0  0
 21 43  1  0  0  0  0
 21 44  1  0  0  0  0
M  END
> <s_m_source_file>
AV-unprocessed.smi

> <i_m_source_file_index>
2143

> <i_lp_mmshare_version>
43012

> <i_f3d_flags>
0

> <s_epik_input>
W0NIM11bQ0BASF0xW0NIMl1bQ0gyXVtDSDJdW0NASF0oW0NASF0xW0NIM10pW05IXUMoPU8pW0NIMl1uMltjSF1bY0hdYyg9TyluKFtDSDNdKWMyPU8=

> <s_epik_cmdline>
J2VwaWtfcHl0aG9uJywgJy1waCcsICc3LjAnLCAnLXRuJywgJzgnLCAnLW1hJywgJzIwMCcsICctbWV0YWxfYmluZGluZycsICctaW1hZScsICc8aW5maWxlLm1hZT4nLCAnLW9tYWUnLCAnPG91dGZpbGUubWFlPic=

> <r_lp_tautomer_probability>
1

> <r_epik_Ionization_Penalty>
3.18445e-08

> <r_epik_Ionization_Penalty_Charging>
1.27977e-08

> <r_epik_Ionization_Penalty_Neutral>
1.90469e-08

> <r_epik_State_Penalty>
-0

> <r_epik_Charging_Adjusted_Penalty>
1.27977e-08

> <i_epik_Tot_Q>
0

> <i_epik_Tot_abs_Q>
0

> <r_epik_Metal_State_Penalty>
-0

> <b_epik_Metal_Only>
0

> <s_lp_Force_Field>
OPLS_2005

> <r_lp_Energy>
20.5946

> <b_lp_Chiralities_Consistent>
1

> <s_lp_Variant>
AV-unprocessed.smi:2143-3

> <Gold.Version>
5.8.1

> <Gold.Id.Protein>
6NUR|6NUR_protein|mol2

> <Gold.PLP.Fitness>
42.6491

> <Gold.PLP.PLP>
-34.1877

> <Gold.PLP.part.hbond>
-2.8663

> <Gold.PLP.part.metal>
0.0000

> <Gold.PLP.part.buried>
-3.8794

> <Gold.PLP.part.nonpolar>
-28.4943

> <Gold.PLP.part.repulsive>
0.2358

> <Gold.PLP.ligand.clash>
0.0000

> <Gold.PLP.ligand.torsion>
0.2612

> <Gold.PLP.Chemscore.Hbond>
2.9920

> <Gold.PLP.Chemscore.CHOScore>
0.0000

> <Gold.PLP.Chemscore.Metal>
0.0000

> <Gold.Chemscore.Hbonds>
donor molecule, donor type, donor heavy atom, donor atom, acceptor molecule, acceptor atom, score
      L1  H     7    33       P1  7948  1.00
      P1  H  7989  7998       L1    15  0.98
      P1  H 10752 10763       L1    19  1.00

> <Gold.PLP.Chemscore.Internal.Correction>
0.0078

> <Gold.Rescore>
     Score         DG    S(hbond)    S(metal)    S(lipo)     H(rot)  DE(clash)    DE(int)     intcor
     18.52     -18.84       2.81        0.00      66.96       1.51       0.00       0.31       ----

> <Gold.Chemscore.Fitness>
18.5202

> <Gold.Chemscore.DG>
-18.8369

> <Gold.Chemscore.ZeroCoef>
-5.4800

> <Gold.Chemscore.Hbond>
2.8133

> <Gold.Chemscore.Metal>
0.0000

> <Gold.Chemscore.Lipo>
66.9574

> <Gold.Chemscore.Internal_Hbond>
0.0000

> <Gold.Chemscore.DEClash>
0.0048

> <Gold.Chemscore.DEInternal>
0.3119

> <Gold.Chemscore.Rot>
1.5131

> <Gold.Chemscore.Internal.Correction>
   9.000000E+99

> <Gold.Chemscore.Hbonds>
donor molecule, donor type, donor heavy atom, donor atom, acceptor molecule, acceptor atom, score
      L1  H     7    33       P1  7948  0.86
      P1  H  7989  7998       L1    15  0.90
      P1  H 10752 10763       L1    19  0.93

> <Gold.Chemscore.Hbond.Weighted>
-9.3963

> <Gold.Chemscore.Metal.Weighted>
-0.0000

> <Gold.Chemscore.Lipo.Weighted>
-7.8340

> <Gold.Chemscore.Internal_Hbond.Weighted>
0.0000

> <Gold.Chemscore.DEClash.Weighted>
0.0048

> <Gold.Chemscore.DEInternal.Weighted>
0.3119

> <Gold.Chemscore.Rot.Weighted>
3.8734

> <Gold.Chemscore.Internal.Correction.Weighted>
   9.000000E+99

> <Gold.Protein.RotatedTorsions>
[ 6907 6896 6895 6894 ] final  -78.43 input  -60.11 | X-H torsion
[ 7974 7965 7964 7962 ] final   67.37 input  175.53 | X-H torsion
[ 8008 7997 7996 7995 ] final  -40.13 input   59.86 | X-H torsion
[ 10167 10162 10161 10158 ] final  125.57 input  -65.29 | X-H torsion
[ 10718 10713 10712 10709 ] final   62.88 input   66.30 | X-H torsion
[ 10763 10752 10751 10750 ] final   56.78 input  -60.55 | X-H torsion
[ 11005 11000 10999 10996 ] final -156.50 input  -57.11 | X-H torsion

> <Gold.Protein.ActiveResidues>
 VAL166  LYS551  ARG553  GLY616  TRP617  ASP618  TYR619  PRO620  LYS621  CYS622 
 ASP623  PHE694  ASN695  SER759  ASP760  ASP761  ALA762  ILE779  LEU786  VAL792 
 PHE793  MET794  SER795  GLU796  ALA797  LYS798  CYS799  TRP800  GLU811  SER814 

> <Gold.Protein.RotatedAtoms>
  150.6973  134.4274  159.5232 H   0  0  0  0  0  0  0  0  0  0  0  0  # atno 6907 bound_to 6896
  152.2006  134.8588  160.0517 H   0  0  0  0  0  0  0  0  0  0  0  0  # atno 6908 bound_to 6896
  151.9510  133.3631  159.4037 H   0  0  0  0  0  0  0  0  0  0  0  0  # atno 6909 bound_to 6896
  145.8155  139.3056  143.1074 H   0  0  0  0  0  0  0  0  0  0  0  0  # atno 7974 bound_to 7965
  154.4015  140.1533  156.2977 H   0  0  0  0  0  0  0  0  0  0  0  0  # atno 8008 bound_to 7997
  155.8729  140.3448  155.5812 H   0  0  0  0  0  0  0  0  0  0  0  0  # atno 8009 bound_to 7997
  155.7754  140.0836  157.2077 H   0  0  0  0  0  0  0  0  0  0  0  0  # atno 8010 bound_to 7997
  139.5678  144.6921  151.3862 H   0  0  0  0  0  0  0  0  0  0  0  0  # atno 10167 bound_to 10162
  157.5932  130.9075  149.9645 H   0  0  0  0  0  0  0  0  0  0  0  0  # atno 10718 bound_to 10713
  152.9838  135.5664  154.5285 H   0  0  0  0  0  0  0  0  0  0  0  0  # atno 10763 bound_to 10752
  154.4761  135.2786  155.1608 H   0  0  0  0  0  0  0  0  0  0  0  0  # atno 10764 bound_to 10752
  154.3137  135.6283  153.5530 H   0  0  0  0  0  0  0  0  0  0  0  0  # atno 10765 bound_to 10752
  140.6749  134.4207  157.5230 H   0  0  0  0  0  0  0  0  0  0  0  0  # atno 11005 bound_to 11000
  145.9731  140.8744  143.0152 LP  0  0  0  0  0  0  0  0  0  0  0  0  # atno 17320 bound_to 7965
  144.6753  140.1974  143.7390 LP  0  0  0  0  0  0  0  0  0  0  0  0  # atno 17321 bound_to 7965
  140.6962  143.7743  150.7330 LP  0  0  0  0  0  0  0  0  0  0  0  0  # atno 17342 bound_to 10162
  140.1240  143.4586  152.2295 LP  0  0  0  0  0  0  0  0  0  0  0  0  # atno 17343 bound_to 10162
  156.0990  130.3657  150.0252 LP  0  0  0  0  0  0  0  0  0  0  0  0  # atno 17370 bound_to 10713
  156.8371  130.9412  151.3634 LP  0  0  0  0  0  0  0  0  0  0  0  0  # atno 17371 bound_to 10713
  139.8970  134.8647  156.2064 LP  0  0  0  0  0  0  0  0  0  0  0  0  # atno 17394 bound_to 11000
  141.0363  133.6961  156.1519 LP  0  0  0  0  0  0  0  0  0  0  0  0  # atno 17395 bound_to 11000

$$$$
