AV-unprocessed.smi:1115|AV-procd|sdf|4802|dock1
  -GOLD-   22720 3343D 1   1.00000     0.00000
 Structure written by MMmdl.
 51 52  0  0  0  0  0  0  0  0  2 V2000
  143.2513  132.1552  150.1149 C   0  0  0  0  0  0  0  0  0  0  0  0
  144.5473  132.8230  150.1544 N   0  0  0  0  0  0  0  0  0  0  0  0
  145.7265  132.1704  149.6006 C   0  0  0  0  0  0  0  0  0  0  0  0
  144.6847  134.0460  150.8461 C   0  0  0  0  0  0  0  0  0  0  0  0
  145.9101  134.4884  151.4013 C   0  0  0  0  0  0  0  0  0  0  0  0
  145.9674  135.7221  152.0804 C   0  0  0  0  0  0  0  0  0  0  0  0
  144.8043  136.5090  152.2104 C   0  0  0  0  0  0  0  0  0  0  0  0
  144.9243  137.7462  152.9005 N   0  0  0  0  0  0  0  0  0  0  0  0
  145.6672  138.0472  153.9795 C   0  0  0  0  0  0  0  0  0  0  0  0
  146.4053  137.2662  154.5787 O   0  0  0  0  0  0  0  0  0  0  0  0
  145.5040  139.3303  154.3300 N   0  0  0  0  0  0  0  0  0  0  0  0
  146.1319  139.9940  155.4725 C   0  0  0  0  0  0  0  0  0  0  0  0
  146.9694  141.2404  155.0596 C   0  0  0  0  0  0  0  0  0  0  0  0
  147.8954  140.7863  153.9027 C   0  0  0  0  0  0  0  0  0  0  0  0
  145.9836  142.2783  154.4710 C   0  0  0  0  0  0  0  0  0  0  0  0
  147.7629  141.7722  156.2037 N   0  0  0  0  0  0  0  0  0  0  0  0
  146.9755  142.1308  157.3889 C   0  0  0  0  0  0  0  0  0  0  0  0
  147.8392  142.7835  158.4818 C   0  0  0  0  0  0  0  0  0  0  0  0
  148.9061  141.9119  158.8354 O   0  0  0  0  0  0  0  0  0  0  0  0
  149.7313  141.5863  157.7238 C   0  0  0  0  0  0  0  0  0  0  0  0
  148.8828  140.9226  156.6261 C   0  0  0  0  0  0  0  0  0  0  0  0
  143.6057  136.0288  151.6302 C   0  0  0  0  0  0  0  0  0  0  0  0
  143.5962  134.8413  150.9868 N   0  3  0  0  0  0  0  0  0  0  0  0
  142.4976  132.8057  149.6702 H   0  0  0  0  0  0  0  0  0  0  0  0
  142.9287  131.8867  151.1214 H   0  0  0  0  0  0  0  0  0  0  0  0
  143.2932  131.2419  149.5210 H   0  0  0  0  0  0  0  0  0  0  0  0
  146.4609  131.9763  150.3831 H   0  0  0  0  0  0  0  0  0  0  0  0
  146.1878  132.7968  148.8367 H   0  0  0  0  0  0  0  0  0  0  0  0
  145.4715  131.2163  149.1393 H   0  0  0  0  0  0  0  0  0  0  0  0
  146.8122  133.9012  151.3175 H   0  0  0  0  0  0  0  0  0  0  0  0
  146.9036  136.0575  152.5023 H   0  0  0  0  0  0  0  0  0  0  0  0
  144.4003  138.5124  152.5036 H   0  0  0  0  0  0  0  0  0  0  0  0
  144.8718  139.8937  153.7805 H   0  0  0  0  0  0  0  0  0  0  0  0
  145.3814  140.2716  156.2149 H   0  0  0  0  0  0  0  0  0  0  0  0
  146.7537  139.2580  155.9817 H   0  0  0  0  0  0  0  0  0  0  0  0
  147.3444  140.2289  153.1441 H   0  0  0  0  0  0  0  0  0  0  0  0
  148.6999  140.1421  154.2590 H   0  0  0  0  0  0  0  0  0  0  0  0
  148.3540  141.6294  153.3860 H   0  0  0  0  0  0  0  0  0  0  0  0
  145.4284  141.8569  153.6324 H   0  0  0  0  0  0  0  0  0  0  0  0
  146.4936  143.1650  154.0950 H   0  0  0  0  0  0  0  0  0  0  0  0
  145.2447  142.6061  155.2019 H   0  0  0  0  0  0  0  0  0  0  0  0
  146.1838  142.8324  157.1321 H   0  0  0  0  0  0  0  0  0  0  0  0
  146.4937  141.2455  157.8039 H   0  0  0  0  0  0  0  0  0  0  0  0
  148.2385  143.7393  158.1389 H   0  0  0  0  0  0  0  0  0  0  0  0
  147.2380  142.9878  159.3677 H   0  0  0  0  0  0  0  0  0  0  0  0
  150.2176  142.4867  157.3451 H   0  0  0  0  0  0  0  0  0  0  0  0
  150.5207  140.9102  158.0525 H   0  0  0  0  0  0  0  0  0  0  0  0
  148.5117  139.9684  157.0005 H   0  0  0  0  0  0  0  0  0  0  0  0
  149.5408  140.6991  155.7884 H   0  0  0  0  0  0  0  0  0  0  0  0
  142.6547  136.5386  151.6420 H   0  0  0  0  0  0  0  0  0  0  0  0
  142.7146  134.5256  150.5821 H   0  0  0  0  0  0  0  0  0  0  0  0
  1  2  1  0  0  0  0
  1 24  1  0  0  0  0
  1 25  1  0  0  0  0
  1 26  1  0  0  0  0
  2  3  1  0  0  0  0
  2  4  1  0  0  0  0
  3 27  1  0  0  0  0
  3 28  1  0  0  0  0
  3 29  1  0  0  0  0
  4 23  1  0  0  0  0
  4  5  2  0  0  0  0
  5  6  1  0  0  0  0
  5 30  1  0  0  0  0
  6  7  2  0  0  0  0
  6 31  1  0  0  0  0
  7  8  1  0  0  0  0
  7 22  1  0  0  0  0
  8  9  1  0  0  0  0
  8 32  1  0  0  0  0
  9 10  2  0  0  0  0
  9 11  1  0  0  0  0
 11 12  1  0  0  0  0
 11 33  1  0  0  0  0
 12 13  1  0  0  0  0
 12 34  1  0  0  0  0
 12 35  1  0  0  0  0
 13 14  1  0  0  0  0
 13 15  1  0  0  0  0
 13 16  1  0  0  0  0
 14 36  1  0  0  0  0
 14 37  1  0  0  0  0
 14 38  1  0  0  0  0
 15 39  1  0  0  0  0
 15 40  1  0  0  0  0
 15 41  1  0  0  0  0
 16 21  1  0  0  0  0
 16 17  1  0  0  0  0
 17 18  1  0  0  0  0
 17 42  1  0  0  0  0
 17 43  1  0  0  0  0
 18 19  1  0  0  0  0
 18 44  1  0  0  0  0
 18 45  1  0  0  0  0
 19 20  1  0  0  0  0
 20 21  1  0  0  0  0
 20 46  1  0  0  0  0
 20 47  1  0  0  0  0
 21 48  1  0  0  0  0
 21 49  1  0  0  0  0
 22 23  2  0  0  0  0
 22 50  1  0  0  0  0
 23 51  1  0  0  0  0
M  CHG  1  23   1
M  END
> <s_m_source_file>
AV-unprocessed.smi

> <i_m_source_file_index>
1115

> <i_lp_mmshare_version>
43012

> <i_f3d_flags>
0

> <s_epik_input>
W0NIM11OKFtDSDNdKWMxW2NIXVtjSF1jKFtjSF1uMSlbTkhdQyg9TylbTkhdW0NIMl1DKFtDSDNdKShbQ0gzXSlOMltDSDJdW0NIMl1PW0NIMl1bQ0gyXTI=

> <s_epik_cmdline>
J2VwaWtfcHl0aG9uJywgJy1waCcsICc3LjAnLCAnLXRuJywgJzgnLCAnLW1hJywgJzIwMCcsICctbWV0YWxfYmluZGluZycsICctaW1hZScsICc8aW5maWxlLm1hZT4nLCAnLW9tYWUnLCAnPG91dGZpbGUubWFlPic=

> <r_lp_tautomer_probability>
0.999994

> <r_epik_Ionization_Penalty>
0.525804

> <r_epik_Ionization_Penalty_Charging>
0.259793

> <r_epik_Ionization_Penalty_Neutral>
0.266011

> <r_epik_State_Penalty>
0.517093

> <r_epik_Charging_Adjusted_Penalty>
0.776886

> <i_epik_Tot_Q>
1

> <i_epik_Tot_abs_Q>
1

> <r_epik_Metal_State_Penalty>
0.804287

> <b_epik_Metal_Only>
0

> <s_lp_Force_Field>
OPLS_2005

> <r_lp_Energy>
49.9386

> <b_lp_Chiralities_Consistent>
1

> <s_lp_Variant>
AV-unprocessed.smi:1115-1

> <Gold.Version>
5.8.1

> <Gold.Id.Protein>
6NUR|6NUR_protein|mol2

> <Gold.PLP.Fitness>
43.2341

> <Gold.PLP.PLP>
-32.9020

> <Gold.PLP.part.hbond>
-3.5979

> <Gold.PLP.part.metal>
0.0000

> <Gold.PLP.part.buried>
-1.8315

> <Gold.PLP.part.nonpolar>
-28.3373

> <Gold.PLP.part.repulsive>
0.7559

> <Gold.PLP.ligand.clash>
0.0000

> <Gold.PLP.ligand.torsion>
0.6633

> <Gold.PLP.Chemscore.Hbond>
3.8600

> <Gold.PLP.Chemscore.CHOScore>
0.0000

> <Gold.PLP.Chemscore.Metal>
0.0000

> <Gold.Chemscore.Hbonds>
donor molecule, donor type, donor heavy atom, donor atom, acceptor molecule, acceptor atom, score
      L1  H     8    32       P1 10175  0.91
      L1  H    11    33       P1 10175  1.00
      L1  H    23    51       P1 10186  2.00

> <Gold.PLP.Chemscore.Internal.Correction>
0.0787

> <Gold.Rescore>
     Score         DG    S(hbond)    S(metal)    S(lipo)     H(rot)  DE(clash)    DE(int)     intcor
     15.44     -18.02       2.29        0.00      73.52       1.44       0.92       1.66       ----

> <Gold.Chemscore.Fitness>
15.4384

> <Gold.Chemscore.DG>
-18.0221

> <Gold.Chemscore.ZeroCoef>
-5.4800

> <Gold.Chemscore.Hbond>
2.2870

> <Gold.Chemscore.Metal>
0.0000

> <Gold.Chemscore.Lipo>
73.5215

> <Gold.Chemscore.Internal_Hbond>
0.0000

> <Gold.Chemscore.DEClash>
0.9235

> <Gold.Chemscore.DEInternal>
1.6602

> <Gold.Chemscore.Rot>
1.4447

> <Gold.Chemscore.Internal.Correction>
   9.000000E+99

> <Gold.Chemscore.Hbonds>
donor molecule, donor type, donor heavy atom, donor atom, acceptor molecule, acceptor atom, score
      L1  H     8    32       P1 10175  0.85
      L1  H    11    33       P1 10175  1.00
      L1  H    23    51       P1 10186  0.34

> <Gold.Chemscore.Hbond.Weighted>
-7.6386

> <Gold.Chemscore.Metal.Weighted>
-0.0000

> <Gold.Chemscore.Lipo.Weighted>
-8.6020

> <Gold.Chemscore.Internal_Hbond.Weighted>
0.0000

> <Gold.Chemscore.DEClash.Weighted>
0.9235

> <Gold.Chemscore.DEInternal.Weighted>
1.6602

> <Gold.Chemscore.Rot.Weighted>
3.6985

> <Gold.Chemscore.Internal.Correction.Weighted>
   9.000000E+99

> <Gold.Protein.RotatedTorsions>
[ 6907 6896 6895 6894 ] final  -43.67 input  -60.11 | X-H torsion
[ 7974 7965 7964 7962 ] final  132.36 input  175.53 | X-H torsion
[ 8008 7997 7996 7995 ] final  -14.22 input   59.86 | X-H torsion
[ 10167 10162 10161 10158 ] final -153.13 input  -65.29 | X-H torsion
[ 10718 10713 10712 10709 ] final  -48.66 input   66.30 | X-H torsion
[ 10763 10752 10751 10750 ] final  -79.65 input  -60.55 | X-H torsion
[ 11005 11000 10999 10996 ] final   62.88 input  -57.11 | X-H torsion

> <Gold.Protein.ActiveResidues>
 VAL166  LYS551  ARG553  GLY616  TRP617  ASP618  TYR619  PRO620  LYS621  CYS622 
 ASP623  PHE694  ASN695  SER759  ASP760  ASP761  ALA762  ILE779  LEU786  VAL792 
 PHE793  MET794  SER795  GLU796  ALA797  LYS798  CYS799  TRP800  GLU811  SER814 

> <Gold.Protein.RotatedAtoms>
  150.9414  134.8822  159.7613 H   0  0  0  0  0  0  0  0  0  0  0  0  # atno 6907 bound_to 6896
  152.5081  134.3937  159.9403 H   0  0  0  0  0  0  0  0  0  0  0  0  # atno 6908 bound_to 6896
  151.3958  133.3734  159.2761 H   0  0  0  0  0  0  0  0  0  0  0  0  # atno 6909 bound_to 6896
  144.9977  139.4343  143.5308 H   0  0  0  0  0  0  0  0  0  0  0  0  # atno 7974 bound_to 7965
  154.5228  140.2229  155.8945 H   0  0  0  0  0  0  0  0  0  0  0  0  # atno 8008 bound_to 7997
  156.1680  140.3128  155.8888 H   0  0  0  0  0  0  0  0  0  0  0  0  # atno 8009 bound_to 7997
  155.3616  140.0461  157.3037 H   0  0  0  0  0  0  0  0  0  0  0  0  # atno 8010 bound_to 7997
  139.7123  143.9089  152.2472 H   0  0  0  0  0  0  0  0  0  0  0  0  # atno 10167 bound_to 10162
  156.1966  130.4154  149.9297 H   0  0  0  0  0  0  0  0  0  0  0  0  # atno 10718 bound_to 10713
  154.5413  135.5688  153.6842 H   0  0  0  0  0  0  0  0  0  0  0  0  # atno 10763 bound_to 10752
  152.9964  135.6228  154.2497 H   0  0  0  0  0  0  0  0  0  0  0  0  # atno 10764 bound_to 10752
  154.2428  135.2862  155.2827 H   0  0  0  0  0  0  0  0  0  0  0  0  # atno 10765 bound_to 10752
  140.0062  134.6366  155.9852 H   0  0  0  0  0  0  0  0  0  0  0  0  # atno 11005 bound_to 11000
  146.3445  139.9346  142.8749 LP  0  0  0  0  0  0  0  0  0  0  0  0  # atno 17320 bound_to 7965
  145.2197  140.9930  143.4053 LP  0  0  0  0  0  0  0  0  0  0  0  0  # atno 17321 bound_to 7965
  139.8962  144.6938  150.8716 LP  0  0  0  0  0  0  0  0  0  0  0  0  # atno 17342 bound_to 10162
  140.7736  143.3549  151.1942 LP  0  0  0  0  0  0  0  0  0  0  0  0  # atno 17343 bound_to 10162
  156.7020  130.8937  151.3600 LP  0  0  0  0  0  0  0  0  0  0  0  0  # atno 17370 bound_to 10713
  157.6961  130.9284  150.0650 LP  0  0  0  0  0  0  0  0  0  0  0  0  # atno 17371 bound_to 10713
  141.1678  133.6537  156.4543 LP  0  0  0  0  0  0  0  0  0  0  0  0  # atno 17394 bound_to 11000
  140.4637  134.6817  157.5097 LP  0  0  0  0  0  0  0  0  0  0  0  0  # atno 17395 bound_to 11000

$$$$
