AV-unprocessed.smi:511|AV-procd|sdf|2766|dock1
  -GOLD-   2262023233D 1   1.00000     0.00000
 Structure written by MMmdl.
 45 47  0  0  0  0  0  0  0  0  3 V2000
  149.7012  131.0042  154.3333 C   0  0  0  0  0  0  0  0  0  0  0  0
  150.3218  132.0577  155.0489 O   0  0  0  0  0  0  0  0  0  0  0  0
  149.8947  133.3357  154.6091 C   0  0  0  0  0  0  0  0  0  0  0  0
  148.9518  133.9336  155.6608 C   0  0  0  0  0  0  0  0  0  0  0  0
  148.4814  135.2591  155.2647 N   0  0  0  0  0  0  0  0  0  0  0  0
  147.2257  135.6378  154.9047 C   0  0  0  0  0  0  0  0  0  0  0  0
  146.1473  134.7536  154.9326 N   0  0  0  0  0  0  0  0  0  0  0  0
  144.7423  135.1559  154.9365 C   0  0  0  0  0  0  0  0  0  0  0  0
  144.1122  135.0047  153.5392 C   0  0  0  0  0  0  0  0  0  0  0  0
  144.2604  133.6185  153.0344 N   0  3  0  0  0  0  0  0  0  0  0  0
  143.6604  133.4325  151.6961 C   0  0  0  0  0  0  0  0  0  0  0  0
  145.6670  133.1559  153.0997 C   0  0  0  0  0  0  0  0  0  0  0  0
  146.2385  133.3583  154.5137 C   0  0  0  0  0  0  0  0  0  0  0  0
  147.1163  136.9074  154.5094 N   0  0  0  0  0  0  0  0  0  0  0  0
  148.4073  137.3906  154.6600 C   0  0  0  0  0  0  0  0  0  0  0  0
  149.2460  136.4202  155.1123 C   0  0  0  0  0  0  0  0  0  0  0  0
  150.6913  136.6274  155.3508 C   0  0  0  0  0  0  0  0  0  0  0  0
  151.4070  135.7092  155.7451 O   0  0  0  0  0  0  0  0  0  0  0  0
  151.0802  137.9138  155.0811 N   0  5  0  0  0  0  0  0  0  0  0  0
  150.2653  138.9289  154.6277 C   0  0  0  0  0  0  0  0  0  0  0  0
  150.6965  140.0623  154.4123 O   0  0  0  0  0  0  0  0  0  0  0  0
  148.9348  138.6859  154.4061 N   0  0  0  0  0  0  0  0  0  0  0  0
  148.0453  139.7442  153.9191 C   0  0  0  0  0  0  0  0  0  0  0  0
  150.0642  130.0459  154.7046 H   0  0  0  0  0  0  0  0  0  0  0  0
  149.9305  131.0609  153.2682 H   0  0  0  0  0  0  0  0  0  0  0  0
  148.6181  131.0264  154.4600 H   0  0  0  0  0  0  0  0  0  0  0  0
  150.7571  133.9861  154.4566 H   0  0  0  0  0  0  0  0  0  0  0  0
  149.3777  133.2454  153.6521 H   0  0  0  0  0  0  0  0  0  0  0  0
  148.1126  133.2592  155.8077 H   0  0  0  0  0  0  0  0  0  0  0  0
  149.4430  134.0022  156.6308 H   0  0  0  0  0  0  0  0  0  0  0  0
  144.1972  134.5612  155.6704 H   0  0  0  0  0  0  0  0  0  0  0  0
  144.6534  136.1978  155.2442 H   0  0  0  0  0  0  0  0  0  0  0  0
  143.0550  135.2695  153.5797 H   0  0  0  0  0  0  0  0  0  0  0  0
  144.5892  135.6971  152.8433 H   0  0  0  0  0  0  0  0  0  0  0  0
  144.1691  134.0439  150.9497 H   0  0  0  0  0  0  0  0  0  0  0  0
  142.6060  133.7105  151.7059 H   0  0  0  0  0  0  0  0  0  0  0  0
  143.7270  132.3891  151.3866 H   0  0  0  0  0  0  0  0  0  0  0  0
  145.7196  132.1015  152.8270 H   0  0  0  0  0  0  0  0  0  0  0  0
  146.2677  133.7058  152.3730 H   0  0  0  0  0  0  0  0  0  0  0  0
  147.2807  133.0378  154.5428 H   0  0  0  0  0  0  0  0  0  0  0  0
  145.7045  132.7337  155.2311 H   0  0  0  0  0  0  0  0  0  0  0  0
  148.4146  140.1530  152.9774 H   0  0  0  0  0  0  0  0  0  0  0  0
  147.9882  140.5569  154.6445 H   0  0  0  0  0  0  0  0  0  0  0  0
  147.0294  139.3920  153.7415 H   0  0  0  0  0  0  0  0  0  0  0  0
  143.7399  133.0298  153.6688 H   0  0  0  0  0  0  0  0  0  0  0  0
  1  2  1  0  0  0  0
  1 24  1  0  0  0  0
  1 25  1  0  0  0  0
  1 26  1  0  0  0  0
  2  3  1  0  0  0  0
  3  4  1  0  0  0  0
  3 27  1  0  0  0  0
  3 28  1  0  0  0  0
  4  5  1  0  0  0  0
  4 29  1  0  0  0  0
  4 30  1  0  0  0  0
  5 16  1  0  0  0  0
  5  6  1  0  0  0  0
  6  7  1  0  0  0  0
  6 14  2  0  0  0  0
  7 13  1  0  0  0  0
  7  8  1  0  0  0  0
  8  9  1  0  0  0  0
  8 31  1  0  0  0  0
  8 32  1  0  0  0  0
  9 10  1  0  0  0  0
  9 33  1  0  0  0  0
  9 34  1  0  0  0  0
 10 11  1  0  0  0  0
 10 12  1  0  0  0  0
 10 45  1  0  0  0  0
 11 35  1  0  0  0  0
 11 36  1  0  0  0  0
 11 37  1  0  0  0  0
 12 13  1  0  0  0  0
 12 38  1  0  0  0  0
 12 39  1  0  0  0  0
 13 40  1  0  0  0  0
 13 41  1  0  0  0  0
 14 15  1  0  0  0  0
 15 22  1  0  0  0  0
 15 16  2  0  0  0  0
 16 17  1  0  0  0  0
 17 18  2  0  0  0  0
 17 19  1  0  0  0  0
 19 20  1  0  0  0  0
 20 21  2  0  0  0  0
 20 22  1  0  0  0  0
 22 23  1  0  0  0  0
 23 42  1  0  0  0  0
 23 43  1  0  0  0  0
 23 44  1  0  0  0  0
M  CHG  1  10   1
M  CHG  1  19  -1
M  END
> <s_m_source_file>
AV-unprocessed.smi

> <i_m_source_file_index>
511

> <i_lp_mmshare_version>
43012

> <i_f3d_flags>
0

> <s_epik_input>
W0NIM11uMWMoPU8pW25IXWMoPU8pYyhjMTIpbihbQ0gyXVtDSDJdT1tDSDNdKWMobjIpTjNbQ0gyXVtDSDJdTihbQ0gzXSlbQ0gyXVtDSDJdMw==

> <s_epik_cmdline>
J2VwaWtfcHl0aG9uJywgJy1waCcsICc3LjAnLCAnLXRuJywgJzgnLCAnLW1hJywgJzIwMCcsICctbWV0YWxfYmluZGluZycsICctaW1hZScsICc8aW5maWxlLm1hZT4nLCAnLW9tYWUnLCAnPG91dGZpbGUubWFlPic=

> <r_epik_Ionization_Penalty>
5.9833

> <r_epik_Ionization_Penalty_Charging>
0.125752

> <r_epik_Ionization_Penalty_Neutral>
5.85754

> <r_epik_State_Penalty>
5.9139

> <r_epik_Charging_Adjusted_Penalty>
6.03966

> <i_epik_Tot_Q>
0

> <i_epik_Tot_abs_Q>
2

> <r_epik_Metal_State_Penalty>
1.87741

> <b_epik_Metal_Only>
1

> <s_lp_Force_Field>
OPLS_2005

> <r_lp_Energy>
51.0512

> <b_lp_Chiralities_Consistent>
1

> <s_lp_Variant>
AV-unprocessed.smi:511-3

> <Gold.Version>
5.8.1

> <Gold.Id.Protein>
6NUR|6NUR_protein|mol2

> <Gold.PLP.Fitness>
35.2415

> <Gold.PLP.PLP>
-24.1704

> <Gold.PLP.part.hbond>
-2.9999

> <Gold.PLP.part.metal>
0.0000

> <Gold.PLP.part.buried>
-3.7942

> <Gold.PLP.part.nonpolar>
-17.8190

> <Gold.PLP.part.repulsive>
0.3563

> <Gold.PLP.ligand.clash>
0.0000

> <Gold.PLP.ligand.torsion>
0.7704

> <Gold.PLP.Chemscore.Hbond>
4.0000

> <Gold.PLP.Chemscore.CHOScore>
0.0000

> <Gold.PLP.Chemscore.Metal>
0.0000

> <Gold.Chemscore.Hbonds>
donor molecule, donor type, donor heavy atom, donor atom, acceptor molecule, acceptor atom, score
      L1  H    10    45       P1 10957  2.00
      P1  H  7989  7998       L1    21  1.00
      P1  H 10752 10764       L1    18  1.00

> <Gold.PLP.Chemscore.Internal.Correction>
0.6118

> <Gold.Rescore>
     Score         DG    S(hbond)    S(metal)    S(lipo)     H(rot)  DE(clash)    DE(int)     intcor
     15.14     -16.13       2.96        0.00      39.19       1.49       0.01       0.97       ----

> <Gold.Chemscore.Fitness>
15.1439

> <Gold.Chemscore.DG>
-16.1256

> <Gold.Chemscore.ZeroCoef>
-5.4800

> <Gold.Chemscore.Hbond>
2.9576

> <Gold.Chemscore.Metal>
0.0000

> <Gold.Chemscore.Lipo>
39.1915

> <Gold.Chemscore.Internal_Hbond>
0.0000

> <Gold.Chemscore.DEClash>
0.0098

> <Gold.Chemscore.DEInternal>
0.9718

> <Gold.Chemscore.Rot>
1.4915

> <Gold.Chemscore.Internal.Correction>
   9.000000E+99

> <Gold.Chemscore.Hbonds>
donor molecule, donor type, donor heavy atom, donor atom, acceptor molecule, acceptor atom, score
      L1  H    10    45       P1 10957  0.90
      P1  H  7989  7998       L1    21  0.93
      P1  H 10752 10764       L1    18  0.93

> <Gold.Chemscore.Hbond.Weighted>
-9.8785

> <Gold.Chemscore.Metal.Weighted>
-0.0000

> <Gold.Chemscore.Lipo.Weighted>
-4.5854

> <Gold.Chemscore.Internal_Hbond.Weighted>
0.0000

> <Gold.Chemscore.DEClash.Weighted>
0.0098

> <Gold.Chemscore.DEInternal.Weighted>
0.9718

> <Gold.Chemscore.Rot.Weighted>
3.8183

> <Gold.Chemscore.Internal.Correction.Weighted>
   9.000000E+99

> <Gold.Protein.RotatedTorsions>
[ 6907 6896 6895 6894 ] final  111.19 input  -60.11 | X-H torsion
[ 7974 7965 7964 7962 ] final -106.48 input  175.53 | X-H torsion
[ 8008 7997 7996 7995 ] final   51.21 input   59.86 | X-H torsion
[ 10167 10162 10161 10158 ] final  -72.27 input  -65.29 | X-H torsion
[ 10718 10713 10712 10709 ] final  167.15 input   66.30 | X-H torsion
[ 10763 10752 10751 10750 ] final  -42.46 input  -60.55 | X-H torsion
[ 11005 11000 10999 10996 ] final  -63.16 input  -57.11 | X-H torsion

> <Gold.Protein.ActiveResidues>
 VAL166  LYS551  ARG553  GLY616  TRP617  ASP618  TYR619  PRO620  LYS621  CYS622 
 ASP623  PHE694  ASN695  SER759  ASP760  ASP761  ALA762  ILE779  LEU786  VAL792 
 PHE793  MET794  SER795  GLU796  ALA797  LYS798  CYS799  TRP800  GLU811  SER814 

> <Gold.Protein.RotatedAtoms>
  152.4982  133.8692  159.7289 H   0  0  0  0  0  0  0  0  0  0  0  0  # atno 6907 bound_to 6896
  150.9183  133.6902  159.2845 H   0  0  0  0  0  0  0  0  0  0  0  0  # atno 6908 bound_to 6896
  151.4288  135.1011  159.9688 H   0  0  0  0  0  0  0  0  0  0  0  0  # atno 6909 bound_to 6896
  145.2173  140.9120  143.3279 H   0  0  0  0  0  0  0  0  0  0  0  0  # atno 7974 bound_to 7965
  155.4315  140.3451  155.4280 H   0  0  0  0  0  0  0  0  0  0  0  0  # atno 8008 bound_to 7997
  156.1334  140.1520  156.9062 H   0  0  0  0  0  0  0  0  0  0  0  0  # atno 8009 bound_to 7997
  154.4912  140.0840  156.7579 H   0  0  0  0  0  0  0  0  0  0  0  0  # atno 8010 bound_to 7997
  140.5206  143.2332  151.7436 H   0  0  0  0  0  0  0  0  0  0  0  0  # atno 10167 bound_to 10162
  157.0556  131.0326  151.2665 H   0  0  0  0  0  0  0  0  0  0  0  0  # atno 10718 bound_to 10713
  153.9795  135.6718  153.4749 H   0  0  0  0  0  0  0  0  0  0  0  0  # atno 10763 bound_to 10752
  153.0755  135.4951  154.8392 H   0  0  0  0  0  0  0  0  0  0  0  0  # atno 10764 bound_to 10752
  154.7173  135.3109  154.9065 H   0  0  0  0  0  0  0  0  0  0  0  0  # atno 10765 bound_to 10752
  141.1384  133.6648  156.5638 H   0  0  0  0  0  0  0  0  0  0  0  0  # atno 11005 bound_to 11000
  144.9798  139.3794  143.6267 LP  0  0  0  0  0  0  0  0  0  0  0  0  # atno 17320 bound_to 7965
  146.3384  139.8934  142.8805 LP  0  0  0  0  0  0  0  0  0  0  0  0  # atno 17321 bound_to 7965
  139.4922  144.4260  151.9925 LP  0  0  0  0  0  0  0  0  0  0  0  0  # atno 17342 bound_to 10162
  140.3357  144.3264  150.5978 LP  0  0  0  0  0  0  0  0  0  0  0  0  # atno 17343 bound_to 10162
  157.4995  130.7871  149.7590 LP  0  0  0  0  0  0  0  0  0  0  0  0  # atno 17370 bound_to 10713
  155.9994  130.3889  150.2666 LP  0  0  0  0  0  0  0  0  0  0  0  0  # atno 17371 bound_to 10713
  140.3967  134.7392  157.4755 LP  0  0  0  0  0  0  0  0  0  0  0  0  # atno 17394 bound_to 11000
  140.0526  134.6109  155.8843 LP  0  0  0  0  0  0  0  0  0  0  0  0  # atno 17395 bound_to 11000

$$$$
