AV-unprocessed.smi:109|AV-procd|sdf|1036|dock10
  -GOLD-   2262018 53D 1   1.00000     0.00000
 Structure written by MMmdl.
 58 61  0  0  0  0  0  0  0  0  1 V2000
  151.1142  139.3568  154.6559 O   0  0  0  0  0  0  0  0  0  0  0  0
  151.0387  138.7708  155.9376 C   0  0  0  0  0  0  0  0  0  0  0  0
  151.6601  139.7132  156.9807 C   0  0  0  0  0  0  0  0  0  0  0  0
  151.1462  141.1657  156.8631 C   0  0  1  0  0  0  0  0  0  0  0  0
  149.7040  141.2023  157.1053 N   0  0  0  0  0  0  0  0  0  0  0  0
  148.8224  141.4345  156.1071 C   0  0  0  0  0  0  0  0  0  0  0  0
  149.1324  141.1643  154.8125 N   0  0  0  0  0  0  0  0  0  0  0  0
  148.2397  141.4038  153.8482 C   0  0  0  0  0  0  0  0  0  0  0  0
  147.0059  141.8999  153.9592 N   0  0  0  0  0  0  0  0  0  0  0  0
  146.6849  142.1714  155.2573 C   0  0  0  0  0  0  0  0  0  0  0  0
  147.5356  141.9661  156.3799 C   0  0  0  0  0  0  0  0  0  0  0  0
  146.8827  142.3506  157.5426 N   0  0  0  0  0  0  0  0  0  0  0  0
  145.7131  142.7553  157.1271 C   0  0  0  0  0  0  0  0  0  0  0  0
  145.5097  142.6922  155.7658 N   0  0  0  0  0  0  0  0  0  0  0  0
  144.2641  143.0743  155.0257 C   0  0  2  0  0  0  0  0  0  0  0  0
  144.1839  144.4691  154.9959 O   0  0  0  0  0  0  0  0  0  0  0  0
  143.0318  144.9260  155.7030 C   0  0  1  0  0  0  0  0  0  0  0  0
  142.5205  146.2587  155.1276 C   0  0  0  0  0  0  0  0  0  0  0  0
  143.5863  147.1769  155.0087 O   0  0  0  0  0  0  0  0  0  0  0  0
  142.0589  143.7437  155.6046 C   0  0  1  0  0  0  0  0  0  0  0  0
  141.3624  143.7729  154.3680 O   0  0  0  0  0  0  0  0  0  0  0  0
  142.9979  142.5465  155.7175 C   0  0  1  0  0  0  0  0  0  0  0  0
  142.4562  141.3940  155.0999 O   0  0  0  0  0  0  0  0  0  0  0  0
  151.8866  142.1762  157.7830 C   0  0  0  0  0  0  0  0  0  0  0  0
  151.8739  141.7559  159.2689 C   0  0  0  0  0  0  0  0  0  0  0  0
  152.7106  142.7164  160.1298 C   0  0  0  0  0  0  0  0  0  0  0  0
  152.2278  144.1670  159.9727 C   0  0  0  0  0  0  0  0  0  0  0  0
  152.2288  144.5957  158.4969 C   0  0  0  0  0  0  0  0  0  0  0  0
  151.3938  143.6337  157.6356 C   0  0  0  0  0  0  0  0  0  0  0  0
  144.4009  142.6957  154.0119 H   0  0  0  0  0  0  0  0  0  0  0  0
  143.2889  145.0599  156.7536 H   0  0  0  0  0  0  0  0  0  0  0  0
  141.3239  143.7561  156.4102 H   0  0  0  0  0  0  0  0  0  0  0  0
  143.2010  142.3374  156.7678 H   0  0  0  0  0  0  0  0  0  0  0  0
  150.6836  138.7850  154.0388 H   0  0  0  0  0  0  0  0  0  0  0  0
  149.9932  138.5711  156.1745 H   0  0  0  0  0  0  0  0  0  0  0  0
  151.5577  137.8122  155.9161 H   0  0  0  0  0  0  0  0  0  0  0  0
  151.4669  139.3256  157.9817 H   0  0  0  0  0  0  0  0  0  0  0  0
  152.7410  139.6893  156.8491 H   0  0  0  0  0  0  0  0  0  0  0  0
  151.3253  141.4719  155.8317 H   0  0  0  0  0  0  0  0  0  0  0  0
  149.4238  141.1355  158.0732 H   0  0  0  0  0  0  0  0  0  0  0  0
  148.5593  141.1641  152.8449 H   0  0  0  0  0  0  0  0  0  0  0  0
  144.9589  143.1164  157.8113 H   0  0  0  0  0  0  0  0  0  0  0  0
  142.0348  146.1165  154.1618 H   0  0  0  0  0  0  0  0  0  0  0  0
  141.7852  146.7004  155.8011 H   0  0  0  0  0  0  0  0  0  0  0  0
  143.8261  147.2424  154.0971 H   0  0  0  0  0  0  0  0  0  0  0  0
  141.8628  143.2802  153.7349 H   0  0  0  0  0  0  0  0  0  0  0  0
  143.0008  141.1675  154.3615 H   0  0  0  0  0  0  0  0  0  0  0  0
  152.9354  142.1687  157.4832 H   0  0  0  0  0  0  0  0  0  0  0  0
  150.8549  141.7397  159.6543 H   0  0  0  0  0  0  0  0  0  0  0  0
  152.2610  140.7419  159.3739 H   0  0  0  0  0  0  0  0  0  0  0  0
  152.6569  142.4188  161.1773 H   0  0  0  0  0  0  0  0  0  0  0  0
  153.7605  142.6461  159.8422 H   0  0  0  0  0  0  0  0  0  0  0  0
  151.2206  144.2628  160.3801 H   0  0  0  0  0  0  0  0  0  0  0  0
  152.8623  144.8354  160.5552 H   0  0  0  0  0  0  0  0  0  0  0  0
  151.8399  145.6101  158.4045 H   0  0  0  0  0  0  0  0  0  0  0  0
  153.2536  144.6231  158.1244 H   0  0  0  0  0  0  0  0  0  0  0  0
  151.4452  143.9484  156.5930 H   0  0  0  0  0  0  0  0  0  0  0  0
  150.3472  143.7099  157.9312 H   0  0  0  0  0  0  0  0  0  0  0  0
  1  2  1  0  0  0  0
  1 34  1  0  0  0  0
  2  3  1  0  0  0  0
  2 35  1  0  0  0  0
  2 36  1  0  0  0  0
  3  4  1  0  0  0  0
  3 37  1  0  0  0  0
  3 38  1  0  0  0  0
  4  5  1  0  0  0  0
  4 24  1  0  0  0  0
  4 39  1  0  0  0  0
  5  6  1  0  0  0  0
  5 40  1  0  0  0  0
  6 11  1  0  0  0  0
  6  7  2  0  0  0  0
  7  8  1  0  0  0  0
  8  9  2  0  0  0  0
  8 41  1  0  0  0  0
  9 10  1  0  0  0  0
 10 14  1  0  0  0  0
 10 11  2  0  0  0  0
 11 12  1  0  0  0  0
 12 13  2  0  0  0  0
 13 14  1  0  0  0  0
 13 42  1  0  0  0  0
 14 15  1  0  0  0  0
 15 30  1  0  0  0  0
 15 22  1  0  0  0  0
 15 16  1  0  0  0  0
 16 17  1  0  0  0  0
 17 31  1  0  0  0  0
 17 18  1  0  0  0  0
 17 20  1  0  0  0  0
 18 19  1  0  0  0  0
 18 43  1  0  0  0  0
 18 44  1  0  0  0  0
 19 45  1  0  0  0  0
 20 32  1  0  0  0  0
 20 21  1  0  0  0  0
 20 22  1  0  0  0  0
 21 46  1  0  0  0  0
 22 33  1  0  0  0  0
 22 23  1  0  0  0  0
 23 47  1  0  0  0  0
 24 29  1  0  0  0  0
 24 25  1  0  0  0  0
 24 48  1  0  0  0  0
 25 26  1  0  0  0  0
 25 49  1  0  0  0  0
 25 50  1  0  0  0  0
 26 27  1  0  0  0  0
 26 51  1  0  0  0  0
 26 52  1  0  0  0  0
 27 28  1  0  0  0  0
 27 53  1  0  0  0  0
 27 54  1  0  0  0  0
 28 29  1  0  0  0  0
 28 55  1  0  0  0  0
 28 56  1  0  0  0  0
 29 57  1  0  0  0  0
 29 58  1  0  0  0  0
M  END
> <s_m_source_file>
AV-unprocessed.smi

> <i_m_source_file_index>
109

> <i_lp_mmshare_version>
43012

> <i_f3d_flags>
0

> <s_epik_input>
W0NIMl0xW0NIMl1bQ0gyXVtDSDJdW0NIMl1bQ0hdMVtDQEhdKFtDSDJdW0NIMl1bT0hdKVtOSF1jKG5bY0hdbjIpYyhjMjMpbltjSF1uM1tDQEBIXTRPW0NASF0oW0NIMl1bT0hdKVtDQEBIXShbT0hdKVtDQEhdNFtPSF0=

> <s_epik_cmdline>
J2VwaWtfcHl0aG9uJywgJy1waCcsICc3LjAnLCAnLXRuJywgJzgnLCAnLW1hJywgJzIwMCcsICctbWV0YWxfYmluZGluZycsICctaW1hZScsICc8aW5maWxlLm1hZT4nLCAnLW9tYWUnLCAnPG91dGZpbGUubWFlPic=

> <r_lp_tautomer_probability>
1

> <r_epik_Ionization_Penalty>
0.000793976

> <r_epik_Ionization_Penalty_Charging>
0

> <r_epik_Ionization_Penalty_Neutral>
0.000793976

> <r_epik_State_Penalty>
-0

> <r_epik_Charging_Adjusted_Penalty>
0

> <i_epik_Tot_Q>
0

> <i_epik_Tot_abs_Q>
0

> <r_epik_Metal_State_Penalty>
-0

> <b_epik_Metal_Only>
0

> <s_epik_Chemistry_Notes>
This compound contains an acetal/aminal-like group ( X-CH(R)-Y where X, Y are N, S, or O) that may be acid/base labile, releasing an aldehyde.

> <s_lp_Force_Field>
OPLS_2005

> <r_lp_Energy>
57.9321

> <b_lp_Chiralities_Consistent>
1

> <s_lp_Variant>
AV-unprocessed.smi:109-6

> <Gold.Version>
5.8.1

> <Gold.Id.Protein>
6NUR|6NUR_protein|mol2

> <Gold.PLP.Fitness>
56.8246

> <Gold.PLP.PLP>
-46.0101

> <Gold.PLP.part.hbond>
-5.1876

> <Gold.PLP.part.metal>
0.0000

> <Gold.PLP.part.buried>
-7.2024

> <Gold.PLP.part.nonpolar>
-35.1433

> <Gold.PLP.part.repulsive>
0.6007

> <Gold.PLP.ligand.clash>
0.0000

> <Gold.PLP.ligand.torsion>
0.6860

> <Gold.PLP.Chemscore.Hbond>
3.0000

> <Gold.PLP.Chemscore.CHOScore>
1.0000

> <Gold.PLP.Chemscore.Metal>
0.0000

> <Gold.Chemscore.Hbonds>
donor molecule, donor type, donor heavy atom, donor atom, acceptor molecule, acceptor atom, score
      L1  H    21    46       P1 10174  1.00
      L1  H    23    47       P1 10175  0.94
      P1  H  7989  7998       L1     1  1.00
      L1  C     8    41       P1  7957  1.00

> <Gold.PLP.Chemscore.Internal.Correction>
0.1865

> <Gold.Rescore>
     Score         DG    S(hbond)    S(metal)    S(lipo)     H(rot)  DE(clash)    DE(int)     intcor
      8.10     -10.65       2.18        0.00     101.67       5.47       0.50       2.06       ----

> <Gold.Chemscore.Fitness>
8.0970

> <Gold.Chemscore.DG>
-10.6513

> <Gold.Chemscore.ZeroCoef>
-5.4800

> <Gold.Chemscore.Hbond>
2.1765

> <Gold.Chemscore.Metal>
0.0000

> <Gold.Chemscore.Lipo>
101.6682

> <Gold.Chemscore.Internal_Hbond>
0.0000

> <Gold.Chemscore.DEClash>
0.4979

> <Gold.Chemscore.DEInternal>
2.0564

> <Gold.Chemscore.Rot>
5.4662

> <Gold.Chemscore.Internal.Correction>
   9.000000E+99

> <Gold.Chemscore.Hbonds>
donor molecule, donor type, donor heavy atom, donor atom, acceptor molecule, acceptor atom, score
      L1  H    21    46       P1 10174  0.99
      L1  H    23    47       P1 10175  0.31
      P1  H  7989  7998       L1     1  0.29

> <Gold.Chemscore.Hbond.Weighted>
-7.2697

> <Gold.Chemscore.Metal.Weighted>
-0.0000

> <Gold.Chemscore.Lipo.Weighted>
-11.8952

> <Gold.Chemscore.Internal_Hbond.Weighted>
0.0000

> <Gold.Chemscore.DEClash.Weighted>
0.4979

> <Gold.Chemscore.DEInternal.Weighted>
2.0564

> <Gold.Chemscore.Rot.Weighted>
13.9935

> <Gold.Chemscore.Internal.Correction.Weighted>
   9.000000E+99

> <Gold.Protein.RotatedTorsions>
[ 6907 6896 6895 6894 ] final -131.61 input  -60.11 | X-H torsion
[ 7974 7965 7964 7962 ] final  -10.59 input  175.53 | X-H torsion
[ 8008 7997 7996 7995 ] final   85.52 input   59.86 | X-H torsion
[ 10167 10162 10161 10158 ] final  -84.66 input  -65.29 | X-H torsion
[ 10718 10713 10712 10709 ] final  -12.77 input   66.30 | X-H torsion
[ 10763 10752 10751 10750 ] final  -50.45 input  -60.55 | X-H torsion
[ 11005 11000 10999 10996 ] final  -87.80 input  -57.11 | X-H torsion

> <Gold.Protein.ActiveResidues>
 VAL166  LYS551  ARG553  GLY616  TRP617  ASP618  TYR619  PRO620  LYS621  CYS622 
 ASP623  PHE694  ASN695  SER759  ASP760  ASP761  ALA762  ILE779  LEU786  VAL792 
 PHE793  MET794  SER795  GLU796  ALA797  LYS798  CYS799  TRP800  GLU811  SER814 

> <Gold.Protein.RotatedAtoms>
  150.9529  133.6529  159.2768 H   0  0  0  0  0  0  0  0  0  0  0  0  # atno 6907 bound_to 6896
  151.3878  135.0950  159.9526 H   0  0  0  0  0  0  0  0  0  0  0  0  # atno 6908 bound_to 6896
  152.5117  133.9050  159.7514 H   0  0  0  0  0  0  0  0  0  0  0  0  # atno 6909 bound_to 6896
  146.2216  140.2786  142.8361 H   0  0  0  0  0  0  0  0  0  0  0  0  # atno 7974 bound_to 7965
  155.9511  140.3401  155.6409 H   0  0  0  0  0  0  0  0  0  0  0  0  # atno 8008 bound_to 7997
  155.6918  140.0750  157.2463 H   0  0  0  0  0  0  0  0  0  0  0  0  # atno 8009 bound_to 7997
  154.4122  140.1656  156.2082 H   0  0  0  0  0  0  0  0  0  0  0  0  # atno 8010 bound_to 7997
  140.4111  143.2622  151.9016 H   0  0  0  0  0  0  0  0  0  0  0  0  # atno 10167 bound_to 10162
  156.6399  130.4925  149.6099 H   0  0  0  0  0  0  0  0  0  0  0  0  # atno 10718 bound_to 10713
  154.1106  135.6549  153.4884 H   0  0  0  0  0  0  0  0  0  0  0  0  # atno 10763 bound_to 10752
  153.0258  135.5247  154.7195 H   0  0  0  0  0  0  0  0  0  0  0  0  # atno 10764 bound_to 10752
  154.6374  135.2984  155.0114 H   0  0  0  0  0  0  0  0  0  0  0  0  # atno 10765 bound_to 10752
  141.1611  133.7532  156.9359 H   0  0  0  0  0  0  0  0  0  0  0  0  # atno 11005 bound_to 11000
  144.9214  140.7872  143.5746 LP  0  0  0  0  0  0  0  0  0  0  0  0  # atno 17320 bound_to 7965
  145.2723  139.1950  143.4835 LP  0  0  0  0  0  0  0  0  0  0  0  0  # atno 17321 bound_to 7965
  139.4782  144.5536  151.8348 LP  0  0  0  0  0  0  0  0  0  0  0  0  # atno 17342 bound_to 10162
  140.4637  144.1686  150.5909 LP  0  0  0  0  0  0  0  0  0  0  0  0  # atno 17343 bound_to 10162
  156.2167  130.6712  151.1326 LP  0  0  0  0  0  0  0  0  0  0  0  0  # atno 17370 bound_to 10713
  157.7174  131.0702  150.6272 LP  0  0  0  0  0  0  0  0  0  0  0  0  # atno 17371 bound_to 10713
  140.1355  134.9328  157.2395 LP  0  0  0  0  0  0  0  0  0  0  0  0  # atno 17394 bound_to 11000
  140.2901  134.3250  155.7318 LP  0  0  0  0  0  0  0  0  0  0  0  0  # atno 17395 bound_to 11000

$$$$
