AV-unprocessed.smi:1042|AV-procd|sdf|4538|dock9
  -GOLD-   22720 2563D 1   1.00000     0.00000
 Structure written by MMmdl.
 40 42  0  0  0  0  0  0  0  0  2 V2000
  151.1940  140.8385  156.1858 O   0  0  0  0  0  0  0  0  0  0  0  0
  150.4697  141.8332  156.1421 C   0  0  0  0  0  0  0  0  0  0  0  0
  149.5282  142.0182  155.2051 N   0  0  0  0  0  0  0  0  0  0  0  0
  149.2373  141.0940  154.1133 C   0  0  0  0  0  0  0  0  0  0  0  0
  148.4346  139.8638  154.5806 C   0  0  2  0  0  0  0  0  0  0  0  0
  149.2973  138.7252  155.1158 C   0  0  0  0  0  0  0  0  0  0  0  0
  148.3468  137.5331  155.0463 C   0  0  0  0  0  0  0  0  0  0  0  0
  147.5402  137.7430  153.8250 N   0  3  1  0  0  0  0  0  0  0  0  0
  146.1703  137.1933  153.9103 C   0  0  0  0  0  0  0  0  0  0  0  0
  146.0484  135.7868  153.3745 C   0  0  0  0  0  0  0  0  0  0  0  0
  145.5317  136.9553  152.5629 C   0  0  0  0  0  0  0  0  0  0  0  0
  147.5946  139.1852  153.4879 C   0  0  0  0  0  0  0  0  0  0  0  0
  150.5079  142.8639  157.0047 N   0  0  0  0  0  0  0  0  0  0  0  0
  151.3380  143.0221  158.1463 C   0  0  0  0  0  0  0  0  0  0  0  0
  151.4530  144.3472  158.6238 C   0  0  0  0  0  0  0  0  0  0  0  0
  152.2520  144.6096  159.7537 C   0  0  0  0  0  0  0  0  0  0  0  0
  152.9137  143.5383  160.3793 C   0  0  0  0  0  0  0  0  0  0  0  0
  152.7446  142.2492  159.8412 C   0  0  0  0  0  0  0  0  0  0  0  0
  151.9801  141.9957  158.7579 N   0  0  0  0  0  0  0  0  0  0  0  0
  148.9843  142.8681  155.2396 H   0  0  0  0  0  0  0  0  0  0  0  0
  148.6774  141.6395  153.3531 H   0  0  0  0  0  0  0  0  0  0  0  0
  150.1700  140.7791  153.6421 H   0  0  0  0  0  0  0  0  0  0  0  0
  147.7595  140.1623  155.3847 H   0  0  0  0  0  0  0  0  0  0  0  0
  150.1558  138.5565  154.4637 H   0  0  0  0  0  0  0  0  0  0  0  0
  149.6685  138.9116  156.1241 H   0  0  0  0  0  0  0  0  0  0  0  0
  148.8710  136.5774  155.0201 H   0  0  0  0  0  0  0  0  0  0  0  0
  147.6982  137.5361  155.9241 H   0  0  0  0  0  0  0  0  0  0  0  0
  145.5689  137.5166  154.7585 H   0  0  0  0  0  0  0  0  0  0  0  0
  146.9502  135.2892  153.0222 H   0  0  0  0  0  0  0  0  0  0  0  0
  145.3092  135.1357  153.8370 H   0  0  0  0  0  0  0  0  0  0  0  0
  144.4525  137.0728  152.4905 H   0  0  0  0  0  0  0  0  0  0  0  0
  146.0903  137.2347  151.6712 H   0  0  0  0  0  0  0  0  0  0  0  0
  146.6032  139.6358  153.4147 H   0  0  0  0  0  0  0  0  0  0  0  0
  148.0711  139.2831  152.5117 H   0  0  0  0  0  0  0  0  0  0  0  0
  149.8654  143.6220  156.8288 H   0  0  0  0  0  0  0  0  0  0  0  0
  150.9374  145.1591  158.1315 H   0  0  0  0  0  0  0  0  0  0  0  0
  152.3544  145.6156  160.1331 H   0  0  0  0  0  0  0  0  0  0  0  0
  153.5348  143.6996  161.2480 H   0  0  0  0  0  0  0  0  0  0  0  0
  153.2356  141.3995  160.2917 H   0  0  0  0  0  0  0  0  0  0  0  0
  148.0138  137.2596  153.0752 H   0  0  0  0  0  0  0  0  0  0  0  0
  1  2  2  0  0  0  0
  2  3  1  0  0  0  0
  2 13  1  0  0  0  0
  3  4  1  0  0  0  0
  3 20  1  0  0  0  0
  4  5  1  0  0  0  0
  4 21  1  0  0  0  0
  4 22  1  0  0  0  0
  5 12  1  0  0  0  0
  5  6  1  0  0  0  0
  5 23  1  0  0  0  0
  6  7  1  0  0  0  0
  6 24  1  0  0  0  0
  6 25  1  0  0  0  0
  7  8  1  0  0  0  0
  7 26  1  0  0  0  0
  7 27  1  0  0  0  0
  8  9  1  0  0  0  0
  8 12  1  0  0  0  0
  8 40  1  0  0  0  0
  9 11  1  0  0  0  0
  9 10  1  0  0  0  0
  9 28  1  0  0  0  0
 10 11  1  0  0  0  0
 10 29  1  0  0  0  0
 10 30  1  0  0  0  0
 11 31  1  0  0  0  0
 11 32  1  0  0  0  0
 12 33  1  0  0  0  0
 12 34  1  0  0  0  0
 13 14  1  0  0  0  0
 13 35  1  0  0  0  0
 14 19  1  0  0  0  0
 14 15  2  0  0  0  0
 15 16  1  0  0  0  0
 15 36  1  0  0  0  0
 16 17  2  0  0  0  0
 16 37  1  0  0  0  0
 17 18  1  0  0  0  0
 17 38  1  0  0  0  0
 18 19  2  0  0  0  0
 18 39  1  0  0  0  0
M  CHG  1   8   1
M  END
> <s_m_source_file>
AV-unprocessed.smi

> <i_m_source_file_index>
1042

> <i_lp_mmshare_version>
43012

> <i_f3d_flags>
0

> <s_epik_input>
bjFbY0hdW2NIXVtjSF1bY0hdYzFbTkhdQyg9TylbTkhdW0NIMl1bQ0BASF0yW0NIMl1bQ0gyXU4oW0NIMl0yKVtDSF0zW0NIMl1bQ0gyXTM=

> <s_epik_cmdline>
J2VwaWtfcHl0aG9uJywgJy1waCcsICc3LjAnLCAnLXRuJywgJzgnLCAnLW1hJywgJzIwMCcsICctbWV0YWxfYmluZGluZycsICctaW1hZScsICc8aW5maWxlLm1hZT4nLCAnLW9tYWUnLCAnPG91dGZpbGUubWFlPic=

> <r_lp_tautomer_probability>
1

> <r_epik_Ionization_Penalty>
0.000244736

> <r_epik_Ionization_Penalty_Charging>
0.000203384

> <r_epik_Ionization_Penalty_Neutral>
4.13519e-05

> <r_epik_State_Penalty>
-0

> <r_epik_Charging_Adjusted_Penalty>
0.000203384

> <i_epik_Tot_Q>
1

> <i_epik_Tot_abs_Q>
1

> <r_epik_Metal_State_Penalty>
-0

> <b_epik_Metal_Only>
0

> <s_lp_Force_Field>
OPLS_2005

> <r_lp_Energy>
38.555

> <b_lp_Chiralities_Consistent>
1

> <s_lp_Variant>
AV-unprocessed.smi:1042-3

> <Gold.Version>
5.8.1

> <Gold.Id.Protein>
6NUR|6NUR_protein|mol2

> <Gold.PLP.Fitness>
45.2611

> <Gold.PLP.PLP>
-34.2489

> <Gold.PLP.part.hbond>
-3.0000

> <Gold.PLP.part.metal>
0.0000

> <Gold.PLP.part.buried>
-2.7385

> <Gold.PLP.part.nonpolar>
-28.4249

> <Gold.PLP.part.repulsive>
0.2454

> <Gold.PLP.ligand.clash>
0.0000

> <Gold.PLP.ligand.torsion>
1.1117

> <Gold.PLP.Chemscore.Hbond>
3.9920

> <Gold.PLP.Chemscore.CHOScore>
0.0000

> <Gold.PLP.Chemscore.Metal>
0.0000

> <Gold.Chemscore.Hbonds>
donor molecule, donor type, donor heavy atom, donor atom, acceptor molecule, acceptor atom, score
      L1  H     3    20       P1  8028  0.99
      L1  H     8    40       P1  7948  2.00
      L1  H    13    35       P1  8028  1.00

> <Gold.PLP.Chemscore.Internal.Correction>
1.2596

> <Gold.Rescore>
     Score         DG    S(hbond)    S(metal)    S(lipo)     H(rot)  DE(clash)    DE(int)     intcor
     18.55     -21.13       2.89        0.00      83.27       1.47       0.25       2.32       ----

> <Gold.Chemscore.Fitness>
18.5507

> <Gold.Chemscore.DG>
-21.1265

> <Gold.Chemscore.ZeroCoef>
-5.4800

> <Gold.Chemscore.Hbond>
2.8949

> <Gold.Chemscore.Metal>
0.0000

> <Gold.Chemscore.Lipo>
83.2680

> <Gold.Chemscore.Internal_Hbond>
0.0000

> <Gold.Chemscore.DEClash>
0.2537

> <Gold.Chemscore.DEInternal>
2.3221

> <Gold.Chemscore.Rot>
1.4707

> <Gold.Chemscore.Internal.Correction>
   9.000000E+99

> <Gold.Chemscore.Hbonds>
donor molecule, donor type, donor heavy atom, donor atom, acceptor molecule, acceptor atom, score
      L1  H     3    20       P1  8028  0.94
      L1  H     8    40       P1  7948  1.00
      L1  H    13    35       P1  8028  0.96

> <Gold.Chemscore.Hbond.Weighted>
-9.6691

> <Gold.Chemscore.Metal.Weighted>
-0.0000

> <Gold.Chemscore.Lipo.Weighted>
-9.7424

> <Gold.Chemscore.Internal_Hbond.Weighted>
0.0000

> <Gold.Chemscore.DEClash.Weighted>
0.2537

> <Gold.Chemscore.DEInternal.Weighted>
2.3221

> <Gold.Chemscore.Rot.Weighted>
3.7650

> <Gold.Chemscore.Internal.Correction.Weighted>
   9.000000E+99

> <Gold.Protein.RotatedTorsions>
[ 6907 6896 6895 6894 ] final   81.99 input  -60.11 | X-H torsion
[ 7974 7965 7964 7962 ] final -106.36 input  175.53 | X-H torsion
[ 8008 7997 7996 7995 ] final  -14.45 input   59.86 | X-H torsion
[ 10167 10162 10161 10158 ] final   64.69 input  -65.29 | X-H torsion
[ 10718 10713 10712 10709 ] final -156.42 input   66.30 | X-H torsion
[ 10763 10752 10751 10750 ] final   -0.63 input  -60.55 | X-H torsion
[ 11005 11000 10999 10996 ] final  131.36 input  -57.11 | X-H torsion

> <Gold.Protein.ActiveResidues>
 VAL166  LYS551  ARG553  GLY616  TRP617  ASP618  TYR619  PRO620  LYS621  CYS622 
 ASP623  PHE694  ASN695  SER759  ASP760  ASP761  ALA762  ILE779  LEU786  VAL792 
 PHE793  MET794  SER795  GLU796  ALA797  LYS798  CYS799  TRP800  GLU811  SER814 

> <Gold.Protein.RotatedAtoms>
  152.5286  134.3118  159.9116 H   0  0  0  0  0  0  0  0  0  0  0  0  # atno 6907 bound_to 6896
  151.3068  133.4091  159.2651 H   0  0  0  0  0  0  0  0  0  0  0  0  # atno 6908 bound_to 6896
  151.0072  134.9385  159.8044 H   0  0  0  0  0  0  0  0  0  0  0  0  # atno 6909 bound_to 6896
  145.2188  140.9126  143.3271 H   0  0  0  0  0  0  0  0  0  0  0  0  # atno 7974 bound_to 7965
  154.5209  140.2222  155.8977 H   0  0  0  0  0  0  0  0  0  0  0  0  # atno 8008 bound_to 7997
  156.1661  140.3132  155.8856 H   0  0  0  0  0  0  0  0  0  0  0  0  # atno 8009 bound_to 7997
  155.3654  140.0463  157.3036 H   0  0  0  0  0  0  0  0  0  0  0  0  # atno 8010 bound_to 7997
  140.1194  144.4745  150.6929 H   0  0  0  0  0  0  0  0  0  0  0  0  # atno 10167 bound_to 10162
  156.5262  130.8500  151.2700 H   0  0  0  0  0  0  0  0  0  0  0  0  # atno 10718 bound_to 10713
  153.3343  135.6977  153.6921 H   0  0  0  0  0  0  0  0  0  0  0  0  # atno 10763 bound_to 10752
  153.5711  135.3516  155.2838 H   0  0  0  0  0  0  0  0  0  0  0  0  # atno 10764 bound_to 10752
  154.8624  135.4272  154.2540 H   0  0  0  0  0  0  0  0  0  0  0  0  # atno 10765 bound_to 10752
  139.9726  134.9573  156.9427 H   0  0  0  0  0  0  0  0  0  0  0  0  # atno 11005 bound_to 11000
  144.9785  139.3807  143.6274 LP  0  0  0  0  0  0  0  0  0  0  0  0  # atno 17320 bound_to 7965
  146.3381  139.8915  142.8808 LP  0  0  0  0  0  0  0  0  0  0  0  0  # atno 17321 bound_to 7965
  140.6881  143.2360  151.5207 LP  0  0  0  0  0  0  0  0  0  0  0  0  # atno 17342 bound_to 10162
  139.5577  144.2235  152.1639 LP  0  0  0  0  0  0  0  0  0  0  0  0  # atno 17343 bound_to 10162
  157.7429  130.9900  150.2551 LP  0  0  0  0  0  0  0  0  0  0  0  0  # atno 17370 bound_to 10713
  156.3102  130.3771  149.7668 LP  0  0  0  0  0  0  0  0  0  0  0  0  # atno 17371 bound_to 10713
  140.5262  134.0858  155.7304 LP  0  0  0  0  0  0  0  0  0  0  0  0  # atno 17394 bound_to 11000
  141.1404  133.9147  157.2338 LP  0  0  0  0  0  0  0  0  0  0  0  0  # atno 17395 bound_to 11000

$$$$
