AV-unprocessed.smi:1978|AV-procd|sdf|8002|dock8
  -GOLD-   2272010183D 1   1.00000     0.00000
 Structure written by MMmdl.
 44 45  0  0  0  0  0  0  0  0  3 V2000
  147.6324  141.5404  153.7419 C   0  0  0  0  0  0  0  0  0  0  0  0
  148.7778  140.6148  153.9713 C   0  0  0  0  0  0  0  0  0  0  0  0
  148.8723  139.2534  154.0321 C   0  0  0  0  0  0  0  0  0  0  0  0
  150.2540  139.0348  154.2856 C   0  0  0  0  0  0  0  0  0  0  0  0
  150.8525  137.8411  154.4199 N   0  5  0  0  0  0  0  0  0  0  0  0
  150.2819  136.8757  155.1753 C   0  0  0  0  0  0  0  0  0  0  0  0
  150.4443  136.7003  156.3851 O   0  0  0  0  0  0  0  0  0  0  0  0
  149.4755  136.0568  154.4850 N   0  0  0  0  0  0  0  0  0  0  0  0
  148.7504  134.9177  155.0372 C   0  0  0  0  0  0  0  0  0  0  0  0
  147.2297  134.9954  154.7480 C   0  0  2  0  0  0  0  0  0  0  0  0
  146.4160  133.9925  155.5918 C   0  0  0  0  0  0  0  0  0  0  0  0
  146.9048  134.8804  153.2898 N   0  3  2  0  0  0  0  0  0  0  0  0
  145.7127  135.6760  152.8733 C   0  0  0  0  0  0  0  0  0  0  0  0
  145.5910  135.7453  151.3441 C   0  0  0  0  0  0  0  0  0  0  0  0
  145.5167  134.3393  150.7447 C   0  0  0  0  0  0  0  0  0  0  0  0
  146.7267  133.5191  151.2035 C   0  0  0  0  0  0  0  0  0  0  0  0
  146.8471  133.4831  152.7428 C   0  0  1  0  0  0  0  0  0  0  0  0
  148.0589  132.6121  153.1319 C   0  0  0  0  0  0  0  0  0  0  0  0
  150.9403  140.1631  154.3550 N   0  0  0  0  0  0  0  0  0  0  0  0
  149.9997  141.1816  154.1607 O   0  0  0  0  0  0  0  0  0  0  0  0
  147.3495  141.5490  152.6894 H   0  0  0  0  0  0  0  0  0  0  0  0
  147.8865  142.5599  154.0328 H   0  0  0  0  0  0  0  0  0  0  0  0
  146.7641  141.2308  154.3235 H   0  0  0  0  0  0  0  0  0  0  0  0
  148.0800  138.5290  153.9171 H   0  0  0  0  0  0  0  0  0  0  0  0
  149.3677  136.2362  153.4973 H   0  0  0  0  0  0  0  0  0  0  0  0
  149.1837  133.9979  154.6428 H   0  0  0  0  0  0  0  0  0  0  0  0
  148.9361  134.9095  156.1109 H   0  0  0  0  0  0  0  0  0  0  0  0
  146.8687  135.9644  155.0860 H   0  0  0  0  0  0  0  0  0  0  0  0
  146.4623  134.2468  156.6512 H   0  0  0  0  0  0  0  0  0  0  0  0
  146.7872  132.9726  155.4957 H   0  0  0  0  0  0  0  0  0  0  0  0
  145.3635  133.9996  155.3074 H   0  0  0  0  0  0  0  0  0  0  0  0
  144.8067  135.2355  153.2912 H   0  0  0  0  0  0  0  0  0  0  0  0
  145.7697  136.6951  153.2512 H   0  0  0  0  0  0  0  0  0  0  0  0
  144.7040  136.3155  151.0659 H   0  0  0  0  0  0  0  0  0  0  0  0
  146.4468  136.2803  150.9299 H   0  0  0  0  0  0  0  0  0  0  0  0
  144.5950  133.8487  151.0603 H   0  0  0  0  0  0  0  0  0  0  0  0
  145.4873  134.3933  149.6560 H   0  0  0  0  0  0  0  0  0  0  0  0
  146.6421  132.5055  150.8097 H   0  0  0  0  0  0  0  0  0  0  0  0
  147.6359  133.9406  150.7722 H   0  0  0  0  0  0  0  0  0  0  0  0
  145.9512  132.9992  153.1338 H   0  0  0  0  0  0  0  0  0  0  0  0
  148.0424  131.6612  152.5985 H   0  0  0  0  0  0  0  0  0  0  0  0
  148.0618  132.3632  154.1929 H   0  0  0  0  0  0  0  0  0  0  0  0
  149.0008  133.1067  152.8923 H   0  0  0  0  0  0  0  0  0  0  0  0
  147.6913  135.3088  152.8234 H   0  0  0  0  0  0  0  0  0  0  0  0
  1  2  1  0  0  0  0
  1 21  1  0  0  0  0
  1 22  1  0  0  0  0
  1 23  1  0  0  0  0
  2 20  1  0  0  0  0
  2  3  2  0  0  0  0
  3  4  1  0  0  0  0
  3 24  1  0  0  0  0
  4  5  1  0  0  0  0
  4 19  2  0  0  0  0
  5  6  1  0  0  0  0
  6  7  2  0  0  0  0
  6  8  1  0  0  0  0
  8  9  1  0  0  0  0
  8 25  1  0  0  0  0
  9 10  1  0  0  0  0
  9 26  1  0  0  0  0
  9 27  1  0  0  0  0
 10 11  1  0  0  0  0
 10 12  1  0  0  0  0
 10 28  1  0  0  0  0
 11 29  1  0  0  0  0
 11 30  1  0  0  0  0
 11 31  1  0  0  0  0
 12 17  1  0  0  0  0
 12 13  1  0  0  0  0
 12 44  1  0  0  0  0
 13 14  1  0  0  0  0
 13 32  1  0  0  0  0
 13 33  1  0  0  0  0
 14 15  1  0  0  0  0
 14 34  1  0  0  0  0
 14 35  1  0  0  0  0
 15 16  1  0  0  0  0
 15 36  1  0  0  0  0
 15 37  1  0  0  0  0
 16 17  1  0  0  0  0
 16 38  1  0  0  0  0
 16 39  1  0  0  0  0
 17 18  1  0  0  0  0
 17 40  1  0  0  0  0
 18 41  1  0  0  0  0
 18 42  1  0  0  0  0
 18 43  1  0  0  0  0
 19 20  1  0  0  0  0
M  CHG  1   5  -1
M  CHG  1  12   1
M  END
> <s_m_source_file>
AV-unprocessed.smi

> <i_m_source_file_index>
1978

> <i_lp_mmshare_version>
43012

> <i_f3d_flags>
0

> <s_epik_input>
W0NIM11jMVtjSF1jKG5vMSlbTkhdQyg9TylbTkhdW0NIMl1bQ0BIXShbQ0gzXSlOMltDSDJdW0NIMl1bQ0gyXVtDSDJdW0NASF0yW0NIM10=

> <s_epik_cmdline>
J2VwaWtfcHl0aG9uJywgJy1waCcsICc3LjAnLCAnLXRuJywgJzgnLCAnLW1hJywgJzIwMCcsICctbWV0YWxfYmluZGluZycsICctaW1hZScsICc8aW5maWxlLm1hZT4nLCAnLW9tYWUnLCAnPG91dGZpbGUubWFlPic=

> <r_epik_Ionization_Penalty>
6.22372

> <r_epik_Ionization_Penalty_Charging>
6.22362

> <r_epik_Ionization_Penalty_Neutral>
9.65074e-05

> <r_epik_State_Penalty>
6.22363

> <r_epik_Charging_Adjusted_Penalty>
12.4472

> <i_epik_Tot_Q>
0

> <i_epik_Tot_abs_Q>
2

> <r_epik_Metal_State_Penalty>
2.16675

> <b_epik_Metal_Only>
1

> <s_lp_Force_Field>
OPLS_2005

> <r_lp_Energy>
9.77909

> <b_lp_Chiralities_Consistent>
1

> <s_lp_Variant>
AV-unprocessed.smi:1978-11

> <Gold.Version>
5.8.1

> <Gold.Id.Protein>
6NUR|6NUR_protein|mol2

> <Gold.PLP.Fitness>
41.6846

> <Gold.PLP.PLP>
-31.8085

> <Gold.PLP.part.hbond>
-4.7706

> <Gold.PLP.part.metal>
0.0000

> <Gold.PLP.part.buried>
-3.6420

> <Gold.PLP.part.nonpolar>
-23.3112

> <Gold.PLP.part.repulsive>
0.5212

> <Gold.PLP.ligand.clash>
0.0000

> <Gold.PLP.ligand.torsion>
1.7022

> <Gold.PLP.Chemscore.Hbond>
4.3731

> <Gold.PLP.Chemscore.CHOScore>
0.0000

> <Gold.PLP.Chemscore.Metal>
0.0000

> <Gold.Chemscore.Hbonds>
donor molecule, donor type, donor heavy atom, donor atom, acceptor molecule, acceptor atom, score
      L1  H     8    25       P1  7948  1.00
      L1  H    12    44       P1  7948  2.00
      P1  H  7989  7998       L1    19  0.07
      P1  H  8011  8017       L1    20  0.25

> <Gold.PLP.Chemscore.Internal.Correction>
0.1612

> <Gold.Rescore>
     Score         DG    S(hbond)    S(metal)    S(lipo)     H(rot)  DE(clash)    DE(int)     intcor
     15.90     -18.14       2.89        0.00      59.05       1.52       0.34       1.90       ----

> <Gold.Chemscore.Fitness>
15.8983

> <Gold.Chemscore.DG>
-18.1421

> <Gold.Chemscore.ZeroCoef>
-5.4800

> <Gold.Chemscore.Hbond>
2.8868

> <Gold.Chemscore.Metal>
0.0000

> <Gold.Chemscore.Lipo>
59.0494

> <Gold.Chemscore.Internal_Hbond>
0.0000

> <Gold.Chemscore.DEClash>
0.3416

> <Gold.Chemscore.DEInternal>
1.9022

> <Gold.Chemscore.Rot>
1.5190

> <Gold.Chemscore.Internal.Correction>
   9.000000E+99

> <Gold.Chemscore.Hbonds>
donor molecule, donor type, donor heavy atom, donor atom, acceptor molecule, acceptor atom, score
      L1  H     8    25       P1  7948  0.74
      L1  H    12    44       P1  7948  1.00
      P1  H  8011  8017       L1    20  0.02

> <Gold.Chemscore.Hbond.Weighted>
-9.6419

> <Gold.Chemscore.Metal.Weighted>
-0.0000

> <Gold.Chemscore.Lipo.Weighted>
-6.9088

> <Gold.Chemscore.Internal_Hbond.Weighted>
0.0000

> <Gold.Chemscore.DEClash.Weighted>
0.3416

> <Gold.Chemscore.DEInternal.Weighted>
1.9022

> <Gold.Chemscore.Rot.Weighted>
3.8886

> <Gold.Chemscore.Internal.Correction.Weighted>
   9.000000E+99

> <Gold.Protein.RotatedTorsions>
[ 6907 6896 6895 6894 ] final   20.42 input  -60.11 | X-H torsion
[ 7974 7965 7964 7962 ] final  177.76 input  175.53 | X-H torsion
[ 8008 7997 7996 7995 ] final  158.24 input   59.86 | X-H torsion
[ 10167 10162 10161 10158 ] final  109.65 input  -65.29 | X-H torsion
[ 10718 10713 10712 10709 ] final   69.10 input   66.30 | X-H torsion
[ 10763 10752 10751 10750 ] final  112.81 input  -60.55 | X-H torsion
[ 11005 11000 10999 10996 ] final  -94.77 input  -57.11 | X-H torsion

> <Gold.Protein.ActiveResidues>
 VAL166  LYS551  ARG553  GLY616  TRP617  ASP618  TYR619  PRO620  LYS621  CYS622 
 ASP623  PHE694  ASN695  SER759  ASP760  ASP761  ALA762  ILE779  LEU786  VAL792 
 PHE793  MET794  SER795  GLU796  ALA797  LYS798  CYS799  TRP800  GLU811  SER814 

> <Gold.Protein.RotatedAtoms>
  151.8962  135.0397  160.0501 H   0  0  0  0  0  0  0  0  0  0  0  0  # atno 6907 bound_to 6896
  152.2396  133.5120  159.5271 H   0  0  0  0  0  0  0  0  0  0  0  0  # atno 6908 bound_to 6896
  150.7049  134.1023  159.4013 H   0  0  0  0  0  0  0  0  0  0  0  0  # atno 6909 bound_to 6896
  144.7165  140.0295  143.6439 H   0  0  0  0  0  0  0  0  0  0  0  0  # atno 7974 bound_to 7965
  156.2315  140.1863  156.7231 H   0  0  0  0  0  0  0  0  0  0  0  0  # atno 8008 bound_to 7997
  154.6030  140.0633  156.9422 H   0  0  0  0  0  0  0  0  0  0  0  0  # atno 8009 bound_to 7997
  155.2142  140.3302  155.4327 H   0  0  0  0  0  0  0  0  0  0  0  0  # atno 8010 bound_to 7997
  139.6750  144.7123  151.1619 H   0  0  0  0  0  0  0  0  0  0  0  0  # atno 10167 bound_to 10162
  157.6327  130.9408  150.0467 H   0  0  0  0  0  0  0  0  0  0  0  0  # atno 10718 bound_to 10713
  153.4833  135.3674  155.2453 H   0  0  0  0  0  0  0  0  0  0  0  0  # atno 10763 bound_to 10752
  154.8754  135.3959  154.3674 H   0  0  0  0  0  0  0  0  0  0  0  0  # atno 10764 bound_to 10752
  153.4282  135.7082  153.6314 H   0  0  0  0  0  0  0  0  0  0  0  0  # atno 10765 bound_to 10752
  141.1461  133.7979  157.0343 H   0  0  0  0  0  0  0  0  0  0  0  0  # atno 11005 bound_to 11000
  146.0114  139.3173  143.0868 LP  0  0  0  0  0  0  0  0  0  0  0  0  # atno 17320 bound_to 7965
  145.8677  140.9438  143.0667 LP  0  0  0  0  0  0  0  0  0  0  0  0  # atno 17321 bound_to 7965
  140.7632  143.5786  150.8919 LP  0  0  0  0  0  0  0  0  0  0  0  0  # atno 17342 bound_to 10162
  139.9454  143.6333  152.3043 LP  0  0  0  0  0  0  0  0  0  0  0  0  # atno 17343 bound_to 10162
  156.1542  130.3643  149.9393 LP  0  0  0  0  0  0  0  0  0  0  0  0  # atno 17370 bound_to 10713
  156.7406  130.9078  151.3632 LP  0  0  0  0  0  0  0  0  0  0  0  0  # atno 17371 bound_to 10713
  140.0733  134.9690  157.1504 LP  0  0  0  0  0  0  0  0  0  0  0  0  # atno 17394 bound_to 11000
  140.3679  134.2422  155.7180 LP  0  0  0  0  0  0  0  0  0  0  0  0  # atno 17395 bound_to 11000

$$$$
