AV-unprocessed.smi:1524|AV-procd|sdf|6139|dock8
  -GOLD-   22720 6283D 1   1.00000     0.00000
 Structure written by MMmdl.
 35 36  0  0  0  0  0  0  0  0  1 V2000
  145.8190  129.1941  152.5667 O   0  0  0  0  0  0  0  0  0  0  0  0
  146.6641  129.5585  151.7520 C   0  0  0  0  0  0  0  0  0  0  0  0
  147.6627  128.7896  151.2710 N   0  0  0  0  0  0  0  0  0  0  0  0
  147.9601  127.4439  151.5389 C   0  0  0  0  0  0  0  0  0  0  0  0
  148.3459  126.5336  150.6072 C   0  0  0  0  0  0  0  0  0  0  0  0
  148.6483  125.1552  150.9553 C   0  0  0  0  0  0  0  0  0  0  0  0
  149.0000  124.1247  149.8936 C   0  0  0  0  0  0  0  0  0  0  0  0
  149.2884  122.9439  150.4424 F   0  0  0  0  0  0  0  0  0  0  0  0
  147.9912  123.9540  149.0389 F   0  0  0  0  0  0  0  0  0  0  0  0
  150.0639  124.5323  149.2028 F   0  0  0  0  0  0  0  0  0  0  0  0
  148.5177  124.8215  152.2528 C   0  0  0  0  0  0  0  0  0  0  0  0
  148.1448  125.7576  153.2199 N   0  0  0  0  0  0  0  0  0  0  0  0
  147.8597  127.0521  152.9542 C   0  0  0  0  0  0  0  0  0  0  0  0
  147.5408  127.8180  153.8634 O   0  0  0  0  0  0  0  0  0  0  0  0
  146.6731  130.8202  151.2843 N   0  0  0  0  0  0  0  0  0  0  0  0
  145.7464  131.9122  151.5925 C   0  0  0  0  0  0  0  0  0  0  0  0
  144.3633  131.6602  150.9644 C   0  0  0  0  0  0  0  0  0  0  0  0
  143.4534  132.8869  151.1409 C   0  0  0  0  0  0  0  0  0  0  0  0
  144.0746  134.0398  150.5832 O   0  0  0  0  0  0  0  0  0  0  0  0
  145.2987  134.3753  151.2275 C   0  0  0  0  0  0  0  0  0  0  0  0
  146.3137  133.2340  151.0534 C   0  0  0  0  0  0  0  0  0  0  0  0
  148.0876  125.4334  154.1747 H   0  0  0  0  0  0  0  0  0  0  0  0
  148.3252  129.2512  150.6648 H   0  0  0  0  0  0  0  0  0  0  0  0
  148.4613  126.8145  149.5730 H   0  0  0  0  0  0  0  0  0  0  0  0
  148.6809  123.8284  152.6448 H   0  0  0  0  0  0  0  0  0  0  0  0
  147.4290  131.0569  150.6577 H   0  0  0  0  0  0  0  0  0  0  0  0
  145.6383  132.0123  152.6742 H   0  0  0  0  0  0  0  0  0  0  0  0
  144.4725  131.4468  149.9001 H   0  0  0  0  0  0  0  0  0  0  0  0
  143.8905  130.7845  151.4106 H   0  0  0  0  0  0  0  0  0  0  0  0
  142.5010  132.7220  150.6370 H   0  0  0  0  0  0  0  0  0  0  0  0
  143.2302  133.0561  152.1955 H   0  0  0  0  0  0  0  0  0  0  0  0
  145.6883  135.2927  150.7862 H   0  0  0  0  0  0  0  0  0  0  0  0
  145.1217  134.5808  152.2843 H   0  0  0  0  0  0  0  0  0  0  0  0
  147.2447  133.4822  151.5644 H   0  0  0  0  0  0  0  0  0  0  0  0
  146.5561  133.1307  149.9946 H   0  0  0  0  0  0  0  0  0  0  0  0
  1  2  2  0  0  0  0
  2  3  1  0  0  0  0
  2 15  1  0  0  0  0
  3  4  1  0  0  0  0
  3 23  1  0  0  0  0
  4 13  1  0  0  0  0
  4  5  2  0  0  0  0
  5  6  1  0  0  0  0
  5 24  1  0  0  0  0
  6  7  1  0  0  0  0
  6 11  2  0  0  0  0
  7  8  1  0  0  0  0
  7  9  1  0  0  0  0
  7 10  1  0  0  0  0
 11 12  1  0  0  0  0
 11 25  1  0  0  0  0
 12 22  1  0  0  0  0
 12 13  1  0  0  0  0
 13 14  2  0  0  0  0
 15 16  1  0  0  0  0
 15 26  1  0  0  0  0
 16 21  1  0  0  0  0
 16 17  1  0  0  0  0
 16 27  1  0  0  0  0
 17 18  1  0  0  0  0
 17 28  1  0  0  0  0
 17 29  1  0  0  0  0
 18 19  1  0  0  0  0
 18 30  1  0  0  0  0
 18 31  1  0  0  0  0
 19 20  1  0  0  0  0
 20 21  1  0  0  0  0
 20 32  1  0  0  0  0
 20 33  1  0  0  0  0
 21 34  1  0  0  0  0
 21 35  1  0  0  0  0
M  END
> <s_m_source_file>
AV-unprocessed.smi

> <i_m_source_file_index>
1524

> <i_lp_mmshare_version>
43012

> <i_f3d_flags>
0

> <s_epik_input>
W0NIMl0xW0NIMl1PW0NIMl1bQ0gyXVtDSF0xW05IXUMoPU8pW05IXWMyW2NIXWMoQyhGKShGKUYpW2NIXVtuSF1jMj1P

> <s_epik_cmdline>
J2VwaWtfcHl0aG9uJywgJy1waCcsICc3LjAnLCAnLXRuJywgJzgnLCAnLW1hJywgJzIwMCcsICctbWV0YWxfYmluZGluZycsICctaW1hZScsICc8aW5maWxlLm1hZT4nLCAnLW9tYWUnLCAnPG91dGZpbGUubWFlPic=

> <r_lp_tautomer_probability>
1

> <r_epik_Ionization_Penalty>
0.00380781

> <r_epik_Ionization_Penalty_Charging>
0.00378827

> <r_epik_Ionization_Penalty_Neutral>
1.95401e-05

> <r_epik_State_Penalty>
-0

> <r_epik_Charging_Adjusted_Penalty>
0.00378827

> <i_epik_Tot_Q>
0

> <i_epik_Tot_abs_Q>
0

> <r_epik_Metal_State_Penalty>
0.371078

> <b_epik_Metal_Only>
0

> <s_lp_Force_Field>
OPLS_2005

> <r_lp_Energy>
30.03

> <b_lp_Chiralities_Consistent>
1

> <s_lp_Variant>
AV-unprocessed.smi:1524-1

> <Gold.Version>
5.8.1

> <Gold.Id.Protein>
6NUR|6NUR_protein|mol2

> <Gold.PLP.Fitness>
41.0635

> <Gold.PLP.PLP>
-38.3101

> <Gold.PLP.part.hbond>
-1.9147

> <Gold.PLP.part.metal>
0.0000

> <Gold.PLP.part.buried>
-5.8460

> <Gold.PLP.part.nonpolar>
-30.8525

> <Gold.PLP.part.repulsive>
0.5909

> <Gold.PLP.ligand.clash>
1.0950

> <Gold.PLP.ligand.torsion>
0.5210

> <Gold.PLP.Chemscore.Hbond>
1.6200

> <Gold.PLP.Chemscore.CHOScore>
0.0000

> <Gold.PLP.Chemscore.Metal>
0.0000

> <Gold.Chemscore.Hbonds>
donor molecule, donor type, donor heavy atom, donor atom, acceptor molecule, acceptor atom, score
      L1  H     3    23       P1 10747  0.66
      L1  H    15    26       P1 10747  0.94

> <Gold.PLP.Chemscore.Internal.Correction>
0.0304

> <Gold.Rescore>
     Score         DG    S(hbond)    S(metal)    S(lipo)     H(rot)  DE(clash)    DE(int)     intcor
     10.30     -15.63       1.45        0.00      67.21       1.00       0.75       4.58       ----

> <Gold.Chemscore.Fitness>
10.3000

> <Gold.Chemscore.DG>
-15.6269

> <Gold.Chemscore.ZeroCoef>
-5.4800

> <Gold.Chemscore.Hbond>
1.4503

> <Gold.Chemscore.Metal>
0.0000

> <Gold.Chemscore.Lipo>
67.2056

> <Gold.Chemscore.Internal_Hbond>
0.0000

> <Gold.Chemscore.DEClash>
0.7483

> <Gold.Chemscore.DEInternal>
4.5787

> <Gold.Chemscore.Rot>
1.0000

> <Gold.Chemscore.Internal.Correction>
   9.000000E+99

> <Gold.Chemscore.Hbonds>
donor molecule, donor type, donor heavy atom, donor atom, acceptor molecule, acceptor atom, score
      L1  H     3    23       P1 10747  0.08
      L1  H    15    26       P1 10747  0.90

> <Gold.Chemscore.Hbond.Weighted>
-4.8439

> <Gold.Chemscore.Metal.Weighted>
-0.0000

> <Gold.Chemscore.Lipo.Weighted>
-7.8631

> <Gold.Chemscore.Internal_Hbond.Weighted>
0.0000

> <Gold.Chemscore.DEClash.Weighted>
0.7483

> <Gold.Chemscore.DEInternal.Weighted>
4.5787

> <Gold.Chemscore.Rot.Weighted>
2.5600

> <Gold.Chemscore.Internal.Correction.Weighted>
   9.000000E+99

> <Gold.Protein.RotatedTorsions>
[ 6907 6896 6895 6894 ] final  148.95 input  -60.11 | X-H torsion
[ 7974 7965 7964 7962 ] final  101.10 input  175.53 | X-H torsion
[ 8008 7997 7996 7995 ] final  -14.99 input   59.86 | X-H torsion
[ 10167 10162 10161 10158 ] final -128.68 input  -65.29 | X-H torsion
[ 10718 10713 10712 10709 ] final   71.39 input   66.30 | X-H torsion
[ 10763 10752 10751 10750 ] final   42.19 input  -60.55 | X-H torsion
[ 11005 11000 10999 10996 ] final  -75.18 input  -57.11 | X-H torsion

> <Gold.Protein.ActiveResidues>
 VAL166  LYS551  ARG553  GLY616  TRP617  ASP618  TYR619  PRO620  LYS621  CYS622 
 ASP623  PHE694  ASN695  SER759  ASP760  ASP761  ALA762  ILE779  LEU786  VAL792 
 PHE793  MET794  SER795  GLU796  ALA797  LYS798  CYS799  TRP800  GLU811  SER814 

> <Gold.Protein.RotatedAtoms>
  152.1346  133.4428  159.4737 H   0  0  0  0  0  0  0  0  0  0  0  0  # atno 6907 bound_to 6896
  150.6881  134.2379  159.4470 H   0  0  0  0  0  0  0  0  0  0  0  0  # atno 6908 bound_to 6896
  152.0265  134.9792  160.0622 H   0  0  0  0  0  0  0  0  0  0  0  0  # atno 6909 bound_to 6896
  145.3768  139.2387  143.3425 H   0  0  0  0  0  0  0  0  0  0  0  0  # atno 7974 bound_to 7965
  154.5165  140.2208  155.9055 H   0  0  0  0  0  0  0  0  0  0  0  0  # atno 8008 bound_to 7997
  156.1614  140.3141  155.8779 H   0  0  0  0  0  0  0  0  0  0  0  0  # atno 8009 bound_to 7997
  155.3744  140.0468  157.3035 H   0  0  0  0  0  0  0  0  0  0  0  0  # atno 8010 bound_to 7997
  139.9478  143.6090  152.2484 H   0  0  0  0  0  0  0  0  0  0  0  0  # atno 10167 bound_to 10162
  157.6449  130.9526  150.0783 H   0  0  0  0  0  0  0  0  0  0  0  0  # atno 10718 bound_to 10713
  152.9889  135.6139  154.2909 H   0  0  0  0  0  0  0  0  0  0  0  0  # atno 10763 bound_to 10752
  154.2634  135.2781  155.2770 H   0  0  0  0  0  0  0  0  0  0  0  0  # atno 10764 bound_to 10752
  154.5185  135.5821  153.6719 H   0  0  0  0  0  0  0  0  0  0  0  0  # atno 10765 bound_to 10752
  141.1643  133.6937  156.7478 H   0  0  0  0  0  0  0  0  0  0  0  0  # atno 11005 bound_to 11000
  146.2860  140.4429  142.8758 LP  0  0  0  0  0  0  0  0  0  0  0  0  # atno 17320 bound_to 7965
  144.8536  140.7037  143.6152 LP  0  0  0  0  0  0  0  0  0  0  0  0  # atno 17321 bound_to 7965
  139.6653  144.7662  151.1886 LP  0  0  0  0  0  0  0  0  0  0  0  0  # atno 17342 bound_to 10162
  140.7592  143.5948  150.8759 LP  0  0  0  0  0  0  0  0  0  0  0  0  # atno 17343 bound_to 10162
  156.1767  130.3648  149.9091 LP  0  0  0  0  0  0  0  0  0  0  0  0  # atno 17370 bound_to 10713
  156.7054  130.8949  151.3604 LP  0  0  0  0  0  0  0  0  0  0  0  0  # atno 17371 bound_to 10713
  140.2627  134.8454  157.3773 LP  0  0  0  0  0  0  0  0  0  0  0  0  # atno 17394 bound_to 11000
  140.1596  134.4745  155.7904 LP  0  0  0  0  0  0  0  0  0  0  0  0  # atno 17395 bound_to 11000

$$$$
