AV-unprocessed.smi:1513|AV-procd|sdf|6111|dock8
  -GOLD-   22720 6243D 1   1.00000     0.00000
 Structure written by MMmdl.
 33 34  0  0  0  0  0  0  0  0  2 V2000
  154.3581  138.2365  158.1031 N   0  5  0  0  0  0  0  0  0  0  0  0
  153.6620  137.8985  159.5175 S   0  0  0  0  0  0  0  0  0  0  0  0
  152.5238  136.9722  159.4168 O   0  0  0  0  0  0  0  0  0  0  0  0
  154.6259  137.7010  160.6110 O   0  0  0  0  0  0  0  0  0  0  0  0
  152.9776  139.4579  159.7612 N   0  0  0  0  0  0  0  0  0  0  0  0
  151.9631  139.9702  158.8418 C   0  0  0  0  0  0  0  0  0  0  0  0
  152.0002  141.4854  158.7111 C   0  0  0  0  0  0  0  0  0  0  0  0
  152.9249  142.2324  159.4704 C   0  0  0  0  0  0  0  0  0  0  0  0
  152.9539  143.6322  159.3308 C   0  0  0  0  0  0  0  0  0  0  0  0
  152.0523  144.2323  158.4322 C   0  0  0  0  0  0  0  0  0  0  0  0
  151.1614  143.5321  157.6997 N   0  0  0  0  0  0  0  0  0  0  0  0
  151.1307  142.1838  157.8338 C   0  0  0  0  0  0  0  0  0  0  0  0
  150.1844  141.4803  157.0723 N   0  0  0  0  0  0  0  0  0  0  0  0
  148.8042  141.7769  157.4334 C   0  0  0  0  0  0  0  0  0  0  0  0
  147.8505  140.8355  156.6776 C   0  0  0  0  0  0  0  0  0  0  0  0
  148.0884  140.9380  155.2756 O   0  0  0  0  0  0  0  0  0  0  0  0
  149.4215  140.5706  154.9308 C   0  0  0  0  0  0  0  0  0  0  0  0
  150.4133  141.5128  155.6346 C   0  0  0  0  0  0  0  0  0  0  0  0
  153.8994  137.6726  157.3777 H   0  0  0  0  0  0  0  0  0  0  0  0
  152.8418  139.7016  160.7416 H   0  0  0  0  0  0  0  0  0  0  0  0
  152.0996  139.4963  157.8694 H   0  0  0  0  0  0  0  0  0  0  0  0
  150.9728  139.6778  159.1916 H   0  0  0  0  0  0  0  0  0  0  0  0
  153.6051  141.7420  160.1512 H   0  0  0  0  0  0  0  0  0  0  0  0
  153.6507  144.2307  159.8986 H   0  0  0  0  0  0  0  0  0  0  0  0
  152.0456  145.3038  158.2978 H   0  0  0  0  0  0  0  0  0  0  0  0
  148.6681  141.6626  158.5094 H   0  0  0  0  0  0  0  0  0  0  0  0
  148.5751  142.8144  157.1861 H   0  0  0  0  0  0  0  0  0  0  0  0
  147.9814  139.8035  157.0053 H   0  0  0  0  0  0  0  0  0  0  0  0
  146.8149  141.1050  156.8842 H   0  0  0  0  0  0  0  0  0  0  0  0
  149.6075  139.5318  155.2094 H   0  0  0  0  0  0  0  0  0  0  0  0
  149.5414  140.6378  153.8496 H   0  0  0  0  0  0  0  0  0  0  0  0
  150.2873  142.5305  155.2626 H   0  0  0  0  0  0  0  0  0  0  0  0
  151.4384  141.2108  155.4168 H   0  0  0  0  0  0  0  0  0  0  0  0
  1  2  1  0  0  0  0
  1 19  1  0  0  0  0
  2  3  2  0  0  0  0
  2  4  2  0  0  0  0
  2  5  1  0  0  0  0
  5  6  1  0  0  0  0
  5 20  1  0  0  0  0
  6  7  1  0  0  0  0
  6 21  1  0  0  0  0
  6 22  1  0  0  0  0
  7 12  1  0  0  0  0
  7  8  2  0  0  0  0
  8  9  1  0  0  0  0
  8 23  1  0  0  0  0
  9 10  2  0  0  0  0
  9 24  1  0  0  0  0
 10 11  1  0  0  0  0
 10 25  1  0  0  0  0
 11 12  2  0  0  0  0
 12 13  1  0  0  0  0
 13 18  1  0  0  0  0
 13 14  1  0  0  0  0
 14 15  1  0  0  0  0
 14 26  1  0  0  0  0
 14 27  1  0  0  0  0
 15 16  1  0  0  0  0
 15 28  1  0  0  0  0
 15 29  1  0  0  0  0
 16 17  1  0  0  0  0
 17 18  1  0  0  0  0
 17 30  1  0  0  0  0
 17 31  1  0  0  0  0
 18 32  1  0  0  0  0
 18 33  1  0  0  0  0
M  CHG  1   1  -1
M  END
> <s_m_source_file>
AV-unprocessed.smi

> <i_m_source_file_index>
1513

> <i_lp_mmshare_version>
43012

> <i_f3d_flags>
0

> <s_epik_input>
W05IMl1TKD1PKSg9TylbTkhdW0NIMl1jMVtjSF1bY0hdW2NIXW5jMU4yW0NIMl1bQ0gyXU9bQ0gyXVtDSDJdMg==

> <s_epik_cmdline>
J2VwaWtfcHl0aG9uJywgJy1waCcsICc3LjAnLCAnLXRuJywgJzgnLCAnLW1hJywgJzIwMCcsICctbWV0YWxfYmluZGluZycsICctaW1hZScsICc8aW5maWxlLm1hZT4nLCAnLW9tYWUnLCAnPG91dGZpbGUubWFlPic=

> <r_lp_tautomer_probability>
1

> <r_epik_Ionization_Penalty>
2.76303

> <r_epik_Ionization_Penalty_Charging>
2.75358

> <r_epik_Ionization_Penalty_Neutral>
0.00945191

> <r_epik_State_Penalty>
2.93489

> <r_epik_Charging_Adjusted_Penalty>
5.68847

> <i_epik_Tot_Q>
-1

> <i_epik_Tot_abs_Q>
1

> <r_epik_Metal_State_Penalty>
0.838637

> <b_epik_Metal_Only>
1

> <s_lp_Force_Field>
OPLS_2005

> <r_lp_Energy>
17.6636

> <b_lp_Chiralities_Consistent>
1

> <s_lp_Variant>
AV-unprocessed.smi:1513-4

> <Gold.Version>
5.8.1

> <Gold.Id.Protein>
6NUR|6NUR_protein|mol2

> <Gold.PLP.Fitness>
37.7922

> <Gold.PLP.PLP>
-29.4408

> <Gold.PLP.part.hbond>
-2.0000

> <Gold.PLP.part.metal>
0.0000

> <Gold.PLP.part.buried>
-5.1872

> <Gold.PLP.part.nonpolar>
-23.2343

> <Gold.PLP.part.repulsive>
0.2900

> <Gold.PLP.ligand.clash>
0.0000

> <Gold.PLP.ligand.torsion>
0.3006

> <Gold.PLP.Chemscore.Hbond>
2.9265

> <Gold.PLP.Chemscore.CHOScore>
0.0000

> <Gold.PLP.Chemscore.Metal>
0.0000

> <Gold.Chemscore.Hbonds>
donor molecule, donor type, donor heavy atom, donor atom, acceptor molecule, acceptor atom, score
      P1  H  6896  6907       L1     3  0.94
      P1  H  7997  8010       L1     1  1.98

> <Gold.PLP.Chemscore.Internal.Correction>
0.1732

> <Gold.Rescore>
     Score         DG    S(hbond)    S(metal)    S(lipo)     H(rot)  DE(clash)    DE(int)     intcor
     12.59     -12.98       1.70        0.00      69.10       2.45       0.05       0.35       ----

> <Gold.Chemscore.Fitness>
12.5866

> <Gold.Chemscore.DG>
-12.9844

> <Gold.Chemscore.ZeroCoef>
-5.4800

> <Gold.Chemscore.Hbond>
1.7018

> <Gold.Chemscore.Metal>
0.0000

> <Gold.Chemscore.Lipo>
69.0999

> <Gold.Chemscore.Internal_Hbond>
0.0000

> <Gold.Chemscore.DEClash>
0.0515

> <Gold.Chemscore.DEInternal>
0.3463

> <Gold.Chemscore.Rot>
2.4470

> <Gold.Chemscore.Internal.Correction>
   9.000000E+99

> <Gold.Chemscore.Hbonds>
donor molecule, donor type, donor heavy atom, donor atom, acceptor molecule, acceptor atom, score
      P1  H  6896  6907       L1     3  0.89
      P1  H  7997  8010       L1     1  0.48

> <Gold.Chemscore.Hbond.Weighted>
-5.6840

> <Gold.Chemscore.Metal.Weighted>
-0.0000

> <Gold.Chemscore.Lipo.Weighted>
-8.0847

> <Gold.Chemscore.Internal_Hbond.Weighted>
0.0000

> <Gold.Chemscore.DEClash.Weighted>
0.0515

> <Gold.Chemscore.DEInternal.Weighted>
0.3463

> <Gold.Chemscore.Rot.Weighted>
6.2642

> <Gold.Chemscore.Internal.Correction.Weighted>
   9.000000E+99

> <Gold.Protein.RotatedTorsions>
[ 6907 6896 6895 6894 ] final   16.67 input  -60.11 | X-H torsion
[ 7974 7965 7964 7962 ] final   92.24 input  175.53 | X-H torsion
[ 8008 7997 7996 7995 ] final   15.45 input   59.86 | X-H torsion
[ 10167 10162 10161 10158 ] final   80.57 input  -65.29 | X-H torsion
[ 10718 10713 10712 10709 ] final  138.48 input   66.30 | X-H torsion
[ 10763 10752 10751 10750 ] final  -41.13 input  -60.55 | X-H torsion
[ 11005 11000 10999 10996 ] final -162.59 input  -57.11 | X-H torsion

> <Gold.Protein.ActiveResidues>
 VAL166  LYS551  ARG553  GLY616  TRP617  ASP618  TYR619  PRO620  LYS621  CYS622 
 ASP623  PHE694  ASN695  SER759  ASP760  ASP761  ALA762  ILE779  LEU786  VAL792 
 PHE793  MET794  SER795  GLU796  ALA797  LYS798  CYS799  TRP800  GLU811  SER814 

> <Gold.Protein.RotatedAtoms>
  151.8376  135.0601  160.0444 H   0  0  0  0  0  0  0  0  0  0  0  0  # atno 6907 bound_to 6896
  152.2833  133.5487  159.5520 H   0  0  0  0  0  0  0  0  0  0  0  0  # atno 6908 bound_to 6896
  150.7198  134.0449  159.3820 H   0  0  0  0  0  0  0  0  0  0  0  0  # atno 6909 bound_to 6896
  145.4949  139.2276  143.2809 H   0  0  0  0  0  0  0  0  0  0  0  0  # atno 7974 bound_to 7965
  154.8628  140.2947  155.5529 H   0  0  0  0  0  0  0  0  0  0  0  0  # atno 8008 bound_to 7997
  156.3020  140.2475  156.3537 H   0  0  0  0  0  0  0  0  0  0  0  0  # atno 8009 bound_to 7997
  154.8900  140.0395  157.1822 H   0  0  0  0  0  0  0  0  0  0  0  0  # atno 8010 bound_to 7997
  139.9484  144.6043  150.8185 H   0  0  0  0  0  0  0  0  0  0  0  0  # atno 10167 bound_to 10162
  157.4249  131.1042  151.0313 H   0  0  0  0  0  0  0  0  0  0  0  0  # atno 10718 bound_to 10713
  153.9574  135.6743  153.4744 H   0  0  0  0  0  0  0  0  0  0  0  0  # atno 10763 bound_to 10752
  153.0854  135.4901  154.8584 H   0  0  0  0  0  0  0  0  0  0  0  0  # atno 10764 bound_to 10752
  154.7291  135.3134  154.8880 H   0  0  0  0  0  0  0  0  0  0  0  0  # atno 10765 bound_to 10752
  140.6076  134.4883  157.5212 H   0  0  0  0  0  0  0  0  0  0  0  0  # atno 11005 bound_to 11000
  146.2261  140.5746  142.8995 LP  0  0  0  0  0  0  0  0  0  0  0  0  # atno 17320 bound_to 7965
  144.7813  140.5845  143.6604 LP  0  0  0  0  0  0  0  0  0  0  0  0  # atno 17321 bound_to 7965
  140.7590  143.3120  151.2822 LP  0  0  0  0  0  0  0  0  0  0  0  0  # atno 17342 bound_to 10162
  139.6648  144.0124  152.2716 LP  0  0  0  0  0  0  0  0  0  0  0  0  # atno 17343 bound_to 10162
  157.1231  130.6070  149.5510 LP  0  0  0  0  0  0  0  0  0  0  0  0  # atno 17370 bound_to 10713
  155.9893  130.4940  150.7208 LP  0  0  0  0  0  0  0  0  0  0  0  0  # atno 17371 bound_to 10713
  139.9206  134.8157  156.1225 LP  0  0  0  0  0  0  0  0  0  0  0  0  # atno 17394 bound_to 11000
  141.0830  133.6746  156.2376 LP  0  0  0  0  0  0  0  0  0  0  0  0  # atno 17395 bound_to 11000

$$$$
