AV-unprocessed.smi:1111|AV-procd|sdf|4794|dock8
  -GOLD-   22720 3343D 1   1.00000     0.00000
 Structure written by MMmdl.
 33 34  0  0  0  0  0  0  0  0  2 V2000
  150.9203  137.3071  158.4811 C   0  0  0  0  0  0  0  0  0  0  0  0
  151.2237  138.3083  157.3462 C   0  0  1  0  0  0  0  0  0  0  0  0
  152.0258  139.4318  157.8501 N   0  0  0  0  0  0  0  0  0  0  0  0
  151.6518  140.4128  158.6905 C   0  0  0  0  0  0  0  0  0  0  0  0
  150.5332  140.5002  159.1948 O   0  0  0  0  0  0  0  0  0  0  0  0
  152.7127  141.4630  159.0190 C   0  0  0  0  0  0  0  0  0  0  0  0
  152.2886  142.7978  158.5871 N   0  0  0  0  0  0  0  0  0  0  0  0
  152.8396  144.0022  158.9443 C   0  0  0  0  0  0  0  0  0  0  0  0
  152.1134  144.9706  158.3002 C   0  0  0  0  0  0  0  0  0  0  0  0
  151.1493  144.3176  157.5796 N   0  3  0  0  0  0  0  0  0  0  0  0
  151.2568  142.9967  157.7558 C   0  0  0  0  0  0  0  0  0  0  0  0
  152.0534  137.6139  156.2395 C   0  0  0  0  0  0  0  0  0  0  0  0
  152.0239  138.4604  154.9605 C   0  0  0  0  0  0  0  0  0  0  0  0
  150.3929  139.2898  154.9523 S   0  0  0  0  0  0  0  0  0  0  0  0
  150.6010  140.7446  154.8926 O   0  0  0  0  0  0  0  0  0  0  0  0
  149.4972  138.6118  154.0032 O   0  0  0  0  0  0  0  0  0  0  0  0
  149.9316  138.8103  156.6609 C   0  0  0  0  0  0  0  0  0  0  0  0
  150.4098  136.4218  158.1004 H   0  0  0  0  0  0  0  0  0  0  0  0
  150.2757  137.7386  159.2467 H   0  0  0  0  0  0  0  0  0  0  0  0
  151.8363  136.9714  158.9680 H   0  0  0  0  0  0  0  0  0  0  0  0
  152.9730  139.4735  157.5029 H   0  0  0  0  0  0  0  0  0  0  0  0
  152.9098  141.4929  160.0919 H   0  0  0  0  0  0  0  0  0  0  0  0
  153.6527  141.2185  158.5218 H   0  0  0  0  0  0  0  0  0  0  0  0
  153.6856  144.0787  159.6121 H   0  0  0  0  0  0  0  0  0  0  0  0
  152.2077  146.0468  158.3008 H   0  0  0  0  0  0  0  0  0  0  0  0
  150.6320  142.2397  157.3157 H   0  0  0  0  0  0  0  0  0  0  0  0
  153.0766  137.4084  156.5574 H   0  0  0  0  0  0  0  0  0  0  0  0
  151.6029  136.6466  156.0115 H   0  0  0  0  0  0  0  0  0  0  0  0
  152.7947  139.2309  154.9827 H   0  0  0  0  0  0  0  0  0  0  0  0
  152.1502  137.8674  154.0547 H   0  0  0  0  0  0  0  0  0  0  0  0
  149.2041  138.0021  156.5798 H   0  0  0  0  0  0  0  0  0  0  0  0
  149.4405  139.6434  157.1630 H   0  0  0  0  0  0  0  0  0  0  0  0
  150.4539  144.7670  156.9968 H   0  0  0  0  0  0  0  0  0  0  0  0
  1  2  1  0  0  0  0
  1 18  1  0  0  0  0
  1 19  1  0  0  0  0
  1 20  1  0  0  0  0
  2 17  1  0  0  0  0
  2  3  1  0  0  0  0
  2 12  1  0  0  0  0
  3  4  1  0  0  0  0
  3 21  1  0  0  0  0
  4  5  2  0  0  0  0
  4  6  1  0  0  0  0
  6  7  1  0  0  0  0
  6 22  1  0  0  0  0
  6 23  1  0  0  0  0
  7 11  1  0  0  0  0
  7  8  1  0  0  0  0
  8  9  2  0  0  0  0
  8 24  1  0  0  0  0
  9 10  1  0  0  0  0
  9 25  1  0  0  0  0
 10 11  2  0  0  0  0
 10 33  1  0  0  0  0
 11 26  1  0  0  0  0
 12 13  1  0  0  0  0
 12 27  1  0  0  0  0
 12 28  1  0  0  0  0
 13 14  1  0  0  0  0
 13 29  1  0  0  0  0
 13 30  1  0  0  0  0
 14 15  2  0  0  0  0
 14 16  2  0  0  0  0
 14 17  1  0  0  0  0
 17 31  1  0  0  0  0
 17 32  1  0  0  0  0
M  CHG  1  10   1
M  END
> <s_m_source_file>
AV-unprocessed.smi

> <i_m_source_file_index>
1111

> <i_lp_mmshare_version>
43012

> <i_f3d_flags>
0

> <s_epik_input>
Tz1TKD1PKShbQ0gyXTEpW0NIMl1bQ0gyXVtDQEBdMShbQ0gzXSlbTkhdQyg9TylbQ0gyXW4yW2NIXVtjSF1uW2NIXTI=

> <s_epik_cmdline>
J2VwaWtfcHl0aG9uJywgJy1waCcsICc3LjAnLCAnLXRuJywgJzgnLCAnLW1hJywgJzIwMCcsICctbWV0YWxfYmluZGluZycsICctaW1hZScsICc8aW5maWxlLm1hZT4nLCAnLW9tYWUnLCAnPG91dGZpbGUubWFlPic=

> <r_lp_tautomer_probability>
1

> <r_epik_Ionization_Penalty>
0.638881

> <r_epik_Ionization_Penalty_Charging>
0

> <r_epik_Ionization_Penalty_Neutral>
0.638881

> <r_epik_State_Penalty>
0.656385

> <r_epik_Charging_Adjusted_Penalty>
0.656385

> <i_epik_Tot_Q>
1

> <i_epik_Tot_abs_Q>
1

> <r_epik_Metal_State_Penalty>
0.832701

> <b_epik_Metal_Only>
0

> <s_lp_Force_Field>
OPLS_2005

> <r_lp_Energy>
7.94824

> <b_lp_Chiralities_Consistent>
1

> <s_lp_Variant>
AV-unprocessed.smi:1111-3

> <Gold.Version>
5.8.1

> <Gold.Id.Protein>
6NUR|6NUR_protein|mol2

> <Gold.PLP.Fitness>
36.6691

> <Gold.PLP.PLP>
-28.5341

> <Gold.PLP.part.hbond>
-3.2737

> <Gold.PLP.part.metal>
0.0000

> <Gold.PLP.part.buried>
-2.8782

> <Gold.PLP.part.nonpolar>
-23.1835

> <Gold.PLP.part.repulsive>
0.4472

> <Gold.PLP.ligand.clash>
0.0000

> <Gold.PLP.ligand.torsion>
0.2609

> <Gold.PLP.Chemscore.Hbond>
2.8800

> <Gold.PLP.Chemscore.CHOScore>
0.0000

> <Gold.PLP.Chemscore.Metal>
0.0000

> <Gold.Chemscore.Hbonds>
donor molecule, donor type, donor heavy atom, donor atom, acceptor molecule, acceptor atom, score
      L1  H    10    33       P1  8028  2.00
      P1  H  7989  7998       L1    15  0.88

> <Gold.PLP.Chemscore.Internal.Correction>
0.0169

> <Gold.Rescore>
     Score         DG    S(hbond)    S(metal)    S(lipo)     H(rot)  DE(clash)    DE(int)     intcor
     12.12     -14.66       1.98        0.00      60.70       1.78       1.21       1.32       ----

> <Gold.Chemscore.Fitness>
12.1244

> <Gold.Chemscore.DG>
-14.6566

> <Gold.Chemscore.ZeroCoef>
-5.4800

> <Gold.Chemscore.Hbond>
1.9845

> <Gold.Chemscore.Metal>
0.0000

> <Gold.Chemscore.Lipo>
60.7018

> <Gold.Chemscore.Internal_Hbond>
0.0000

> <Gold.Chemscore.DEClash>
1.2092

> <Gold.Chemscore.DEInternal>
1.3230

> <Gold.Chemscore.Rot>
1.7787

> <Gold.Chemscore.Internal.Correction>
   9.000000E+99

> <Gold.Chemscore.Hbonds>
donor molecule, donor type, donor heavy atom, donor atom, acceptor molecule, acceptor atom, score
      L1  H    10    33       P1  8028  0.56
      P1  H  7989  7998       L1    15  0.30

> <Gold.Chemscore.Hbond.Weighted>
-6.6281

> <Gold.Chemscore.Metal.Weighted>
-0.0000

> <Gold.Chemscore.Lipo.Weighted>
-7.1021

> <Gold.Chemscore.Internal_Hbond.Weighted>
0.0000

> <Gold.Chemscore.DEClash.Weighted>
1.2092

> <Gold.Chemscore.DEInternal.Weighted>
1.3230

> <Gold.Chemscore.Rot.Weighted>
4.5536

> <Gold.Chemscore.Internal.Correction.Weighted>
   9.000000E+99

> <Gold.Protein.RotatedTorsions>
[ 6907 6896 6895 6894 ] final   85.37 input  -60.11 | X-H torsion
[ 7974 7965 7964 7962 ] final  -53.40 input  175.53 | X-H torsion
[ 8008 7997 7996 7995 ] final   90.62 input   59.86 | X-H torsion
[ 10167 10162 10161 10158 ] final -145.42 input  -65.29 | X-H torsion
[ 10718 10713 10712 10709 ] final  -20.90 input   66.30 | X-H torsion
[ 10763 10752 10751 10750 ] final -166.40 input  -60.55 | X-H torsion
[ 11005 11000 10999 10996 ] final  133.49 input  -57.11 | X-H torsion

> <Gold.Protein.ActiveResidues>
 VAL166  LYS551  ARG553  GLY616  TRP617  ASP618  TYR619  PRO620  LYS621  CYS622 
 ASP623  PHE694  ASN695  SER759  ASP760  ASP761  ALA762  ILE779  LEU786  VAL792 
 PHE793  MET794  SER795  GLU796  ALA797  LYS798  CYS799  TRP800  GLU811  SER814 

> <Gold.Protein.RotatedAtoms>
  152.5373  134.2597  159.8930 H   0  0  0  0  0  0  0  0  0  0  0  0  # atno 6907 bound_to 6896
  151.2557  133.4321  159.2621 H   0  0  0  0  0  0  0  0  0  0  0  0  # atno 6908 bound_to 6896
  151.0498  134.9680  159.8262 H   0  0  0  0  0  0  0  0  0  0  0  0  # atno 6909 bound_to 6896
  145.8972  140.8023  142.9761 H   0  0  0  0  0  0  0  0  0  0  0  0  # atno 7974 bound_to 7965
  156.0141  140.3347  155.6971 H   0  0  0  0  0  0  0  0  0  0  0  0  # atno 8008 bound_to 7997
  155.6115  140.0666  157.2722 H   0  0  0  0  0  0  0  0  0  0  0  0  # atno 8009 bound_to 7997
  154.4292  140.1792  156.1265 H   0  0  0  0  0  0  0  0  0  0  0  0  # atno 8010 bound_to 7997
  139.7808  143.8104  152.2638 H   0  0  0  0  0  0  0  0  0  0  0  0  # atno 10167 bound_to 10162
  156.5255  130.4642  149.6574 H   0  0  0  0  0  0  0  0  0  0  0  0  # atno 10718 bound_to 10713
  154.6837  135.2959  154.9577 H   0  0  0  0  0  0  0  0  0  0  0  0  # atno 10763 bound_to 10752
  154.0563  135.6637  153.4810 H   0  0  0  0  0  0  0  0  0  0  0  0  # atno 10764 bound_to 10752
  153.0564  135.5142  154.7893 H   0  0  0  0  0  0  0  0  0  0  0  0  # atno 10765 bound_to 10752
  139.9855  134.9533  156.9732 H   0  0  0  0  0  0  0  0  0  0  0  0  # atno 11005 bound_to 11000
  144.6733  140.1621  143.7421 LP  0  0  0  0  0  0  0  0  0  0  0  0  # atno 17320 bound_to 7965
  145.8835  139.2336  143.1591 LP  0  0  0  0  0  0  0  0  0  0  0  0  # atno 17321 bound_to 7965
  139.8166  144.7313  150.9627 LP  0  0  0  0  0  0  0  0  0  0  0  0  # atno 17342 bound_to 10162
  140.7818  143.4199  151.0858 LP  0  0  0  0  0  0  0  0  0  0  0  0  # atno 17343 bound_to 10162
  156.3109  130.7228  151.2121 LP  0  0  0  0  0  0  0  0  0  0  0  0  # atno 17370 bound_to 10713
  157.7430  131.0481  150.4980 LP  0  0  0  0  0  0  0  0  0  0  0  0  # atno 17371 bound_to 10713
  140.5011  134.1096  155.7251 LP  0  0  0  0  0  0  0  0  0  0  0  0  # atno 17394 bound_to 11000
  141.1521  133.8950  157.2072 LP  0  0  0  0  0  0  0  0  0  0  0  0  # atno 17395 bound_to 11000

$$$$
