AV-unprocessed.smi:208|AV-procd|sdf|1605|dock4
  -GOLD-   2262019523D 1   1.00000     0.00000
 Structure written by MMmdl.
 50 53  0  0  0  0  0  0  0  0  1 V2000
  151.1238  139.7826  155.6523 C   0  0  0  0  0  0  0  0  0  0  0  0
  151.8145  140.9083  156.4398 C   0  0  0  0  0  0  0  0  0  0  0  0
  151.2215  141.2331  157.8331 C   0  0  2  0  0  0  0  0  0  0  0  0
  149.6889  141.4509  157.7982 C   0  0  0  0  0  0  0  0  0  0  0  0
  148.9856  140.5698  157.3016 O   0  0  0  0  0  0  0  0  0  0  0  0
  149.1620  142.5852  158.3195 N   0  0  0  0  0  0  0  0  0  0  0  0
  147.7152  142.8048  158.3276 C   0  0  0  0  0  0  0  0  0  0  0  0
  149.9636  143.6541  158.9278 C   0  0  0  0  0  0  0  0  0  0  0  0
  151.4092  143.6703  158.4150 C   0  0  0  0  0  0  0  0  0  0  0  0
  151.9740  142.3273  158.4621 N   0  0  0  0  0  0  0  0  0  0  0  0
  152.6574  142.0514  159.5970 C   0  0  0  0  0  0  0  0  0  0  0  0
  152.5056  142.9104  160.6350 N   0  0  0  0  0  0  0  0  0  0  0  0
  153.1455  142.6867  161.7868 C   0  0  0  0  0  0  0  0  0  0  0  0
  153.9625  141.6809  162.1065 N   0  0  0  0  0  0  0  0  0  0  0  0
  154.1087  140.8090  161.0681 C   0  0  0  0  0  0  0  0  0  0  0  0
  153.4932  140.9144  159.7890 C   0  0  0  0  0  0  0  0  0  0  0  0
  153.8579  139.8317  158.9977 N   0  0  0  0  0  0  0  0  0  0  0  0
  154.6483  139.1302  159.7624 C   0  0  0  0  0  0  0  0  0  0  0  0
  154.8647  139.6503  161.0190 N   0  0  0  0  0  0  0  0  0  0  0  0
  155.6984  139.0740  162.0632 C   0  0  0  0  0  0  0  0  0  0  0  0
  155.3191  137.6288  162.4494 C   0  0  0  0  0  0  0  0  0  0  0  0
  155.8960  136.6210  161.4392 C   0  0  0  0  0  0  0  0  0  0  0  0
  155.5691  135.2912  161.7897 O   0  0  0  0  0  0  0  0  0  0  0  0
  155.5416  137.2443  163.9194 C   0  0  0  0  0  0  0  0  0  0  0  0
  154.2006  136.7259  164.0429 O   0  0  0  0  0  0  0  0  0  0  0  0
  153.8463  137.3994  162.8166 C   0  0  0  0  0  0  0  0  0  0  0  0
  151.6698  139.5715  154.7328 H   0  0  0  0  0  0  0  0  0  0  0  0
  150.1103  140.0601  155.3651 H   0  0  0  0  0  0  0  0  0  0  0  0
  151.0761  138.8556  156.2238 H   0  0  0  0  0  0  0  0  0  0  0  0
  152.8664  140.6445  156.5580 H   0  0  0  0  0  0  0  0  0  0  0  0
  151.8134  141.8141  155.8322 H   0  0  0  0  0  0  0  0  0  0  0  0
  151.3614  140.3249  158.4215 H   0  0  0  0  0  0  0  0  0  0  0  0
  147.3521  142.9740  157.3131 H   0  0  0  0  0  0  0  0  0  0  0  0
  147.4353  143.6686  158.9317 H   0  0  0  0  0  0  0  0  0  0  0  0
  147.1903  141.9418  158.7401 H   0  0  0  0  0  0  0  0  0  0  0  0
  149.5085  144.6271  158.7385 H   0  0  0  0  0  0  0  0  0  0  0  0
  149.9551  143.5107  160.0088 H   0  0  0  0  0  0  0  0  0  0  0  0
  151.4277  144.0308  157.3875 H   0  0  0  0  0  0  0  0  0  0  0  0
  152.0060  144.3782  158.9929 H   0  0  0  0  0  0  0  0  0  0  0  0
  152.9785  143.4183  162.5635 H   0  0  0  0  0  0  0  0  0  0  0  0
  155.1049  138.2105  159.4260 H   0  0  0  0  0  0  0  0  0  0  0  0
  156.7342  139.1202  161.7253 H   0  0  0  0  0  0  0  0  0  0  0  0
  155.6494  139.7268  162.9355 H   0  0  0  0  0  0  0  0  0  0  0  0
  155.5482  136.8206  160.4256 H   0  0  0  0  0  0  0  0  0  0  0  0
  156.9834  136.6963  161.4027 H   0  0  0  0  0  0  0  0  0  0  0  0
  156.0556  135.0568  162.5654 H   0  0  0  0  0  0  0  0  0  0  0  0
  156.3061  136.4816  164.0704 H   0  0  0  0  0  0  0  0  0  0  0  0
  155.7009  138.0928  164.5857 H   0  0  0  0  0  0  0  0  0  0  0  0
  153.2879  138.3178  163.0062 H   0  0  0  0  0  0  0  0  0  0  0  0
  153.3079  136.7533  162.1222 H   0  0  0  0  0  0  0  0  0  0  0  0
  1  2  1  0  0  0  0
  1 27  1  0  0  0  0
  1 28  1  0  0  0  0
  1 29  1  0  0  0  0
  2  3  1  0  0  0  0
  2 30  1  0  0  0  0
  2 31  1  0  0  0  0
  3 10  1  0  0  0  0
  3  4  1  0  0  0  0
  3 32  1  0  0  0  0
  4  5  2  0  0  0  0
  4  6  1  0  0  0  0
  6  7  1  0  0  0  0
  6  8  1  0  0  0  0
  7 33  1  0  0  0  0
  7 34  1  0  0  0  0
  7 35  1  0  0  0  0
  8  9  1  0  0  0  0
  8 36  1  0  0  0  0
  8 37  1  0  0  0  0
  9 10  1  0  0  0  0
  9 38  1  0  0  0  0
  9 39  1  0  0  0  0
 10 11  1  0  0  0  0
 11 16  1  0  0  0  0
 11 12  2  0  0  0  0
 12 13  1  0  0  0  0
 13 14  2  0  0  0  0
 13 40  1  0  0  0  0
 14 15  1  0  0  0  0
 15 19  1  0  0  0  0
 15 16  2  0  0  0  0
 16 17  1  0  0  0  0
 17 18  2  0  0  0  0
 18 19  1  0  0  0  0
 18 41  1  0  0  0  0
 19 20  1  0  0  0  0
 20 21  1  0  0  0  0
 20 42  1  0  0  0  0
 20 43  1  0  0  0  0
 21 26  1  0  0  0  0
 21 22  1  0  0  0  0
 21 24  1  0  0  0  0
 22 23  1  0  0  0  0
 22 44  1  0  0  0  0
 22 45  1  0  0  0  0
 23 46  1  0  0  0  0
 24 25  1  0  0  0  0
 24 47  1  0  0  0  0
 24 48  1  0  0  0  0
 25 26  1  0  0  0  0
 26 49  1  0  0  0  0
 26 50  1  0  0  0  0
M  END
> <s_m_source_file>
AV-unprocessed.smi

> <i_m_source_file_index>
208

> <i_lp_mmshare_version>
43012

> <i_f3d_flags>
0

> <s_epik_input>
W0NIM11bQ0gyXVtDQEBIXTFDKD1PKU4oW0NIM10pW0NIMl1bQ0gyXU4xYyhuW2NIXW4yKWMoYzIzKW5bY0hdbjNbQ0gyXUM0KFtDSDJdW09IXSlbQ0gyXU9bQ0gyXTQ=

> <s_epik_cmdline>
J2VwaWtfcHl0aG9uJywgJy1waCcsICc3LjAnLCAnLXRuJywgJzgnLCAnLW1hJywgJzIwMCcsICctbWV0YWxfYmluZGluZycsICctaW1hZScsICc8aW5maWxlLm1hZT4nLCAnLW9tYWUnLCAnPG91dGZpbGUubWFlPic=

> <r_lp_tautomer_probability>
1

> <r_epik_Ionization_Penalty>
0.000581289

> <r_epik_Ionization_Penalty_Charging>
0

> <r_epik_Ionization_Penalty_Neutral>
0.000581289

> <r_epik_State_Penalty>
0.000280365

> <r_epik_Charging_Adjusted_Penalty>
0.000280365

> <i_epik_Tot_Q>
0

> <i_epik_Tot_abs_Q>
0

> <r_epik_Metal_State_Penalty>
-0

> <b_epik_Metal_Only>
0

> <s_lp_Force_Field>
OPLS_2005

> <r_lp_Energy>
41.1811

> <b_lp_Chiralities_Consistent>
1

> <s_lp_Variant>
AV-unprocessed.smi:208-1

> <Gold.Version>
5.8.1

> <Gold.Id.Protein>
6NUR|6NUR_protein|mol2

> <Gold.PLP.Fitness>
44.2206

> <Gold.PLP.PLP>
-42.3388

> <Gold.PLP.part.hbond>
-1.3178

> <Gold.PLP.part.metal>
0.0000

> <Gold.PLP.part.buried>
-7.8539

> <Gold.PLP.part.nonpolar>
-32.8154

> <Gold.PLP.part.repulsive>
0.1262

> <Gold.PLP.ligand.clash>
0.0000

> <Gold.PLP.ligand.torsion>
0.8845

> <Gold.PLP.Chemscore.Hbond>
1.0000

> <Gold.PLP.Chemscore.CHOScore>
0.0000

> <Gold.PLP.Chemscore.Metal>
0.0000

> <Gold.Chemscore.Hbonds>
donor molecule, donor type, donor heavy atom, donor atom, acceptor molecule, acceptor atom, score
      P1  H  7997  8010       L1    17  0.98

> <Gold.PLP.Chemscore.Internal.Correction>
0.6508

> <Gold.Rescore>
     Score         DG    S(hbond)    S(metal)    S(lipo)     H(rot)  DE(clash)    DE(int)     intcor
      7.70     -10.49       0.75        0.00      75.18       2.46       0.15       2.63       ----

> <Gold.Chemscore.Fitness>
7.7020

> <Gold.Chemscore.DG>
-10.4886

> <Gold.Chemscore.ZeroCoef>
-5.4800

> <Gold.Chemscore.Hbond>
0.7513

> <Gold.Chemscore.Metal>
0.0000

> <Gold.Chemscore.Lipo>
75.1831

> <Gold.Chemscore.Internal_Hbond>
0.0000

> <Gold.Chemscore.DEClash>
0.1542

> <Gold.Chemscore.DEInternal>
2.6324

> <Gold.Chemscore.Rot>
2.4598

> <Gold.Chemscore.Internal.Correction>
   9.000000E+99

> <Gold.Chemscore.Hbonds>
donor molecule, donor type, donor heavy atom, donor atom, acceptor molecule, acceptor atom, score
      P1  H  7997  8010       L1    17  0.58

> <Gold.Chemscore.Hbond.Weighted>
-2.5094

> <Gold.Chemscore.Metal.Weighted>
-0.0000

> <Gold.Chemscore.Lipo.Weighted>
-8.7964

> <Gold.Chemscore.Internal_Hbond.Weighted>
0.0000

> <Gold.Chemscore.DEClash.Weighted>
0.1542

> <Gold.Chemscore.DEInternal.Weighted>
2.6324

> <Gold.Chemscore.Rot.Weighted>
6.2972

> <Gold.Chemscore.Internal.Correction.Weighted>
   9.000000E+99

> <Gold.Protein.RotatedTorsions>
[ 6907 6896 6895 6894 ] final  -94.69 input  -60.11 | X-H torsion
[ 7974 7965 7964 7962 ] final   80.81 input  175.53 | X-H torsion
[ 8008 7997 7996 7995 ] final   23.02 input   59.86 | X-H torsion
[ 10167 10162 10161 10158 ] final  -62.23 input  -65.29 | X-H torsion
[ 10718 10713 10712 10709 ] final  169.98 input   66.30 | X-H torsion
[ 10763 10752 10751 10750 ] final  167.16 input  -60.55 | X-H torsion
[ 11005 11000 10999 10996 ] final -150.98 input  -57.11 | X-H torsion

> <Gold.Protein.ActiveResidues>
 VAL166  LYS551  ARG553  GLY616  TRP617  ASP618  TYR619  PRO620  LYS621  CYS622 
 ASP623  PHE694  ASN695  SER759  ASP760  ASP761  ALA762  ILE779  LEU786  VAL792 
 PHE793  MET794  SER795  GLU796  ALA797  LYS798  CYS799  TRP800  GLU811  SER814 

> <Gold.Protein.RotatedAtoms>
  150.6947  134.1773  159.4234 H   0  0  0  0  0  0  0  0  0  0  0  0  # atno 6907 bound_to 6896
  151.9749  135.0055  160.0564 H   0  0  0  0  0  0  0  0  0  0  0  0  # atno 6908 bound_to 6896
  152.1808  133.4671  159.4994 H   0  0  0  0  0  0  0  0  0  0  0  0  # atno 6909 bound_to 6896
  145.6464  139.2437  143.2001 H   0  0  0  0  0  0  0  0  0  0  0  0  # atno 7974 bound_to 7965
  154.9745  140.3094  155.4973 H   0  0  0  0  0  0  0  0  0  0  0  0  # atno 8008 bound_to 7997
  156.2961  140.2278  156.4779 H   0  0  0  0  0  0  0  0  0  0  0  0  # atno 8009 bound_to 7997
  154.7846  140.0444  157.1142 H   0  0  0  0  0  0  0  0  0  0  0  0  # atno 8010 bound_to 7997
  140.5953  143.2349  151.6050 H   0  0  0  0  0  0  0  0  0  0  0  0  # atno 10167 bound_to 10162
  157.0147  131.0214  151.2792 H   0  0  0  0  0  0  0  0  0  0  0  0  # atno 10718 bound_to 10713
  154.3497  135.2753  155.2378 H   0  0  0  0  0  0  0  0  0  0  0  0  # atno 10763 bound_to 10752
  154.4613  135.5906  153.6261 H   0  0  0  0  0  0  0  0  0  0  0  0  # atno 10764 bound_to 10752
  152.9851  135.6065  154.3706 H   0  0  0  0  0  0  0  0  0  0  0  0  # atno 10765 bound_to 10752
  140.7344  134.3584  157.5160 H   0  0  0  0  0  0  0  0  0  0  0  0  # atno 11005 bound_to 11000
  146.1239  140.7273  142.9444 LP  0  0  0  0  0  0  0  0  0  0  0  0  # atno 17320 bound_to 7965
  144.7138  140.4137  143.7060 LP  0  0  0  0  0  0  0  0  0  0  0  0  # atno 17321 bound_to 7965
  139.5254  144.3076  152.1021 LP  0  0  0  0  0  0  0  0  0  0  0  0  # atno 17342 bound_to 10162
  140.2247  144.4430  150.6326 LP  0  0  0  0  0  0  0  0  0  0  0  0  # atno 17343 bound_to 10162
  157.5294  130.8049  149.7899 LP  0  0  0  0  0  0  0  0  0  0  0  0  # atno 17370 bound_to 10713
  156.0123  130.3828  150.2223 LP  0  0  0  0  0  0  0  0  0  0  0  0  # atno 17371 bound_to 10713
  139.8819  134.9040  156.2867 LP  0  0  0  0  0  0  0  0  0  0  0  0  # atno 17394 bound_to 11000
  140.9892  133.7219  156.0788 LP  0  0  0  0  0  0  0  0  0  0  0  0  # atno 17395 bound_to 11000

$$$$
