AV-unprocessed.smi:1802|AV-procd|sdf|7276|dock8
  -GOLD-   22720 8533D 1   1.00000     0.00000
 Structure written by MMmdl.
 40 41  0  0  0  0  0  0  0  0  3 V2000
  145.7301  136.0308  150.6099 C   0  0  0  0  0  0  0  0  0  0  0  0
  145.0562  134.9340  151.4532 C   0  0  1  0  0  0  0  0  0  0  0  0
  145.2844  133.5198  150.8882 C   0  0  0  0  0  0  0  0  0  0  0  0
  146.7204  133.0421  151.1461 C   0  0  0  0  0  0  0  0  0  0  0  0
  147.0821  133.1584  152.6355 C   0  0  0  0  0  0  0  0  0  0  0  0
  146.8834  134.5453  153.1295 N   0  3  2  0  0  0  0  0  0  0  0  0
  147.3684  134.7202  154.5217 C   0  0  0  0  0  0  0  0  0  0  0  0
  148.7437  134.0718  154.7474 C   0  0  0  0  0  0  0  0  0  0  0  0
  149.5928  134.8451  155.7694 C   0  0  0  0  0  0  0  0  0  0  0  0
  149.2732  134.4505  157.1367 N   0  0  0  0  0  0  0  0  0  0  0  0
  148.4368  135.0972  157.9617 C   0  0  0  0  0  0  0  0  0  0  0  0
  147.8552  136.1136  157.5743 O   0  0  0  0  0  0  0  0  0  0  0  0
  148.3320  134.5314  159.1849 N   0  5  0  0  0  0  0  0  0  0  0  0
  147.8394  135.2437  160.2120 C   0  0  0  0  0  0  0  0  0  0  0  0
  147.9067  136.5839  160.2555 N   0  0  0  0  0  0  0  0  0  0  0  0
  147.3399  137.1219  161.4031 N   0  0  0  0  0  0  0  0  0  0  0  0
  146.8485  136.1690  162.1950 C   0  0  0  0  0  0  0  0  0  0  0  0
  147.0305  134.5290  161.6095 S   0  0  0  0  0  0  0  0  0  0  0  0
  145.4786  134.9984  152.9354 C   0  0  0  0  0  0  0  0  0  0  0  0
  146.8157  135.9343  150.6062 H   0  0  0  0  0  0  0  0  0  0  0  0
  145.4910  137.0222  150.9960 H   0  0  0  0  0  0  0  0  0  0  0  0
  145.3899  135.9934  149.5748 H   0  0  0  0  0  0  0  0  0  0  0  0
  143.9841  135.1306  151.4109 H   0  0  0  0  0  0  0  0  0  0  0  0
  144.5889  132.8271  151.3640 H   0  0  0  0  0  0  0  0  0  0  0  0
  145.0609  133.4913  149.8211 H   0  0  0  0  0  0  0  0  0  0  0  0
  146.8303  132.0081  150.8174 H   0  0  0  0  0  0  0  0  0  0  0  0
  147.4215  133.6268  150.5497 H   0  0  0  0  0  0  0  0  0  0  0  0
  146.4761  132.4701  153.2267 H   0  0  0  0  0  0  0  0  0  0  0  0
  148.1229  132.8617  152.7711 H   0  0  0  0  0  0  0  0  0  0  0  0
  147.3921  135.7808  154.7769 H   0  0  0  0  0  0  0  0  0  0  0  0
  146.6622  134.2532  155.2096 H   0  0  0  0  0  0  0  0  0  0  0  0
  148.6110  133.0450  155.0909 H   0  0  0  0  0  0  0  0  0  0  0  0
  149.2889  134.0124  153.8061 H   0  0  0  0  0  0  0  0  0  0  0  0
  150.6567  134.6956  155.5782 H   0  0  0  0  0  0  0  0  0  0  0  0
  149.4080  135.9154  155.6749 H   0  0  0  0  0  0  0  0  0  0  0  0
  149.7235  133.6195  157.4920 H   0  0  0  0  0  0  0  0  0  0  0  0
  146.3735  136.4335  163.1278 H   0  0  0  0  0  0  0  0  0  0  0  0
  145.3462  136.0166  153.2991 H   0  0  0  0  0  0  0  0  0  0  0  0
  144.8174  134.3703  153.5346 H   0  0  0  0  0  0  0  0  0  0  0  0
  147.4649  135.1353  152.5516 H   0  0  0  0  0  0  0  0  0  0  0  0
  1  2  1  0  0  0  0
  1 20  1  0  0  0  0
  1 21  1  0  0  0  0
  1 22  1  0  0  0  0
  2 19  1  0  0  0  0
  2  3  1  0  0  0  0
  2 23  1  0  0  0  0
  3  4  1  0  0  0  0
  3 24  1  0  0  0  0
  3 25  1  0  0  0  0
  4  5  1  0  0  0  0
  4 26  1  0  0  0  0
  4 27  1  0  0  0  0
  5  6  1  0  0  0  0
  5 28  1  0  0  0  0
  5 29  1  0  0  0  0
  6  7  1  0  0  0  0
  6 19  1  0  0  0  0
  6 40  1  0  0  0  0
  7  8  1  0  0  0  0
  7 30  1  0  0  0  0
  7 31  1  0  0  0  0
  8  9  1  0  0  0  0
  8 32  1  0  0  0  0
  8 33  1  0  0  0  0
  9 10  1  0  0  0  0
  9 34  1  0  0  0  0
  9 35  1  0  0  0  0
 10 11  1  0  0  0  0
 10 36  1  0  0  0  0
 11 12  2  0  0  0  0
 11 13  1  0  0  0  0
 13 14  1  0  0  0  0
 14 18  1  0  0  0  0
 14 15  2  0  0  0  0
 15 16  1  0  0  0  0
 16 17  2  0  0  0  0
 17 18  1  0  0  0  0
 17 37  1  0  0  0  0
 19 38  1  0  0  0  0
 19 39  1  0  0  0  0
M  CHG  1   6   1
M  CHG  1  13  -1
M  END
> <s_m_source_file>
AV-unprocessed.smi

> <i_m_source_file_index>
1802

> <i_lp_mmshare_version>
43012

> <i_f3d_flags>
0

> <s_epik_input>
W0NIM11bQ0BASF0xW0NIMl1bQ0gyXVtDSDJdTihbQ0gyXTEpW0NIMl1bQ0gyXVtDSDJdW05IXUMoPU8pW05IXWMybm5bY0hdczI=

> <s_epik_cmdline>
J2VwaWtfcHl0aG9uJywgJy1waCcsICc3LjAnLCAnLXRuJywgJzgnLCAnLW1hJywgJzIwMCcsICctbWV0YWxfYmluZGluZycsICctaW1hZScsICc8aW5maWxlLm1hZT4nLCAnLW9tYWUnLCAnPG91dGZpbGUubWFlPic=

> <r_lp_tautomer_probability>
1

> <r_epik_Ionization_Penalty>
3.29702

> <r_epik_Ionization_Penalty_Charging>
3.26059

> <r_epik_Ionization_Penalty_Neutral>
0.0364294

> <r_epik_State_Penalty>
3.25788

> <r_epik_Charging_Adjusted_Penalty>
6.51847

> <i_epik_Tot_Q>
0

> <i_epik_Tot_abs_Q>
2

> <r_epik_Metal_State_Penalty>
0.477639

> <b_epik_Metal_Only>
1

> <s_lp_Force_Field>
OPLS_2005

> <r_lp_Energy>
11.8287

> <b_lp_Chiralities_Consistent>
1

> <s_lp_Variant>
AV-unprocessed.smi:1802-6

> <Gold.Version>
5.8.1

> <Gold.Id.Protein>
6NUR|6NUR_protein|mol2

> <Gold.PLP.Fitness>
45.8811

> <Gold.PLP.PLP>
-30.0991

> <Gold.PLP.part.hbond>
-4.2712

> <Gold.PLP.part.metal>
0.0000

> <Gold.PLP.part.buried>
-3.3510

> <Gold.PLP.part.nonpolar>
-22.4219

> <Gold.PLP.part.repulsive>
0.0801

> <Gold.PLP.ligand.clash>
0.0000

> <Gold.PLP.ligand.torsion>
0.8026

> <Gold.PLP.Chemscore.Hbond>
5.7840

> <Gold.PLP.Chemscore.CHOScore>
0.0000

> <Gold.PLP.Chemscore.Metal>
0.0000

> <Gold.Chemscore.Hbonds>
donor molecule, donor type, donor heavy atom, donor atom, acceptor molecule, acceptor atom, score
      L1  H     6    40       P1  7948  2.00
      P1  H  6896  6908       L1    13  0.39
      P1  H  6931  6943       L1    16  0.58
      P1  H  6934  6947       L1    16  0.98

> <Gold.PLP.Chemscore.Internal.Correction>
0.0352

> <Gold.Rescore>
     Score         DG    S(hbond)    S(metal)    S(lipo)     H(rot)  DE(clash)    DE(int)     intcor
     14.37     -16.80       2.67        0.00      62.87       1.94       0.03       2.40       ----

> <Gold.Chemscore.Fitness>
14.3655

> <Gold.Chemscore.DG>
-16.7983

> <Gold.Chemscore.ZeroCoef>
-5.4800

> <Gold.Chemscore.Hbond>
2.6721

> <Gold.Chemscore.Metal>
0.0000

> <Gold.Chemscore.Lipo>
62.8675

> <Gold.Chemscore.Internal_Hbond>
0.0000

> <Gold.Chemscore.DEClash>
0.0284

> <Gold.Chemscore.DEInternal>
2.4044

> <Gold.Chemscore.Rot>
1.9383

> <Gold.Chemscore.Internal.Correction>
   9.000000E+99

> <Gold.Chemscore.Hbonds>
donor molecule, donor type, donor heavy atom, donor atom, acceptor molecule, acceptor atom, score
      L1  H     6    40       P1  7948  0.99
      P1  H  6896  6908       L1    13  0.01
      P1  H  6931  6943       L1    16  0.07
      P1  H  6934  6947       L1    16  0.32

> <Gold.Chemscore.Hbond.Weighted>
-8.9248

> <Gold.Chemscore.Metal.Weighted>
-0.0000

> <Gold.Chemscore.Lipo.Weighted>
-7.3555

> <Gold.Chemscore.Internal_Hbond.Weighted>
0.0000

> <Gold.Chemscore.DEClash.Weighted>
0.0284

> <Gold.Chemscore.DEInternal.Weighted>
2.4044

> <Gold.Chemscore.Rot.Weighted>
4.9620

> <Gold.Chemscore.Internal.Correction.Weighted>
   9.000000E+99

> <Gold.Protein.RotatedTorsions>
[ 6907 6896 6895 6894 ] final  161.05 input  -60.11 | X-H torsion
[ 7974 7965 7964 7962 ] final   72.52 input  175.53 | X-H torsion
[ 8008 7997 7996 7995 ] final -158.70 input   59.86 | X-H torsion
[ 10167 10162 10161 10158 ] final   98.27 input  -65.29 | X-H torsion
[ 10718 10713 10712 10709 ] final  137.73 input   66.30 | X-H torsion
[ 10763 10752 10751 10750 ] final  153.34 input  -60.55 | X-H torsion
[ 11005 11000 10999 10996 ] final -136.15 input  -57.11 | X-H torsion

> <Gold.Protein.ActiveResidues>
 VAL166  LYS551  ARG553  GLY616  TRP617  ASP618  TYR619  PRO620  LYS621  CYS622 
 ASP623  PHE694  ASN695  SER759  ASP760  ASP761  ALA762  ILE779  LEU786  VAL792 
 PHE793  MET794  SER795  GLU796  ALA797  LYS798  CYS799  TRP800  GLU811  SER814 

> <Gold.Protein.RotatedAtoms>
  151.9615  133.3697  159.4036 H   0  0  0  0  0  0  0  0  0  0  0  0  # atno 6907 bound_to 6896
  150.6963  134.4235  159.5225 H   0  0  0  0  0  0  0  0  0  0  0  0  # atno 6908 bound_to 6896
  152.1925  134.8659  160.0567 H   0  0  0  0  0  0  0  0  0  0  0  0  # atno 6909 bound_to 6896
  145.7524  139.2765  143.1424 H   0  0  0  0  0  0  0  0  0  0  0  0  # atno 7974 bound_to 7965
  155.7515  140.0827  157.2199 H   0  0  0  0  0  0  0  0  0  0  0  0  # atno 8008 bound_to 7997
  154.4011  140.1559  156.2786 H   0  0  0  0  0  0  0  0  0  0  0  0  # atno 8009 bound_to 7997
  155.8925  140.3414  155.5970 H   0  0  0  0  0  0  0  0  0  0  0  0  # atno 8010 bound_to 7997
  139.7724  144.6918  151.0137 H   0  0  0  0  0  0  0  0  0  0  0  0  # atno 10167 bound_to 10162
  157.4329  131.1050  151.0229 H   0  0  0  0  0  0  0  0  0  0  0  0  # atno 10718 bound_to 10713
  154.1347  135.2824  155.3176 H   0  0  0  0  0  0  0  0  0  0  0  0  # atno 10763 bound_to 10752
  154.6330  135.5428  153.7705 H   0  0  0  0  0  0  0  0  0  0  0  0  # atno 10764 bound_to 10752
  153.0270  135.6467  154.1496 H   0  0  0  0  0  0  0  0  0  0  0  0  # atno 10765 bound_to 10752
  140.8832  134.1905  157.4577 H   0  0  0  0  0  0  0  0  0  0  0  0  # atno 11005 bound_to 11000
  146.0344  140.8227  142.9860 LP  0  0  0  0  0  0  0  0  0  0  0  0  # atno 17320 bound_to 7965
  144.6847  140.2816  143.7291 LP  0  0  0  0  0  0  0  0  0  0  0  0  # atno 17321 bound_to 7965
  140.7814  143.4573  151.0327 LP  0  0  0  0  0  0  0  0  0  0  0  0  # atno 17342 bound_to 10162
  139.8257  143.7759  152.3178 LP  0  0  0  0  0  0  0  0  0  0  0  0  # atno 17343 bound_to 10162
  157.1119  130.6025  149.5484 LP  0  0  0  0  0  0  0  0  0  0  0  0  # atno 17370 bound_to 10713
  155.9920  130.4976  150.7322 LP  0  0  0  0  0  0  0  0  0  0  0  0  # atno 17371 bound_to 10713
  139.8722  134.9826  156.5165 LP  0  0  0  0  0  0  0  0  0  0  0  0  # atno 17394 bound_to 11000
  140.8436  133.8186  155.9099 LP  0  0  0  0  0  0  0  0  0  0  0  0  # atno 17395 bound_to 11000

$$$$
