AV-unprocessed.smi:341|AV-procd|sdf|2383|dock2
  -GOLD-   2262022303D 1   1.00000     0.00000
 Structure written by MMmdl.
 44 46  0  0  0  0  0  0  0  0  1 V2000
  147.9833  141.7052  154.8659 C   0  0  0  0  0  0  0  0  0  0  0  0
  148.4631  140.4560  154.1161 C   0  0  0  0  0  0  0  0  0  0  0  0
  149.0262  139.4712  155.0364 N   0  0  0  0  0  0  0  0  0  0  0  0
  150.3003  139.0134  155.0487 C   0  0  0  0  0  0  0  0  0  0  0  0
  151.2039  139.3678  154.2919 O   0  0  0  0  0  0  0  0  0  0  0  0
  150.4077  138.0948  156.0378 N   0  0  0  0  0  0  0  0  0  0  0  0
  151.6110  137.3500  156.4073 C   0  0  0  0  0  0  0  0  0  0  0  0
  152.4584  138.1120  157.4466 C   0  0  1  0  0  0  0  0  0  0  0  0
  153.4186  138.8766  156.7446 O   0  0  0  0  0  0  0  0  0  0  0  0
  151.6076  139.0938  158.2698 C   0  0  0  0  0  0  0  0  0  0  0  0
  152.4555  139.7839  159.1787 O   0  0  0  0  0  0  0  0  0  0  0  0
  152.3112  141.1492  159.3002 C   0  0  0  0  0  0  0  0  0  0  0  0
  153.1670  141.8039  160.2098 C   0  0  0  0  0  0  0  0  0  0  0  0
  153.0904  143.1971  160.3992 C   0  0  0  0  0  0  0  0  0  0  0  0
  152.1498  143.9558  159.6755 C   0  0  0  0  0  0  0  0  0  0  0  0
  152.0677  145.3939  159.8686 C   0  0  0  0  0  0  0  0  0  0  0  0
  152.0025  146.5388  160.0224 N   0  0  0  0  0  0  0  0  0  0  0  0
  151.2889  143.3140  158.7635 C   0  0  0  0  0  0  0  0  0  0  0  0
  151.3671  141.9200  158.5755 C   0  0  0  0  0  0  0  0  0  0  0  0
  149.1655  137.9586  156.6745 C   0  0  0  0  0  0  0  0  0  0  0  0
  148.7585  137.1456  157.7470 C   0  0  0  0  0  0  0  0  0  0  0  0
  147.4087  137.2447  158.1581 C   0  0  0  0  0  0  0  0  0  0  0  0
  146.5133  138.1314  157.5057 C   0  0  0  0  0  0  0  0  0  0  0  0
  146.9492  138.9392  156.4293 C   0  0  0  0  0  0  0  0  0  0  0  0
  148.2959  138.8231  156.0429 C   0  0  0  0  0  0  0  0  0  0  0  0
  147.5626  142.4351  154.1743 H   0  0  0  0  0  0  0  0  0  0  0  0
  148.8052  142.1863  155.3972 H   0  0  0  0  0  0  0  0  0  0  0  0
  147.2121  141.4560  155.5954 H   0  0  0  0  0  0  0  0  0  0  0  0
  147.6330  140.0152  153.5621 H   0  0  0  0  0  0  0  0  0  0  0  0
  149.2106  140.7306  153.3714 H   0  0  0  0  0  0  0  0  0  0  0  0
  151.3591  136.3495  156.7611 H   0  0  0  0  0  0  0  0  0  0  0  0
  152.1945  137.1980  155.4980 H   0  0  0  0  0  0  0  0  0  0  0  0
  152.9553  137.4090  158.1167 H   0  0  0  0  0  0  0  0  0  0  0  0
  153.0564  139.1152  155.9052 H   0  0  0  0  0  0  0  0  0  0  0  0
  151.0679  139.7820  157.6165 H   0  0  0  0  0  0  0  0  0  0  0  0
  150.8699  138.5377  158.8503 H   0  0  0  0  0  0  0  0  0  0  0  0
  153.8918  141.2305  160.7691 H   0  0  0  0  0  0  0  0  0  0  0  0
  153.7568  143.6772  161.1015 H   0  0  0  0  0  0  0  0  0  0  0  0
  150.5636  143.8862  158.2026 H   0  0  0  0  0  0  0  0  0  0  0  0
  150.6901  141.4659  157.8682 H   0  0  0  0  0  0  0  0  0  0  0  0
  149.4433  136.4722  158.2406 H   0  0  0  0  0  0  0  0  0  0  0  0
  147.0556  136.6371  158.9781 H   0  0  0  0  0  0  0  0  0  0  0  0
  145.4864  138.1906  157.8346 H   0  0  0  0  0  0  0  0  0  0  0  0
  146.2719  139.6149  155.9286 H   0  0  0  0  0  0  0  0  0  0  0  0
  1  2  1  0  0  0  0
  1 26  1  0  0  0  0
  1 27  1  0  0  0  0
  1 28  1  0  0  0  0
  2  3  1  0  0  0  0
  2 29  1  0  0  0  0
  2 30  1  0  0  0  0
  3 25  1  0  0  0  0
  3  4  1  0  0  0  0
  4  5  2  0  0  0  0
  4  6  1  0  0  0  0
  6  7  1  0  0  0  0
  6 20  1  0  0  0  0
  7  8  1  0  0  0  0
  7 31  1  0  0  0  0
  7 32  1  0  0  0  0
  8  9  1  0  0  0  0
  8 10  1  0  0  0  0
  8 33  1  0  0  0  0
  9 34  1  0  0  0  0
 10 11  1  0  0  0  0
 10 35  1  0  0  0  0
 10 36  1  0  0  0  0
 11 12  1  0  0  0  0
 12 19  1  0  0  0  0
 12 13  2  0  0  0  0
 13 14  1  0  0  0  0
 13 37  1  0  0  0  0
 14 15  2  0  0  0  0
 14 38  1  0  0  0  0
 15 16  1  0  0  0  0
 15 18  1  0  0  0  0
 16 17  3  0  0  0  0
 18 19  2  0  0  0  0
 18 39  1  0  0  0  0
 19 40  1  0  0  0  0
 20 25  2  0  0  0  0
 20 21  1  0  0  0  0
 21 22  2  0  0  0  0
 21 41  1  0  0  0  0
 22 23  1  0  0  0  0
 22 42  1  0  0  0  0
 23 24  2  0  0  0  0
 23 43  1  0  0  0  0
 24 25  1  0  0  0  0
 24 44  1  0  0  0  0
M  END
> <s_m_source_file>
AV-unprocessed.smi

> <i_m_source_file_index>
341

> <i_lp_mmshare_version>
43012

> <i_f3d_flags>
0

> <s_epik_input>
W2NIXTFbY0hdW2NIXVtjSF1jKGMxMiluKFtDSDJdW0NIM10pYyg9TyluMltDSDJdW0NASF0oW09IXSlbQ0gyXU9jM1tjSF1bY0hdYyhDI04pW2NIXVtjSF0z

> <s_epik_cmdline>
J2VwaWtfcHl0aG9uJywgJy1waCcsICc3LjAnLCAnLXRuJywgJzgnLCAnLW1hJywgJzIwMCcsICctbWV0YWxfYmluZGluZycsICctaW1hZScsICc8aW5maWxlLm1hZT4nLCAnLW9tYWUnLCAnPG91dGZpbGUubWFlPic=

> <r_lp_tautomer_probability>
1

> <r_epik_Ionization_Penalty>
2.40146e-06

> <r_epik_Ionization_Penalty_Charging>
2.16099e-09

> <r_epik_Ionization_Penalty_Neutral>
2.3993e-06

> <r_epik_State_Penalty>
-0

> <r_epik_Charging_Adjusted_Penalty>
2.16099e-09

> <i_epik_Tot_Q>
0

> <i_epik_Tot_abs_Q>
0

> <r_epik_Metal_State_Penalty>
-0

> <b_epik_Metal_Only>
0

> <s_lp_Force_Field>
OPLS_2005

> <r_lp_Energy>
47.9836

> <b_lp_Chiralities_Consistent>
1

> <s_lp_Variant>
AV-unprocessed.smi:341-2

> <Gold.Version>
5.8.1

> <Gold.Id.Protein>
6NUR|6NUR_protein|mol2

> <Gold.PLP.Fitness>
41.2340

> <Gold.PLP.PLP>
-37.9657

> <Gold.PLP.part.hbond>
-3.9249

> <Gold.PLP.part.metal>
0.0000

> <Gold.PLP.part.buried>
-4.2982

> <Gold.PLP.part.nonpolar>
-29.5762

> <Gold.PLP.part.repulsive>
0.5658

> <Gold.PLP.ligand.clash>
0.0000

> <Gold.PLP.ligand.torsion>
1.1626

> <Gold.PLP.Chemscore.Hbond>
1.8320

> <Gold.PLP.Chemscore.CHOScore>
0.0000

> <Gold.PLP.Chemscore.Metal>
0.0000

> <Gold.Chemscore.Hbonds>
donor molecule, donor type, donor heavy atom, donor atom, acceptor molecule, acceptor atom, score
      P1  H  7989  7998       L1     5  1.00
      P1  H  7997  8008       L1     9  0.80

> <Gold.PLP.Chemscore.Internal.Correction>
0.0974

> <Gold.Rescore>
     Score         DG    S(hbond)    S(metal)    S(lipo)     H(rot)  DE(clash)    DE(int)     intcor
     13.02     -14.55       1.56        0.00      87.11       2.48       0.29       1.24       ----

> <Gold.Chemscore.Fitness>
13.0221

> <Gold.Chemscore.DG>
-14.5548

> <Gold.Chemscore.ZeroCoef>
-5.4800

> <Gold.Chemscore.Hbond>
1.5638

> <Gold.Chemscore.Metal>
0.0000

> <Gold.Chemscore.Lipo>
87.1135

> <Gold.Chemscore.Internal_Hbond>
0.0000

> <Gold.Chemscore.DEClash>
0.2947

> <Gold.Chemscore.DEInternal>
1.2380

> <Gold.Chemscore.Rot>
2.4768

> <Gold.Chemscore.Internal.Correction>
   9.000000E+99

> <Gold.Chemscore.Hbonds>
donor molecule, donor type, donor heavy atom, donor atom, acceptor molecule, acceptor atom, score
      P1  H  7989  7998       L1     5  1.00
      P1  H  7997  8008       L1     9  0.24

> <Gold.Chemscore.Hbond.Weighted>
-5.2232

> <Gold.Chemscore.Metal.Weighted>
-0.0000

> <Gold.Chemscore.Lipo.Weighted>
-10.1923

> <Gold.Chemscore.Internal_Hbond.Weighted>
0.0000

> <Gold.Chemscore.DEClash.Weighted>
0.2947

> <Gold.Chemscore.DEInternal.Weighted>
1.2380

> <Gold.Chemscore.Rot.Weighted>
6.3407

> <Gold.Chemscore.Internal.Correction.Weighted>
   9.000000E+99

> <Gold.Protein.RotatedTorsions>
[ 6907 6896 6895 6894 ] final  -27.56 input  -60.11 | X-H torsion
[ 7974 7965 7964 7962 ] final   17.38 input  175.53 | X-H torsion
[ 8008 7997 7996 7995 ] final  -82.34 input   59.86 | X-H torsion
[ 10167 10162 10161 10158 ] final -121.70 input  -65.29 | X-H torsion
[ 10718 10713 10712 10709 ] final   -8.03 input   66.30 | X-H torsion
[ 10763 10752 10751 10750 ] final  -76.75 input  -60.55 | X-H torsion
[ 11005 11000 10999 10996 ] final  -40.45 input  -57.11 | X-H torsion

> <Gold.Protein.ActiveResidues>
 VAL166  LYS551  ARG553  GLY616  TRP617  ASP618  TYR619  PRO620  LYS621  CYS622 
 ASP623  PHE694  ASN695  SER759  ASP760  ASP761  ALA762  ILE779  LEU786  VAL792 
 PHE793  MET794  SER795  GLU796  ALA797  LYS798  CYS799  TRP800  GLU811  SER814 

> <Gold.Protein.RotatedAtoms>
  151.1452  135.0199  159.8643 H   0  0  0  0  0  0  0  0  0  0  0  0  # atno 6907 bound_to 6896
  152.5453  134.1453  159.8506 H   0  0  0  0  0  0  0  0  0  0  0  0  # atno 6908 bound_to 6896
  151.1532  133.4848  159.2628 H   0  0  0  0  0  0  0  0  0  0  0  0  # atno 6909 bound_to 6896
  146.2220  139.8610  142.8604 H   0  0  0  0  0  0  0  0  0  0  0  0  # atno 7974 bound_to 7965
  154.6076  140.0634  156.9451 H   0  0  0  0  0  0  0  0  0  0  0  0  # atno 8008 bound_to 7997
  155.2027  140.3316  155.4322 H   0  0  0  0  0  0  0  0  0  0  0  0  # atno 8009 bound_to 7997
  156.2357  140.1862  156.7109 H   0  0  0  0  0  0  0  0  0  0  0  0  # atno 8010 bound_to 7997
  140.0222  143.5332  152.2215 H   0  0  0  0  0  0  0  0  0  0  0  0  # atno 10167 bound_to 10162
  156.7085  130.5115  149.5898 H   0  0  0  0  0  0  0  0  0  0  0  0  # atno 10718 bound_to 10713
  154.5040  135.5787  153.6553 H   0  0  0  0  0  0  0  0  0  0  0  0  # atno 10763 bound_to 10752
  152.9884  135.6142  154.2966 H   0  0  0  0  0  0  0  0  0  0  0  0  # atno 10764 bound_to 10752
  154.2875  135.2849  155.2649 H   0  0  0  0  0  0  0  0  0  0  0  0  # atno 10765 bound_to 10752
  141.0176  133.6878  156.2323 H   0  0  0  0  0  0  0  0  0  0  0  0  # atno 11005 bound_to 11000
  145.2704  141.0107  143.3775 LP  0  0  0  0  0  0  0  0  0  0  0  0  # atno 17320 bound_to 7965
  144.9228  139.4391  143.6533 LP  0  0  0  0  0  0  0  0  0  0  0  0  # atno 17321 bound_to 7965
  139.6132  144.7613  151.2905 LP  0  0  0  0  0  0  0  0  0  0  0  0  # atno 17342 bound_to 10162
  140.7337  143.6786  150.8020 LP  0  0  0  0  0  0  0  0  0  0  0  0  # atno 17343 bound_to 10162
  156.1678  130.6417  151.0799 LP  0  0  0  0  0  0  0  0  0  0  0  0  # atno 17370 bound_to 10713
  157.6945  131.0798  150.7009 LP  0  0  0  0  0  0  0  0  0  0  0  0  # atno 17371 bound_to 10713
  140.6629  134.4949  157.5584 LP  0  0  0  0  0  0  0  0  0  0  0  0  # atno 17394 bound_to 11000
  139.9126  134.8313  156.1475 LP  0  0  0  0  0  0  0  0  0  0  0  0  # atno 17395 bound_to 11000

$$$$
