AV-unprocessed.smi:845|AV-procd|sdf|3932|dock2
  -GOLD-   22720 1393D 1   1.00000     0.00000
 Structure written by MMmdl.
 42 43  0  0  0  0  0  0  0  0  3 V2000
  149.4204  140.5042  154.7365 C   0  0  0  0  0  0  0  0  0  0  0  0
  150.5626  139.7929  155.4896 C   0  0  0  0  0  0  0  0  0  0  0  0
  151.0010  138.5597  154.6764 C   0  0  0  0  0  0  0  0  0  0  0  0
  150.1656  139.4468  156.9543 C   0  0  1  0  0  0  0  0  0  0  0  0
  149.2301  138.2039  157.0414 C   0  0  0  0  0  0  0  0  0  0  0  0
  148.5260  138.0780  158.3132 N   0  0  0  0  0  0  0  0  0  0  0  0
  148.7710  137.1579  159.2563 C   0  0  0  0  0  0  0  0  0  0  0  0
  149.6778  136.3381  159.0957 O   0  0  0  0  0  0  0  0  0  0  0  0
  147.9335  137.2340  160.3141 N   0  5  0  0  0  0  0  0  0  0  0  0
  147.5577  136.1152  160.9544 C   0  0  0  0  0  0  0  0  0  0  0  0
  147.4106  134.9364  160.3396 N   0  0  0  0  0  0  0  0  0  0  0  0
  147.0221  133.9073  161.1991 C   0  0  0  0  0  0  0  0  0  0  0  0
  146.8771  134.3112  162.5000 C   0  0  0  0  0  0  0  0  0  0  0  0
  147.2263  136.0064  162.6855 S   0  0  0  0  0  0  0  0  0  0  0  0
  151.3976  139.3450  157.7993 N   0  3  0  0  0  0  0  0  0  0  0  0
  152.4445  138.4181  157.3025 C   0  0  0  0  0  0  0  0  0  0  0  0
  153.5173  138.2156  158.3846 C   0  0  0  0  0  0  0  0  0  0  0  0
  154.0616  139.4753  158.7631 O   0  0  0  0  0  0  0  0  0  0  0  0
  153.0771  140.3445  159.3115 C   0  0  0  0  0  0  0  0  0  0  0  0
  151.9900  140.6247  158.2612 C   0  0  0  0  0  0  0  0  0  0  0  0
  148.5222  139.8864  154.7058 H   0  0  0  0  0  0  0  0  0  0  0  0
  149.7056  140.7235  153.7071 H   0  0  0  0  0  0  0  0  0  0  0  0
  149.1552  141.4558  155.1974 H   0  0  0  0  0  0  0  0  0  0  0  0
  151.4123  140.4761  155.5135 H   0  0  0  0  0  0  0  0  0  0  0  0
  150.2379  137.7807  154.6936 H   0  0  0  0  0  0  0  0  0  0  0  0
  151.9298  138.1319  155.0520 H   0  0  0  0  0  0  0  0  0  0  0  0
  151.1824  138.8212  153.6334 H   0  0  0  0  0  0  0  0  0  0  0  0
  149.5982  140.3043  157.3190 H   0  0  0  0  0  0  0  0  0  0  0  0
  148.4781  138.2283  156.2529 H   0  0  0  0  0  0  0  0  0  0  0  0
  149.7989  137.2884  156.8788 H   0  0  0  0  0  0  0  0  0  0  0  0
  147.7804  138.7350  158.4911 H   0  0  0  0  0  0  0  0  0  0  0  0
  146.8721  132.9158  160.7989 H   0  0  0  0  0  0  0  0  0  0  0  0
  146.5887  133.7192  163.3553 H   0  0  0  0  0  0  0  0  0  0  0  0
  152.0030  137.4561  157.0396 H   0  0  0  0  0  0  0  0  0  0  0  0
  152.9170  138.8131  156.4051 H   0  0  0  0  0  0  0  0  0  0  0  0
  153.0996  137.7105  159.2569 H   0  0  0  0  0  0  0  0  0  0  0  0
  154.3199  137.5834  158.0040 H   0  0  0  0  0  0  0  0  0  0  0  0
  152.6448  139.9021  160.2105 H   0  0  0  0  0  0  0  0  0  0  0  0
  153.5562  141.2760  159.6133 H   0  0  0  0  0  0  0  0  0  0  0  0
  152.4303  141.1647  157.4225 H   0  0  0  0  0  0  0  0  0  0  0  0
  151.2196  141.2651  158.6905 H   0  0  0  0  0  0  0  0  0  0  0  0
  151.0658  138.8952  158.6401 H   0  0  0  0  0  0  0  0  0  0  0  0
  1  2  1  0  0  0  0
  1 21  1  0  0  0  0
  1 22  1  0  0  0  0
  1 23  1  0  0  0  0
  2  3  1  0  0  0  0
  2  4  1  0  0  0  0
  2 24  1  0  0  0  0
  3 25  1  0  0  0  0
  3 26  1  0  0  0  0
  3 27  1  0  0  0  0
  4  5  1  0  0  0  0
  4 15  1  0  0  0  0
  4 28  1  0  0  0  0
  5  6  1  0  0  0  0
  5 29  1  0  0  0  0
  5 30  1  0  0  0  0
  6  7  1  0  0  0  0
  6 31  1  0  0  0  0
  7  8  2  0  0  0  0
  7  9  1  0  0  0  0
  9 10  1  0  0  0  0
 10 14  1  0  0  0  0
 10 11  2  0  0  0  0
 11 12  1  0  0  0  0
 12 13  2  0  0  0  0
 12 32  1  0  0  0  0
 13 14  1  0  0  0  0
 13 33  1  0  0  0  0
 15 20  1  0  0  0  0
 15 16  1  0  0  0  0
 15 42  1  0  0  0  0
 16 17  1  0  0  0  0
 16 34  1  0  0  0  0
 16 35  1  0  0  0  0
 17 18  1  0  0  0  0
 17 36  1  0  0  0  0
 17 37  1  0  0  0  0
 18 19  1  0  0  0  0
 19 20  1  0  0  0  0
 19 38  1  0  0  0  0
 19 39  1  0  0  0  0
 20 40  1  0  0  0  0
 20 41  1  0  0  0  0
M  CHG  1   9  -1
M  CHG  1  15   1
M  END
> <s_m_source_file>
AV-unprocessed.smi

> <i_m_source_file_index>
845

> <i_lp_mmshare_version>
43012

> <i_f3d_flags>
0

> <s_epik_input>
W0NIMl0xW0NIMl1PW0NIMl1bQ0gyXU4xW0NASF0oW0NIXShbQ0gzXSlbQ0gzXSlbQ0gyXVtOSF1DKD1PKVtOSF1jMm5bY0hdW2NIXXMy

> <s_epik_cmdline>
J2VwaWtfcHl0aG9uJywgJy1waCcsICc3LjAnLCAnLXRuJywgJzgnLCAnLW1hJywgJzIwMCcsICctbWV0YWxfYmluZGluZycsICctaW1hZScsICc8aW5maWxlLm1hZT4nLCAnLW9tYWUnLCAnPG91dGZpbGUubWFlPic=

> <r_lp_tautomer_probability>
0.999

> <r_epik_Ionization_Penalty>
7.97104

> <r_epik_Ionization_Penalty_Charging>
6.58021

> <r_epik_Ionization_Penalty_Neutral>
1.39083

> <r_epik_State_Penalty>
6.69807

> <r_epik_Charging_Adjusted_Penalty>
13.2783

> <i_epik_Tot_Q>
0

> <i_epik_Tot_abs_Q>
2

> <r_epik_Metal_State_Penalty>
2.62985

> <b_epik_Metal_Only>
1

> <s_lp_Force_Field>
OPLS_2005

> <r_lp_Energy>
19.9677

> <b_lp_Chiralities_Consistent>
1

> <s_lp_Variant>
AV-unprocessed.smi:845-6

> <Gold.Version>
5.8.1

> <Gold.Id.Protein>
6NUR|6NUR_protein|mol2

> <Gold.PLP.Fitness>
47.1241

> <Gold.PLP.PLP>
-34.6753

> <Gold.PLP.part.hbond>
-4.0000

> <Gold.PLP.part.metal>
0.0000

> <Gold.PLP.part.buried>
-5.0113

> <Gold.PLP.part.nonpolar>
-27.3460

> <Gold.PLP.part.repulsive>
0.2100

> <Gold.PLP.ligand.clash>
0.0000

> <Gold.PLP.ligand.torsion>
1.2801

> <Gold.PLP.Chemscore.Hbond>
4.8037

> <Gold.PLP.Chemscore.CHOScore>
0.0000

> <Gold.PLP.Chemscore.Metal>
0.0000

> <Gold.Chemscore.Hbonds>
donor molecule, donor type, donor heavy atom, donor atom, acceptor molecule, acceptor atom, score
      P1  H  6896  6907       L1     8  1.00
      P1  H  6931  6943       L1     9  0.87
      P1  H  6934  6947       L1     9  1.57
      P1  H  7997  8008       L1    18  1.00

> <Gold.PLP.Chemscore.Internal.Correction>
0.5979

> <Gold.Rescore>
     Score         DG    S(hbond)    S(metal)    S(lipo)     H(rot)  DE(clash)    DE(int)     intcor
     17.18     -18.89       2.79        0.00      73.70       1.76       0.00       1.71       ----

> <Gold.Chemscore.Fitness>
17.1835

> <Gold.Chemscore.DG>
-18.8945

> <Gold.Chemscore.ZeroCoef>
-5.4800

> <Gold.Chemscore.Hbond>
2.7853

> <Gold.Chemscore.Metal>
0.0000

> <Gold.Chemscore.Lipo>
73.7035

> <Gold.Chemscore.Internal_Hbond>
0.0000

> <Gold.Chemscore.DEClash>
0.0029

> <Gold.Chemscore.DEInternal>
1.7081

> <Gold.Chemscore.Rot>
1.7623

> <Gold.Chemscore.Internal.Correction>
   9.000000E+99

> <Gold.Chemscore.Hbonds>
donor molecule, donor type, donor heavy atom, donor atom, acceptor molecule, acceptor atom, score
      P1  H  6896  6907       L1     8  0.97
      P1  H  6931  6943       L1     9  0.07
      P1  H  6934  6947       L1     9  0.69
      P1  H  7997  8008       L1    18  0.53

> <Gold.Chemscore.Hbond.Weighted>
-9.3028

> <Gold.Chemscore.Metal.Weighted>
-0.0000

> <Gold.Chemscore.Lipo.Weighted>
-8.6233

> <Gold.Chemscore.Internal_Hbond.Weighted>
0.0000

> <Gold.Chemscore.DEClash.Weighted>
0.0029

> <Gold.Chemscore.DEInternal.Weighted>
1.7081

> <Gold.Chemscore.Rot.Weighted>
4.5116

> <Gold.Chemscore.Internal.Correction.Weighted>
   9.000000E+99

> <Gold.Protein.RotatedTorsions>
[ 6907 6896 6895 6894 ] final  -57.04 input  -60.11 | X-H torsion
[ 7974 7965 7964 7962 ] final   38.10 input  175.53 | X-H torsion
[ 8008 7997 7996 7995 ] final -121.47 input   59.86 | X-H torsion
[ 10167 10162 10161 10158 ] final  -81.72 input  -65.29 | X-H torsion
[ 10718 10713 10712 10709 ] final   94.65 input   66.30 | X-H torsion
[ 10763 10752 10751 10750 ] final  106.10 input  -60.55 | X-H torsion
[ 11005 11000 10999 10996 ] final   31.60 input  -57.11 | X-H torsion

> <Gold.Protein.ActiveResidues>
 VAL166  LYS551  ARG553  GLY616  TRP617  ASP618  TYR619  PRO620  LYS621  CYS622 
 ASP623  PHE694  ASN695  SER759  ASP760  ASP761  ALA762  ILE779  LEU786  VAL792 
 PHE793  MET794  SER795  GLU796  ALA797  LYS798  CYS799  TRP800  GLU811  SER814 

> <Gold.Protein.RotatedAtoms>
  150.8118  134.7278  159.6694 H   0  0  0  0  0  0  0  0  0  0  0  0  # atno 6907 bound_to 6896
  152.4238  134.5902  159.9982 H   0  0  0  0  0  0  0  0  0  0  0  0  # atno 6908 bound_to 6896
  151.6110  133.3310  159.3103 H   0  0  0  0  0  0  0  0  0  0  0  0  # atno 6909 bound_to 6896
  146.1087  139.5813  142.9366 H   0  0  0  0  0  0  0  0  0  0  0  0  # atno 7974 bound_to 7965
  155.1485  140.0403  157.2815 H   0  0  0  0  0  0  0  0  0  0  0  0  # atno 8008 bound_to 7997
  154.6421  140.2549  155.7283 H   0  0  0  0  0  0  0  0  0  0  0  0  # atno 8009 bound_to 7997
  156.2537  140.2853  156.0819 H   0  0  0  0  0  0  0  0  0  0  0  0  # atno 8010 bound_to 7997
  140.4386  143.2523  151.8658 H   0  0  0  0  0  0  0  0  0  0  0  0  # atno 10167 bound_to 10162
  157.6946  131.0519  150.4218 H   0  0  0  0  0  0  0  0  0  0  0  0  # atno 10718 bound_to 10713
  153.3884  135.3888  155.1906 H   0  0  0  0  0  0  0  0  0  0  0  0  # atno 10763 bound_to 10752
  154.8716  135.3742  154.4768 H   0  0  0  0  0  0  0  0  0  0  0  0  # atno 10764 bound_to 10752
  153.5252  135.7086  153.5772 H   0  0  0  0  0  0  0  0  0  0  0  0  # atno 10765 bound_to 10752
  140.2822  134.2960  155.7797 H   0  0  0  0  0  0  0  0  0  0  0  0  # atno 11005 bound_to 11000
  145.5707  141.0394  143.2176 LP  0  0  0  0  0  0  0  0  0  0  0  0  # atno 17320 bound_to 7965
  144.7493  139.7236  143.7279 LP  0  0  0  0  0  0  0  0  0  0  0  0  # atno 17321 bound_to 7965
  139.4788  144.5255  151.8741 LP  0  0  0  0  0  0  0  0  0  0  0  0  # atno 17342 bound_to 10162
  140.4345  144.2071  150.5889 LP  0  0  0  0  0  0  0  0  0  0  0  0  # atno 17343 bound_to 10162
  156.4593  130.4028  149.6586 LP  0  0  0  0  0  0  0  0  0  0  0  0  # atno 17370 bound_to 10713
  156.3707  130.7529  151.2512 LP  0  0  0  0  0  0  0  0  0  0  0  0  # atno 17371 bound_to 10713
  141.2161  133.7532  156.9497 LP  0  0  0  0  0  0  0  0  0  0  0  0  # atno 17394 bound_to 11000
  140.1273  134.9378  157.2288 LP  0  0  0  0  0  0  0  0  0  0  0  0  # atno 17395 bound_to 11000

$$$$
