AV-unprocessed.smi:2093|AV-procd|sdf|8548|dock5
  -GOLD-   2272011273D 1   1.00000     0.00000
 Structure written by MMmdl.
 30 31  0  0  0  0  0  0  0  0  2 V2000
  150.1785  138.9920  154.9915 C   0  0  0  0  0  0  0  0  0  0  0  0
  150.5880  140.4162  155.4091 C   0  0  2  0  0  0  0  0  0  0  0  0
  150.8811  140.4454  156.8407 N   0  0  0  0  0  0  0  0  0  0  0  0
  152.0004  140.0011  157.4304 C   0  0  0  0  0  0  0  0  0  0  0  0
  152.8979  139.4986  156.7499 O   0  0  0  0  0  0  0  0  0  0  0  0
  152.0098  140.1659  158.7729 N   0  5  0  0  0  0  0  0  0  0  0  0
  152.1214  141.3965  159.2987 C   0  0  0  0  0  0  0  0  0  0  0  0
  151.7242  142.5012  158.6571 N   0  0  0  0  0  0  0  0  0  0  0  0
  151.9391  143.6733  159.3842 C   0  0  0  0  0  0  0  0  0  0  0  0
  152.5223  143.4572  160.6044 C   0  0  0  0  0  0  0  0  0  0  0  0
  152.8213  141.7645  160.8780 S   0  0  0  0  0  0  0  0  0  0  0  0
  149.4911  141.4533  155.0975 C   0  0  2  0  0  0  0  0  0  0  0  0
  148.1749  141.2350  155.8450 C   0  0  0  0  0  0  0  0  0  0  0  0
  147.1930  141.9653  154.9582 C   0  0  0  0  0  0  0  0  0  0  0  0
  147.7279  141.6487  153.5645 C   0  0  0  0  0  0  0  0  0  0  0  0
  149.1216  141.3945  153.7212 O   0  0  0  0  0  0  0  0  0  0  0  0
  149.9986  138.9278  153.9184 H   0  0  0  0  0  0  0  0  0  0  0  0
  149.2683  138.6761  155.5022 H   0  0  0  0  0  0  0  0  0  0  0  0
  150.9599  138.2695  155.2293 H   0  0  0  0  0  0  0  0  0  0  0  0
  151.4872  140.6975  154.8580 H   0  0  0  0  0  0  0  0  0  0  0  0
  150.1770  140.8524  157.4387 H   0  0  0  0  0  0  0  0  0  0  0  0
  151.6469  144.6196  158.9543 H   0  0  0  0  0  0  0  0  0  0  0  0
  152.7943  144.1846  161.3539 H   0  0  0  0  0  0  0  0  0  0  0  0
  149.8547  142.4622  155.3015 H   0  0  0  0  0  0  0  0  0  0  0  0
  147.9251  140.1738  155.8836 H   0  0  0  0  0  0  0  0  0  0  0  0
  148.1936  141.6210  156.8645 H   0  0  0  0  0  0  0  0  0  0  0  0
  146.1614  141.6434  155.1024 H   0  0  0  0  0  0  0  0  0  0  0  0
  147.2468  143.0386  155.1467 H   0  0  0  0  0  0  0  0  0  0  0  0
  147.2560  140.7495  153.1669 H   0  0  0  0  0  0  0  0  0  0  0  0
  147.5506  142.4631  152.8617 H   0  0  0  0  0  0  0  0  0  0  0  0
  1  2  1  0  0  0  0
  1 17  1  0  0  0  0
  1 18  1  0  0  0  0
  1 19  1  0  0  0  0
  2  3  1  0  0  0  0
  2 12  1  0  0  0  0
  2 20  1  0  0  0  0
  3  4  1  0  0  0  0
  3 21  1  0  0  0  0
  4  5  2  0  0  0  0
  4  6  1  0  0  0  0
  6  7  1  0  0  0  0
  7 11  1  0  0  0  0
  7  8  2  0  0  0  0
  8  9  1  0  0  0  0
  9 10  2  0  0  0  0
  9 22  1  0  0  0  0
 10 11  1  0  0  0  0
 10 23  1  0  0  0  0
 12 16  1  0  0  0  0
 12 13  1  0  0  0  0
 12 24  1  0  0  0  0
 13 14  1  0  0  0  0
 13 25  1  0  0  0  0
 13 26  1  0  0  0  0
 14 15  1  0  0  0  0
 14 27  1  0  0  0  0
 14 28  1  0  0  0  0
 15 16  1  0  0  0  0
 15 29  1  0  0  0  0
 15 30  1  0  0  0  0
M  CHG  1   6  -1
M  END
> <s_m_source_file>
AV-unprocessed.smi

> <i_m_source_file_index>
2093

> <i_lp_mmshare_version>
43012

> <i_f3d_flags>
0

> <s_epik_input>
TzFbQ0gyXVtDSDJdW0NIMl1bQ0BIXTFbQ0BIXShbQ0gzXSlbTkhdQyg9TylbTkhdYzJuW2NIXVtjSF1zMg==

> <s_epik_cmdline>
J2VwaWtfcHl0aG9uJywgJy1waCcsICc3LjAnLCAnLXRuJywgJzgnLCAnLW1hJywgJzIwMCcsICctbWV0YWxfYmluZGluZycsICctaW1hZScsICc8aW5maWxlLm1hZT4nLCAnLW9tYWUnLCAnPG91dGZpbGUubWFlPic=

> <r_lp_tautomer_probability>
0.999

> <r_epik_Ionization_Penalty>
8.26346

> <r_epik_Ionization_Penalty_Charging>
6.6559

> <r_epik_Ionization_Penalty_Neutral>
1.60756

> <r_epik_State_Penalty>
6.65607

> <r_epik_Charging_Adjusted_Penalty>
13.312

> <i_epik_Tot_Q>
-1

> <i_epik_Tot_abs_Q>
1

> <r_epik_Metal_State_Penalty>
2.5789

> <b_epik_Metal_Only>
1

> <s_lp_Force_Field>
OPLS_2005

> <r_lp_Energy>
13.8271

> <b_lp_Chiralities_Consistent>
1

> <s_lp_Variant>
AV-unprocessed.smi:2093-5

> <Gold.Version>
5.8.1

> <Gold.Id.Protein>
6NUR|6NUR_protein|mol2

> <Gold.PLP.Fitness>
35.0651

> <Gold.PLP.PLP>
-31.8261

> <Gold.PLP.part.hbond>
-2.6968

> <Gold.PLP.part.metal>
0.0000

> <Gold.PLP.part.buried>
-4.1587

> <Gold.PLP.part.nonpolar>
-25.9129

> <Gold.PLP.part.repulsive>
1.0785

> <Gold.PLP.ligand.clash>
0.0000

> <Gold.PLP.ligand.torsion>
1.0967

> <Gold.PLP.Chemscore.Hbond>
1.8000

> <Gold.PLP.Chemscore.CHOScore>
0.0000

> <Gold.PLP.Chemscore.Metal>
0.0000

> <Gold.Chemscore.Hbonds>
donor molecule, donor type, donor heavy atom, donor atom, acceptor molecule, acceptor atom, score
      P1  H  7997  8010       L1     5  1.00
      P1  H  8011  8017       L1    16  0.82

> <Gold.PLP.Chemscore.Internal.Correction>
0.0325

> <Gold.Rescore>
     Score         DG    S(hbond)    S(metal)    S(lipo)     H(rot)  DE(clash)    DE(int)     intcor
     12.84     -15.31       1.52        0.00      68.44       1.28       0.06       2.40       ----

> <Gold.Chemscore.Fitness>
12.8449

> <Gold.Chemscore.DG>
-15.3071

> <Gold.Chemscore.ZeroCoef>
-5.4800

> <Gold.Chemscore.Hbond>
1.5242

> <Gold.Chemscore.Metal>
0.0000

> <Gold.Chemscore.Lipo>
68.4392

> <Gold.Chemscore.Internal_Hbond>
0.0000

> <Gold.Chemscore.DEClash>
0.0624

> <Gold.Chemscore.DEInternal>
2.3998

> <Gold.Chemscore.Rot>
1.2778

> <Gold.Chemscore.Internal.Correction>
   9.000000E+99

> <Gold.Chemscore.Hbonds>
donor molecule, donor type, donor heavy atom, donor atom, acceptor molecule, acceptor atom, score
      P1  H  7997  8010       L1     5  0.97
      P1  H  8011  8017       L1    16  0.21

> <Gold.Chemscore.Hbond.Weighted>
-5.0909

> <Gold.Chemscore.Metal.Weighted>
-0.0000

> <Gold.Chemscore.Lipo.Weighted>
-8.0074

> <Gold.Chemscore.Internal_Hbond.Weighted>
0.0000

> <Gold.Chemscore.DEClash.Weighted>
0.0624

> <Gold.Chemscore.DEInternal.Weighted>
2.3998

> <Gold.Chemscore.Rot.Weighted>
3.2711

> <Gold.Chemscore.Internal.Correction.Weighted>
   9.000000E+99

> <Gold.Protein.RotatedTorsions>
[ 6907 6896 6895 6894 ] final  179.03 input  -60.11 | X-H torsion
[ 7974 7965 7964 7962 ] final   61.46 input  175.53 | X-H torsion
[ 8008 7997 7996 7995 ] final   83.23 input   59.86 | X-H torsion
[ 10167 10162 10161 10158 ] final  177.29 input  -65.29 | X-H torsion
[ 10718 10713 10712 10709 ] final  -71.01 input   66.30 | X-H torsion
[ 10763 10752 10751 10750 ] final   36.80 input  -60.55 | X-H torsion
[ 11005 11000 10999 10996 ] final -123.14 input  -57.11 | X-H torsion

> <Gold.Protein.ActiveResidues>
 VAL166  LYS551  ARG553  GLY616  TRP617  ASP618  TYR619  PRO620  LYS621  CYS622 
 ASP623  PHE694  ASN695  SER759  ASP760  ASP761  ALA762  ILE779  LEU786  VAL792 
 PHE793  MET794  SER795  GLU796  ALA797  LYS798  CYS799  TRP800  GLU811  SER814 

> <Gold.Protein.RotatedAtoms>
  151.6783  133.3312  159.3212 H   0  0  0  0  0  0  0  0  0  0  0  0  # atno 6907 bound_to 6896
  150.7835  134.6803  159.6450 H   0  0  0  0  0  0  0  0  0  0  0  0  # atno 6908 bound_to 6896
  152.3899  134.6462  160.0163 H   0  0  0  0  0  0  0  0  0  0  0  0  # atno 6909 bound_to 6896
  145.8845  139.3466  143.0686 H   0  0  0  0  0  0  0  0  0  0  0  0  # atno 7974 bound_to 7965
  155.9212  140.3421  155.6174 H   0  0  0  0  0  0  0  0  0  0  0  0  # atno 8008 bound_to 7997
  155.7271  140.0791  157.2324 H   0  0  0  0  0  0  0  0  0  0  0  0  # atno 8009 bound_to 7997
  154.4070  140.1595  156.2454 H   0  0  0  0  0  0  0  0  0  0  0  0  # atno 8010 bound_to 7997
  139.5247  144.2815  152.0542 H   0  0  0  0  0  0  0  0  0  0  0  0  # atno 10167 bound_to 10162
  156.0382  130.4343  150.2380 H   0  0  0  0  0  0  0  0  0  0  0  0  # atno 10718 bound_to 10713
  153.0062  135.6295  154.2043 H   0  0  0  0  0  0  0  0  0  0  0  0  # atno 10763 bound_to 10752
  154.1787  135.2814  155.3060 H   0  0  0  0  0  0  0  0  0  0  0  0  # atno 10764 bound_to 10752
  154.5852  135.5635  153.7284 H   0  0  0  0  0  0  0  0  0  0  0  0  # atno 10765 bound_to 10752
  140.9942  134.0496  157.3618 H   0  0  0  0  0  0  0  0  0  0  0  0  # atno 11005 bound_to 11000
  145.8984  140.9259  143.0516 LP  0  0  0  0  0  0  0  0  0  0  0  0  # atno 17320 bound_to 7965
  144.6728  140.0999  143.7461 LP  0  0  0  0  0  0  0  0  0  0  0  0  # atno 17321 bound_to 7965
  140.2270  144.4408  150.6316 LP  0  0  0  0  0  0  0  0  0  0  0  0  # atno 17342 bound_to 10162
  140.6381  143.2198  151.6351 LP  0  0  0  0  0  0  0  0  0  0  0  0  # atno 17343 bound_to 10162
  157.0477  131.0053  151.3263 LP  0  0  0  0  0  0  0  0  0  0  0  0  # atno 17370 bound_to 10713
  157.5163  130.7970  149.7760 LP  0  0  0  0  0  0  0  0  0  0  0  0  # atno 17371 bound_to 10713
  139.9006  135.0163  156.7251 LP  0  0  0  0  0  0  0  0  0  0  0  0  # atno 17394 bound_to 11000
  140.6993  133.9321  155.8014 LP  0  0  0  0  0  0  0  0  0  0  0  0  # atno 17395 bound_to 11000

$$$$
