AV-unprocessed.smi:3041|AV-procd|sdf|11598|dock10
  -GOLD-   2272016573D 1   1.00000     0.00000
 Structure written by MMmdl.
 38 39  0  0  0  0  0  0  0  0  1 V2000
  143.7603  132.4553  149.9052 C   0  0  0  0  0  0  0  0  0  0  0  0
  144.3764  133.4660  150.7376 N   0  0  0  0  0  0  0  0  0  0  0  0
  143.8493  134.1177  151.8314 C   0  0  0  0  0  0  0  0  0  0  0  0
  144.8024  134.9820  152.2921 C   0  0  0  0  0  0  0  0  0  0  0  0
  144.7379  135.9153  153.4719 C   0  0  0  0  0  0  0  0  0  0  0  0
  145.8983  135.7122  154.4636 C   0  0  0  0  0  0  0  0  0  0  0  0
  147.0970  136.4498  154.0714 N   0  0  0  0  0  0  0  0  0  0  0  0
  147.5380  137.5793  154.6442 C   0  0  0  0  0  0  0  0  0  0  0  0
  146.9842  138.1330  155.5941 O   0  0  0  0  0  0  0  0  0  0  0  0
  148.6500  138.0328  154.0500 N   0  0  0  0  0  0  0  0  0  0  0  0
  149.3862  139.2326  154.4347 C   0  0  0  0  0  0  0  0  0  0  0  0
  150.6811  138.8672  155.1789 C   0  0  1  0  0  0  0  0  0  0  0  0
  151.6958  138.0988  154.3544 C   0  0  0  0  0  0  0  0  0  0  0  0
  152.9789  138.3184  155.1503 C   0  0  0  0  0  0  0  0  0  0  0  0
  152.8420  139.5949  155.7684 O   0  0  0  0  0  0  0  0  0  0  0  0
  151.5104  140.0756  155.6111 C   0  0  0  0  0  0  0  0  0  0  0  0
  145.8900  134.7831  151.3944 C   0  0  0  0  0  0  0  0  0  0  0  0
  145.6316  133.8773  150.4656 N   0  0  0  0  0  0  0  0  0  0  0  0
  142.8446  132.0931  150.3733 H   0  0  0  0  0  0  0  0  0  0  0  0
  144.4437  131.6160  149.7709 H   0  0  0  0  0  0  0  0  0  0  0  0
  143.5177  132.8799  148.9307 H   0  0  0  0  0  0  0  0  0  0  0  0
  142.8530  133.9104  152.1927 H   0  0  0  0  0  0  0  0  0  0  0  0
  144.7464  136.9516  153.1328 H   0  0  0  0  0  0  0  0  0  0  0  0
  143.7933  135.7922  154.0031 H   0  0  0  0  0  0  0  0  0  0  0  0
  145.5839  135.9894  155.4713 H   0  0  0  0  0  0  0  0  0  0  0  0
  146.1560  134.6539  154.5086 H   0  0  0  0  0  0  0  0  0  0  0  0
  147.6251  136.0748  153.2971 H   0  0  0  0  0  0  0  0  0  0  0  0
  149.0211  137.5040  153.2744 H   0  0  0  0  0  0  0  0  0  0  0  0
  149.6137  139.8002  153.5317 H   0  0  0  0  0  0  0  0  0  0  0  0
  148.7810  139.8845  155.0668 H   0  0  0  0  0  0  0  0  0  0  0  0
  150.4360  138.2821  156.0672 H   0  0  0  0  0  0  0  0  0  0  0  0
  151.4466  137.0437  154.2368 H   0  0  0  0  0  0  0  0  0  0  0  0
  151.7930  138.5405  153.3614 H   0  0  0  0  0  0  0  0  0  0  0  0
  153.0759  137.5638  155.9319 H   0  0  0  0  0  0  0  0  0  0  0  0
  153.8694  138.2725  154.5233 H   0  0  0  0  0  0  0  0  0  0  0  0
  151.5121  140.8419  154.8347 H   0  0  0  0  0  0  0  0  0  0  0  0
  151.1394  140.5283  156.5309 H   0  0  0  0  0  0  0  0  0  0  0  0
  146.8565  135.2649  151.3943 H   0  0  0  0  0  0  0  0  0  0  0  0
  1  2  1  0  0  0  0
  1 19  1  0  0  0  0
  1 20  1  0  0  0  0
  1 21  1  0  0  0  0
  2 18  1  0  0  0  0
  2  3  1  0  0  0  0
  3  4  2  0  0  0  0
  3 22  1  0  0  0  0
  4  5  1  0  0  0  0
  4 17  1  0  0  0  0
  5  6  1  0  0  0  0
  5 23  1  0  0  0  0
  5 24  1  0  0  0  0
  6  7  1  0  0  0  0
  6 25  1  0  0  0  0
  6 26  1  0  0  0  0
  7  8  1  0  0  0  0
  7 27  1  0  0  0  0
  8  9  2  0  0  0  0
  8 10  1  0  0  0  0
 10 11  1  0  0  0  0
 10 28  1  0  0  0  0
 11 12  1  0  0  0  0
 11 29  1  0  0  0  0
 11 30  1  0  0  0  0
 12 16  1  0  0  0  0
 12 13  1  0  0  0  0
 12 31  1  0  0  0  0
 13 14  1  0  0  0  0
 13 32  1  0  0  0  0
 13 33  1  0  0  0  0
 14 15  1  0  0  0  0
 14 34  1  0  0  0  0
 14 35  1  0  0  0  0
 15 16  1  0  0  0  0
 16 36  1  0  0  0  0
 16 37  1  0  0  0  0
 17 18  2  0  0  0  0
 17 38  1  0  0  0  0
M  END
> <s_m_source_file>
AV-unprocessed.smi

> <i_m_source_file_index>
3041

> <i_lp_mmshare_version>
43012

> <i_f3d_flags>
0

> <s_epik_input>
W0NIM11uMVtjSF1jKFtjSF1uMSlbQ0gyXVtDSDJdW05IXUMoPU8pW05IXVtDSDJdW0NAQEhdMltDSDJdW0NIMl1PW0NIMl0y

> <s_epik_cmdline>
J2VwaWtfcHl0aG9uJywgJy1waCcsICc3LjAnLCAnLXRuJywgJzgnLCAnLW1hJywgJzIwMCcsICctbWV0YWxfYmluZGluZycsICctaW1hZScsICc8aW5maWxlLm1hZT4nLCAnLW9tYWUnLCAnPG91dGZpbGUubWFlPic=

> <r_lp_tautomer_probability>
1

> <r_epik_Ionization_Penalty>
0.000557811

> <r_epik_Ionization_Penalty_Charging>
0

> <r_epik_Ionization_Penalty_Neutral>
0.000557811

> <r_epik_State_Penalty>
-0

> <r_epik_Charging_Adjusted_Penalty>
0

> <i_epik_Tot_Q>
0

> <i_epik_Tot_abs_Q>
0

> <r_epik_Metal_State_Penalty>
-0

> <b_epik_Metal_Only>
0

> <s_lp_Force_Field>
OPLS_2005

> <r_lp_Energy>
14.3495

> <b_lp_Chiralities_Consistent>
1

> <s_lp_Variant>
AV-unprocessed.smi:3041-2

> <Gold.Version>
5.8.1

> <Gold.Id.Protein>
6NUR|6NUR_protein|mol2

> <Gold.PLP.Fitness>
41.5015

> <Gold.PLP.PLP>
-30.2127

> <Gold.PLP.part.hbond>
-3.0000

> <Gold.PLP.part.metal>
0.0000

> <Gold.PLP.part.buried>
-4.5828

> <Gold.PLP.part.nonpolar>
-23.3570

> <Gold.PLP.part.repulsive>
0.8958

> <Gold.PLP.ligand.clash>
0.0000

> <Gold.PLP.ligand.torsion>
0.3614

> <Gold.PLP.Chemscore.Hbond>
3.0000

> <Gold.PLP.Chemscore.CHOScore>
1.0000

> <Gold.PLP.Chemscore.Metal>
0.0000

> <Gold.Chemscore.Hbonds>
donor molecule, donor type, donor heavy atom, donor atom, acceptor molecule, acceptor atom, score
      L1  H     7    27       P1  7948  1.00
      L1  H    10    28       P1  7948  1.00
      P1  H  7997  8008       L1    15  1.00
      L1  C    17    38       P1  7948  1.00

> <Gold.PLP.Chemscore.Internal.Correction>
0.0116

> <Gold.Rescore>
     Score         DG    S(hbond)    S(metal)    S(lipo)     H(rot)  DE(clash)    DE(int)     intcor
     17.71     -18.13       2.93        0.00      65.01       1.85       0.09       0.33       ----

> <Gold.Chemscore.Fitness>
17.7127

> <Gold.Chemscore.DG>
-18.1348

> <Gold.Chemscore.ZeroCoef>
-5.4800

> <Gold.Chemscore.Hbond>
2.9318

> <Gold.Chemscore.Metal>
0.0000

> <Gold.Chemscore.Lipo>
65.0083

> <Gold.Chemscore.Internal_Hbond>
0.0000

> <Gold.Chemscore.DEClash>
0.0875

> <Gold.Chemscore.DEInternal>
0.3346

> <Gold.Chemscore.Rot>
1.8528

> <Gold.Chemscore.Internal.Correction>
   9.000000E+99

> <Gold.Chemscore.Hbonds>
donor molecule, donor type, donor heavy atom, donor atom, acceptor molecule, acceptor atom, score
      L1  H     7    27       P1  7948  0.96
      L1  H    10    28       P1  7948  0.99
      P1  H  7997  8008       L1    15  0.65

> <Gold.Chemscore.Hbond.Weighted>
-9.7921

> <Gold.Chemscore.Metal.Weighted>
-0.0000

> <Gold.Chemscore.Lipo.Weighted>
-7.6060

> <Gold.Chemscore.Internal_Hbond.Weighted>
0.0000

> <Gold.Chemscore.DEClash.Weighted>
0.0875

> <Gold.Chemscore.DEInternal.Weighted>
0.3346

> <Gold.Chemscore.Rot.Weighted>
4.7433

> <Gold.Chemscore.Internal.Correction.Weighted>
   9.000000E+99

> <Gold.Protein.RotatedTorsions>
[ 6907 6896 6895 6894 ] final   31.18 input  -60.11 | X-H torsion
[ 7974 7965 7964 7962 ] final    7.36 input  175.53 | X-H torsion
[ 8008 7997 7996 7995 ] final  -33.36 input   59.86 | X-H torsion
[ 10167 10162 10161 10158 ] final    4.39 input  -65.29 | X-H torsion
[ 10718 10713 10712 10709 ] final  -90.01 input   66.30 | X-H torsion
[ 10763 10752 10751 10750 ] final   30.08 input  -60.55 | X-H torsion
[ 11005 11000 10999 10996 ] final   51.85 input  -57.11 | X-H torsion

> <Gold.Protein.ActiveResidues>
 VAL166  LYS551  ARG553  GLY616  TRP617  ASP618  TYR619  PRO620  LYS621  CYS622 
 ASP623  PHE694  ASN695  SER759  ASP760  ASP761  ALA762  ILE779  LEU786  VAL792 
 PHE793  MET794  SER795  GLU796  ALA797  LYS798  CYS799  TRP800  GLU811  SER814 

> <Gold.Protein.RotatedAtoms>
  152.0566  134.9620  160.0574 H   0  0  0  0  0  0  0  0  0  0  0  0  # atno 6907 bound_to 6896
  152.1000  133.4240  159.4591 H   0  0  0  0  0  0  0  0  0  0  0  0  # atno 6908 bound_to 6896
  150.6839  134.2691  159.4624 H   0  0  0  0  0  0  0  0  0  0  0  0  # atno 6909 bound_to 6896
  146.2427  140.0095  142.8408 H   0  0  0  0  0  0  0  0  0  0  0  0  # atno 7974 bound_to 7965
  154.4151  140.1713  156.1875 H   0  0  0  0  0  0  0  0  0  0  0  0  # atno 8008 bound_to 7997
  155.9631  140.3392  155.6484 H   0  0  0  0  0  0  0  0  0  0  0  0  # atno 8009 bound_to 7997
  155.6723  140.0713  157.2506 H   0  0  0  0  0  0  0  0  0  0  0  0  # atno 8010 bound_to 7997
  140.6537  143.7481  150.7617 H   0  0  0  0  0  0  0  0  0  0  0  0  # atno 10167 bound_to 10162
  155.9986  130.4893  150.5257 H   0  0  0  0  0  0  0  0  0  0  0  0  # atno 10718 bound_to 10713
  153.0393  135.6473  154.0989 H   0  0  0  0  0  0  0  0  0  0  0  0  # atno 10763 bound_to 10752
  154.0698  135.2881  155.3311 H   0  0  0  0  0  0  0  0  0  0  0  0  # atno 10764 bound_to 10752
  154.6602  135.5394  153.8073 H   0  0  0  0  0  0  0  0  0  0  0  0  # atno 10765 bound_to 10752
  140.0898  134.5225  155.8863 H   0  0  0  0  0  0  0  0  0  0  0  0  # atno 11005 bound_to 11000
  145.1340  140.9534  143.4527 LP  0  0  0  0  0  0  0  0  0  0  0  0  # atno 17320 bound_to 7965
  145.0360  139.3300  143.6001 LP  0  0  0  0  0  0  0  0  0  0  0  0  # atno 17321 bound_to 7965
  140.1137  143.4676  152.2355 LP  0  0  0  0  0  0  0  0  0  0  0  0  # atno 17342 bound_to 10162
  139.5756  144.7485  151.3775 LP  0  0  0  0  0  0  0  0  0  0  0  0  # atno 17343 bound_to 10162
  157.3213  131.0682  151.1930 LP  0  0  0  0  0  0  0  0  0  0  0  0  # atno 17370 bound_to 10713
  157.2842  130.6765  149.6081 LP  0  0  0  0  0  0  0  0  0  0  0  0  # atno 17371 bound_to 10713
  141.2074  133.6664  156.6304 LP  0  0  0  0  0  0  0  0  0  0  0  0  # atno 17394 bound_to 11000
  140.3368  134.7882  157.4368 LP  0  0  0  0  0  0  0  0  0  0  0  0  # atno 17395 bound_to 11000

$$$$
