AV-unprocessed.smi:1660|AV-procd|sdf|6652|dock1
  -GOLD-   22720 7353D 1   1.00000     0.00000
 Structure written by MMmdl.
 42 43  0  0  0  0  0  0  0  0  1 V2000
  150.7707  142.1739  157.9314 C   0  0  0  0  0  0  0  0  0  0  0  0
  150.8859  141.9477  156.5307 O   0  0  0  0  0  0  0  0  0  0  0  0
  150.5266  140.7112  156.0348 C   0  0  0  0  0  0  0  0  0  0  0  0
  150.3861  139.6383  156.9370 C   0  0  0  0  0  0  0  0  0  0  0  0
  150.0207  138.3728  156.4399 C   0  0  0  0  0  0  0  0  0  0  0  0
  149.7974  138.2217  155.0503 C   0  0  0  0  0  0  0  0  0  0  0  0
  149.4415  136.9966  154.4229 N   0  0  0  0  0  0  0  0  0  0  0  0
  149.1082  135.8270  154.9957 C   0  0  0  0  0  0  0  0  0  0  0  0
  149.0271  135.6231  156.2068 O   0  0  0  0  0  0  0  0  0  0  0  0
  148.8495  134.8902  154.0736 N   0  0  0  0  0  0  0  0  0  0  0  0
  148.4528  133.5235  154.3859 C   0  0  0  0  0  0  0  0  0  0  0  0
  147.7660  132.8646  153.1755 C   0  0  0  0  0  0  0  0  0  0  0  0
  146.6612  133.7300  152.5430 C   0  0  0  0  0  0  0  0  0  0  0  0
  146.3487  134.7906  153.0867 O   0  0  0  0  0  0  0  0  0  0  0  0
  146.0658  133.3035  151.4034 N   0  0  0  0  0  0  0  0  0  0  0  0
  146.3585  132.0093  150.7814 C   0  0  0  0  0  0  0  0  0  0  0  0
  145.0957  131.1339  150.8751 C   0  0  0  0  0  0  0  0  0  0  0  0
  144.0045  131.7955  150.2383 O   0  0  0  0  0  0  0  0  0  0  0  0
  143.7190  133.0756  150.7978 C   0  0  0  0  0  0  0  0  0  0  0  0
  144.9666  133.9718  150.7002 C   0  0  0  0  0  0  0  0  0  0  0  0
  149.9771  139.3555  154.2310 C   0  0  0  0  0  0  0  0  0  0  0  0
  150.3274  140.5712  154.7008 N   0  0  0  0  0  0  0  0  0  0  0  0
  151.0892  143.1908  158.1593 H   0  0  0  0  0  0  0  0  0  0  0  0
  151.4065  141.4928  158.4991 H   0  0  0  0  0  0  0  0  0  0  0  0
  149.7389  142.0673  158.2695 H   0  0  0  0  0  0  0  0  0  0  0  0
  150.5605  139.7821  157.9932 H   0  0  0  0  0  0  0  0  0  0  0  0
  149.9338  137.5487  157.1304 H   0  0  0  0  0  0  0  0  0  0  0  0
  149.3864  137.0282  153.4152 H   0  0  0  0  0  0  0  0  0  0  0  0
  148.9327  135.1359  153.0981 H   0  0  0  0  0  0  0  0  0  0  0  0
  149.3386  132.9558  154.6769 H   0  0  0  0  0  0  0  0  0  0  0  0
  147.7772  133.5345  155.2435 H   0  0  0  0  0  0  0  0  0  0  0  0
  148.5188  132.6496  152.4159 H   0  0  0  0  0  0  0  0  0  0  0  0
  147.3311  131.9126  153.4827 H   0  0  0  0  0  0  0  0  0  0  0  0
  146.6351  132.1616  149.7372 H   0  0  0  0  0  0  0  0  0  0  0  0
  147.2007  131.4933  151.2447 H   0  0  0  0  0  0  0  0  0  0  0  0
  145.2633  130.1751  150.3843 H   0  0  0  0  0  0  0  0  0  0  0  0
  144.8467  130.9218  151.9163 H   0  0  0  0  0  0  0  0  0  0  0  0
  142.8886  133.5225  150.2510 H   0  0  0  0  0  0  0  0  0  0  0  0
  143.3983  132.9669  151.8352 H   0  0  0  0  0  0  0  0  0  0  0  0
  144.7373  134.9658  151.0805 H   0  0  0  0  0  0  0  0  0  0  0  0
  145.2429  134.1127  149.6542 H   0  0  0  0  0  0  0  0  0  0  0  0
  149.8312  139.2882  153.1628 H   0  0  0  0  0  0  0  0  0  0  0  0
  1  2  1  0  0  0  0
  1 23  1  0  0  0  0
  1 24  1  0  0  0  0
  1 25  1  0  0  0  0
  2  3  1  0  0  0  0
  3 22  1  0  0  0  0
  3  4  2  0  0  0  0
  4  5  1  0  0  0  0
  4 26  1  0  0  0  0
  5  6  2  0  0  0  0
  5 27  1  0  0  0  0
  6  7  1  0  0  0  0
  6 21  1  0  0  0  0
  7  8  1  0  0  0  0
  7 28  1  0  0  0  0
  8  9  2  0  0  0  0
  8 10  1  0  0  0  0
 10 11  1  0  0  0  0
 10 29  1  0  0  0  0
 11 12  1  0  0  0  0
 11 30  1  0  0  0  0
 11 31  1  0  0  0  0
 12 13  1  0  0  0  0
 12 32  1  0  0  0  0
 12 33  1  0  0  0  0
 13 14  2  0  0  0  0
 13 15  1  0  0  0  0
 15 20  1  0  0  0  0
 15 16  1  0  0  0  0
 16 17  1  0  0  0  0
 16 34  1  0  0  0  0
 16 35  1  0  0  0  0
 17 18  1  0  0  0  0
 17 36  1  0  0  0  0
 17 37  1  0  0  0  0
 18 19  1  0  0  0  0
 19 20  1  0  0  0  0
 19 38  1  0  0  0  0
 19 39  1  0  0  0  0
 20 40  1  0  0  0  0
 20 41  1  0  0  0  0
 21 22  2  0  0  0  0
 21 42  1  0  0  0  0
M  END
> <s_m_source_file>
AV-unprocessed.smi

> <i_m_source_file_index>
1660

> <i_lp_mmshare_version>
43012

> <i_f3d_flags>
0

> <s_epik_input>
W0NIM11PYzFbY0hdW2NIXWMoW2NIXW4xKVtOSF1DKD1PKVtOSF1bQ0gyXVtDSDJdQyg9TylOMltDSDJdW0NIMl1PW0NIMl1bQ0gyXTI=

> <s_epik_cmdline>
J2VwaWtfcHl0aG9uJywgJy1waCcsICc3LjAnLCAnLXRuJywgJzgnLCAnLW1hJywgJzIwMCcsICctbWV0YWxfYmluZGluZycsICctaW1hZScsICc8aW5maWxlLm1hZT4nLCAnLW9tYWUnLCAnPG91dGZpbGUubWFlPic=

> <r_lp_tautomer_probability>
1

> <r_epik_Ionization_Penalty>
8.54597e-05

> <r_epik_Ionization_Penalty_Charging>
0

> <r_epik_Ionization_Penalty_Neutral>
8.54597e-05

> <r_epik_State_Penalty>
-0

> <r_epik_Charging_Adjusted_Penalty>
0

> <i_epik_Tot_Q>
0

> <i_epik_Tot_abs_Q>
0

> <r_epik_Metal_State_Penalty>
-0

> <b_epik_Metal_Only>
0

> <s_lp_Force_Field>
OPLS_2005

> <r_lp_Energy>
25.5639

> <b_lp_Chiralities_Consistent>
1

> <s_lp_Variant>
AV-unprocessed.smi:1660-1

> <Gold.Version>
5.8.1

> <Gold.Id.Protein>
6NUR|6NUR_protein|mol2

> <Gold.PLP.Fitness>
43.7233

> <Gold.PLP.PLP>
-32.5104

> <Gold.PLP.part.hbond>
-3.0535

> <Gold.PLP.part.metal>
0.0000

> <Gold.PLP.part.buried>
-3.3132

> <Gold.PLP.part.nonpolar>
-26.0221

> <Gold.PLP.part.repulsive>
0.4783

> <Gold.PLP.ligand.clash>
0.0000

> <Gold.PLP.ligand.torsion>
0.4146

> <Gold.PLP.Chemscore.Hbond>
3.0000

> <Gold.PLP.Chemscore.CHOScore>
1.0000

> <Gold.PLP.Chemscore.Metal>
0.0000

> <Gold.Chemscore.Hbonds>
donor molecule, donor type, donor heavy atom, donor atom, acceptor molecule, acceptor atom, score
      L1  H     7    28       P1  7948  1.00
      L1  H    10    29       P1  7948  1.00
      P1  H  7989  7998       L1    22  0.74
      P1  H 10785 10796       L1    18  0.12
      L1  C    21    42       P1  7957  1.00

> <Gold.PLP.Chemscore.Internal.Correction>
0.0421

> <Gold.Rescore>
     Score         DG    S(hbond)    S(metal)    S(lipo)     H(rot)  DE(clash)    DE(int)     intcor
     12.67     -15.87       2.19        0.00      67.64       1.88       0.07       3.13       ----

> <Gold.Chemscore.Fitness>
12.6676

> <Gold.Chemscore.DG>
-15.8722

> <Gold.Chemscore.ZeroCoef>
-5.4800

> <Gold.Chemscore.Hbond>
2.1851

> <Gold.Chemscore.Metal>
0.0000

> <Gold.Chemscore.Lipo>
67.6403

> <Gold.Chemscore.Internal_Hbond>
0.0000

> <Gold.Chemscore.DEClash>
0.0699

> <Gold.Chemscore.DEInternal>
3.1347

> <Gold.Chemscore.Rot>
1.8828

> <Gold.Chemscore.Internal.Correction>
   9.000000E+99

> <Gold.Chemscore.Hbonds>
donor molecule, donor type, donor heavy atom, donor atom, acceptor molecule, acceptor atom, score
      L1  H     7    28       P1  7948  0.89
      L1  H    10    29       P1  7948  0.29
      P1  H  7989  7998       L1    22  0.11
      P1  H 10785 10796       L1    18  0.05

> <Gold.Chemscore.Hbond.Weighted>
-7.2983

> <Gold.Chemscore.Metal.Weighted>
-0.0000

> <Gold.Chemscore.Lipo.Weighted>
-7.9139

> <Gold.Chemscore.Internal_Hbond.Weighted>
0.0000

> <Gold.Chemscore.DEClash.Weighted>
0.0699

> <Gold.Chemscore.DEInternal.Weighted>
3.1347

> <Gold.Chemscore.Rot.Weighted>
4.8200

> <Gold.Chemscore.Internal.Correction.Weighted>
   9.000000E+99

> <Gold.Protein.RotatedTorsions>
[ 6907 6896 6895 6894 ] final -126.65 input  -60.11 | X-H torsion
[ 7974 7965 7964 7962 ] final   28.30 input  175.53 | X-H torsion
[ 8008 7997 7996 7995 ] final  -84.25 input   59.86 | X-H torsion
[ 10167 10162 10161 10158 ] final   53.55 input  -65.29 | X-H torsion
[ 10718 10713 10712 10709 ] final  156.67 input   66.30 | X-H torsion
[ 10763 10752 10751 10750 ] final  113.19 input  -60.55 | X-H torsion
[ 11005 11000 10999 10996 ] final   19.31 input  -57.11 | X-H torsion

> <Gold.Protein.ActiveResidues>
 VAL166  LYS551  ARG553  GLY616  TRP617  ASP618  TYR619  PRO620  LYS621  CYS622 
 ASP623  PHE694  ASN695  SER759  ASP760  ASP761  ALA762  ILE779  LEU786  VAL792 
 PHE793  MET794  SER795  GLU796  ALA797  LYS798  CYS799  TRP800  GLU811  SER814 

> <Gold.Protein.RotatedAtoms>
  150.8991  133.7141  159.2883 H   0  0  0  0  0  0  0  0  0  0  0  0  # atno 6907 bound_to 6896
  151.4666  135.1041  159.9749 H   0  0  0  0  0  0  0  0  0  0  0  0  # atno 6908 bound_to 6896
  152.4866  133.8342  159.7174 H   0  0  0  0  0  0  0  0  0  0  0  0  # atno 6909 bound_to 6896
  146.1736  139.7074  142.8950 H   0  0  0  0  0  0  0  0  0  0  0  0  # atno 7974 bound_to 7965
  154.6277  140.0607  156.9694 H   0  0  0  0  0  0  0  0  0  0  0  0  # atno 8008 bound_to 7997
  155.1715  140.3291  155.4373 H   0  0  0  0  0  0  0  0  0  0  0  0  # atno 8009 bound_to 7997
  156.2466  140.1913  156.6817 H   0  0  0  0  0  0  0  0  0  0  0  0  # atno 8010 bound_to 7997
  140.2395  144.3599  150.6385 H   0  0  0  0  0  0  0  0  0  0  0  0  # atno 10167 bound_to 10162
  157.2018  131.0678  151.2020 H   0  0  0  0  0  0  0  0  0  0  0  0  # atno 10718 bound_to 10713
  153.4888  135.3663  155.2481 H   0  0  0  0  0  0  0  0  0  0  0  0  # atno 10763 bound_to 10752
  154.8753  135.3972  154.3613 H   0  0  0  0  0  0  0  0  0  0  0  0  # atno 10764 bound_to 10752
  153.4229  135.7080  153.6347 H   0  0  0  0  0  0  0  0  0  0  0  0  # atno 10765 bound_to 10752
  140.4151  134.1577  155.7669 H   0  0  0  0  0  0  0  0  0  0  0  0  # atno 11005 bound_to 11000
  145.4272  141.0412  143.2931 LP  0  0  0  0  0  0  0  0  0  0  0  0  # atno 17320 bound_to 7965
  144.8201  139.5806  143.6990 LP  0  0  0  0  0  0  0  0  0  0  0  0  # atno 17321 bound_to 7965
  140.6124  143.2170  151.6859 LP  0  0  0  0  0  0  0  0  0  0  0  0  # atno 17342 bound_to 10162
  139.5082  144.3620  152.0553 LP  0  0  0  0  0  0  0  0  0  0  0  0  # atno 17343 bound_to 10162
  157.3759  130.7205  149.6596 LP  0  0  0  0  0  0  0  0  0  0  0  0  # atno 17370 bound_to 10713
  155.9699  130.4186  150.4334 LP  0  0  0  0  0  0  0  0  0  0  0  0  # atno 17371 bound_to 10713
  141.1806  133.8422  157.1271 LP  0  0  0  0  0  0  0  0  0  0  0  0  # atno 17394 bound_to 11000
  140.0240  134.9933  157.0648 LP  0  0  0  0  0  0  0  0  0  0  0  0  # atno 17395 bound_to 11000

$$$$
