AV-unprocessed.smi:1356|AV-procd|sdf|5541|dock6
  -GOLD-   22720 5133D 1   1.00000     0.00000
 Structure written by MMmdl.
 41 42  0  0  0  0  0  0  0  0  1 V2000
  144.7593  142.8523  154.9077 C   0  0  0  0  0  0  0  0  0  0  0  0
  145.0796  143.4982  156.2446 C   0  0  1  0  0  0  0  0  0  0  0  0
  144.6444  142.8277  157.5244 C   0  0  0  0  0  0  0  0  0  0  0  0
  146.1223  142.9723  157.2234 C   0  0  1  0  0  0  0  0  0  0  0  0
  146.8946  141.7480  156.8641 C   0  0  0  0  0  0  0  0  0  0  0  0
  146.3751  140.6333  156.8132 O   0  0  0  0  0  0  0  0  0  0  0  0
  148.1792  141.9769  156.5502 N   0  0  0  0  0  0  0  0  0  0  0  0
  149.1372  140.9526  156.1506 C   0  0  0  0  0  0  0  0  0  0  0  0
  150.5418  141.5506  155.9352 C   0  0  0  0  0  0  0  0  0  0  0  0
  151.0389  142.3897  157.1170 C   0  0  0  0  0  0  0  0  0  0  0  0
  151.7901  141.9083  157.9659 O   0  0  0  0  0  0  0  0  0  0  0  0
  150.6047  143.6586  157.1561 N   0  0  0  0  0  0  0  0  0  0  0  0
  150.9317  144.6268  158.1964 C   0  0  0  0  0  0  0  0  0  0  0  0
  152.4311  144.6154  158.5389 C   0  0  0  0  0  0  0  0  0  0  0  0
  152.7227  143.8241  159.7997 C   0  0  0  0  0  0  0  0  0  0  0  0
  152.1878  144.2263  161.0422 C   0  0  0  0  0  0  0  0  0  0  0  0
  152.4992  143.4642  162.1849 C   0  0  0  0  0  0  0  0  0  0  0  0
  153.3293  142.3357  162.0419 C   0  0  0  0  0  0  0  0  0  0  0  0
  153.8139  142.0187  160.7573 C   0  0  0  0  0  0  0  0  0  0  0  0
  153.5225  142.7433  159.6553 N   0  0  0  0  0  0  0  0  0  0  0  0
  144.7388  141.7649  154.9865 H   0  0  0  0  0  0  0  0  0  0  0  0
  145.5064  143.1352  154.1660 H   0  0  0  0  0  0  0  0  0  0  0  0
  143.7823  143.1864  154.5591 H   0  0  0  0  0  0  0  0  0  0  0  0
  144.9994  144.5830  156.2137 H   0  0  0  0  0  0  0  0  0  0  0  0
  144.2369  143.4537  158.3155 H   0  0  0  0  0  0  0  0  0  0  0  0
  144.1982  141.8374  157.4477 H   0  0  0  0  0  0  0  0  0  0  0  0
  146.6825  143.7337  157.7626 H   0  0  0  0  0  0  0  0  0  0  0  0
  148.5177  142.9270  156.5989 H   0  0  0  0  0  0  0  0  0  0  0  0
  149.1628  140.1572  156.8980 H   0  0  0  0  0  0  0  0  0  0  0  0
  148.7766  140.4993  155.2265 H   0  0  0  0  0  0  0  0  0  0  0  0
  151.2604  140.7513  155.7502 H   0  0  0  0  0  0  0  0  0  0  0  0
  150.5406  142.1830  155.0459 H   0  0  0  0  0  0  0  0  0  0  0  0
  149.9910  143.9725  156.4184 H   0  0  0  0  0  0  0  0  0  0  0  0
  150.6401  145.6140  157.8373 H   0  0  0  0  0  0  0  0  0  0  0  0
  150.3342  144.4320  159.0887 H   0  0  0  0  0  0  0  0  0  0  0  0
  153.0046  144.1907  157.7140 H   0  0  0  0  0  0  0  0  0  0  0  0
  152.7933  145.6362  158.6696 H   0  0  0  0  0  0  0  0  0  0  0  0
  151.5566  145.0993  161.1200 H   0  0  0  0  0  0  0  0  0  0  0  0
  152.1097  143.7404  163.1533 H   0  0  0  0  0  0  0  0  0  0  0  0
  153.5896  141.7282  162.8960 H   0  0  0  0  0  0  0  0  0  0  0  0
  154.4539  141.1611  160.6114 H   0  0  0  0  0  0  0  0  0  0  0  0
  1  2  1  0  0  0  0
  1 21  1  0  0  0  0
  1 22  1  0  0  0  0
  1 23  1  0  0  0  0
  2  4  1  0  0  0  0
  2  3  1  0  0  0  0
  2 24  1  0  0  0  0
  3  4  1  0  0  0  0
  3 25  1  0  0  0  0
  3 26  1  0  0  0  0
  4  5  1  0  0  0  0
  4 27  1  0  0  0  0
  5  6  2  0  0  0  0
  5  7  1  0  0  0  0
  7  8  1  0  0  0  0
  7 28  1  0  0  0  0
  8  9  1  0  0  0  0
  8 29  1  0  0  0  0
  8 30  1  0  0  0  0
  9 10  1  0  0  0  0
  9 31  1  0  0  0  0
  9 32  1  0  0  0  0
 10 11  2  0  0  0  0
 10 12  1  0  0  0  0
 12 13  1  0  0  0  0
 12 33  1  0  0  0  0
 13 14  1  0  0  0  0
 13 34  1  0  0  0  0
 13 35  1  0  0  0  0
 14 15  1  0  0  0  0
 14 36  1  0  0  0  0
 14 37  1  0  0  0  0
 15 20  1  0  0  0  0
 15 16  2  0  0  0  0
 16 17  1  0  0  0  0
 16 38  1  0  0  0  0
 17 18  2  0  0  0  0
 17 39  1  0  0  0  0
 18 19  1  0  0  0  0
 18 40  1  0  0  0  0
 19 20  2  0  0  0  0
 19 41  1  0  0  0  0
M  END
> <s_m_source_file>
AV-unprocessed.smi

> <i_m_source_file_index>
1356

> <i_lp_mmshare_version>
43012

> <i_f3d_flags>
0

> <s_epik_input>
W0NIM11bQ0BASF0xW0NIMl1bQ0BIXTFDKD1PKVtOSF1bQ0gyXVtDSDJdQyg9TylbTkhdW0NIMl1bQ0gyXWMyW2NIXVtjSF1bY0hdW2NIXW4y

> <s_epik_cmdline>
J2VwaWtfcHl0aG9uJywgJy1waCcsICc3LjAnLCAnLXRuJywgJzgnLCAnLW1hJywgJzIwMCcsICctbWV0YWxfYmluZGluZycsICctaW1hZScsICc8aW5maWxlLm1hZT4nLCAnLW9tYWUnLCAnPG91dGZpbGUubWFlPic=

> <r_epik_Ionization_Penalty>
0.0258005

> <r_epik_Ionization_Penalty_Charging>
0

> <r_epik_Ionization_Penalty_Neutral>
0.0258005

> <r_epik_State_Penalty>
0.0210245

> <r_epik_Charging_Adjusted_Penalty>
0.0210245

> <i_epik_Tot_Q>
0

> <i_epik_Tot_abs_Q>
0

> <r_epik_Metal_State_Penalty>
0.0201445

> <b_epik_Metal_Only>
0

> <s_lp_Force_Field>
OPLS_2005

> <r_lp_Energy>
8.2515

> <b_lp_Chiralities_Consistent>
1

> <s_lp_Variant>
AV-unprocessed.smi:1356-2

> <Gold.Version>
5.8.1

> <Gold.Id.Protein>
6NUR|6NUR_protein|mol2

> <Gold.PLP.Fitness>
48.6377

> <Gold.PLP.PLP>
-44.1761

> <Gold.PLP.part.hbond>
-2.0000

> <Gold.PLP.part.metal>
0.0000

> <Gold.PLP.part.buried>
-5.2413

> <Gold.PLP.part.nonpolar>
-36.1800

> <Gold.PLP.part.repulsive>
0.0316

> <Gold.PLP.ligand.clash>
0.0000

> <Gold.PLP.ligand.torsion>
0.8297

> <Gold.PLP.Chemscore.Hbond>
1.9920

> <Gold.PLP.Chemscore.CHOScore>
0.0000

> <Gold.PLP.Chemscore.Metal>
0.0000

> <Gold.Chemscore.Hbonds>
donor molecule, donor type, donor heavy atom, donor atom, acceptor molecule, acceptor atom, score
      L1  H     7    28       P1  8028  0.94
      L1  H    12    33       P1  8028  0.98

> <Gold.PLP.Chemscore.Internal.Correction>
0.1451

> <Gold.Rescore>
     Score         DG    S(hbond)    S(metal)    S(lipo)     H(rot)  DE(clash)    DE(int)     intcor
     13.14     -19.32       1.94        0.00     110.64       2.18       0.09       6.10       ----

> <Gold.Chemscore.Fitness>
13.1354

> <Gold.Chemscore.DG>
-19.3216

> <Gold.Chemscore.ZeroCoef>
-5.4800

> <Gold.Chemscore.Hbond>
1.9357

> <Gold.Chemscore.Metal>
0.0000

> <Gold.Chemscore.Lipo>
110.6401

> <Gold.Chemscore.Internal_Hbond>
0.0000

> <Gold.Chemscore.DEClash>
0.0858

> <Gold.Chemscore.DEInternal>
6.1004

> <Gold.Chemscore.Rot>
2.1753

> <Gold.Chemscore.Internal.Correction>
   9.000000E+99

> <Gold.Chemscore.Hbonds>
donor molecule, donor type, donor heavy atom, donor atom, acceptor molecule, acceptor atom, score
      L1  H     7    28       P1  8028  0.70
      L1  H    12    33       P1  8028  0.92

> <Gold.Chemscore.Hbond.Weighted>
-6.4653

> <Gold.Chemscore.Metal.Weighted>
-0.0000

> <Gold.Chemscore.Lipo.Weighted>
-12.9449

> <Gold.Chemscore.Internal_Hbond.Weighted>
0.0000

> <Gold.Chemscore.DEClash.Weighted>
0.0858

> <Gold.Chemscore.DEInternal.Weighted>
6.1004

> <Gold.Chemscore.Rot.Weighted>
5.5687

> <Gold.Chemscore.Internal.Correction.Weighted>
   9.000000E+99

> <Gold.Protein.RotatedTorsions>
[ 6907 6896 6895 6894 ] final   82.03 input  -60.11 | X-H torsion
[ 7974 7965 7964 7962 ] final   39.41 input  175.53 | X-H torsion
[ 8008 7997 7996 7995 ] final  114.03 input   59.86 | X-H torsion
[ 10167 10162 10161 10158 ] final    6.69 input  -65.29 | X-H torsion
[ 10718 10713 10712 10709 ] final   77.04 input   66.30 | X-H torsion
[ 10763 10752 10751 10750 ] final   55.50 input  -60.55 | X-H torsion
[ 11005 11000 10999 10996 ] final  176.16 input  -57.11 | X-H torsion

> <Gold.Protein.ActiveResidues>
 VAL166  LYS551  ARG553  GLY616  TRP617  ASP618  TYR619  PRO620  LYS621  CYS622 
 ASP623  PHE694  ASN695  SER759  ASP760  ASP761  ALA762  ILE779  LEU786  VAL792 
 PHE793  MET794  SER795  GLU796  ALA797  LYS798  CYS799  TRP800  GLU811  SER814 

> <Gold.Protein.RotatedAtoms>
  152.5287  134.3113  159.9114 H   0  0  0  0  0  0  0  0  0  0  0  0  # atno 6907 bound_to 6896
  151.3063  133.4094  159.2651 H   0  0  0  0  0  0  0  0  0  0  0  0  # atno 6908 bound_to 6896
  151.0076  134.9388  159.8046 H   0  0  0  0  0  0  0  0  0  0  0  0  # atno 6909 bound_to 6896
  146.0986  139.5655  142.9429 H   0  0  0  0  0  0  0  0  0  0  0  0  # atno 7974 bound_to 7965
  156.2295  140.2967  156.0153 H   0  0  0  0  0  0  0  0  0  0  0  0  # atno 8008 bound_to 7997
  155.2264  140.0417  157.2973 H   0  0  0  0  0  0  0  0  0  0  0  0  # atno 8009 bound_to 7997
  154.5972  140.2417  155.7849 H   0  0  0  0  0  0  0  0  0  0  0  0  # atno 8010 bound_to 7997
  140.6413  143.7766  150.7433 H   0  0  0  0  0  0  0  0  0  0  0  0  # atno 10167 bound_to 10162
  157.6696  130.9803  150.1584 H   0  0  0  0  0  0  0  0  0  0  0  0  # atno 10718 bound_to 10713
  152.9818  135.5708  154.5077 H   0  0  0  0  0  0  0  0  0  0  0  0  # atno 10763 bound_to 10752
  154.4586  135.2781  155.1731 H   0  0  0  0  0  0  0  0  0  0  0  0  # atno 10764 bound_to 10752
  154.3329  135.6245  153.5613 H   0  0  0  0  0  0  0  0  0  0  0  0  # atno 10765 bound_to 10752
  140.3701  134.7037  157.4387 H   0  0  0  0  0  0  0  0  0  0  0  0  # atno 11005 bound_to 11000
  145.5898  141.0371  143.2076 LP  0  0  0  0  0  0  0  0  0  0  0  0  # atno 17320 bound_to 7965
  144.7415  139.7436  143.7309 LP  0  0  0  0  0  0  0  0  0  0  0  0  # atno 17321 bound_to 7965
  140.1398  143.4451  152.2201 LP  0  0  0  0  0  0  0  0  0  0  0  0  # atno 17342 bound_to 10162
  139.5623  144.7413  151.4121 LP  0  0  0  0  0  0  0  0  0  0  0  0  # atno 17343 bound_to 10162
  156.2366  130.3687  149.8384 LP  0  0  0  0  0  0  0  0  0  0  0  0  # atno 17370 bound_to 10713
  156.6196  130.8620  151.3472 LP  0  0  0  0  0  0  0  0  0  0  0  0  # atno 17371 bound_to 10713
  140.0558  134.6065  155.8806 LP  0  0  0  0  0  0  0  0  0  0  0  0  # atno 17394 bound_to 11000
  141.1957  133.6588  156.5656 LP  0  0  0  0  0  0  0  0  0  0  0  0  # atno 17395 bound_to 11000

$$$$
