AV-unprocessed.smi:1600|AV-procd|sdf|6430|dock2
  -GOLD-   22720 7 73D 1   1.00000     0.00000
 Structure written by MMmdl.
 46 47  0  0  0  0  0  0  0  0  2 V2000
  154.0128  141.6501  160.3533 C   0  0  0  0  0  0  0  0  0  0  0  0
  152.9849  142.2884  159.4665 C   0  0  0  0  0  0  0  0  0  0  0  0
  152.2687  141.6953  158.3863 C   0  0  0  0  0  0  0  0  0  0  0  0
  151.4807  142.7238  157.9469 C   0  0  0  0  0  0  0  0  0  0  0  0
  150.5773  142.7353  156.9309 N   0  0  0  0  0  0  0  0  0  0  0  0
  150.3054  141.7678  156.0377 C   0  0  0  0  0  0  0  0  0  0  0  0
  150.8531  140.6664  155.9892 O   0  0  0  0  0  0  0  0  0  0  0  0
  149.3421  142.1513  155.1870 N   0  0  0  0  0  0  0  0  0  0  0  0
  148.8157  141.3525  154.0837 C   0  0  0  0  0  0  0  0  0  0  0  0
  147.8520  140.2545  154.5729 C   0  0  1  0  0  0  0  0  0  0  0  0
  146.6269  140.7899  155.3066 C   0  0  0  0  0  0  0  0  0  0  0  0
  145.6566  139.6169  155.2243 C   0  0  0  0  0  0  0  0  0  0  0  0
  145.8577  139.0403  153.8761 N   0  3  2  0  0  0  0  0  0  0  0  0
  145.4692  137.6100  153.7200 C   0  0  0  0  0  0  0  0  0  0  0  0
  145.6861  137.1315  152.2717 C   0  0  0  0  0  0  0  0  0  0  0  0
  144.0011  137.3696  154.1224 C   0  0  0  0  0  0  0  0  0  0  0  0
  147.2474  139.3701  153.4680 C   0  0  0  0  0  0  0  0  0  0  0  0
  151.7266  143.8354  158.7222 N   0  0  0  0  0  0  0  0  0  0  0  0
  151.1389  145.1590  158.6485 C   0  0  0  0  0  0  0  0  0  0  0  0
  152.6580  143.5612  159.6608 N   0  0  0  0  0  0  0  0  0  0  0  0
  154.0198  140.5667  160.2309 H   0  0  0  0  0  0  0  0  0  0  0  0
  153.8154  141.8628  161.4045 H   0  0  0  0  0  0  0  0  0  0  0  0
  155.0125  142.0171  160.1196 H   0  0  0  0  0  0  0  0  0  0  0  0
  152.3374  140.6839  158.0154 H   0  0  0  0  0  0  0  0  0  0  0  0
  150.0491  143.5902  156.8365 H   0  0  0  0  0  0  0  0  0  0  0  0
  148.9517  143.0755  155.3014 H   0  0  0  0  0  0  0  0  0  0  0  0
  148.2837  142.0298  153.4154 H   0  0  0  0  0  0  0  0  0  0  0  0
  149.6255  140.9197  153.4941 H   0  0  0  0  0  0  0  0  0  0  0  0
  148.3876  139.6049  155.2675 H   0  0  0  0  0  0  0  0  0  0  0  0
  146.8428  141.0875  156.3332 H   0  0  0  0  0  0  0  0  0  0  0  0
  146.2134  141.6531  154.7824 H   0  0  0  0  0  0  0  0  0  0  0  0
  145.9149  138.8782  155.9853 H   0  0  0  0  0  0  0  0  0  0  0  0
  144.6227  139.9248  155.3843 H   0  0  0  0  0  0  0  0  0  0  0  0
  146.1021  137.0135  154.3790 H   0  0  0  0  0  0  0  0  0  0  0  0
  145.3824  136.0904  152.1559 H   0  0  0  0  0  0  0  0  0  0  0  0
  146.7307  137.1907  151.9670 H   0  0  0  0  0  0  0  0  0  0  0  0
  145.1011  137.7248  151.5678 H   0  0  0  0  0  0  0  0  0  0  0  0
  143.7157  136.3308  153.9536 H   0  0  0  0  0  0  0  0  0  0  0  0
  143.3229  137.9957  153.5413 H   0  0  0  0  0  0  0  0  0  0  0  0
  143.8256  137.5747  155.1784 H   0  0  0  0  0  0  0  0  0  0  0  0
  147.1940  139.8983  152.5161 H   0  0  0  0  0  0  0  0  0  0  0  0
  147.8662  138.4839  153.3214 H   0  0  0  0  0  0  0  0  0  0  0  0
  150.0932  145.1115  158.9532 H   0  0  0  0  0  0  0  0  0  0  0  0
  151.1959  145.5303  157.6250 H   0  0  0  0  0  0  0  0  0  0  0  0
  151.6687  145.8517  159.3035 H   0  0  0  0  0  0  0  0  0  0  0  0
  145.2593  139.5726  153.2605 H   0  0  0  0  0  0  0  0  0  0  0  0
  1  2  1  0  0  0  0
  1 21  1  0  0  0  0
  1 22  1  0  0  0  0
  1 23  1  0  0  0  0
  2 20  2  0  0  0  0
  2  3  1  0  0  0  0
  3  4  2  0  0  0  0
  3 24  1  0  0  0  0
  4  5  1  0  0  0  0
  4 18  1  0  0  0  0
  5  6  1  0  0  0  0
  5 25  1  0  0  0  0
  6  7  2  0  0  0  0
  6  8  1  0  0  0  0
  8  9  1  0  0  0  0
  8 26  1  0  0  0  0
  9 10  1  0  0  0  0
  9 27  1  0  0  0  0
  9 28  1  0  0  0  0
 10 17  1  0  0  0  0
 10 11  1  0  0  0  0
 10 29  1  0  0  0  0
 11 12  1  0  0  0  0
 11 30  1  0  0  0  0
 11 31  1  0  0  0  0
 12 13  1  0  0  0  0
 12 32  1  0  0  0  0
 12 33  1  0  0  0  0
 13 14  1  0  0  0  0
 13 17  1  0  0  0  0
 13 46  1  0  0  0  0
 14 15  1  0  0  0  0
 14 16  1  0  0  0  0
 14 34  1  0  0  0  0
 15 35  1  0  0  0  0
 15 36  1  0  0  0  0
 15 37  1  0  0  0  0
 16 38  1  0  0  0  0
 16 39  1  0  0  0  0
 16 40  1  0  0  0  0
 17 41  1  0  0  0  0
 17 42  1  0  0  0  0
 18 19  1  0  0  0  0
 18 20  1  0  0  0  0
 19 43  1  0  0  0  0
 19 44  1  0  0  0  0
 19 45  1  0  0  0  0
M  CHG  1  13   1
M  END
> <s_m_source_file>
AV-unprocessed.smi

> <i_m_source_file_index>
1600

> <i_lp_mmshare_version>
43012

> <i_f3d_flags>
0

> <s_epik_input>
W0NIM11jMVtjSF1jKG4objEpW0NIM10pW05IXUMoPU8pW05IXVtDSDJdW0NAQEhdMltDSDJdW0NIMl1OKFtDSDJdMilbQ0hdKFtDSDNdKVtDSDNd

> <s_epik_cmdline>
J2VwaWtfcHl0aG9uJywgJy1waCcsICc3LjAnLCAnLXRuJywgJzgnLCAnLW1hJywgJzIwMCcsICctbWV0YWxfYmluZGluZycsICctaW1hZScsICc8aW5maWxlLm1hZT4nLCAnLW9tYWUnLCAnPG91dGZpbGUubWFlPic=

> <r_lp_tautomer_probability>
1

> <r_epik_Ionization_Penalty>
0.000297652

> <r_epik_Ionization_Penalty_Charging>
0.000213653

> <r_epik_Ionization_Penalty_Neutral>
8.3999e-05

> <r_epik_State_Penalty>
-0

> <r_epik_Charging_Adjusted_Penalty>
0.000213653

> <i_epik_Tot_Q>
1

> <i_epik_Tot_abs_Q>
1

> <r_epik_Metal_State_Penalty>
-0

> <b_epik_Metal_Only>
0

> <s_lp_Force_Field>
OPLS_2005

> <r_lp_Energy>
32.7515

> <b_lp_Chiralities_Consistent>
1

> <s_lp_Variant>
AV-unprocessed.smi:1600-4

> <Gold.Version>
5.8.1

> <Gold.Id.Protein>
6NUR|6NUR_protein|mol2

> <Gold.PLP.Fitness>
48.2163

> <Gold.PLP.PLP>
-36.4299

> <Gold.PLP.part.hbond>
-3.0000

> <Gold.PLP.part.metal>
0.0000

> <Gold.PLP.part.buried>
-5.8369

> <Gold.PLP.part.nonpolar>
-28.6901

> <Gold.PLP.part.repulsive>
0.2526

> <Gold.PLP.ligand.clash>
0.0000

> <Gold.PLP.ligand.torsion>
0.1268

> <Gold.PLP.Chemscore.Hbond>
4.0000

> <Gold.PLP.Chemscore.CHOScore>
0.0000

> <Gold.PLP.Chemscore.Metal>
0.0000

> <Gold.Chemscore.Hbonds>
donor molecule, donor type, donor heavy atom, donor atom, acceptor molecule, acceptor atom, score
      L1  H     5    25       P1  8028  0.96
      L1  H     8    26       P1  8028  1.00
      L1  H    13    46       P1 10175  2.00

> <Gold.PLP.Chemscore.Internal.Correction>
0.0400

> <Gold.Rescore>
     Score         DG    S(hbond)    S(metal)    S(lipo)     H(rot)  DE(clash)    DE(int)     intcor
     19.33     -20.71       2.96        0.00      77.03       1.44       0.10       1.28       ----

> <Gold.Chemscore.Fitness>
19.3318

> <Gold.Chemscore.DG>
-20.7111

> <Gold.Chemscore.ZeroCoef>
-5.4800

> <Gold.Chemscore.Hbond>
2.9632

> <Gold.Chemscore.Metal>
0.0000

> <Gold.Chemscore.Lipo>
77.0287

> <Gold.Chemscore.Internal_Hbond>
0.0000

> <Gold.Chemscore.DEClash>
0.0962

> <Gold.Chemscore.DEInternal>
1.2831

> <Gold.Chemscore.Rot>
1.4369

> <Gold.Chemscore.Internal.Correction>
   9.000000E+99

> <Gold.Chemscore.Hbonds>
donor molecule, donor type, donor heavy atom, donor atom, acceptor molecule, acceptor atom, score
      L1  H     5    25       P1  8028  0.89
      L1  H     8    26       P1  8028  0.99
      L1  H    13    46       P1 10175  0.97

> <Gold.Chemscore.Hbond.Weighted>
-9.8972

> <Gold.Chemscore.Metal.Weighted>
-0.0000

> <Gold.Chemscore.Lipo.Weighted>
-9.0124

> <Gold.Chemscore.Internal_Hbond.Weighted>
0.0000

> <Gold.Chemscore.DEClash.Weighted>
0.0962

> <Gold.Chemscore.DEInternal.Weighted>
1.2831

> <Gold.Chemscore.Rot.Weighted>
3.6785

> <Gold.Chemscore.Internal.Correction.Weighted>
   9.000000E+99

> <Gold.Protein.RotatedTorsions>
[ 6907 6896 6895 6894 ] final  -81.25 input  -60.11 | X-H torsion
[ 7974 7965 7964 7962 ] final  174.91 input  175.53 | X-H torsion
[ 8008 7997 7996 7995 ] final   17.81 input   59.86 | X-H torsion
[ 10167 10162 10161 10158 ] final   44.59 input  -65.29 | X-H torsion
[ 10718 10713 10712 10709 ] final -146.70 input   66.30 | X-H torsion
[ 10763 10752 10751 10750 ] final -100.47 input  -60.55 | X-H torsion
[ 11005 11000 10999 10996 ] final  -71.76 input  -57.11 | X-H torsion

> <Gold.Protein.ActiveResidues>
 VAL166  LYS551  ARG553  GLY616  TRP617  ASP618  TYR619  PRO620  LYS621  CYS622 
 ASP623  PHE694  ASN695  SER759  ASP760  ASP761  ALA762  ILE779  LEU786  VAL792 
 PHE793  MET794  SER795  GLU796  ALA797  LYS798  CYS799  TRP800  GLU811  SER814 

> <Gold.Protein.RotatedAtoms>
  150.6915  134.3846  159.5048 H   0  0  0  0  0  0  0  0  0  0  0  0  # atno 6907 bound_to 6896
  152.1643  134.8884  160.0548 H   0  0  0  0  0  0  0  0  0  0  0  0  # atno 6908 bound_to 6896
  151.9933  133.3764  159.4190 H   0  0  0  0  0  0  0  0  0  0  0  0  # atno 6909 bound_to 6896
  144.7212  139.9867  143.6439 H   0  0  0  0  0  0  0  0  0  0  0  0  # atno 7974 bound_to 7965
  154.8969  140.2995  155.5339 H   0  0  0  0  0  0  0  0  0  0  0  0  # atno 8008 bound_to 7997
  156.3019  140.2414  156.3926 H   0  0  0  0  0  0  0  0  0  0  0  0  # atno 8009 bound_to 7997
  154.8561  140.0407  157.1624 H   0  0  0  0  0  0  0  0  0  0  0  0  # atno 8010 bound_to 7997
  140.3327  144.2568  150.6166 H   0  0  0  0  0  0  0  0  0  0  0  0  # atno 10167 bound_to 10162
  156.3982  130.7920  151.2128 H   0  0  0  0  0  0  0  0  0  0  0  0  # atno 10718 bound_to 10713
  154.7581  135.4934  153.9413 H   0  0  0  0  0  0  0  0  0  0  0  0  # atno 10763 bound_to 10752
  153.1220  135.6734  153.9328 H   0  0  0  0  0  0  0  0  0  0  0  0  # atno 10764 bound_to 10752
  153.9057  135.3104  155.3427 H   0  0  0  0  0  0  0  0  0  0  0  0  # atno 10765 bound_to 10752
  141.1597  133.6827  156.6955 H   0  0  0  0  0  0  0  0  0  0  0  0  # atno 11005 bound_to 11000
  146.0444  139.3452  143.0677 LP  0  0  0  0  0  0  0  0  0  0  0  0  # atno 17320 bound_to 7965
  145.8294  140.9638  143.0857 LP  0  0  0  0  0  0  0  0  0  0  0  0  # atno 17321 bound_to 7965
  140.5382  143.2229  151.8128 LP  0  0  0  0  0  0  0  0  0  0  0  0  # atno 17342 bound_to 10162
  139.4853  144.4634  151.9513 LP  0  0  0  0  0  0  0  0  0  0  0  0  # atno 17343 bound_to 10162
  157.7502  131.0295  150.4095 LP  0  0  0  0  0  0  0  0  0  0  0  0  # atno 17370 bound_to 10713
  156.4369  130.3983  149.6723 LP  0  0  0  0  0  0  0  0  0  0  0  0  # atno 17371 bound_to 10713
  140.2998  134.8173  157.4088 LP  0  0  0  0  0  0  0  0  0  0  0  0  # atno 17394 bound_to 11000
  140.1272  134.5143  155.8135 LP  0  0  0  0  0  0  0  0  0  0  0  0  # atno 17395 bound_to 11000

$$$$
