AV-unprocessed.smi:1205|AV-procd|sdf|5042|dock1
  -GOLD-   22720 4 63D 1   1.00000     0.00000
 Structure written by MMmdl.
 49 50  0  0  0  0  0  0  0  0  2 V2000
  150.5910  143.1075  158.4171 C   0  0  0  0  0  0  0  0  0  0  0  0
  151.6156  142.7342  159.4473 C   0  0  0  0  0  0  0  0  0  0  0  0
  152.5982  141.7042  159.3758 C   0  0  0  0  0  0  0  0  0  0  0  0
  153.2411  141.8178  160.5781 C   0  0  0  0  0  0  0  0  0  0  0  0
  154.2722  141.0805  161.0692 N   0  0  0  0  0  0  0  0  0  0  0  0
  154.9404  140.0738  160.4800 C   0  0  0  0  0  0  0  0  0  0  0  0
  154.7227  139.6326  159.3514 O   0  0  0  0  0  0  0  0  0  0  0  0
  155.9041  139.5979  161.2810 N   0  0  0  0  0  0  0  0  0  0  0  0
  156.8120  138.5081  160.9372 C   0  0  0  0  0  0  0  0  0  0  0  0
  156.2776  137.1246  161.3891 C   0  0  1  0  0  0  0  0  0  0  0  0
  157.0634  135.9526  160.7708 C   0  0  0  0  0  0  0  0  0  0  0  0
  156.1996  136.9815  162.8720 N   0  3  2  0  0  0  0  0  0  0  0  0
  156.2005  135.5682  163.3327 C   0  0  0  0  0  0  0  0  0  0  0  0
  156.4035  135.4916  164.8544 C   0  0  0  0  0  0  0  0  0  0  0  0
  155.3451  136.3215  165.5965 C   0  0  0  0  0  0  0  0  0  0  0  0
  155.2924  137.7685  165.0699 C   0  0  1  0  0  0  0  0  0  0  0  0
  156.4892  138.6176  165.5331 C   0  0  0  0  0  0  0  0  0  0  0  0
  155.1304  137.7781  163.5362 C   0  0  0  0  0  0  0  0  0  0  0  0
  152.6658  142.8430  161.2955 N   0  0  0  0  0  0  0  0  0  0  0  0
  152.9910  143.3383  162.6191 C   0  0  0  0  0  0  0  0  0  0  0  0
  151.6611  143.4076  160.5914 N   0  0  0  0  0  0  0  0  0  0  0  0
  150.6886  142.4919  157.5227 H   0  0  0  0  0  0  0  0  0  0  0  0
  150.6983  144.1496  158.1155 H   0  0  0  0  0  0  0  0  0  0  0  0
  149.5801  142.9734  158.8031 H   0  0  0  0  0  0  0  0  0  0  0  0
  152.7797  141.0090  158.5701 H   0  0  0  0  0  0  0  0  0  0  0  0
  154.5800  141.3381  161.9953 H   0  0  0  0  0  0  0  0  0  0  0  0
  156.0166  140.0159  162.1933 H   0  0  0  0  0  0  0  0  0  0  0  0
  156.9417  138.5335  159.8554 H   0  0  0  0  0  0  0  0  0  0  0  0
  157.7926  138.7100  161.3705 H   0  0  0  0  0  0  0  0  0  0  0  0
  155.2576  137.0201  161.0166 H   0  0  0  0  0  0  0  0  0  0  0  0
  156.9640  135.9398  159.6852 H   0  0  0  0  0  0  0  0  0  0  0  0
  156.6927  134.9951  161.1375 H   0  0  0  0  0  0  0  0  0  0  0  0
  158.1276  136.0084  160.9984 H   0  0  0  0  0  0  0  0  0  0  0  0
  155.2626  135.0850  163.0565 H   0  0  0  0  0  0  0  0  0  0  0  0
  157.0001  135.0136  162.8401 H   0  0  0  0  0  0  0  0  0  0  0  0
  156.3558  134.4530  165.1830 H   0  0  0  0  0  0  0  0  0  0  0  0
  157.4022  135.8464  165.1108 H   0  0  0  0  0  0  0  0  0  0  0  0
  154.3689  135.8552  165.4581 H   0  0  0  0  0  0  0  0  0  0  0  0
  155.5383  136.3098  166.6699 H   0  0  0  0  0  0  0  0  0  0  0  0
  154.4030  138.2353  165.4953 H   0  0  0  0  0  0  0  0  0  0  0  0
  157.4333  138.2414  165.1393 H   0  0  0  0  0  0  0  0  0  0  0  0
  156.5642  138.6284  166.6208 H   0  0  0  0  0  0  0  0  0  0  0  0
  156.3845  139.6514  165.2029 H   0  0  0  0  0  0  0  0  0  0  0  0
  155.1369  138.8072  163.1780 H   0  0  0  0  0  0  0  0  0  0  0  0
  154.1547  137.3639  163.2789 H   0  0  0  0  0  0  0  0  0  0  0  0
  154.0674  143.4901  162.7017 H   0  0  0  0  0  0  0  0  0  0  0  0
  152.6737  142.6125  163.3682 H   0  0  0  0  0  0  0  0  0  0  0  0
  152.4872  144.2873  162.8080 H   0  0  0  0  0  0  0  0  0  0  0  0
  157.0712  137.3629  163.2109 H   0  0  0  0  0  0  0  0  0  0  0  0
  1  2  1  0  0  0  0
  1 22  1  0  0  0  0
  1 23  1  0  0  0  0
  1 24  1  0  0  0  0
  2 21  2  0  0  0  0
  2  3  1  0  0  0  0
  3  4  2  0  0  0  0
  3 25  1  0  0  0  0
  4  5  1  0  0  0  0
  4 19  1  0  0  0  0
  5  6  1  0  0  0  0
  5 26  1  0  0  0  0
  6  7  2  0  0  0  0
  6  8  1  0  0  0  0
  8  9  1  0  0  0  0
  8 27  1  0  0  0  0
  9 10  1  0  0  0  0
  9 28  1  0  0  0  0
  9 29  1  0  0  0  0
 10 11  1  0  0  0  0
 10 12  1  0  0  0  0
 10 30  1  0  0  0  0
 11 31  1  0  0  0  0
 11 32  1  0  0  0  0
 11 33  1  0  0  0  0
 12 18  1  0  0  0  0
 12 13  1  0  0  0  0
 12 49  1  0  0  0  0
 13 14  1  0  0  0  0
 13 34  1  0  0  0  0
 13 35  1  0  0  0  0
 14 15  1  0  0  0  0
 14 36  1  0  0  0  0
 14 37  1  0  0  0  0
 15 16  1  0  0  0  0
 15 38  1  0  0  0  0
 15 39  1  0  0  0  0
 16 17  1  0  0  0  0
 16 18  1  0  0  0  0
 16 40  1  0  0  0  0
 17 41  1  0  0  0  0
 17 42  1  0  0  0  0
 17 43  1  0  0  0  0
 18 44  1  0  0  0  0
 18 45  1  0  0  0  0
 19 20  1  0  0  0  0
 19 21  1  0  0  0  0
 20 46  1  0  0  0  0
 20 47  1  0  0  0  0
 20 48  1  0  0  0  0
M  CHG  1  12   1
M  END
> <s_m_source_file>
AV-unprocessed.smi

> <i_m_source_file_index>
1205

> <i_lp_mmshare_version>
43012

> <i_f3d_flags>
0

> <s_epik_input>
W0NIM11jMVtjSF1jKG4objEpW0NIM10pW05IXUMoPU8pW05IXVtDSDJdW0NASF0oW0NIM10pTjJbQ0gyXVtDSDJdW0NIMl1bQ0BASF0oW0NIM10pW0NIMl0y

> <s_epik_cmdline>
J2VwaWtfcHl0aG9uJywgJy1waCcsICc3LjAnLCAnLXRuJywgJzgnLCAnLW1hJywgJzIwMCcsICctbWV0YWxfYmluZGluZycsICctaW1hZScsICc8aW5maWxlLm1hZT4nLCAnLW9tYWUnLCAnPG91dGZpbGUubWFlPic=

> <r_lp_tautomer_probability>
1

> <r_epik_Ionization_Penalty>
0.0020309

> <r_epik_Ionization_Penalty_Charging>
0.00195276

> <r_epik_Ionization_Penalty_Neutral>
7.81448e-05

> <r_epik_State_Penalty>
0.00133177

> <r_epik_Charging_Adjusted_Penalty>
0.00328452

> <i_epik_Tot_Q>
1

> <i_epik_Tot_abs_Q>
1

> <r_epik_Metal_State_Penalty>
-0

> <b_epik_Metal_Only>
0

> <s_lp_Force_Field>
OPLS_2005

> <r_lp_Energy>
24.2005

> <b_lp_Chiralities_Consistent>
1

> <s_lp_Variant>
AV-unprocessed.smi:1205-4

> <Gold.Version>
5.8.1

> <Gold.Id.Protein>
6NUR|6NUR_protein|mol2

> <Gold.PLP.Fitness>
42.8224

> <Gold.PLP.PLP>
-41.7798

> <Gold.PLP.part.hbond>
-1.4877

> <Gold.PLP.part.metal>
0.0000

> <Gold.PLP.part.buried>
-2.6130

> <Gold.PLP.part.nonpolar>
-37.5957

> <Gold.PLP.part.repulsive>
0.0836

> <Gold.PLP.ligand.clash>
0.7319

> <Gold.PLP.ligand.torsion>
0.6425

> <Gold.PLP.Chemscore.Hbond>
0.9760

> <Gold.PLP.Chemscore.CHOScore>
0.0000

> <Gold.PLP.Chemscore.Metal>
0.0000

> <Gold.Chemscore.Hbonds>
donor molecule, donor type, donor heavy atom, donor atom, acceptor molecule, acceptor atom, score
      P1  H  7997  8009       L1     7  0.78

> <Gold.PLP.Chemscore.Internal.Correction>
0.1315

> <Gold.Rescore>
     Score         DG    S(hbond)    S(metal)    S(lipo)     H(rot)  DE(clash)    DE(int)     intcor
     13.81     -15.75       0.99        0.00      91.53       1.47       0.02       1.92       ----

> <Gold.Chemscore.Fitness>
13.8093

> <Gold.Chemscore.DG>
-15.7465

> <Gold.Chemscore.ZeroCoef>
-5.4800

> <Gold.Chemscore.Hbond>
0.9912

> <Gold.Chemscore.Metal>
0.0000

> <Gold.Chemscore.Lipo>
91.5253

> <Gold.Chemscore.Internal_Hbond>
0.0000

> <Gold.Chemscore.DEClash>
0.0171

> <Gold.Chemscore.DEInternal>
1.9200

> <Gold.Chemscore.Rot>
1.4658

> <Gold.Chemscore.Internal.Correction>
   9.000000E+99

> <Gold.Chemscore.Hbonds>
donor molecule, donor type, donor heavy atom, donor atom, acceptor molecule, acceptor atom, score
      P1  H  7997  8009       L1     7  0.75

> <Gold.Chemscore.Hbond.Weighted>
-3.3106

> <Gold.Chemscore.Metal.Weighted>
-0.0000

> <Gold.Chemscore.Lipo.Weighted>
-10.7085

> <Gold.Chemscore.Internal_Hbond.Weighted>
0.0000

> <Gold.Chemscore.DEClash.Weighted>
0.0171

> <Gold.Chemscore.DEInternal.Weighted>
1.9200

> <Gold.Chemscore.Rot.Weighted>
3.7526

> <Gold.Chemscore.Internal.Correction.Weighted>
   9.000000E+99

> <Gold.Protein.RotatedTorsions>
[ 6907 6896 6895 6894 ] final  -52.45 input  -60.11 | X-H torsion
[ 7974 7965 7964 7962 ] final  172.25 input  175.53 | X-H torsion
[ 8008 7997 7996 7995 ] final  104.54 input   59.86 | X-H torsion
[ 10167 10162 10161 10158 ] final  -40.47 input  -65.29 | X-H torsion
[ 10718 10713 10712 10709 ] final  -74.85 input   66.30 | X-H torsion
[ 10763 10752 10751 10750 ] final  141.52 input  -60.55 | X-H torsion
[ 11005 11000 10999 10996 ] final   44.94 input  -57.11 | X-H torsion

> <Gold.Protein.ActiveResidues>
 VAL166  LYS551  ARG553  GLY616  TRP617  ASP618  TYR619  PRO620  LYS621  CYS622 
 ASP623  PHE694  ASN695  SER759  ASP760  ASP761  ALA762  ILE779  LEU786  VAL792 
 PHE793  MET794  SER795  GLU796  ALA797  LYS798  CYS799  TRP800  GLU811  SER814 

> <Gold.Protein.RotatedAtoms>
  150.8517  134.7843  159.7013 H   0  0  0  0  0  0  0  0  0  0  0  0  # atno 6907 bound_to 6896
  152.4580  134.5246  159.9802 H   0  0  0  0  0  0  0  0  0  0  0  0  # atno 6908 bound_to 6896
  151.5366  133.3402  159.2963 H   0  0  0  0  0  0  0  0  0  0  0  0  # atno 6909 bound_to 6896
  144.7273  139.9470  143.6430 H   0  0  0  0  0  0  0  0  0  0  0  0  # atno 7974 bound_to 7965
  156.1581  140.3146  155.8760 H   0  0  0  0  0  0  0  0  0  0  0  0  # atno 8008 bound_to 7997
  155.3837  140.0489  157.3060 H   0  0  0  0  0  0  0  0  0  0  0  0  # atno 8009 bound_to 7997
  154.5120  140.2168  155.9148 H   0  0  0  0  0  0  0  0  0  0  0  0  # atno 8010 bound_to 7997
  140.7033  143.3151  151.2929 H   0  0  0  0  0  0  0  0  0  0  0  0  # atno 10167 bound_to 10162
  156.0228  130.4427  150.2954 H   0  0  0  0  0  0  0  0  0  0  0  0  # atno 10718 bound_to 10713
  153.9405  135.2980  155.3443 H   0  0  0  0  0  0  0  0  0  0  0  0  # atno 10763 bound_to 10752
  154.7479  135.4994  153.9240 H   0  0  0  0  0  0  0  0  0  0  0  0  # atno 10764 bound_to 10752
  153.1044  135.6743  153.9719 H   0  0  0  0  0  0  0  0  0  0  0  0  # atno 10765 bound_to 10752
  140.1506  134.4467  155.8385 H   0  0  0  0  0  0  0  0  0  0  0  0  # atno 11005 bound_to 11000
  146.0741  139.3729  143.0505 LP  0  0  0  0  0  0  0  0  0  0  0  0  # atno 17320 bound_to 7965
  145.7929  140.9806  143.1039 LP  0  0  0  0  0  0  0  0  0  0  0  0  # atno 17321 bound_to 7965
  139.6587  144.0228  152.2678 LP  0  0  0  0  0  0  0  0  0  0  0  0  # atno 17342 bound_to 10162
  139.9788  144.6442  150.7920 LP  0  0  0  0  0  0  0  0  0  0  0  0  # atno 17343 bound_to 10162
  157.1058  131.0208  151.3068 LP  0  0  0  0  0  0  0  0  0  0  0  0  # atno 17370 bound_to 10713
  157.4744  130.7728  149.7354 LP  0  0  0  0  0  0  0  0  0  0  0  0  # atno 17371 bound_to 10713
  141.2198  133.6870  156.7414 LP  0  0  0  0  0  0  0  0  0  0  0  0  # atno 17394 bound_to 11000
  140.2610  134.8467  157.3758 LP  0  0  0  0  0  0  0  0  0  0  0  0  # atno 17395 bound_to 11000

$$$$
