AV-unprocessed.smi:460|AV-procd|sdf|2629|dock2
  -GOLD-   2262023 33D 1   1.00000     0.00000
 Structure written by MMmdl.
 47 49  0  0  0  0  0  0  0  0  2 V2000
  145.9610  138.3997  154.4913 C   0  0  0  0  0  0  0  0  0  0  0  0
  146.0471  137.2393  155.4930 C   0  0  0  0  0  0  0  0  0  0  0  0
  147.1957  136.2537  155.2069 C   0  0  1  0  0  0  0  0  0  0  0  0
  147.0126  135.7198  153.9127 O   0  0  0  0  0  0  0  0  0  0  0  0
  148.5389  136.9048  155.3494 C   0  0  0  0  0  0  0  0  0  0  0  0
  149.4531  137.0625  154.3499 N   0  3  0  0  0  0  0  0  0  0  0  0
  150.5904  137.7017  154.8427 C   0  0  0  0  0  0  0  0  0  0  0  0
  151.7752  138.0681  154.2119 C   0  0  0  0  0  0  0  0  0  0  0  0
  152.7468  138.7049  155.0117 C   0  0  0  0  0  0  0  0  0  0  0  0
  152.5220  138.9536  156.3814 C   0  0  0  0  0  0  0  0  0  0  0  0
  151.3157  138.5784  157.0092 C   0  0  0  0  0  0  0  0  0  0  0  0
  150.3595  137.9517  156.2106 C   0  0  0  0  0  0  0  0  0  0  0  0
  149.0799  137.4524  156.4777 N   0  0  0  0  0  0  0  0  0  0  0  0
  148.5428  137.5580  157.8426 C   0  0  0  0  0  0  0  0  0  0  0  0
  149.4611  136.8887  158.8741 C   0  0  0  0  0  0  0  0  0  0  0  0
  148.9399  135.6029  159.1826 O   0  0  0  0  0  0  0  0  0  0  0  0
  148.2645  135.4285  160.3714 C   0  0  0  0  0  0  0  0  0  0  0  0
  147.9966  136.4794  161.2844 C   0  0  0  0  0  0  0  0  0  0  0  0
  147.3000  136.2254  162.4797 C   0  0  0  0  0  0  0  0  0  0  0  0
  146.8644  134.9225  162.7753 C   0  0  0  0  0  0  0  0  0  0  0  0
  147.1244  133.8729  161.8756 C   0  0  0  0  0  0  0  0  0  0  0  0
  147.8257  134.1172  160.6676 C   0  0  0  0  0  0  0  0  0  0  0  0
  148.1185  133.1367  159.7417 O   0  0  0  0  0  0  0  0  0  0  0  0
  147.7978  131.7911  160.0625 C   0  0  0  0  0  0  0  0  0  0  0  0
  145.1581  139.0851  154.7633 H   0  0  0  0  0  0  0  0  0  0  0  0
  145.7609  138.0452  153.4800 H   0  0  0  0  0  0  0  0  0  0  0  0
  146.8899  138.9701  154.4706 H   0  0  0  0  0  0  0  0  0  0  0  0
  146.1757  137.6582  156.4919 H   0  0  0  0  0  0  0  0  0  0  0  0
  145.0955  136.7063  155.5086 H   0  0  0  0  0  0  0  0  0  0  0  0
  147.1286  135.4163  155.9012 H   0  0  0  0  0  0  0  0  0  0  0  0
  147.5963  136.1696  153.3199 H   0  0  0  0  0  0  0  0  0  0  0  0
  151.9503  137.8759  153.1634 H   0  0  0  0  0  0  0  0  0  0  0  0
  153.6837  139.0069  154.5661 H   0  0  0  0  0  0  0  0  0  0  0  0
  153.2904  139.4418  156.9632 H   0  0  0  0  0  0  0  0  0  0  0  0
  151.1550  138.7715  158.0595 H   0  0  0  0  0  0  0  0  0  0  0  0
  148.3783  138.6085  158.0835 H   0  0  0  0  0  0  0  0  0  0  0  0
  147.5605  137.0863  157.8534 H   0  0  0  0  0  0  0  0  0  0  0  0
  150.4682  136.7993  158.4637 H   0  0  0  0  0  0  0  0  0  0  0  0
  149.5138  137.5046  159.7729 H   0  0  0  0  0  0  0  0  0  0  0  0
  148.3136  137.4926  161.0896 H   0  0  0  0  0  0  0  0  0  0  0  0
  147.0993  137.0316  163.1698 H   0  0  0  0  0  0  0  0  0  0  0  0
  146.3298  134.7271  163.6933 H   0  0  0  0  0  0  0  0  0  0  0  0
  146.7747  132.8859  162.1373 H   0  0  0  0  0  0  0  0  0  0  0  0
  148.0845  131.1458  159.2325 H   0  0  0  0  0  0  0  0  0  0  0  0
  146.7266  131.6633  160.2235 H   0  0  0  0  0  0  0  0  0  0  0  0
  148.3405  131.4516  160.9457 H   0  0  0  0  0  0  0  0  0  0  0  0
  149.3053  136.7448  153.4006 H   0  0  0  0  0  0  0  0  0  0  0  0
  1  2  1  0  0  0  0
  1 25  1  0  0  0  0
  1 26  1  0  0  0  0
  1 27  1  0  0  0  0
  2  3  1  0  0  0  0
  2 28  1  0  0  0  0
  2 29  1  0  0  0  0
  3  4  1  0  0  0  0
  3  5  1  0  0  0  0
  3 30  1  0  0  0  0
  4 31  1  0  0  0  0
  5 13  1  0  0  0  0
  5  6  2  0  0  0  0
  6  7  1  0  0  0  0
  6 47  1  0  0  0  0
  7 12  2  0  0  0  0
  7  8  1  0  0  0  0
  8  9  2  0  0  0  0
  8 32  1  0  0  0  0
  9 10  1  0  0  0  0
  9 33  1  0  0  0  0
 10 11  2  0  0  0  0
 10 34  1  0  0  0  0
 11 12  1  0  0  0  0
 11 35  1  0  0  0  0
 12 13  1  0  0  0  0
 13 14  1  0  0  0  0
 14 15  1  0  0  0  0
 14 36  1  0  0  0  0
 14 37  1  0  0  0  0
 15 16  1  0  0  0  0
 15 38  1  0  0  0  0
 15 39  1  0  0  0  0
 16 17  1  0  0  0  0
 17 22  1  0  0  0  0
 17 18  2  0  0  0  0
 18 19  1  0  0  0  0
 18 40  1  0  0  0  0
 19 20  2  0  0  0  0
 19 41  1  0  0  0  0
 20 21  1  0  0  0  0
 20 42  1  0  0  0  0
 21 22  2  0  0  0  0
 21 43  1  0  0  0  0
 22 23  1  0  0  0  0
 23 24  1  0  0  0  0
 24 44  1  0  0  0  0
 24 45  1  0  0  0  0
 24 46  1  0  0  0  0
M  CHG  1   6   1
M  END
> <s_m_source_file>
AV-unprocessed.smi

> <i_m_source_file_index>
460

> <i_lp_mmshare_version>
43012

> <i_f3d_flags>
0

> <s_epik_input>
W2NIXTFbY0hdW2NIXVtjSF1jKGMxMiluKGMobjIpW0NAQEhdKFtPSF0pW0NIMl1bQ0gzXSlbQ0gyXVtDSDJdT2MzW2NIXVtjSF1bY0hdW2NIXWMzT1tDSDNd

> <s_epik_cmdline>
J2VwaWtfcHl0aG9uJywgJy1waCcsICc3LjAnLCAnLXRuJywgJzgnLCAnLW1hJywgJzIwMCcsICctbWV0YWxfYmluZGluZycsICctaW1hZScsICc8aW5maWxlLm1hZT4nLCAnLW9tYWUnLCAnPG91dGZpbGUubWFlPic=

> <r_lp_tautomer_probability>
1

> <r_epik_Ionization_Penalty>
1.48085

> <r_epik_Ionization_Penalty_Charging>
1.48083

> <r_epik_Ionization_Penalty_Neutral>
1.80167e-05

> <r_epik_State_Penalty>
1.56944

> <r_epik_Charging_Adjusted_Penalty>
3.05027

> <i_epik_Tot_Q>
1

> <i_epik_Tot_abs_Q>
1

> <r_epik_Metal_State_Penalty>
5.61877

> <b_epik_Metal_Only>
0

> <s_lp_Force_Field>
OPLS_2005

> <r_lp_Energy>
21.4697

> <b_lp_Chiralities_Consistent>
1

> <s_lp_Variant>
AV-unprocessed.smi:460-4

> <Gold.Version>
5.8.1

> <Gold.Id.Protein>
6NUR|6NUR_protein|mol2

> <Gold.PLP.Fitness>
47.0081

> <Gold.PLP.PLP>
-36.0344

> <Gold.PLP.part.hbond>
-3.0000

> <Gold.PLP.part.metal>
0.0000

> <Gold.PLP.part.buried>
-3.7913

> <Gold.PLP.part.nonpolar>
-29.1510

> <Gold.PLP.part.repulsive>
0.0089

> <Gold.PLP.ligand.clash>
0.0000

> <Gold.PLP.ligand.torsion>
0.6655

> <Gold.PLP.Chemscore.Hbond>
4.0000

> <Gold.PLP.Chemscore.CHOScore>
0.0000

> <Gold.PLP.Chemscore.Metal>
0.0000

> <Gold.Chemscore.Hbonds>
donor molecule, donor type, donor heavy atom, donor atom, acceptor molecule, acceptor atom, score
      L1  H     4    31       P1  7948  1.00
      L1  H     6    47       P1  7948  2.00
      P1  H  6896  6908       L1    16  0.96

> <Gold.PLP.Chemscore.Internal.Correction>
0.3046

> <Gold.Rescore>
     Score         DG    S(hbond)    S(metal)    S(lipo)     H(rot)  DE(clash)    DE(int)     intcor
     17.08     -17.70       2.23        0.00      94.21       2.45       0.01       0.60       ----

> <Gold.Chemscore.Fitness>
17.0834

> <Gold.Chemscore.DG>
-17.7016

> <Gold.Chemscore.ZeroCoef>
-5.4800

> <Gold.Chemscore.Hbond>
2.2330

> <Gold.Chemscore.Metal>
0.0000

> <Gold.Chemscore.Lipo>
94.2109

> <Gold.Chemscore.Internal_Hbond>
0.0000

> <Gold.Chemscore.DEClash>
0.0149

> <Gold.Chemscore.DEInternal>
0.6033

> <Gold.Chemscore.Rot>
2.4450

> <Gold.Chemscore.Internal.Correction>
   9.000000E+99

> <Gold.Chemscore.Hbonds>
donor molecule, donor type, donor heavy atom, donor atom, acceptor molecule, acceptor atom, score
      L1  H     4    31       P1  7948  0.94
      L1  H     6    47       P1  7948  0.94
      P1  H  6896  6908       L1    16  0.08

> <Gold.Chemscore.Hbond.Weighted>
-7.4582

> <Gold.Chemscore.Metal.Weighted>
-0.0000

> <Gold.Chemscore.Lipo.Weighted>
-11.0227

> <Gold.Chemscore.Internal_Hbond.Weighted>
0.0000

> <Gold.Chemscore.DEClash.Weighted>
0.0149

> <Gold.Chemscore.DEInternal.Weighted>
0.6033

> <Gold.Chemscore.Rot.Weighted>
6.2593

> <Gold.Chemscore.Internal.Correction.Weighted>
   9.000000E+99

> <Gold.Protein.RotatedTorsions>
[ 6907 6896 6895 6894 ] final  167.54 input  -60.11 | X-H torsion
[ 7974 7965 7964 7962 ] final  -89.59 input  175.53 | X-H torsion
[ 8008 7997 7996 7995 ] final  -46.39 input   59.86 | X-H torsion
[ 10167 10162 10161 10158 ] final   -9.55 input  -65.29 | X-H torsion
[ 10718 10713 10712 10709 ] final  -86.90 input   66.30 | X-H torsion
[ 10763 10752 10751 10750 ] final  -15.04 input  -60.55 | X-H torsion
[ 11005 11000 10999 10996 ] final  -23.00 input  -57.11 | X-H torsion

> <Gold.Protein.ActiveResidues>
 VAL166  LYS551  ARG553  GLY616  TRP617  ASP618  TYR619  PRO620  LYS621  CYS622 
 ASP623  PHE694  ASN695  SER759  ASP760  ASP761  ALA762  ILE779  LEU786  VAL792 
 PHE793  MET794  SER795  GLU796  ALA797  LYS798  CYS799  TRP800  GLU811  SER814 

> <Gold.Protein.RotatedAtoms>
  151.8618  133.3458  159.3705 H   0  0  0  0  0  0  0  0  0  0  0  0  # atno 6907 bound_to 6896
  150.7177  134.5199  159.5658 H   0  0  0  0  0  0  0  0  0  0  0  0  # atno 6908 bound_to 6896
  152.2714  134.7929  160.0464 H   0  0  0  0  0  0  0  0  0  0  0  0  # atno 6909 bound_to 6896
  145.4377  140.9558  143.2092 H   0  0  0  0  0  0  0  0  0  0  0  0  # atno 7974 bound_to 7965
  154.4007  140.1372  156.4004 H   0  0  0  0  0  0  0  0  0  0  0  0  # atno 8008 bound_to 7997
  155.7829  140.3481  155.5287 H   0  0  0  0  0  0  0  0  0  0  0  0  # atno 8009 bound_to 7997
  155.8655  140.0963  157.1575 H   0  0  0  0  0  0  0  0  0  0  0  0  # atno 8010 bound_to 7997
  140.7090  143.5846  150.8956 H   0  0  0  0  0  0  0  0  0  0  0  0  # atno 10167 bound_to 10162
  155.9987  130.4781  150.4785 H   0  0  0  0  0  0  0  0  0  0  0  0  # atno 10718 bound_to 10713
  153.5373  135.7014  153.5654 H   0  0  0  0  0  0  0  0  0  0  0  0  # atno 10763 bound_to 10752
  153.3635  135.3963  155.1735 H   0  0  0  0  0  0  0  0  0  0  0  0  # atno 10764 bound_to 10752
  154.8678  135.3794  154.4875 H   0  0  0  0  0  0  0  0  0  0  0  0  # atno 10765 bound_to 10752
  140.8710  133.7720  156.0187 H   0  0  0  0  0  0  0  0  0  0  0  0  # atno 11005 bound_to 11000
  144.8141  139.5908  143.7016 LP  0  0  0  0  0  0  0  0  0  0  0  0  # atno 17320 bound_to 7965
  146.2573  139.6331  142.9386 LP  0  0  0  0  0  0  0  0  0  0  0  0  # atno 17321 bound_to 7965
  139.9572  143.6205  152.3013 LP  0  0  0  0  0  0  0  0  0  0  0  0  # atno 17342 bound_to 10162
  139.6745  144.7659  151.1722 LP  0  0  0  0  0  0  0  0  0  0  0  0  # atno 17343 bound_to 10162
  157.2793  131.0603  151.2208 LP  0  0  0  0  0  0  0  0  0  0  0  0  # atno 17370 bound_to 10713
  157.3260  130.6961  149.6297 LP  0  0  0  0  0  0  0  0  0  0  0  0  # atno 17371 bound_to 10713
  140.8573  134.2883  157.5250 LP  0  0  0  0  0  0  0  0  0  0  0  0  # atno 17394 bound_to 11000
  139.8712  134.9499  156.4040 LP  0  0  0  0  0  0  0  0  0  0  0  0  # atno 17395 bound_to 11000

$$$$
