AV-unprocessed.smi:2881|AV-procd|sdf|11059|dock8
  -GOLD-   2272015533D 1   1.00000     0.00000
 Structure written by MMmdl.
 40 42  0  0  0  0  0  0  0  0  1 V2000
  147.4225  139.6087  153.4716 C   0  0  0  0  0  0  0  0  0  0  0  0
  148.7852  139.3747  154.0296 C   0  0  0  0  0  0  0  0  0  0  0  0
  149.4157  139.8959  155.1238 C   0  0  0  0  0  0  0  0  0  0  0  0
  150.7034  139.2820  155.1164 C   0  0  0  0  0  0  0  0  0  0  0  0
  151.8322  139.4889  156.0899 C   0  0  0  0  0  0  0  0  0  0  0  0
  151.3104  140.1761  157.3516 C   0  0  0  0  0  0  0  0  0  0  0  0
  150.3856  139.6738  157.9901 O   0  0  0  0  0  0  0  0  0  0  0  0
  151.9115  141.3251  157.6977 N   0  0  0  0  0  0  0  0  0  0  0  0
  151.5286  142.1792  158.8222 C   0  0  2  0  0  0  0  0  0  0  0  0
  151.3737  143.6400  158.3466 C   0  0  1  0  0  0  0  0  0  0  0  0
  150.6036  144.4391  159.4137 C   0  0  0  0  0  0  0  0  0  0  0  0
  151.6379  144.5637  160.5486 C   0  0  0  0  0  0  0  0  0  0  0  0
  152.8636  143.8217  159.9793 C   0  0  2  0  0  0  0  0  0  0  0  0
  152.7848  144.1936  158.5041 C   0  0  0  0  0  0  0  0  0  0  0  0
  152.5825  142.2987  159.9657 C   0  0  2  0  0  0  0  0  0  0  0  0
  153.8607  141.4431  159.8133 C   0  0  0  0  0  0  0  0  0  0  0  0
  154.5647  141.3856  161.0364 O   0  0  0  0  0  0  0  0  0  0  0  0
  150.8554  138.4414  154.1018 N   0  0  0  0  0  0  0  0  0  0  0  0
  149.6815  138.5084  153.4466 N   0  0  0  0  0  0  0  0  0  0  0  0
  149.5080  137.9648  152.6131 H   0  0  0  0  0  0  0  0  0  0  0  0
  146.8360  140.2483  154.1318 H   0  0  0  0  0  0  0  0  0  0  0  0
  146.8850  138.6681  153.3502 H   0  0  0  0  0  0  0  0  0  0  0  0
  147.4814  140.0949  152.4975 H   0  0  0  0  0  0  0  0  0  0  0  0
  149.0198  140.6152  155.8255 H   0  0  0  0  0  0  0  0  0  0  0  0
  152.2789  138.5317  156.3610 H   0  0  0  0  0  0  0  0  0  0  0  0
  152.6300  140.0867  155.6459 H   0  0  0  0  0  0  0  0  0  0  0  0
  152.6635  141.6582  157.1115 H   0  0  0  0  0  0  0  0  0  0  0  0
  150.5763  141.8230  159.2201 H   0  0  0  0  0  0  0  0  0  0  0  0
  150.9483  143.7395  157.3470 H   0  0  0  0  0  0  0  0  0  0  0  0
  150.3290  145.4251  159.0369 H   0  0  0  0  0  0  0  0  0  0  0  0
  149.6899  143.9372  159.7338 H   0  0  0  0  0  0  0  0  0  0  0  0
  151.8724  145.6118  160.7380 H   0  0  0  0  0  0  0  0  0  0  0  0
  151.2851  144.1283  161.4842 H   0  0  0  0  0  0  0  0  0  0  0  0
  153.7960  144.1006  160.4712 H   0  0  0  0  0  0  0  0  0  0  0  0
  153.5241  143.6846  157.8840 H   0  0  0  0  0  0  0  0  0  0  0  0
  152.8506  145.2680  158.3240 H   0  0  0  0  0  0  0  0  0  0  0  0
  152.1111  142.0075  160.9060 H   0  0  0  0  0  0  0  0  0  0  0  0
  153.6058  140.4210  159.5338 H   0  0  0  0  0  0  0  0  0  0  0  0
  154.5192  141.8390  159.0402 H   0  0  0  0  0  0  0  0  0  0  0  0
  155.0175  142.2057  161.1614 H   0  0  0  0  0  0  0  0  0  0  0  0
  1  2  1  0  0  0  0
  1 21  1  0  0  0  0
  1 22  1  0  0  0  0
  1 23  1  0  0  0  0
  2 19  1  0  0  0  0
  2  3  2  0  0  0  0
  3  4  1  0  0  0  0
  3 24  1  0  0  0  0
  4  5  1  0  0  0  0
  4 18  2  0  0  0  0
  5  6  1  0  0  0  0
  5 25  1  0  0  0  0
  5 26  1  0  0  0  0
  6  7  2  0  0  0  0
  6  8  1  0  0  0  0
  8  9  1  0  0  0  0
  8 27  1  0  0  0  0
  9 15  1  0  0  0  0
  9 10  1  0  0  0  0
  9 28  1  0  0  0  0
 10 14  1  0  0  0  0
 10 11  1  0  0  0  0
 10 29  1  0  0  0  0
 11 12  1  0  0  0  0
 11 30  1  0  0  0  0
 11 31  1  0  0  0  0
 12 13  1  0  0  0  0
 12 32  1  0  0  0  0
 12 33  1  0  0  0  0
 13 14  1  0  0  0  0
 13 15  1  0  0  0  0
 13 34  1  0  0  0  0
 14 35  1  0  0  0  0
 14 36  1  0  0  0  0
 15 16  1  0  0  0  0
 15 37  1  0  0  0  0
 16 17  1  0  0  0  0
 16 38  1  0  0  0  0
 16 39  1  0  0  0  0
 17 40  1  0  0  0  0
 18 19  1  0  0  0  0
 19 20  1  0  0  0  0
M  END
> <s_m_source_file>
AV-unprocessed.smi

> <i_m_source_file_index>
2881

> <i_lp_mmshare_version>
43012

> <i_f3d_flags>
0

> <s_epik_input>
W0NIM11jMVtjSF1jKG5bbkhdMSlbQ0gyXUMoPU8pW05IXVtDQEhdKFtDQEBIXTIzKVtDQEhdKFtDSDJdW09IXSlbQ0BASF0oW0NIMl0zKVtDSDJdW0NIMl0y

> <s_epik_cmdline>
J2VwaWtfcHl0aG9uJywgJy1waCcsICc3LjAnLCAnLXRuJywgJzgnLCAnLW1hJywgJzIwMCcsICctbWV0YWxfYmluZGluZycsICctaW1hZScsICc8aW5maWxlLm1hZT4nLCAnLW9tYWUnLCAnPG91dGZpbGUubWFlPic=

> <r_lp_tautomer_probability>
0.5

> <r_epik_Ionization_Penalty>
9.4349e-05

> <r_epik_Ionization_Penalty_Charging>
0

> <r_epik_Ionization_Penalty_Neutral>
9.4349e-05

> <r_epik_State_Penalty>
0.41068

> <r_epik_Charging_Adjusted_Penalty>
0.41068

> <i_epik_Tot_Q>
0

> <i_epik_Tot_abs_Q>
0

> <r_epik_Metal_State_Penalty>
0.4107

> <b_epik_Metal_Only>
0

> <s_lp_Force_Field>
OPLS_2005

> <r_lp_Energy>
48.9716

> <b_lp_Chiralities_Consistent>
1

> <s_lp_Variant>
AV-unprocessed.smi:2881-5

> <Gold.Version>
5.8.1

> <Gold.Id.Protein>
6NUR|6NUR_protein|mol2

> <Gold.PLP.Fitness>
43.6774

> <Gold.PLP.PLP>
-41.4410

> <Gold.PLP.part.hbond>
-3.0000

> <Gold.PLP.part.metal>
0.0000

> <Gold.PLP.part.buried>
-3.9563

> <Gold.PLP.part.nonpolar>
-34.3004

> <Gold.PLP.part.repulsive>
0.3798

> <Gold.PLP.ligand.clash>
0.0000

> <Gold.PLP.ligand.torsion>
0.3886

> <Gold.PLP.Chemscore.Hbond>
1.0000

> <Gold.PLP.Chemscore.CHOScore>
0.0000

> <Gold.PLP.Chemscore.Metal>
0.0000

> <Gold.Chemscore.Hbonds>
donor molecule, donor type, donor heavy atom, donor atom, acceptor molecule, acceptor atom, score
      L1  H    19    20       P1  7948  0.96

> <Gold.PLP.Chemscore.Internal.Correction>
0.0135

> <Gold.Rescore>
     Score         DG    S(hbond)    S(metal)    S(lipo)     H(rot)  DE(clash)    DE(int)     intcor
     16.36     -16.94       0.97        0.00     119.97       2.28       0.01       0.58       ----

> <Gold.Chemscore.Fitness>
16.3570

> <Gold.Chemscore.DG>
-16.9448

> <Gold.Chemscore.ZeroCoef>
-5.4800

> <Gold.Chemscore.Hbond>
0.9740

> <Gold.Chemscore.Metal>
0.0000

> <Gold.Chemscore.Lipo>
119.9730

> <Gold.Chemscore.Internal_Hbond>
0.0000

> <Gold.Chemscore.DEClash>
0.0115

> <Gold.Chemscore.DEInternal>
0.5763

> <Gold.Chemscore.Rot>
2.2755

> <Gold.Chemscore.Internal.Correction>
   9.000000E+99

> <Gold.Chemscore.Hbonds>
donor molecule, donor type, donor heavy atom, donor atom, acceptor molecule, acceptor atom, score
      L1  H    19    20       P1  7948  0.64

> <Gold.Chemscore.Hbond.Weighted>
-3.2532

> <Gold.Chemscore.Metal.Weighted>
-0.0000

> <Gold.Chemscore.Lipo.Weighted>
-14.0368

> <Gold.Chemscore.Internal_Hbond.Weighted>
0.0000

> <Gold.Chemscore.DEClash.Weighted>
0.0115

> <Gold.Chemscore.DEInternal.Weighted>
0.5763

> <Gold.Chemscore.Rot.Weighted>
5.8252

> <Gold.Chemscore.Internal.Correction.Weighted>
   9.000000E+99

> <Gold.Protein.RotatedTorsions>
[ 6907 6896 6895 6894 ] final -116.76 input  -60.11 | X-H torsion
[ 7974 7965 7964 7962 ] final  178.14 input  175.53 | X-H torsion
[ 8008 7997 7996 7995 ] final   37.65 input   59.86 | X-H torsion
[ 10167 10162 10161 10158 ] final   23.99 input  -65.29 | X-H torsion
[ 10718 10713 10712 10709 ] final  114.21 input   66.30 | X-H torsion
[ 10763 10752 10751 10750 ] final   94.69 input  -60.55 | X-H torsion
[ 11005 11000 10999 10996 ] final   79.10 input  -57.11 | X-H torsion

> <Gold.Protein.ActiveResidues>
 VAL166  LYS551  ARG553  GLY616  TRP617  ASP618  TYR619  PRO620  LYS621  CYS622 
 ASP623  PHE694  ASN695  SER759  ASP760  ASP761  ALA762  ILE779  LEU786  VAL792 
 PHE793  MET794  SER795  GLU796  ALA797  LYS798  CYS799  TRP800  GLU811  SER814 

> <Gold.Protein.RotatedAtoms>
  150.8082  133.8471  159.3194 H   0  0  0  0  0  0  0  0  0  0  0  0  # atno 6907 bound_to 6896
  151.6264  135.1025  160.0122 H   0  0  0  0  0  0  0  0  0  0  0  0  # atno 6908 bound_to 6896
  152.4173  133.7019  159.6485 H   0  0  0  0  0  0  0  0  0  0  0  0  # atno 6909 bound_to 6896
  144.7160  140.0353  143.6438 H   0  0  0  0  0  0  0  0  0  0  0  0  # atno 7974 bound_to 7965
  155.2072  140.3320  155.4334 H   0  0  0  0  0  0  0  0  0  0  0  0  # atno 8008 bound_to 7997
  156.2384  140.1883  156.7105 H   0  0  0  0  0  0  0  0  0  0  0  0  # atno 8009 bound_to 7997
  154.6102  140.0610  156.9469 H   0  0  0  0  0  0  0  0  0  0  0  0  # atno 8010 bound_to 7997
  140.5224  143.9980  150.6423 H   0  0  0  0  0  0  0  0  0  0  0  0  # atno 10167 bound_to 10162
  157.6294  131.0995  150.7152 H   0  0  0  0  0  0  0  0  0  0  0  0  # atno 10718 bound_to 10713
  153.2446  135.4280  155.0734 H   0  0  0  0  0  0  0  0  0  0  0  0  # atno 10763 bound_to 10752
  154.8355  135.3411  154.6600 H   0  0  0  0  0  0  0  0  0  0  0  0  # atno 10764 bound_to 10752
  153.7023  135.7027  153.5116 H   0  0  0  0  0  0  0  0  0  0  0  0  # atno 10765 bound_to 10752
  139.9186  134.7816  156.1734 H   0  0  0  0  0  0  0  0  0  0  0  0  # atno 11005 bound_to 11000
  146.0069  139.3137  143.0894 LP  0  0  0  0  0  0  0  0  0  0  0  0  # atno 17320 bound_to 7965
  145.8728  140.9410  143.0642 LP  0  0  0  0  0  0  0  0  0  0  0  0  # atno 17321 bound_to 7965
  140.3332  143.3064  152.0665 LP  0  0  0  0  0  0  0  0  0  0  0  0  # atno 17342 bound_to 10162
  139.4927  144.6494  151.6708 LP  0  0  0  0  0  0  0  0  0  0  0  0  # atno 17343 bound_to 10162
  156.7494  130.4764  149.5460 LP  0  0  0  0  0  0  0  0  0  0  0  0  # atno 17370 bound_to 10713
  156.1488  130.6295  151.0567 LP  0  0  0  0  0  0  0  0  0  0  0  0  # atno 17371 bound_to 10713
  141.0686  133.6807  156.2095 LP  0  0  0  0  0  0  0  0  0  0  0  0  # atno 17394 bound_to 11000
  140.6544  134.5033  157.5579 LP  0  0  0  0  0  0  0  0  0  0  0  0  # atno 17395 bound_to 11000

$$$$
