AV-unprocessed.smi:1244|AV-procd|sdf|5230|dock3
  -GOLD-   22720 4333D 1   1.00000     0.00000
 Structure written by MMmdl.
 55 57  0  0  0  0  0  0  0  0  2 V2000
  152.0366  140.4597  156.9587 C   0  0  0  0  0  0  0  0  0  0  0  0
  152.2222  140.1974  155.4540 C   0  0  1  0  0  0  0  0  0  0  0  0
  152.3769  138.7014  155.1156 C   0  0  0  0  0  0  0  0  0  0  0  0
  151.1205  137.9749  155.2438 N   0  0  0  0  0  0  0  0  0  0  0  0
  151.2896  136.5465  154.9713 C   0  0  0  0  0  0  0  0  0  0  0  0
  150.0700  135.6682  155.3241 C   0  0  0  0  0  0  0  0  0  0  0  0
  149.4971  135.0463  154.1353 N   0  0  0  0  0  0  0  0  0  0  0  0
  149.0855  133.7745  154.0559 C   0  0  0  0  0  0  0  0  0  0  0  0
  149.3182  132.9180  154.9091 O   0  0  0  0  0  0  0  0  0  0  0  0
  148.3472  133.5754  152.9547 N   0  0  0  0  0  0  0  0  0  0  0  0
  147.5410  132.4387  152.6994 C   0  0  0  0  0  0  0  0  0  0  0  0
  147.8978  131.1886  153.2605 C   0  0  0  0  0  0  0  0  0  0  0  0
  147.0960  130.0584  153.0154 C   0  0  0  0  0  0  0  0  0  0  0  0
  145.9517  130.2010  152.2116 C   0  0  0  0  0  0  0  0  0  0  0  0
  145.6456  131.4068  151.6879 N   0  3  0  0  0  0  0  0  0  0  0  0
  146.3803  132.5315  151.8778 C   0  0  0  0  0  0  0  0  0  0  0  0
  145.9291  133.7323  151.2786 N   0  0  0  0  0  0  0  0  0  0  0  0
  144.8404  133.6869  150.3087 C   0  0  0  0  0  0  0  0  0  0  0  0
  144.3002  135.1138  150.2216 C   0  0  0  0  0  0  0  0  0  0  0  0
  144.5624  135.6682  151.6162 C   0  0  0  0  0  0  0  0  0  0  0  0
  145.8655  134.9841  152.0338 C   0  0  0  0  0  0  0  0  0  0  0  0
  150.1156  138.6021  154.3938 C   0  0  0  0  0  0  0  0  0  0  0  0
  149.9131  140.0843  154.7581 C   0  0  2  0  0  0  0  0  0  0  0  0
  148.9295  140.7822  153.8128 C   0  0  0  0  0  0  0  0  0  0  0  0
  151.1627  140.7695  154.6838 O   0  0  0  0  0  0  0  0  0  0  0  0
  152.9066  140.1217  157.5221 H   0  0  0  0  0  0  0  0  0  0  0  0
  151.1691  139.9361  157.3590 H   0  0  0  0  0  0  0  0  0  0  0  0
  151.9064  141.5236  157.1566 H   0  0  0  0  0  0  0  0  0  0  0  0
  153.1357  140.7088  155.1494 H   0  0  0  0  0  0  0  0  0  0  0  0
  152.7509  138.6023  154.0950 H   0  0  0  0  0  0  0  0  0  0  0  0
  153.1338  138.2588  155.7646 H   0  0  0  0  0  0  0  0  0  0  0  0
  151.5627  136.3942  153.9262 H   0  0  0  0  0  0  0  0  0  0  0  0
  152.1360  136.1798  155.5540 H   0  0  0  0  0  0  0  0  0  0  0  0
  150.3629  134.8756  156.0125 H   0  0  0  0  0  0  0  0  0  0  0  0
  149.3139  136.2591  155.8432 H   0  0  0  0  0  0  0  0  0  0  0  0
  149.2733  135.6658  153.3704 H   0  0  0  0  0  0  0  0  0  0  0  0
  148.1590  134.3908  152.3905 H   0  0  0  0  0  0  0  0  0  0  0  0
  148.7797  131.0922  153.8771 H   0  0  0  0  0  0  0  0  0  0  0  0
  147.3541  129.0993  153.4400 H   0  0  0  0  0  0  0  0  0  0  0  0
  145.2754  129.3931  151.9723 H   0  0  0  0  0  0  0  0  0  0  0  0
  145.1752  133.3575  149.3259 H   0  0  0  0  0  0  0  0  0  0  0  0
  144.0678  133.0014  150.6602 H   0  0  0  0  0  0  0  0  0  0  0  0
  144.8707  135.6829  149.4862 H   0  0  0  0  0  0  0  0  0  0  0  0
  143.2486  135.1531  149.9359 H   0  0  0  0  0  0  0  0  0  0  0  0
  144.6293  136.7563  151.6377 H   0  0  0  0  0  0  0  0  0  0  0  0
  143.7565  135.3668  152.2867 H   0  0  0  0  0  0  0  0  0  0  0  0
  145.8996  134.8682  153.1163 H   0  0  0  0  0  0  0  0  0  0  0  0
  146.7208  135.5955  151.7457 H   0  0  0  0  0  0  0  0  0  0  0  0
  150.4113  138.5155  153.3469 H   0  0  0  0  0  0  0  0  0  0  0  0
  149.1618  138.0841  154.4927 H   0  0  0  0  0  0  0  0  0  0  0  0
  149.5219  140.1572  155.7735 H   0  0  0  0  0  0  0  0  0  0  0  0
  147.9502  140.3039  153.8417 H   0  0  0  0  0  0  0  0  0  0  0  0
  149.2858  140.7548  152.7824 H   0  0  0  0  0  0  0  0  0  0  0  0
  148.7969  141.8278  154.0918 H   0  0  0  0  0  0  0  0  0  0  0  0
  144.8078  131.4753  151.1099 H   0  0  0  0  0  0  0  0  0  0  0  0
  1  2  1  0  0  0  0
  1 26  1  0  0  0  0
  1 27  1  0  0  0  0
  1 28  1  0  0  0  0
  2 25  1  0  0  0  0
  2  3  1  0  0  0  0
  2 29  1  0  0  0  0
  3  4  1  0  0  0  0
  3 30  1  0  0  0  0
  3 31  1  0  0  0  0
  4  5  1  0  0  0  0
  4 22  1  0  0  0  0
  5  6  1  0  0  0  0
  5 32  1  0  0  0  0
  5 33  1  0  0  0  0
  6  7  1  0  0  0  0
  6 34  1  0  0  0  0
  6 35  1  0  0  0  0
  7  8  1  0  0  0  0
  7 36  1  0  0  0  0
  8  9  2  0  0  0  0
  8 10  1  0  0  0  0
 10 11  1  0  0  0  0
 10 37  1  0  0  0  0
 11 16  1  0  0  0  0
 11 12  2  0  0  0  0
 12 13  1  0  0  0  0
 12 38  1  0  0  0  0
 13 14  2  0  0  0  0
 13 39  1  0  0  0  0
 14 15  1  0  0  0  0
 14 40  1  0  0  0  0
 15 16  2  0  0  0  0
 15 55  1  0  0  0  0
 16 17  1  0  0  0  0
 17 21  1  0  0  0  0
 17 18  1  0  0  0  0
 18 19  1  0  0  0  0
 18 41  1  0  0  0  0
 18 42  1  0  0  0  0
 19 20  1  0  0  0  0
 19 43  1  0  0  0  0
 19 44  1  0  0  0  0
 20 21  1  0  0  0  0
 20 45  1  0  0  0  0
 20 46  1  0  0  0  0
 21 47  1  0  0  0  0
 21 48  1  0  0  0  0
 22 23  1  0  0  0  0
 22 49  1  0  0  0  0
 22 50  1  0  0  0  0
 23 24  1  0  0  0  0
 23 25  1  0  0  0  0
 23 51  1  0  0  0  0
 24 52  1  0  0  0  0
 24 53  1  0  0  0  0
 24 54  1  0  0  0  0
M  CHG  1  15   1
M  END
> <s_m_source_file>
AV-unprocessed.smi

> <i_m_source_file_index>
1244

> <i_lp_mmshare_version>
43012

> <i_f3d_flags>
0

> <s_epik_input>
W0NIM11bQ0BASF0xW0NIMl1OKFtDSDJdW0NASF0oTzEpW0NIM10pW0NIMl1bQ0gyXVtOSF1DKD1PKVtOSF1jMltjSF1bY0hdW2NIXW5jMk4zW0NIMl1bQ0gyXVtDSDJdW0NIMl0z

> <s_epik_cmdline>
J2VwaWtfcHl0aG9uJywgJy1waCcsICc3LjAnLCAnLXRuJywgJzgnLCAnLW1hJywgJzIwMCcsICctbWV0YWxfYmluZGluZycsICctaW1hZScsICc8aW5maWxlLm1hZT4nLCAnLW9tYWUnLCAnPG91dGZpbGUubWFlPic=

> <r_epik_Ionization_Penalty>
1.38385

> <r_epik_Ionization_Penalty_Charging>
1.11784

> <r_epik_Ionization_Penalty_Neutral>
0.26601

> <r_epik_State_Penalty>
1.46794

> <r_epik_Charging_Adjusted_Penalty>
2.58578

> <i_epik_Tot_Q>
1

> <i_epik_Tot_abs_Q>
1

> <r_epik_Metal_State_Penalty>
1.54908

> <b_epik_Metal_Only>
0

> <s_lp_Force_Field>
OPLS_2005

> <r_lp_Energy>
60.8331

> <b_lp_Chiralities_Consistent>
1

> <s_lp_Variant>
AV-unprocessed.smi:1244-10

> <Gold.Version>
5.8.1

> <Gold.Id.Protein>
6NUR|6NUR_protein|mol2

> <Gold.PLP.Fitness>
50.1110

> <Gold.PLP.PLP>
-43.3450

> <Gold.PLP.part.hbond>
-3.0000

> <Gold.PLP.part.metal>
0.0000

> <Gold.PLP.part.buried>
-1.1824

> <Gold.PLP.part.nonpolar>
-37.5735

> <Gold.PLP.part.repulsive>
0.1886

> <Gold.PLP.ligand.clash>
0.0496

> <Gold.PLP.ligand.torsion>
1.1079

> <Gold.PLP.Chemscore.Hbond>
2.6463

> <Gold.PLP.Chemscore.CHOScore>
0.0000

> <Gold.PLP.Chemscore.Metal>
0.0000

> <Gold.Chemscore.Hbonds>
donor molecule, donor type, donor heavy atom, donor atom, acceptor molecule, acceptor atom, score
      L1  H     7    36       P1  7948  1.00
      L1  H    10    37       P1  7948  0.75
      P1  H  7989  7998       L1    25  0.31

> <Gold.PLP.Chemscore.Internal.Correction>
1.0924

> <Gold.Rescore>
     Score         DG    S(hbond)    S(metal)    S(lipo)     H(rot)  DE(clash)    DE(int)     intcor
     16.08     -19.47       1.95        0.00      94.63       1.40       0.04       3.35       ----

> <Gold.Chemscore.Fitness>
16.0847

> <Gold.Chemscore.DG>
-19.4720

> <Gold.Chemscore.ZeroCoef>
-5.4800

> <Gold.Chemscore.Hbond>
1.9490

> <Gold.Chemscore.Metal>
0.0000

> <Gold.Chemscore.Lipo>
94.6343

> <Gold.Chemscore.Internal_Hbond>
0.0000

> <Gold.Chemscore.DEClash>
0.0389

> <Gold.Chemscore.DEInternal>
3.3484

> <Gold.Chemscore.Rot>
1.4023

> <Gold.Chemscore.Internal.Correction>
   9.000000E+99

> <Gold.Chemscore.Hbonds>
donor molecule, donor type, donor heavy atom, donor atom, acceptor molecule, acceptor atom, score
      L1  H     7    36       P1  7948  0.44
      L1  H    10    37       P1  7948  0.14
      P1  H  7989  7998       L1    25  0.14

> <Gold.Chemscore.Hbond.Weighted>
-6.5097

> <Gold.Chemscore.Metal.Weighted>
-0.0000

> <Gold.Chemscore.Lipo.Weighted>
-11.0722

> <Gold.Chemscore.Internal_Hbond.Weighted>
0.0000

> <Gold.Chemscore.DEClash.Weighted>
0.0389

> <Gold.Chemscore.DEInternal.Weighted>
3.3484

> <Gold.Chemscore.Rot.Weighted>
3.5899

> <Gold.Chemscore.Internal.Correction.Weighted>
   9.000000E+99

> <Gold.Protein.RotatedTorsions>
[ 6907 6896 6895 6894 ] final    3.08 input  -60.11 | X-H torsion
[ 7974 7965 7964 7962 ] final   76.37 input  175.53 | X-H torsion
[ 8008 7997 7996 7995 ] final  -56.01 input   59.86 | X-H torsion
[ 10167 10162 10161 10158 ] final  115.47 input  -65.29 | X-H torsion
[ 10718 10713 10712 10709 ] final   31.09 input   66.30 | X-H torsion
[ 10763 10752 10751 10750 ] final  122.17 input  -60.55 | X-H torsion
[ 11005 11000 10999 10996 ] final   57.41 input  -57.11 | X-H torsion

> <Gold.Protein.ActiveResidues>
 VAL166  LYS551  ARG553  GLY616  TRP617  ASP618  TYR619  PRO620  LYS621  CYS622 
 ASP623  PHE694  ASN695  SER759  ASP760  ASP761  ALA762  ILE779  LEU786  VAL792 
 PHE793  MET794  SER795  GLU796  ALA797  LYS798  CYS799  TRP800  GLU811  SER814 

> <Gold.Protein.RotatedAtoms>
  151.6193  135.1033  160.0097 H   0  0  0  0  0  0  0  0  0  0  0  0  # atno 6907 bound_to 6896
  152.4166  133.7044  159.6453 H   0  0  0  0  0  0  0  0  0  0  0  0  # atno 6908 bound_to 6896
  150.8054  133.8446  159.3229 H   0  0  0  0  0  0  0  0  0  0  0  0  # atno 6909 bound_to 6896
  145.7037  139.2591  143.1690 H   0  0  0  0  0  0  0  0  0  0  0  0  # atno 7974 bound_to 7965
  154.4215  140.1139  156.5569 H   0  0  0  0  0  0  0  0  0  0  0  0  # atno 8008 bound_to 7997
  155.6351  140.3496  155.4677 H   0  0  0  0  0  0  0  0  0  0  0  0  # atno 8009 bound_to 7997
  155.9916  140.1180  157.0622 H   0  0  0  0  0  0  0  0  0  0  0  0  # atno 8010 bound_to 7997
  139.6314  144.7115  151.2423 H   0  0  0  0  0  0  0  0  0  0  0  0  # atno 10167 bound_to 10162
  157.2680  130.7194  149.6489 H   0  0  0  0  0  0  0  0  0  0  0  0  # atno 10718 bound_to 10713
  153.6256  135.3405  155.3025 H   0  0  0  0  0  0  0  0  0  0  0  0  # atno 10763 bound_to 10752
  154.8591  135.4283  154.2160 H   0  0  0  0  0  0  0  0  0  0  0  0  # atno 10764 bound_to 10752
  153.3044  135.7027  153.7246 H   0  0  0  0  0  0  0  0  0  0  0  0  # atno 10765 bound_to 10752
  140.0455  134.5812  155.9328 H   0  0  0  0  0  0  0  0  0  0  0  0  # atno 11005 bound_to 11000
  146.0775  140.7801  142.9658 LP  0  0  0  0  0  0  0  0  0  0  0  0  # atno 17320 bound_to 7965
  144.6961  140.3437  143.7194 LP  0  0  0  0  0  0  0  0  0  0  0  0  # atno 17321 bound_to 7965
  140.7441  143.6473  150.8280 LP  0  0  0  0  0  0  0  0  0  0  0  0  # atno 17342 bound_to 10162
  140.0098  143.5655  152.2843 LP  0  0  0  0  0  0  0  0  0  0  0  0  # atno 17343 bound_to 10162
  155.9663  130.4376  150.5184 LP  0  0  0  0  0  0  0  0  0  0  0  0  # atno 17370 bound_to 10713
  157.3102  131.0662  151.2006 LP  0  0  0  0  0  0  0  0  0  0  0  0  # atno 17371 bound_to 10713
  141.1904  133.6568  156.5412 LP  0  0  0  0  0  0  0  0  0  0  0  0  # atno 17394 bound_to 11000
  140.4001  134.7364  157.4774 LP  0  0  0  0  0  0  0  0  0  0  0  0  # atno 17395 bound_to 11000

$$$$
