AV-unprocessed.smi:492|AV-procd|sdf|2711|dock10
  -GOLD-   2262023153D 1   1.00000     0.00000
 Structure written by MMmdl.
 47 49  0  0  0  0  0  0  0  0  2 V2000
  153.5670  133.6854  165.7518 C   0  0  0  0  0  0  0  0  0  0  0  0
  154.3227  133.9184  164.5722 O   0  0  0  0  0  0  0  0  0  0  0  0
  154.5422  135.2245  164.1901 C   0  0  0  0  0  0  0  0  0  0  0  0
  155.2950  135.4312  163.0159 C   0  0  0  0  0  0  0  0  0  0  0  0
  155.5674  136.7326  162.5523 C   0  0  0  0  0  0  0  0  0  0  0  0
  155.0926  137.8518  163.2651 C   0  0  0  0  0  0  0  0  0  0  0  0
  155.3709  139.2545  162.7604 C   0  0  0  0  0  0  0  0  0  0  0  0
  154.2579  139.7945  162.0675 O   0  0  0  0  0  0  0  0  0  0  0  0
  154.5101  141.0850  161.5347 C   0  0  0  0  0  0  0  0  0  0  0  0
  153.2965  141.5701  160.7254 C   0  0  1  0  0  0  0  0  0  0  0  0
  152.3425  142.1326  161.6035 O   0  0  0  0  0  0  0  0  0  0  0  0
  153.6597  142.5472  159.5876 C   0  0  0  0  0  0  0  0  0  0  0  0
  152.5789  142.7010  158.6023 N   0  0  0  0  0  0  0  0  0  0  0  0
  151.9319  143.8206  158.1691 C   0  0  0  0  0  0  0  0  0  0  0  0
  152.1828  145.2233  158.6114 C   0  0  0  0  0  0  0  0  0  0  0  0
  151.0066  143.4219  157.2509 N   0  3  0  0  0  0  0  0  0  0  0  0
  151.0655  142.0363  157.0919 C   0  0  0  0  0  0  0  0  0  0  0  0
  150.3301  141.1786  156.2793 C   0  0  0  0  0  0  0  0  0  0  0  0
  150.6467  139.8064  156.3578 C   0  0  0  0  0  0  0  0  0  0  0  0
  151.6593  139.3338  157.2181 C   0  0  0  0  0  0  0  0  0  0  0  0
  152.3977  140.2126  158.0380 C   0  0  0  0  0  0  0  0  0  0  0  0
  152.0770  141.5672  157.9552 C   0  0  0  0  0  0  0  0  0  0  0  0
  154.3310  137.6560  164.4350 C   0  0  0  0  0  0  0  0  0  0  0  0
  154.0590  136.3539  164.8980 C   0  0  0  0  0  0  0  0  0  0  0  0
  153.4821  132.6118  165.9181 H   0  0  0  0  0  0  0  0  0  0  0  0
  152.5561  134.0859  165.6630 H   0  0  0  0  0  0  0  0  0  0  0  0
  154.0516  134.1175  166.6284 H   0  0  0  0  0  0  0  0  0  0  0  0
  155.6670  134.5816  162.4624 H   0  0  0  0  0  0  0  0  0  0  0  0
  156.1432  136.8665  161.6484 H   0  0  0  0  0  0  0  0  0  0  0  0
  155.6287  139.9013  163.6006 H   0  0  0  0  0  0  0  0  0  0  0  0
  156.2384  139.2160  162.0999 H   0  0  0  0  0  0  0  0  0  0  0  0
  154.6888  141.7767  162.3594 H   0  0  0  0  0  0  0  0  0  0  0  0
  155.4098  141.0827  160.9168 H   0  0  0  0  0  0  0  0  0  0  0  0
  152.8189  140.6905  160.2933 H   0  0  0  0  0  0  0  0  0  0  0  0
  151.4828  142.0041  161.2333 H   0  0  0  0  0  0  0  0  0  0  0  0
  153.8795  143.5375  159.9878 H   0  0  0  0  0  0  0  0  0  0  0  0
  154.5606  142.2213  159.0662 H   0  0  0  0  0  0  0  0  0  0  0  0
  151.4265  145.8950  158.2047 H   0  0  0  0  0  0  0  0  0  0  0  0
  153.1630  145.5547  158.2684 H   0  0  0  0  0  0  0  0  0  0  0  0
  152.1546  145.2884  159.6994 H   0  0  0  0  0  0  0  0  0  0  0  0
  149.5545  141.5378  155.6188 H   0  0  0  0  0  0  0  0  0  0  0  0
  150.1021  139.1022  155.7456 H   0  0  0  0  0  0  0  0  0  0  0  0
  151.8739  138.2754  157.2505 H   0  0  0  0  0  0  0  0  0  0  0  0
  153.1713  139.8414  158.6939 H   0  0  0  0  0  0  0  0  0  0  0  0
  153.9512  138.5060  164.9831 H   0  0  0  0  0  0  0  0  0  0  0  0
  153.4750  136.2483  165.7996 H   0  0  0  0  0  0  0  0  0  0  0  0
  150.3820  144.0548  156.7678 H   0  0  0  0  0  0  0  0  0  0  0  0
  1  2  1  0  0  0  0
  1 25  1  0  0  0  0
  1 26  1  0  0  0  0
  1 27  1  0  0  0  0
  2  3  1  0  0  0  0
  3 24  1  0  0  0  0
  3  4  2  0  0  0  0
  4  5  1  0  0  0  0
  4 28  1  0  0  0  0
  5  6  2  0  0  0  0
  5 29  1  0  0  0  0
  6  7  1  0  0  0  0
  6 23  1  0  0  0  0
  7  8  1  0  0  0  0
  7 30  1  0  0  0  0
  7 31  1  0  0  0  0
  8  9  1  0  0  0  0
  9 10  1  0  0  0  0
  9 32  1  0  0  0  0
  9 33  1  0  0  0  0
 10 11  1  0  0  0  0
 10 12  1  0  0  0  0
 10 34  1  0  0  0  0
 11 35  1  0  0  0  0
 12 13  1  0  0  0  0
 12 36  1  0  0  0  0
 12 37  1  0  0  0  0
 13 22  1  0  0  0  0
 13 14  1  0  0  0  0
 14 15  1  0  0  0  0
 14 16  2  0  0  0  0
 15 38  1  0  0  0  0
 15 39  1  0  0  0  0
 15 40  1  0  0  0  0
 16 17  1  0  0  0  0
 16 47  1  0  0  0  0
 17 22  2  0  0  0  0
 17 18  1  0  0  0  0
 18 19  2  0  0  0  0
 18 41  1  0  0  0  0
 19 20  1  0  0  0  0
 19 42  1  0  0  0  0
 20 21  2  0  0  0  0
 20 43  1  0  0  0  0
 21 22  1  0  0  0  0
 21 44  1  0  0  0  0
 23 24  2  0  0  0  0
 23 45  1  0  0  0  0
 24 46  1  0  0  0  0
M  CHG  1  16   1
M  END
> <s_m_source_file>
AV-unprocessed.smi

> <i_m_source_file_index>
492

> <i_lp_mmshare_version>
43012

> <i_f3d_flags>
0

> <s_epik_input>
W0NIM11PYzFbY0hdW2NIXWMoW2NIXVtjSF0xKVtDSDJdT1tDSDJdW0NASF0oW09IXSlbQ0gyXW4oYyhuMilbQ0gzXSljKGMyMylbY0hdW2NIXVtjSF1bY0hdMw==

> <s_epik_cmdline>
J2VwaWtfcHl0aG9uJywgJy1waCcsICc3LjAnLCAnLXRuJywgJzgnLCAnLW1hJywgJzIwMCcsICctbWV0YWxfYmluZGluZycsICctaW1hZScsICc8aW5maWxlLm1hZT4nLCAnLW9tYWUnLCAnPG91dGZpbGUubWFlPic=

> <r_lp_tautomer_probability>
1

> <r_epik_Ionization_Penalty>
0.952

> <r_epik_Ionization_Penalty_Charging>
0.951999

> <r_epik_Ionization_Penalty_Neutral>
9.7482e-07

> <r_epik_State_Penalty>
0.996343

> <r_epik_Charging_Adjusted_Penalty>
1.94834

> <i_epik_Tot_Q>
1

> <i_epik_Tot_abs_Q>
1

> <r_epik_Metal_State_Penalty>
4.96724

> <b_epik_Metal_Only>
0

> <s_lp_Force_Field>
OPLS_2005

> <r_lp_Energy>
22.9053

> <b_lp_Chiralities_Consistent>
1

> <s_lp_Variant>
AV-unprocessed.smi:492-4

> <Gold.Version>
5.8.1

> <Gold.Id.Protein>
6NUR|6NUR_protein|mol2

> <Gold.PLP.Fitness>
55.3330

> <Gold.PLP.PLP>
-50.5093

> <Gold.PLP.part.hbond>
-1.2312

> <Gold.PLP.part.metal>
0.0000

> <Gold.PLP.part.buried>
-4.6146

> <Gold.PLP.part.nonpolar>
-44.8210

> <Gold.PLP.part.repulsive>
0.0381

> <Gold.PLP.ligand.clash>
0.0000

> <Gold.PLP.ligand.torsion>
0.6916

> <Gold.PLP.Chemscore.Hbond>
2.0000

> <Gold.PLP.Chemscore.CHOScore>
0.0000

> <Gold.PLP.Chemscore.Metal>
0.0000

> <Gold.Chemscore.Hbonds>
donor molecule, donor type, donor heavy atom, donor atom, acceptor molecule, acceptor atom, score
      L1  H    16    47       P1  8028  2.00

> <Gold.PLP.Chemscore.Internal.Correction>
0.2069

> <Gold.Rescore>
     Score         DG    S(hbond)    S(metal)    S(lipo)     H(rot)  DE(clash)    DE(int)     intcor
     18.01     -18.61       1.00        0.00     138.59       2.50       0.08       0.53       ----

> <Gold.Chemscore.Fitness>
18.0070

> <Gold.Chemscore.DG>
-18.6122

> <Gold.Chemscore.ZeroCoef>
-5.4800

> <Gold.Chemscore.Hbond>
0.9960

> <Gold.Chemscore.Metal>
0.0000

> <Gold.Chemscore.Lipo>
138.5923

> <Gold.Chemscore.Internal_Hbond>
0.0000

> <Gold.Chemscore.DEClash>
0.0755

> <Gold.Chemscore.DEInternal>
0.5296

> <Gold.Chemscore.Rot>
2.5038

> <Gold.Chemscore.Internal.Correction>
   9.000000E+99

> <Gold.Chemscore.Hbonds>
donor molecule, donor type, donor heavy atom, donor atom, acceptor molecule, acceptor atom, score
      L1  H    16    47       P1  8028  0.98

> <Gold.Chemscore.Hbond.Weighted>
-3.3266

> <Gold.Chemscore.Metal.Weighted>
-0.0000

> <Gold.Chemscore.Lipo.Weighted>
-16.2153

> <Gold.Chemscore.Internal_Hbond.Weighted>
0.0000

> <Gold.Chemscore.DEClash.Weighted>
0.0755

> <Gold.Chemscore.DEInternal.Weighted>
0.5296

> <Gold.Chemscore.Rot.Weighted>
6.4098

> <Gold.Chemscore.Internal.Correction.Weighted>
   9.000000E+99

> <Gold.Protein.RotatedTorsions>
[ 6907 6896 6895 6894 ] final   68.62 input  -60.11 | X-H torsion
[ 7974 7965 7964 7962 ] final -116.89 input  175.53 | X-H torsion
[ 8008 7997 7996 7995 ] final -171.98 input   59.86 | X-H torsion
[ 10167 10162 10161 10158 ] final -168.93 input  -65.29 | X-H torsion
[ 10718 10713 10712 10709 ] final -105.24 input   66.30 | X-H torsion
[ 10763 10752 10751 10750 ] final  -33.42 input  -60.55 | X-H torsion
[ 11005 11000 10999 10996 ] final  -13.13 input  -57.11 | X-H torsion

> <Gold.Protein.ActiveResidues>
 VAL166  LYS551  ARG553  GLY616  TRP617  ASP618  TYR619  PRO620  LYS621  CYS622 
 ASP623  PHE694  ASN695  SER759  ASP760  ASP761  ALA762  ILE779  LEU786  VAL792 
 PHE793  MET794  SER795  GLU796  ALA797  LYS798  CYS799  TRP800  GLU811  SER814 

> <Gold.Protein.RotatedAtoms>
  152.4632  134.5136  159.9761 H   0  0  0  0  0  0  0  0  0  0  0  0  # atno 6907 bound_to 6896
  151.5180  133.3466  159.2904 H   0  0  0  0  0  0  0  0  0  0  0  0  # atno 6908 bound_to 6896
  150.8604  134.7984  159.7141 H   0  0  0  0  0  0  0  0  0  0  0  0  # atno 6909 bound_to 6896
  145.0915  140.8493  143.3979 H   0  0  0  0  0  0  0  0  0  0  0  0  # atno 7974 bound_to 7965
  155.9386  140.1104  157.1074 H   0  0  0  0  0  0  0  0  0  0  0  0  # atno 8008 bound_to 7997
  154.4085  140.1223  156.4963 H   0  0  0  0  0  0  0  0  0  0  0  0  # atno 8009 bound_to 7997
  155.6990  140.3472  155.4927 H   0  0  0  0  0  0  0  0  0  0  0  0  # atno 8010 bound_to 7997
  139.5954  144.1123  152.1683 H   0  0  0  0  0  0  0  0  0  0  0  0  # atno 10167 bound_to 10162
  156.0338  130.5554  150.7511 H   0  0  0  0  0  0  0  0  0  0  0  0  # atno 10718 bound_to 10713
  153.8300  135.6867  153.4816 H   0  0  0  0  0  0  0  0  0  0  0  0  # atno 10763 bound_to 10752
  153.1517  135.4615  154.9644 H   0  0  0  0  0  0  0  0  0  0  0  0  # atno 10764 bound_to 10752
  154.7891  135.3295  154.7764 H   0  0  0  0  0  0  0  0  0  0  0  0  # atno 10765 bound_to 10752
  140.7729  133.8424  155.9223 H   0  0  0  0  0  0  0  0  0  0  0  0  # atno 11005 bound_to 11000
  145.1060  139.2790  143.5662 LP  0  0  0  0  0  0  0  0  0  0  0  0  # atno 17320 bound_to 7965
  146.3531  140.0641  142.8627 LP  0  0  0  0  0  0  0  0  0  0  0  0  # atno 17321 bound_to 7965
  140.0707  144.5782  150.7194 LP  0  0  0  0  0  0  0  0  0  0  0  0  # atno 17342 bound_to 10162
  140.7208  143.2587  151.4285 LP  0  0  0  0  0  0  0  0  0  0  0  0  # atno 17343 bound_to 10162
  157.5055  131.0922  151.0262 LP  0  0  0  0  0  0  0  0  0  0  0  0  # atno 17370 bound_to 10713
  157.0631  130.5833  149.5389 LP  0  0  0  0  0  0  0  0  0  0  0  0  # atno 17371 bound_to 10713
  140.9557  134.1721  157.4694 LP  0  0  0  0  0  0  0  0  0  0  0  0  # atno 17394 bound_to 11000
  139.8753  134.9926  156.5603 LP  0  0  0  0  0  0  0  0  0  0  0  0  # atno 17395 bound_to 11000

$$$$
