AV-unprocessed.smi:99|AV-procd|sdf|895|dock3
  -GOLD-   2262017393D 1   1.00000     0.00000
 Structure written by MMmdl.
 52 55  0  0  0  0  0  0  0  0  2 V2000
  145.1210  135.0343  155.4255 O   0  0  0  0  0  0  0  0  0  0  0  0
  145.9693  134.8360  154.5532 C   0  0  0  0  0  0  0  0  0  0  0  0
  147.2306  135.3031  154.6197 O   0  0  0  0  0  0  0  0  0  0  0  0
  147.6858  135.9494  155.7964 C   0  0  0  0  0  0  0  0  0  0  0  0
  147.1169  137.3789  155.8369 C   0  0  2  0  0  0  0  0  0  0  0  0
  147.9829  138.2615  155.1226 O   0  0  0  0  0  0  0  0  0  0  0  0
  148.8213  138.9780  155.9910 C   0  0  2  0  0  0  0  0  0  0  0  0
  150.2712  138.7299  155.6233 N   0  0  0  0  0  0  0  0  0  0  0  0
  150.6271  137.8239  154.6373 C   0  0  0  0  0  0  0  0  0  0  0  0
  151.9191  137.6099  154.3141 C   0  0  0  0  0  0  0  0  0  0  0  0
  152.9658  138.3496  155.0138 C   0  0  0  0  0  0  0  0  0  0  0  0
  154.1406  138.1477  154.7127 O   0  0  0  0  0  0  0  0  0  0  0  0
  152.5893  139.2397  155.9768 N   0  5  0  0  0  0  0  0  0  0  0  0
  151.2827  139.4573  156.3070 C   0  0  0  0  0  0  0  0  0  0  0  0
  150.9301  140.2564  157.1754 O   0  0  0  0  0  0  0  0  0  0  0  0
  148.4736  138.5529  157.4345 C   0  0  2  0  0  0  0  0  0  0  0  0
  149.3561  137.5711  157.9556 O   0  0  0  0  0  0  0  0  0  0  0  0
  147.0681  138.0066  157.2296 C   0  0  2  0  0  0  0  0  0  0  0  0
  146.6174  137.1337  158.2607 O   0  0  0  0  0  0  0  0  0  0  0  0
  146.3481  137.6012  159.4982 C   0  0  0  0  0  0  0  0  0  0  0  0
  145.9767  138.7537  159.7281 O   0  0  0  0  0  0  0  0  0  0  0  0
  146.5537  136.5750  160.5606 C   0  0  0  0  0  0  0  0  0  0  0  0
  146.4527  136.9543  161.9196 C   0  0  0  0  0  0  0  0  0  0  0  0
  146.6427  136.0073  162.9447 C   0  0  0  0  0  0  0  0  0  0  0  0
  146.9368  134.6693  162.6232 C   0  0  0  0  0  0  0  0  0  0  0  0
  147.0403  134.2794  161.2753 C   0  0  0  0  0  0  0  0  0  0  0  0
  146.8505  135.2250  160.2486 C   0  0  0  0  0  0  0  0  0  0  0  0
  145.7050  134.0542  153.3111 C   0  0  0  0  0  0  0  0  0  0  0  0
  146.7727  133.3744  152.6795 C   0  0  0  0  0  0  0  0  0  0  0  0
  146.5541  132.6299  151.5039 C   0  0  0  0  0  0  0  0  0  0  0  0
  145.2650  132.5571  150.9449 C   0  0  0  0  0  0  0  0  0  0  0  0
  144.1947  133.2296  151.5629 C   0  0  0  0  0  0  0  0  0  0  0  0
  144.4112  133.9743  152.7389 C   0  0  0  0  0  0  0  0  0  0  0  0
  147.3401  135.3831  156.6621 H   0  0  0  0  0  0  0  0  0  0  0  0
  148.7751  135.9557  155.8241 H   0  0  0  0  0  0  0  0  0  0  0  0
  146.1229  137.3850  155.3887 H   0  0  0  0  0  0  0  0  0  0  0  0
  148.6500  140.0400  155.8064 H   0  0  0  0  0  0  0  0  0  0  0  0
  149.8711  137.2696  154.1042 H   0  0  0  0  0  0  0  0  0  0  0  0
  152.1782  136.8996  153.5428 H   0  0  0  0  0  0  0  0  0  0  0  0
  148.4859  139.4234  158.0911 H   0  0  0  0  0  0  0  0  0  0  0  0
  149.8754  137.9667  158.6385 H   0  0  0  0  0  0  0  0  0  0  0  0
  146.3856  138.8556  157.1605 H   0  0  0  0  0  0  0  0  0  0  0  0
  146.2285  137.9760  162.1907 H   0  0  0  0  0  0  0  0  0  0  0  0
  146.5633  136.3087  163.9787 H   0  0  0  0  0  0  0  0  0  0  0  0
  147.0831  133.9432  163.4092 H   0  0  0  0  0  0  0  0  0  0  0  0
  147.2669  133.2528  161.0272 H   0  0  0  0  0  0  0  0  0  0  0  0
  146.9386  134.8918  159.2248 H   0  0  0  0  0  0  0  0  0  0  0  0
  147.7714  133.4163  153.0898 H   0  0  0  0  0  0  0  0  0  0  0  0
  147.3771  132.1146  151.0311 H   0  0  0  0  0  0  0  0  0  0  0  0
  145.0975  131.9868  150.0431 H   0  0  0  0  0  0  0  0  0  0  0  0
  143.2048  133.1750  151.1341 H   0  0  0  0  0  0  0  0  0  0  0  0
  143.5683  134.4806  153.1861 H   0  0  0  0  0  0  0  0  0  0  0  0
  1  2  2  0  0  0  0
  2  3  1  0  0  0  0
  2 28  1  0  0  0  0
  3  4  1  0  0  0  0
  4  5  1  0  0  0  0
  4 34  1  0  0  0  0
  4 35  1  0  0  0  0
  5 18  1  0  0  0  0
  5  6  1  0  0  0  0
  5 36  1  0  0  0  0
  6  7  1  0  0  0  0
  7  8  1  0  0  0  0
  7 16  1  0  0  0  0
  7 37  1  0  0  0  0
  8 14  1  0  0  0  0
  8  9  1  0  0  0  0
  9 10  2  0  0  0  0
  9 38  1  0  0  0  0
 10 11  1  0  0  0  0
 10 39  1  0  0  0  0
 11 12  2  0  0  0  0
 11 13  1  0  0  0  0
 13 14  1  0  0  0  0
 14 15  2  0  0  0  0
 16 17  1  0  0  0  0
 16 18  1  0  0  0  0
 16 40  1  0  0  0  0
 17 41  1  0  0  0  0
 18 19  1  0  0  0  0
 18 42  1  0  0  0  0
 19 20  1  0  0  0  0
 20 21  2  0  0  0  0
 20 22  1  0  0  0  0
 22 27  1  0  0  0  0
 22 23  2  0  0  0  0
 23 24  1  0  0  0  0
 23 43  1  0  0  0  0
 24 25  2  0  0  0  0
 24 44  1  0  0  0  0
 25 26  1  0  0  0  0
 25 45  1  0  0  0  0
 26 27  2  0  0  0  0
 26 46  1  0  0  0  0
 27 47  1  0  0  0  0
 28 33  1  0  0  0  0
 28 29  2  0  0  0  0
 29 30  1  0  0  0  0
 29 48  1  0  0  0  0
 30 31  2  0  0  0  0
 30 49  1  0  0  0  0
 31 32  1  0  0  0  0
 31 50  1  0  0  0  0
 32 33  2  0  0  0  0
 32 51  1  0  0  0  0
 33 52  1  0  0  0  0
M  CHG  1  13  -1
M  END
> <s_m_source_file>
AV-unprocessed.smi

> <i_m_source_file_index>
99

> <i_lp_mmshare_version>
43012

> <i_f3d_flags>
0

> <s_epik_input>
W2NIXTFbY0hdW2NIXVtjSF1bY0hdYzFDKD1PKU9bQ0gyXVtDQEBIXTJPW0NAQEhdKG4zW2NIXVtjSF1jKD1PKVtuSF1jMz1PKVtDQEBIXShbT0hdKVtDQEhdMk9DKD1PKWM0W2NIXVtjSF1bY0hdW2NIXVtjSF00

> <s_epik_cmdline>
J2VwaWtfcHl0aG9uJywgJy1waCcsICc3LjAnLCAnLXRuJywgJzgnLCAnLW1hJywgJzIwMCcsICctbWV0YWxfYmluZGluZycsICctaW1hZScsICc8aW5maWxlLm1hZT4nLCAnLW9tYWUnLCAnPG91dGZpbGUubWFlPic=

> <r_lp_tautomer_probability>
1

> <r_epik_Ionization_Penalty>
2.89159

> <r_epik_Ionization_Penalty_Charging>
2.1077e-08

> <r_epik_Ionization_Penalty_Neutral>
2.89159

> <r_epik_State_Penalty>
2.88671

> <r_epik_Charging_Adjusted_Penalty>
2.88671

> <i_epik_Tot_Q>
-1

> <i_epik_Tot_abs_Q>
1

> <r_epik_Metal_State_Penalty>
0.0727308

> <b_epik_Metal_Only>
1

> <s_epik_Chemistry_Notes>
This compound has an ester and may undergo hydrolysis at high or low pH. This compound contains an acetal/aminal-like group ( X-CH(R)-Y where X, Y are N, S, or O) that may be acid/base labile, releasing an aldehyde.

> <s_lp_Force_Field>
OPLS_2005

> <r_lp_Energy>
56.6396

> <b_lp_Chiralities_Consistent>
1

> <s_lp_Variant>
AV-unprocessed.smi:99-31

> <Gold.Version>
5.8.1

> <Gold.Id.Protein>
6NUR|6NUR_protein|mol2

> <Gold.PLP.Fitness>
53.6389

> <Gold.PLP.PLP>
-44.3802

> <Gold.PLP.part.hbond>
-3.0890

> <Gold.PLP.part.metal>
0.0000

> <Gold.PLP.part.buried>
-7.2887

> <Gold.PLP.part.nonpolar>
-34.2373

> <Gold.PLP.part.repulsive>
0.3048

> <Gold.PLP.ligand.clash>
0.0000

> <Gold.PLP.ligand.torsion>
1.1945

> <Gold.PLP.Chemscore.Hbond>
2.9920

> <Gold.PLP.Chemscore.CHOScore>
0.8306

> <Gold.PLP.Chemscore.Metal>
0.0000

> <Gold.Chemscore.Hbonds>
donor molecule, donor type, donor heavy atom, donor atom, acceptor molecule, acceptor atom, score
      P1  H  6934  6947       L1    21  0.32
      P1  H  7997  8010       L1    13  1.80
      L1  C     9    38       P1  7948  0.82

> <Gold.PLP.Chemscore.Internal.Correction>
0.1799

> <Gold.Rescore>
     Score         DG    S(hbond)    S(metal)    S(lipo)     H(rot)  DE(clash)    DE(int)     intcor
     12.15     -14.52       1.75        0.00      95.99       3.13       0.66       1.70       ----

> <Gold.Chemscore.Fitness>
12.1514

> <Gold.Chemscore.DG>
-14.5154

> <Gold.Chemscore.ZeroCoef>
-5.4800

> <Gold.Chemscore.Hbond>
1.7452

> <Gold.Chemscore.Metal>
0.0000

> <Gold.Chemscore.Lipo>
95.9910

> <Gold.Chemscore.Internal_Hbond>
0.0000

> <Gold.Chemscore.DEClash>
0.6639

> <Gold.Chemscore.DEInternal>
1.7001

> <Gold.Chemscore.Rot>
3.1346

> <Gold.Chemscore.Internal.Correction>
   9.000000E+99

> <Gold.Chemscore.Hbonds>
donor molecule, donor type, donor heavy atom, donor atom, acceptor molecule, acceptor atom, score
      P1  H  6934  6947       L1    21  0.05
      P1  H  7997  8010       L1    13  0.17

> <Gold.Chemscore.Hbond.Weighted>
-5.8290

> <Gold.Chemscore.Metal.Weighted>
-0.0000

> <Gold.Chemscore.Lipo.Weighted>
-11.2309

> <Gold.Chemscore.Internal_Hbond.Weighted>
0.0000

> <Gold.Chemscore.DEClash.Weighted>
0.6639

> <Gold.Chemscore.DEInternal.Weighted>
1.7001

> <Gold.Chemscore.Rot.Weighted>
8.0246

> <Gold.Chemscore.Internal.Correction.Weighted>
   9.000000E+99

> <Gold.Protein.RotatedTorsions>
[ 6907 6896 6895 6894 ] final  -33.41 input  -60.11 | X-H torsion
[ 7974 7965 7964 7962 ] final  131.68 input  175.53 | X-H torsion
[ 8008 7997 7996 7995 ] final   83.27 input   59.86 | X-H torsion
[ 10167 10162 10161 10158 ] final   84.11 input  -65.29 | X-H torsion
[ 10718 10713 10712 10709 ] final  175.41 input   66.30 | X-H torsion
[ 10763 10752 10751 10750 ] final  160.91 input  -60.55 | X-H torsion
[ 11005 11000 10999 10996 ] final  166.28 input  -57.11 | X-H torsion

> <Gold.Protein.ActiveResidues>
 VAL166  LYS551  ARG553  GLY616  TRP617  ASP618  TYR619  PRO620  LYS621  CYS622 
 ASP623  PHE694  ASN695  SER759  ASP760  ASP761  ALA762  ILE779  LEU786  VAL792 
 PHE793  MET794  SER795  GLU796  ALA797  LYS798  CYS799  TRP800  GLU811  SER814 

> <Gold.Protein.RotatedAtoms>
  151.0659  134.9767  159.8283 H   0  0  0  0  0  0  0  0  0  0  0  0  # atno 6907 bound_to 6896
  152.5402  134.2359  159.8853 H   0  0  0  0  0  0  0  0  0  0  0  0  # atno 6908 bound_to 6896
  151.2381  133.4371  159.2640 H   0  0  0  0  0  0  0  0  0  0  0  0  # atno 6909 bound_to 6896
  145.0048  139.4277  143.5274 H   0  0  0  0  0  0  0  0  0  0  0  0  # atno 7974 bound_to 7965
  155.9217  140.3421  155.6178 H   0  0  0  0  0  0  0  0  0  0  0  0  # atno 8008 bound_to 7997
  155.7265  140.0790  157.2326 H   0  0  0  0  0  0  0  0  0  0  0  0  # atno 8009 bound_to 7997
  154.4071  140.1596  156.2448 H   0  0  0  0  0  0  0  0  0  0  0  0  # atno 8010 bound_to 7997
  139.9114  144.6269  150.8534 H   0  0  0  0  0  0  0  0  0  0  0  0  # atno 10167 bound_to 10162
  156.9353  130.9984  151.2979 H   0  0  0  0  0  0  0  0  0  0  0  0  # atno 10718 bound_to 10713
  154.2548  135.2770  155.2802 H   0  0  0  0  0  0  0  0  0  0  0  0  # atno 10763 bound_to 10752
  154.5434  135.5696  153.6862 H   0  0  0  0  0  0  0  0  0  0  0  0  # atno 10764 bound_to 10752
  152.9973  135.6256  154.2696 H   0  0  0  0  0  0  0  0  0  0  0  0  # atno 10765 bound_to 10752
  140.2648  134.7874  157.3622 H   0  0  0  0  0  0  0  0  0  0  0  0  # atno 11005 bound_to 11000
  146.3459  139.9458  142.8735 LP  0  0  0  0  0  0  0  0  0  0  0  0  # atno 17320 bound_to 7965
  145.2103  140.9893  143.4104 LP  0  0  0  0  0  0  0  0  0  0  0  0  # atno 17321 bound_to 7965
  140.7684  143.3363  151.2302 LP  0  0  0  0  0  0  0  0  0  0  0  0  # atno 17342 bound_to 10162
  139.6939  143.9645  152.2873 LP  0  0  0  0  0  0  0  0  0  0  0  0  # atno 17343 bound_to 10162
  157.5820  130.8383  149.8536 LP  0  0  0  0  0  0  0  0  0  0  0  0  # atno 17370 bound_to 10713
  156.0429  130.3735  150.1391 LP  0  0  0  0  0  0  0  0  0  0  0  0  # atno 17371 bound_to 10713
  140.1430  134.4947  155.8017 LP  0  0  0  0  0  0  0  0  0  0  0  0  # atno 17394 bound_to 11000
  141.2185  133.6832  156.7244 LP  0  0  0  0  0  0  0  0  0  0  0  0  # atno 17395 bound_to 11000

$$$$
