AV-unprocessed.smi:149|AV-procd|sdf|1238|dock6
  -GOLD-   2262018453D 1   1.00000     0.00000
 Structure written by MMmdl.
 59 63  0  0  0  0  0  0  0  0  1 V2000
  153.4154  128.5720  155.0745 C   0  0  0  0  0  0  0  0  0  0  0  0
  152.1138  129.0960  155.7079 C   0  0  2  0  0  0  0  0  0  0  0  0
  151.1612  129.6333  154.6243 C   0  0  0  0  0  0  0  0  0  0  0  0
  150.8596  131.0073  154.9793 N   0  0  0  0  0  0  0  0  0  0  0  0
  149.8265  131.6664  154.3888 C   0  0  0  0  0  0  0  0  0  0  0  0
  149.8382  133.0266  154.3896 N   0  0  0  0  0  0  0  0  0  0  0  0
  148.8511  133.7179  153.8142 C   0  0  0  0  0  0  0  0  0  0  0  0
  147.7724  133.2587  153.1798 N   0  0  0  0  0  0  0  0  0  0  0  0
  147.7544  131.8956  153.1602 C   0  0  0  0  0  0  0  0  0  0  0  0
  148.7265  131.0284  153.7395 C   0  0  0  0  0  0  0  0  0  0  0  0
  148.3544  129.7059  153.5199 N   0  0  0  0  0  0  0  0  0  0  0  0
  147.2307  129.7875  152.8625 C   0  0  0  0  0  0  0  0  0  0  0  0
  146.8127  131.0664  152.5761 N   0  0  0  0  0  0  0  0  0  0  0  0
  145.6083  131.4471  151.8977 C   0  0  0  0  0  0  0  0  0  0  0  0
  145.6315  131.9382  150.4464 C   0  0  0  0  0  0  0  0  0  0  0  0
  144.4402  132.8748  150.7578 C   0  0  0  0  0  0  0  0  0  0  0  0
  144.4627  134.2845  150.1341 C   0  0  0  0  0  0  0  0  0  0  0  0
  143.9813  134.2990  148.8049 O   0  0  0  0  0  0  0  0  0  0  0  0
  143.0433  132.2827  150.4909 C   0  0  0  0  0  0  0  0  0  0  0  0
  142.8256  132.0684  149.1112 O   0  0  0  0  0  0  0  0  0  0  0  0
  144.9005  132.7648  152.2292 C   0  0  0  0  0  0  0  0  0  0  0  0
  151.1465  131.1934  156.3883 C   0  0  0  0  0  0  0  0  0  0  0  0
  152.3283  130.2646  156.7038 C   0  0  1  0  0  0  0  0  0  0  0  0
  152.3986  129.8998  158.1290 N   0  0  0  0  0  0  0  0  0  0  0  0
  151.1076  129.4224  158.6294 C   0  0  0  0  0  0  0  0  0  0  0  0
  151.1605  129.0437  160.1194 C   0  0  0  0  0  0  0  0  0  0  0  0
  151.5992  130.1636  160.8785 O   0  0  0  0  0  0  0  0  0  0  0  0
  152.8788  130.6281  160.4665 C   0  0  0  0  0  0  0  0  0  0  0  0
  152.8393  131.0076  158.9759 C   0  0  0  0  0  0  0  0  0  0  0  0
  153.9323  129.3612  154.5274 H   0  0  0  0  0  0  0  0  0  0  0  0
  153.2060  127.7658  154.3708 H   0  0  0  0  0  0  0  0  0  0  0  0
  154.1096  128.1811  155.8161 H   0  0  0  0  0  0  0  0  0  0  0  0
  151.6066  128.2748  156.2167 H   0  0  0  0  0  0  0  0  0  0  0  0
  151.6288  129.6048  153.6399 H   0  0  0  0  0  0  0  0  0  0  0  0
  150.2471  129.0394  154.5819 H   0  0  0  0  0  0  0  0  0  0  0  0
  148.9414  134.7931  153.8653 H   0  0  0  0  0  0  0  0  0  0  0  0
  146.6791  128.9092  152.5597 H   0  0  0  0  0  0  0  0  0  0  0  0
  144.9239  130.6041  152.0075 H   0  0  0  0  0  0  0  0  0  0  0  0
  146.5519  132.4719  150.2038 H   0  0  0  0  0  0  0  0  0  0  0  0
  145.4299  131.1621  149.7077 H   0  0  0  0  0  0  0  0  0  0  0  0
  143.8519  134.9801  150.7101 H   0  0  0  0  0  0  0  0  0  0  0  0
  145.4759  134.6879  150.1262 H   0  0  0  0  0  0  0  0  0  0  0  0
  144.7119  134.1689  148.2197 H   0  0  0  0  0  0  0  0  0  0  0  0
  142.9106  131.3285  151.0011 H   0  0  0  0  0  0  0  0  0  0  0  0
  142.2601  132.9403  150.8695 H   0  0  0  0  0  0  0  0  0  0  0  0
  142.1763  132.6856  148.8101 H   0  0  0  0  0  0  0  0  0  0  0  0
  144.0937  132.6698  152.9567 H   0  0  0  0  0  0  0  0  0  0  0  0
  145.6028  133.5432  152.5317 H   0  0  0  0  0  0  0  0  0  0  0  0
  151.3904  132.2336  156.6077 H   0  0  0  0  0  0  0  0  0  0  0  0
  150.2661  130.9153  156.9705 H   0  0  0  0  0  0  0  0  0  0  0  0
  153.2430  130.7876  156.4191 H   0  0  0  0  0  0  0  0  0  0  0  0
  150.3472  130.1907  158.4810 H   0  0  0  0  0  0  0  0  0  0  0  0
  150.7806  128.5484  158.0666 H   0  0  0  0  0  0  0  0  0  0  0  0
  150.1735  128.7410  160.4691 H   0  0  0  0  0  0  0  0  0  0  0  0
  151.8313  128.1984  160.2806 H   0  0  0  0  0  0  0  0  0  0  0  0
  153.1551  131.4929  161.0697 H   0  0  0  0  0  0  0  0  0  0  0  0
  153.6294  129.8575  160.6484 H   0  0  0  0  0  0  0  0  0  0  0  0
  153.8406  131.3239  158.6873 H   0  0  0  0  0  0  0  0  0  0  0  0
  152.1803  131.8660  158.8374 H   0  0  0  0  0  0  0  0  0  0  0  0
  1  2  1  0  0  0  0
  1 30  1  0  0  0  0
  1 31  1  0  0  0  0
  1 32  1  0  0  0  0
  2 23  1  0  0  0  0
  2  3  1  0  0  0  0
  2 33  1  0  0  0  0
  3  4  1  0  0  0  0
  3 34  1  0  0  0  0
  3 35  1  0  0  0  0
  4  5  1  0  0  0  0
  4 22  1  0  0  0  0
  5 10  1  0  0  0  0
  5  6  2  0  0  0  0
  6  7  1  0  0  0  0
  7  8  2  0  0  0  0
  7 36  1  0  0  0  0
  8  9  1  0  0  0  0
  9 13  1  0  0  0  0
  9 10  2  0  0  0  0
 10 11  1  0  0  0  0
 11 12  2  0  0  0  0
 12 13  1  0  0  0  0
 12 37  1  0  0  0  0
 13 14  1  0  0  0  0
 14 21  1  0  0  0  0
 14 15  1  0  0  0  0
 14 38  1  0  0  0  0
 15 16  1  0  0  0  0
 15 39  1  0  0  0  0
 15 40  1  0  0  0  0
 16 17  1  0  0  0  0
 16 19  1  0  0  0  0
 16 21  1  0  0  0  0
 17 18  1  0  0  0  0
 17 41  1  0  0  0  0
 17 42  1  0  0  0  0
 18 43  1  0  0  0  0
 19 20  1  0  0  0  0
 19 44  1  0  0  0  0
 19 45  1  0  0  0  0
 20 46  1  0  0  0  0
 21 47  1  0  0  0  0
 21 48  1  0  0  0  0
 22 23  1  0  0  0  0
 22 49  1  0  0  0  0
 22 50  1  0  0  0  0
 23 24  1  0  0  0  0
 23 51  1  0  0  0  0
 24 29  1  0  0  0  0
 24 25  1  0  0  0  0
 25 26  1  0  0  0  0
 25 52  1  0  0  0  0
 25 53  1  0  0  0  0
 26 27  1  0  0  0  0
 26 54  1  0  0  0  0
 26 55  1  0  0  0  0
 27 28  1  0  0  0  0
 28 29  1  0  0  0  0
 28 56  1  0  0  0  0
 28 57  1  0  0  0  0
 29 58  1  0  0  0  0
 29 59  1  0  0  0  0
M  END
> <s_m_source_file>
AV-unprocessed.smi

> <i_m_source_file_index>
149

> <i_lp_mmshare_version>
43012

> <i_f3d_flags>
0

> <s_epik_input>
W0NIMl0xW0NIMl1PW0NIMl1bQ0gyXU4xW0NAQEhdMltDSDJdTihbQ0gyXVtDQEhdMltDSDNdKWMobltjSF1uMyljKGMzNCluW2NIXW40W0NIXShbQ0gyXTUpW0NIMl1DNShbQ0gyXVtPSF0pW0NIMl1bT0hd

> <s_epik_cmdline>
J2VwaWtfcHl0aG9uJywgJy1waCcsICc3LjAnLCAnLXRuJywgJzgnLCAnLW1hJywgJzIwMCcsICctbWV0YWxfYmluZGluZycsICctaW1hZScsICc8aW5maWxlLm1hZT4nLCAnLW9tYWUnLCAnPG91dGZpbGUubWFlPic=

> <r_lp_tautomer_probability>
1

> <r_epik_Ionization_Penalty>
0.41918

> <r_epik_Ionization_Penalty_Charging>
0

> <r_epik_Ionization_Penalty_Neutral>
0.41918

> <r_epik_State_Penalty>
0.654916

> <r_epik_Charging_Adjusted_Penalty>
0.654916

> <i_epik_Tot_Q>
0

> <i_epik_Tot_abs_Q>
0

> <r_epik_Metal_State_Penalty>
0.653217

> <b_epik_Metal_Only>
0

> <s_lp_Force_Field>
OPLS_2005

> <r_lp_Energy>
75.7626

> <b_lp_Chiralities_Consistent>
1

> <s_lp_Variant>
AV-unprocessed.smi:149-5

> <Gold.Version>
5.8.1

> <Gold.Id.Protein>
6NUR|6NUR_protein|mol2

> <Gold.PLP.Fitness>
49.4810

> <Gold.PLP.PLP>
-41.2171

> <Gold.PLP.part.hbond>
-5.0000

> <Gold.PLP.part.metal>
0.0000

> <Gold.PLP.part.buried>
-1.5659

> <Gold.PLP.part.nonpolar>
-34.1253

> <Gold.PLP.part.repulsive>
0.3444

> <Gold.PLP.ligand.clash>
0.0000

> <Gold.PLP.ligand.torsion>
1.2478

> <Gold.PLP.Chemscore.Hbond>
2.5273

> <Gold.PLP.Chemscore.CHOScore>
0.7575

> <Gold.PLP.Chemscore.Metal>
0.0000

> <Gold.Chemscore.Hbonds>
donor molecule, donor type, donor heavy atom, donor atom, acceptor molecule, acceptor atom, score
      L1  H    18    43       P1  7921  0.93
      L1  H    20    46       P1 10186  0.46
      P1  H 10785 10796       L1    20  1.00
      L1  C     7    36       P1  7948  0.84

> <Gold.PLP.Chemscore.Internal.Correction>
0.9051

> <Gold.Rescore>
     Score         DG    S(hbond)    S(metal)    S(lipo)     H(rot)  DE(clash)    DE(int)     intcor
     11.88     -14.90       2.56        0.00      80.61       3.34       0.14       2.88       ----

> <Gold.Chemscore.Fitness>
11.8832

> <Gold.Chemscore.DG>
-14.9029

> <Gold.Chemscore.ZeroCoef>
-5.4800

> <Gold.Chemscore.Hbond>
2.5588

> <Gold.Chemscore.Metal>
0.0000

> <Gold.Chemscore.Lipo>
80.6067

> <Gold.Chemscore.Internal_Hbond>
0.0000

> <Gold.Chemscore.DEClash>
0.1372

> <Gold.Chemscore.DEInternal>
2.8825

> <Gold.Chemscore.Rot>
3.3416

> <Gold.Chemscore.Internal.Correction>
   9.000000E+99

> <Gold.Chemscore.Hbonds>
donor molecule, donor type, donor heavy atom, donor atom, acceptor molecule, acceptor atom, score
      L1  H    18    43       P1  7921  0.89
      L1  H    20    46       P1 10186  0.46
      P1  H 10785 10796       L1    20  0.63

> <Gold.Chemscore.Hbond.Weighted>
-8.5464

> <Gold.Chemscore.Metal.Weighted>
-0.0000

> <Gold.Chemscore.Lipo.Weighted>
-9.4310

> <Gold.Chemscore.Internal_Hbond.Weighted>
0.0000

> <Gold.Chemscore.DEClash.Weighted>
0.1372

> <Gold.Chemscore.DEInternal.Weighted>
2.8825

> <Gold.Chemscore.Rot.Weighted>
8.5545

> <Gold.Chemscore.Internal.Correction.Weighted>
   9.000000E+99

> <Gold.Protein.RotatedTorsions>
[ 6907 6896 6895 6894 ] final   26.38 input  -60.11 | X-H torsion
[ 7974 7965 7964 7962 ] final   30.23 input  175.53 | X-H torsion
[ 8008 7997 7996 7995 ] final   19.13 input   59.86 | X-H torsion
[ 10167 10162 10161 10158 ] final  117.37 input  -65.29 | X-H torsion
[ 10718 10713 10712 10709 ] final   50.78 input   66.30 | X-H torsion
[ 10763 10752 10751 10750 ] final  161.39 input  -60.55 | X-H torsion
[ 11005 11000 10999 10996 ] final  -96.92 input  -57.11 | X-H torsion

> <Gold.Protein.ActiveResidues>
 VAL166  LYS551  ARG553  GLY616  TRP617  ASP618  TYR619  PRO620  LYS621  CYS622 
 ASP623  PHE694  ASN695  SER759  ASP760  ASP761  ALA762  ILE779  LEU786  VAL792 
 PHE793  MET794  SER795  GLU796  ALA797  LYS798  CYS799  TRP800  GLU811  SER814 

> <Gold.Protein.RotatedAtoms>
  151.9866  135.0001  160.0559 H   0  0  0  0  0  0  0  0  0  0  0  0  # atno 6907 bound_to 6896
  152.1647  133.4600  159.4887 H   0  0  0  0  0  0  0  0  0  0  0  0  # atno 6908 bound_to 6896
  150.6893  134.1945  159.4341 H   0  0  0  0  0  0  0  0  0  0  0  0  # atno 6909 bound_to 6896
  146.1624  139.6816  142.9024 H   0  0  0  0  0  0  0  0  0  0  0  0  # atno 7974 bound_to 7965
  154.9163  140.3021  155.5240 H   0  0  0  0  0  0  0  0  0  0  0  0  # atno 8008 bound_to 7997
  156.3012  140.2380  156.4143 H   0  0  0  0  0  0  0  0  0  0  0  0  # atno 8009 bound_to 7997
  154.8375  140.0415  157.1508 H   0  0  0  0  0  0  0  0  0  0  0  0  # atno 8010 bound_to 7997
  139.6183  144.7096  151.2690 H   0  0  0  0  0  0  0  0  0  0  0  0  # atno 10167 bound_to 10162
  157.4917  130.8380  149.8211 H   0  0  0  0  0  0  0  0  0  0  0  0  # atno 10718 bound_to 10713
  154.2622  135.2768  155.2773 H   0  0  0  0  0  0  0  0  0  0  0  0  # atno 10763 bound_to 10752
  154.5374  135.5712  153.6813 H   0  0  0  0  0  0  0  0  0  0  0  0  # atno 10764 bound_to 10752
  152.9960  135.6242  154.2773 H   0  0  0  0  0  0  0  0  0  0  0  0  # atno 10765 bound_to 10752
  141.1396  133.8133  157.0636 H   0  0  0  0  0  0  0  0  0  0  0  0  # atno 11005 bound_to 11000
  145.4554  141.0430  143.2781 LP  0  0  0  0  0  0  0  0  0  0  0  0  # atno 17320 bound_to 7965
  144.8045  139.6077  143.7057 LP  0  0  0  0  0  0  0  0  0  0  0  0  # atno 17321 bound_to 7965
  140.7366  143.6704  150.8087 LP  0  0  0  0  0  0  0  0  0  0  0  0  # atno 17342 bound_to 10162
  140.0310  143.5443  152.2760 LP  0  0  0  0  0  0  0  0  0  0  0  0  # atno 17343 bound_to 10162
  156.0177  130.3807  150.2058 LP  0  0  0  0  0  0  0  0  0  0  0  0  # atno 17370 bound_to 10713
  157.0247  130.9989  151.3329 LP  0  0  0  0  0  0  0  0  0  0  0  0  # atno 17371 bound_to 10713
  140.0556  134.9782  157.1213 LP  0  0  0  0  0  0  0  0  0  0  0  0  # atno 17394 bound_to 11000
  140.3925  134.2169  155.7165 LP  0  0  0  0  0  0  0  0  0  0  0  0  # atno 17395 bound_to 11000

$$$$
