AV-unprocessed.smi:1703|AV-procd|sdf|6862|dock9
  -GOLD-   22720 8 53D 1   1.00000     0.00000
 Structure written by MMmdl.
 49 51  0  0  0  0  0  0  0  0  2 V2000
  144.4982  134.8758  150.5456 C   0  0  0  0  0  0  0  0  0  0  0  0
  145.2247  135.8661  151.4625 C   0  0  1  0  0  0  0  0  0  0  0  0
  144.5598  137.2600  151.4488 C   0  0  0  0  0  0  0  0  0  0  0  0
  145.1826  138.1776  152.4372 N   0  3  2  0  0  0  0  0  0  0  0  0
  146.4793  138.7694  152.0104 C   0  0  0  0  0  0  0  0  0  0  0  0
  147.3284  139.2510  153.2028 C   0  0  1  0  0  0  0  0  0  0  0  0
  148.6300  138.7093  153.0826 O   0  0  0  0  0  0  0  0  0  0  0  0
  147.4083  140.7899  153.2541 C   0  0  0  0  0  0  0  0  0  0  0  0
  147.7122  141.3002  154.5844 N   0  0  0  0  0  0  0  0  0  0  0  0
  146.9157  142.0301  155.4061 C   0  0  0  0  0  0  0  0  0  0  0  0
  145.5253  142.4364  155.0231 C   0  0  0  0  0  0  0  0  0  0  0  0
  144.6542  141.3352  154.8781 O   0  0  0  0  0  0  0  0  0  0  0  0
  147.4496  142.3707  156.5794 N   0  0  0  0  0  0  0  0  0  0  0  0
  148.7125  141.8157  156.5120 C   0  0  0  0  0  0  0  0  0  0  0  0
  149.7721  141.8281  157.4471 C   0  0  0  0  0  0  0  0  0  0  0  0
  150.9912  141.1830  157.1530 C   0  0  0  0  0  0  0  0  0  0  0  0
  151.1679  140.5172  155.9229 C   0  0  0  0  0  0  0  0  0  0  0  0
  150.1251  140.4930  154.9770 C   0  0  0  0  0  0  0  0  0  0  0  0
  148.9100  141.1388  155.2751 C   0  0  0  0  0  0  0  0  0  0  0  0
  145.2297  137.5428  153.7766 C   0  0  0  0  0  0  0  0  0  0  0  0
  145.9056  136.1584  153.7162 C   0  0  1  0  0  0  0  0  0  0  0  0
  145.8941  135.4523  155.0760 C   0  0  0  0  0  0  0  0  0  0  0  0
  145.1987  135.3440  152.7868 O   0  0  0  0  0  0  0  0  0  0  0  0
  144.4987  135.2246  149.5125 H   0  0  0  0  0  0  0  0  0  0  0  0
  143.4608  134.7398  150.8527 H   0  0  0  0  0  0  0  0  0  0  0  0
  144.9818  133.8989  150.5655 H   0  0  0  0  0  0  0  0  0  0  0  0
  146.2603  135.9374  151.1283 H   0  0  0  0  0  0  0  0  0  0  0  0
  144.5849  137.6867  150.4468 H   0  0  0  0  0  0  0  0  0  0  0  0
  143.5048  137.1584  151.7075 H   0  0  0  0  0  0  0  0  0  0  0  0
  147.0574  138.0292  151.4551 H   0  0  0  0  0  0  0  0  0  0  0  0
  146.3030  139.5908  151.3163 H   0  0  0  0  0  0  0  0  0  0  0  0
  146.9035  138.8911  154.1386 H   0  0  0  0  0  0  0  0  0  0  0  0
  148.5648  137.8370  152.7244 H   0  0  0  0  0  0  0  0  0  0  0  0
  148.1712  141.1515  152.5634 H   0  0  0  0  0  0  0  0  0  0  0  0
  146.4695  141.2278  152.9151 H   0  0  0  0  0  0  0  0  0  0  0  0
  145.1209  143.1234  155.7656 H   0  0  0  0  0  0  0  0  0  0  0  0
  145.5569  142.9797  154.0781 H   0  0  0  0  0  0  0  0  0  0  0  0
  144.4064  141.2661  153.9689 H   0  0  0  0  0  0  0  0  0  0  0  0
  149.6469  142.3353  158.3923 H   0  0  0  0  0  0  0  0  0  0  0  0
  151.7945  141.1991  157.8750 H   0  0  0  0  0  0  0  0  0  0  0  0
  152.1048  140.0254  155.7058 H   0  0  0  0  0  0  0  0  0  0  0  0
  150.2594  139.9829  154.0351 H   0  0  0  0  0  0  0  0  0  0  0  0
  145.7345  138.1942  154.4911 H   0  0  0  0  0  0  0  0  0  0  0  0
  144.2058  137.4324  154.1369 H   0  0  0  0  0  0  0  0  0  0  0  0
  146.9424  136.2607  153.3912 H   0  0  0  0  0  0  0  0  0  0  0  0
  146.4313  136.0343  155.8253 H   0  0  0  0  0  0  0  0  0  0  0  0
  146.3713  134.4742  155.0111 H   0  0  0  0  0  0  0  0  0  0  0  0
  144.8756  135.3026  155.4357 H   0  0  0  0  0  0  0  0  0  0  0  0
  144.5591  138.9675  152.5305 H   0  0  0  0  0  0  0  0  0  0  0  0
  1  2  1  0  0  0  0
  1 24  1  0  0  0  0
  1 25  1  0  0  0  0
  1 26  1  0  0  0  0
  2 23  1  0  0  0  0
  2  3  1  0  0  0  0
  2 27  1  0  0  0  0
  3  4  1  0  0  0  0
  3 28  1  0  0  0  0
  3 29  1  0  0  0  0
  4  5  1  0  0  0  0
  4 20  1  0  0  0  0
  4 49  1  0  0  0  0
  5  6  1  0  0  0  0
  5 30  1  0  0  0  0
  5 31  1  0  0  0  0
  6  7  1  0  0  0  0
  6  8  1  0  0  0  0
  6 32  1  0  0  0  0
  7 33  1  0  0  0  0
  8  9  1  0  0  0  0
  8 34  1  0  0  0  0
  8 35  1  0  0  0  0
  9 19  1  0  0  0  0
  9 10  1  0  0  0  0
 10 11  1  0  0  0  0
 10 13  2  0  0  0  0
 11 12  1  0  0  0  0
 11 36  1  0  0  0  0
 11 37  1  0  0  0  0
 12 38  1  0  0  0  0
 13 14  1  0  0  0  0
 14 19  2  0  0  0  0
 14 15  1  0  0  0  0
 15 16  2  0  0  0  0
 15 39  1  0  0  0  0
 16 17  1  0  0  0  0
 16 40  1  0  0  0  0
 17 18  2  0  0  0  0
 17 41  1  0  0  0  0
 18 19  1  0  0  0  0
 18 42  1  0  0  0  0
 20 21  1  0  0  0  0
 20 43  1  0  0  0  0
 20 44  1  0  0  0  0
 21 22  1  0  0  0  0
 21 23  1  0  0  0  0
 21 45  1  0  0  0  0
 22 46  1  0  0  0  0
 22 47  1  0  0  0  0
 22 48  1  0  0  0  0
M  CHG  1   4   1
M  END
> <s_m_source_file>
AV-unprocessed.smi

> <i_m_source_file_index>
1703

> <i_lp_mmshare_version>
43012

> <i_f3d_flags>
0

> <s_epik_input>
W0NIM11bQ0BASF0xW0NIMl1OKFtDSDJdW0NASF0oTzEpW0NIM10pW0NIMl1bQ0BIXShbT0hdKVtDSDJdbihjKG4yKVtDSDJdW09IXSljKGMyMylbY0hdW2NIXVtjSF1bY0hdMw==

> <s_epik_cmdline>
J2VwaWtfcHl0aG9uJywgJy1waCcsICc3LjAnLCAnLXRuJywgJzgnLCAnLW1hJywgJzIwMCcsICctbWV0YWxfYmluZGluZycsICctaW1hZScsICc8aW5maWxlLm1hZT4nLCAnLW9tYWUnLCAnPG91dGZpbGUubWFlPic=

> <r_epik_Ionization_Penalty>
0.655661

> <r_epik_Ionization_Penalty_Charging>
0.608065

> <r_epik_Ionization_Penalty_Neutral>
0.0475963

> <r_epik_State_Penalty>
0.695267

> <r_epik_Charging_Adjusted_Penalty>
1.30333

> <i_epik_Tot_Q>
1

> <i_epik_Tot_abs_Q>
1

> <r_epik_Metal_State_Penalty>
0.653591

> <b_epik_Metal_Only>
0

> <s_lp_Force_Field>
OPLS_2005

> <r_lp_Energy>
23.9002

> <b_lp_Chiralities_Consistent>
1

> <s_lp_Variant>
AV-unprocessed.smi:1703-10

> <Gold.Version>
5.8.1

> <Gold.Id.Protein>
6NUR|6NUR_protein|mol2

> <Gold.PLP.Fitness>
44.4891

> <Gold.PLP.PLP>
-35.0974

> <Gold.PLP.part.hbond>
-4.8568

> <Gold.PLP.part.metal>
0.0000

> <Gold.PLP.part.buried>
3.2797

> <Gold.PLP.part.nonpolar>
-33.6307

> <Gold.PLP.part.repulsive>
0.7591

> <Gold.PLP.ligand.clash>
0.0000

> <Gold.PLP.ligand.torsion>
1.3187

> <Gold.PLP.Chemscore.Hbond>
4.0000

> <Gold.PLP.Chemscore.CHOScore>
0.0000

> <Gold.PLP.Chemscore.Metal>
0.0000

> <Gold.Chemscore.Hbonds>
donor molecule, donor type, donor heavy atom, donor atom, acceptor molecule, acceptor atom, score
      L1  H     4    49       P1 10175  2.00
      L1  H     7    33       P1  7948  1.00
      L1  H    12    38       P1 10175  1.00

> <Gold.PLP.Chemscore.Internal.Correction>
0.0292

> <Gold.Rescore>
     Score         DG    S(hbond)    S(metal)    S(lipo)     H(rot)  DE(clash)    DE(int)     intcor
     14.49     -17.93       2.99        0.00      85.86       2.96       2.13       1.31       ----

> <Gold.Chemscore.Fitness>
14.4944

> <Gold.Chemscore.DG>
-17.9332

> <Gold.Chemscore.ZeroCoef>
-5.4800

> <Gold.Chemscore.Hbond>
2.9904

> <Gold.Chemscore.Metal>
0.0000

> <Gold.Chemscore.Lipo>
85.8617

> <Gold.Chemscore.Internal_Hbond>
0.0000

> <Gold.Chemscore.DEClash>
2.1323

> <Gold.Chemscore.DEInternal>
1.3065

> <Gold.Chemscore.Rot>
2.9611

> <Gold.Chemscore.Internal.Correction>
   9.000000E+99

> <Gold.Chemscore.Hbonds>
donor molecule, donor type, donor heavy atom, donor atom, acceptor molecule, acceptor atom, score
      L1  H     4    49       P1 10175  1.00
      L1  H     7    33       P1  7948  1.00
      L1  H    12    38       P1 10175  0.49

> <Gold.Chemscore.Hbond.Weighted>
-9.9878

> <Gold.Chemscore.Metal.Weighted>
-0.0000

> <Gold.Chemscore.Lipo.Weighted>
-10.0458

> <Gold.Chemscore.Internal_Hbond.Weighted>
0.0000

> <Gold.Chemscore.DEClash.Weighted>
2.1323

> <Gold.Chemscore.DEInternal.Weighted>
1.3065

> <Gold.Chemscore.Rot.Weighted>
7.5803

> <Gold.Chemscore.Internal.Correction.Weighted>
   9.000000E+99

> <Gold.Protein.RotatedTorsions>
[ 6907 6896 6895 6894 ] final  -82.07 input  -60.11 | X-H torsion
[ 7974 7965 7964 7962 ] final  168.88 input  175.53 | X-H torsion
[ 8008 7997 7996 7995 ] final  173.86 input   59.86 | X-H torsion
[ 10167 10162 10161 10158 ] final   42.05 input  -65.29 | X-H torsion
[ 10718 10713 10712 10709 ] final  167.90 input   66.30 | X-H torsion
[ 10763 10752 10751 10750 ] final -124.70 input  -60.55 | X-H torsion
[ 11005 11000 10999 10996 ] final -171.24 input  -57.11 | X-H torsion

> <Gold.Protein.ActiveResidues>
 VAL166  LYS551  ARG553  GLY616  TRP617  ASP618  TYR619  PRO620  LYS621  CYS622 
 ASP623  PHE694  ASN695  SER759  ASP760  ASP761  ALA762  ILE779  LEU786  VAL792 
 PHE793  MET794  SER795  GLU796  ALA797  LYS798  CYS799  TRP800  GLU811  SER814 

> <Gold.Protein.RotatedAtoms>
  150.6902  134.3721  159.4996 H   0  0  0  0  0  0  0  0  0  0  0  0  # atno 6907 bound_to 6896
  152.1535  134.8966  160.0555 H   0  0  0  0  0  0  0  0  0  0  0  0  # atno 6908 bound_to 6896
  152.0055  133.3806  159.4235 H   0  0  0  0  0  0  0  0  0  0  0  0  # atno 6909 bound_to 6896
  144.7373  139.8973  143.6407 H   0  0  0  0  0  0  0  0  0  0  0  0  # atno 7974 bound_to 7965
  156.1032  140.1449  156.9439 H   0  0  0  0  0  0  0  0  0  0  0  0  # atno 8008 bound_to 7997
  154.4716  140.0908  156.7204 H   0  0  0  0  0  0  0  0  0  0  0  0  # atno 8009 bound_to 7997
  155.4724  140.3442  155.4330 H   0  0  0  0  0  0  0  0  0  0  0  0  # atno 8010 bound_to 7997
  140.3582  144.2262  150.6140 H   0  0  0  0  0  0  0  0  0  0  0  0  # atno 10167 bound_to 10162
  157.0449  131.0297  151.2701 H   0  0  0  0  0  0  0  0  0  0  0  0  # atno 10718 bound_to 10713
  154.8727  135.4054  154.3149 H   0  0  0  0  0  0  0  0  0  0  0  0  # atno 10763 bound_to 10752
  153.3987  135.7017  153.6447 H   0  0  0  0  0  0  0  0  0  0  0  0  # atno 10764 bound_to 10752
  153.5199  135.3689  155.2598 H   0  0  0  0  0  0  0  0  0  0  0  0  # atno 10765 bound_to 10752
  140.5105  134.5806  157.5017 H   0  0  0  0  0  0  0  0  0  0  0  0  # atno 11005 bound_to 11000
  146.1098  139.4101  143.0295 LP  0  0  0  0  0  0  0  0  0  0  0  0  # atno 17320 bound_to 7965
  145.7460  140.9990  143.1276 LP  0  0  0  0  0  0  0  0  0  0  0  0  # atno 17321 bound_to 7965
  140.5153  143.2280  151.8473 LP  0  0  0  0  0  0  0  0  0  0  0  0  # atno 17342 bound_to 10162
  139.4817  144.4902  151.9195 LP  0  0  0  0  0  0  0  0  0  0  0  0  # atno 17343 bound_to 10162
  157.5076  130.7918  149.7670 LP  0  0  0  0  0  0  0  0  0  0  0  0  # atno 17370 bound_to 10713
  156.0026  130.3872  150.2548 LP  0  0  0  0  0  0  0  0  0  0  0  0  # atno 17371 bound_to 10713
  139.9662  134.7369  156.0134 LP  0  0  0  0  0  0  0  0  0  0  0  0  # atno 17394 bound_to 11000
  141.1388  133.6569  156.3670 LP  0  0  0  0  0  0  0  0  0  0  0  0  # atno 17395 bound_to 11000

$$$$
