AV-unprocessed.smi:1817|AV-procd|sdf|7378|dock2
  -GOLD-   22720 9 43D 1   1.00000     0.00000
 Structure written by MMmdl.
 41 42  0  0  0  0  0  0  0  0  2 V2000
  151.6474  145.3278  159.2582 C   0  0  0  0  0  0  0  0  0  0  0  0
  152.1878  144.1402  160.0672 C   0  0  0  0  0  0  0  0  0  0  0  0
  152.2851  142.8847  159.3258 N   0  0  0  0  0  0  0  0  0  0  0  0
  150.9740  142.4642  158.8385 C   0  0  0  0  0  0  0  0  0  0  0  0
  151.0598  141.1561  158.0318 C   0  0  0  0  0  0  0  0  0  0  0  0
  151.6106  140.0507  158.8271 N   0  0  0  0  0  0  0  0  0  0  0  0
  151.6890  138.7855  158.0646 C   0  0  2  0  0  0  0  0  0  0  0  0
  152.4336  138.9222  156.7172 C   0  0  0  0  0  0  0  0  0  0  0  0
  150.3119  138.1202  157.8016 C   0  0  0  0  0  0  0  0  0  0  0  0
  149.5163  137.9804  159.0210 N   0  0  0  0  0  0  0  0  0  0  0  0
  149.1724  136.8329  159.6234 C   0  0  0  0  0  0  0  0  0  0  0  0
  149.5492  135.7541  159.1598 O   0  0  0  0  0  0  0  0  0  0  0  0
  148.4057  137.0056  160.7244 N   0  5  0  0  0  0  0  0  0  0  0  0
  148.0787  135.9493  161.4871 C   0  0  0  0  0  0  0  0  0  0  0  0
  147.5913  134.8119  160.9661 N   0  0  0  0  0  0  0  0  0  0  0  0
  147.3210  133.8439  161.9241 N   0  0  0  0  0  0  0  0  0  0  0  0
  147.6195  134.2762  163.1489 C   0  0  0  0  0  0  0  0  0  0  0  0
  148.2635  135.9017  163.2429 S   0  0  0  0  0  0  0  0  0  0  0  0
  152.9198  140.4825  159.3362 C   0  0  0  0  0  0  0  0  0  0  0  0
  152.8324  141.7958  160.1355 C   0  0  0  0  0  0  0  0  0  0  0  0
  151.5058  146.1962  159.9018 H   0  0  0  0  0  0  0  0  0  0  0  0
  150.6833  145.0895  158.8078 H   0  0  0  0  0  0  0  0  0  0  0  0
  152.3296  145.6237  158.4618 H   0  0  0  0  0  0  0  0  0  0  0  0
  153.1595  144.3983  160.4909 H   0  0  0  0  0  0  0  0  0  0  0  0
  151.5198  143.9942  160.9170 H   0  0  0  0  0  0  0  0  0  0  0  0
  150.2867  142.3325  159.6761 H   0  0  0  0  0  0  0  0  0  0  0  0
  150.5482  143.2444  158.2067 H   0  0  0  0  0  0  0  0  0  0  0  0
  150.0525  140.9175  157.6944 H   0  0  0  0  0  0  0  0  0  0  0  0
  151.6647  141.3128  157.1374 H   0  0  0  0  0  0  0  0  0  0  0  0
  152.2617  138.0724  158.6593 H   0  0  0  0  0  0  0  0  0  0  0  0
  152.3670  138.0032  156.1345 H   0  0  0  0  0  0  0  0  0  0  0  0
  153.4966  139.1181  156.8536 H   0  0  0  0  0  0  0  0  0  0  0  0
  152.0180  139.7268  156.1095 H   0  0  0  0  0  0  0  0  0  0  0  0
  149.7647  138.6799  157.0415 H   0  0  0  0  0  0  0  0  0  0  0  0
  150.4365  137.1303  157.3648 H   0  0  0  0  0  0  0  0  0  0  0  0
  149.1765  138.8350  159.4369 H   0  0  0  0  0  0  0  0  0  0  0  0
  147.4636  133.6326  164.0016 H   0  0  0  0  0  0  0  0  0  0  0  0
  153.3381  139.7278  160.0000 H   0  0  0  0  0  0  0  0  0  0  0  0
  153.6224  140.6004  158.5097 H   0  0  0  0  0  0  0  0  0  0  0  0
  153.8315  142.0526  160.4861 H   0  0  0  0  0  0  0  0  0  0  0  0
  152.2182  141.6429  161.0245 H   0  0  0  0  0  0  0  0  0  0  0  0
  1  2  1  0  0  0  0
  1 21  1  0  0  0  0
  1 22  1  0  0  0  0
  1 23  1  0  0  0  0
  2  3  1  0  0  0  0
  2 24  1  0  0  0  0
  2 25  1  0  0  0  0
  3 20  1  0  0  0  0
  3  4  1  0  0  0  0
  4  5  1  0  0  0  0
  4 26  1  0  0  0  0
  4 27  1  0  0  0  0
  5  6  1  0  0  0  0
  5 28  1  0  0  0  0
  5 29  1  0  0  0  0
  6  7  1  0  0  0  0
  6 19  1  0  0  0  0
  7  8  1  0  0  0  0
  7  9  1  0  0  0  0
  7 30  1  0  0  0  0
  8 31  1  0  0  0  0
  8 32  1  0  0  0  0
  8 33  1  0  0  0  0
  9 10  1  0  0  0  0
  9 34  1  0  0  0  0
  9 35  1  0  0  0  0
 10 11  1  0  0  0  0
 10 36  1  0  0  0  0
 11 12  2  0  0  0  0
 11 13  1  0  0  0  0
 13 14  1  0  0  0  0
 14 18  1  0  0  0  0
 14 15  2  0  0  0  0
 15 16  1  0  0  0  0
 16 17  2  0  0  0  0
 17 18  1  0  0  0  0
 17 37  1  0  0  0  0
 19 20  1  0  0  0  0
 19 38  1  0  0  0  0
 19 39  1  0  0  0  0
 20 40  1  0  0  0  0
 20 41  1  0  0  0  0
M  CHG  1  13  -1
M  END
> <s_m_source_file>
AV-unprocessed.smi

> <i_m_source_file_index>
1817

> <i_lp_mmshare_version>
43012

> <i_f3d_flags>
0

> <s_epik_input>
W0NIM11bQ0gyXU4xW0NIMl1bQ0gyXU4oW0NIMl1bQ0gyXTEpW0NASF0oW0NIM10pW0NIMl1bTkhdQyg9TylbTkhdYzJubltjSF1zMg==

> <s_epik_cmdline>
J2VwaWtfcHl0aG9uJywgJy1waCcsICc3LjAnLCAnLXRuJywgJzgnLCAnLW1hJywgJzIwMCcsICctbWV0YWxfYmluZGluZycsICctaW1hZScsICc8aW5maWxlLm1hZT4nLCAnLW9tYWUnLCAnPG91dGZpbGUubWFlPic=

> <r_lp_tautomer_probability>
1

> <r_epik_Ionization_Penalty>
6.0391

> <r_epik_Ionization_Penalty_Charging>
3.54798

> <r_epik_Ionization_Penalty_Neutral>
2.49112

> <r_epik_State_Penalty>
5.3147

> <r_epik_Charging_Adjusted_Penalty>
8.86267

> <i_epik_Tot_Q>
-1

> <i_epik_Tot_abs_Q>
1

> <r_epik_Metal_State_Penalty>
2.29997

> <b_epik_Metal_Only>
1

> <s_lp_Force_Field>
OPLS_2005

> <r_lp_Energy>
41.9027

> <b_lp_Chiralities_Consistent>
1

> <s_lp_Variant>
AV-unprocessed.smi:1817-11

> <Gold.Version>
5.8.1

> <Gold.Id.Protein>
6NUR|6NUR_protein|mol2

> <Gold.PLP.Fitness>
50.1453

> <Gold.PLP.PLP>
-39.5016

> <Gold.PLP.part.hbond>
-3.0000

> <Gold.PLP.part.metal>
0.0000

> <Gold.PLP.part.buried>
-6.5292

> <Gold.PLP.part.nonpolar>
-31.5938

> <Gold.PLP.part.repulsive>
0.2223

> <Gold.PLP.ligand.clash>
0.0000

> <Gold.PLP.ligand.torsion>
0.5957

> <Gold.PLP.Chemscore.Hbond>
3.9153

> <Gold.PLP.Chemscore.CHOScore>
0.0000

> <Gold.PLP.Chemscore.Metal>
0.0000

> <Gold.Chemscore.Hbonds>
donor molecule, donor type, donor heavy atom, donor atom, acceptor molecule, acceptor atom, score
      P1  H  6896  6909       L1    12  1.00
      P1  H  6931  6943       L1    13  1.82
      P1  H  6934  6947       L1    13  0.22

> <Gold.PLP.Chemscore.Internal.Correction>
0.0892

> <Gold.Rescore>
     Score         DG    S(hbond)    S(metal)    S(lipo)     H(rot)  DE(clash)    DE(int)     intcor
     15.85     -17.83       2.02        0.00      87.90       1.84       0.06       1.92       ----

> <Gold.Chemscore.Fitness>
15.8496

> <Gold.Chemscore.DG>
-17.8253

> <Gold.Chemscore.ZeroCoef>
-5.4800

> <Gold.Chemscore.Hbond>
2.0242

> <Gold.Chemscore.Metal>
0.0000

> <Gold.Chemscore.Lipo>
87.8994

> <Gold.Chemscore.Internal_Hbond>
0.0000

> <Gold.Chemscore.DEClash>
0.0591

> <Gold.Chemscore.DEInternal>
1.9166

> <Gold.Chemscore.Rot>
1.8358

> <Gold.Chemscore.Internal.Correction>
   9.000000E+99

> <Gold.Chemscore.Hbonds>
donor molecule, donor type, donor heavy atom, donor atom, acceptor molecule, acceptor atom, score
      P1  H  6896  6909       L1    12  1.00
      P1  H  6931  6943       L1    13  0.39
      P1  H  6934  6947       L1    13  0.11

> <Gold.Chemscore.Hbond.Weighted>
-6.7607

> <Gold.Chemscore.Metal.Weighted>
-0.0000

> <Gold.Chemscore.Lipo.Weighted>
-10.2842

> <Gold.Chemscore.Internal_Hbond.Weighted>
0.0000

> <Gold.Chemscore.DEClash.Weighted>
0.0591

> <Gold.Chemscore.DEInternal.Weighted>
1.9166

> <Gold.Chemscore.Rot.Weighted>
4.6996

> <Gold.Chemscore.Internal.Correction.Weighted>
   9.000000E+99

> <Gold.Protein.RotatedTorsions>
[ 6907 6896 6895 6894 ] final   54.87 input  -60.11 | X-H torsion
[ 7974 7965 7964 7962 ] final -154.67 input  175.53 | X-H torsion
[ 8008 7997 7996 7995 ] final -147.98 input   59.86 | X-H torsion
[ 10167 10162 10161 10158 ] final  -25.27 input  -65.29 | X-H torsion
[ 10718 10713 10712 10709 ] final  -61.94 input   66.30 | X-H torsion
[ 10763 10752 10751 10750 ] final   -8.09 input  -60.55 | X-H torsion
[ 11005 11000 10999 10996 ] final   -9.02 input  -57.11 | X-H torsion

> <Gold.Protein.ActiveResidues>
 VAL166  LYS551  ARG553  GLY616  TRP617  ASP618  TYR619  PRO620  LYS621  CYS622 
 ASP623  PHE694  ASN695  SER759  ASP760  ASP761  ALA762  ILE779  LEU786  VAL792 
 PHE793  MET794  SER795  GLU796  ALA797  LYS798  CYS799  TRP800  GLU811  SER814 

> <Gold.Protein.RotatedAtoms>
  152.3482  134.7042  160.0243 H   0  0  0  0  0  0  0  0  0  0  0  0  # atno 6907 bound_to 6896
  151.7405  133.3316  159.3372 H   0  0  0  0  0  0  0  0  0  0  0  0  # atno 6908 bound_to 6896
  150.7523  134.6216  159.6183 H   0  0  0  0  0  0  0  0  0  0  0  0  # atno 6909 bound_to 6896
  144.7678  140.4356  143.5929 H   0  0  0  0  0  0  0  0  0  0  0  0  # atno 7974 bound_to 7965
  155.5843  140.0646  157.2775 H   0  0  0  0  0  0  0  0  0  0  0  0  # atno 8008 bound_to 7997
  154.4323  140.1846  156.1055 H   0  0  0  0  0  0  0  0  0  0  0  0  # atno 8009 bound_to 7997
  156.0281  140.3309  155.7114 H   0  0  0  0  0  0  0  0  0  0  0  0  # atno 8010 bound_to 7997
  140.7287  143.4279  151.0848 H   0  0  0  0  0  0  0  0  0  0  0  0  # atno 10167 bound_to 10162
  156.0888  130.4203  150.1065 H   0  0  0  0  0  0  0  0  0  0  0  0  # atno 10718 bound_to 10713
  153.4356  135.7013  153.6202 H   0  0  0  0  0  0  0  0  0  0  0  0  # atno 10763 bound_to 10752
  153.4598  135.3739  155.2332 H   0  0  0  0  0  0  0  0  0  0  0  0  # atno 10764 bound_to 10752
  154.8726  135.4017  154.3747 H   0  0  0  0  0  0  0  0  0  0  0  0  # atno 10765 bound_to 10752
  140.7296  133.8760  155.8883 H   0  0  0  0  0  0  0  0  0  0  0  0  # atno 11005 bound_to 11000
  145.6416  139.1551  143.2912 LP  0  0  0  0  0  0  0  0  0  0  0  0  # atno 17320 bound_to 7965
  146.1800  140.6512  142.9193 LP  0  0  0  0  0  0  0  0  0  0  0  0  # atno 17321 bound_to 7965
  139.7933  143.8188  152.3154 LP  0  0  0  0  0  0  0  0  0  0  0  0  # atno 17342 bound_to 10162
  139.8179  144.7308  150.9611 LP  0  0  0  0  0  0  0  0  0  0  0  0  # atno 17343 bound_to 10162
  156.9080  130.9642  151.3567 LP  0  0  0  0  0  0  0  0  0  0  0  0  # atno 17370 bound_to 10713
  157.6031  130.8527  149.8833 LP  0  0  0  0  0  0  0  0  0  0  0  0  # atno 17371 bound_to 10713
  140.9932  134.1250  157.4388 LP  0  0  0  0  0  0  0  0  0  0  0  0  # atno 17394 bound_to 11000
  139.8829  135.0047  156.6264 LP  0  0  0  0  0  0  0  0  0  0  0  0  # atno 17395 bound_to 11000

$$$$
