AV-unprocessed.smi:2355|AV-procd|sdf|9387|dock3
  -GOLD-   2272013 23D 1   1.00000     0.00000
 Structure written by MMmdl.
 48 49  0  0  0  0  0  0  0  0  1 V2000
  153.6568  141.0981  159.7052 C   0  0  0  0  0  0  0  0  0  0  0  0
  152.7937  142.2647  159.2724 C   0  0  0  0  0  0  0  0  0  0  0  0
  152.9587  143.5388  159.8483 C   0  0  0  0  0  0  0  0  0  0  0  0
  152.1245  144.5828  159.4033 C   0  0  0  0  0  0  0  0  0  0  0  0
  152.2449  145.9761  159.9838 C   0  0  0  0  0  0  0  0  0  0  0  0
  151.1782  144.4163  158.4548 N   0  0  0  0  0  0  0  0  0  0  0  0
  151.0109  143.1937  157.8924 C   0  0  0  0  0  0  0  0  0  0  0  0
  150.0460  142.9144  156.8885 N   0  0  0  0  0  0  0  0  0  0  0  0
  150.0158  141.8797  156.0306 C   0  0  0  0  0  0  0  0  0  0  0  0
  150.8460  140.9714  155.9783 O   0  0  0  0  0  0  0  0  0  0  0  0
  148.9484  141.9532  155.2216 N   0  0  0  0  0  0  0  0  0  0  0  0
  148.6091  140.9873  154.1774 C   0  0  2  0  0  0  0  0  0  0  0  0
  147.3605  141.4836  153.4273 C   0  0  0  0  0  0  0  0  0  0  0  0
  148.4563  139.5392  154.7486 C   0  0  1  0  0  0  0  0  0  0  0  0
  147.5965  138.6781  153.7863 C   0  0  0  0  0  0  0  0  0  0  0  0
  149.7420  138.8955  155.1095 N   0  0  0  0  0  0  0  0  0  0  0  0
  150.7337  138.9721  154.0307 C   0  0  0  0  0  0  0  0  0  0  0  0
  152.0628  138.2877  154.3933 C   0  0  0  0  0  0  0  0  0  0  0  0
  151.8231  136.9300  154.7373 O   0  0  0  0  0  0  0  0  0  0  0  0
  150.9229  136.8075  155.8297 C   0  0  0  0  0  0  0  0  0  0  0  0
  149.5863  137.4844  155.4809 C   0  0  0  0  0  0  0  0  0  0  0  0
  151.8071  142.0928  158.2806 C   0  0  0  0  0  0  0  0  0  0  0  0
  154.3118  141.3753  160.5317 H   0  0  0  0  0  0  0  0  0  0  0  0
  154.2779  140.7599  158.8756 H   0  0  0  0  0  0  0  0  0  0  0  0
  153.0327  140.2657  160.0307 H   0  0  0  0  0  0  0  0  0  0  0  0
  153.7034  143.7114  160.6116 H   0  0  0  0  0  0  0  0  0  0  0  0
  153.1859  146.0981  160.5210 H   0  0  0  0  0  0  0  0  0  0  0  0
  151.4266  146.1660  160.6787 H   0  0  0  0  0  0  0  0  0  0  0  0
  152.2066  146.7267  159.1934 H   0  0  0  0  0  0  0  0  0  0  0  0
  149.2932  143.5821  156.8135 H   0  0  0  0  0  0  0  0  0  0  0  0
  148.3192  142.7342  155.3355 H   0  0  0  0  0  0  0  0  0  0  0  0
  149.4403  141.0234  153.4743 H   0  0  0  0  0  0  0  0  0  0  0  0
  147.1006  140.8165  152.6052 H   0  0  0  0  0  0  0  0  0  0  0  0
  147.5308  142.4725  153.0002 H   0  0  0  0  0  0  0  0  0  0  0  0
  146.4938  141.5565  154.0842 H   0  0  0  0  0  0  0  0  0  0  0  0
  147.8764  139.6317  155.6682 H   0  0  0  0  0  0  0  0  0  0  0  0
  146.6992  139.1957  153.4491 H   0  0  0  0  0  0  0  0  0  0  0  0
  147.2388  137.7684  154.2668 H   0  0  0  0  0  0  0  0  0  0  0  0
  148.1602  138.3870  152.8998 H   0  0  0  0  0  0  0  0  0  0  0  0
  150.3298  138.5199  153.1237 H   0  0  0  0  0  0  0  0  0  0  0  0
  150.9622  140.0096  153.7924 H   0  0  0  0  0  0  0  0  0  0  0  0
  152.7502  138.3239  153.5481 H   0  0  0  0  0  0  0  0  0  0  0  0
  152.5487  138.8022  155.2240 H   0  0  0  0  0  0  0  0  0  0  0  0
  150.7661  135.7505  156.0448 H   0  0  0  0  0  0  0  0  0  0  0  0
  151.3598  137.2544  156.7241 H   0  0  0  0  0  0  0  0  0  0  0  0
  148.9464  137.3827  156.3548 H   0  0  0  0  0  0  0  0  0  0  0  0
  149.1048  136.9390  154.6679 H   0  0  0  0  0  0  0  0  0  0  0  0
  151.6633  141.1238  157.8242 H   0  0  0  0  0  0  0  0  0  0  0  0
  1  2  1  0  0  0  0
  1 23  1  0  0  0  0
  1 24  1  0  0  0  0
  1 25  1  0  0  0  0
  2 22  1  0  0  0  0
  2  3  2  0  0  0  0
  3  4  1  0  0  0  0
  3 26  1  0  0  0  0
  4  5  1  0  0  0  0
  4  6  2  0  0  0  0
  5 27  1  0  0  0  0
  5 28  1  0  0  0  0
  5 29  1  0  0  0  0
  6  7  1  0  0  0  0
  7  8  1  0  0  0  0
  7 22  2  0  0  0  0
  8  9  1  0  0  0  0
  8 30  1  0  0  0  0
  9 10  2  0  0  0  0
  9 11  1  0  0  0  0
 11 12  1  0  0  0  0
 11 31  1  0  0  0  0
 12 13  1  0  0  0  0
 12 14  1  0  0  0  0
 12 32  1  0  0  0  0
 13 33  1  0  0  0  0
 13 34  1  0  0  0  0
 13 35  1  0  0  0  0
 14 15  1  0  0  0  0
 14 16  1  0  0  0  0
 14 36  1  0  0  0  0
 15 37  1  0  0  0  0
 15 38  1  0  0  0  0
 15 39  1  0  0  0  0
 16 21  1  0  0  0  0
 16 17  1  0  0  0  0
 17 18  1  0  0  0  0
 17 40  1  0  0  0  0
 17 41  1  0  0  0  0
 18 19  1  0  0  0  0
 18 42  1  0  0  0  0
 18 43  1  0  0  0  0
 19 20  1  0  0  0  0
 20 21  1  0  0  0  0
 20 44  1  0  0  0  0
 20 45  1  0  0  0  0
 21 46  1  0  0  0  0
 21 47  1  0  0  0  0
 22 48  1  0  0  0  0
M  END
> <s_m_source_file>
AV-unprocessed.smi

> <i_m_source_file_index>
2355

> <i_lp_mmshare_version>
43012

> <i_f3d_flags>
0

> <s_epik_input>
W0NIM11jMVtjSF1jKFtDSDNdKW5jKFtjSF0xKVtOSF1DKD1PKVtOSF1bQ0BIXShbQ0gzXSlbQ0BIXShbQ0gzXSlOMltDSDJdW0NIMl1PW0NIMl1bQ0gyXTI=

> <s_epik_cmdline>
J2VwaWtfcHl0aG9uJywgJy1waCcsICc3LjAnLCAnLXRuJywgJzgnLCAnLW1hJywgJzIwMCcsICctbWV0YWxfYmluZGluZycsICctaW1hZScsICc8aW5maWxlLm1hZT4nLCAnLW9tYWUnLCAnPG91dGZpbGUubWFlPic=

> <r_epik_Ionization_Penalty>
0.266238

> <r_epik_Ionization_Penalty_Charging>
0

> <r_epik_Ionization_Penalty_Neutral>
0.266238

> <r_epik_State_Penalty>
0.257924

> <r_epik_Charging_Adjusted_Penalty>
0.257924

> <i_epik_Tot_Q>
0

> <i_epik_Tot_abs_Q>
0

> <r_epik_Metal_State_Penalty>
0.257904

> <b_epik_Metal_Only>
0

> <s_lp_Force_Field>
OPLS_2005

> <r_lp_Energy>
33.2304

> <b_lp_Chiralities_Consistent>
1

> <s_lp_Variant>
AV-unprocessed.smi:2355-3

> <Gold.Version>
5.8.1

> <Gold.Id.Protein>
6NUR|6NUR_protein|mol2

> <Gold.PLP.Fitness>
48.4861

> <Gold.PLP.PLP>
-43.0803

> <Gold.PLP.part.hbond>
-2.9216

> <Gold.PLP.part.metal>
0.0000

> <Gold.PLP.part.buried>
-6.7556

> <Gold.PLP.part.nonpolar>
-32.5844

> <Gold.PLP.part.repulsive>
0.5686

> <Gold.PLP.ligand.clash>
0.5328

> <Gold.PLP.ligand.torsion>
0.6017

> <Gold.PLP.Chemscore.Hbond>
2.3509

> <Gold.PLP.Chemscore.CHOScore>
0.0000

> <Gold.PLP.Chemscore.Metal>
0.0000

> <Gold.Chemscore.Hbonds>
donor molecule, donor type, donor heavy atom, donor atom, acceptor molecule, acceptor atom, score
      L1  H     8    30       P1  8028  0.69
      L1  H    11    31       P1  8028  0.47
      P1  H 10752 10764       L1    19  1.00

> <Gold.PLP.Chemscore.Internal.Correction>
0.0891

> <Gold.Rescore>
     Score         DG    S(hbond)    S(metal)    S(lipo)     H(rot)  DE(clash)    DE(int)     intcor
     17.05     -23.36       2.26        0.00     119.03       1.40       1.08       5.24       ----

> <Gold.Chemscore.Fitness>
17.0528

> <Gold.Chemscore.DG>
-23.3642

> <Gold.Chemscore.ZeroCoef>
-5.4800

> <Gold.Chemscore.Hbond>
2.2592

> <Gold.Chemscore.Metal>
0.0000

> <Gold.Chemscore.Lipo>
119.0288

> <Gold.Chemscore.Internal_Hbond>
0.0000

> <Gold.Chemscore.DEClash>
1.0761

> <Gold.Chemscore.DEInternal>
5.2353

> <Gold.Chemscore.Rot>
1.4015

> <Gold.Chemscore.Internal.Correction>
   9.000000E+99

> <Gold.Chemscore.Hbonds>
donor molecule, donor type, donor heavy atom, donor atom, acceptor molecule, acceptor atom, score
      L1  H     8    30       P1  8028  0.63
      L1  H    11    31       P1  8028  0.47
      P1  H 10752 10764       L1    19  0.92

> <Gold.Chemscore.Hbond.Weighted>
-7.5456

> <Gold.Chemscore.Metal.Weighted>
-0.0000

> <Gold.Chemscore.Lipo.Weighted>
-13.9264

> <Gold.Chemscore.Internal_Hbond.Weighted>
0.0000

> <Gold.Chemscore.DEClash.Weighted>
1.0761

> <Gold.Chemscore.DEInternal.Weighted>
5.2353

> <Gold.Chemscore.Rot.Weighted>
3.5878

> <Gold.Chemscore.Internal.Correction.Weighted>
   9.000000E+99

> <Gold.Protein.RotatedTorsions>
[ 6907 6896 6895 6894 ] final  -57.12 input  -60.11 | X-H torsion
[ 7974 7965 7964 7962 ] final  136.04 input  175.53 | X-H torsion
[ 8008 7997 7996 7995 ] final  168.23 input   59.86 | X-H torsion
[ 10167 10162 10161 10158 ] final  147.63 input  -65.29 | X-H torsion
[ 10718 10713 10712 10709 ] final  126.48 input   66.30 | X-H torsion
[ 10763 10752 10751 10750 ] final  -66.44 input  -60.55 | X-H torsion
[ 11005 11000 10999 10996 ] final  -13.93 input  -57.11 | X-H torsion

> <Gold.Protein.ActiveResidues>
 VAL166  LYS551  ARG553  GLY616  TRP617  ASP618  TYR619  PRO620  LYS621  CYS622 
 ASP623  PHE694  ASN695  SER759  ASP760  ASP761  ALA762  ILE779  LEU786  VAL792 
 PHE793  MET794  SER795  GLU796  ALA797  LYS798  CYS799  TRP800  GLU811  SER814 

> <Gold.Protein.RotatedAtoms>
  150.8111  134.7267  159.6688 H   0  0  0  0  0  0  0  0  0  0  0  0  # atno 6907 bound_to 6896
  152.4231  134.5915  159.9985 H   0  0  0  0  0  0  0  0  0  0  0  0  # atno 6908 bound_to 6896
  151.6124  133.3309  159.3106 H   0  0  0  0  0  0  0  0  0  0  0  0  # atno 6909 bound_to 6896
  144.9604  139.4717  143.5482 H   0  0  0  0  0  0  0  0  0  0  0  0  # atno 7974 bound_to 7965
  156.1565  140.1596  156.8684 H   0  0  0  0  0  0  0  0  0  0  0  0  # atno 8008 bound_to 7997
  154.5119  140.0799  156.8043 H   0  0  0  0  0  0  0  0  0  0  0  0  # atno 8009 bound_to 7997
  155.3793  140.3404  155.4248 H   0  0  0  0  0  0  0  0  0  0  0  0  # atno 8010 bound_to 7997
  139.4887  144.5741  151.6999 H   0  0  0  0  0  0  0  0  0  0  0  0  # atno 10167 bound_to 10162
  157.5415  131.1096  150.8851 H   0  0  0  0  0  0  0  0  0  0  0  0  # atno 10718 bound_to 10713
  154.3598  135.6118  153.5685 H   0  0  0  0  0  0  0  0  0  0  0  0  # atno 10763 bound_to 10752
  152.9794  135.5812  154.4646 H   0  0  0  0  0  0  0  0  0  0  0  0  # atno 10764 bound_to 10752
  154.4382  135.2849  155.1843 H   0  0  0  0  0  0  0  0  0  0  0  0  # atno 10765 bound_to 10752
  140.7812  133.8361  155.9294 H   0  0  0  0  0  0  0  0  0  0  0  0  # atno 11005 bound_to 11000
  146.3351  139.8750  142.8833 LP  0  0  0  0  0  0  0  0  0  0  0  0  # atno 17320 bound_to 7965
  145.2708  141.0108  143.3773 LP  0  0  0  0  0  0  0  0  0  0  0  0  # atno 17321 bound_to 7965
  140.5334  144.0695  150.6061 LP  0  0  0  0  0  0  0  0  0  0  0  0  # atno 17342 bound_to 10162
  140.3692  143.2864  152.0297 LP  0  0  0  0  0  0  0  0  0  0  0  0  # atno 17343 bound_to 10162
  156.9402  130.5382  149.5280 LP  0  0  0  0  0  0  0  0  0  0  0  0  # atno 17370 bound_to 10713
  156.0500  130.5571  150.8969 LP  0  0  0  0  0  0  0  0  0  0  0  0  # atno 17371 bound_to 10713
  140.9481  134.1815  157.4748 LP  0  0  0  0  0  0  0  0  0  0  0  0  # atno 17394 bound_to 11000
  139.8742  134.9898  156.5475 LP  0  0  0  0  0  0  0  0  0  0  0  0  # atno 17395 bound_to 11000

$$$$
