AV-unprocessed.smi:2405|AV-procd|sdf|9513|dock4
  -GOLD-   2272013143D 1   1.00000     0.00000
 Structure written by MMmdl.
 36 37  0  0  0  0  0  0  0  0  2 V2000
  152.6274  142.4485  161.8373 C   0  0  0  0  0  0  0  0  0  0  0  0
  152.9515  141.6680  160.5591 C   0  0  0  0  0  0  0  0  0  0  0  0
  152.2403  142.2059  159.3627 C   0  0  0  0  0  0  0  0  0  0  0  0
  151.3971  141.4835  158.6206 N   0  0  0  0  0  0  0  0  0  0  0  0
  150.8763  142.2031  157.5397 C   0  0  0  0  0  0  0  0  0  0  0  0
  149.8982  141.5527  156.6058 C   0  0  0  0  0  0  0  0  0  0  0  0
  150.5462  140.3479  155.9235 C   0  0  0  0  0  0  0  0  0  0  0  0
  151.6541  140.4592  155.3978 O   0  0  0  0  0  0  0  0  0  0  0  0
  149.8457  139.2039  155.9403 N   0  0  0  0  0  0  0  0  0  0  0  0
  150.2798  137.9402  155.3520 C   0  0  1  0  0  0  0  0  0  0  0  0
  151.5184  137.3696  156.0754 C   0  0  0  0  0  0  0  0  0  0  0  0
  151.1380  135.9520  156.5194 C   0  0  0  0  0  0  0  0  0  0  0  0
  149.6061  135.9640  156.6562 C   0  0  1  0  0  0  0  0  0  0  0  0
  149.1091  136.5170  158.0097 C   0  0  0  0  0  0  0  0  0  0  0  0
  148.4112  137.5541  157.9684 O   0  0  0  0  0  0  0  0  0  0  0  0
  149.4155  135.9088  159.0594 O   0  5  0  0  0  0  0  0  0  0  0  0
  149.1753  136.8761  155.4954 C   0  0  0  0  0  0  0  0  0  0  0  0
  151.3608  143.4858  157.4625 C   0  0  0  0  0  0  0  0  0  0  0  0
  152.4812  143.8374  158.7490 S   0  0  0  0  0  0  0  0  0  0  0  0
  153.1567  142.0292  162.6930 H   0  0  0  0  0  0  0  0  0  0  0  0
  151.5599  142.4175  162.0573 H   0  0  0  0  0  0  0  0  0  0  0  0
  152.9204  143.4947  161.7435 H   0  0  0  0  0  0  0  0  0  0  0  0
  154.0255  141.6911  160.3709 H   0  0  0  0  0  0  0  0  0  0  0  0
  152.6788  140.6199  160.6847 H   0  0  0  0  0  0  0  0  0  0  0  0
  149.0123  141.2210  157.1487 H   0  0  0  0  0  0  0  0  0  0  0  0
  149.5483  142.2587  155.8506 H   0  0  0  0  0  0  0  0  0  0  0  0
  148.9476  139.2030  156.4029 H   0  0  0  0  0  0  0  0  0  0  0  0
  150.4916  138.0914  154.2920 H   0  0  0  0  0  0  0  0  0  0  0  0
  152.3987  137.3650  155.4320 H   0  0  0  0  0  0  0  0  0  0  0  0
  151.7680  137.9682  156.9528 H   0  0  0  0  0  0  0  0  0  0  0  0
  151.4166  135.2433  155.7386 H   0  0  0  0  0  0  0  0  0  0  0  0
  151.6650  135.6417  157.4224 H   0  0  0  0  0  0  0  0  0  0  0  0
  149.1977  134.9599  156.5383 H   0  0  0  0  0  0  0  0  0  0  0  0
  148.1823  137.3112  155.6215 H   0  0  0  0  0  0  0  0  0  0  0  0
  149.1317  136.2811  154.5823 H   0  0  0  0  0  0  0  0  0  0  0  0
  151.1247  144.2424  156.7288 H   0  0  0  0  0  0  0  0  0  0  0  0
  1  2  1  0  0  0  0
  1 20  1  0  0  0  0
  1 21  1  0  0  0  0
  1 22  1  0  0  0  0
  2  3  1  0  0  0  0
  2 23  1  0  0  0  0
  2 24  1  0  0  0  0
  3 19  1  0  0  0  0
  3  4  2  0  0  0  0
  4  5  1  0  0  0  0
  5  6  1  0  0  0  0
  5 18  2  0  0  0  0
  6  7  1  0  0  0  0
  6 25  1  0  0  0  0
  6 26  1  0  0  0  0
  7  8  2  0  0  0  0
  7  9  1  0  0  0  0
  9 10  1  0  0  0  0
  9 27  1  0  0  0  0
 10 17  1  0  0  0  0
 10 11  1  0  0  0  0
 10 28  1  0  0  0  0
 11 12  1  0  0  0  0
 11 29  1  0  0  0  0
 11 30  1  0  0  0  0
 12 13  1  0  0  0  0
 12 31  1  0  0  0  0
 12 32  1  0  0  0  0
 13 14  1  0  0  0  0
 13 17  1  0  0  0  0
 13 33  1  0  0  0  0
 14 15  2  0  0  0  0
 14 16  1  0  0  0  0
 17 34  1  0  0  0  0
 17 35  1  0  0  0  0
 18 19  1  0  0  0  0
 18 36  1  0  0  0  0
M  CHG  1  16  -1
M  END
> <s_m_source_file>
AV-unprocessed.smi

> <i_m_source_file_index>
2405

> <i_lp_mmshare_version>
43012

> <i_f3d_flags>
0

> <s_epik_input>
W0NIM11bQ0gyXWMxbmMoW2NIXXMxKVtDSDJdQyg9TylbTkhdW0NAQEhdMltDSDJdW0NIMl1bQ0BIXShbQ0gyXTIpQyg9TylbT0hd

> <s_epik_cmdline>
J2VwaWtfcHl0aG9uJywgJy1waCcsICc3LjAnLCAnLXRuJywgJzgnLCAnLW1hJywgJzIwMCcsICctbWV0YWxfYmluZGluZycsICctaW1hZScsICc8aW5maWxlLm1hZT4nLCAnLW9tYWUnLCAnPG91dGZpbGUubWFlPic=

> <r_epik_Ionization_Penalty>
0.000544611

> <r_epik_Ionization_Penalty_Charging>
0.000481685

> <r_epik_Ionization_Penalty_Neutral>
6.29266e-05

> <r_epik_State_Penalty>
0.00029893

> <r_epik_Charging_Adjusted_Penalty>
0.000780614

> <i_epik_Tot_Q>
-1

> <i_epik_Tot_abs_Q>
1

> <r_epik_Metal_State_Penalty>
-0

> <b_epik_Metal_Only>
0

> <s_lp_Force_Field>
OPLS_2005

> <r_lp_Energy>
7.49368

> <b_lp_Chiralities_Consistent>
1

> <s_lp_Variant>
AV-unprocessed.smi:2405-2

> <Gold.Version>
5.8.1

> <Gold.Id.Protein>
6NUR|6NUR_protein|mol2

> <Gold.PLP.Fitness>
43.5376

> <Gold.PLP.PLP>
-32.5592

> <Gold.PLP.part.hbond>
-2.0000

> <Gold.PLP.part.metal>
0.0000

> <Gold.PLP.part.buried>
-4.2609

> <Gold.PLP.part.nonpolar>
-26.9823

> <Gold.PLP.part.repulsive>
0.0386

> <Gold.PLP.ligand.clash>
0.0000

> <Gold.PLP.ligand.torsion>
0.1486

> <Gold.PLP.Chemscore.Hbond>
2.7840

> <Gold.PLP.Chemscore.CHOScore>
0.9588

> <Gold.PLP.Chemscore.Metal>
0.0000

> <Gold.Chemscore.Hbonds>
donor molecule, donor type, donor heavy atom, donor atom, acceptor molecule, acceptor atom, score
      P1  H  6896  6907       L1    16  2.00
      P1  H  7989  7998       L1     8  0.80
      L1  C    18    36       P1  8028  0.98

> <Gold.PLP.Chemscore.Internal.Correction>
0.0473

> <Gold.Rescore>
     Score         DG    S(hbond)    S(metal)    S(lipo)     H(rot)  DE(clash)    DE(int)     intcor
     15.85     -16.99       1.88        0.00      89.88       2.06       0.11       1.04       ----

> <Gold.Chemscore.Fitness>
15.8452

> <Gold.Chemscore.DG>
-16.9932

> <Gold.Chemscore.ZeroCoef>
-5.4800

> <Gold.Chemscore.Hbond>
1.8801

> <Gold.Chemscore.Metal>
0.0000

> <Gold.Chemscore.Lipo>
89.8829

> <Gold.Chemscore.Internal_Hbond>
0.0000

> <Gold.Chemscore.DEClash>
0.1100

> <Gold.Chemscore.DEInternal>
1.0381

> <Gold.Chemscore.Rot>
2.0635

> <Gold.Chemscore.Internal.Correction>
   9.000000E+99

> <Gold.Chemscore.Hbonds>
donor molecule, donor type, donor heavy atom, donor atom, acceptor molecule, acceptor atom, score
      P1  H  6896  6907       L1    16  1.00
      P1  H  7989  7998       L1     8  0.73

> <Gold.Chemscore.Hbond.Weighted>
-6.2794

> <Gold.Chemscore.Metal.Weighted>
-0.0000

> <Gold.Chemscore.Lipo.Weighted>
-10.5163

> <Gold.Chemscore.Internal_Hbond.Weighted>
0.0000

> <Gold.Chemscore.DEClash.Weighted>
0.1100

> <Gold.Chemscore.DEInternal.Weighted>
1.0381

> <Gold.Chemscore.Rot.Weighted>
5.2825

> <Gold.Chemscore.Internal.Correction.Weighted>
   9.000000E+99

> <Gold.Protein.RotatedTorsions>
[ 6907 6896 6895 6894 ] final  -68.83 input  -60.11 | X-H torsion
[ 7974 7965 7964 7962 ] final   56.77 input  175.53 | X-H torsion
[ 8008 7997 7996 7995 ] final  -45.46 input   59.86 | X-H torsion
[ 10167 10162 10161 10158 ] final  107.72 input  -65.29 | X-H torsion
[ 10718 10713 10712 10709 ] final -133.97 input   66.30 | X-H torsion
[ 10763 10752 10751 10750 ] final -172.36 input  -60.55 | X-H torsion
[ 11005 11000 10999 10996 ] final  160.29 input  -57.11 | X-H torsion

> <Gold.Protein.ActiveResidues>
 VAL166  LYS551  ARG553  GLY616  TRP617  ASP618  TYR619  PRO620  LYS621  CYS622 
 ASP623  PHE694  ASN695  SER759  ASP760  ASP761  ALA762  ILE779  LEU786  VAL792 
 PHE793  MET794  SER795  GLU796  ALA797  LYS798  CYS799  TRP800  GLU811  SER814 

> <Gold.Protein.RotatedAtoms>
  150.7336  134.5683  159.5876 H   0  0  0  0  0  0  0  0  0  0  0  0  # atno 6907 bound_to 6896
  152.3129  134.7473  160.0341 H   0  0  0  0  0  0  0  0  0  0  0  0  # atno 6908 bound_to 6896
  151.8015  133.3335  159.3565 H   0  0  0  0  0  0  0  0  0  0  0  0  # atno 6909 bound_to 6896
  145.9362  139.3849  143.0391 H   0  0  0  0  0  0  0  0  0  0  0  0  # atno 7974 bound_to 7965
  154.4001  140.1396  156.3852 H   0  0  0  0  0  0  0  0  0  0  0  0  # atno 8008 bound_to 7997
  155.7966  140.3477  155.5359 H   0  0  0  0  0  0  0  0  0  0  0  0  # atno 8009 bound_to 7997
  155.8525  140.0944  157.1656 H   0  0  0  0  0  0  0  0  0  0  0  0  # atno 8010 bound_to 7997
  139.6904  144.7108  151.1359 H   0  0  0  0  0  0  0  0  0  0  0  0  # atno 10167 bound_to 10162
  156.2505  130.7150  151.1047 H   0  0  0  0  0  0  0  0  0  0  0  0  # atno 10718 bound_to 10713
  154.6201  135.2874  155.0335 H   0  0  0  0  0  0  0  0  0  0  0  0  # atno 10763 bound_to 10752
  154.1533  135.6500  153.4972 H   0  0  0  0  0  0  0  0  0  0  0  0  # atno 10764 bound_to 10752
  153.0232  135.5361  154.6988 H   0  0  0  0  0  0  0  0  0  0  0  0  # atno 10765 bound_to 10752
  140.2045  134.8313  157.3054 H   0  0  0  0  0  0  0  0  0  0  0  0  # atno 11005 bound_to 11000
  145.8361  140.9605  143.0824 LP  0  0  0  0  0  0  0  0  0  0  0  0  # atno 17320 bound_to 7965
  144.6772  140.0224  143.7483 LP  0  0  0  0  0  0  0  0  0  0  0  0  # atno 17321 bound_to 7965
  140.7681  143.5568  150.9143 LP  0  0  0  0  0  0  0  0  0  0  0  0  # atno 17342 bound_to 10162
  139.9245  143.6566  152.3090 LP  0  0  0  0  0  0  0  0  0  0  0  0  # atno 17343 bound_to 10162
  157.7212  131.0680  150.6126 LP  0  0  0  0  0  0  0  0  0  0  0  0  # atno 17370 bound_to 10713
  156.6205  130.4404  149.5824 LP  0  0  0  0  0  0  0  0  0  0  0  0  # atno 17371 bound_to 10713
  140.2018  134.4245  155.7659 LP  0  0  0  0  0  0  0  0  0  0  0  0  # atno 17394 bound_to 11000
  141.2227  133.7075  156.8196 LP  0  0  0  0  0  0  0  0  0  0  0  0  # atno 17395 bound_to 11000

$$$$
