AV-unprocessed.smi:66|AV-procd|sdf|623|dock9
  -GOLD-   2262016513D 1   1.00000     0.00000
 Structure written by MMmdl.
 28 30  0  0  0  0  0  0  0  0  2 V2000
  149.2617  135.5624  158.9162 O   0  0  0  0  0  0  0  0  0  0  0  0
  148.5404  136.4872  159.3496 C   0  0  0  0  0  0  0  0  0  0  0  0
  148.2486  136.6746  160.5520 O   0  5  0  0  0  0  0  0  0  0  0  0
  147.9676  137.4631  158.3110 C   0  0  2  0  0  0  0  0  0  0  0  0
  146.4263  137.5548  158.3721 C   0  0  0  0  0  0  0  0  0  0  0  0
  145.9798  137.4267  156.9155 C   0  0  2  0  0  0  0  0  0  0  0  0
  144.7065  136.8298  156.7908 O   0  0  0  0  0  0  0  0  0  0  0  0
  147.0843  136.5759  156.2991 C   0  0  0  0  0  0  0  0  0  0  0  0
  148.3060  137.0445  156.9468 N   0  0  0  0  0  0  0  0  0  0  0  0
  149.2355  137.8427  156.2409 C   0  0  0  0  0  0  0  0  0  0  0  0
  148.9095  138.3508  155.0275 N   0  0  0  0  0  0  0  0  0  0  0  0
  149.8127  139.1040  154.3863 C   0  0  0  0  0  0  0  0  0  0  0  0
  151.0505  139.4520  154.7701 N   0  0  0  0  0  0  0  0  0  0  0  0
  151.3948  138.9561  155.9657 C   0  0  0  0  0  0  0  0  0  0  0  0
  152.6103  139.1473  156.6089 N   0  0  0  0  0  0  0  0  0  0  0  0
  152.4385  138.4539  157.7335 C   0  0  0  0  0  0  0  0  0  0  0  0
  151.2532  137.8410  157.8812 N   0  0  0  0  0  0  0  0  0  0  0  0
  150.5197  138.1417  156.7451 C   0  0  0  0  0  0  0  0  0  0  0  0
  150.9705  137.2865  158.6790 H   0  0  0  0  0  0  0  0  0  0  0  0
  148.3731  138.4584  158.4998 H   0  0  0  0  0  0  0  0  0  0  0  0
  146.0032  136.7422  158.9660 H   0  0  0  0  0  0  0  0  0  0  0  0
  146.0872  138.4901  158.8184 H   0  0  0  0  0  0  0  0  0  0  0  0
  145.9687  138.4107  156.4444 H   0  0  0  0  0  0  0  0  0  0  0  0
  144.6620  136.3998  155.9502 H   0  0  0  0  0  0  0  0  0  0  0  0
  146.9534  135.5259  156.5659 H   0  0  0  0  0  0  0  0  0  0  0  0
  147.0777  136.6221  155.2102 H   0  0  0  0  0  0  0  0  0  0  0  0
  149.5005  139.4850  153.4254 H   0  0  0  0  0  0  0  0  0  0  0  0
  153.2103  138.3886  158.4862 H   0  0  0  0  0  0  0  0  0  0  0  0
  1  2  2  0  0  0  0
  2  3  1  0  0  0  0
  2  4  1  0  0  0  0
  4  9  1  0  0  0  0
  4  5  1  0  0  0  0
  4 20  1  0  0  0  0
  5  6  1  0  0  0  0
  5 21  1  0  0  0  0
  5 22  1  0  0  0  0
  6  7  1  0  0  0  0
  6  8  1  0  0  0  0
  6 23  1  0  0  0  0
  7 24  1  0  0  0  0
  8  9  1  0  0  0  0
  8 25  1  0  0  0  0
  8 26  1  0  0  0  0
  9 10  1  0  0  0  0
 10 18  1  0  0  0  0
 10 11  2  0  0  0  0
 11 12  1  0  0  0  0
 12 13  2  0  0  0  0
 12 27  1  0  0  0  0
 13 14  1  0  0  0  0
 14 18  2  0  0  0  0
 14 15  1  0  0  0  0
 15 16  2  0  0  0  0
 16 17  1  0  0  0  0
 16 28  1  0  0  0  0
 17 19  1  0  0  0  0
 17 18  1  0  0  0  0
M  CHG  1   3  -1
M  END
> <s_m_source_file>
AV-unprocessed.smi

> <i_m_source_file_index>
66

> <i_lp_mmshare_version>
43012

> <i_f3d_flags>
0

> <s_epik_input>
Tz1DKFtPSF0pW0NAQEhdMVtDSDJdW0NAQEhdKFtPSF0pW0NIMl1OMWMobltjSF1uMiljKGMyMylbbkhdW2NIXW4z

> <s_epik_cmdline>
J2VwaWtfcHl0aG9uJywgJy1waCcsICc3LjAnLCAnLXRuJywgJzgnLCAnLW1hJywgJzIwMCcsICctbWV0YWxfYmluZGluZycsICctaW1hZScsICc8aW5maWxlLm1hZT4nLCAnLW9tYWUnLCAnPG91dGZpbGUubWFlPic=

> <r_lp_tautomer_probability>
0.0419193

> <r_epik_Ionization_Penalty>
0.0157405

> <r_epik_Ionization_Penalty_Charging>
0.000248217

> <r_epik_Ionization_Penalty_Neutral>
0.0154923

> <r_epik_State_Penalty>
1.99742

> <r_epik_Charging_Adjusted_Penalty>
1.99767

> <i_epik_Tot_Q>
-1

> <i_epik_Tot_abs_Q>
1

> <r_epik_Metal_State_Penalty>
2.31035

> <b_epik_Metal_Only>
0

> <s_lp_Force_Field>
OPLS_2005

> <r_lp_Energy>
22.103

> <b_lp_Chiralities_Consistent>
1

> <s_lp_Variant>
AV-unprocessed.smi:66-7

> <Gold.Version>
5.8.1

> <Gold.Id.Protein>
6NUR|6NUR_protein|mol2

> <Gold.PLP.Fitness>
39.7875

> <Gold.PLP.PLP>
-16.0905

> <Gold.PLP.part.hbond>
-5.0000

> <Gold.PLP.part.metal>
0.0000

> <Gold.PLP.part.buried>
-2.5921

> <Gold.PLP.part.nonpolar>
-8.3065

> <Gold.PLP.part.repulsive>
0.2617

> <Gold.PLP.ligand.clash>
0.0000

> <Gold.PLP.ligand.torsion>
0.1608

> <Gold.PLP.Chemscore.Hbond>
6.9314

> <Gold.PLP.Chemscore.CHOScore>
1.0000

> <Gold.PLP.Chemscore.Metal>
0.0000

> <Gold.Chemscore.Hbonds>
donor molecule, donor type, donor heavy atom, donor atom, acceptor molecule, acceptor atom, score
      P1  H  6896  6909       L1     1  2.00
      P1  H  6931  6943       L1     3  1.03
      P1  H  7989  7998       L1    13  1.00
      P1  H  7997  8009       L1    15  1.00
      L1  C    12    27       P1  7957  1.00

> <Gold.PLP.Chemscore.Internal.Correction>
0.2244

> <Gold.Rescore>
     Score         DG    S(hbond)    S(metal)    S(lipo)     H(rot)  DE(clash)    DE(int)     intcor
     12.33     -12.69       3.85        0.00       6.04       2.48       0.00       0.36       ----

> <Gold.Chemscore.Fitness>
12.3318

> <Gold.Chemscore.DG>
-12.6939

> <Gold.Chemscore.ZeroCoef>
-5.4800

> <Gold.Chemscore.Hbond>
3.8463

> <Gold.Chemscore.Metal>
0.0000

> <Gold.Chemscore.Lipo>
6.0365

> <Gold.Chemscore.Internal_Hbond>
0.0000

> <Gold.Chemscore.DEClash>
0.0000

> <Gold.Chemscore.DEInternal>
0.3621

> <Gold.Chemscore.Rot>
2.4762

> <Gold.Chemscore.Internal.Correction>
   9.000000E+99

> <Gold.Chemscore.Hbonds>
donor molecule, donor type, donor heavy atom, donor atom, acceptor molecule, acceptor atom, score
      P1  H  6896  6909       L1     1  1.00
      P1  H  6931  6943       L1     3  0.50
      P1  H  7989  7998       L1    13  0.54
      P1  H  7997  8009       L1    15  0.76

> <Gold.Chemscore.Hbond.Weighted>
-12.8467

> <Gold.Chemscore.Metal.Weighted>
-0.0000

> <Gold.Chemscore.Lipo.Weighted>
-0.7063

> <Gold.Chemscore.Internal_Hbond.Weighted>
0.0000

> <Gold.Chemscore.DEClash.Weighted>
0.0000

> <Gold.Chemscore.DEInternal.Weighted>
0.3621

> <Gold.Chemscore.Rot.Weighted>
6.3391

> <Gold.Chemscore.Internal.Correction.Weighted>
   9.000000E+99

> <Gold.Protein.RotatedTorsions>
[ 6907 6896 6895 6894 ] final   51.31 input  -60.11 | X-H torsion
[ 7974 7965 7964 7962 ] final   43.59 input  175.53 | X-H torsion
[ 8008 7997 7996 7995 ] final -178.10 input   59.86 | X-H torsion
[ 10167 10162 10161 10158 ] final -173.93 input  -65.29 | X-H torsion
[ 10718 10713 10712 10709 ] final   72.66 input   66.30 | X-H torsion
[ 10763 10752 10751 10750 ] final  167.86 input  -60.55 | X-H torsion
[ 11005 11000 10999 10996 ] final  -64.08 input  -57.11 | X-H torsion

> <Gold.Protein.ActiveResidues>
 VAL166  LYS551  ARG553  GLY616  TRP617  ASP618  TYR619  PRO620  LYS621  CYS622 
 ASP623  PHE694  ASN695  SER759  ASP760  ASP761  ALA762  ILE779  LEU786  VAL792 
 PHE793  MET794  SER795  GLU796  ALA797  LYS798  CYS799  TRP800  GLU811  SER814 

> <Gold.Protein.RotatedAtoms>
  152.3113  134.7494  160.0335 H   0  0  0  0  0  0  0  0  0  0  0  0  # atno 6907 bound_to 6896
  151.7974  133.3361  159.3525 H   0  0  0  0  0  0  0  0  0  0  0  0  # atno 6908 bound_to 6896
  150.7321  134.5716  159.5938 H   0  0  0  0  0  0  0  0  0  0  0  0  # atno 6909 bound_to 6896
  146.0642  139.5169  142.9639 H   0  0  0  0  0  0  0  0  0  0  0  0  # atno 7974 bound_to 7965
  156.0148  140.1248  157.0417 H   0  0  0  0  0  0  0  0  0  0  0  0  # atno 8008 bound_to 7997
  154.4289  140.1080  156.5950 H   0  0  0  0  0  0  0  0  0  0  0  0  # atno 8009 bound_to 7997
  155.6028  140.3470  155.4601 H   0  0  0  0  0  0  0  0  0  0  0  0  # atno 8010 bound_to 7997
  139.5661  144.1752  152.1314 H   0  0  0  0  0  0  0  0  0  0  0  0  # atno 10167 bound_to 10162
  157.6511  130.9590  150.0960 H   0  0  0  0  0  0  0  0  0  0  0  0  # atno 10718 bound_to 10713
  154.3601  135.2753  155.2324 H   0  0  0  0  0  0  0  0  0  0  0  0  # atno 10763 bound_to 10752
  154.4516  135.5929  153.6199 H   0  0  0  0  0  0  0  0  0  0  0  0  # atno 10764 bound_to 10752
  152.9844  135.6043  154.3821 H   0  0  0  0  0  0  0  0  0  0  0  0  # atno 10765 bound_to 10752
  141.1414  133.6661  156.5779 H   0  0  0  0  0  0  0  0  0  0  0  0  # atno 11005 bound_to 11000
  145.6507  141.0264  143.1762 LP  0  0  0  0  0  0  0  0  0  0  0  0  # atno 17320 bound_to 7965
  144.7192  139.8087  143.7388 LP  0  0  0  0  0  0  0  0  0  0  0  0  # atno 17321 bound_to 7965
  140.1275  144.5318  150.6823 LP  0  0  0  0  0  0  0  0  0  0  0  0  # atno 17342 bound_to 10162
  140.6945  143.2395  151.5040 LP  0  0  0  0  0  0  0  0  0  0  0  0  # atno 17343 bound_to 10162
  156.1896  130.3654  149.8928 LP  0  0  0  0  0  0  0  0  0  0  0  0  # atno 17370 bound_to 10713
  156.6859  130.8877  151.3582 LP  0  0  0  0  0  0  0  0  0  0  0  0  # atno 17371 bound_to 10713
  140.3861  134.7481  157.4692 LP  0  0  0  0  0  0  0  0  0  0  0  0  # atno 17394 bound_to 11000
  140.0601  134.6008  155.8759 LP  0  0  0  0  0  0  0  0  0  0  0  0  # atno 17395 bound_to 11000

$$$$
