AV-unprocessed.smi:907|AV-procd|sdf|4112|dock1
  -GOLD-   22720 2 03D 1   1.00000     0.00000
 Structure written by MMmdl.
 54 57  0  0  0  0  0  0  0  0  3 V2000
  148.3101  138.8930  154.0056 O   0  0  0  0  0  0  0  0  0  0  0  0
  147.4845  139.7337  154.3634 C   0  0  0  0  0  0  0  0  0  0  0  0
  146.1650  139.4834  154.3562 N   0  0  0  0  0  0  0  0  0  0  0  0
  145.5672  138.2213  153.9419 C   0  0  0  0  0  0  0  0  0  0  0  0
  146.0517  137.8247  152.5405 C   0  0  0  0  0  0  0  0  0  0  0  0
  145.3926  136.5515  152.0453 C   0  0  0  0  0  0  0  0  0  0  0  0
  145.5265  135.3222  152.7270 C   0  0  0  0  0  0  0  0  0  0  0  0
  144.8809  134.1769  152.2155 C   0  0  0  0  0  0  0  0  0  0  0  0
  144.1148  134.2848  151.0362 C   0  0  0  0  0  0  0  0  0  0  0  0
  144.0141  135.5371  150.3967 C   0  0  0  0  0  0  0  0  0  0  0  0
  144.6484  136.6111  150.9170 N   0  3  0  0  0  0  0  0  0  0  0  0
  147.8231  140.9907  154.7457 N   0  0  0  0  0  0  0  0  0  0  0  0
  147.1048  141.8317  155.7105 C   0  0  0  0  0  0  0  0  0  0  0  0
  147.9107  141.8770  157.0203 C   0  0  0  0  0  0  0  0  0  0  0  0
  149.3074  142.3633  156.8089 N   0  3  0  0  0  0  0  0  0  0  0  0
  150.0774  142.3970  158.0911 C   0  0  2  0  0  0  0  0  0  0  0  0
  149.6519  143.5901  158.9879 C   0  0  0  0  0  0  0  0  0  0  0  0
  150.9773  144.3060  159.2947 C   0  0  1  0  0  0  0  0  0  0  0  0
  151.8294  143.4319  160.2296 C   0  0  0  0  0  0  0  0  0  0  0  0
  152.2854  142.2963  159.2975 C   0  0  0  0  0  0  0  0  0  0  0  0
  151.6065  142.6509  157.9592 C   0  0  2  0  0  0  0  0  0  0  0  0
  151.7082  144.1718  157.9656 C   0  0  0  0  0  0  0  0  0  0  0  0
  149.9901  141.6375  155.6971 C   0  0  0  0  0  0  0  0  0  0  0  0
  149.1239  141.5789  154.4246 C   0  0  0  0  0  0  0  0  0  0  0  0
  145.5365  140.2209  154.6400 H   0  0  0  0  0  0  0  0  0  0  0  0
  145.8323  137.4470  154.6635 H   0  0  0  0  0  0  0  0  0  0  0  0
  144.4797  138.3123  153.9504 H   0  0  0  0  0  0  0  0  0  0  0  0
  145.8457  138.6279  151.8311 H   0  0  0  0  0  0  0  0  0  0  0  0
  147.1341  137.6879  152.5443 H   0  0  0  0  0  0  0  0  0  0  0  0
  146.1139  135.2553  153.6313 H   0  0  0  0  0  0  0  0  0  0  0  0
  144.9708  133.2273  152.7228 H   0  0  0  0  0  0  0  0  0  0  0  0
  143.6114  133.4198  150.6292 H   0  0  0  0  0  0  0  0  0  0  0  0
  143.4489  135.7115  149.4927 H   0  0  0  0  0  0  0  0  0  0  0  0
  146.9994  142.8379  155.3019 H   0  0  0  0  0  0  0  0  0  0  0  0
  146.0889  141.4962  155.9187 H   0  0  0  0  0  0  0  0  0  0  0  0
  147.3844  142.5116  157.7322 H   0  0  0  0  0  0  0  0  0  0  0  0
  147.9417  140.8785  157.4597 H   0  0  0  0  0  0  0  0  0  0  0  0
  149.9108  141.4492  158.6063 H   0  0  0  0  0  0  0  0  0  0  0  0
  148.9934  144.2819  158.4608 H   0  0  0  0  0  0  0  0  0  0  0  0
  149.1348  143.2664  159.8920 H   0  0  0  0  0  0  0  0  0  0  0  0
  150.8490  145.3294  159.6491 H   0  0  0  0  0  0  0  0  0  0  0  0
  152.6885  143.9871  160.6083 H   0  0  0  0  0  0  0  0  0  0  0  0
  151.2611  143.0667  161.0862 H   0  0  0  0  0  0  0  0  0  0  0  0
  153.3713  142.3044  159.1936 H   0  0  0  0  0  0  0  0  0  0  0  0
  151.9963  141.3112  159.6662 H   0  0  0  0  0  0  0  0  0  0  0  0
  152.1087  142.1609  157.1283 H   0  0  0  0  0  0  0  0  0  0  0  0
  151.1864  144.6446  157.1316 H   0  0  0  0  0  0  0  0  0  0  0  0
  152.7363  144.5376  157.9988 H   0  0  0  0  0  0  0  0  0  0  0  0
  150.9197  142.1336  155.4266 H   0  0  0  0  0  0  0  0  0  0  0  0
  150.2427  140.6275  156.0237 H   0  0  0  0  0  0  0  0  0  0  0  0
  149.6507  141.0330  153.6404 H   0  0  0  0  0  0  0  0  0  0  0  0
  148.9738  142.5846  154.0290 H   0  0  0  0  0  0  0  0  0  0  0  0
  149.2302  143.3217  156.4994 H   0  0  0  0  0  0  0  0  0  0  0  0
  144.5595  137.5074  150.4378 H   0  0  0  0  0  0  0  0  0  0  0  0
  1  2  2  0  0  0  0
  2  3  1  0  0  0  0
  2 12  1  0  0  0  0
  3  4  1  0  0  0  0
  3 25  1  0  0  0  0
  4  5  1  0  0  0  0
  4 26  1  0  0  0  0
  4 27  1  0  0  0  0
  5  6  1  0  0  0  0
  5 28  1  0  0  0  0
  5 29  1  0  0  0  0
  6 11  1  0  0  0  0
  6  7  2  0  0  0  0
  7  8  1  0  0  0  0
  7 30  1  0  0  0  0
  8  9  2  0  0  0  0
  8 31  1  0  0  0  0
  9 10  1  0  0  0  0
  9 32  1  0  0  0  0
 10 11  2  0  0  0  0
 10 33  1  0  0  0  0
 11 54  1  0  0  0  0
 12 24  1  0  0  0  0
 12 13  1  0  0  0  0
 13 14  1  0  0  0  0
 13 34  1  0  0  0  0
 13 35  1  0  0  0  0
 14 15  1  0  0  0  0
 14 36  1  0  0  0  0
 14 37  1  0  0  0  0
 15 16  1  0  0  0  0
 15 23  1  0  0  0  0
 15 53  1  0  0  0  0
 16 21  1  0  0  0  0
 16 17  1  0  0  0  0
 16 38  1  0  0  0  0
 17 18  1  0  0  0  0
 17 39  1  0  0  0  0
 17 40  1  0  0  0  0
 18 22  1  0  0  0  0
 18 19  1  0  0  0  0
 18 41  1  0  0  0  0
 19 20  1  0  0  0  0
 19 42  1  0  0  0  0
 19 43  1  0  0  0  0
 20 21  1  0  0  0  0
 20 44  1  0  0  0  0
 20 45  1  0  0  0  0
 21 22  1  0  0  0  0
 21 46  1  0  0  0  0
 22 47  1  0  0  0  0
 22 48  1  0  0  0  0
 23 24  1  0  0  0  0
 23 49  1  0  0  0  0
 23 50  1  0  0  0  0
 24 51  1  0  0  0  0
 24 52  1  0  0  0  0
M  CHG  1  11   1
M  CHG  1  15   1
M  END
> <s_m_source_file>
AV-unprocessed.smi

> <i_m_source_file_index>
907

> <i_lp_mmshare_version>
43012

> <i_f3d_flags>
0

> <s_epik_input>
W0NIMl0xW0NIMl1bQ0BASF0oW0NIMl0yKVtDQEBIXShbQ0gyXVtDQEhdMTIpTihbQ0gyXVtDSDJdMylbQ0gyXVtDSDJdTjNDKD1PKVtOSF1bQ0gyXVtDSDJdYzRbY0hdW2NIXVtjSF1bY0hdbjQ=

> <s_epik_cmdline>
J2VwaWtfcHl0aG9uJywgJy1waCcsICc3LjAnLCAnLXRuJywgJzgnLCAnLW1hJywgJzIwMCcsICctbWV0YWxfYmluZGluZycsICctaW1hZScsICc8aW5maWxlLm1hZT4nLCAnLW9tYWUnLCAnPG91dGZpbGUubWFlPic=

> <r_epik_Ionization_Penalty>
1.63018

> <r_epik_Ionization_Penalty_Charging>
1.63015

> <r_epik_Ionization_Penalty_Neutral>
2.64641e-05

> <r_epik_State_Penalty>
1.72761

> <r_epik_Charging_Adjusted_Penalty>
3.35777

> <i_epik_Tot_Q>
2

> <i_epik_Tot_abs_Q>
2

> <r_epik_Metal_State_Penalty>
1.76501

> <b_epik_Metal_Only>
0

> <s_lp_Force_Field>
OPLS_2005

> <r_lp_Energy>
104.955

> <b_lp_Chiralities_Consistent>
1

> <s_lp_Variant>
AV-unprocessed.smi:907-7

> <Gold.Version>
5.8.1

> <Gold.Id.Protein>
6NUR|6NUR_protein|mol2

> <Gold.PLP.Fitness>
50.9594

> <Gold.PLP.PLP>
-43.0210

> <Gold.PLP.part.hbond>
-2.0000

> <Gold.PLP.part.metal>
0.0000

> <Gold.PLP.part.buried>
-4.0918

> <Gold.PLP.part.nonpolar>
-37.2966

> <Gold.PLP.part.repulsive>
0.2655

> <Gold.PLP.ligand.clash>
0.0000

> <Gold.PLP.ligand.torsion>
0.5845

> <Gold.PLP.Chemscore.Hbond>
3.0000

> <Gold.PLP.Chemscore.CHOScore>
0.0000

> <Gold.PLP.Chemscore.Metal>
0.0000

> <Gold.Chemscore.Hbonds>
donor molecule, donor type, donor heavy atom, donor atom, acceptor molecule, acceptor atom, score
      L1  H    11    54       P1 10171  0.73
      L1  H    15    53       P1  8028  2.00

> <Gold.PLP.Chemscore.Internal.Correction>
0.1074

> <Gold.Rescore>
     Score         DG    S(hbond)    S(metal)    S(lipo)     H(rot)  DE(clash)    DE(int)     intcor
     20.84     -22.44       1.99        0.00     120.10       1.46       0.03       1.57       ----

> <Gold.Chemscore.Fitness>
20.8436

> <Gold.Chemscore.DG>
-22.4383

> <Gold.Chemscore.ZeroCoef>
-5.4800

> <Gold.Chemscore.Hbond>
1.9870

> <Gold.Chemscore.Metal>
0.0000

> <Gold.Chemscore.Lipo>
120.1043

> <Gold.Chemscore.Internal_Hbond>
0.0000

> <Gold.Chemscore.DEClash>
0.0251

> <Gold.Chemscore.DEInternal>
1.5696

> <Gold.Chemscore.Rot>
1.4572

> <Gold.Chemscore.Internal.Correction>
   9.000000E+99

> <Gold.Chemscore.Hbonds>
donor molecule, donor type, donor heavy atom, donor atom, acceptor molecule, acceptor atom, score
      L1  H    11    54       P1 10171  0.72
      L1  H    15    53       P1  8028  0.99

> <Gold.Chemscore.Hbond.Weighted>
-6.6366

> <Gold.Chemscore.Metal.Weighted>
-0.0000

> <Gold.Chemscore.Lipo.Weighted>
-14.0522

> <Gold.Chemscore.Internal_Hbond.Weighted>
0.0000

> <Gold.Chemscore.DEClash.Weighted>
0.0251

> <Gold.Chemscore.DEInternal.Weighted>
1.5696

> <Gold.Chemscore.Rot.Weighted>
3.7305

> <Gold.Chemscore.Internal.Correction.Weighted>
   9.000000E+99

> <Gold.Protein.RotatedTorsions>
[ 6907 6896 6895 6894 ] final  130.87 input  -60.11 | X-H torsion
[ 7974 7965 7964 7962 ] final    4.24 input  175.53 | X-H torsion
[ 8008 7997 7996 7995 ] final -135.43 input   59.86 | X-H torsion
[ 10167 10162 10161 10158 ] final  -22.87 input  -65.29 | X-H torsion
[ 10718 10713 10712 10709 ] final  -26.68 input   66.30 | X-H torsion
[ 10763 10752 10751 10750 ] final  -31.82 input  -60.55 | X-H torsion
[ 11005 11000 10999 10996 ] final   56.71 input  -57.11 | X-H torsion

> <Gold.Protein.ActiveResidues>
 VAL166  LYS551  ARG553  GLY616  TRP617  ASP618  TYR619  PRO620  LYS621  CYS622 
 ASP623  PHE694  ASN695  SER759  ASP760  ASP761  ALA762  ILE779  LEU786  VAL792 
 PHE793  MET794  SER795  GLU796  ALA797  LYS798  CYS799  TRP800  GLU811  SER814 

> <Gold.Protein.RotatedAtoms>
  152.3483  133.6149  159.5925 H   0  0  0  0  0  0  0  0  0  0  0  0  # atno 6907 bound_to 6896
  150.7521  133.9614  159.3525 H   0  0  0  0  0  0  0  0  0  0  0  0  # atno 6908 bound_to 6896
  151.7469  135.0842  160.0376 H   0  0  0  0  0  0  0  0  0  0  0  0  # atno 6909 bound_to 6896
  146.2444  140.0564  142.8371 H   0  0  0  0  0  0  0  0  0  0  0  0  # atno 7974 bound_to 7965
  155.3785  140.0492  157.3044 H   0  0  0  0  0  0  0  0  0  0  0  0  # atno 8008 bound_to 7997
  154.5094  140.2186  155.9148 H   0  0  0  0  0  0  0  0  0  0  0  0  # atno 8009 bound_to 7997
  156.1565  140.3125  155.8740 H   0  0  0  0  0  0  0  0  0  0  0  0  # atno 8010 bound_to 7997
  140.7287  143.4495  151.0537 H   0  0  0  0  0  0  0  0  0  0  0  0  # atno 10167 bound_to 10162
  156.4481  130.4478  149.7008 H   0  0  0  0  0  0  0  0  0  0  0  0  # atno 10718 bound_to 10713
  153.8036  135.6888  153.4852 H   0  0  0  0  0  0  0  0  0  0  0  0  # atno 10763 bound_to 10752
  153.1673  135.4556  154.9852 H   0  0  0  0  0  0  0  0  0  0  0  0  # atno 10764 bound_to 10752
  154.7996  135.3332  154.7523 H   0  0  0  0  0  0  0  0  0  0  0  0  # atno 10765 bound_to 10752
  140.0508  134.5740  155.9266 H   0  0  0  0  0  0  0  0  0  0  0  0  # atno 11005 bound_to 11000
  145.0939  140.9302  143.4753 LP  0  0  0  0  0  0  0  0  0  0  0  0  # atno 17320 bound_to 7965
  145.0742  139.3008  143.5816 LP  0  0  0  0  0  0  0  0  0  0  0  0  # atno 17321 bound_to 7965
  139.8170  143.7872  152.3175 LP  0  0  0  0  0  0  0  0  0  0  0  0  # atno 17342 bound_to 10162
  139.7942  144.7399  150.9914 LP  0  0  0  0  0  0  0  0  0  0  0  0  # atno 17343 bound_to 10162
  156.3846  130.7596  151.2592 LP  0  0  0  0  0  0  0  0  0  0  0  0  # atno 17370 bound_to 10713
  157.7504  131.0286  150.4054 LP  0  0  0  0  0  0  0  0  0  0  0  0  # atno 17371 bound_to 10713
  141.1929  133.6577  156.5524 LP  0  0  0  0  0  0  0  0  0  0  0  0  # atno 17394 bound_to 11000
  140.3921  134.7431  157.4728 LP  0  0  0  0  0  0  0  0  0  0  0  0  # atno 17395 bound_to 11000

$$$$
