AV-unprocessed.smi:697|AV-procd|sdf|3391|dock9
  -GOLD-   22720 0373D 1   1.00000     0.00000
 Structure written by MMmdl.
 44 45  0  0  0  0  0  0  0  0  1 V2000
  151.8676  138.1538  154.2054 C   0  0  0  0  0  0  0  0  0  0  0  0
  151.4855  139.3171  154.9291 O   0  0  0  0  0  0  0  0  0  0  0  0
  150.0908  139.4825  155.2202 C   0  0  1  0  0  0  0  0  0  0  0  0
  149.3762  140.1799  154.0555 C   0  0  0  0  0  0  0  0  0  0  0  0
  149.5086  138.1750  155.7905 C   0  0  0  0  0  0  0  0  0  0  0  0
  150.0494  138.6136  157.1499 C   0  0  2  0  0  0  0  0  0  0  0  0
  149.1529  138.2709  158.2488 N   0  0  0  0  0  0  0  0  0  0  0  0
  148.9784  137.0311  158.7252 C   0  0  0  0  0  0  0  0  0  0  0  0
  149.5521  136.0458  158.2620 O   0  0  0  0  0  0  0  0  0  0  0  0
  148.1047  137.0302  159.7489 N   0  0  0  0  0  0  0  0  0  0  0  0
  147.6707  135.9634  160.5544 C   0  0  0  0  0  0  0  0  0  0  0  0
  147.8285  134.6465  160.2578 C   0  0  0  0  0  0  0  0  0  0  0  0
  147.3626  133.5943  161.1455 C   0  0  0  0  0  0  0  0  0  0  0  0
  147.4697  132.1262  160.7633 C   0  0  0  0  0  0  0  0  0  0  0  0
  146.2670  131.5545  160.6932 F   0  0  0  0  0  0  0  0  0  0  0  0
  148.0707  131.9827  159.5818 F   0  0  0  0  0  0  0  0  0  0  0  0
  148.1877  131.4723  161.6752 F   0  0  0  0  0  0  0  0  0  0  0  0
  146.7570  133.9902  162.2801 C   0  0  0  0  0  0  0  0  0  0  0  0
  146.6116  135.3408  162.6036 N   0  0  0  0  0  0  0  0  0  0  0  0
  147.0285  136.3595  161.8188 C   0  0  0  0  0  0  0  0  0  0  0  0
  146.8632  137.5255  162.1761 O   0  0  0  0  0  0  0  0  0  0  0  0
  149.9539  140.0815  156.6585 C   0  0  0  0  0  0  0  0  0  0  0  0
  151.0757  141.0180  157.1206 C   0  0  0  0  0  0  0  0  0  0  0  0
  148.6389  140.8276  156.9554 C   0  0  0  0  0  0  0  0  0  0  0  0
  146.1628  135.5568  163.4822 H   0  0  0  0  0  0  0  0  0  0  0  0
  152.9548  138.0800  154.2005 H   0  0  0  0  0  0  0  0  0  0  0  0
  151.5447  138.2042  153.1658 H   0  0  0  0  0  0  0  0  0  0  0  0
  151.4761  137.2395  154.6499 H   0  0  0  0  0  0  0  0  0  0  0  0
  148.3381  140.4077  154.2946 H   0  0  0  0  0  0  0  0  0  0  0  0
  149.3495  139.5578  153.1611 H   0  0  0  0  0  0  0  0  0  0  0  0
  149.8656  141.1191  153.7972 H   0  0  0  0  0  0  0  0  0  0  0  0
  148.4186  138.1409  155.7440 H   0  0  0  0  0  0  0  0  0  0  0  0
  149.9437  137.2499  155.4138 H   0  0  0  0  0  0  0  0  0  0  0  0
  151.0793  138.2806  157.2995 H   0  0  0  0  0  0  0  0  0  0  0  0
  148.6409  139.0278  158.6775 H   0  0  0  0  0  0  0  0  0  0  0  0
  147.6758  137.9176  159.9681 H   0  0  0  0  0  0  0  0  0  0  0  0
  148.3257  134.3332  159.3548 H   0  0  0  0  0  0  0  0  0  0  0  0
  146.3380  133.3169  163.0134 H   0  0  0  0  0  0  0  0  0  0  0  0
  150.9364  141.3321  158.1554 H   0  0  0  0  0  0  0  0  0  0  0  0
  151.1223  141.9172  156.5058 H   0  0  0  0  0  0  0  0  0  0  0  0
  152.0539  140.5395  157.0706 H   0  0  0  0  0  0  0  0  0  0  0  0
  148.5391  141.0630  158.0156 H   0  0  0  0  0  0  0  0  0  0  0  0
  147.7617  140.2442  156.6759 H   0  0  0  0  0  0  0  0  0  0  0  0
  148.5838  141.7711  156.4113 H   0  0  0  0  0  0  0  0  0  0  0  0
  1  2  1  0  0  0  0
  1 26  1  0  0  0  0
  1 27  1  0  0  0  0
  1 28  1  0  0  0  0
  2  3  1  0  0  0  0
  3 22  1  0  0  0  0
  3  4  1  0  0  0  0
  3  5  1  0  0  0  0
  4 29  1  0  0  0  0
  4 30  1  0  0  0  0
  4 31  1  0  0  0  0
  5  6  1  0  0  0  0
  5 32  1  0  0  0  0
  5 33  1  0  0  0  0
  6  7  1  0  0  0  0
  6 22  1  0  0  0  0
  6 34  1  0  0  0  0
  7  8  1  0  0  0  0
  7 35  1  0  0  0  0
  8  9  2  0  0  0  0
  8 10  1  0  0  0  0
 10 11  1  0  0  0  0
 10 36  1  0  0  0  0
 11 20  1  0  0  0  0
 11 12  2  0  0  0  0
 12 13  1  0  0  0  0
 12 37  1  0  0  0  0
 13 14  1  0  0  0  0
 13 18  2  0  0  0  0
 14 15  1  0  0  0  0
 14 16  1  0  0  0  0
 14 17  1  0  0  0  0
 18 19  1  0  0  0  0
 18 38  1  0  0  0  0
 19 25  1  0  0  0  0
 19 20  1  0  0  0  0
 20 21  2  0  0  0  0
 22 23  1  0  0  0  0
 22 24  1  0  0  0  0
 23 39  1  0  0  0  0
 23 40  1  0  0  0  0
 23 41  1  0  0  0  0
 24 42  1  0  0  0  0
 24 43  1  0  0  0  0
 24 44  1  0  0  0  0
M  END
> <s_m_source_file>
AV-unprocessed.smi

> <i_m_source_file_index>
697

> <i_lp_mmshare_version>
43012

> <i_f3d_flags>
0

> <s_epik_input>
W0NIM11PW0NAQF0xKFtDSDNdKVtDSDJdW0NASF0oQzEoW0NIM10pW0NIM10pW05IXUMoPU8pW05IXWMyW2NIXWMoQyhGKShGKUYpW2NIXVtuSF1jMj1P

> <s_epik_cmdline>
J2VwaWtfcHl0aG9uJywgJy1waCcsICc3LjAnLCAnLXRuJywgJzgnLCAnLW1hJywgJzIwMCcsICctbWV0YWxfYmluZGluZycsICctaW1hZScsICc8aW5maWxlLm1hZT4nLCAnLW9tYWUnLCAnPG91dGZpbGUubWFlPic=

> <r_lp_tautomer_probability>
1

> <r_epik_Ionization_Penalty>
0.0036482

> <r_epik_Ionization_Penalty_Charging>
0.00362828

> <r_epik_Ionization_Penalty_Neutral>
1.99208e-05

> <r_epik_State_Penalty>
-0

> <r_epik_Charging_Adjusted_Penalty>
0.00362828

> <i_epik_Tot_Q>
0

> <i_epik_Tot_abs_Q>
0

> <r_epik_Metal_State_Penalty>
0.369362

> <b_epik_Metal_Only>
0

> <s_lp_Force_Field>
OPLS_2005

> <r_lp_Energy>
34.6264

> <b_lp_Chiralities_Consistent>
1

> <s_lp_Variant>
AV-unprocessed.smi:697-3

> <Gold.Version>
5.8.1

> <Gold.Id.Protein>
6NUR|6NUR_protein|mol2

> <Gold.PLP.Fitness>
44.2265

> <Gold.PLP.PLP>
-36.7844

> <Gold.PLP.part.hbond>
-3.8051

> <Gold.PLP.part.metal>
0.0000

> <Gold.PLP.part.buried>
-4.5349

> <Gold.PLP.part.nonpolar>
-28.5083

> <Gold.PLP.part.repulsive>
0.5567

> <Gold.PLP.ligand.clash>
0.0000

> <Gold.PLP.ligand.torsion>
0.6427

> <Gold.PLP.Chemscore.Hbond>
2.7701

> <Gold.PLP.Chemscore.CHOScore>
0.0000

> <Gold.PLP.Chemscore.Metal>
0.0000

> <Gold.Chemscore.Hbonds>
donor molecule, donor type, donor heavy atom, donor atom, acceptor molecule, acceptor atom, score
      P1  H  6896  6908       L1     9  0.44
      P1  H  6931  6943       L1    21  0.21
      P1  H  6934  6947       L1    21  0.67
      P1  H  7989  7998       L1     2  0.72

> <Gold.PLP.Chemscore.Internal.Correction>
0.4174

> <Gold.Rescore>
     Score         DG    S(hbond)    S(metal)    S(lipo)     H(rot)  DE(clash)    DE(int)     intcor
     14.66     -16.39       1.69        0.00      73.56       1.31       0.18       1.55       ----

> <Gold.Chemscore.Fitness>
14.6636

> <Gold.Chemscore.DG>
-16.3918

> <Gold.Chemscore.ZeroCoef>
-5.4800

> <Gold.Chemscore.Hbond>
1.6913

> <Gold.Chemscore.Metal>
0.0000

> <Gold.Chemscore.Lipo>
73.5629

> <Gold.Chemscore.Internal_Hbond>
0.0000

> <Gold.Chemscore.DEClash>
0.1763

> <Gold.Chemscore.DEInternal>
1.5519

> <Gold.Chemscore.Rot>
1.3062

> <Gold.Chemscore.Internal.Correction>
   9.000000E+99

> <Gold.Chemscore.Hbonds>
donor molecule, donor type, donor heavy atom, donor atom, acceptor molecule, acceptor atom, score
      P1  H  6896  6908       L1     9  0.42
      P1  H  6931  6943       L1    21  0.05
      P1  H  6934  6947       L1    21  0.67
      P1  H  7989  7998       L1     2  0.06

> <Gold.Chemscore.Hbond.Weighted>
-5.6489

> <Gold.Chemscore.Metal.Weighted>
-0.0000

> <Gold.Chemscore.Lipo.Weighted>
-8.6069

> <Gold.Chemscore.Internal_Hbond.Weighted>
0.0000

> <Gold.Chemscore.DEClash.Weighted>
0.1763

> <Gold.Chemscore.DEInternal.Weighted>
1.5519

> <Gold.Chemscore.Rot.Weighted>
3.3440

> <Gold.Chemscore.Internal.Correction.Weighted>
   9.000000E+99

> <Gold.Protein.RotatedTorsions>
[ 6907 6896 6895 6894 ] final  167.13 input  -60.11 | X-H torsion
[ 7974 7965 7964 7962 ] final  -93.93 input  175.53 | X-H torsion
[ 8008 7997 7996 7995 ] final   -7.48 input   59.86 | X-H torsion
[ 10167 10162 10161 10158 ] final -146.32 input  -65.29 | X-H torsion
[ 10718 10713 10712 10709 ] final   77.99 input   66.30 | X-H torsion
[ 10763 10752 10751 10750 ] final -138.05 input  -60.55 | X-H torsion
[ 11005 11000 10999 10996 ] final  107.95 input  -57.11 | X-H torsion

> <Gold.Protein.ActiveResidues>
 VAL166  LYS551  ARG553  GLY616  TRP617  ASP618  TYR619  PRO620  LYS621  CYS622 
 ASP623  PHE694  ASN695  SER759  ASP760  ASP761  ALA762  ILE779  LEU786  VAL792 
 PHE793  MET794  SER795  GLU796  ALA797  LYS798  CYS799  TRP800  GLU811  SER814 

> <Gold.Protein.RotatedAtoms>
  151.8682  133.3470  159.3725 H   0  0  0  0  0  0  0  0  0  0  0  0  # atno 6907 bound_to 6896
  150.7160  134.5139  159.5630 H   0  0  0  0  0  0  0  0  0  0  0  0  # atno 6908 bound_to 6896
  152.2666  134.7978  160.0472 H   0  0  0  0  0  0  0  0  0  0  0  0  # atno 6909 bound_to 6896
  145.3800  140.9516  143.2399 H   0  0  0  0  0  0  0  0  0  0  0  0  # atno 7974 bound_to 7965
  154.5834  140.2406  155.8021 H   0  0  0  0  0  0  0  0  0  0  0  0  # atno 8008 bound_to 7997
  156.2196  140.3002  155.9876 H   0  0  0  0  0  0  0  0  0  0  0  0  # atno 8009 bound_to 7997
  155.2500  140.0410  157.2976 H   0  0  0  0  0  0  0  0  0  0  0  0  # atno 8010 bound_to 7997
  139.7724  143.8219  152.2626 H   0  0  0  0  0  0  0  0  0  0  0  0  # atno 10167 bound_to 10162
  157.6730  130.9847  150.1722 H   0  0  0  0  0  0  0  0  0  0  0  0  # atno 10718 bound_to 10713
  154.8647  135.3623  154.5323 H   0  0  0  0  0  0  0  0  0  0  0  0  # atno 10763 bound_to 10752
  153.5948  135.7014  153.5413 H   0  0  0  0  0  0  0  0  0  0  0  0  # atno 10764 bound_to 10752
  153.3342  135.4116  155.1481 H   0  0  0  0  0  0  0  0  0  0  0  0  # atno 10765 bound_to 10752
  139.8836  134.9416  156.5898 H   0  0  0  0  0  0  0  0  0  0  0  0  # atno 11005 bound_to 11000
  144.8515  139.5315  143.6854 LP  0  0  0  0  0  0  0  0  0  0  0  0  # atno 17320 bound_to 7965
  146.2846  139.6970  142.9204 LP  0  0  0  0  0  0  0  0  0  0  0  0  # atno 17321 bound_to 7965
  139.8257  144.7276  150.9515 LP  0  0  0  0  0  0  0  0  0  0  0  0  # atno 17342 bound_to 10162
  140.7814  143.4117  151.0983 LP  0  0  0  0  0  0  0  0  0  0  0  0  # atno 17343 bound_to 10162
  156.2473  130.3697  149.8270 LP  0  0  0  0  0  0  0  0  0  0  0  0  # atno 17370 bound_to 10713
  156.6053  130.8564  151.3441 LP  0  0  0  0  0  0  0  0  0  0  0  0  # atno 17371 bound_to 10713
  140.7964  133.8540  155.8689 LP  0  0  0  0  0  0  0  0  0  0  0  0  # atno 17394 bound_to 11000
  140.9631  134.1629  157.4638 LP  0  0  0  0  0  0  0  0  0  0  0  0  # atno 17395 bound_to 11000

$$$$
