AV-unprocessed.smi:21|AV-procd|sdf|147|dock1
  -GOLD-   2262015363D 1   1.00000     0.00000
 Structure written by MMmdl.
 62 65  0  0  0  0  0  0  0  0  2 V2000
  152.5700  143.1402  161.6199 C   0  0  0  0  0  0  0  0  0  0  0  0
  151.2577  143.3255  161.1142 O   0  0  0  0  0  0  0  0  0  0  0  0
  151.1945  144.2201  160.0121 C   0  0  1  0  0  0  0  0  0  0  0  0
  151.9160  143.5756  158.8369 C   0  0  0  0  0  0  0  0  0  0  0  0
  150.8412  142.7276  158.1498 C   0  0  2  0  0  0  0  0  0  0  0  0
  151.1359  142.4158  156.6628 C   0  0  0  0  0  0  0  0  0  0  0  0
  150.5658  141.1456  156.2095 N   0  0  0  0  0  0  0  0  0  0  0  0
  149.3549  141.1802  155.3998 C   0  0  0  0  0  0  0  0  0  0  0  0
  150.8035  140.0554  156.9827 C   0  0  0  0  0  0  0  0  0  0  0  0
  152.0623  139.8893  157.4654 N   0  0  0  0  0  0  0  0  0  0  0  0
  152.3422  138.8794  158.2932 C   0  0  0  0  0  0  0  0  0  0  0  0
  151.5194  137.9512  158.7823 N   0  0  0  0  0  0  0  0  0  0  0  0
  150.2525  138.1128  158.3058 C   0  0  0  0  0  0  0  0  0  0  0  0
  149.8144  139.1114  157.3898 C   0  0  0  0  0  0  0  0  0  0  0  0
  148.4546  138.9534  157.1432 N   0  0  0  0  0  0  0  0  0  0  0  0
  148.1071  137.9351  157.8806 C   0  0  0  0  0  0  0  0  0  0  0  0
  149.1172  137.3985  158.6451 N   0  0  0  0  0  0  0  0  0  0  0  0
  149.0006  136.3064  159.5940 C   0  0  0  0  0  0  0  0  0  0  0  0
  147.5774  135.6914  159.6917 C   0  0  2  0  0  0  0  0  0  0  0  0
  146.6192  136.7256  160.3266 C   0  0  0  0  0  0  0  0  0  0  0  0
  147.2157  137.3858  161.4248 O   0  0  0  0  0  0  0  0  0  0  0  0
  147.5108  134.3010  160.3947 C   0  0  1  0  0  0  0  0  0  0  0  0
  147.6156  134.3513  161.9115 C   0  0  0  0  0  0  0  0  0  0  0  0
  147.0680  132.9916  162.3211 C   0  0  0  0  0  0  0  0  0  0  0  0
  145.9959  132.7583  161.4217 O   0  0  0  0  0  0  0  0  0  0  0  0
  146.1893  133.5277  160.2385 C   0  0  0  0  0  0  0  0  0  0  0  0
  149.6020  143.5216  158.3081 N   0  3  1  0  0  0  0  0  0  0  0  0
  148.3563  142.7239  158.2909 C   0  0  0  0  0  0  0  0  0  0  0  0
  149.7473  144.3713  159.5154 C   0  0  0  0  0  0  0  0  0  0  0  0
  151.6535  145.1778  160.2640 H   0  0  0  0  0  0  0  0  0  0  0  0
  150.7247  141.7996  158.7128 H   0  0  0  0  0  0  0  0  0  0  0  0
  152.5393  142.4620  162.4725 H   0  0  0  0  0  0  0  0  0  0  0  0
  153.0107  144.0800  161.9537 H   0  0  0  0  0  0  0  0  0  0  0  0
  153.2219  142.6977  160.8655 H   0  0  0  0  0  0  0  0  0  0  0  0
  152.2712  144.3531  158.1593 H   0  0  0  0  0  0  0  0  0  0  0  0
  152.7783  142.9926  159.1566 H   0  0  0  0  0  0  0  0  0  0  0  0
  150.7106  143.1993  156.0357 H   0  0  0  0  0  0  0  0  0  0  0  0
  152.2100  142.4485  156.4767 H   0  0  0  0  0  0  0  0  0  0  0  0
  149.1580  140.2074  154.9479 H   0  0  0  0  0  0  0  0  0  0  0  0
  149.4624  141.9044  154.5922 H   0  0  0  0  0  0  0  0  0  0  0  0
  148.4912  141.4688  155.9987 H   0  0  0  0  0  0  0  0  0  0  0  0
  153.3682  138.8166  158.6250 H   0  0  0  0  0  0  0  0  0  0  0  0
  147.0907  137.5702  157.9147 H   0  0  0  0  0  0  0  0  0  0  0  0
  149.7240  135.5373  159.3208 H   0  0  0  0  0  0  0  0  0  0  0  0
  149.3108  136.6874  160.5678 H   0  0  0  0  0  0  0  0  0  0  0  0
  147.2156  135.5486  158.6728 H   0  0  0  0  0  0  0  0  0  0  0  0
  146.3248  137.4732  159.5893 H   0  0  0  0  0  0  0  0  0  0  0  0
  145.6958  136.2529  160.6605 H   0  0  0  0  0  0  0  0  0  0  0  0
  146.6813  137.2397  162.1902 H   0  0  0  0  0  0  0  0  0  0  0  0
  148.3231  133.6734  160.0246 H   0  0  0  0  0  0  0  0  0  0  0  0
  148.6339  134.5110  162.2676 H   0  0  0  0  0  0  0  0  0  0  0  0
  146.9822  135.1435  162.3137 H   0  0  0  0  0  0  0  0  0  0  0  0
  147.8234  132.2168  162.1827 H   0  0  0  0  0  0  0  0  0  0  0  0
  146.7347  132.9643  163.3587 H   0  0  0  0  0  0  0  0  0  0  0  0
  145.3412  134.2059  160.1427 H   0  0  0  0  0  0  0  0  0  0  0  0
  146.1992  132.8701  159.3705 H   0  0  0  0  0  0  0  0  0  0  0  0
  148.3318  142.0149  159.1194 H   0  0  0  0  0  0  0  0  0  0  0  0
  148.2636  142.1653  157.3597 H   0  0  0  0  0  0  0  0  0  0  0  0
  147.4873  143.3774  158.3746 H   0  0  0  0  0  0  0  0  0  0  0  0
  149.0273  144.1066  160.2910 H   0  0  0  0  0  0  0  0  0  0  0  0
  149.5464  145.4038  159.2289 H   0  0  0  0  0  0  0  0  0  0  0  0
  149.5682  144.1556  157.5226 H   0  0  0  0  0  0  0  0  0  0  0  0
  1  2  1  0  0  0  0
  1 32  1  0  0  0  0
  1 33  1  0  0  0  0
  1 34  1  0  0  0  0
  2  3  1  0  0  0  0
  3 30  1  0  0  0  0
  3 29  1  0  0  0  0
  3  4  1  0  0  0  0
  4  5  1  0  0  0  0
  4 35  1  0  0  0  0
  4 36  1  0  0  0  0
  5 31  1  0  0  0  0
  5  6  1  0  0  0  0
  5 27  1  0  0  0  0
  6  7  1  0  0  0  0
  6 37  1  0  0  0  0
  6 38  1  0  0  0  0
  7  8  1  0  0  0  0
  7  9  1  0  0  0  0
  8 39  1  0  0  0  0
  8 40  1  0  0  0  0
  8 41  1  0  0  0  0
  9 14  1  0  0  0  0
  9 10  2  0  0  0  0
 10 11  1  0  0  0  0
 11 12  2  0  0  0  0
 11 42  1  0  0  0  0
 12 13  1  0  0  0  0
 13 17  1  0  0  0  0
 13 14  2  0  0  0  0
 14 15  1  0  0  0  0
 15 16  2  0  0  0  0
 16 17  1  0  0  0  0
 16 43  1  0  0  0  0
 17 18  1  0  0  0  0
 18 19  1  0  0  0  0
 18 44  1  0  0  0  0
 18 45  1  0  0  0  0
 19 20  1  0  0  0  0
 19 22  1  0  0  0  0
 19 46  1  0  0  0  0
 20 21  1  0  0  0  0
 20 47  1  0  0  0  0
 20 48  1  0  0  0  0
 21 49  1  0  0  0  0
 22 26  1  0  0  0  0
 22 23  1  0  0  0  0
 22 50  1  0  0  0  0
 23 24  1  0  0  0  0
 23 51  1  0  0  0  0
 23 52  1  0  0  0  0
 24 25  1  0  0  0  0
 24 53  1  0  0  0  0
 24 54  1  0  0  0  0
 25 26  1  0  0  0  0
 26 55  1  0  0  0  0
 26 56  1  0  0  0  0
 27 28  1  0  0  0  0
 27 29  1  0  0  0  0
 27 62  1  0  0  0  0
 28 57  1  0  0  0  0
 28 58  1  0  0  0  0
 28 59  1  0  0  0  0
 29 60  1  0  0  0  0
 29 61  1  0  0  0  0
M  CHG  1  27   1
M  END
> <s_m_source_file>
AV-unprocessed.smi

> <i_m_source_file_index>
21

> <i_lp_mmshare_version>
43012

> <i_f3d_flags>
0

> <s_epik_input>
W0NIM11PW0NASF0xW0NIMl1bQ0BIXShOKFtDSDNdKVtDSDJdMSlbQ0gyXU4oW0NIM10pYyhuW2NIXW4yKWMoYzIzKW5bY0hdbjNbQ0gyXVtDQEhdKFtDSDJdW09IXSlbQ0BASF00W0NIMl1bQ0gyXU9bQ0gyXTQ=

> <s_epik_cmdline>
J2VwaWtfcHl0aG9uJywgJy1waCcsICc3LjAnLCAnLXRuJywgJzgnLCAnLW1hJywgJzIwMCcsICctbWV0YWxfYmluZGluZycsICctaW1hZScsICc8aW5maWxlLm1hZT4nLCAnLW9tYWUnLCAnPG91dGZpbGUubWFlPic=

> <r_lp_tautomer_probability>
1

> <r_epik_Ionization_Penalty>
0.0157465

> <r_epik_Ionization_Penalty_Charging>
0.015354

> <r_epik_Ionization_Penalty_Neutral>
0.000392529

> <r_epik_State_Penalty>
0.0120612

> <r_epik_Charging_Adjusted_Penalty>
0.0274152

> <i_epik_Tot_Q>
1

> <i_epik_Tot_abs_Q>
1

> <r_epik_Metal_State_Penalty>
0.0121253

> <b_epik_Metal_Only>
0

> <s_lp_Force_Field>
OPLS_2005

> <r_lp_Energy>
57.9391

> <b_lp_Chiralities_Consistent>
1

> <s_lp_Variant>
AV-unprocessed.smi:21-27

> <Gold.Version>
5.8.1

> <Gold.Id.Protein>
6NUR|6NUR_protein|mol2

> <Gold.PLP.Fitness>
54.1857

> <Gold.PLP.PLP>
-44.7873

> <Gold.PLP.part.hbond>
-4.5897

> <Gold.PLP.part.metal>
0.0000

> <Gold.PLP.part.buried>
-7.3231

> <Gold.PLP.part.nonpolar>
-33.6810

> <Gold.PLP.part.repulsive>
0.2167

> <Gold.PLP.ligand.clash>
0.0000

> <Gold.PLP.ligand.torsion>
1.4576

> <Gold.PLP.Chemscore.Hbond>
3.6816

> <Gold.PLP.Chemscore.CHOScore>
0.0000

> <Gold.PLP.Chemscore.Metal>
0.0000

> <Gold.Chemscore.Hbonds>
donor molecule, donor type, donor heavy atom, donor atom, acceptor molecule, acceptor atom, score
      L1  H    27    62       P1  8028  1.78
      P1  H  6931  6943       L1    21  0.71
      P1  H  6933  6945       L1     2  0.11
      P1  H  6934  6947       L1    21  0.98

> <Gold.PLP.Chemscore.Internal.Correction>
1.2687

> <Gold.Rescore>
     Score         DG    S(hbond)    S(metal)    S(lipo)     H(rot)  DE(clash)    DE(int)     intcor
     12.45     -15.10       1.65        0.00     102.54       3.08       0.04       2.61       ----

> <Gold.Chemscore.Fitness>
12.4498

> <Gold.Chemscore.DG>
-15.0990

> <Gold.Chemscore.ZeroCoef>
-5.4800

> <Gold.Chemscore.Hbond>
1.6456

> <Gold.Chemscore.Metal>
0.0000

> <Gold.Chemscore.Lipo>
102.5376

> <Gold.Chemscore.Internal_Hbond>
0.0000

> <Gold.Chemscore.DEClash>
0.0434

> <Gold.Chemscore.DEInternal>
2.6058

> <Gold.Chemscore.Rot>
3.0758

> <Gold.Chemscore.Internal.Correction>
   9.000000E+99

> <Gold.Chemscore.Hbonds>
donor molecule, donor type, donor heavy atom, donor atom, acceptor molecule, acceptor atom, score
      L1  H    27    62       P1  8028  0.16
      P1  H  6931  6943       L1    21  0.55
      P1  H  6933  6945       L1     2  0.05
      P1  H  6934  6947       L1    21  0.29

> <Gold.Chemscore.Hbond.Weighted>
-5.4962

> <Gold.Chemscore.Metal.Weighted>
-0.0000

> <Gold.Chemscore.Lipo.Weighted>
-11.9969

> <Gold.Chemscore.Internal_Hbond.Weighted>
0.0000

> <Gold.Chemscore.DEClash.Weighted>
0.0434

> <Gold.Chemscore.DEInternal.Weighted>
2.6058

> <Gold.Chemscore.Rot.Weighted>
7.8741

> <Gold.Chemscore.Internal.Correction.Weighted>
   9.000000E+99

> <Gold.Protein.RotatedTorsions>
[ 6907 6896 6895 6894 ] final  -64.39 input  -60.11 | X-H torsion
[ 7974 7965 7964 7962 ] final   12.79 input  175.53 | X-H torsion
[ 8008 7997 7996 7995 ] final  -61.19 input   59.86 | X-H torsion
[ 10167 10162 10161 10158 ] final  -31.99 input  -65.29 | X-H torsion
[ 10718 10713 10712 10709 ] final  -35.14 input   66.30 | X-H torsion
[ 10763 10752 10751 10750 ] final   43.56 input  -60.55 | X-H torsion
[ 11005 11000 10999 10996 ] final  -58.78 input  -57.11 | X-H torsion

> <Gold.Protein.ActiveResidues>
 VAL166  LYS551  ARG553  GLY616  TRP617  ASP618  TYR619  PRO620  LYS621  CYS622 
 ASP623  PHE694  ASN695  SER759  ASP760  ASP761  ALA762  ILE779  LEU786  VAL792 
 PHE793  MET794  SER795  GLU796  ALA797  LYS798  CYS799  TRP800  GLU811  SER814 

> <Gold.Protein.RotatedAtoms>
  150.7588  134.6304  159.6183 H   0  0  0  0  0  0  0  0  0  0  0  0  # atno 6907 bound_to 6896
  152.3584  134.6905  160.0224 H   0  0  0  0  0  0  0  0  0  0  0  0  # atno 6908 bound_to 6896
  151.7303  133.3281  159.3375 H   0  0  0  0  0  0  0  0  0  0  0  0  # atno 6909 bound_to 6896
  146.2343  139.9284  142.8500 H   0  0  0  0  0  0  0  0  0  0  0  0  # atno 7974 bound_to 7965
  154.4435  140.1023  156.6392 H   0  0  0  0  0  0  0  0  0  0  0  0  # atno 8008 bound_to 7997
  155.5520  140.3486  155.4452 H   0  0  0  0  0  0  0  0  0  0  0  0  # atno 8009 bound_to 7997
  156.0522  140.1306  157.0026 H   0  0  0  0  0  0  0  0  0  0  0  0  # atno 8010 bound_to 7997
  140.7228  143.3729  151.1745 H   0  0  0  0  0  0  0  0  0  0  0  0  # atno 10167 bound_to 10162
  156.3422  130.4295  149.7777 H   0  0  0  0  0  0  0  0  0  0  0  0  # atno 10718 bound_to 10713
  152.9858  135.6098  154.3131 H   0  0  0  0  0  0  0  0  0  0  0  0  # atno 10763 bound_to 10752
  154.2845  135.2776  155.2684 H   0  0  0  0  0  0  0  0  0  0  0  0  # atno 10764 bound_to 10752
  154.5008  135.5867  153.6586 H   0  0  0  0  0  0  0  0  0  0  0  0  # atno 10765 bound_to 10752
  141.1221  133.6613  156.4973 H   0  0  0  0  0  0  0  0  0  0  0  0  # atno 11005 bound_to 11000
  145.2068  140.9878  143.4123 LP  0  0  0  0  0  0  0  0  0  0  0  0  # atno 17320 bound_to 7965
  144.9725  139.3865  143.6302 LP  0  0  0  0  0  0  0  0  0  0  0  0  # atno 17321 bound_to 7965
  139.7303  143.9083  152.3017 LP  0  0  0  0  0  0  0  0  0  0  0  0  # atno 17342 bound_to 10162
  139.8870  144.6987  150.8813 LP  0  0  0  0  0  0  0  0  0  0  0  0  # atno 17343 bound_to 10162
  156.5009  130.8128  151.3132 LP  0  0  0  0  0  0  0  0  0  0  0  0  # atno 17370 bound_to 10713
  157.7448  130.9945  150.2709 LP  0  0  0  0  0  0  0  0  0  0  0  0  # atno 17371 bound_to 10713
  140.4475  134.6959  157.5023 LP  0  0  0  0  0  0  0  0  0  0  0  0  # atno 17394 bound_to 11000
  140.0188  134.6579  155.9270 LP  0  0  0  0  0  0  0  0  0  0  0  0  # atno 17395 bound_to 11000

$$$$
