AV-unprocessed.smi:807|AV-procd|sdf|3803|dock9
  -GOLD-   22720 1243D 1   1.00000     0.00000
 Structure written by MMmdl.
 35 37  0  0  0  0  0  0  0  0  1 V2000
  145.7381  143.5643  156.9545 C   0  0  0  0  0  0  0  0  0  0  0  0
  147.0200  142.8813  156.8868 N   0  0  0  0  0  0  0  0  0  0  0  0
  147.3852  142.1587  155.7420 C   0  0  0  0  0  0  0  0  0  0  0  0
  146.5140  142.0341  154.7141 N   0  0  0  0  0  0  0  0  0  0  0  0
  146.9083  141.3363  153.6407 C   0  0  0  0  0  0  0  0  0  0  0  0
  148.0781  140.7171  153.4169 N   0  0  0  0  0  0  0  0  0  0  0  0
  148.9471  140.8333  154.4304 C   0  0  0  0  0  0  0  0  0  0  0  0
  150.2225  140.2964  154.4742 N   0  0  0  0  0  0  0  0  0  0  0  0
  150.6426  140.6950  155.6728 C   0  0  0  0  0  0  0  0  0  0  0  0
  149.7924  141.4295  156.4166 N   0  0  0  0  0  0  0  0  0  0  0  0
  150.0378  141.9620  157.7454 C   0  0  0  0  0  0  0  0  0  0  0  0
  151.3191  142.8193  157.8072 C   0  0  1  0  0  0  0  0  0  0  0  0
  151.1024  144.0897  157.2237 O   0  0  0  0  0  0  0  0  0  0  0  0
  151.8934  142.8978  159.2198 C   0  0  0  0  0  0  0  0  0  0  0  0
  151.9075  144.1552  159.8649 C   0  0  0  0  0  0  0  0  0  0  0  0
  152.4281  144.2925  161.1651 C   0  0  0  0  0  0  0  0  0  0  0  0
  152.9453  143.1705  161.8361 C   0  0  0  0  0  0  0  0  0  0  0  0
  152.9426  141.9142  161.2031 C   0  0  0  0  0  0  0  0  0  0  0  0
  152.4229  141.7688  159.9007 C   0  0  0  0  0  0  0  0  0  0  0  0
  152.4650  140.1948  159.1845 Cl  0  0  0  0  0  0  0  0  0  0  0  0
  148.6504  141.5492  155.6287 C   0  0  0  0  0  0  0  0  0  0  0  0
  145.6367  144.0709  157.9140 H   0  0  0  0  0  0  0  0  0  0  0  0
  144.9163  142.8544  156.8546 H   0  0  0  0  0  0  0  0  0  0  0  0
  145.6549  144.3107  156.1637 H   0  0  0  0  0  0  0  0  0  0  0  0
  147.6440  142.9241  157.6795 H   0  0  0  0  0  0  0  0  0  0  0  0
  146.1832  141.2618  152.8439 H   0  0  0  0  0  0  0  0  0  0  0  0
  151.6267  140.4343  156.0342 H   0  0  0  0  0  0  0  0  0  0  0  0
  149.1655  142.5379  158.0537 H   0  0  0  0  0  0  0  0  0  0  0  0
  150.1092  141.1240  158.4393 H   0  0  0  0  0  0  0  0  0  0  0  0
  152.0688  142.3435  157.1742 H   0  0  0  0  0  0  0  0  0  0  0  0
  150.3774  144.0234  156.6212 H   0  0  0  0  0  0  0  0  0  0  0  0
  151.5170  145.0284  159.3627 H   0  0  0  0  0  0  0  0  0  0  0  0
  152.4311  145.2591  161.6471 H   0  0  0  0  0  0  0  0  0  0  0  0
  153.3456  143.2731  162.8340 H   0  0  0  0  0  0  0  0  0  0  0  0
  153.3440  141.0555  161.7209 H   0  0  0  0  0  0  0  0  0  0  0  0
  1  2  1  0  0  0  0
  1 22  1  0  0  0  0
  1 23  1  0  0  0  0
  1 24  1  0  0  0  0
  2  3  1  0  0  0  0
  2 25  1  0  0  0  0
  3 21  1  0  0  0  0
  3  4  2  0  0  0  0
  4  5  1  0  0  0  0
  5  6  2  0  0  0  0
  5 26  1  0  0  0  0
  6  7  1  0  0  0  0
  7 21  2  0  0  0  0
  7  8  1  0  0  0  0
  8  9  2  0  0  0  0
  9 10  1  0  0  0  0
  9 27  1  0  0  0  0
 10 11  1  0  0  0  0
 10 21  1  0  0  0  0
 11 12  1  0  0  0  0
 11 28  1  0  0  0  0
 11 29  1  0  0  0  0
 12 13  1  0  0  0  0
 12 14  1  0  0  0  0
 12 30  1  0  0  0  0
 13 31  1  0  0  0  0
 14 19  1  0  0  0  0
 14 15  2  0  0  0  0
 15 16  1  0  0  0  0
 15 32  1  0  0  0  0
 16 17  2  0  0  0  0
 16 33  1  0  0  0  0
 17 18  1  0  0  0  0
 17 34  1  0  0  0  0
 18 19  2  0  0  0  0
 18 35  1  0  0  0  0
 19 20  1  0  0  0  0
M  END
> <s_m_source_file>
AV-unprocessed.smi

> <i_m_source_file_index>
807

> <i_lp_mmshare_version>
43012

> <i_f3d_flags>
0

> <s_epik_input>
bjFbY0hdbmMoW05IXVtDSDNdKWMoYzEyKW4oW2NIXW4yKVtDSDJdW0NASF0oW09IXSljM1tjSF1bY0hdW2NIXVtjSF1jM0Ns

> <s_epik_cmdline>
J2VwaWtfcHl0aG9uJywgJy1waCcsICc3LjAnLCAnLXRuJywgJzgnLCAnLW1hJywgJzIwMCcsICctbWV0YWxfYmluZGluZycsICctaW1hZScsICc8aW5maWxlLm1hZT4nLCAnLW9tYWUnLCAnPG91dGZpbGUubWFlPic=

> <r_lp_tautomer_probability>
1

> <r_epik_Ionization_Penalty>
0.00695285

> <r_epik_Ionization_Penalty_Charging>
0

> <r_epik_Ionization_Penalty_Neutral>
0.00695285

> <r_epik_State_Penalty>
-0

> <r_epik_Charging_Adjusted_Penalty>
0

> <i_epik_Tot_Q>
0

> <i_epik_Tot_abs_Q>
0

> <r_epik_Metal_State_Penalty>
-0

> <b_epik_Metal_Only>
0

> <s_lp_Force_Field>
OPLS_2005

> <r_lp_Energy>
12.6911

> <b_lp_Chiralities_Consistent>
1

> <s_lp_Variant>
AV-unprocessed.smi:807-2

> <Gold.Version>
5.8.1

> <Gold.Id.Protein>
6NUR|6NUR_protein|mol2

> <Gold.PLP.Fitness>
50.6580

> <Gold.PLP.PLP>
-42.3928

> <Gold.PLP.part.hbond>
-2.4565

> <Gold.PLP.part.metal>
0.0000

> <Gold.PLP.part.buried>
-7.4929

> <Gold.PLP.part.nonpolar>
-35.4196

> <Gold.PLP.part.repulsive>
2.0786

> <Gold.PLP.ligand.clash>
0.0000

> <Gold.PLP.ligand.torsion>
0.3719

> <Gold.PLP.Chemscore.Hbond>
1.9840

> <Gold.PLP.Chemscore.CHOScore>
1.0000

> <Gold.PLP.Chemscore.Metal>
0.0000

> <Gold.Chemscore.Hbonds>
donor molecule, donor type, donor heavy atom, donor atom, acceptor molecule, acceptor atom, score
      L1  H    13    31       P1  8028  1.00
      P1  H  7989  7998       L1     8  0.95
      L1  C     5    26       P1 10175  0.58

> <Gold.PLP.Chemscore.Internal.Correction>
0.0570

> <Gold.Rescore>
     Score         DG    S(hbond)    S(metal)    S(lipo)     H(rot)  DE(clash)    DE(int)     intcor
     15.57     -16.52       1.77        0.00      94.55       2.31       0.61       0.34       ----

> <Gold.Chemscore.Fitness>
15.5707

> <Gold.Chemscore.DG>
-16.5221

> <Gold.Chemscore.ZeroCoef>
-5.4800

> <Gold.Chemscore.Hbond>
1.7658

> <Gold.Chemscore.Metal>
0.0000

> <Gold.Chemscore.Lipo>
94.5452

> <Gold.Chemscore.Internal_Hbond>
0.0000

> <Gold.Chemscore.DEClash>
0.6118

> <Gold.Chemscore.DEInternal>
0.3397

> <Gold.Chemscore.Rot>
2.3115

> <Gold.Chemscore.Internal.Correction>
   9.000000E+99

> <Gold.Chemscore.Hbonds>
donor molecule, donor type, donor heavy atom, donor atom, acceptor molecule, acceptor atom, score
      L1  H    13    31       P1  8028  0.96
      P1  H  7989  7998       L1     8  0.20

> <Gold.Chemscore.Hbond.Weighted>
-5.8977

> <Gold.Chemscore.Metal.Weighted>
-0.0000

> <Gold.Chemscore.Lipo.Weighted>
-11.0618

> <Gold.Chemscore.Internal_Hbond.Weighted>
0.0000

> <Gold.Chemscore.DEClash.Weighted>
0.6118

> <Gold.Chemscore.DEInternal.Weighted>
0.3397

> <Gold.Chemscore.Rot.Weighted>
5.9174

> <Gold.Chemscore.Internal.Correction.Weighted>
   9.000000E+99

> <Gold.Protein.RotatedTorsions>
[ 6907 6896 6895 6894 ] final   58.85 input  -60.11 | X-H torsion
[ 7974 7965 7964 7962 ] final   42.27 input  175.53 | X-H torsion
[ 8008 7997 7996 7995 ] final  -71.97 input   59.86 | X-H torsion
[ 10167 10162 10161 10158 ] final   54.45 input  -65.29 | X-H torsion
[ 10718 10713 10712 10709 ] final  117.98 input   66.30 | X-H torsion
[ 10763 10752 10751 10750 ] final   53.46 input  -60.55 | X-H torsion
[ 11005 11000 10999 10996 ] final -156.66 input  -57.11 | X-H torsion

> <Gold.Protein.ActiveResidues>
 VAL166  LYS551  ARG553  GLY616  TRP617  ASP618  TYR619  PRO620  LYS621  CYS622 
 ASP623  PHE694  ASN695  SER759  ASP760  ASP761  ALA762  ILE779  LEU786  VAL792 
 PHE793  MET794  SER795  GLU796  ALA797  LYS798  CYS799  TRP800  GLU811  SER814 

> <Gold.Protein.RotatedAtoms>
  152.3862  134.6514  160.0124 H   0  0  0  0  0  0  0  0  0  0  0  0  # atno 6907 bound_to 6896
  151.6762  133.3307  159.3216 H   0  0  0  0  0  0  0  0  0  0  0  0  # atno 6908 bound_to 6896
  150.7787  134.6756  159.6460 H   0  0  0  0  0  0  0  0  0  0  0  0  # atno 6909 bound_to 6896
  146.0754  139.5320  142.9571 H   0  0  0  0  0  0  0  0  0  0  0  0  # atno 7974 bound_to 7965
  154.5129  140.0806  156.8025 H   0  0  0  0  0  0  0  0  0  0  0  0  # atno 8008 bound_to 7997
  155.3744  140.3424  155.4226 H   0  0  0  0  0  0  0  0  0  0  0  0  # atno 8009 bound_to 7997
  156.1594  140.1584  156.8624 H   0  0  0  0  0  0  0  0  0  0  0  0  # atno 8010 bound_to 7997
  140.2300  144.3697  150.6418 H   0  0  0  0  0  0  0  0  0  0  0  0  # atno 10167 bound_to 10162
  157.6061  131.1043  150.7691 H   0  0  0  0  0  0  0  0  0  0  0  0  # atno 10718 bound_to 10713
  152.9795  135.5778  154.4744 H   0  0  0  0  0  0  0  0  0  0  0  0  # atno 10763 bound_to 10752
  154.4302  135.2773  155.1919 H   0  0  0  0  0  0  0  0  0  0  0  0  # atno 10764 bound_to 10752
  154.3631  135.6184  153.5754 H   0  0  0  0  0  0  0  0  0  0  0  0  # atno 10765 bound_to 10752
  140.6731  134.4225  157.5230 H   0  0  0  0  0  0  0  0  0  0  0  0  # atno 11005 bound_to 11000
  145.6315  141.0303  143.1861 LP  0  0  0  0  0  0  0  0  0  0  0  0  # atno 17320 bound_to 7965
  144.7258  139.7880  143.7365 LP  0  0  0  0  0  0  0  0  0  0  0  0  # atno 17321 bound_to 7965
  140.6192  143.2175  151.6729 LP  0  0  0  0  0  0  0  0  0  0  0  0  # atno 17342 bound_to 10162
  139.5113  144.3513  152.0649 LP  0  0  0  0  0  0  0  0  0  0  0  0  # atno 17343 bound_to 10162
  156.8079  130.4942  149.5360 LP  0  0  0  0  0  0  0  0  0  0  0  0  # atno 17370 bound_to 10713
  156.1148  130.6067  151.0103 LP  0  0  0  0  0  0  0  0  0  0  0  0  # atno 17371 bound_to 10713
  139.8975  134.8635  156.2041 LP  0  0  0  0  0  0  0  0  0  0  0  0  # atno 17394 bound_to 11000
  141.0376  133.6955  156.1540 LP  0  0  0  0  0  0  0  0  0  0  0  0  # atno 17395 bound_to 11000

$$$$
