AV-unprocessed.smi:2439|AV-procd|sdf|9604|dock6
  -GOLD-   2272013233D 1   1.00000     0.00000
 Structure written by MMmdl.
 41 43  0  0  0  0  0  0  0  0  2 V2000
  153.2542  142.7408  162.7975 N   0  0  0  0  0  0  0  0  0  0  0  0
  152.8609  143.0768  161.7626 C   0  0  0  0  0  0  0  0  0  0  0  0
  152.3661  143.4985  160.4577 C   0  0  0  0  0  0  0  0  0  0  0  0
  151.7736  144.7724  160.3299 C   0  0  0  0  0  0  0  0  0  0  0  0
  151.2981  145.1842  159.0716 C   0  0  0  0  0  0  0  0  0  0  0  0
  151.4339  144.3004  157.9858 C   0  0  0  0  0  0  0  0  0  0  0  0
  151.9985  143.0792  158.0936 N   0  0  0  0  0  0  0  0  0  0  0  0
  152.4600  142.6759  159.3030 C   0  0  0  0  0  0  0  0  0  0  0  0
  153.0445  141.3994  159.3821 N   0  0  0  0  0  0  0  0  0  0  0  0
  152.6399  140.3296  158.4811 C   0  0  0  0  0  0  0  0  0  0  0  0
  151.1980  139.8651  158.7648 C   0  0  1  0  0  0  0  0  0  0  0  0
  150.1361  140.7496  158.0847 C   0  0  0  0  0  0  0  0  0  0  0  0
  150.1202  140.5416  156.6175 N   0  3  2  0  0  0  0  0  0  0  0  0
  149.1308  141.4169  155.9385 C   0  0  0  0  0  0  0  0  0  0  0  0
  149.1932  141.2473  154.4125 C   0  0  0  0  0  0  0  0  0  0  0  0
  148.9871  139.7794  154.0193 C   0  0  0  0  0  0  0  0  0  0  0  0
  150.0047  138.8940  154.7503 C   0  0  0  0  0  0  0  0  0  0  0  0
  149.9406  139.1041  156.2769 C   0  0  1  0  0  0  0  0  0  0  0  0
  151.0049  138.2537  156.9964 C   0  0  0  0  0  0  0  0  0  0  0  0
  150.9790  138.5025  158.3980 O   0  0  0  0  0  0  0  0  0  0  0  0
  151.6830  145.4308  161.1822 H   0  0  0  0  0  0  0  0  0  0  0  0
  150.8406  146.1540  158.9424 H   0  0  0  0  0  0  0  0  0  0  0  0
  151.0814  144.5809  157.0043 H   0  0  0  0  0  0  0  0  0  0  0  0
  153.8401  141.2516  159.9870 H   0  0  0  0  0  0  0  0  0  0  0  0
  152.7043  140.7035  157.4586 H   0  0  0  0  0  0  0  0  0  0  0  0
  153.3402  139.4975  158.5513 H   0  0  0  0  0  0  0  0  0  0  0  0
  151.0387  139.9287  159.8421 H   0  0  0  0  0  0  0  0  0  0  0  0
  149.1506  140.5116  158.4887 H   0  0  0  0  0  0  0  0  0  0  0  0
  150.3233  141.8003  158.3097 H   0  0  0  0  0  0  0  0  0  0  0  0
  148.1278  141.1835  156.2993 H   0  0  0  0  0  0  0  0  0  0  0  0
  149.3266  142.4582  156.1974 H   0  0  0  0  0  0  0  0  0  0  0  0
  148.4353  141.8703  153.9366 H   0  0  0  0  0  0  0  0  0  0  0  0
  150.1583  141.5959  154.0424 H   0  0  0  0  0  0  0  0  0  0  0  0
  147.9738  139.4667  154.2748 H   0  0  0  0  0  0  0  0  0  0  0  0
  149.0896  139.6600  152.9403 H   0  0  0  0  0  0  0  0  0  0  0  0
  149.8205  137.8466  154.5084 H   0  0  0  0  0  0  0  0  0  0  0  0
  151.0080  139.1222  154.3870 H   0  0  0  0  0  0  0  0  0  0  0  0
  148.9557  138.7943  156.6315 H   0  0  0  0  0  0  0  0  0  0  0  0
  150.8051  137.1942  156.8348 H   0  0  0  0  0  0  0  0  0  0  0  0
  152.0003  138.4405  156.5926 H   0  0  0  0  0  0  0  0  0  0  0  0
  151.0313  140.8108  156.2740 H   0  0  0  0  0  0  0  0  0  0  0  0
  1  2  3  0  0  0  0
  2  3  1  0  0  0  0
  3  8  1  0  0  0  0
  3  4  2  0  0  0  0
  4  5  1  0  0  0  0
  4 21  1  0  0  0  0
  5  6  2  0  0  0  0
  5 22  1  0  0  0  0
  6  7  1  0  0  0  0
  6 23  1  0  0  0  0
  7  8  2  0  0  0  0
  8  9  1  0  0  0  0
  9 10  1  0  0  0  0
  9 24  1  0  0  0  0
 10 11  1  0  0  0  0
 10 25  1  0  0  0  0
 10 26  1  0  0  0  0
 11 20  1  0  0  0  0
 11 12  1  0  0  0  0
 11 27  1  0  0  0  0
 12 13  1  0  0  0  0
 12 28  1  0  0  0  0
 12 29  1  0  0  0  0
 13 18  1  0  0  0  0
 13 14  1  0  0  0  0
 13 41  1  0  0  0  0
 14 15  1  0  0  0  0
 14 30  1  0  0  0  0
 14 31  1  0  0  0  0
 15 16  1  0  0  0  0
 15 32  1  0  0  0  0
 15 33  1  0  0  0  0
 16 17  1  0  0  0  0
 16 34  1  0  0  0  0
 16 35  1  0  0  0  0
 17 18  1  0  0  0  0
 17 36  1  0  0  0  0
 17 37  1  0  0  0  0
 18 19  1  0  0  0  0
 18 38  1  0  0  0  0
 19 20  1  0  0  0  0
 19 39  1  0  0  0  0
 19 40  1  0  0  0  0
M  CHG  1  13   1
M  END
> <s_m_source_file>
AV-unprocessed.smi

> <i_m_source_file_index>
2439

> <i_lp_mmshare_version>
43012

> <i_f3d_flags>
0

> <s_epik_input>
TiNDYzFbY0hdW2NIXVtjSF1uYzFbTkhdW0NIMl1bQ0BIXShbQ0gyXTIpT1tDSDJdW0NAQEhdKE4yMylbQ0gyXVtDSDJdW0NIMl1bQ0gyXTM=

> <s_epik_cmdline>
J2VwaWtfcHl0aG9uJywgJy1waCcsICc3LjAnLCAnLXRuJywgJzgnLCAnLW1hJywgJzIwMCcsICctbWV0YWxfYmluZGluZycsICctaW1hZScsICc8aW5maWxlLm1hZT4nLCAnLW9tYWUnLCAnPG91dGZpbGUubWFlPic=

> <r_epik_Ionization_Penalty>
0.0803594

> <r_epik_Ionization_Penalty_Charging>
0.0803403

> <r_epik_Ionization_Penalty_Neutral>
1.90988e-05

> <r_epik_State_Penalty>
0.0711481

> <r_epik_Charging_Adjusted_Penalty>
0.151488

> <i_epik_Tot_Q>
1

> <i_epik_Tot_abs_Q>
1

> <r_epik_Metal_State_Penalty>
0.0711482

> <b_epik_Metal_Only>
0

> <s_lp_Force_Field>
OPLS_2005

> <r_lp_Energy>
31.556

> <b_lp_Chiralities_Consistent>
1

> <s_lp_Variant>
AV-unprocessed.smi:2439-2

> <Gold.Version>
5.8.1

> <Gold.Id.Protein>
6NUR|6NUR_protein|mol2

> <Gold.PLP.Fitness>
40.3329

> <Gold.PLP.PLP>
-38.3187

> <Gold.PLP.part.hbond>
0.0000

> <Gold.PLP.part.metal>
0.0000

> <Gold.PLP.part.buried>
-3.6271

> <Gold.PLP.part.nonpolar>
-34.4691

> <Gold.PLP.part.repulsive>
0.2489

> <Gold.PLP.ligand.clash>
0.0000

> <Gold.PLP.ligand.torsion>
0.4911

> <Gold.PLP.Chemscore.Hbond>
0.0000

> <Gold.PLP.Chemscore.CHOScore>
0.9965

> <Gold.PLP.Chemscore.Metal>
0.0000

> <Gold.Chemscore.Hbonds>
donor molecule, donor type, donor heavy atom, donor atom, acceptor molecule, acceptor atom, score
      L1  C     6    23       P1  8028  0.97

> <Gold.PLP.Chemscore.Internal.Correction>
0.0068

> <Gold.Rescore>
     Score         DG    S(hbond)    S(metal)    S(lipo)     H(rot)  DE(clash)    DE(int)     intcor
     13.03     -13.96       0.00        0.00     100.21       1.27       0.32       0.61       ----

> <Gold.Chemscore.Fitness>
13.0314

> <Gold.Chemscore.DG>
-13.9639

> <Gold.Chemscore.ZeroCoef>
-5.4800

> <Gold.Chemscore.Hbond>
0.0000

> <Gold.Chemscore.Metal>
0.0000

> <Gold.Chemscore.Lipo>
100.2104

> <Gold.Chemscore.Internal_Hbond>
0.0000

> <Gold.Chemscore.DEClash>
0.3180

> <Gold.Chemscore.DEInternal>
0.6144

> <Gold.Chemscore.Rot>
1.2659

> <Gold.Chemscore.Internal.Correction>
   9.000000E+99

> <Gold.Chemscore.Hbond.Weighted>
-0.0000

> <Gold.Chemscore.Metal.Weighted>
-0.0000

> <Gold.Chemscore.Lipo.Weighted>
-11.7246

> <Gold.Chemscore.Internal_Hbond.Weighted>
0.0000

> <Gold.Chemscore.DEClash.Weighted>
0.3180

> <Gold.Chemscore.DEInternal.Weighted>
0.6144

> <Gold.Chemscore.Rot.Weighted>
3.2408

> <Gold.Chemscore.Internal.Correction.Weighted>
   9.000000E+99

> <Gold.Protein.RotatedTorsions>
[ 6907 6896 6895 6894 ] final    7.54 input  -60.11 | X-H torsion
[ 7974 7965 7964 7962 ] final -168.34 input  175.53 | X-H torsion
[ 8008 7997 7996 7995 ] final -107.86 input   59.86 | X-H torsion
[ 10167 10162 10161 10158 ] final  140.94 input  -65.29 | X-H torsion
[ 10718 10713 10712 10709 ] final  -65.49 input   66.30 | X-H torsion
[ 10763 10752 10751 10750 ] final  -81.78 input  -60.55 | X-H torsion
[ 11005 11000 10999 10996 ] final  145.85 input  -57.11 | X-H torsion

> <Gold.Protein.ActiveResidues>
 VAL166  LYS551  ARG553  GLY616  TRP617  ASP618  TYR619  PRO620  LYS621  CYS622 
 ASP623  PHE694  ASN695  SER759  ASP760  ASP761  ALA762  ILE779  LEU786  VAL792 
 PHE793  MET794  SER795  GLU796  ALA797  LYS798  CYS799  TRP800  GLU811  SER814 

> <Gold.Protein.RotatedAtoms>
  151.6914  135.0945  160.0234 H   0  0  0  0  0  0  0  0  0  0  0  0  # atno 6907 bound_to 6896
  152.3776  133.6498  159.6144 H   0  0  0  0  0  0  0  0  0  0  0  0  # atno 6908 bound_to 6896
  150.7721  133.9084  159.3403 H   0  0  0  0  0  0  0  0  0  0  0  0  # atno 6909 bound_to 6896
  144.7205  140.2384  143.6295 H   0  0  0  0  0  0  0  0  0  0  0  0  # atno 7974 bound_to 7965
  154.9356  140.0404  157.2070 H   0  0  0  0  0  0  0  0  0  0  0  0  # atno 8008 bound_to 7997
  154.8118  140.2869  155.5826 H   0  0  0  0  0  0  0  0  0  0  0  0  # atno 8009 bound_to 7997
  156.2972  140.2535  156.3008 H   0  0  0  0  0  0  0  0  0  0  0  0  # atno 8010 bound_to 7997
  139.5034  144.6203  151.6067 H   0  0  0  0  0  0  0  0  0  0  0  0  # atno 10167 bound_to 10162
  156.0667  130.4248  150.1571 H   0  0  0  0  0  0  0  0  0  0  0  0  # atno 10718 bound_to 10713
  154.5677  135.5614  153.7066 H   0  0  0  0  0  0  0  0  0  0  0  0  # atno 10763 bound_to 10752
  153.0038  135.6289  154.2157 H   0  0  0  0  0  0  0  0  0  0  0  0  # atno 10764 bound_to 10752
  154.2096  135.2874  155.2942 H   0  0  0  0  0  0  0  0  0  0  0  0  # atno 10765 bound_to 10752
  140.0745  134.9132  157.1400 H   0  0  0  0  0  0  0  0  0  0  0  0  # atno 11005 bound_to 11000
  145.8343  139.2100  143.1864 LP  0  0  0  0  0  0  0  0  0  0  0  0  # atno 17320 bound_to 7965
  146.0403  140.8172  142.9832 LP  0  0  0  0  0  0  0  0  0  0  0  0  # atno 17321 bound_to 7965
  140.5903  143.9791  150.6320 LP  0  0  0  0  0  0  0  0  0  0  0  0  # atno 17342 bound_to 10162
  140.2969  143.3286  152.1009 LP  0  0  0  0  0  0  0  0  0  0  0  0  # atno 17343 bound_to 10162
  156.9630  130.9811  151.3475 LP  0  0  0  0  0  0  0  0  0  0  0  0  # atno 17370 bound_to 10713
  157.5712  130.8312  149.8395 LP  0  0  0  0  0  0  0  0  0  0  0  0  # atno 17371 bound_to 10713
  140.3578  134.2528  155.7190 LP  0  0  0  0  0  0  0  0  0  0  0  0  # atno 17394 bound_to 11000
  141.2024  133.7937  157.0391 LP  0  0  0  0  0  0  0  0  0  0  0  0  # atno 17395 bound_to 11000

$$$$
