AV-unprocessed.smi:3347|AV-procd|sdf|12914|dock9
  -GOLD-   2272019333D 1   1.00000     0.00000
 Structure written by MMmdl.
 40 42  0  0  0  0  0  0  0  0  2 V2000
  149.6223  135.4774  156.4666 O   0  0  0  0  0  0  0  0  0  0  0  0
  149.4879  135.6152  155.2511 C   0  0  0  0  0  0  0  0  0  0  0  0
  148.9881  134.6620  154.4517 N   0  0  0  0  0  0  0  0  0  0  0  0
  148.5642  133.3324  154.8809 C   0  0  0  0  0  0  0  0  0  0  0  0
  148.1694  132.4346  153.6921 C   0  0  1  0  0  0  0  0  0  0  0  0
  147.0813  131.4161  154.0262 C   0  0  0  0  0  0  0  0  0  0  0  0
  146.4849  131.0391  152.6649 C   0  0  0  0  0  0  0  0  0  0  0  0
  146.8390  132.1296  151.7266 N   0  3  1  0  0  0  0  0  0  0  0  0
  145.6989  132.6467  150.9400 C   0  0  0  0  0  0  0  0  0  0  0  0
  144.7140  131.5780  150.5305 C   0  0  0  0  0  0  0  0  0  0  0  0
  145.6759  132.1534  149.5132 C   0  0  0  0  0  0  0  0  0  0  0  0
  147.5542  133.1670  152.4968 C   0  0  0  0  0  0  0  0  0  0  0  0
  149.7903  136.7235  154.5535 N   0  0  0  0  0  0  0  0  0  0  0  0
  150.3313  137.9511  155.0234 C   0  0  0  0  0  0  0  0  0  0  0  0
  151.1061  138.0880  156.2012 C   0  0  0  0  0  0  0  0  0  0  0  0
  151.5963  139.3618  156.5477 C   0  0  0  0  0  0  0  0  0  0  0  0
  151.3023  140.4493  155.7028 C   0  0  0  0  0  0  0  0  0  0  0  0
  150.5764  140.3316  154.5713 N   0  0  0  0  0  0  0  0  0  0  0  0
  150.1102  139.1075  154.2451 C   0  0  0  0  0  0  0  0  0  0  0  0
  148.9100  134.8654  153.4658 H   0  0  0  0  0  0  0  0  0  0  0  0
  149.4005  132.8799  155.4143 H   0  0  0  0  0  0  0  0  0  0  0  0
  147.7475  133.4024  155.6016 H   0  0  0  0  0  0  0  0  0  0  0  0
  149.0503  131.8894  153.3483 H   0  0  0  0  0  0  0  0  0  0  0  0
  147.4645  130.5522  154.5703 H   0  0  0  0  0  0  0  0  0  0  0  0
  146.3110  131.8818  154.6430 H   0  0  0  0  0  0  0  0  0  0  0  0
  146.9243  130.1127  152.2942 H   0  0  0  0  0  0  0  0  0  0  0  0
  145.4070  130.8864  152.7382 H   0  0  0  0  0  0  0  0  0  0  0  0
  145.3560  133.6510  151.1836 H   0  0  0  0  0  0  0  0  0  0  0  0
  144.8899  130.5584  150.8687 H   0  0  0  0  0  0  0  0  0  0  0  0
  143.6681  131.8653  150.4451 H   0  0  0  0  0  0  0  0  0  0  0  0
  145.2625  132.8192  148.7583 H   0  0  0  0  0  0  0  0  0  0  0  0
  146.4912  131.5162  149.1749 H   0  0  0  0  0  0  0  0  0  0  0  0
  146.8427  133.9168  152.8480 H   0  0  0  0  0  0  0  0  0  0  0  0
  148.2998  133.6720  151.8819 H   0  0  0  0  0  0  0  0  0  0  0  0
  149.5575  136.7052  153.5714 H   0  0  0  0  0  0  0  0  0  0  0  0
  151.3456  137.2496  156.8359 H   0  0  0  0  0  0  0  0  0  0  0  0
  152.1897  139.5009  157.4392 H   0  0  0  0  0  0  0  0  0  0  0  0
  151.6644  141.4388  155.9396 H   0  0  0  0  0  0  0  0  0  0  0  0
  149.5350  139.0511  153.3323 H   0  0  0  0  0  0  0  0  0  0  0  0
  147.5069  131.7405  151.0763 H   0  0  0  0  0  0  0  0  0  0  0  0
  1  2  2  0  0  0  0
  2  3  1  0  0  0  0
  2 13  1  0  0  0  0
  3  4  1  0  0  0  0
  3 20  1  0  0  0  0
  4  5  1  0  0  0  0
  4 21  1  0  0  0  0
  4 22  1  0  0  0  0
  5 12  1  0  0  0  0
  5  6  1  0  0  0  0
  5 23  1  0  0  0  0
  6  7  1  0  0  0  0
  6 24  1  0  0  0  0
  6 25  1  0  0  0  0
  7  8  1  0  0  0  0
  7 26  1  0  0  0  0
  7 27  1  0  0  0  0
  8  9  1  0  0  0  0
  8 12  1  0  0  0  0
  8 40  1  0  0  0  0
  9 11  1  0  0  0  0
  9 10  1  0  0  0  0
  9 28  1  0  0  0  0
 10 11  1  0  0  0  0
 10 29  1  0  0  0  0
 10 30  1  0  0  0  0
 11 31  1  0  0  0  0
 11 32  1  0  0  0  0
 12 33  1  0  0  0  0
 12 34  1  0  0  0  0
 13 14  1  0  0  0  0
 13 35  1  0  0  0  0
 14 19  1  0  0  0  0
 14 15  2  0  0  0  0
 15 16  1  0  0  0  0
 15 36  1  0  0  0  0
 16 17  2  0  0  0  0
 16 37  1  0  0  0  0
 17 18  1  0  0  0  0
 17 38  1  0  0  0  0
 18 19  2  0  0  0  0
 19 39  1  0  0  0  0
M  CHG  1   8   1
M  END
> <s_m_source_file>
AV-unprocessed.smi

> <i_m_source_file_index>
3347

> <i_lp_mmshare_version>
43012

> <i_f3d_flags>
0

> <s_epik_input>
W2NIXTFuW2NIXVtjSF1bY0hdYzFbTkhdQyg9TylbTkhdW0NIMl1bQ0BASF0yW0NIMl1bQ0gyXU4oW0NIMl0yKVtDSF0zW0NIMl1bQ0gyXTM=

> <s_epik_cmdline>
J2VwaWtfcHl0aG9uJywgJy1waCcsICc3LjAnLCAnLXRuJywgJzgnLCAnLW1hJywgJzIwMCcsICctbWV0YWxfYmluZGluZycsICctaW1hZScsICc8aW5maWxlLm1hZT4nLCAnLW9tYWUnLCAnPG91dGZpbGUubWFlPic=

> <r_epik_Ionization_Penalty>
0.00442629

> <r_epik_Ionization_Penalty_Charging>
0.000203384

> <r_epik_Ionization_Penalty_Neutral>
0.00422291

> <r_epik_State_Penalty>
0.00301008

> <r_epik_Charging_Adjusted_Penalty>
0.00321347

> <i_epik_Tot_Q>
1

> <i_epik_Tot_abs_Q>
1

> <r_epik_Metal_State_Penalty>
-0

> <b_epik_Metal_Only>
0

> <s_lp_Force_Field>
OPLS_2005

> <r_lp_Energy>
39.1383

> <b_lp_Chiralities_Consistent>
1

> <s_lp_Variant>
AV-unprocessed.smi:3347-4

> <Gold.Version>
5.8.1

> <Gold.Id.Protein>
6NUR|6NUR_protein|mol2

> <Gold.PLP.Fitness>
50.9748

> <Gold.PLP.PLP>
-38.4872

> <Gold.PLP.part.hbond>
-4.6648

> <Gold.PLP.part.metal>
0.0000

> <Gold.PLP.part.buried>
-3.7762

> <Gold.PLP.part.nonpolar>
-30.4223

> <Gold.PLP.part.repulsive>
0.2065

> <Gold.PLP.ligand.clash>
0.0000

> <Gold.PLP.ligand.torsion>
1.3515

> <Gold.PLP.Chemscore.Hbond>
3.6420

> <Gold.PLP.Chemscore.CHOScore>
1.0000

> <Gold.PLP.Chemscore.Metal>
0.0000

> <Gold.Chemscore.Hbonds>
donor molecule, donor type, donor heavy atom, donor atom, acceptor molecule, acceptor atom, score
      L1  H     3    20       P1  7948  0.89
      L1  H     8    40       P1 10747  1.00
      L1  H    13    35       P1  7948  1.00
      P1  H  7989  7998       L1    18  1.00
      L1  C    19    39       P1  7957  1.00

> <Gold.PLP.Chemscore.Internal.Correction>
1.2646

> <Gold.Rescore>
     Score         DG    S(hbond)    S(metal)    S(lipo)     H(rot)  DE(clash)    DE(int)     intcor
     20.46     -23.12       3.07        0.00      94.11       1.42       0.03       2.63       ----

> <Gold.Chemscore.Fitness>
20.4645

> <Gold.Chemscore.DG>
-23.1173

> <Gold.Chemscore.ZeroCoef>
-5.4800

> <Gold.Chemscore.Hbond>
3.0740

> <Gold.Chemscore.Metal>
0.0000

> <Gold.Chemscore.Lipo>
94.1053

> <Gold.Chemscore.Internal_Hbond>
0.0000

> <Gold.Chemscore.DEClash>
0.0256

> <Gold.Chemscore.DEInternal>
2.6273

> <Gold.Chemscore.Rot>
1.4219

> <Gold.Chemscore.Internal.Correction>
   9.000000E+99

> <Gold.Chemscore.Hbonds>
donor molecule, donor type, donor heavy atom, donor atom, acceptor molecule, acceptor atom, score
      L1  H     3    20       P1  7948  0.29
      L1  H     8    40       P1 10747  1.00
      L1  H    13    35       P1  7948  0.74
      P1  H  7989  7998       L1    18  0.24

> <Gold.Chemscore.Hbond.Weighted>
-10.2671

> <Gold.Chemscore.Metal.Weighted>
-0.0000

> <Gold.Chemscore.Lipo.Weighted>
-11.0103

> <Gold.Chemscore.Internal_Hbond.Weighted>
0.0000

> <Gold.Chemscore.DEClash.Weighted>
0.0256

> <Gold.Chemscore.DEInternal.Weighted>
2.6273

> <Gold.Chemscore.Rot.Weighted>
3.6401

> <Gold.Chemscore.Internal.Correction.Weighted>
   9.000000E+99

> <Gold.Protein.RotatedTorsions>
[ 6907 6896 6895 6894 ] final   -4.58 input  -60.11 | X-H torsion
[ 7974 7965 7964 7962 ] final  -29.69 input  175.53 | X-H torsion
[ 8008 7997 7996 7995 ] final  159.84 input   59.86 | X-H torsion
[ 10167 10162 10161 10158 ] final  102.71 input  -65.29 | X-H torsion
[ 10718 10713 10712 10709 ] final -102.99 input   66.30 | X-H torsion
[ 10763 10752 10751 10750 ] final -140.89 input  -60.55 | X-H torsion
[ 11005 11000 10999 10996 ] final  175.93 input  -57.11 | X-H torsion

> <Gold.Protein.ActiveResidues>
 VAL166  LYS551  ARG553  GLY616  TRP617  ASP618  TYR619  PRO620  LYS621  CYS622 
 ASP623  PHE694  ASN695  SER759  ASP760  ASP761  ALA762  ILE779  LEU786  VAL792 
 PHE793  MET794  SER795  GLU796  ALA797  LYS798  CYS799  TRP800  GLU811  SER814 

> <Gold.Protein.RotatedAtoms>
  151.4954  135.1059  159.9814 H   0  0  0  0  0  0  0  0  0  0  0  0  # atno 6907 bound_to 6896
  152.4724  133.8055  159.6986 H   0  0  0  0  0  0  0  0  0  0  0  0  # atno 6908 bound_to 6896
  150.8741  133.7402  159.2978 H   0  0  0  0  0  0  0  0  0  0  0  0  # atno 6909 bound_to 6896
  146.1198  140.5445  142.8740 H   0  0  0  0  0  0  0  0  0  0  0  0  # atno 7974 bound_to 7965
  156.2212  140.1820  156.7472 H   0  0  0  0  0  0  0  0  0  0  0  0  # atno 8008 bound_to 7997
  154.5869  140.0657  156.9212 H   0  0  0  0  0  0  0  0  0  0  0  0  # atno 8009 bound_to 7997
  155.2405  140.3321  155.4295 H   0  0  0  0  0  0  0  0  0  0  0  0  # atno 8010 bound_to 7997
  139.7326  144.7032  151.0699 H   0  0  0  0  0  0  0  0  0  0  0  0  # atno 10167 bound_to 10162
  156.0248  130.5446  150.7187 H   0  0  0  0  0  0  0  0  0  0  0  0  # atno 10718 bound_to 10713
  154.8564  135.3540  154.5780 H   0  0  0  0  0  0  0  0  0  0  0  0  # atno 10763 bound_to 10752
  153.6392  135.6999  153.5252 H   0  0  0  0  0  0  0  0  0  0  0  0  # atno 10764 bound_to 10752
  153.2985  135.4213  155.1190 H   0  0  0  0  0  0  0  0  0  0  0  0  # atno 10765 bound_to 10752
  140.3676  134.7058  157.4371 H   0  0  0  0  0  0  0  0  0  0  0  0  # atno 11005 bound_to 11000
  144.7586  140.5368  143.6751 LP  0  0  0  0  0  0  0  0  0  0  0  0  # atno 17320 bound_to 7965
  145.5490  139.1476  143.3404 LP  0  0  0  0  0  0  0  0  0  0  0  0  # atno 17321 bound_to 7965
  140.7773  143.5024  150.9754 LP  0  0  0  0  0  0  0  0  0  0  0  0  # atno 17342 bound_to 10162
  139.8713  143.7189  152.3166 LP  0  0  0  0  0  0  0  0  0  0  0  0  # atno 17343 bound_to 10162
  157.4808  131.0902  151.0538 LP  0  0  0  0  0  0  0  0  0  0  0  0  # atno 17370 bound_to 10713
  157.0972  130.5966  149.5452 LP  0  0  0  0  0  0  0  0  0  0  0  0  # atno 17371 bound_to 10713
  140.0577  134.6039  155.8785 LP  0  0  0  0  0  0  0  0  0  0  0  0  # atno 17394 bound_to 11000
  141.1965  133.6592  156.5694 LP  0  0  0  0  0  0  0  0  0  0  0  0  # atno 17395 bound_to 11000

$$$$
