AV-unprocessed.smi:102|AV-procd|sdf|957|dock3
  -GOLD-   2262017493D 1   1.00000     0.00000
 Structure written by MMmdl.
 44 45  0  0  0  0  0  0  0  0  1 V2000
  142.4668  146.2336  154.7780 C   0  0  0  0  0  0  0  0  0  0  0  0
  143.1661  145.5320  155.9354 C   0  0  0  0  0  0  0  0  0  0  0  0
  143.7774  146.1677  156.7945 O   0  0  0  0  0  0  0  0  0  0  0  0
  143.0315  144.1978  155.8882 O   0  0  0  0  0  0  0  0  0  0  0  0
  143.6073  143.4005  156.9090 C   0  0  0  0  0  0  0  0  0  0  0  0
  145.1221  143.6756  156.9760 C   0  0  2  0  0  0  0  0  0  0  0  0
  145.7823  142.9179  155.9672 O   0  0  0  0  0  0  0  0  0  0  0  0
  146.0377  141.6327  156.4467 C   0  0  1  0  0  0  0  0  0  0  0  0
  147.3390  141.1404  155.8567 N   0  0  0  0  0  0  0  0  0  0  0  0
  148.5354  141.7616  156.1889 C   0  0  0  0  0  0  0  0  0  0  0  0
  149.7370  141.3487  155.7207 C   0  0  0  0  0  0  0  0  0  0  0  0
  150.8521  142.0055  156.0832 F   0  0  0  0  0  0  0  0  0  0  0  0
  149.8329  140.1948  154.8316 C   0  0  0  0  0  0  0  0  0  0  0  0
  150.8733  139.7477  154.3529 O   0  0  0  0  0  0  0  0  0  0  0  0
  148.6077  139.5875  154.5420 N   0  0  0  0  0  0  0  0  0  0  0  0
  147.3632  140.0002  155.0211 C   0  0  0  0  0  0  0  0  0  0  0  0
  146.3516  139.3725  154.7140 O   0  0  0  0  0  0  0  0  0  0  0  0
  146.0625  141.6965  157.9887 C   0  0  2  0  0  0  0  0  0  0  0  0
  145.0265  140.8792  158.5255 O   0  0  0  0  0  0  0  0  0  0  0  0
  145.2031  139.5510  158.6341 C   0  0  0  0  0  0  0  0  0  0  0  0
  143.8930  138.8028  158.8424 C   0  0  0  0  0  0  0  0  0  0  0  0
  146.2788  138.9564  158.5683 O   0  0  0  0  0  0  0  0  0  0  0  0
  145.8013  143.1789  158.2567 C   0  0  2  0  0  0  0  0  0  0  0  0
  145.0351  143.4375  159.4294 O   0  0  0  0  0  0  0  0  0  0  0  0
  145.5531  143.1953  160.6460 C   0  0  0  0  0  0  0  0  0  0  0  0
  144.5471  143.4373  161.7633 C   0  0  0  0  0  0  0  0  0  0  0  0
  146.6999  142.8161  160.8830 O   0  0  0  0  0  0  0  0  0  0  0  0
  148.6254  138.7768  153.9405 H   0  0  0  0  0  0  0  0  0  0  0  0
  141.9504  145.5159  154.1399 H   0  0  0  0  0  0  0  0  0  0  0  0
  143.1943  146.7727  154.1712 H   0  0  0  0  0  0  0  0  0  0  0  0
  141.7354  146.9478  155.1562 H   0  0  0  0  0  0  0  0  0  0  0  0
  143.1360  143.6666  157.8560 H   0  0  0  0  0  0  0  0  0  0  0  0
  143.4050  142.3437  156.7307 H   0  0  0  0  0  0  0  0  0  0  0  0
  145.3091  144.7410  156.8372 H   0  0  0  0  0  0  0  0  0  0  0  0
  145.2618  140.9655  156.0672 H   0  0  0  0  0  0  0  0  0  0  0  0
  148.5230  142.6198  156.8458 H   0  0  0  0  0  0  0  0  0  0  0  0
  147.0345  141.4010  158.3866 H   0  0  0  0  0  0  0  0  0  0  0  0
  143.5443  138.3853  157.8979 H   0  0  0  0  0  0  0  0  0  0  0  0
  143.1230  139.4692  159.2322 H   0  0  0  0  0  0  0  0  0  0  0  0
  144.0316  137.9864  159.5513 H   0  0  0  0  0  0  0  0  0  0  0  0
  146.7597  143.6938  158.3320 H   0  0  0  0  0  0  0  0  0  0  0  0
  143.5786  143.0097  161.5032 H   0  0  0  0  0  0  0  0  0  0  0  0
  144.4204  144.5068  161.9320 H   0  0  0  0  0  0  0  0  0  0  0  0
  144.8885  142.9785  162.6913 H   0  0  0  0  0  0  0  0  0  0  0  0
  1  2  1  0  0  0  0
  1 29  1  0  0  0  0
  1 30  1  0  0  0  0
  1 31  1  0  0  0  0
  2  3  2  0  0  0  0
  2  4  1  0  0  0  0
  4  5  1  0  0  0  0
  5  6  1  0  0  0  0
  5 32  1  0  0  0  0
  5 33  1  0  0  0  0
  6 23  1  0  0  0  0
  6  7  1  0  0  0  0
  6 34  1  0  0  0  0
  7  8  1  0  0  0  0
  8  9  1  0  0  0  0
  8 18  1  0  0  0  0
  8 35  1  0  0  0  0
  9 16  1  0  0  0  0
  9 10  1  0  0  0  0
 10 11  2  0  0  0  0
 10 36  1  0  0  0  0
 11 12  1  0  0  0  0
 11 13  1  0  0  0  0
 13 14  2  0  0  0  0
 13 15  1  0  0  0  0
 15 28  1  0  0  0  0
 15 16  1  0  0  0  0
 16 17  2  0  0  0  0
 18 19  1  0  0  0  0
 18 23  1  0  0  0  0
 18 37  1  0  0  0  0
 19 20  1  0  0  0  0
 20 21  1  0  0  0  0
 20 22  2  0  0  0  0
 21 38  1  0  0  0  0
 21 39  1  0  0  0  0
 21 40  1  0  0  0  0
 23 24  1  0  0  0  0
 23 41  1  0  0  0  0
 24 25  1  0  0  0  0
 25 26  1  0  0  0  0
 25 27  2  0  0  0  0
 26 42  1  0  0  0  0
 26 43  1  0  0  0  0
 26 44  1  0  0  0  0
M  END
> <s_m_source_file>
AV-unprocessed.smi

> <i_m_source_file_index>
102

> <i_lp_mmshare_version>
43012

> <i_f3d_flags>
0

> <s_epik_input>
W0NIM11DKD1PKU9bQ0gyXVtDQEBIXTFPW0NASF0oW0NAQEhdKE9DKD1PKVtDSDNdKVtDQEhdMU9DKD1PKVtDSDNdKW4yW2NIXWMoRiljKD1PKVtuSF1jMj1P

> <s_epik_cmdline>
J2VwaWtfcHl0aG9uJywgJy1waCcsICc3LjAnLCAnLXRuJywgJzgnLCAnLW1hJywgJzIwMCcsICctbWV0YWxfYmluZGluZycsICctaW1hZScsICc8aW5maWxlLm1hZT4nLCAnLW9tYWUnLCAnPG91dGZpbGUubWFlPic=

> <r_lp_tautomer_probability>
0.999537

> <r_epik_Ionization_Penalty>
0.058267

> <r_epik_Ionization_Penalty_Charging>
0.058267

> <r_epik_Ionization_Penalty_Neutral>
6.57791e-16

> <r_epik_State_Penalty>
0.0503774

> <r_epik_Charging_Adjusted_Penalty>
0.108644

> <i_epik_Tot_Q>
0

> <i_epik_Tot_abs_Q>
0

> <r_epik_Metal_State_Penalty>
2.6644

> <b_epik_Metal_Only>
0

> <s_epik_Chemistry_Notes>
This compound has an ester and may undergo hydrolysis at high or low pH. This compound contains an acetal/aminal-like group ( X-CH(R)-Y where X, Y are N, S, or O) that may be acid/base labile, releasing an aldehyde.

> <s_lp_Force_Field>
OPLS_2005

> <r_lp_Energy>
12.818

> <b_lp_Chiralities_Consistent>
1

> <s_lp_Variant>
AV-unprocessed.smi:102-13

> <Gold.Version>
5.8.1

> <Gold.Id.Protein>
6NUR|6NUR_protein|mol2

> <Gold.PLP.Fitness>
37.0494

> <Gold.PLP.PLP>
-27.5501

> <Gold.PLP.part.hbond>
-4.0000

> <Gold.PLP.part.metal>
0.0000

> <Gold.PLP.part.buried>
-5.4979

> <Gold.PLP.part.nonpolar>
-18.1369

> <Gold.PLP.part.repulsive>
0.5757

> <Gold.PLP.ligand.clash>
0.0000

> <Gold.PLP.ligand.torsion>
0.6087

> <Gold.PLP.Chemscore.Hbond>
2.7844

> <Gold.PLP.Chemscore.CHOScore>
0.7335

> <Gold.PLP.Chemscore.Metal>
0.0000

> <Gold.Chemscore.Hbonds>
donor molecule, donor type, donor heavy atom, donor atom, acceptor molecule, acceptor atom, score
      P1  H  6933  6944       L1    27  0.86
      P1  H  6934  6946       L1    27  0.85
      P1  H  7989  7998       L1    14  1.00
      L1  C    10    36       P1  8028  0.66

> <Gold.PLP.Chemscore.Internal.Correction>
0.1629

> <Gold.Rescore>
     Score         DG    S(hbond)    S(metal)    S(lipo)     H(rot)  DE(clash)    DE(int)     intcor
      5.39      -6.54       2.36        0.00      30.46       4.05       0.03       1.13       ----

> <Gold.Chemscore.Fitness>
5.3865

> <Gold.Chemscore.DG>
-6.5443

> <Gold.Chemscore.ZeroCoef>
-5.4800

> <Gold.Chemscore.Hbond>
2.3574

> <Gold.Chemscore.Metal>
0.0000

> <Gold.Chemscore.Lipo>
30.4593

> <Gold.Chemscore.Internal_Hbond>
0.0000

> <Gold.Chemscore.DEClash>
0.0285

> <Gold.Chemscore.DEInternal>
1.1293

> <Gold.Chemscore.Rot>
4.0520

> <Gold.Chemscore.Internal.Correction>
   9.000000E+99

> <Gold.Chemscore.Hbonds>
donor molecule, donor type, donor heavy atom, donor atom, acceptor molecule, acceptor atom, score
      P1  H  6933  6944       L1    27  0.86
      P1  H  6934  6946       L1    27  0.74
      P1  H  7989  7998       L1    14  0.77

> <Gold.Chemscore.Hbond.Weighted>
-7.8737

> <Gold.Chemscore.Metal.Weighted>
-0.0000

> <Gold.Chemscore.Lipo.Weighted>
-3.5637

> <Gold.Chemscore.Internal_Hbond.Weighted>
0.0000

> <Gold.Chemscore.DEClash.Weighted>
0.0285

> <Gold.Chemscore.DEInternal.Weighted>
1.1293

> <Gold.Chemscore.Rot.Weighted>
10.3732

> <Gold.Chemscore.Internal.Correction.Weighted>
   9.000000E+99

> <Gold.Protein.RotatedTorsions>
[ 6907 6896 6895 6894 ] final -173.96 input  -60.11 | X-H torsion
[ 7974 7965 7964 7962 ] final  104.74 input  175.53 | X-H torsion
[ 8008 7997 7996 7995 ] final   76.43 input   59.86 | X-H torsion
[ 10167 10162 10161 10158 ] final  150.27 input  -65.29 | X-H torsion
[ 10718 10713 10712 10709 ] final -122.42 input   66.30 | X-H torsion
[ 10763 10752 10751 10750 ] final  141.45 input  -60.55 | X-H torsion
[ 11005 11000 10999 10996 ] final   12.82 input  -57.11 | X-H torsion

> <Gold.Protein.ActiveResidues>
 VAL166  LYS551  ARG553  GLY616  TRP617  ASP618  TYR619  PRO620  LYS621  CYS622 
 ASP623  PHE694  ASN695  SER759  ASP760  ASP761  ALA762  ILE779  LEU786  VAL792 
 PHE793  MET794  SER795  GLU796  ALA797  LYS798  CYS799  TRP800  GLU811  SER814 

> <Gold.Protein.RotatedAtoms>
  151.5647  133.3398  159.2977 H   0  0  0  0  0  0  0  0  0  0  0  0  # atno 6907 bound_to 6896
  150.8402  134.7694  159.6937 H   0  0  0  0  0  0  0  0  0  0  0  0  # atno 6908 bound_to 6896
  152.4471  134.5478  159.9909 H   0  0  0  0  0  0  0  0  0  0  0  0  # atno 6909 bound_to 6896
  145.3288  139.2492  143.3672 H   0  0  0  0  0  0  0  0  0  0  0  0  # atno 7974 bound_to 7965
  155.8272  140.3467  155.5550 H   0  0  0  0  0  0  0  0  0  0  0  0  # atno 8008 bound_to 7997
  155.8280  140.0923  157.1829 H   0  0  0  0  0  0  0  0  0  0  0  0  # atno 8009 bound_to 7997
  154.4004  140.1417  156.3567 H   0  0  0  0  0  0  0  0  0  0  0  0  # atno 8010 bound_to 7997
  139.4852  144.5536  151.7358 H   0  0  0  0  0  0  0  0  0  0  0  0  # atno 10167 bound_to 10162
  156.1417  130.6471  150.9781 H   0  0  0  0  0  0  0  0  0  0  0  0  # atno 10718 bound_to 10713
  153.9394  135.2981  155.3443 H   0  0  0  0  0  0  0  0  0  0  0  0  # atno 10763 bound_to 10752
  154.7485  135.4991  153.9249 H   0  0  0  0  0  0  0  0  0  0  0  0  # atno 10764 bound_to 10752
  153.1050  135.6744  153.9709 H   0  0  0  0  0  0  0  0  0  0  0  0  # atno 10765 bound_to 10752
  140.4877  134.0872  155.7764 H   0  0  0  0  0  0  0  0  0  0  0  0  # atno 11005 bound_to 11000
  146.3053  140.3862  142.8689 LP  0  0  0  0  0  0  0  0  0  0  0  0  # atno 17320 bound_to 7965
  144.8880  140.7487  143.5944 LP  0  0  0  0  0  0  0  0  0  0  0  0  # atno 17321 bound_to 7965
  140.5093  144.1049  150.5991 LP  0  0  0  0  0  0  0  0  0  0  0  0  # atno 17342 bound_to 10162
  140.3969  143.2723  151.9994 LP  0  0  0  0  0  0  0  0  0  0  0  0  # atno 17343 bound_to 10162
  157.6581  131.0886  150.7900 LP  0  0  0  0  0  0  0  0  0  0  0  0  # atno 17370 bound_to 10713
  156.7975  130.4910  149.5375 LP  0  0  0  0  0  0  0  0  0  0  0  0  # atno 17371 bound_to 10713
  141.1500  133.8986  157.2122 LP  0  0  0  0  0  0  0  0  0  0  0  0  # atno 17394 bound_to 11000
  139.9788  135.0105  156.9698 LP  0  0  0  0  0  0  0  0  0  0  0  0  # atno 17395 bound_to 11000

$$$$
