AV-unprocessed.smi:275|AV-procd|sdf|2068|dock4
  -GOLD-   2262021323D 1   1.00000     0.00000
 Structure written by MMmdl.
 65 69  0  0  0  0  0  0  0  0  1 V2000
  147.2349  134.9835  157.4665 C   0  0  0  0  0  0  0  0  0  0  0  0
  147.8998  135.9372  156.4587 C   0  0  0  0  0  0  0  0  0  0  0  0
  146.9577  136.1387  155.2599 C   0  0  0  0  0  0  0  0  0  0  0  0
  149.2791  135.4313  156.0034 C   0  0  2  0  0  0  0  0  0  0  0  0
  149.7251  136.0129  154.7394 N   0  0  0  0  0  0  0  0  0  0  0  0
  150.5323  137.1791  154.8334 C   0  0  0  0  0  0  0  0  0  0  0  0
  151.6719  137.3189  154.1022 N   0  0  0  0  0  0  0  0  0  0  0  0
  152.4235  138.4187  154.2093 C   0  0  0  0  0  0  0  0  0  0  0  0
  152.2275  139.4908  154.9783 N   0  0  0  0  0  0  0  0  0  0  0  0
  151.0873  139.3619  155.7143 C   0  0  0  0  0  0  0  0  0  0  0  0
  150.1954  138.2532  155.6994 C   0  0  0  0  0  0  0  0  0  0  0  0
  149.1465  138.4749  156.5828 N   0  0  0  0  0  0  0  0  0  0  0  0
  149.4040  139.6481  157.0933 C   0  0  0  0  0  0  0  0  0  0  0  0
  150.5532  140.2491  156.6324 N   0  0  0  0  0  0  0  0  0  0  0  0
  151.0710  141.5458  157.0327 C   0  0  0  0  0  0  0  0  0  0  0  0
  151.3637  141.6482  158.5514 C   0  0  1  0  0  0  0  0  0  0  0  0
  152.0991  140.3819  159.0622 C   0  0  0  0  0  0  0  0  0  0  0  0
  153.0473  139.9083  158.1294 O   0  0  0  0  0  0  0  0  0  0  0  0
  152.1507  142.9511  158.8660 C   0  0  1  0  0  0  0  0  0  0  0  0
  151.5848  144.2120  158.2324 C   0  0  0  0  0  0  0  0  0  0  0  0
  152.2444  145.3156  159.0509 C   0  0  0  0  0  0  0  0  0  0  0  0
  152.3996  144.7802  160.3588 O   0  0  0  0  0  0  0  0  0  0  0  0
  152.1640  143.3759  160.3400 C   0  0  0  0  0  0  0  0  0  0  0  0
  150.4666  134.8035  154.4187 C   0  0  0  0  0  0  0  0  0  0  0  0
  149.4754  134.0537  155.3236 C   0  0  0  0  0  0  0  0  0  0  0  0
  150.0787  132.9566  156.2150 C   0  0  0  0  0  0  0  0  0  0  0  0
  150.5031  131.7111  155.4190 C   0  0  0  0  0  0  0  0  0  0  0  0
  149.3230  131.1233  154.6340 C   0  0  0  0  0  0  0  0  0  0  0  0
  148.6496  132.1902  153.7611 C   0  0  0  0  0  0  0  0  0  0  0  0
  148.2666  133.4274  154.5913 C   0  0  0  0  0  0  0  0  0  0  0  0
  147.1436  133.9760  157.0592 H   0  0  0  0  0  0  0  0  0  0  0  0
  146.2347  135.3269  157.7318 H   0  0  0  0  0  0  0  0  0  0  0  0
  147.8039  134.9191  158.3933 H   0  0  0  0  0  0  0  0  0  0  0  0
  148.0133  136.9044  156.9497 H   0  0  0  0  0  0  0  0  0  0  0  0
  146.7832  135.1985  154.7358 H   0  0  0  0  0  0  0  0  0  0  0  0
  147.3594  136.8454  154.5359 H   0  0  0  0  0  0  0  0  0  0  0  0
  145.9893  136.5229  155.5814 H   0  0  0  0  0  0  0  0  0  0  0  0
  150.0311  135.5578  156.7847 H   0  0  0  0  0  0  0  0  0  0  0  0
  153.3090  138.4410  153.5915 H   0  0  0  0  0  0  0  0  0  0  0  0
  148.7610  140.1097  157.8286 H   0  0  0  0  0  0  0  0  0  0  0  0
  151.9745  141.7570  156.4596 H   0  0  0  0  0  0  0  0  0  0  0  0
  150.3328  142.2870  156.7277 H   0  0  0  0  0  0  0  0  0  0  0  0
  150.3989  141.7029  159.0583 H   0  0  0  0  0  0  0  0  0  0  0  0
  152.6545  140.5817  159.9775 H   0  0  0  0  0  0  0  0  0  0  0  0
  151.3878  139.5890  159.2956 H   0  0  0  0  0  0  0  0  0  0  0  0
  152.5993  139.3763  157.4895 H   0  0  0  0  0  0  0  0  0  0  0  0
  153.1831  142.8364  158.5309 H   0  0  0  0  0  0  0  0  0  0  0  0
  151.8106  144.3021  157.1696 H   0  0  0  0  0  0  0  0  0  0  0  0
  150.5015  144.2493  158.3575 H   0  0  0  0  0  0  0  0  0  0  0  0
  153.2323  145.5468  158.6506 H   0  0  0  0  0  0  0  0  0  0  0  0
  151.6587  146.2351  159.0613 H   0  0  0  0  0  0  0  0  0  0  0  0
  151.1953  143.1902  160.8056 H   0  0  0  0  0  0  0  0  0  0  0  0
  152.9242  142.8505  160.9187 H   0  0  0  0  0  0  0  0  0  0  0  0
  150.4214  134.5338  153.3636 H   0  0  0  0  0  0  0  0  0  0  0  0
  151.4901  134.7946  154.7979 H   0  0  0  0  0  0  0  0  0  0  0  0
  150.9453  133.3419  156.7533 H   0  0  0  0  0  0  0  0  0  0  0  0
  149.3625  132.6646  156.9839 H   0  0  0  0  0  0  0  0  0  0  0  0
  151.3059  131.9752  154.7295 H   0  0  0  0  0  0  0  0  0  0  0  0
  150.9110  130.9586  156.0941 H   0  0  0  0  0  0  0  0  0  0  0  0
  149.6603  130.2908  154.0158 H   0  0  0  0  0  0  0  0  0  0  0  0
  148.5920  130.7138  155.3324 H   0  0  0  0  0  0  0  0  0  0  0  0
  149.3229  132.4806  152.9541 H   0  0  0  0  0  0  0  0  0  0  0  0
  147.7621  131.7732  153.2846 H   0  0  0  0  0  0  0  0  0  0  0  0
  147.4952  133.1375  155.3035 H   0  0  0  0  0  0  0  0  0  0  0  0
  147.7964  134.1585  153.9327 H   0  0  0  0  0  0  0  0  0  0  0  0
  1  2  1  0  0  0  0
  1 31  1  0  0  0  0
  1 32  1  0  0  0  0
  1 33  1  0  0  0  0
  2  3  1  0  0  0  0
  2  4  1  0  0  0  0
  2 34  1  0  0  0  0
  3 35  1  0  0  0  0
  3 36  1  0  0  0  0
  3 37  1  0  0  0  0
  4 25  1  0  0  0  0
  4  5  1  0  0  0  0
  4 38  1  0  0  0  0
  5  6  1  0  0  0  0
  5 24  1  0  0  0  0
  6 11  1  0  0  0  0
  6  7  2  0  0  0  0
  7  8  1  0  0  0  0
  8  9  2  0  0  0  0
  8 39  1  0  0  0  0
  9 10  1  0  0  0  0
 10 14  1  0  0  0  0
 10 11  2  0  0  0  0
 11 12  1  0  0  0  0
 12 13  2  0  0  0  0
 13 14  1  0  0  0  0
 13 40  1  0  0  0  0
 14 15  1  0  0  0  0
 15 16  1  0  0  0  0
 15 41  1  0  0  0  0
 15 42  1  0  0  0  0
 16 17  1  0  0  0  0
 16 19  1  0  0  0  0
 16 43  1  0  0  0  0
 17 18  1  0  0  0  0
 17 44  1  0  0  0  0
 17 45  1  0  0  0  0
 18 46  1  0  0  0  0
 19 23  1  0  0  0  0
 19 20  1  0  0  0  0
 19 47  1  0  0  0  0
 20 21  1  0  0  0  0
 20 48  1  0  0  0  0
 20 49  1  0  0  0  0
 21 22  1  0  0  0  0
 21 50  1  0  0  0  0
 21 51  1  0  0  0  0
 22 23  1  0  0  0  0
 23 52  1  0  0  0  0
 23 53  1  0  0  0  0
 24 25  1  0  0  0  0
 24 54  1  0  0  0  0
 24 55  1  0  0  0  0
 25 30  1  0  0  0  0
 25 26  1  0  0  0  0
 26 27  1  0  0  0  0
 26 56  1  0  0  0  0
 26 57  1  0  0  0  0
 27 28  1  0  0  0  0
 27 58  1  0  0  0  0
 27 59  1  0  0  0  0
 28 29  1  0  0  0  0
 28 60  1  0  0  0  0
 28 61  1  0  0  0  0
 29 30  1  0  0  0  0
 29 62  1  0  0  0  0
 29 63  1  0  0  0  0
 30 64  1  0  0  0  0
 30 65  1  0  0  0  0
M  END
> <s_m_source_file>
AV-unprocessed.smi

> <i_m_source_file_index>
275

> <i_lp_mmshare_version>
43012

> <i_f3d_flags>
0

> <s_epik_input>
W0NIMl0xW0NIMl1bQ0gyXVtDSDJdW0NIMl1DMTJbQ0BIXShbQ0hdKFtDSDNdKVtDSDNdKU4oW0NIMl0yKWMobltjSF1uMyljKGMzNCluW2NIXW40W0NIMl1bQ0BIXShbQ0gyXVtPSF0pW0NAQEhdNVtDSDJdW0NIMl1PW0NIMl01

> <s_epik_cmdline>
J2VwaWtfcHl0aG9uJywgJy1waCcsICc3LjAnLCAnLXRuJywgJzgnLCAnLW1hJywgJzIwMCcsICctbWV0YWxfYmluZGluZycsICctaW1hZScsICc8aW5maWxlLm1hZT4nLCAnLW9tYWUnLCAnPG91dGZpbGUubWFlPic=

> <r_lp_tautomer_probability>
1

> <r_epik_Ionization_Penalty>
0.00375122

> <r_epik_Ionization_Penalty_Charging>
0

> <r_epik_Ionization_Penalty_Neutral>
0.00375122

> <r_epik_State_Penalty>
0.00260593

> <r_epik_Charging_Adjusted_Penalty>
0.00260593

> <i_epik_Tot_Q>
0

> <i_epik_Tot_abs_Q>
0

> <r_epik_Metal_State_Penalty>
-0

> <b_epik_Metal_Only>
0

> <s_lp_Force_Field>
OPLS_2005

> <r_lp_Energy>
64.3005

> <b_lp_Chiralities_Consistent>
1

> <s_lp_Variant>
AV-unprocessed.smi:275-7

> <Gold.Version>
5.8.1

> <Gold.Id.Protein>
6NUR|6NUR_protein|mol2

> <Gold.PLP.Fitness>
49.5599

> <Gold.PLP.PLP>
-44.3481

> <Gold.PLP.part.hbond>
-3.0000

> <Gold.PLP.part.metal>
0.0000

> <Gold.PLP.part.buried>
-5.8557

> <Gold.PLP.part.nonpolar>
-36.5576

> <Gold.PLP.part.repulsive>
2.4444

> <Gold.PLP.ligand.clash>
0.0000

> <Gold.PLP.ligand.torsion>
1.2624

> <Gold.PLP.Chemscore.Hbond>
2.3537

> <Gold.PLP.Chemscore.CHOScore>
0.0000

> <Gold.PLP.Chemscore.Metal>
0.0000

> <Gold.Chemscore.Hbonds>
donor molecule, donor type, donor heavy atom, donor atom, acceptor molecule, acceptor atom, score
      P1  H  7989  7998       L1     9  0.67
      P1  H  7997  8009       L1    18  0.78
      P1  H 10752 10764       L1     7  0.86

> <Gold.PLP.Chemscore.Internal.Correction>
0.6756

> <Gold.Rescore>
     Score         DG    S(hbond)    S(metal)    S(lipo)     H(rot)  DE(clash)    DE(int)     intcor
     11.12     -14.10       0.72        0.00     108.56       2.54       0.49       2.48       ----

> <Gold.Chemscore.Fitness>
11.1209

> <Gold.Chemscore.DG>
-14.0960

> <Gold.Chemscore.ZeroCoef>
-5.4800

> <Gold.Chemscore.Hbond>
0.7218

> <Gold.Chemscore.Metal>
0.0000

> <Gold.Chemscore.Lipo>
108.5628

> <Gold.Chemscore.Internal_Hbond>
0.0000

> <Gold.Chemscore.DEClash>
0.4940

> <Gold.Chemscore.DEInternal>
2.4810

> <Gold.Chemscore.Rot>
2.5377

> <Gold.Chemscore.Internal.Correction>
   9.000000E+99

> <Gold.Chemscore.Hbonds>
donor molecule, donor type, donor heavy atom, donor atom, acceptor molecule, acceptor atom, score
      P1  H  7989  7998       L1     9  0.06
      P1  H  7997  8009       L1    18  0.15
      P1  H 10752 10764       L1     7  0.44

> <Gold.Chemscore.Hbond.Weighted>
-2.4108

> <Gold.Chemscore.Metal.Weighted>
-0.0000

> <Gold.Chemscore.Lipo.Weighted>
-12.7018

> <Gold.Chemscore.Internal_Hbond.Weighted>
0.0000

> <Gold.Chemscore.DEClash.Weighted>
0.4940

> <Gold.Chemscore.DEInternal.Weighted>
2.4810

> <Gold.Chemscore.Rot.Weighted>
6.4966

> <Gold.Chemscore.Internal.Correction.Weighted>
   9.000000E+99

> <Gold.Protein.RotatedTorsions>
[ 6907 6896 6895 6894 ] final  100.79 input  -60.11 | X-H torsion
[ 7974 7965 7964 7962 ] final  -95.54 input  175.53 | X-H torsion
[ 8008 7997 7996 7995 ] final  138.80 input   59.86 | X-H torsion
[ 10167 10162 10161 10158 ] final -160.71 input  -65.29 | X-H torsion
[ 10718 10713 10712 10709 ] final   30.18 input   66.30 | X-H torsion
[ 10763 10752 10751 10750 ] final  -82.66 input  -60.55 | X-H torsion
[ 11005 11000 10999 10996 ] final -105.12 input  -57.11 | X-H torsion

> <Gold.Protein.ActiveResidues>
 VAL166  LYS551  ARG553  GLY616  TRP617  ASP618  TYR619  PRO620  LYS621  CYS622 
 ASP623  PHE694  ASN695  SER759  ASP760  ASP761  ALA762  ILE779  LEU786  VAL792 
 PHE793  MET794  SER795  GLU796  ALA797  LYS798  CYS799  TRP800  GLU811  SER814 

> <Gold.Protein.RotatedAtoms>
  152.5364  134.0224  159.7987 H   0  0  0  0  0  0  0  0  0  0  0  0  # atno 6907 bound_to 6896
  151.0408  133.5700  159.2658 H   0  0  0  0  0  0  0  0  0  0  0  0  # atno 6908 bound_to 6896
  151.2670  135.0680  159.9173 H   0  0  0  0  0  0  0  0  0  0  0  0  # atno 6909 bound_to 6896
  145.3586  140.9488  143.2513 H   0  0  0  0  0  0  0  0  0  0  0  0  # atno 7974 bound_to 7965
  156.2995  140.2384  156.4133 H   0  0  0  0  0  0  0  0  0  0  0  0  # atno 8008 bound_to 7997
  154.8421  140.0428  157.1568 H   0  0  0  0  0  0  0  0  0  0  0  0  # atno 8009 bound_to 7997
  154.9091  140.2988  155.5279 H   0  0  0  0  0  0  0  0  0  0  0  0  # atno 8010 bound_to 7997
  139.6519  144.0068  152.2167 H   0  0  0  0  0  0  0  0  0  0  0  0  # atno 10167 bound_to 10162
  157.2562  130.7139  149.6430 H   0  0  0  0  0  0  0  0  0  0  0  0  # atno 10718 bound_to 10713
  154.5785  135.5583  153.7162 H   0  0  0  0  0  0  0  0  0  0  0  0  # atno 10763 bound_to 10752
  153.0073  135.6314  154.2016 H   0  0  0  0  0  0  0  0  0  0  0  0  # atno 10764 bound_to 10752
  154.1956  135.2880  155.2987 H   0  0  0  0  0  0  0  0  0  0  0  0  # atno 10765 bound_to 10752
  141.1068  133.8781  157.1695 H   0  0  0  0  0  0  0  0  0  0  0  0  # atno 11005 bound_to 11000
  144.8663  139.5103  143.6788 LP  0  0  0  0  0  0  0  0  0  0  0  0  # atno 17320 bound_to 7965
  146.2937  139.7214  142.9142 LP  0  0  0  0  0  0  0  0  0  0  0  0  # atno 17321 bound_to 7965
  139.9784  144.6445  150.7923 LP  0  0  0  0  0  0  0  0  0  0  0  0  # atno 17342 bound_to 10162
  140.7542  143.3022  151.3052 LP  0  0  0  0  0  0  0  0  0  0  0  0  # atno 17343 bound_to 10162
  155.9665  130.4412  150.5330 LP  0  0  0  0  0  0  0  0  0  0  0  0  # atno 17370 bound_to 10713
  157.3224  131.0684  151.1922 LP  0  0  0  0  0  0  0  0  0  0  0  0  # atno 17371 bound_to 10713
  139.9943  135.0053  157.0046 LP  0  0  0  0  0  0  0  0  0  0  0  0  # atno 17394 bound_to 11000
  140.4880  134.1222  155.7228 LP  0  0  0  0  0  0  0  0  0  0  0  0  # atno 17395 bound_to 11000

$$$$
