AV-unprocessed.smi:193|AV-procd|sdf|1498|dock7
  -GOLD-   2262019323D 1   1.00000     0.00000
 Structure written by MMmdl.
 62 66  0  0  0  0  0  0  0  0  2 V2000
  145.1537  136.2259  156.4519 C   0  0  0  0  0  0  0  0  0  0  0  0
  145.6067  136.8402  155.1181 C   0  0  2  0  0  0  0  0  0  0  0  0
  146.8051  137.7784  155.3748 C   0  0  0  0  0  0  0  0  0  0  0  0
  147.4778  138.2271  154.1599 N   0  0  0  0  0  0  0  0  0  0  0  0
  148.6453  138.8482  154.4301 C   0  0  0  0  0  0  0  0  0  0  0  0
  149.7887  138.1829  154.1356 N   0  0  0  0  0  0  0  0  0  0  0  0
  150.9727  138.7509  154.3867 C   0  0  0  0  0  0  0  0  0  0  0  0
  151.2290  139.9473  154.9211 N   0  0  0  0  0  0  0  0  0  0  0  0
  150.0781  140.6136  155.2244 C   0  0  0  0  0  0  0  0  0  0  0  0
  148.7526  140.1414  155.0136 C   0  0  0  0  0  0  0  0  0  0  0  0
  147.8343  141.0886  155.4498 N   0  0  0  0  0  0  0  0  0  0  0  0
  148.5763  142.0674  155.8926 C   0  0  0  0  0  0  0  0  0  0  0  0
  149.9350  141.8680  155.7908 N   0  0  0  0  0  0  0  0  0  0  0  0
  150.9851  142.7855  156.2068 C   0  0  0  0  0  0  0  0  0  0  0  0
  151.0981  142.9572  157.7418 C   0  0  0  0  0  0  0  0  0  0  0  0
  149.8687  143.4889  158.2060 O   0  0  0  0  0  0  0  0  0  0  0  0
  151.3243  141.5916  158.4208 C   0  0  0  0  0  0  0  0  0  0  0  0
  151.6101  141.7320  159.9268 C   0  0  0  0  0  0  0  0  0  0  0  0
  152.7153  142.6031  160.1339 O   0  0  0  0  0  0  0  0  0  0  0  0
  152.4676  143.9256  159.6722 C   0  0  0  0  0  0  0  0  0  0  0  0
  152.2332  143.9210  158.1512 C   0  0  0  0  0  0  0  0  0  0  0  0
  146.6898  138.8816  153.1199 C   0  0  0  0  0  0  0  0  0  0  0  0
  145.8191  137.8677  152.3629 C   0  0  0  0  0  0  0  0  0  0  0  0
  144.4793  137.6452  152.9657 N   0  3  1  0  0  0  0  0  0  0  0  0
  143.7889  136.4922  152.3432 C   0  0  2  0  0  0  0  0  0  0  0  0
  143.8900  135.2163  153.1470 C   0  0  0  0  0  0  0  0  0  0  0  0
  144.7216  135.3886  151.8942 C   0  0  1  0  0  0  0  0  0  0  0  0
  144.4137  134.5723  150.6582 C   0  0  0  0  0  0  0  0  0  0  0  0
  144.4289  137.5909  154.4528 C   0  0  0  0  0  0  0  0  0  0  0  0
  144.8140  136.9935  157.1480 H   0  0  0  0  0  0  0  0  0  0  0  0
  145.9670  135.6795  156.9306 H   0  0  0  0  0  0  0  0  0  0  0  0
  144.3335  135.5225  156.3045 H   0  0  0  0  0  0  0  0  0  0  0  0
  145.9226  136.0098  154.4852 H   0  0  0  0  0  0  0  0  0  0  0  0
  146.4842  138.6466  155.9527 H   0  0  0  0  0  0  0  0  0  0  0  0
  147.5367  137.2539  155.9923 H   0  0  0  0  0  0  0  0  0  0  0  0
  151.8389  138.1624  154.1218 H   0  0  0  0  0  0  0  0  0  0  0  0
  148.1512  142.9706  156.3061 H   0  0  0  0  0  0  0  0  0  0  0  0
  151.9305  142.4328  155.7923 H   0  0  0  0  0  0  0  0  0  0  0  0
  150.7928  143.7516  155.7381 H   0  0  0  0  0  0  0  0  0  0  0  0
  149.3836  143.8150  157.4633 H   0  0  0  0  0  0  0  0  0  0  0  0
  150.4660  140.9372  158.2622 H   0  0  0  0  0  0  0  0  0  0  0  0
  152.1761  141.0940  157.9550 H   0  0  0  0  0  0  0  0  0  0  0  0
  150.7344  142.1020  160.4621 H   0  0  0  0  0  0  0  0  0  0  0  0
  151.8498  140.7573  160.3520 H   0  0  0  0  0  0  0  0  0  0  0  0
  151.6140  144.3533  160.2003 H   0  0  0  0  0  0  0  0  0  0  0  0
  153.3296  144.5477  159.9134 H   0  0  0  0  0  0  0  0  0  0  0  0
  153.1576  143.6155  157.6593 H   0  0  0  0  0  0  0  0  0  0  0  0
  152.0263  144.9362  157.8100 H   0  0  0  0  0  0  0  0  0  0  0  0
  146.0883  139.6922  153.5330 H   0  0  0  0  0  0  0  0  0  0  0  0
  147.3747  139.3410  152.4048 H   0  0  0  0  0  0  0  0  0  0  0  0
  145.6556  138.2374  151.3503 H   0  0  0  0  0  0  0  0  0  0  0  0
  146.3540  136.9224  152.2527 H   0  0  0  0  0  0  0  0  0  0  0  0
  142.8836  136.7182  151.7819 H   0  0  0  0  0  0  0  0  0  0  0  0
  144.4141  135.2431  154.1006 H   0  0  0  0  0  0  0  0  0  0  0  0
  143.0470  134.5296  153.1022 H   0  0  0  0  0  0  0  0  0  0  0  0
  145.7864  135.5536  152.0506 H   0  0  0  0  0  0  0  0  0  0  0  0
  143.3381  134.4373  150.5404 H   0  0  0  0  0  0  0  0  0  0  0  0
  144.8811  133.5901  150.7326 H   0  0  0  0  0  0  0  0  0  0  0  0
  144.8001  135.0755  149.7719 H   0  0  0  0  0  0  0  0  0  0  0  0
  143.4793  137.1402  154.7452 H   0  0  0  0  0  0  0  0  0  0  0  0
  144.3809  138.6109  154.8357 H   0  0  0  0  0  0  0  0  0  0  0  0
  143.9279  138.4543  152.7182 H   0  0  0  0  0  0  0  0  0  0  0  0
  1  2  1  0  0  0  0
  1 30  1  0  0  0  0
  1 31  1  0  0  0  0
  1 32  1  0  0  0  0
  2 29  1  0  0  0  0
  2  3  1  0  0  0  0
  2 33  1  0  0  0  0
  3  4  1  0  0  0  0
  3 34  1  0  0  0  0
  3 35  1  0  0  0  0
  4  5  1  0  0  0  0
  4 22  1  0  0  0  0
  5 10  1  0  0  0  0
  5  6  2  0  0  0  0
  6  7  1  0  0  0  0
  7  8  2  0  0  0  0
  7 36  1  0  0  0  0
  8  9  1  0  0  0  0
  9 13  1  0  0  0  0
  9 10  2  0  0  0  0
 10 11  1  0  0  0  0
 11 12  2  0  0  0  0
 12 13  1  0  0  0  0
 12 37  1  0  0  0  0
 13 14  1  0  0  0  0
 14 15  1  0  0  0  0
 14 38  1  0  0  0  0
 14 39  1  0  0  0  0
 15 21  1  0  0  0  0
 15 16  1  0  0  0  0
 15 17  1  0  0  0  0
 16 40  1  0  0  0  0
 17 18  1  0  0  0  0
 17 41  1  0  0  0  0
 17 42  1  0  0  0  0
 18 19  1  0  0  0  0
 18 43  1  0  0  0  0
 18 44  1  0  0  0  0
 19 20  1  0  0  0  0
 20 21  1  0  0  0  0
 20 45  1  0  0  0  0
 20 46  1  0  0  0  0
 21 47  1  0  0  0  0
 21 48  1  0  0  0  0
 22 23  1  0  0  0  0
 22 49  1  0  0  0  0
 22 50  1  0  0  0  0
 23 24  1  0  0  0  0
 23 51  1  0  0  0  0
 23 52  1  0  0  0  0
 24 25  1  0  0  0  0
 24 29  1  0  0  0  0
 24 62  1  0  0  0  0
 25 27  1  0  0  0  0
 25 26  1  0  0  0  0
 25 53  1  0  0  0  0
 26 27  1  0  0  0  0
 26 54  1  0  0  0  0
 26 55  1  0  0  0  0
 27 28  1  0  0  0  0
 27 56  1  0  0  0  0
 28 57  1  0  0  0  0
 28 58  1  0  0  0  0
 28 59  1  0  0  0  0
 29 60  1  0  0  0  0
 29 61  1  0  0  0  0
M  CHG  1  24   1
M  END
> <s_m_source_file>
AV-unprocessed.smi

> <i_m_source_file_index>
193

> <i_lp_mmshare_version>
43012

> <i_f3d_flags>
0

> <s_epik_input>
W0NIM11bQ0BASF0xW0NIMl1bQ0BIXTFOKFtDSDJdMilbQ0gyXVtDSDJdTihbQ0gyXVtDQEhdMltDSDNdKWMobltjSF1uMyljKGMzNCluW2NIXW40W0NIMl1DNShbT0hdKVtDSDJdW0NIMl1PW0NIMl1bQ0gyXTU=

> <s_epik_cmdline>
J2VwaWtfcHl0aG9uJywgJy1waCcsICc3LjAnLCAnLXRuJywgJzgnLCAnLW1hJywgJzIwMCcsICctbWV0YWxfYmluZGluZycsICctaW1hZScsICc8aW5maWxlLm1hZT4nLCAnLW9tYWUnLCAnPG91dGZpbGUubWFlPic=

> <r_lp_tautomer_probability>
1

> <r_epik_Ionization_Penalty>
0.0540825

> <r_epik_Ionization_Penalty_Charging>
0.0538476

> <r_epik_Ionization_Penalty_Neutral>
0.000234891

> <r_epik_State_Penalty>
0.0200719

> <r_epik_Charging_Adjusted_Penalty>
0.0739194

> <i_epik_Tot_Q>
1

> <i_epik_Tot_abs_Q>
1

> <r_epik_Metal_State_Penalty>
0.0199414

> <b_epik_Metal_Only>
0

> <s_lp_Force_Field>
OPLS_2005

> <r_lp_Energy>
56.0511

> <b_lp_Chiralities_Consistent>
1

> <s_lp_Variant>
AV-unprocessed.smi:193-3

> <Gold.Version>
5.8.1

> <Gold.Id.Protein>
6NUR|6NUR_protein|mol2

> <Gold.PLP.Fitness>
49.9986

> <Gold.PLP.PLP>
-37.3850

> <Gold.PLP.part.hbond>
-3.2991

> <Gold.PLP.part.metal>
0.0000

> <Gold.PLP.part.buried>
-0.0906

> <Gold.PLP.part.nonpolar>
-36.2954

> <Gold.PLP.part.repulsive>
1.0466

> <Gold.PLP.ligand.clash>
0.0000

> <Gold.PLP.ligand.torsion>
1.1236

> <Gold.PLP.Chemscore.Hbond>
3.7325

> <Gold.PLP.Chemscore.CHOScore>
0.6896

> <Gold.PLP.Chemscore.Metal>
0.0000

> <Gold.Chemscore.Hbonds>
donor molecule, donor type, donor heavy atom, donor atom, acceptor molecule, acceptor atom, score
      L1  H    16    40       P1  8028  0.93
      L1  H    24    62       P1 10175  2.00
      P1  H  7989  7998       L1     8  0.85
      L1  C    12    37       P1  8028  0.69

> <Gold.PLP.Chemscore.Internal.Correction>
1.5947

> <Gold.Rescore>
     Score         DG    S(hbond)    S(metal)    S(lipo)     H(rot)  DE(clash)    DE(int)     intcor
     11.06     -16.06       1.48        0.00      96.39       2.20       2.32       2.68       ----

> <Gold.Chemscore.Fitness>
11.0597

> <Gold.Chemscore.DG>
-16.0628

> <Gold.Chemscore.ZeroCoef>
-5.4800

> <Gold.Chemscore.Hbond>
1.4795

> <Gold.Chemscore.Metal>
0.0000

> <Gold.Chemscore.Lipo>
96.3926

> <Gold.Chemscore.Internal_Hbond>
0.0000

> <Gold.Chemscore.DEClash>
2.3182

> <Gold.Chemscore.DEInternal>
2.6849

> <Gold.Chemscore.Rot>
2.2018

> <Gold.Chemscore.Internal.Correction>
   9.000000E+99

> <Gold.Chemscore.Hbonds>
donor molecule, donor type, donor heavy atom, donor atom, acceptor molecule, acceptor atom, score
      L1  H    16    40       P1  8028  0.31
      L1  H    24    62       P1 10175  0.92
      P1  H  7989  7998       L1     8  0.04

> <Gold.Chemscore.Hbond.Weighted>
-4.9414

> <Gold.Chemscore.Metal.Weighted>
-0.0000

> <Gold.Chemscore.Lipo.Weighted>
-11.2779

> <Gold.Chemscore.Internal_Hbond.Weighted>
0.0000

> <Gold.Chemscore.DEClash.Weighted>
2.3182

> <Gold.Chemscore.DEInternal.Weighted>
2.6849

> <Gold.Chemscore.Rot.Weighted>
5.6366

> <Gold.Chemscore.Internal.Correction.Weighted>
   9.000000E+99

> <Gold.Protein.RotatedTorsions>
[ 6907 6896 6895 6894 ] final  152.60 input  -60.11 | X-H torsion
[ 7974 7965 7964 7962 ] final  -96.07 input  175.53 | X-H torsion
[ 8008 7997 7996 7995 ] final   98.95 input   59.86 | X-H torsion
[ 10167 10162 10161 10158 ] final  105.46 input  -65.29 | X-H torsion
[ 10718 10713 10712 10709 ] final -140.67 input   66.30 | X-H torsion
[ 10763 10752 10751 10750 ] final  132.14 input  -60.55 | X-H torsion
[ 11005 11000 10999 10996 ] final   29.96 input  -57.11 | X-H torsion

> <Gold.Protein.ActiveResidues>
 VAL166  LYS551  ARG553  GLY616  TRP617  ASP618  TYR619  PRO620  LYS621  CYS622 
 ASP623  PHE694  ASN695  SER759  ASP760  ASP761  ALA762  ILE779  LEU786  VAL792 
 PHE793  MET794  SER795  GLU796  ALA797  LYS798  CYS799  TRP800  GLU811  SER814 

> <Gold.Protein.RotatedAtoms>
  152.0845  133.4169  159.4515 H   0  0  0  0  0  0  0  0  0  0  0  0  # atno 6907 bound_to 6896
  150.6862  134.2944  159.4689 H   0  0  0  0  0  0  0  0  0  0  0  0  # atno 6908 bound_to 6896
  152.0789  134.9484  160.0624 H   0  0  0  0  0  0  0  0  0  0  0  0  # atno 6909 bound_to 6896
  145.3517  140.9477  143.2550 H   0  0  0  0  0  0  0  0  0  0  0  0  # atno 7974 bound_to 7965
  156.1056  140.3236  155.8001 H   0  0  0  0  0  0  0  0  0  0  0  0  # atno 8008 bound_to 7997
  155.4762  140.0550  157.2990 H   0  0  0  0  0  0  0  0  0  0  0  0  # atno 8009 bound_to 7997
  154.4725  140.2018  155.9974 H   0  0  0  0  0  0  0  0  0  0  0  0  # atno 8010 bound_to 7997
  139.7091  144.7081  151.1057 H   0  0  0  0  0  0  0  0  0  0  0  0  # atno 10167 bound_to 10162
  156.3251  130.7555  151.1661 H   0  0  0  0  0  0  0  0  0  0  0  0  # atno 10718 bound_to 10713
  153.7859  135.3162  155.3372 H   0  0  0  0  0  0  0  0  0  0  0  0  # atno 10763 bound_to 10752
  154.8144  135.4646  154.0606 H   0  0  0  0  0  0  0  0  0  0  0  0  # atno 10764 bound_to 10752
  153.1909  135.6908  153.8440 H   0  0  0  0  0  0  0  0  0  0  0  0  # atno 10765 bound_to 10752
  140.2994  134.2773  155.7757 H   0  0  0  0  0  0  0  0  0  0  0  0  # atno 11005 bound_to 11000
  144.8712  139.5035  143.6767 LP  0  0  0  0  0  0  0  0  0  0  0  0  # atno 17320 bound_to 7965
  146.2965  139.7294  142.9123 LP  0  0  0  0  0  0  0  0  0  0  0  0  # atno 17321 bound_to 7965
  140.7729  143.5318  150.9414 LP  0  0  0  0  0  0  0  0  0  0  0  0  # atno 17342 bound_to 10162
  139.9002  143.6845  152.3132 LP  0  0  0  0  0  0  0  0  0  0  0  0  # atno 17343 bound_to 10162
  157.7419  131.0497  150.5060 LP  0  0  0  0  0  0  0  0  0  0  0  0  # atno 17370 bound_to 10713
  156.5218  130.4163  149.6247 LP  0  0  0  0  0  0  0  0  0  0  0  0  # atno 17371 bound_to 10713
  141.2131  133.7636  156.9745 LP  0  0  0  0  0  0  0  0  0  0  0  0  # atno 17394 bound_to 11000
  140.1123  134.9469  157.2083 LP  0  0  0  0  0  0  0  0  0  0  0  0  # atno 17395 bound_to 11000

$$$$
