AV-unprocessed.smi:1724|AV-procd|sdf|6952|dock3
  -GOLD-   22720 8163D 1   1.00000     0.00000
 Structure written by MMmdl.
 37 38  0  0  0  0  0  0  0  0  2 V2000
  149.2035  136.8084  156.3040 O   0  0  0  0  0  0  0  0  0  0  0  0
  149.5809  136.6198  155.1479 C   0  0  0  0  0  0  0  0  0  0  0  0
  149.6167  137.5879  154.2207 N   0  0  0  0  0  0  0  0  0  0  0  0
  149.2315  138.9810  154.4283 C   0  0  0  0  0  0  0  0  0  0  0  0
  150.1749  139.7128  155.4048 C   0  0  1  0  0  0  0  0  0  0  0  0
  149.7484  139.5723  156.8786 C   0  0  0  0  0  0  0  0  0  0  0  0
  150.7792  140.2396  157.7959 C   0  0  0  0  0  0  0  0  0  0  0  0
  152.1884  139.7077  157.4967 C   0  0  0  0  0  0  0  0  0  0  0  0
  152.4974  139.9149  156.1233 O   0  0  0  0  0  0  0  0  0  0  0  0
  151.6249  139.2122  155.2443 C   0  0  0  0  0  0  0  0  0  0  0  0
  150.0106  135.4540  154.6313 N   0  0  0  0  0  0  0  0  0  0  0  0
  150.1378  134.1881  155.2310 C   0  0  0  0  0  0  0  0  0  0  0  0
  149.7943  133.0043  154.6505 C   0  0  0  0  0  0  0  0  0  0  0  0
  149.9570  131.7261  155.3330 C   0  0  0  0  0  0  0  0  0  0  0  0
  149.5900  130.3814  154.7326 C   0  0  0  0  0  0  0  0  0  0  0  0
  148.6907  129.7647  155.4986 F   0  0  0  0  0  0  0  0  0  0  0  0
  149.0560  130.5480  153.5233 F   0  0  0  0  0  0  0  0  0  0  0  0
  150.6569  129.5905  154.6161 F   0  0  0  0  0  0  0  0  0  0  0  0
  150.4926  131.8686  156.5971 C   0  0  0  0  0  0  0  0  0  0  0  0
  150.8620  132.9963  157.2421 N   0  5  0  0  0  0  0  0  0  0  0  0
  150.7037  134.1863  156.5970 C   0  0  0  0  0  0  0  0  0  0  0  0
  151.0214  135.2518  157.1271 O   0  0  0  0  0  0  0  0  0  0  0  0
  149.9425  137.3425  153.2972 H   0  0  0  0  0  0  0  0  0  0  0  0
  149.1730  139.5195  153.4808 H   0  0  0  0  0  0  0  0  0  0  0  0
  148.2196  138.9777  154.8343 H   0  0  0  0  0  0  0  0  0  0  0  0
  150.1635  140.7740  155.1507 H   0  0  0  0  0  0  0  0  0  0  0  0
  148.7694  140.0220  157.0454 H   0  0  0  0  0  0  0  0  0  0  0  0
  149.6560  138.5167  157.1379 H   0  0  0  0  0  0  0  0  0  0  0  0
  150.7586  141.3198  157.6456 H   0  0  0  0  0  0  0  0  0  0  0  0
  150.5234  140.0640  158.8411 H   0  0  0  0  0  0  0  0  0  0  0  0
  152.9249  140.2311  158.1064 H   0  0  0  0  0  0  0  0  0  0  0  0
  152.2658  138.6476  157.7434 H   0  0  0  0  0  0  0  0  0  0  0  0
  151.6916  138.1395  155.4328 H   0  0  0  0  0  0  0  0  0  0  0  0
  151.9667  139.3748  154.2219 H   0  0  0  0  0  0  0  0  0  0  0  0
  150.3058  135.4792  153.6662 H   0  0  0  0  0  0  0  0  0  0  0  0
  149.3920  132.9705  153.6528 H   0  0  0  0  0  0  0  0  0  0  0  0
  150.6464  130.9328  157.1761 H   0  0  0  0  0  0  0  0  0  0  0  0
  1  2  2  0  0  0  0
  2  3  1  0  0  0  0
  2 11  1  0  0  0  0
  3  4  1  0  0  0  0
  3 23  1  0  0  0  0
  4  5  1  0  0  0  0
  4 24  1  0  0  0  0
  4 25  1  0  0  0  0
  5 10  1  0  0  0  0
  5  6  1  0  0  0  0
  5 26  1  0  0  0  0
  6  7  1  0  0  0  0
  6 27  1  0  0  0  0
  6 28  1  0  0  0  0
  7  8  1  0  0  0  0
  7 29  1  0  0  0  0
  7 30  1  0  0  0  0
  8  9  1  0  0  0  0
  8 31  1  0  0  0  0
  8 32  1  0  0  0  0
  9 10  1  0  0  0  0
 10 33  1  0  0  0  0
 10 34  1  0  0  0  0
 11 12  1  0  0  0  0
 11 35  1  0  0  0  0
 12 21  1  0  0  0  0
 12 13  2  0  0  0  0
 13 14  1  0  0  0  0
 13 36  1  0  0  0  0
 14 15  1  0  0  0  0
 14 19  2  0  0  0  0
 15 16  1  0  0  0  0
 15 17  1  0  0  0  0
 15 18  1  0  0  0  0
 19 20  1  0  0  0  0
 19 37  1  0  0  0  0
 20 21  1  0  0  0  0
 21 22  2  0  0  0  0
M  CHG  1  20  -1
M  END
> <s_m_source_file>
AV-unprocessed.smi

> <i_m_source_file_index>
1724

> <i_lp_mmshare_version>
43012

> <i_f3d_flags>
0

> <s_epik_input>
Tz1jMVtuSF1bY0hdYyhDKEYpKEYpRilbY0hdYzFbTkhdQyg9TylbTkhdW0NIMl1bQ0BASF0yW0NIMl1bQ0gyXVtDSDJdT1tDSDJdMg==

> <s_epik_cmdline>
J2VwaWtfcHl0aG9uJywgJy1waCcsICc3LjAnLCAnLXRuJywgJzgnLCAnLW1hJywgJzIwMCcsICctbWV0YWxfYmluZGluZycsICctaW1hZScsICc8aW5maWxlLm1hZT4nLCAnLW9tYWUnLCAnPG91dGZpbGUubWFlPic=

> <r_lp_tautomer_probability>
1

> <r_epik_Ionization_Penalty>
3.16025

> <r_epik_Ionization_Penalty_Charging>
0.171172

> <r_epik_Ionization_Penalty_Neutral>
2.98908

> <r_epik_State_Penalty>
2.98521

> <r_epik_Charging_Adjusted_Penalty>
3.15638

> <i_epik_Tot_Q>
-1

> <i_epik_Tot_abs_Q>
1

> <r_epik_Metal_State_Penalty>
0.452642

> <b_epik_Metal_Only>
1

> <s_lp_Force_Field>
OPLS_2005

> <r_lp_Energy>
24.0618

> <b_lp_Chiralities_Consistent>
1

> <s_lp_Variant>
AV-unprocessed.smi:1724-4

> <Gold.Version>
5.8.1

> <Gold.Id.Protein>
6NUR|6NUR_protein|mol2

> <Gold.PLP.Fitness>
41.2408

> <Gold.PLP.PLP>
-31.9273

> <Gold.PLP.part.hbond>
-4.9630

> <Gold.PLP.part.metal>
0.0000

> <Gold.PLP.part.buried>
-4.1103

> <Gold.PLP.part.nonpolar>
-24.4460

> <Gold.PLP.part.repulsive>
0.0973

> <Gold.PLP.ligand.clash>
0.0000

> <Gold.PLP.ligand.torsion>
0.6791

> <Gold.PLP.Chemscore.Hbond>
3.5501

> <Gold.PLP.Chemscore.CHOScore>
0.0000

> <Gold.PLP.Chemscore.Metal>
0.0000

> <Gold.Chemscore.Hbonds>
donor molecule, donor type, donor heavy atom, donor atom, acceptor molecule, acceptor atom, score
      L1  H     3    23       P1  7948  0.59
      L1  H    11    35       P1  7948  0.01
      P1  H  6896  6907       L1    20  1.90
      P1  H  7997  8009       L1     9  1.00

> <Gold.PLP.Chemscore.Internal.Correction>
0.0215

> <Gold.Rescore>
     Score         DG    S(hbond)    S(metal)    S(lipo)     H(rot)  DE(clash)    DE(int)     intcor
     11.30     -15.09       1.78        0.00      60.40       1.32       0.01       3.78       ----

> <Gold.Chemscore.Fitness>
11.3026

> <Gold.Chemscore.DG>
-15.0886

> <Gold.Chemscore.ZeroCoef>
-5.4800

> <Gold.Chemscore.Hbond>
1.7764

> <Gold.Chemscore.Metal>
0.0000

> <Gold.Chemscore.Lipo>
60.4010

> <Gold.Chemscore.Internal_Hbond>
0.0000

> <Gold.Chemscore.DEClash>
0.0081

> <Gold.Chemscore.DEInternal>
3.7779

> <Gold.Chemscore.Rot>
1.3248

> <Gold.Chemscore.Internal.Correction>
   9.000000E+99

> <Gold.Chemscore.Hbonds>
donor molecule, donor type, donor heavy atom, donor atom, acceptor molecule, acceptor atom, score
      L1  H     3    23       P1  7948  0.19
      P1  H  6896  6907       L1    20  0.56
      P1  H  7997  8009       L1     9  0.30

> <Gold.Chemscore.Hbond.Weighted>
-5.9332

> <Gold.Chemscore.Metal.Weighted>
-0.0000

> <Gold.Chemscore.Lipo.Weighted>
-7.0669

> <Gold.Chemscore.Internal_Hbond.Weighted>
0.0000

> <Gold.Chemscore.DEClash.Weighted>
0.0081

> <Gold.Chemscore.DEInternal.Weighted>
3.7779

> <Gold.Chemscore.Rot.Weighted>
3.3915

> <Gold.Chemscore.Internal.Correction.Weighted>
   9.000000E+99

> <Gold.Protein.RotatedTorsions>
[ 6907 6896 6895 6894 ] final -156.60 input  -60.11 | X-H torsion
[ 7974 7965 7964 7962 ] final -152.93 input  175.53 | X-H torsion
[ 8008 7997 7996 7995 ] final -154.12 input   59.86 | X-H torsion
[ 10167 10162 10161 10158 ] final  161.19 input  -65.29 | X-H torsion
[ 10718 10713 10712 10709 ] final -124.31 input   66.30 | X-H torsion
[ 10763 10752 10751 10750 ] final  114.59 input  -60.55 | X-H torsion
[ 11005 11000 10999 10996 ] final  128.80 input  -57.11 | X-H torsion

> <Gold.Protein.ActiveResidues>
 VAL166  LYS551  ARG553  GLY616  TRP617  ASP618  TYR619  PRO620  LYS621  CYS622 
 ASP623  PHE694  ASN695  SER759  ASP760  ASP761  ALA762  ILE779  LEU786  VAL792 
 PHE793  MET794  SER795  GLU796  ALA797  LYS798  CYS799  TRP800  GLU811  SER814 

> <Gold.Protein.RotatedAtoms>
  151.2902  133.4169  159.2632 H   0  0  0  0  0  0  0  0  0  0  0  0  # atno 6907 bound_to 6896
  151.0284  134.9522  159.8108 H   0  0  0  0  0  0  0  0  0  0  0  0  # atno 6908 bound_to 6896
  152.5340  134.2863  159.9079 H   0  0  0  0  0  0  0  0  0  0  0  0  # atno 6909 bound_to 6896
  144.7768  140.4595  143.5868 H   0  0  0  0  0  0  0  0  0  0  0  0  # atno 7974 bound_to 7965
  155.6815  140.0745  157.2483 H   0  0  0  0  0  0  0  0  0  0  0  0  # atno 8008 bound_to 7997
  154.4104  140.1681  156.2039 H   0  0  0  0  0  0  0  0  0  0  0  0  # atno 8009 bound_to 7997
  155.9531  140.3376  155.6428 H   0  0  0  0  0  0  0  0  0  0  0  0  # atno 8010 bound_to 7997
  139.4847  144.4560  151.8767 H   0  0  0  0  0  0  0  0  0  0  0  0  # atno 10167 bound_to 10162
  156.1576  130.6579  151.0004 H   0  0  0  0  0  0  0  0  0  0  0  0  # atno 10718 bound_to 10713
  153.5095  135.3621  155.2580 H   0  0  0  0  0  0  0  0  0  0  0  0  # atno 10763 bound_to 10752
  154.8743  135.4019  154.3385 H   0  0  0  0  0  0  0  0  0  0  0  0  # atno 10764 bound_to 10752
  153.4035  135.7075  153.6476 H   0  0  0  0  0  0  0  0  0  0  0  0  # atno 10765 bound_to 10752
  139.9580  134.9608  156.9055 H   0  0  0  0  0  0  0  0  0  0  0  0  # atno 11005 bound_to 11000
  145.6164  139.1519  143.3047 LP  0  0  0  0  0  0  0  0  0  0  0  0  # atno 17320 bound_to 7965
  146.1952  140.6277  142.9127 LP  0  0  0  0  0  0  0  0  0  0  0  0  # atno 17321 bound_to 7965
  140.4020  144.2481  150.5892 LP  0  0  0  0  0  0  0  0  0  0  0  0  # atno 17342 bound_to 10162
  140.5048  143.2307  151.8624 LP  0  0  0  0  0  0  0  0  0  0  0  0  # atno 17343 bound_to 10162
  157.6707  131.0862  150.7618 LP  0  0  0  0  0  0  0  0  0  0  0  0  # atno 17370 bound_to 10713
  156.7683  130.4820  149.5423 LP  0  0  0  0  0  0  0  0  0  0  0  0  # atno 17371 bound_to 10713
  140.5564  134.0577  155.7385 LP  0  0  0  0  0  0  0  0  0  0  0  0  # atno 17394 bound_to 11000
  141.1254  133.9391  157.2645 LP  0  0  0  0  0  0  0  0  0  0  0  0  # atno 17395 bound_to 11000

$$$$
