AV-unprocessed.smi:1196|AV-procd|sdf|5000|dock1
  -GOLD-   22720 4 03D 1   1.00000     0.00000
 Structure written by MMmdl.
 36 37  0  0  0  0  0  0  0  0  2 V2000
  151.1160  145.3386  158.8110 C   0  0  0  0  0  0  0  0  0  0  0  0
  151.0642  143.8119  158.9767 C   0  0  2  0  0  0  0  0  0  0  0  0
  152.4754  143.2160  159.1468 C   0  0  0  0  0  0  0  0  0  0  0  0
  152.8364  143.0347  160.5417 N   0  0  0  0  0  0  0  0  0  0  0  0
  152.5518  143.8532  161.6146 C   0  0  0  0  0  0  0  0  0  0  0  0
  153.1014  143.2757  162.7230 C   0  0  0  0  0  0  0  0  0  0  0  0
  153.7086  142.0912  162.2204 C   0  0  0  0  0  0  0  0  0  0  0  0
  153.5463  141.9482  160.9150 N   0  0  0  0  0  0  0  0  0  0  0  0
  150.4017  143.2086  157.8219 N   0  0  0  0  0  0  0  0  0  0  0  0
  150.3624  141.8969  157.5415 C   0  0  0  0  0  0  0  0  0  0  0  0
  150.8885  141.0372  158.2487 O   0  0  0  0  0  0  0  0  0  0  0  0
  149.6221  141.4987  156.2628 C   0  0  0  0  0  0  0  0  0  0  0  0
  150.5422  140.8024  155.2419 C   0  0  0  0  0  0  0  0  0  0  0  0
  151.1562  139.4933  155.7810 C   0  0  2  0  0  0  0  0  0  0  0  0
  152.6026  139.4852  155.6411 N   0  5  0  0  0  0  0  0  0  0  0  0
  152.9549  138.4185  154.8851 C   0  0  0  0  0  0  0  0  0  0  0  0
  154.0870  138.0711  154.5566 O   0  0  0  0  0  0  0  0  0  0  0  0
  151.8732  137.7333  154.5004 N   0  0  0  0  0  0  0  0  0  0  0  0
  150.7536  138.2844  154.9577 C   0  0  0  0  0  0  0  0  0  0  0  0
  149.5999  137.9034  154.7651 O   0  0  0  0  0  0  0  0  0  0  0  0
  151.5944  145.8095  159.6702 H   0  0  0  0  0  0  0  0  0  0  0  0
  150.1144  145.7609  158.7227 H   0  0  0  0  0  0  0  0  0  0  0  0
  151.6771  145.6223  157.9201 H   0  0  0  0  0  0  0  0  0  0  0  0
  150.4913  143.5893  159.8789 H   0  0  0  0  0  0  0  0  0  0  0  0
  152.5507  142.2542  158.6373 H   0  0  0  0  0  0  0  0  0  0  0  0
  153.2183  143.8696  158.6871 H   0  0  0  0  0  0  0  0  0  0  0  0
  151.9914  144.7692  161.5004 H   0  0  0  0  0  0  0  0  0  0  0  0
  153.0752  143.6442  163.7377 H   0  0  0  0  0  0  0  0  0  0  0  0
  154.2582  141.3356  162.7619 H   0  0  0  0  0  0  0  0  0  0  0  0
  149.9371  143.8376  157.1831 H   0  0  0  0  0  0  0  0  0  0  0  0
  148.7857  140.8451  156.5152 H   0  0  0  0  0  0  0  0  0  0  0  0
  149.1907  142.3975  155.8216 H   0  0  0  0  0  0  0  0  0  0  0  0
  149.9659  140.5799  154.3421 H   0  0  0  0  0  0  0  0  0  0  0  0
  151.3342  141.4863  154.9299 H   0  0  0  0  0  0  0  0  0  0  0  0
  150.8355  139.3270  156.8103 H   0  0  0  0  0  0  0  0  0  0  0  0
  151.9038  136.9057  153.9241 H   0  0  0  0  0  0  0  0  0  0  0  0
  1  2  1  0  0  0  0
  1 21  1  0  0  0  0
  1 22  1  0  0  0  0
  1 23  1  0  0  0  0
  2  3  1  0  0  0  0
  2  9  1  0  0  0  0
  2 24  1  0  0  0  0
  3  4  1  0  0  0  0
  3 25  1  0  0  0  0
  3 26  1  0  0  0  0
  4  8  1  0  0  0  0
  4  5  1  0  0  0  0
  5  6  2  0  0  0  0
  5 27  1  0  0  0  0
  6  7  1  0  0  0  0
  6 28  1  0  0  0  0
  7  8  2  0  0  0  0
  7 29  1  0  0  0  0
  9 10  1  0  0  0  0
  9 30  1  0  0  0  0
 10 11  2  0  0  0  0
 10 12  1  0  0  0  0
 12 13  1  0  0  0  0
 12 31  1  0  0  0  0
 12 32  1  0  0  0  0
 13 14  1  0  0  0  0
 13 33  1  0  0  0  0
 13 34  1  0  0  0  0
 14 19  1  0  0  0  0
 14 15  1  0  0  0  0
 14 35  1  0  0  0  0
 15 16  1  0  0  0  0
 16 17  2  0  0  0  0
 16 18  1  0  0  0  0
 18 19  1  0  0  0  0
 18 36  1  0  0  0  0
 19 20  2  0  0  0  0
M  CHG  1  15  -1
M  END
> <s_m_source_file>
AV-unprocessed.smi

> <i_m_source_file_index>
1196

> <i_lp_mmshare_version>
43012

> <i_f3d_flags>
0

> <s_epik_input>
bjFbY0hdW2NIXVtjSF1uMVtDSDJdW0NAQEhdKFtDSDNdKVtOSF1DKD1PKVtDSDJdW0NIMl1bQ0BASF0yW05IXUMoPU8pW05IXUMyPU8=

> <s_epik_cmdline>
J2VwaWtfcHl0aG9uJywgJy1waCcsICc3LjAnLCAnLXRuJywgJzgnLCAnLW1hJywgJzIwMCcsICctbWV0YWxfYmluZGluZycsICctaW1hZScsICc8aW5maWxlLm1hZT4nLCAnLW9tYWUnLCAnPG91dGZpbGUubWFlPic=

> <r_lp_tautomer_probability>
1

> <r_epik_Ionization_Penalty>
5.79547

> <r_epik_Ionization_Penalty_Charging>
5.79516

> <r_epik_Ionization_Penalty_Neutral>
0.000313087

> <r_epik_State_Penalty>
5.80096

> <r_epik_Charging_Adjusted_Penalty>
11.5961

> <i_epik_Tot_Q>
-1

> <i_epik_Tot_abs_Q>
1

> <r_epik_Metal_State_Penalty>
2.14443

> <b_epik_Metal_Only>
1

> <s_lp_Force_Field>
OPLS_2005

> <r_lp_Energy>
13.4847

> <b_lp_Chiralities_Consistent>
1

> <s_lp_Variant>
AV-unprocessed.smi:1196-5

> <Gold.Version>
5.8.1

> <Gold.Id.Protein>
6NUR|6NUR_protein|mol2

> <Gold.PLP.Fitness>
51.0562

> <Gold.PLP.PLP>
-45.2391

> <Gold.PLP.part.hbond>
-3.5006

> <Gold.PLP.part.metal>
0.0000

> <Gold.PLP.part.buried>
-4.4609

> <Gold.PLP.part.nonpolar>
-35.6251

> <Gold.PLP.part.repulsive>
0.4056

> <Gold.PLP.ligand.clash>
0.0000

> <Gold.PLP.ligand.torsion>
1.6803

> <Gold.PLP.Chemscore.Hbond>
3.0000

> <Gold.PLP.Chemscore.CHOScore>
0.0000

> <Gold.PLP.Chemscore.Metal>
0.0000

> <Gold.Chemscore.Hbonds>
donor molecule, donor type, donor heavy atom, donor atom, acceptor molecule, acceptor atom, score
      L1  H     9    30       P1  8028  0.99
      P1  H  7997  8009       L1    15  2.00

> <Gold.PLP.Chemscore.Internal.Correction>
0.1777

> <Gold.Rescore>
     Score         DG    S(hbond)    S(metal)    S(lipo)     H(rot)  DE(clash)    DE(int)     intcor
     10.56     -15.78       2.20        0.00      88.69       2.89       1.56       3.67       ----

> <Gold.Chemscore.Fitness>
10.5555

> <Gold.Chemscore.DG>
-15.7829

> <Gold.Chemscore.ZeroCoef>
-5.4800

> <Gold.Chemscore.Hbond>
2.1966

> <Gold.Chemscore.Metal>
0.0000

> <Gold.Chemscore.Lipo>
88.6857

> <Gold.Chemscore.Internal_Hbond>
0.0000

> <Gold.Chemscore.DEClash>
1.5593

> <Gold.Chemscore.DEInternal>
3.6680

> <Gold.Chemscore.Rot>
2.8946

> <Gold.Chemscore.Internal.Correction>
   9.000000E+99

> <Gold.Chemscore.Hbonds>
donor molecule, donor type, donor heavy atom, donor atom, acceptor molecule, acceptor atom, score
      L1  H     9    30       P1  8028  0.84
      P1  H  7997  8009       L1    15  0.25

> <Gold.Chemscore.Hbond.Weighted>
-7.3367

> <Gold.Chemscore.Metal.Weighted>
-0.0000

> <Gold.Chemscore.Lipo.Weighted>
-10.3762

> <Gold.Chemscore.Internal_Hbond.Weighted>
0.0000

> <Gold.Chemscore.DEClash.Weighted>
1.5593

> <Gold.Chemscore.DEInternal.Weighted>
3.6680

> <Gold.Chemscore.Rot.Weighted>
7.4101

> <Gold.Chemscore.Internal.Correction.Weighted>
   9.000000E+99

> <Gold.Protein.RotatedTorsions>
[ 6907 6896 6895 6894 ] final   61.65 input  -60.11 | X-H torsion
[ 7974 7965 7964 7962 ] final   19.52 input  175.53 | X-H torsion
[ 8008 7997 7996 7995 ] final -151.54 input   59.86 | X-H torsion
[ 10167 10162 10161 10158 ] final -168.58 input  -65.29 | X-H torsion
[ 10718 10713 10712 10709 ] final   35.93 input   66.30 | X-H torsion
[ 10763 10752 10751 10750 ] final   17.85 input  -60.55 | X-H torsion
[ 11005 11000 10999 10996 ] final  168.22 input  -57.11 | X-H torsion

> <Gold.Protein.ActiveResidues>
 VAL166  LYS551  ARG553  GLY616  TRP617  ASP618  TYR619  PRO620  LYS621  CYS622 
 ASP623  PHE694  ASN695  SER759  ASP760  ASP761  ALA762  ILE779  LEU786  VAL792 
 PHE793  MET794  SER795  GLU796  ALA797  LYS798  CYS799  TRP800  GLU811  SER814 

> <Gold.Protein.RotatedAtoms>
  152.4106  134.6131  160.0030 H   0  0  0  0  0  0  0  0  0  0  0  0  # atno 6907 bound_to 6896
  151.6309  133.3326  159.3116 H   0  0  0  0  0  0  0  0  0  0  0  0  # atno 6908 bound_to 6896
  150.7997  134.7123  159.6655 H   0  0  0  0  0  0  0  0  0  0  0  0  # atno 6909 bound_to 6896
  146.2146  139.8301  142.8662 H   0  0  0  0  0  0  0  0  0  0  0  0  # atno 7974 bound_to 7965
  155.6411  140.0702  157.2618 H   0  0  0  0  0  0  0  0  0  0  0  0  # atno 8008 bound_to 7997
  154.4183  140.1750  156.1623 H   0  0  0  0  0  0  0  0  0  0  0  0  # atno 8009 bound_to 7997
  155.9855  140.3350  155.6706 H   0  0  0  0  0  0  0  0  0  0  0  0  # atno 8010 bound_to 7997
  139.5976  144.1078  152.1707 H   0  0  0  0  0  0  0  0  0  0  0  0  # atno 10167 bound_to 10162
  157.3287  130.7486  149.6833 H   0  0  0  0  0  0  0  0  0  0  0  0  # atno 10718 bound_to 10713
  153.1301  135.6738  153.9192 H   0  0  0  0  0  0  0  0  0  0  0  0  # atno 10763 bound_to 10752
  153.8680  135.3073  155.3442 H   0  0  0  0  0  0  0  0  0  0  0  0  # atno 10764 bound_to 10752
  154.7700  135.4944  153.9711 H   0  0  0  0  0  0  0  0  0  0  0  0  # atno 10765 bound_to 10752
  140.2849  134.7720  157.3790 H   0  0  0  0  0  0  0  0  0  0  0  0  # atno 11005 bound_to 11000
  145.3006  141.0193  143.3611 LP  0  0  0  0  0  0  0  0  0  0  0  0  # atno 17320 bound_to 7965
  144.9009  139.4651  143.6633 LP  0  0  0  0  0  0  0  0  0  0  0  0  # atno 17321 bound_to 7965
  140.0667  144.5812  150.7222 LP  0  0  0  0  0  0  0  0  0  0  0  0  # atno 17342 bound_to 10162
  140.7224  143.2602  151.4233 LP  0  0  0  0  0  0  0  0  0  0  0  0  # atno 17343 bound_to 10162
  155.9693  130.4202  150.4409 LP  0  0  0  0  0  0  0  0  0  0  0  0  # atno 17370 bound_to 10713
  157.2438  131.0531  151.2421 LP  0  0  0  0  0  0  0  0  0  0  0  0  # atno 17371 bound_to 10713
  140.1249  134.5171  155.8153 LP  0  0  0  0  0  0  0  0  0  0  0  0  # atno 17394 bound_to 11000
  141.2156  133.6769  156.6933 LP  0  0  0  0  0  0  0  0  0  0  0  0  # atno 17395 bound_to 11000

$$$$
