AV-unprocessed.smi:177|AV-procd|sdf|1439|dock7
  -GOLD-   2262019223D 1   1.00000     0.00000
 Structure written by MMmdl.
 61 65  0  0  0  0  0  0  0  0  1 V2000
  151.1401  144.1730  158.5138 C   0  0  0  0  0  0  0  0  0  0  0  0
  150.8466  143.2832  157.4476 O   0  0  0  0  0  0  0  0  0  0  0  0
  150.8833  141.9076  157.8061 C   0  0  2  0  0  0  0  0  0  0  0  0
  152.2316  141.6461  158.4955 C   0  0  0  0  0  0  0  0  0  0  0  0
  152.3762  140.1695  158.8943 C   0  0  0  0  0  0  0  0  0  0  0  0
  152.1909  139.2244  157.6946 C   0  0  2  0  0  0  0  0  0  0  0  0
  153.3001  139.3573  156.8090 O   0  0  0  0  0  0  0  0  0  0  0  0
  153.2468  138.4157  155.7426 C   0  0  0  0  0  0  0  0  0  0  0  0
  151.9817  138.6508  154.9025 C   0  0  0  0  0  0  0  0  0  0  0  0
  150.7942  138.6352  155.7573 N   0  0  0  0  0  0  0  0  0  0  0  0
  149.5777  138.5401  155.1568 C   0  0  0  0  0  0  0  0  0  0  0  0
  149.1212  139.5716  154.3962 N   0  0  0  0  0  0  0  0  0  0  0  0
  147.9224  139.5046  153.8113 C   0  0  0  0  0  0  0  0  0  0  0  0
  147.0286  138.5161  153.8544 N   0  0  0  0  0  0  0  0  0  0  0  0
  147.4776  137.4752  154.6119 C   0  0  0  0  0  0  0  0  0  0  0  0
  148.7312  137.4010  155.2841 C   0  0  0  0  0  0  0  0  0  0  0  0
  148.8480  136.1721  155.9231 N   0  0  0  0  0  0  0  0  0  0  0  0
  147.7251  135.5638  155.6570 C   0  0  0  0  0  0  0  0  0  0  0  0
  146.8338  136.2819  154.8925 N   0  0  0  0  0  0  0  0  0  0  0  0
  145.5191  135.8429  154.4472 C   0  0  0  0  0  0  0  0  0  0  0  0
  145.4140  135.4249  152.9485 C   0  0  0  0  0  0  0  0  0  0  0  0
  145.4709  136.6733  152.0173 C   0  0  0  0  0  0  0  0  0  0  0  0
  144.5202  137.6689  152.3380 O   0  0  0  0  0  0  0  0  0  0  0  0
  146.5005  134.3818  152.5800 C   0  0  0  0  0  0  0  0  0  0  0  0
  146.2384  133.7068  151.2232 C   0  0  0  0  0  0  0  0  0  0  0  0
  144.9660  133.0733  151.2402 O   0  0  0  0  0  0  0  0  0  0  0  0
  143.8955  133.9902  151.4245 C   0  0  0  0  0  0  0  0  0  0  0  0
  144.0443  134.7201  152.7741 C   0  0  0  0  0  0  0  0  0  0  0  0
  150.8754  139.5099  156.9312 C   0  0  2  0  0  0  0  0  0  0  0  0
  150.7408  141.0068  156.5641 C   0  0  0  0  0  0  0  0  0  0  0  0
  151.1318  145.1973  158.1417 H   0  0  0  0  0  0  0  0  0  0  0  0
  152.1294  143.9788  158.9297 H   0  0  0  0  0  0  0  0  0  0  0  0
  150.4045  144.1069  159.3150 H   0  0  0  0  0  0  0  0  0  0  0  0
  150.0844  141.6894  158.5176 H   0  0  0  0  0  0  0  0  0  0  0  0
  153.0483  141.9274  157.8290 H   0  0  0  0  0  0  0  0  0  0  0  0
  152.3247  142.2765  159.3803 H   0  0  0  0  0  0  0  0  0  0  0  0
  153.3494  139.9995  159.3556 H   0  0  0  0  0  0  0  0  0  0  0  0
  151.6314  139.9321  159.6547 H   0  0  0  0  0  0  0  0  0  0  0  0
  152.1750  138.2006  158.0734 H   0  0  0  0  0  0  0  0  0  0  0  0
  154.1353  138.5299  155.1220 H   0  0  0  0  0  0  0  0  0  0  0  0
  153.2651  137.3995  156.1397 H   0  0  0  0  0  0  0  0  0  0  0  0
  152.0505  139.6054  154.3800 H   0  0  0  0  0  0  0  0  0  0  0  0
  151.9070  137.8730  154.1413 H   0  0  0  0  0  0  0  0  0  0  0  0
  147.6378  140.3672  153.2270 H   0  0  0  0  0  0  0  0  0  0  0  0
  147.5091  134.5707  156.0233 H   0  0  0  0  0  0  0  0  0  0  0  0
  145.2227  135.0119  155.0889 H   0  0  0  0  0  0  0  0  0  0  0  0
  144.8093  136.6436  154.6594 H   0  0  0  0  0  0  0  0  0  0  0  0
  146.4445  137.1578  152.0577 H   0  0  0  0  0  0  0  0  0  0  0  0
  145.3256  136.3768  150.9779 H   0  0  0  0  0  0  0  0  0  0  0  0
  144.2446  138.0909  151.5385 H   0  0  0  0  0  0  0  0  0  0  0  0
  147.4949  134.8283  152.5811 H   0  0  0  0  0  0  0  0  0  0  0  0
  146.5232  133.6021  153.3424 H   0  0  0  0  0  0  0  0  0  0  0  0
  146.2968  134.4220  150.4019 H   0  0  0  0  0  0  0  0  0  0  0  0
  146.9993  132.9495  151.0343 H   0  0  0  0  0  0  0  0  0  0  0  0
  143.8496  134.6866  150.5871 H   0  0  0  0  0  0  0  0  0  0  0  0
  142.9586  133.4331  151.4098 H   0  0  0  0  0  0  0  0  0  0  0  0
  143.9131  133.9792  153.5642 H   0  0  0  0  0  0  0  0  0  0  0  0
  143.2309  135.4361  152.8983 H   0  0  0  0  0  0  0  0  0  0  0  0
  150.0635  139.2705  157.6153 H   0  0  0  0  0  0  0  0  0  0  0  0
  149.7761  141.1757  156.0865 H   0  0  0  0  0  0  0  0  0  0  0  0
  151.4992  141.2891  155.8335 H   0  0  0  0  0  0  0  0  0  0  0  0
  1  2  1  0  0  0  0
  1 31  1  0  0  0  0
  1 32  1  0  0  0  0
  1 33  1  0  0  0  0
  2  3  1  0  0  0  0
  3 30  1  0  0  0  0
  3  4  1  0  0  0  0
  3 34  1  0  0  0  0
  4  5  1  0  0  0  0
  4 35  1  0  0  0  0
  4 36  1  0  0  0  0
  5  6  1  0  0  0  0
  5 37  1  0  0  0  0
  5 38  1  0  0  0  0
  6 29  1  0  0  0  0
  6  7  1  0  0  0  0
  6 39  1  0  0  0  0
  7  8  1  0  0  0  0
  8  9  1  0  0  0  0
  8 40  1  0  0  0  0
  8 41  1  0  0  0  0
  9 10  1  0  0  0  0
  9 42  1  0  0  0  0
  9 43  1  0  0  0  0
 10 11  1  0  0  0  0
 10 29  1  0  0  0  0
 11 16  1  0  0  0  0
 11 12  2  0  0  0  0
 12 13  1  0  0  0  0
 13 14  2  0  0  0  0
 13 44  1  0  0  0  0
 14 15  1  0  0  0  0
 15 19  1  0  0  0  0
 15 16  2  0  0  0  0
 16 17  1  0  0  0  0
 17 18  2  0  0  0  0
 18 19  1  0  0  0  0
 18 45  1  0  0  0  0
 19 20  1  0  0  0  0
 20 21  1  0  0  0  0
 20 46  1  0  0  0  0
 20 47  1  0  0  0  0
 21 28  1  0  0  0  0
 21 22  1  0  0  0  0
 21 24  1  0  0  0  0
 22 23  1  0  0  0  0
 22 48  1  0  0  0  0
 22 49  1  0  0  0  0
 23 50  1  0  0  0  0
 24 25  1  0  0  0  0
 24 51  1  0  0  0  0
 24 52  1  0  0  0  0
 25 26  1  0  0  0  0
 25 53  1  0  0  0  0
 25 54  1  0  0  0  0
 26 27  1  0  0  0  0
 27 28  1  0  0  0  0
 27 55  1  0  0  0  0
 27 56  1  0  0  0  0
 28 57  1  0  0  0  0
 28 58  1  0  0  0  0
 29 30  1  0  0  0  0
 29 59  1  0  0  0  0
 30 60  1  0  0  0  0
 30 61  1  0  0  0  0
M  END
> <s_m_source_file>
AV-unprocessed.smi

> <i_m_source_file_index>
177

> <i_lp_mmshare_version>
43012

> <i_f3d_flags>
0

> <s_epik_input>
W0NIM11PW0NASF0oW0NIMl1bQ0gyXTEpW0NIMl1bQ0BIXShbQ0BASF0xMilOKFtDSDJdW0NIMl1PMiljKG5bY0hdbjMpYyhjMzQpbltjSF1uNFtDSDJdQzUoW0NIMl1bT0hdKVtDSDJdW0NIMl1PW0NIMl1bQ0gyXTU=

> <s_epik_cmdline>
J2VwaWtfcHl0aG9uJywgJy1waCcsICc3LjAnLCAnLXRuJywgJzgnLCAnLW1hJywgJzIwMCcsICctbWV0YWxfYmluZGluZycsICctaW1hZScsICc8aW5maWxlLm1hZT4nLCAnLW9tYWUnLCAnPG91dGZpbGUubWFlPic=

> <r_lp_tautomer_probability>
1

> <r_epik_Ionization_Penalty>
0.0065899

> <r_epik_Ionization_Penalty_Charging>
0

> <r_epik_Ionization_Penalty_Neutral>
0.0065899

> <r_epik_State_Penalty>
0.00470042

> <r_epik_Charging_Adjusted_Penalty>
0.00470042

> <i_epik_Tot_Q>
0

> <i_epik_Tot_abs_Q>
0

> <r_epik_Metal_State_Penalty>
-0

> <b_epik_Metal_Only>
0

> <s_lp_Force_Field>
OPLS_2005

> <r_lp_Energy>
44.7828

> <b_lp_Chiralities_Consistent>
1

> <s_lp_Variant>
AV-unprocessed.smi:177-3

> <Gold.Version>
5.8.1

> <Gold.Id.Protein>
6NUR|6NUR_protein|mol2

> <Gold.PLP.Fitness>
42.3288

> <Gold.PLP.PLP>
-35.1920

> <Gold.PLP.part.hbond>
-2.8723

> <Gold.PLP.part.metal>
0.0000

> <Gold.PLP.part.buried>
-5.0389

> <Gold.PLP.part.nonpolar>
-29.4302

> <Gold.PLP.part.repulsive>
1.1097

> <Gold.PLP.ligand.clash>
0.0000

> <Gold.PLP.ligand.torsion>
0.5520

> <Gold.PLP.Chemscore.Hbond>
2.0000

> <Gold.PLP.Chemscore.CHOScore>
0.5809

> <Gold.PLP.Chemscore.Metal>
0.0000

> <Gold.Chemscore.Hbonds>
donor molecule, donor type, donor heavy atom, donor atom, acceptor molecule, acceptor atom, score
      L1  H    23    50       P1 10171  1.00
      P1  H  7997  8010       L1     7  0.46
      L1  C    13    44       P1  7957  0.06

> <Gold.PLP.Chemscore.Internal.Correction>
0.4981

> <Gold.Rescore>
     Score         DG    S(hbond)    S(metal)    S(lipo)     H(rot)  DE(clash)    DE(int)     intcor
     14.95     -15.76       1.89        0.00      90.33       2.58       0.06       0.76       ----

> <Gold.Chemscore.Fitness>
14.9513

> <Gold.Chemscore.DG>
-15.7635

> <Gold.Chemscore.ZeroCoef>
-5.4800

> <Gold.Chemscore.Hbond>
1.8926

> <Gold.Chemscore.Metal>
0.0000

> <Gold.Chemscore.Lipo>
90.3288

> <Gold.Chemscore.Internal_Hbond>
0.0000

> <Gold.Chemscore.DEClash>
0.0565

> <Gold.Chemscore.DEInternal>
0.7558

> <Gold.Chemscore.Rot>
2.5806

> <Gold.Chemscore.Internal.Correction>
   9.000000E+99

> <Gold.Chemscore.Hbonds>
donor molecule, donor type, donor heavy atom, donor atom, acceptor molecule, acceptor atom, score
      L1  H    23    50       P1 10171  1.00
      P1  H  7997  8010       L1     7  0.20

> <Gold.Chemscore.Hbond.Weighted>
-6.3213

> <Gold.Chemscore.Metal.Weighted>
-0.0000

> <Gold.Chemscore.Lipo.Weighted>
-10.5685

> <Gold.Chemscore.Internal_Hbond.Weighted>
0.0000

> <Gold.Chemscore.DEClash.Weighted>
0.0565

> <Gold.Chemscore.DEInternal.Weighted>
0.7558

> <Gold.Chemscore.Rot.Weighted>
6.6062

> <Gold.Chemscore.Internal.Correction.Weighted>
   9.000000E+99

> <Gold.Protein.RotatedTorsions>
[ 6907 6896 6895 6894 ] final -110.76 input  -60.11 | X-H torsion
[ 7974 7965 7964 7962 ] final  164.61 input  175.53 | X-H torsion
[ 8008 7997 7996 7995 ] final   66.53 input   59.86 | X-H torsion
[ 10167 10162 10161 10158 ] final    6.74 input  -65.29 | X-H torsion
[ 10718 10713 10712 10709 ] final   94.94 input   66.30 | X-H torsion
[ 10763 10752 10751 10750 ] final  -30.93 input  -60.55 | X-H torsion
[ 11005 11000 10999 10996 ] final  -77.75 input  -57.11 | X-H torsion

> <Gold.Protein.ActiveResidues>
 VAL166  LYS551  ARG553  GLY616  TRP617  ASP618  TYR619  PRO620  LYS621  CYS622 
 ASP623  PHE694  ASN695  SER759  ASP760  ASP761  ALA762  ILE779  LEU786  VAL792 
 PHE793  MET794  SER795  GLU796  ALA797  LYS798  CYS799  TRP800  GLU811  SER814 

> <Gold.Protein.RotatedAtoms>
  150.7645  133.9335  159.3433 H   0  0  0  0  0  0  0  0  0  0  0  0  # atno 6907 bound_to 6896
  151.7236  135.0887  160.0297 H   0  0  0  0  0  0  0  0  0  0  0  0  # atno 6908 bound_to 6896
  152.3634  133.6288  159.6068 H   0  0  0  0  0  0  0  0  0  0  0  0  # atno 6909 bound_to 6896
  144.7538  139.8350  143.6357 H   0  0  0  0  0  0  0  0  0  0  0  0  # atno 7974 bound_to 7965
  155.6787  140.3496  155.4847 H   0  0  0  0  0  0  0  0  0  0  0  0  # atno 8008 bound_to 7997
  155.9625  140.1140  157.0906 H   0  0  0  0  0  0  0  0  0  0  0  0  # atno 8009 bound_to 7997
  154.4146  140.1173  156.5184 H   0  0  0  0  0  0  0  0  0  0  0  0  # atno 8010 bound_to 7997
  140.6411  143.7772  150.7429 H   0  0  0  0  0  0  0  0  0  0  0  0  # atno 10167 bound_to 10162
  157.6943  131.0529  150.4263 H   0  0  0  0  0  0  0  0  0  0  0  0  # atno 10718 bound_to 10713
  153.7890  135.6899  153.4875 H   0  0  0  0  0  0  0  0  0  0  0  0  # atno 10763 bound_to 10752
  153.1762  135.4524  154.9966 H   0  0  0  0  0  0  0  0  0  0  0  0  # atno 10764 bound_to 10752
  154.8052  135.3354  154.7388 H   0  0  0  0  0  0  0  0  0  0  0  0  # atno 10765 bound_to 10752
  141.1662  133.7035  156.7867 H   0  0  0  0  0  0  0  0  0  0  0  0  # atno 11005 bound_to 11000
  146.1522  139.4609  143.0041 LP  0  0  0  0  0  0  0  0  0  0  0  0  # atno 17320 bound_to 7965
  145.6851  141.0180  143.1585 LP  0  0  0  0  0  0  0  0  0  0  0  0  # atno 17321 bound_to 7965
  140.1404  143.4446  152.2197 LP  0  0  0  0  0  0  0  0  0  0  0  0  # atno 17342 bound_to 10162
  139.5620  144.7411  151.4128 LP  0  0  0  0  0  0  0  0  0  0  0  0  # atno 17343 bound_to 10162
  156.4633  130.4037  149.6562 LP  0  0  0  0  0  0  0  0  0  0  0  0  # atno 17370 bound_to 10713
  156.3669  130.7510  151.2489 LP  0  0  0  0  0  0  0  0  0  0  0  0  # atno 17371 bound_to 10713
  140.2355  134.8653  157.3520 LP  0  0  0  0  0  0  0  0  0  0  0  0  # atno 17394 bound_to 11000
  140.1848  134.4444  155.7750 LP  0  0  0  0  0  0  0  0  0  0  0  0  # atno 17395 bound_to 11000

$$$$
