AV-unprocessed.smi:2312|AV-procd|sdf|9263|dock5
  -GOLD-   2272012483D 1   1.00000     0.00000
 Structure written by MMmdl.
 34 35  0  0  0  0  0  0  0  0  1 V2000
  152.4814  142.4774  160.9254 C   0  0  0  0  0  0  0  0  0  0  0  0
  152.6089  142.8570  159.5613 O   0  0  0  0  0  0  0  0  0  0  0  0
  151.8638  144.0073  159.1600 C   0  0  0  0  0  0  0  0  0  0  0  0
  152.1909  144.4269  157.7201 C   0  0  0  0  0  0  0  0  0  0  0  0
  151.1942  143.9065  156.7941 N   0  0  0  0  0  0  0  0  0  0  0  0
  151.0596  142.6141  156.4725 C   0  0  0  0  0  0  0  0  0  0  0  0
  151.7836  141.7245  156.9203 O   0  0  0  0  0  0  0  0  0  0  0  0
  150.0402  142.4294  155.6168 N   0  0  0  0  0  0  0  0  0  0  0  0
  149.5948  141.2081  155.0440 C   0  0  0  0  0  0  0  0  0  0  0  0
  150.3385  140.1279  154.8263 N   0  0  0  0  0  0  0  0  0  0  0  0
  149.3956  139.3105  154.2707 C   0  0  0  0  0  0  0  0  0  0  0  0
  148.1725  139.8269  154.1490 N   0  0  0  0  0  0  0  0  0  0  0  0
  148.3217  141.0706  154.6620 N   0  0  0  0  0  0  0  0  0  0  0  0
  147.2027  141.9912  154.7210 C   0  0  0  0  0  0  0  0  0  0  0  0
  150.3848  143.7634  159.5147 C   0  0  0  0  0  0  0  0  0  0  0  0
  150.3346  145.1722  160.1086 C   0  0  0  0  0  0  0  0  0  0  0  0
  151.8535  145.0836  160.2639 C   0  0  0  0  0  0  0  0  0  0  0  0
  153.0114  141.5388  161.0855 H   0  0  0  0  0  0  0  0  0  0  0  0
  151.4408  142.3220  161.2110 H   0  0  0  0  0  0  0  0  0  0  0  0
  152.9225  143.2158  161.5944 H   0  0  0  0  0  0  0  0  0  0  0  0
  152.2132  145.5149  157.6412 H   0  0  0  0  0  0  0  0  0  0  0  0
  153.1820  144.0839  157.4220 H   0  0  0  0  0  0  0  0  0  0  0  0
  150.5587  144.5763  156.3857 H   0  0  0  0  0  0  0  0  0  0  0  0
  149.5213  143.2521  155.3480 H   0  0  0  0  0  0  0  0  0  0  0  0
  149.6176  138.3049  153.9446 H   0  0  0  0  0  0  0  0  0  0  0  0
  147.3287  142.7688  153.9673 H   0  0  0  0  0  0  0  0  0  0  0  0
  147.1568  142.4536  155.7073 H   0  0  0  0  0  0  0  0  0  0  0  0
  146.2653  141.4652  154.5365 H   0  0  0  0  0  0  0  0  0  0  0  0
  149.7249  143.6115  158.6599 H   0  0  0  0  0  0  0  0  0  0  0  0
  150.2442  142.9870  160.2691 H   0  0  0  0  0  0  0  0  0  0  0  0
  150.0248  145.9282  159.3852 H   0  0  0  0  0  0  0  0  0  0  0  0
  149.7830  145.2548  161.0456 H   0  0  0  0  0  0  0  0  0  0  0  0
  152.1475  144.7028  161.2436 H   0  0  0  0  0  0  0  0  0  0  0  0
  152.3873  146.0010  160.0141 H   0  0  0  0  0  0  0  0  0  0  0  0
  1  2  1  0  0  0  0
  1 18  1  0  0  0  0
  1 19  1  0  0  0  0
  1 20  1  0  0  0  0
  2  3  1  0  0  0  0
  3 17  1  0  0  0  0
  3  4  1  0  0  0  0
  3 15  1  0  0  0  0
  4  5  1  0  0  0  0
  4 21  1  0  0  0  0
  4 22  1  0  0  0  0
  5  6  1  0  0  0  0
  5 23  1  0  0  0  0
  6  7  2  0  0  0  0
  6  8  1  0  0  0  0
  8  9  1  0  0  0  0
  8 24  1  0  0  0  0
  9 13  1  0  0  0  0
  9 10  2  0  0  0  0
 10 11  1  0  0  0  0
 11 12  2  0  0  0  0
 11 25  1  0  0  0  0
 12 13  1  0  0  0  0
 13 14  1  0  0  0  0
 14 26  1  0  0  0  0
 14 27  1  0  0  0  0
 14 28  1  0  0  0  0
 15 16  1  0  0  0  0
 15 29  1  0  0  0  0
 15 30  1  0  0  0  0
 16 17  1  0  0  0  0
 16 31  1  0  0  0  0
 16 32  1  0  0  0  0
 17 33  1  0  0  0  0
 17 34  1  0  0  0  0
M  END
> <s_m_source_file>
AV-unprocessed.smi

> <i_m_source_file_index>
2312

> <i_lp_mmshare_version>
43012

> <i_f3d_flags>
0

> <s_epik_input>
W0NIMl0xW0NIMl1bQ0gyXUMxKE9bQ0gzXSlbQ0gyXVtOSF1DKD1PKVtOSF1jMm5bY0hdbm4yW0NIM10=

> <s_epik_cmdline>
J2VwaWtfcHl0aG9uJywgJy1waCcsICc3LjAnLCAnLXRuJywgJzgnLCAnLW1hJywgJzIwMCcsICctbWV0YWxfYmluZGluZycsICctaW1hZScsICc8aW5maWxlLm1hZT4nLCAnLW9tYWUnLCAnPG91dGZpbGUubWFlPic=

> <r_lp_tautomer_probability>
1

> <r_epik_Ionization_Penalty>
2.1066e-05

> <r_epik_Ionization_Penalty_Charging>
0

> <r_epik_Ionization_Penalty_Neutral>
2.1066e-05

> <r_epik_State_Penalty>
-0

> <r_epik_Charging_Adjusted_Penalty>
0

> <i_epik_Tot_Q>
0

> <i_epik_Tot_abs_Q>
0

> <r_epik_Metal_State_Penalty>
-0

> <b_epik_Metal_Only>
0

> <s_lp_Force_Field>
OPLS_2005

> <r_lp_Energy>
16.1455

> <b_lp_Chiralities_Consistent>
1

> <s_lp_Variant>
AV-unprocessed.smi:2312-1

> <Gold.Version>
5.8.1

> <Gold.Id.Protein>
6NUR|6NUR_protein|mol2

> <Gold.PLP.Fitness>
41.5957

> <Gold.PLP.PLP>
-34.9808

> <Gold.PLP.part.hbond>
-3.0000

> <Gold.PLP.part.metal>
0.0000

> <Gold.PLP.part.buried>
-2.5402

> <Gold.PLP.part.nonpolar>
-29.8961

> <Gold.PLP.part.repulsive>
0.4382

> <Gold.PLP.ligand.clash>
0.0000

> <Gold.PLP.ligand.torsion>
1.1449

> <Gold.PLP.Chemscore.Hbond>
2.8800

> <Gold.PLP.Chemscore.CHOScore>
0.0000

> <Gold.PLP.Chemscore.Metal>
0.0000

> <Gold.Chemscore.Hbonds>
donor molecule, donor type, donor heavy atom, donor atom, acceptor molecule, acceptor atom, score
      L1  H     5    23       P1  8028  0.88
      L1  H     8    24       P1  8028  1.00
      P1  H  7989  7998       L1    10  0.95

> <Gold.PLP.Chemscore.Internal.Correction>
0.2647

> <Gold.Rescore>
     Score         DG    S(hbond)    S(metal)    S(lipo)     H(rot)  DE(clash)    DE(int)     intcor
     15.77     -18.79       2.83        0.00      70.35       1.71       1.56       1.46       ----

> <Gold.Chemscore.Fitness>
15.7731

> <Gold.Chemscore.DG>
-18.7869

> <Gold.Chemscore.ZeroCoef>
-5.4800

> <Gold.Chemscore.Hbond>
2.8271

> <Gold.Chemscore.Metal>
0.0000

> <Gold.Chemscore.Lipo>
70.3546

> <Gold.Chemscore.Internal_Hbond>
0.0000

> <Gold.Chemscore.DEClash>
1.5559

> <Gold.Chemscore.DEInternal>
1.4579

> <Gold.Chemscore.Rot>
1.7059

> <Gold.Chemscore.Internal.Correction>
   9.000000E+99

> <Gold.Chemscore.Hbonds>
donor molecule, donor type, donor heavy atom, donor atom, acceptor molecule, acceptor atom, score
      L1  H     5    23       P1  8028  0.86
      L1  H     8    24       P1  8028  0.96
      P1  H  7989  7998       L1    10  0.18

> <Gold.Chemscore.Hbond.Weighted>
-9.4424

> <Gold.Chemscore.Metal.Weighted>
-0.0000

> <Gold.Chemscore.Lipo.Weighted>
-8.2315

> <Gold.Chemscore.Internal_Hbond.Weighted>
0.0000

> <Gold.Chemscore.DEClash.Weighted>
1.5559

> <Gold.Chemscore.DEInternal.Weighted>
1.4579

> <Gold.Chemscore.Rot.Weighted>
4.3670

> <Gold.Chemscore.Internal.Correction.Weighted>
   9.000000E+99

> <Gold.Protein.RotatedTorsions>
[ 6907 6896 6895 6894 ] final   38.21 input  -60.11 | X-H torsion
[ 7974 7965 7964 7962 ] final   64.72 input  175.53 | X-H torsion
[ 8008 7997 7996 7995 ] final -135.92 input   59.86 | X-H torsion
[ 10167 10162 10161 10158 ] final   15.60 input  -65.29 | X-H torsion
[ 10718 10713 10712 10709 ] final  112.93 input   66.30 | X-H torsion
[ 10763 10752 10751 10750 ] final  100.40 input  -60.55 | X-H torsion
[ 11005 11000 10999 10996 ] final  -21.88 input  -57.11 | X-H torsion

> <Gold.Protein.ActiveResidues>
 VAL166  LYS551  ARG553  GLY616  TRP617  ASP618  TYR619  PRO620  LYS621  CYS622 
 ASP623  PHE694  ASN695  SER759  ASP760  ASP761  ALA762  ILE779  LEU786  VAL792 
 PHE793  MET794  SER795  GLU796  ALA797  LYS798  CYS799  TRP800  GLU811  SER814 

> <Gold.Protein.RotatedAtoms>
  152.1535  134.8969  160.0546 H   0  0  0  0  0  0  0  0  0  0  0  0  # atno 6907 bound_to 6896
  151.9992  133.3814  159.4183 H   0  0  0  0  0  0  0  0  0  0  0  0  # atno 6908 bound_to 6896
  150.6878  134.3774  159.5063 H   0  0  0  0  0  0  0  0  0  0  0  0  # atno 6909 bound_to 6896
  145.8469  139.3230  143.0898 H   0  0  0  0  0  0  0  0  0  0  0  0  # atno 7974 bound_to 7965
  155.3866  140.0497  157.3042 H   0  0  0  0  0  0  0  0  0  0  0  0  # atno 8008 bound_to 7997
  154.5056  140.2173  155.9219 H   0  0  0  0  0  0  0  0  0  0  0  0  # atno 8009 bound_to 7997
  156.1521  140.3133  155.8671 H   0  0  0  0  0  0  0  0  0  0  0  0  # atno 8010 bound_to 7997
  140.5856  143.8896  150.6827 H   0  0  0  0  0  0  0  0  0  0  0  0  # atno 10167 bound_to 10162
  157.6366  131.0975  150.6967 H   0  0  0  0  0  0  0  0  0  0  0  0  # atno 10718 bound_to 10713
  153.3135  135.4080  155.1356 H   0  0  0  0  0  0  0  0  0  0  0  0  # atno 10763 bound_to 10752
  154.8582  135.3570  154.5691 H   0  0  0  0  0  0  0  0  0  0  0  0  # atno 10764 bound_to 10752
  153.6121  135.7067  153.5401 H   0  0  0  0  0  0  0  0  0  0  0  0  # atno 10765 bound_to 10752
  140.8604  133.7792  156.0068 H   0  0  0  0  0  0  0  0  0  0  0  0  # atno 11005 bound_to 11000
  145.9402  140.8985  143.0312 LP  0  0  0  0  0  0  0  0  0  0  0  0  # atno 17320 bound_to 7965
  144.6731  140.1537  143.7428 LP  0  0  0  0  0  0  0  0  0  0  0  0  # atno 17321 bound_to 7965
  140.2406  143.3666  152.1490 LP  0  0  0  0  0  0  0  0  0  0  0  0  # atno 17342 bound_to 10162
  139.5196  144.7021  151.5462 LP  0  0  0  0  0  0  0  0  0  0  0  0  # atno 17343 bound_to 10162
  156.7297  130.4706  149.5502 LP  0  0  0  0  0  0  0  0  0  0  0  0  # atno 17370 bound_to 10713
  156.1610  130.6374  151.0719 LP  0  0  0  0  0  0  0  0  0  0  0  0  # atno 17371 bound_to 10713
  140.8690  134.2750  157.5200 LP  0  0  0  0  0  0  0  0  0  0  0  0  # atno 17394 bound_to 11000
  139.8707  134.9557  156.4215 LP  0  0  0  0  0  0  0  0  0  0  0  0  # atno 17395 bound_to 11000

$$$$
