AV-unprocessed.smi:861|AV-procd|sdf|3966|dock6
  -GOLD-   22720 1443D 1   1.00000     0.00000
 Structure written by MMmdl.
 44 45  0  0  0  0  0  0  0  0  2 V2000
  153.0140  143.4228  159.8691 C   0  0  0  0  0  0  0  0  0  0  0  0
  152.2921  144.5016  159.0441 C   0  0  0  0  0  0  0  0  0  0  0  0
  152.0632  145.7610  159.8938 C   0  0  0  0  0  0  0  0  0  0  0  0
  150.9617  143.9971  158.4491 C   0  0  0  0  0  0  0  0  0  0  0  0
  151.1178  142.7916  157.5016 C   0  0  0  0  0  0  0  0  0  0  0  0
  149.8533  142.4469  156.8041 N   0  3  1  0  0  0  0  0  0  0  0  0
  150.0798  141.5690  155.6318 C   0  0  0  0  0  0  0  0  0  0  0  0
  148.7536  141.2801  154.9104 C   0  0  0  0  0  0  0  0  0  0  0  0
  147.8318  140.7032  155.8261 O   0  0  0  0  0  0  0  0  0  0  0  0
  147.5245  141.5762  156.9070 C   0  0  1  0  0  0  0  0  0  0  0  0
  146.4444  140.8883  157.7619 C   0  0  0  0  0  0  0  0  0  0  0  0
  145.4420  141.8169  158.2733 N   0  0  0  0  0  0  0  0  0  0  0  0
  145.7535  142.7747  159.2496 C   0  0  0  0  0  0  0  0  0  0  0  0
  144.8736  143.8582  159.4453 C   0  0  0  0  0  0  0  0  0  0  0  0
  145.2084  144.8015  160.4324 C   0  0  0  0  0  0  0  0  0  0  0  0
  146.3989  144.5887  161.1511 C   0  0  0  0  0  0  0  0  0  0  0  0
  147.2071  143.5290  160.9226 N   0  0  0  0  0  0  0  0  0  0  0  0
  146.8876  142.6341  159.9811 N   0  0  0  0  0  0  0  0  0  0  0  0
  148.8205  141.8615  157.6946 C   0  0  0  0  0  0  0  0  0  0  0  0
  152.3892  143.0644  160.6877 H   0  0  0  0  0  0  0  0  0  0  0  0
  153.9346  143.8141  160.3032 H   0  0  0  0  0  0  0  0  0  0  0  0
  153.2901  142.5644  159.2571 H   0  0  0  0  0  0  0  0  0  0  0  0
  152.9470  144.7852  158.2190 H   0  0  0  0  0  0  0  0  0  0  0  0
  151.4160  145.5522  160.7463 H   0  0  0  0  0  0  0  0  0  0  0  0
  151.5968  146.5534  159.3079 H   0  0  0  0  0  0  0  0  0  0  0  0
  153.0052  146.1519  160.2801 H   0  0  0  0  0  0  0  0  0  0  0  0
  150.2786  143.7561  159.2637 H   0  0  0  0  0  0  0  0  0  0  0  0
  150.4957  144.8123  157.8938 H   0  0  0  0  0  0  0  0  0  0  0  0
  151.8714  143.0419  156.7535 H   0  0  0  0  0  0  0  0  0  0  0  0
  151.4886  141.9157  158.0352 H   0  0  0  0  0  0  0  0  0  0  0  0
  150.7768  142.0433  154.9399 H   0  0  0  0  0  0  0  0  0  0  0  0
  150.5377  140.6340  155.9588 H   0  0  0  0  0  0  0  0  0  0  0  0
  148.3369  142.1908  154.4769 H   0  0  0  0  0  0  0  0  0  0  0  0
  148.9171  140.5829  154.0886 H   0  0  0  0  0  0  0  0  0  0  0  0
  147.1282  142.5080  156.5001 H   0  0  0  0  0  0  0  0  0  0  0  0
  145.9504  140.1065  157.1834 H   0  0  0  0  0  0  0  0  0  0  0  0
  146.9104  140.3858  158.6099 H   0  0  0  0  0  0  0  0  0  0  0  0
  144.5218  141.8128  157.8569 H   0  0  0  0  0  0  0  0  0  0  0  0
  143.9720  143.9662  158.8603 H   0  0  0  0  0  0  0  0  0  0  0  0
  144.5779  145.6552  160.6322 H   0  0  0  0  0  0  0  0  0  0  0  0
  146.7091  145.2777  161.9226 H   0  0  0  0  0  0  0  0  0  0  0  0
  149.2014  140.9414  158.1410 H   0  0  0  0  0  0  0  0  0  0  0  0
  148.6010  142.5470  158.5121 H   0  0  0  0  0  0  0  0  0  0  0  0
  149.4763  143.3117  156.4426 H   0  0  0  0  0  0  0  0  0  0  0  0
  1  2  1  0  0  0  0
  1 20  1  0  0  0  0
  1 21  1  0  0  0  0
  1 22  1  0  0  0  0
  2  3  1  0  0  0  0
  2  4  1  0  0  0  0
  2 23  1  0  0  0  0
  3 24  1  0  0  0  0
  3 25  1  0  0  0  0
  3 26  1  0  0  0  0
  4  5  1  0  0  0  0
  4 27  1  0  0  0  0
  4 28  1  0  0  0  0
  5  6  1  0  0  0  0
  5 29  1  0  0  0  0
  5 30  1  0  0  0  0
  6 19  1  0  0  0  0
  6  7  1  0  0  0  0
  6 44  1  0  0  0  0
  7  8  1  0  0  0  0
  7 31  1  0  0  0  0
  7 32  1  0  0  0  0
  8  9  1  0  0  0  0
  8 33  1  0  0  0  0
  8 34  1  0  0  0  0
  9 10  1  0  0  0  0
 10 11  1  0  0  0  0
 10 19  1  0  0  0  0
 10 35  1  0  0  0  0
 11 12  1  0  0  0  0
 11 36  1  0  0  0  0
 11 37  1  0  0  0  0
 12 13  1  0  0  0  0
 12 38  1  0  0  0  0
 13 18  1  0  0  0  0
 13 14  2  0  0  0  0
 14 15  1  0  0  0  0
 14 39  1  0  0  0  0
 15 16  2  0  0  0  0
 15 40  1  0  0  0  0
 16 17  1  0  0  0  0
 16 41  1  0  0  0  0
 17 18  2  0  0  0  0
 19 42  1  0  0  0  0
 19 43  1  0  0  0  0
M  CHG  1   6   1
M  END
> <s_m_source_file>
AV-unprocessed.smi

> <i_m_source_file_index>
861

> <i_lp_mmshare_version>
43012

> <i_f3d_flags>
0

> <s_epik_input>
W0NIM11bQ0hdKFtDSDNdKVtDSDJdW0NIMl1OMVtDSDJdW0NIMl1PW0NASF0oW0NIMl0xKVtDSDJdW05IXWMyW2NIXVtjSF1bY0hdbm4y

> <s_epik_cmdline>
J2VwaWtfcHl0aG9uJywgJy1waCcsICc3LjAnLCAnLXRuJywgJzgnLCAnLW1hJywgJzIwMCcsICctbWV0YWxfYmluZGluZycsICctaW1hZScsICc8aW5maWxlLm1hZT4nLCAnLW9tYWUnLCAnPG91dGZpbGUubWFlPic=

> <r_lp_tautomer_probability>
0.999978

> <r_epik_Ionization_Penalty>
0.114704

> <r_epik_Ionization_Penalty_Charging>
0.0953451

> <r_epik_Ionization_Penalty_Neutral>
0.0193593

> <r_epik_State_Penalty>
0.104983

> <r_epik_Charging_Adjusted_Penalty>
0.200328

> <i_epik_Tot_Q>
1

> <i_epik_Tot_abs_Q>
1

> <r_epik_Metal_State_Penalty>
0.100113

> <b_epik_Metal_Only>
0

> <s_lp_Force_Field>
OPLS_2005

> <r_lp_Energy>
24.1259

> <b_lp_Chiralities_Consistent>
1

> <s_lp_Variant>
AV-unprocessed.smi:861-1

> <Gold.Version>
5.8.1

> <Gold.Id.Protein>
6NUR|6NUR_protein|mol2

> <Gold.PLP.Fitness>
45.9179

> <Gold.PLP.PLP>
-36.0353

> <Gold.PLP.part.hbond>
-4.4849

> <Gold.PLP.part.metal>
0.0000

> <Gold.PLP.part.buried>
-5.7706

> <Gold.PLP.part.nonpolar>
-26.5674

> <Gold.PLP.part.repulsive>
0.2084

> <Gold.PLP.ligand.clash>
0.0000

> <Gold.PLP.ligand.torsion>
0.7492

> <Gold.PLP.Chemscore.Hbond>
3.7772

> <Gold.PLP.Chemscore.CHOScore>
0.0000

> <Gold.PLP.Chemscore.Metal>
0.0000

> <Gold.Chemscore.Hbonds>
donor molecule, donor type, donor heavy atom, donor atom, acceptor molecule, acceptor atom, score
      L1  H     6    44       P1  8028  2.00
      P1  H  6933  6944       L1    17  0.35
      P1  H  6934  6946       L1    18  0.94

> <Gold.PLP.Chemscore.Internal.Correction>
0.0494

> <Gold.Rescore>
     Score         DG    S(hbond)    S(metal)    S(lipo)     H(rot)  DE(clash)    DE(int)     intcor
     16.31     -17.21       1.69        0.00      89.41       1.71       0.04       0.85       ----

> <Gold.Chemscore.Fitness>
16.3145

> <Gold.Chemscore.DG>
-17.2106

> <Gold.Chemscore.ZeroCoef>
-5.4800

> <Gold.Chemscore.Hbond>
1.6928

> <Gold.Chemscore.Metal>
0.0000

> <Gold.Chemscore.Lipo>
89.4115

> <Gold.Chemscore.Internal_Hbond>
0.0000

> <Gold.Chemscore.DEClash>
0.0424

> <Gold.Chemscore.DEInternal>
0.8537

> <Gold.Chemscore.Rot>
1.7127

> <Gold.Chemscore.Internal.Correction>
   9.000000E+99

> <Gold.Chemscore.Hbonds>
donor molecule, donor type, donor heavy atom, donor atom, acceptor molecule, acceptor atom, score
      L1  H     6    44       P1  8028  1.00
      P1  H  6933  6944       L1    17  0.01
      P1  H  6934  6946       L1    18  0.47

> <Gold.Chemscore.Hbond.Weighted>
-5.6539

> <Gold.Chemscore.Metal.Weighted>
-0.0000

> <Gold.Chemscore.Lipo.Weighted>
-10.4611

> <Gold.Chemscore.Internal_Hbond.Weighted>
0.0000

> <Gold.Chemscore.DEClash.Weighted>
0.0424

> <Gold.Chemscore.DEInternal.Weighted>
0.8537

> <Gold.Chemscore.Rot.Weighted>
4.3844

> <Gold.Chemscore.Internal.Correction.Weighted>
   9.000000E+99

> <Gold.Protein.RotatedTorsions>
[ 6907 6896 6895 6894 ] final    4.42 input  -60.11 | X-H torsion
[ 7974 7965 7964 7962 ] final -118.63 input  175.53 | X-H torsion
[ 8008 7997 7996 7995 ] final  -78.50 input   59.86 | X-H torsion
[ 10167 10162 10161 10158 ] final  136.14 input  -65.29 | X-H torsion
[ 10718 10713 10712 10709 ] final  -82.25 input   66.30 | X-H torsion
[ 10763 10752 10751 10750 ] final   36.67 input  -60.55 | X-H torsion
[ 11005 11000 10999 10996 ] final  172.10 input  -57.11 | X-H torsion

> <Gold.Protein.ActiveResidues>
 VAL166  LYS551  ARG553  GLY616  TRP617  ASP618  TYR619  PRO620  LYS621  CYS622 
 ASP623  PHE694  ASN695  SER759  ASP760  ASP761  ALA762  ILE779  LEU786  VAL792 
 PHE793  MET794  SER795  GLU796  ALA797  LYS798  CYS799  TRP800  GLU811  SER814 

> <Gold.Protein.RotatedAtoms>
  151.6411  135.1012  160.0141 H   0  0  0  0  0  0  0  0  0  0  0  0  # atno 6907 bound_to 6896
  152.4054  133.6876  159.6360 H   0  0  0  0  0  0  0  0  0  0  0  0  # atno 6908 bound_to 6896
  150.7949  133.8636  159.3279 H   0  0  0  0  0  0  0  0  0  0  0  0  # atno 6909 bound_to 6896
  145.0717  140.8363  143.4092 H   0  0  0  0  0  0  0  0  0  0  0  0  # atno 7974 bound_to 7965
  154.5695  140.0693  156.8943 H   0  0  0  0  0  0  0  0  0  0  0  0  # atno 8008 bound_to 7997
  155.2660  140.3362  155.4251 H   0  0  0  0  0  0  0  0  0  0  0  0  # atno 8009 bound_to 7997
  156.2107  140.1758  156.7686 H   0  0  0  0  0  0  0  0  0  0  0  0  # atno 8010 bound_to 7997
  139.5191  144.6480  151.5383 H   0  0  0  0  0  0  0  0  0  0  0  0  # atno 10167 bound_to 10162
  156.0036  130.4628  150.4076 H   0  0  0  0  0  0  0  0  0  0  0  0  # atno 10718 bound_to 10713
  153.0067  135.6299  154.2023 H   0  0  0  0  0  0  0  0  0  0  0  0  # atno 10763 bound_to 10752
  154.1766  135.2815  155.3066 H   0  0  0  0  0  0  0  0  0  0  0  0  # atno 10764 bound_to 10752
  154.5867  135.5630  153.7298 H   0  0  0  0  0  0  0  0  0  0  0  0  # atno 10765 bound_to 10752
  140.3261  134.7397  157.4100 H   0  0  0  0  0  0  0  0  0  0  0  0  # atno 11005 bound_to 11000
  145.1285  139.2647  143.5552 LP  0  0  0  0  0  0  0  0  0  0  0  0  # atno 17320 bound_to 7965
  146.3529  140.0929  142.8611 LP  0  0  0  0  0  0  0  0  0  0  0  0  # atno 17321 bound_to 7965
  140.6273  143.9143  150.6575 LP  0  0  0  0  0  0  0  0  0  0  0  0  # atno 17342 bound_to 10162
  140.2436  143.3645  152.1465 LP  0  0  0  0  0  0  0  0  0  0  0  0  # atno 17343 bound_to 10162
  157.2141  131.0467  151.2583 LP  0  0  0  0  0  0  0  0  0  0  0  0  # atno 17370 bound_to 10713
  157.3862  130.7257  149.6664 LP  0  0  0  0  0  0  0  0  0  0  0  0  # atno 17371 bound_to 10713
  140.0900  134.5613  155.8453 LP  0  0  0  0  0  0  0  0  0  0  0  0  # atno 17394 bound_to 11000
  141.2075  133.6664  156.6309 LP  0  0  0  0  0  0  0  0  0  0  0  0  # atno 17395 bound_to 11000

$$$$
