AV-unprocessed.smi:2453|AV-procd|sdf|9693|dock3
  -GOLD-   2272013333D 1   1.00000     0.00000
 Structure written by MMmdl.
 41 42  0  0  0  0  0  0  0  0  2 V2000
  150.4583  139.0854  153.8483 C   0  0  0  0  0  0  0  0  0  0  0  0
  149.2709  140.0194  154.0043 C   0  0  0  0  0  0  0  0  0  0  0  0
  149.4878  141.3588  154.3953 C   0  0  0  0  0  0  0  0  0  0  0  0
  148.4442  142.2026  154.5342 N   0  3  0  0  0  0  0  0  0  0  0  0
  147.1685  141.8275  154.3073 C   0  0  0  0  0  0  0  0  0  0  0  0
  146.8840  140.5050  153.9132 C   0  0  0  0  0  0  0  0  0  0  0  0
  147.9446  139.5731  153.7698 C   0  0  0  0  0  0  0  0  0  0  0  0
  147.7461  138.2221  153.3637 N   0  0  0  0  0  0  0  0  0  0  0  0
  146.7302  137.3921  153.6578 C   0  0  0  0  0  0  0  0  0  0  0  0
  145.7562  137.6766  154.3540 O   0  0  0  0  0  0  0  0  0  0  0  0
  146.9170  136.1850  153.1050 N   0  0  0  0  0  0  0  0  0  0  0  0
  146.0013  135.0477  153.2154 C   0  0  2  0  0  0  0  0  0  0  0  0
  146.6757  133.8617  153.9398 C   0  0  0  0  0  0  0  0  0  0  0  0
  147.7794  133.2123  153.0887 C   0  0  0  0  0  0  0  0  0  0  0  0
  147.2395  132.7861  151.7162 C   0  0  0  0  0  0  0  0  0  0  0  0
  146.5852  133.9667  150.9810 C   0  0  0  0  0  0  0  0  0  0  0  0
  145.4663  134.6174  151.8230 C   0  0  2  0  0  0  0  0  0  0  0  0
  144.7786  135.7578  151.0419 C   0  0  0  0  0  0  0  0  0  0  0  0
  144.1182  135.2598  149.8976 O   0  0  0  0  0  0  0  0  0  0  0  0
  151.3944  139.5914  154.0864 H   0  0  0  0  0  0  0  0  0  0  0  0
  150.5239  138.7211  152.8226 H   0  0  0  0  0  0  0  0  0  0  0  0
  150.3600  138.2279  154.5149 H   0  0  0  0  0  0  0  0  0  0  0  0
  150.4615  141.7806  154.5991 H   0  0  0  0  0  0  0  0  0  0  0  0
  146.4176  142.5928  154.4403 H   0  0  0  0  0  0  0  0  0  0  0  0
  145.8572  140.2381  153.7176 H   0  0  0  0  0  0  0  0  0  0  0  0
  148.5079  137.8147  152.8416 H   0  0  0  0  0  0  0  0  0  0  0  0
  147.7525  136.0362  152.5586 H   0  0  0  0  0  0  0  0  0  0  0  0
  145.1473  135.3622  153.8182 H   0  0  0  0  0  0  0  0  0  0  0  0
  147.0832  134.1791  154.9003 H   0  0  0  0  0  0  0  0  0  0  0  0
  145.9190  133.1107  154.1702 H   0  0  0  0  0  0  0  0  0  0  0  0
  148.6062  133.9115  152.9579 H   0  0  0  0  0  0  0  0  0  0  0  0
  148.1890  132.3473  153.6110 H   0  0  0  0  0  0  0  0  0  0  0  0
  148.0469  132.3727  151.1114 H   0  0  0  0  0  0  0  0  0  0  0  0
  146.5089  131.9863  151.8442 H   0  0  0  0  0  0  0  0  0  0  0  0
  147.3452  134.7087  150.7333 H   0  0  0  0  0  0  0  0  0  0  0  0
  146.1797  133.6172  150.0310 H   0  0  0  0  0  0  0  0  0  0  0  0
  144.7114  133.8472  151.9914 H   0  0  0  0  0  0  0  0  0  0  0  0
  144.0659  136.2975  151.6656 H   0  0  0  0  0  0  0  0  0  0  0  0
  145.5197  136.4853  150.7095 H   0  0  0  0  0  0  0  0  0  0  0  0
  144.7495  135.1718  149.1998 H   0  0  0  0  0  0  0  0  0  0  0  0
  148.6279  143.1658  154.8172 H   0  0  0  0  0  0  0  0  0  0  0  0
  1  2  1  0  0  0  0
  1 20  1  0  0  0  0
  1 21  1  0  0  0  0
  1 22  1  0  0  0  0
  2  7  1  0  0  0  0
  2  3  2  0  0  0  0
  3  4  1  0  0  0  0
  3 23  1  0  0  0  0
  4  5  2  0  0  0  0
  4 41  1  0  0  0  0
  5  6  1  0  0  0  0
  5 24  1  0  0  0  0
  6  7  2  0  0  0  0
  6 25  1  0  0  0  0
  7  8  1  0  0  0  0
  8  9  1  0  0  0  0
  8 26  1  0  0  0  0
  9 10  2  0  0  0  0
  9 11  1  0  0  0  0
 11 12  1  0  0  0  0
 11 27  1  0  0  0  0
 12 17  1  0  0  0  0
 12 13  1  0  0  0  0
 12 28  1  0  0  0  0
 13 14  1  0  0  0  0
 13 29  1  0  0  0  0
 13 30  1  0  0  0  0
 14 15  1  0  0  0  0
 14 31  1  0  0  0  0
 14 32  1  0  0  0  0
 15 16  1  0  0  0  0
 15 33  1  0  0  0  0
 15 34  1  0  0  0  0
 16 17  1  0  0  0  0
 16 35  1  0  0  0  0
 16 36  1  0  0  0  0
 17 18  1  0  0  0  0
 17 37  1  0  0  0  0
 18 19  1  0  0  0  0
 18 38  1  0  0  0  0
 18 39  1  0  0  0  0
 19 40  1  0  0  0  0
M  CHG  1   4   1
M  END
> <s_m_source_file>
AV-unprocessed.smi

> <i_m_source_file_index>
2453

> <i_lp_mmshare_version>
43012

> <i_f3d_flags>
0

> <s_epik_input>
W0NIM11jMVtjSF1uW2NIXVtjSF1jMVtOSF1DKD1PKVtOSF1bQ0BASF0yW0NIMl1bQ0gyXVtDSDJdW0NIMl1bQ0BIXTJbQ0gyXVtPSF0=

> <s_epik_cmdline>
J2VwaWtfcHl0aG9uJywgJy1waCcsICc3LjAnLCAnLXRuJywgJzgnLCAnLW1hJywgJzIwMCcsICctbWV0YWxfYmluZGluZycsICctaW1hZScsICc8aW5maWxlLm1hZT4nLCAnLW9tYWUnLCAnPG91dGZpbGUubWFlPic=

> <r_epik_Ionization_Penalty>
0.71493

> <r_epik_Ionization_Penalty_Charging>
0.714909

> <r_epik_Ionization_Penalty_Neutral>
2.10174e-05

> <r_epik_State_Penalty>
0.738815

> <r_epik_Charging_Adjusted_Penalty>
1.45372

> <i_epik_Tot_Q>
1

> <i_epik_Tot_abs_Q>
1

> <r_epik_Metal_State_Penalty>
0.896004

> <b_epik_Metal_Only>
0

> <s_lp_Force_Field>
OPLS_2005

> <r_lp_Energy>
23.4008

> <b_lp_Chiralities_Consistent>
1

> <s_lp_Variant>
AV-unprocessed.smi:2453-7

> <Gold.Version>
5.8.1

> <Gold.Id.Protein>
6NUR|6NUR_protein|mol2

> <Gold.PLP.Fitness>
46.4399

> <Gold.PLP.PLP>
-32.5852

> <Gold.PLP.part.hbond>
-4.0000

> <Gold.PLP.part.metal>
0.0000

> <Gold.PLP.part.buried>
-3.8941

> <Gold.PLP.part.nonpolar>
-25.4073

> <Gold.PLP.part.repulsive>
0.3520

> <Gold.PLP.ligand.clash>
0.0000

> <Gold.PLP.ligand.torsion>
0.2823

> <Gold.PLP.Chemscore.Hbond>
4.8000

> <Gold.PLP.Chemscore.CHOScore>
0.0000

> <Gold.PLP.Chemscore.Metal>
0.0000

> <Gold.Chemscore.Hbonds>
donor molecule, donor type, donor heavy atom, donor atom, acceptor molecule, acceptor atom, score
      L1  H     4    41       P1  8028  2.00
      L1  H     8    26       P1  7948  0.83
      L1  H    11    27       P1  7948  0.65
      L1  H    19    40       P1  7921  0.78

> <Gold.PLP.Chemscore.Internal.Correction>
0.0192

> <Gold.Rescore>
     Score         DG    S(hbond)    S(metal)    S(lipo)     H(rot)  DE(clash)    DE(int)     intcor
     21.83     -22.31       3.88        0.00      72.05       1.77       0.11       0.37       ----

> <Gold.Chemscore.Fitness>
21.8318

> <Gold.Chemscore.DG>
-22.3131

> <Gold.Chemscore.ZeroCoef>
-5.4800

> <Gold.Chemscore.Hbond>
3.8757

> <Gold.Chemscore.Metal>
0.0000

> <Gold.Chemscore.Lipo>
72.0519

> <Gold.Chemscore.Internal_Hbond>
0.0000

> <Gold.Chemscore.DEClash>
0.1066

> <Gold.Chemscore.DEInternal>
0.3747

> <Gold.Chemscore.Rot>
1.7742

> <Gold.Chemscore.Internal.Correction>
   9.000000E+99

> <Gold.Chemscore.Hbonds>
donor molecule, donor type, donor heavy atom, donor atom, acceptor molecule, acceptor atom, score
      L1  H     4    41       P1  8028  1.00
      L1  H     8    26       P1  7948  0.83
      L1  H    11    27       P1  7948  0.65
      L1  H    19    40       P1  7921  0.79

> <Gold.Chemscore.Hbond.Weighted>
-12.9450

> <Gold.Chemscore.Metal.Weighted>
-0.0000

> <Gold.Chemscore.Lipo.Weighted>
-8.4301

> <Gold.Chemscore.Internal_Hbond.Weighted>
0.0000

> <Gold.Chemscore.DEClash.Weighted>
0.1066

> <Gold.Chemscore.DEInternal.Weighted>
0.3747

> <Gold.Chemscore.Rot.Weighted>
4.5419

> <Gold.Chemscore.Internal.Correction.Weighted>
   9.000000E+99

> <Gold.Protein.RotatedTorsions>
[ 6907 6896 6895 6894 ] final -100.53 input  -60.11 | X-H torsion
[ 7974 7965 7964 7962 ] final -110.08 input  175.53 | X-H torsion
[ 8008 7997 7996 7995 ] final   26.36 input   59.86 | X-H torsion
[ 10167 10162 10161 10158 ] final   20.22 input  -65.29 | X-H torsion
[ 10718 10713 10712 10709 ] final  -28.51 input   66.30 | X-H torsion
[ 10763 10752 10751 10750 ] final  112.56 input  -60.55 | X-H torsion
[ 11005 11000 10999 10996 ] final -142.85 input  -57.11 | X-H torsion

> <Gold.Protein.ActiveResidues>
 VAL166  LYS551  ARG553  GLY616  TRP617  ASP618  TYR619  PRO620  LYS621  CYS622 
 ASP623  PHE694  ASN695  SER759  ASP760  ASP761  ALA762  ILE779  LEU786  VAL792 
 PHE793  MET794  SER795  GLU796  ALA797  LYS798  CYS799  TRP800  GLU811  SER814 

> <Gold.Protein.RotatedAtoms>
  150.7119  134.0873  159.3918 H   0  0  0  0  0  0  0  0  0  0  0  0  # atno 6907 bound_to 6896
  151.8857  135.0434  160.0502 H   0  0  0  0  0  0  0  0  0  0  0  0  # atno 6908 bound_to 6896
  152.2532  133.5197  159.5374 H   0  0  0  0  0  0  0  0  0  0  0  0  # atno 6909 bound_to 6896
  145.1727  140.8933  143.3526 H   0  0  0  0  0  0  0  0  0  0  0  0  # atno 7974 bound_to 7965
  155.0261  140.3153  155.4775 H   0  0  0  0  0  0  0  0  0  0  0  0  # atno 8008 bound_to 7997
  156.2883  140.2188  156.5323 H   0  0  0  0  0  0  0  0  0  0  0  0  # atno 8009 bound_to 7997
  154.7410  140.0473  157.0799 H   0  0  0  0  0  0  0  0  0  0  0  0  # atno 8010 bound_to 7997
  140.5520  143.9492  150.6584 H   0  0  0  0  0  0  0  0  0  0  0  0  # atno 10167 bound_to 10162
  156.4243  130.4432  149.7162 H   0  0  0  0  0  0  0  0  0  0  0  0  # atno 10718 bound_to 10713
  153.4797  135.3682  155.2435 H   0  0  0  0  0  0  0  0  0  0  0  0  # atno 10763 bound_to 10752
  154.8755  135.3951  154.3714 H   0  0  0  0  0  0  0  0  0  0  0  0  # atno 10764 bound_to 10752
  153.4316  135.7082  153.6292 H   0  0  0  0  0  0  0  0  0  0  0  0  # atno 10765 bound_to 10752
  140.8184  134.2661  157.4911 H   0  0  0  0  0  0  0  0  0  0  0  0  # atno 11005 bound_to 11000
  145.0217  139.3419  143.6069 LP  0  0  0  0  0  0  0  0  0  0  0  0  # atno 17320 bound_to 7965
  146.3466  139.9519  142.8728 LP  0  0  0  0  0  0  0  0  0  0  0  0  # atno 17321 bound_to 7965
  140.2920  143.3318  152.1053 LP  0  0  0  0  0  0  0  0  0  0  0  0  # atno 17342 bound_to 10162
  139.5031  144.6749  151.6152 LP  0  0  0  0  0  0  0  0  0  0  0  0  # atno 17343 bound_to 10162
  156.4090  130.7712  151.2724 LP  0  0  0  0  0  0  0  0  0  0  0  0  # atno 17370 bound_to 10713
  157.7508  131.0217  150.3761 LP  0  0  0  0  0  0  0  0  0  0  0  0  # atno 17371 bound_to 10713
  139.8710  134.9522  156.4107 LP  0  0  0  0  0  0  0  0  0  0  0  0  # atno 17394 bound_to 11000
  140.9125  133.7702  155.9809 LP  0  0  0  0  0  0  0  0  0  0  0  0  # atno 17395 bound_to 11000

$$$$
