AV-unprocessed.smi:112|AV-procd|sdf|1090|dock9
  -GOLD-   2262018193D 1   1.00000     0.00000
 Structure written by MMmdl.
 54 57  0  0  0  0  0  0  0  0  3 V2000
  147.4340  139.8199  152.8362 C   0  0  0  0  0  0  0  0  0  0  0  0
  147.5332  140.5481  154.1672 C   0  0  0  0  0  0  0  0  0  0  0  0
  146.4418  141.0158  154.8155 C   0  0  0  0  0  0  0  0  0  0  0  0
  146.4934  141.6789  156.0267 N   0  0  0  0  0  0  0  0  0  0  0  0
  145.2111  142.2078  156.6365 C   0  0  1  0  0  0  0  0  0  0  0  0
  145.2581  143.7050  156.9754 C   0  0  0  0  0  0  0  0  0  0  0  0
  143.8296  144.1288  156.6953 C   0  0  2  0  0  0  0  0  0  0  0  0
  143.0229  143.9274  157.8415 O   0  0  0  0  0  0  0  0  0  0  0  0
  143.4347  143.2062  155.5307 C   0  0  2  0  0  0  0  0  0  0  0  0
  141.9345  142.9225  155.3385 C   0  0  0  0  0  0  0  0  0  0  0  0
  141.7464  141.6857  154.6837 O   0  0  0  0  0  0  0  0  0  0  0  0
  144.1591  141.9956  155.7413 O   0  0  0  0  0  0  0  0  0  0  0  0
  147.7475  141.9335  156.6253 C   0  0  0  0  0  0  0  0  0  0  0  0
  147.8358  142.5742  157.6741 O   0  0  0  0  0  0  0  0  0  0  0  0
  148.9067  141.4431  155.9822 N   0  0  0  0  0  0  0  0  0  0  0  0
  150.2263  141.7035  156.6020 C   0  0  0  0  0  0  0  0  0  0  0  0
  150.7865  140.5053  157.4004 C   0  0  0  0  0  0  0  0  0  0  0  0
  150.3626  139.3757  157.1536 O   0  0  0  0  0  0  0  0  0  0  0  0
  151.7276  140.7565  158.3443 N   0  0  0  0  0  0  0  0  0  0  0  0
  152.2295  142.1069  158.6524 C   0  0  0  0  0  0  0  0  0  0  0  0
  153.2650  141.9369  159.7854 C   0  0  0  0  0  0  0  0  0  0  0  0
  153.2749  140.4546  160.0163 C   0  0  0  0  0  0  0  0  0  0  0  0
  154.0634  139.7558  160.9458 C   0  0  0  0  0  0  0  0  0  0  0  0
  153.9407  138.3462  161.0249 C   0  0  0  0  0  0  0  0  0  0  0  0
  154.7525  137.5786  161.9900 N   0  3  0  0  0  0  0  0  0  0  0  0
  154.6129  136.3603  162.0281 O   0  0  0  0  0  0  0  0  0  0  0  0
  155.5310  138.1929  162.7122 O   0  5  0  0  0  0  0  0  0  0  0  0
  153.0265  137.6835  160.1634 C   0  0  0  0  0  0  0  0  0  0  0  0
  152.2414  138.4018  159.2352 C   0  0  0  0  0  0  0  0  0  0  0  0
  152.3797  139.8057  159.1739 C   0  0  0  0  0  0  0  0  0  0  0  0
  148.8619  140.7470  154.7494 C   0  0  0  0  0  0  0  0  0  0  0  0
  149.8989  140.3520  154.2128 O   0  0  0  0  0  0  0  0  0  0  0  0
  146.4014  139.7319  152.4971 H   0  0  0  0  0  0  0  0  0  0  0  0
  147.8440  138.8131  152.9211 H   0  0  0  0  0  0  0  0  0  0  0  0
  147.9927  140.3542  152.0671 H   0  0  0  0  0  0  0  0  0  0  0  0
  145.4760  140.8568  154.3572 H   0  0  0  0  0  0  0  0  0  0  0  0
  145.0187  141.6029  157.5231 H   0  0  0  0  0  0  0  0  0  0  0  0
  145.5803  143.8664  158.0047 H   0  0  0  0  0  0  0  0  0  0  0  0
  145.9428  144.2371  156.3169 H   0  0  0  0  0  0  0  0  0  0  0  0
  143.7684  145.1806  156.4144 H   0  0  0  0  0  0  0  0  0  0  0  0
  143.2317  143.0844  158.2138 H   0  0  0  0  0  0  0  0  0  0  0  0
  143.8254  143.6385  154.6085 H   0  0  0  0  0  0  0  0  0  0  0  0
  141.4437  142.8672  156.3103 H   0  0  0  0  0  0  0  0  0  0  0  0
  141.4401  143.7182  154.7813 H   0  0  0  0  0  0  0  0  0  0  0  0
  141.7466  141.8335  153.7505 H   0  0  0  0  0  0  0  0  0  0  0  0
  150.9531  141.9899  155.8406 H   0  0  0  0  0  0  0  0  0  0  0  0
  150.1714  142.5739  157.2570 H   0  0  0  0  0  0  0  0  0  0  0  0
  152.6991  142.5514  157.7738 H   0  0  0  0  0  0  0  0  0  0  0  0
  151.4184  142.7607  158.9760 H   0  0  0  0  0  0  0  0  0  0  0  0
  154.2546  142.2858  159.4889 H   0  0  0  0  0  0  0  0  0  0  0  0
  152.9631  142.4601  160.6932 H   0  0  0  0  0  0  0  0  0  0  0  0
  154.7475  140.2977  161.5822 H   0  0  0  0  0  0  0  0  0  0  0  0
  152.9177  136.6099  160.2063 H   0  0  0  0  0  0  0  0  0  0  0  0
  151.5604  137.8592  158.5991 H   0  0  0  0  0  0  0  0  0  0  0  0
  1  2  1  0  0  0  0
  1 33  1  0  0  0  0
  1 34  1  0  0  0  0
  1 35  1  0  0  0  0
  2 31  1  0  0  0  0
  2  3  2  0  0  0  0
  3  4  1  0  0  0  0
  3 36  1  0  0  0  0
  4  5  1  0  0  0  0
  4 13  1  0  0  0  0
  5 12  1  0  0  0  0
  5  6  1  0  0  0  0
  5 37  1  0  0  0  0
  6  7  1  0  0  0  0
  6 38  1  0  0  0  0
  6 39  1  0  0  0  0
  7  8  1  0  0  0  0
  7  9  1  0  0  0  0
  7 40  1  0  0  0  0
  8 41  1  0  0  0  0
  9 10  1  0  0  0  0
  9 12  1  0  0  0  0
  9 42  1  0  0  0  0
 10 11  1  0  0  0  0
 10 43  1  0  0  0  0
 10 44  1  0  0  0  0
 11 45  1  0  0  0  0
 13 14  2  0  0  0  0
 13 15  1  0  0  0  0
 15 16  1  0  0  0  0
 15 31  1  0  0  0  0
 16 17  1  0  0  0  0
 16 46  1  0  0  0  0
 16 47  1  0  0  0  0
 17 18  2  0  0  0  0
 17 19  1  0  0  0  0
 19 30  1  0  0  0  0
 19 20  1  0  0  0  0
 20 21  1  0  0  0  0
 20 48  1  0  0  0  0
 20 49  1  0  0  0  0
 21 22  1  0  0  0  0
 21 50  1  0  0  0  0
 21 51  1  0  0  0  0
 22 30  2  0  0  0  0
 22 23  1  0  0  0  0
 23 24  2  0  0  0  0
 23 52  1  0  0  0  0
 24 25  1  0  0  0  0
 24 28  1  0  0  0  0
 25 26  2  0  0  0  0
 25 27  1  0  0  0  0
 28 29  2  0  0  0  0
 28 53  1  0  0  0  0
 29 30  1  0  0  0  0
 29 54  1  0  0  0  0
 31 32  2  0  0  0  0
M  CHG  1  25   1
M  CHG  1  27  -1
M  END
> <s_m_source_file>
AV-unprocessed.smi

> <i_m_source_file_index>
112

> <i_lp_mmshare_version>
43012

> <i_f3d_flags>
0

> <s_epik_input>
W09IXVtDSDJdW0NAQEhdKE8xKVtDQEhdKFtPSF0pW0NIMl1bQ0BIXTFuKFtjSF1jMltDSDNdKWMoPU8pbihjMj1PKVtDSDJdQyg9TylOKFtDSDJdW0NIMl0zKWMoYzM0KVtjSF1bY0hdYyhbY0hdNClbTitdKD1PKVtPLV0=

> <s_epik_cmdline>
J2VwaWtfcHl0aG9uJywgJy1waCcsICc3LjAnLCAnLXRuJywgJzgnLCAnLW1hJywgJzIwMCcsICctbWV0YWxfYmluZGluZycsICctaW1hZScsICc8aW5maWxlLm1hZT4nLCAnLW9tYWUnLCAnPG91dGZpbGUubWFlPic=

> <r_lp_tautomer_probability>
1

> <r_epik_Ionization_Penalty>
2.5696e-07

> <r_epik_Ionization_Penalty_Charging>
1.04886e-08

> <r_epik_Ionization_Penalty_Neutral>
2.46472e-07

> <r_epik_State_Penalty>
-0

> <r_epik_Charging_Adjusted_Penalty>
1.04886e-08

> <i_epik_Tot_Q>
0

> <i_epik_Tot_abs_Q>
2

> <r_epik_Metal_State_Penalty>
-0

> <b_epik_Metal_Only>
0

> <s_epik_Chemistry_Notes>
This compound contains an acetal/aminal-like group ( X-CH(R)-Y where X, Y are N, S, or O) that may be acid/base labile, releasing an aldehyde.

> <s_lp_Force_Field>
OPLS_2005

> <r_lp_Energy>
55.491

> <b_lp_Chiralities_Consistent>
1

> <s_lp_Variant>
AV-unprocessed.smi:112-8

> <Gold.Version>
5.8.1

> <Gold.Id.Protein>
6NUR|6NUR_protein|mol2

> <Gold.PLP.Fitness>
46.5103

> <Gold.PLP.PLP>
-40.6875

> <Gold.PLP.part.hbond>
-2.8187

> <Gold.PLP.part.metal>
0.0000

> <Gold.PLP.part.buried>
-3.9153

> <Gold.PLP.part.nonpolar>
-35.3413

> <Gold.PLP.part.repulsive>
0.9883

> <Gold.PLP.ligand.clash>
0.0000

> <Gold.PLP.ligand.torsion>
1.0184

> <Gold.PLP.Chemscore.Hbond>
1.8320

> <Gold.PLP.Chemscore.CHOScore>
0.7736

> <Gold.PLP.Chemscore.Metal>
0.0000

> <Gold.Chemscore.Hbonds>
donor molecule, donor type, donor heavy atom, donor atom, acceptor molecule, acceptor atom, score
      L1  H    11    45       P1 10174  1.00
      P1  H  7989  7998       L1    32  0.83
      L1  C     3    36       P1 10175  0.78

> <Gold.PLP.Chemscore.Internal.Correction>
0.0427

> <Gold.Rescore>
     Score         DG    S(hbond)    S(metal)    S(lipo)     H(rot)  DE(clash)    DE(int)     intcor
      9.07     -14.07       1.83        0.00      93.30       3.29       1.41       3.59       ----

> <Gold.Chemscore.Fitness>
9.0729

> <Gold.Chemscore.DG>
-14.0749

> <Gold.Chemscore.ZeroCoef>
-5.4800

> <Gold.Chemscore.Hbond>
1.8281

> <Gold.Chemscore.Metal>
0.0000

> <Gold.Chemscore.Lipo>
93.2965

> <Gold.Chemscore.Internal_Hbond>
0.0000

> <Gold.Chemscore.DEClash>
1.4144

> <Gold.Chemscore.DEInternal>
3.5876

> <Gold.Chemscore.Rot>
3.2916

> <Gold.Chemscore.Internal.Correction>
   9.000000E+99

> <Gold.Chemscore.Hbonds>
donor molecule, donor type, donor heavy atom, donor atom, acceptor molecule, acceptor atom, score
      L1  H    11    45       P1 10174  0.38
      P1  H  7989  7998       L1    32  0.83

> <Gold.Chemscore.Hbond.Weighted>
-6.1058

> <Gold.Chemscore.Metal.Weighted>
-0.0000

> <Gold.Chemscore.Lipo.Weighted>
-10.9157

> <Gold.Chemscore.Internal_Hbond.Weighted>
0.0000

> <Gold.Chemscore.DEClash.Weighted>
1.4144

> <Gold.Chemscore.DEInternal.Weighted>
3.5876

> <Gold.Chemscore.Rot.Weighted>
8.4265

> <Gold.Chemscore.Internal.Correction.Weighted>
   9.000000E+99

> <Gold.Protein.RotatedTorsions>
[ 6907 6896 6895 6894 ] final  -22.17 input  -60.11 | X-H torsion
[ 7974 7965 7964 7962 ] final   34.43 input  175.53 | X-H torsion
[ 8008 7997 7996 7995 ] final -163.87 input   59.86 | X-H torsion
[ 10167 10162 10161 10158 ] final  110.40 input  -65.29 | X-H torsion
[ 10718 10713 10712 10709 ] final -156.40 input   66.30 | X-H torsion
[ 10763 10752 10751 10750 ] final   83.89 input  -60.55 | X-H torsion
[ 11005 11000 10999 10996 ] final -115.20 input  -57.11 | X-H torsion

> <Gold.Protein.ActiveResidues>
 VAL166  LYS551  ARG553  GLY616  TRP617  ASP618  TYR619  PRO620  LYS621  CYS622 
 ASP623  PHE694  ASN695  SER759  ASP760  ASP761  ALA762  ILE779  LEU786  VAL792 
 PHE793  MET794  SER795  GLU796  ALA797  LYS798  CYS799  TRP800  GLU811  SER814 

> <Gold.Protein.RotatedAtoms>
  151.2226  135.0524  159.8955 H   0  0  0  0  0  0  0  0  0  0  0  0  # atno 6907 bound_to 6896
  152.5414  134.0624  159.8168 H   0  0  0  0  0  0  0  0  0  0  0  0  # atno 6908 bound_to 6896
  151.0792  133.5355  159.2653 H   0  0  0  0  0  0  0  0  0  0  0  0  # atno 6909 bound_to 6896
  146.1353  139.6270  142.9199 H   0  0  0  0  0  0  0  0  0  0  0  0  # atno 7974 bound_to 7965
  155.8275  140.0929  157.1812 H   0  0  0  0  0  0  0  0  0  0  0  0  # atno 8008 bound_to 7997
  154.3979  140.1425  156.3634 H   0  0  0  0  0  0  0  0  0  0  0  0  # atno 8009 bound_to 7997
  155.8201  140.3446  155.5511 H   0  0  0  0  0  0  0  0  0  0  0  0  # atno 8010 bound_to 7997
  139.6691  144.7126  151.1721 H   0  0  0  0  0  0  0  0  0  0  0  0  # atno 10167 bound_to 10162
  156.5260  130.8499  151.2699 H   0  0  0  0  0  0  0  0  0  0  0  0  # atno 10718 bound_to 10713
  153.1331  135.4674  154.9380 H   0  0  0  0  0  0  0  0  0  0  0  0  # atno 10763 bound_to 10752
  154.7682  135.3151  154.8245 H   0  0  0  0  0  0  0  0  0  0  0  0  # atno 10764 bound_to 10752
  153.8784  135.6896  153.4823 H   0  0  0  0  0  0  0  0  0  0  0  0  # atno 10765 bound_to 10752
  141.0503  133.9698  157.2847 H   0  0  0  0  0  0  0  0  0  0  0  0  # atno 11005 bound_to 11000
  145.5169  141.0433  143.2457 LP  0  0  0  0  0  0  0  0  0  0  0  0  # atno 17320 bound_to 7965
  144.7733  139.6685  143.7185 LP  0  0  0  0  0  0  0  0  0  0  0  0  # atno 17321 bound_to 7965
  140.7611  143.5872  150.8834 LP  0  0  0  0  0  0  0  0  0  0  0  0  # atno 17342 bound_to 10162
  139.9536  143.6244  152.3022 LP  0  0  0  0  0  0  0  0  0  0  0  0  # atno 17343 bound_to 10162
  157.7429  130.9901  150.2554 LP  0  0  0  0  0  0  0  0  0  0  0  0  # atno 17370 bound_to 10713
  156.3104  130.3771  149.7666 LP  0  0  0  0  0  0  0  0  0  0  0  0  # atno 17371 bound_to 10713
  139.9345  135.0197  156.8510 LP  0  0  0  0  0  0  0  0  0  0  0  0  # atno 17394 bound_to 11000
  140.6068  134.0120  155.7560 LP  0  0  0  0  0  0  0  0  0  0  0  0  # atno 17395 bound_to 11000

$$$$
