AV-unprocessed.smi:3009|AV-procd|sdf|11450|dock2
  -GOLD-   2272016383D 1   1.00000     0.00000
 Structure written by MMmdl.
 44 45  0  0  0  0  0  0  0  0  2 V2000
  150.5940  141.2267  156.9594 C   0  0  0  0  0  0  0  0  0  0  0  0
  150.0164  140.4359  155.7757 C   0  0  0  0  0  0  0  0  0  0  0  0
  151.1174  139.5984  155.1033 C   0  0  0  0  0  0  0  0  0  0  0  0
  149.3221  141.3875  154.7767 C   0  0  0  0  0  0  0  0  0  0  0  0
  148.4451  140.6814  153.8025 N   0  3  2  0  0  0  0  0  0  0  0  0
  147.0954  141.2834  153.6796 C   0  0  0  0  0  0  0  0  0  0  0  0
  146.1983  140.8781  154.8624 C   0  0  0  0  0  0  0  0  0  0  0  0
  146.1285  139.4601  154.9353 O   0  0  0  0  0  0  0  0  0  0  0  0
  147.3969  138.8566  155.1735 C   0  0  1  0  0  0  0  0  0  0  0  0
  147.2058  137.3348  155.3030 C   0  0  0  0  0  0  0  0  0  0  0  0
  147.0701  136.6907  154.0007 N   0  0  0  0  0  0  0  0  0  0  0  0
  145.9887  136.0225  153.5760 C   0  0  0  0  0  0  0  0  0  0  0  0
  144.9727  135.8691  154.2539 O   0  0  0  0  0  0  0  0  0  0  0  0
  146.1659  135.5524  152.3306 N   0  0  0  0  0  0  0  0  0  0  0  0
  145.2445  134.8088  151.5509 C   0  0  0  0  0  0  0  0  0  0  0  0
  145.3164  133.4059  151.3349 C   0  0  0  0  0  0  0  0  0  0  0  0
  144.3236  132.9834  150.5654 N   0  0  0  0  0  0  0  0  0  0  0  0
  143.6188  134.1035  150.2877 N   0  0  0  0  0  0  0  0  0  0  0  0
  144.1420  135.2385  150.8670 C   0  0  0  0  0  0  0  0  0  0  0  0
  148.3379  139.2123  154.0005 C   0  0  0  0  0  0  0  0  0  0  0  0
  142.7923  134.0776  149.7074 H   0  0  0  0  0  0  0  0  0  0  0  0
  151.3559  141.9346  156.6308 H   0  0  0  0  0  0  0  0  0  0  0  0
  151.0526  140.5608  157.6910 H   0  0  0  0  0  0  0  0  0  0  0  0
  149.8159  141.7911  157.4742 H   0  0  0  0  0  0  0  0  0  0  0  0
  149.2799  139.7491  156.1911 H   0  0  0  0  0  0  0  0  0  0  0  0
  151.8939  140.2332  154.6751 H   0  0  0  0  0  0  0  0  0  0  0  0
  150.7158  138.9771  154.3026 H   0  0  0  0  0  0  0  0  0  0  0  0
  151.5941  138.9310  155.8217 H   0  0  0  0  0  0  0  0  0  0  0  0
  148.7509  142.1466  155.3107 H   0  0  0  0  0  0  0  0  0  0  0  0
  150.0983  141.9279  154.2329 H   0  0  0  0  0  0  0  0  0  0  0  0
  147.1609  142.3686  153.5934 H   0  0  0  0  0  0  0  0  0  0  0  0
  146.6457  140.9306  152.7505 H   0  0  0  0  0  0  0  0  0  0  0  0
  146.5682  141.2886  155.8029 H   0  0  0  0  0  0  0  0  0  0  0  0
  145.1918  141.2716  154.7195 H   0  0  0  0  0  0  0  0  0  0  0  0
  147.8085  139.2338  156.1108 H   0  0  0  0  0  0  0  0  0  0  0  0
  148.0206  136.8886  155.8759 H   0  0  0  0  0  0  0  0  0  0  0  0
  146.2912  137.1270  155.8590 H   0  0  0  0  0  0  0  0  0  0  0  0
  147.8564  136.7668  153.3721 H   0  0  0  0  0  0  0  0  0  0  0  0
  147.0511  135.7542  151.8892 H   0  0  0  0  0  0  0  0  0  0  0  0
  146.0415  132.6948  151.7031 H   0  0  0  0  0  0  0  0  0  0  0  0
  143.6927  136.2122  150.7396 H   0  0  0  0  0  0  0  0  0  0  0  0
  147.9429  138.7796  153.0802 H   0  0  0  0  0  0  0  0  0  0  0  0
  149.3190  138.7624  154.1443 H   0  0  0  0  0  0  0  0  0  0  0  0
  148.8892  140.8193  152.9058 H   0  0  0  0  0  0  0  0  0  0  0  0
  1  2  1  0  0  0  0
  1 22  1  0  0  0  0
  1 23  1  0  0  0  0
  1 24  1  0  0  0  0
  2  3  1  0  0  0  0
  2  4  1  0  0  0  0
  2 25  1  0  0  0  0
  3 26  1  0  0  0  0
  3 27  1  0  0  0  0
  3 28  1  0  0  0  0
  4  5  1  0  0  0  0
  4 29  1  0  0  0  0
  4 30  1  0  0  0  0
  5 20  1  0  0  0  0
  5  6  1  0  0  0  0
  5 44  1  0  0  0  0
  6  7  1  0  0  0  0
  6 31  1  0  0  0  0
  6 32  1  0  0  0  0
  7  8  1  0  0  0  0
  7 33  1  0  0  0  0
  7 34  1  0  0  0  0
  8  9  1  0  0  0  0
  9 10  1  0  0  0  0
  9 20  1  0  0  0  0
  9 35  1  0  0  0  0
 10 11  1  0  0  0  0
 10 36  1  0  0  0  0
 10 37  1  0  0  0  0
 11 12  1  0  0  0  0
 11 38  1  0  0  0  0
 12 13  2  0  0  0  0
 12 14  1  0  0  0  0
 14 15  1  0  0  0  0
 14 39  1  0  0  0  0
 15 19  2  0  0  0  0
 15 16  1  0  0  0  0
 16 17  2  0  0  0  0
 16 40  1  0  0  0  0
 17 18  1  0  0  0  0
 18 21  1  0  0  0  0
 18 19  1  0  0  0  0
 19 41  1  0  0  0  0
 20 42  1  0  0  0  0
 20 43  1  0  0  0  0
M  CHG  1   5   1
M  END
> <s_m_source_file>
AV-unprocessed.smi

> <i_m_source_file_index>
3009

> <i_lp_mmshare_version>
43012

> <i_f3d_flags>
0

> <s_epik_input>
W0NIM11bQ0hdKFtDSDNdKVtDSDJdTjFbQ0gyXVtDSDJdT1tDQEhdKFtDSDJdMSlbQ0gyXVtOSF1DKD1PKVtOSF1jMltjSF1uW25IXVtjSF0y

> <s_epik_cmdline>
J2VwaWtfcHl0aG9uJywgJy1waCcsICc3LjAnLCAnLXRuJywgJzgnLCAnLW1hJywgJzIwMCcsICctbWV0YWxfYmluZGluZycsICctaW1hZScsICc8aW5maWxlLm1hZT4nLCAnLW9tYWUnLCAnPG91dGZpbGUubWFlPic=

> <r_lp_tautomer_probability>
0.5

> <r_epik_Ionization_Penalty>
0.0974064

> <r_epik_Ionization_Penalty_Charging>
0.0973651

> <r_epik_Ionization_Penalty_Neutral>
4.13573e-05

> <r_epik_State_Penalty>
0.0874853

> <r_epik_Charging_Adjusted_Penalty>
0.18485

> <i_epik_Tot_Q>
1

> <i_epik_Tot_abs_Q>
1

> <r_epik_Metal_State_Penalty>
0.0874855

> <b_epik_Metal_Only>
0

> <s_lp_Force_Field>
OPLS_2005

> <r_lp_Energy>
22.9615

> <b_lp_Chiralities_Consistent>
1

> <s_lp_Variant>
AV-unprocessed.smi:3009-2

> <Gold.Version>
5.8.1

> <Gold.Id.Protein>
6NUR|6NUR_protein|mol2

> <Gold.PLP.Fitness>
39.6148

> <Gold.PLP.PLP>
-28.8890

> <Gold.PLP.part.hbond>
-4.0000

> <Gold.PLP.part.metal>
0.0000

> <Gold.PLP.part.buried>
-2.5310

> <Gold.PLP.part.nonpolar>
-22.4052

> <Gold.PLP.part.repulsive>
0.4439

> <Gold.PLP.ligand.clash>
0.6382

> <Gold.PLP.ligand.torsion>
1.6927

> <Gold.PLP.Chemscore.Hbond>
3.8880

> <Gold.PLP.Chemscore.CHOScore>
1.0000

> <Gold.PLP.Chemscore.Metal>
0.0000

> <Gold.Chemscore.Hbonds>
donor molecule, donor type, donor heavy atom, donor atom, acceptor molecule, acceptor atom, score
      L1  H     5    44       P1  7957  0.99
      L1  H    11    38       P1  7948  1.00
      L1  H    14    39       P1  7948  1.00
      L1  H    18    21       P1 10186  0.96
      L1  C    19    41       P1 10171  0.99

> <Gold.PLP.Chemscore.Internal.Correction>
0.0854

> <Gold.Rescore>
     Score         DG    S(hbond)    S(metal)    S(lipo)     H(rot)  DE(clash)    DE(int)     intcor
     18.83     -20.75       3.89        0.00      58.70       1.80       0.13       1.79       ----

> <Gold.Chemscore.Fitness>
18.8316

> <Gold.Chemscore.DG>
-20.7536

> <Gold.Chemscore.ZeroCoef>
-5.4800

> <Gold.Chemscore.Hbond>
3.8936

> <Gold.Chemscore.Metal>
0.0000

> <Gold.Chemscore.Lipo>
58.6967

> <Gold.Chemscore.Internal_Hbond>
0.0000

> <Gold.Chemscore.DEClash>
0.1288

> <Gold.Chemscore.DEInternal>
1.7933

> <Gold.Chemscore.Rot>
1.7963

> <Gold.Chemscore.Internal.Correction>
   9.000000E+99

> <Gold.Chemscore.Hbonds>
donor molecule, donor type, donor heavy atom, donor atom, acceptor molecule, acceptor atom, score
      L1  H     5    44       P1  7957  0.87
      L1  H    11    38       P1  7948  0.97
      L1  H    14    39       P1  7948  0.98
      L1  H    18    21       P1 10186  0.92

> <Gold.Chemscore.Hbond.Weighted>
-13.0046

> <Gold.Chemscore.Metal.Weighted>
-0.0000

> <Gold.Chemscore.Lipo.Weighted>
-6.8675

> <Gold.Chemscore.Internal_Hbond.Weighted>
0.0000

> <Gold.Chemscore.DEClash.Weighted>
0.1288

> <Gold.Chemscore.DEInternal.Weighted>
1.7933

> <Gold.Chemscore.Rot.Weighted>
4.5985

> <Gold.Chemscore.Internal.Correction.Weighted>
   9.000000E+99

> <Gold.Protein.RotatedTorsions>
[ 6907 6896 6895 6894 ] final   43.27 input  -60.11 | X-H torsion
[ 7974 7965 7964 7962 ] final   74.45 input  175.53 | X-H torsion
[ 8008 7997 7996 7995 ] final  -25.23 input   59.86 | X-H torsion
[ 10167 10162 10161 10158 ] final  -75.55 input  -65.29 | X-H torsion
[ 10718 10713 10712 10709 ] final  112.96 input   66.30 | X-H torsion
[ 10763 10752 10751 10750 ] final   52.01 input  -60.55 | X-H torsion
[ 11005 11000 10999 10996 ] final -119.94 input  -57.11 | X-H torsion

> <Gold.Protein.ActiveResidues>
 VAL166  LYS551  ARG553  GLY616  TRP617  ASP618  TYR619  PRO620  LYS621  CYS622 
 ASP623  PHE694  ASN695  SER759  ASP760  ASP761  ALA762  ILE779  LEU786  VAL792 
 PHE793  MET794  SER795  GLU796  ALA797  LYS798  CYS799  TRP800  GLU811  SER814 

> <Gold.Protein.RotatedAtoms>
  152.2182  134.8437  160.0488 H   0  0  0  0  0  0  0  0  0  0  0  0  # atno 6907 bound_to 6896
  151.9231  133.3585  159.3912 H   0  0  0  0  0  0  0  0  0  0  0  0  # atno 6908 bound_to 6896
  150.6993  134.4540  159.5393 H   0  0  0  0  0  0  0  0  0  0  0  0  # atno 6909 bound_to 6896
  145.7281  139.2673  143.1557 H   0  0  0  0  0  0  0  0  0  0  0  0  # atno 7974 bound_to 7965
  154.4487  140.1932  156.0587 H   0  0  0  0  0  0  0  0  0  0  0  0  # atno 8008 bound_to 7997
  156.0599  140.3298  155.7422 H   0  0  0  0  0  0  0  0  0  0  0  0  # atno 8009 bound_to 7997
  155.5428  140.0588  157.2857 H   0  0  0  0  0  0  0  0  0  0  0  0  # atno 8010 bound_to 7997
  140.4933  143.2376  151.7872 H   0  0  0  0  0  0  0  0  0  0  0  0  # atno 10167 bound_to 10162
  157.6364  131.0976  150.6971 H   0  0  0  0  0  0  0  0  0  0  0  0  # atno 10718 bound_to 10713
  152.9787  135.5827  154.4508 H   0  0  0  0  0  0  0  0  0  0  0  0  # atno 10763 bound_to 10752
  154.4097  135.2770  155.2046 H   0  0  0  0  0  0  0  0  0  0  0  0  # atno 10764 bound_to 10752
  154.3841  135.6140  153.5861 H   0  0  0  0  0  0  0  0  0  0  0  0  # atno 10765 bound_to 10752
  141.0180  134.0167  157.3323 H   0  0  0  0  0  0  0  0  0  0  0  0  # atno 11005 bound_to 11000
  146.0563  140.8017  142.9757 LP  0  0  0  0  0  0  0  0  0  0  0  0  # atno 17320 bound_to 7965
  144.6899  140.3129  143.7245 LP  0  0  0  0  0  0  0  0  0  0  0  0  # atno 17321 bound_to 7965
  139.4856  144.4621  151.9529 LP  0  0  0  0  0  0  0  0  0  0  0  0  # atno 17342 bound_to 10162
  140.3708  144.2858  150.5920 LP  0  0  0  0  0  0  0  0  0  0  0  0  # atno 17343 bound_to 10162
  156.7302  130.4707  149.5501 LP  0  0  0  0  0  0  0  0  0  0  0  0  # atno 17370 bound_to 10713
  156.1607  130.6372  151.0715 LP  0  0  0  0  0  0  0  0  0  0  0  0  # atno 17371 bound_to 10713
  139.9128  135.0193  156.7762 LP  0  0  0  0  0  0  0  0  0  0  0  0  # atno 17394 bound_to 11000
  140.6622  133.9635  155.7811 LP  0  0  0  0  0  0  0  0  0  0  0  0  # atno 17395 bound_to 11000

$$$$
