AV-unprocessed.smi:761|AV-procd|sdf|3632|dock1
  -GOLD-   22720 1 23D 1   1.00000     0.00000
 Structure written by MMmdl.
 34 35  0  0  0  0  0  0  0  0  4 V2000
  145.2154  138.1422  153.7232 O   0  0  0  0  0  0  0  0  0  0  0  0
  146.1725  137.6210  153.1395 C   0  0  0  0  0  0  0  0  0  0  0  0
  146.1817  136.4570  152.4356 N   0  5  0  0  0  0  0  0  0  0  0  0
  145.0059  135.6311  152.1644 C   0  0  0  0  0  0  0  0  0  0  0  0
  144.8179  135.4870  150.6413 C   0  0  0  0  0  0  0  0  0  0  0  0
  145.1941  134.1387  150.1424 N   0  3  0  0  0  0  0  0  0  0  0  0
  144.0691  133.1668  149.9766 C   0  0  0  0  0  0  0  0  0  0  0  0
  144.6712  131.8620  150.4142 C   0  0  0  0  0  0  0  0  0  0  0  0
  145.8806  132.0357  150.9346 C   0  0  0  0  0  0  0  0  0  0  0  0
  146.2785  133.4844  150.9293 C   0  0  0  0  0  0  0  0  0  0  0  0
  147.3737  138.2265  153.1335 N   0  0  0  0  0  0  0  0  0  0  0  0
  147.7796  139.4149  153.7986 C   0  0  0  0  0  0  0  0  0  0  0  0
  146.8860  140.5086  153.7940 C   0  0  0  0  0  0  0  0  0  0  0  0
  147.2609  141.7145  154.4201 C   0  0  0  0  0  0  0  0  0  0  0  0
  148.4725  141.8193  155.0071 N   0  3  0  0  0  0  0  0  0  0  0  0
  149.3666  140.8072  155.0226 C   0  0  0  0  0  0  0  0  0  0  0  0
  149.0475  139.5773  154.4124 C   0  0  0  0  0  0  0  0  0  0  0  0
  145.0818  134.6345  152.6011 H   0  0  0  0  0  0  0  0  0  0  0  0
  144.1046  136.0715  152.5919 H   0  0  0  0  0  0  0  0  0  0  0  0
  143.7639  135.6577  150.4146 H   0  0  0  0  0  0  0  0  0  0  0  0
  145.3767  136.2517  150.0995 H   0  0  0  0  0  0  0  0  0  0  0  0
  143.2159  133.4043  150.6136 H   0  0  0  0  0  0  0  0  0  0  0  0
  143.7394  133.1244  148.9383 H   0  0  0  0  0  0  0  0  0  0  0  0
  144.1517  130.9193  150.3238 H   0  0  0  0  0  0  0  0  0  0  0  0
  146.5106  131.2579  151.3404 H   0  0  0  0  0  0  0  0  0  0  0  0
  147.2487  133.6335  150.4547 H   0  0  0  0  0  0  0  0  0  0  0  0
  146.3209  133.8499  151.9566 H   0  0  0  0  0  0  0  0  0  0  0  0
  148.0682  137.8015  152.5367 H   0  0  0  0  0  0  0  0  0  0  0  0
  145.9183  140.4237  153.3206 H   0  0  0  0  0  0  0  0  0  0  0  0
  146.6337  142.5927  154.4657 H   0  0  0  0  0  0  0  0  0  0  0  0
  150.3073  141.0117  155.5123 H   0  0  0  0  0  0  0  0  0  0  0  0
  149.7819  138.7860  154.4129 H   0  0  0  0  0  0  0  0  0  0  0  0
  145.5823  134.2753  149.2200 H   0  0  0  0  0  0  0  0  0  0  0  0
  148.7256  142.7016  155.4524 H   0  0  0  0  0  0  0  0  0  0  0  0
  1  2  2  0  0  0  0
  2  3  1  0  0  0  0
  2 11  1  0  0  0  0
  3  4  1  0  0  0  0
  4  5  1  0  0  0  0
  4 18  1  0  0  0  0
  4 19  1  0  0  0  0
  5  6  1  0  0  0  0
  5 20  1  0  0  0  0
  5 21  1  0  0  0  0
  6 10  1  0  0  0  0
  6  7  1  0  0  0  0
  6 33  1  0  0  0  0
  7  8  1  0  0  0  0
  7 22  1  0  0  0  0
  7 23  1  0  0  0  0
  8  9  2  0  0  0  0
  8 24  1  0  0  0  0
  9 10  1  0  0  0  0
  9 25  1  0  0  0  0
 10 26  1  0  0  0  0
 10 27  1  0  0  0  0
 11 12  1  0  0  0  0
 11 28  1  0  0  0  0
 12 17  1  0  0  0  0
 12 13  2  0  0  0  0
 13 14  1  0  0  0  0
 13 29  1  0  0  0  0
 14 15  2  0  0  0  0
 14 30  1  0  0  0  0
 15 16  1  0  0  0  0
 15 34  1  0  0  0  0
 16 17  2  0  0  0  0
 16 31  1  0  0  0  0
 17 32  1  0  0  0  0
M  CHG  1   3  -1
M  CHG  1   6   1
M  CHG  1  15   1
M  END
> <s_m_source_file>
AV-unprocessed.smi

> <i_m_source_file_index>
761

> <i_lp_mmshare_version>
43012

> <i_f3d_flags>
0

> <s_epik_input>
W2NIXTFbY0hdbltjSF1bY0hdYzFbTkhdQyg9TylbTkhdW0NIMl1bQ0gyXU4yW0NIMl1bQ0hdPVtDSF1bQ0gyXTI=

> <s_epik_cmdline>
J2VwaWtfcHl0aG9uJywgJy1waCcsICc3LjAnLCAnLXRuJywgJzgnLCAnLW1hJywgJzIwMCcsICctbWV0YWxfYmluZGluZycsICctaW1hZScsICc8aW5maWxlLm1hZT4nLCAnLW9tYWUnLCAnPG91dGZpbGUubWFlPic=

> <r_epik_Ionization_Penalty>
8.30346

> <r_epik_Ionization_Penalty_Charging>
8.30346

> <r_epik_Ionization_Penalty_Neutral>
3.3887e-06

> <r_epik_State_Penalty>
7.87421

> <r_epik_Charging_Adjusted_Penalty>
16.1777

> <i_epik_Tot_Q>
1

> <i_epik_Tot_abs_Q>
3

> <r_epik_Metal_State_Penalty>
3.87237

> <b_epik_Metal_Only>
1

> <s_lp_Force_Field>
OPLS_2005

> <r_lp_Energy>
27.0573

> <b_lp_Chiralities_Consistent>
1

> <s_lp_Variant>
AV-unprocessed.smi:761-3

> <Gold.Version>
5.8.1

> <Gold.Id.Protein>
6NUR|6NUR_protein|mol2

> <Gold.PLP.Fitness>
40.5716

> <Gold.PLP.PLP>
-30.6829

> <Gold.PLP.part.hbond>
-3.0000

> <Gold.PLP.part.metal>
0.0000

> <Gold.PLP.part.buried>
-4.6393

> <Gold.PLP.part.nonpolar>
-27.5112

> <Gold.PLP.part.repulsive>
3.8547

> <Gold.PLP.ligand.clash>
0.0000

> <Gold.PLP.ligand.torsion>
1.0849

> <Gold.PLP.Chemscore.Hbond>
3.9760

> <Gold.PLP.Chemscore.CHOScore>
0.0000

> <Gold.PLP.Chemscore.Metal>
0.0000

> <Gold.Chemscore.Hbonds>
donor molecule, donor type, donor heavy atom, donor atom, acceptor molecule, acceptor atom, score
      L1  H     6    33       P1  7921  1.00
      L1  H    11    28       P1  7948  1.00
      L1  H    15    34       P1  8028  2.00

> <Gold.PLP.Chemscore.Internal.Correction>
0.1305

> <Gold.Rescore>
     Score         DG    S(hbond)    S(metal)    S(lipo)     H(rot)  DE(clash)    DE(int)     intcor
     16.18     -20.90       2.95        0.00      80.56       1.51       2.38       2.35       ----

> <Gold.Chemscore.Fitness>
16.1775

> <Gold.Chemscore.DG>
-20.9040

> <Gold.Chemscore.ZeroCoef>
-5.4800

> <Gold.Chemscore.Hbond>
2.9545

> <Gold.Chemscore.Metal>
0.0000

> <Gold.Chemscore.Lipo>
80.5640

> <Gold.Chemscore.Internal_Hbond>
0.0000

> <Gold.Chemscore.DEClash>
2.3797

> <Gold.Chemscore.DEInternal>
2.3468

> <Gold.Chemscore.Rot>
1.5117

> <Gold.Chemscore.Internal.Correction>
   9.000000E+99

> <Gold.Chemscore.Hbonds>
donor molecule, donor type, donor heavy atom, donor atom, acceptor molecule, acceptor atom, score
      L1  H     6    33       P1  7921  0.85
      L1  H    11    28       P1  7948  0.95
      L1  H    15    34       P1  8028  0.92

> <Gold.Chemscore.Hbond.Weighted>
-9.8680

> <Gold.Chemscore.Metal.Weighted>
-0.0000

> <Gold.Chemscore.Lipo.Weighted>
-9.4260

> <Gold.Chemscore.Internal_Hbond.Weighted>
0.0000

> <Gold.Chemscore.DEClash.Weighted>
2.3797

> <Gold.Chemscore.DEInternal.Weighted>
2.3468

> <Gold.Chemscore.Rot.Weighted>
3.8700

> <Gold.Chemscore.Internal.Correction.Weighted>
   9.000000E+99

> <Gold.Protein.RotatedTorsions>
[ 6907 6896 6895 6894 ] final  -30.50 input  -60.11 | X-H torsion
[ 7974 7965 7964 7962 ] final   29.64 input  175.53 | X-H torsion
[ 8008 7997 7996 7995 ] final -101.53 input   59.86 | X-H torsion
[ 10167 10162 10161 10158 ] final -141.82 input  -65.29 | X-H torsion
[ 10718 10713 10712 10709 ] final  -26.68 input   66.30 | X-H torsion
[ 10763 10752 10751 10750 ] final  -20.87 input  -60.55 | X-H torsion
[ 11005 11000 10999 10996 ] final   66.07 input  -57.11 | X-H torsion

> <Gold.Protein.ActiveResidues>
 VAL166  LYS551  ARG553  GLY616  TRP617  ASP618  TYR619  PRO620  LYS621  CYS622 
 ASP623  PHE694  ASN695  SER759  ASP760  ASP761  ALA762  ILE779  LEU786  VAL792 
 PHE793  MET794  SER795  GLU796  ALA797  LYS798  CYS799  TRP800  GLU811  SER814 

> <Gold.Protein.RotatedAtoms>
  151.1048  134.9993  159.8465 H   0  0  0  0  0  0  0  0  0  0  0  0  # atno 6907 bound_to 6896
  152.5439  134.1907  159.8683 H   0  0  0  0  0  0  0  0  0  0  0  0  # atno 6908 bound_to 6896
  151.1953  133.4599  159.2628 H   0  0  0  0  0  0  0  0  0  0  0  0  # atno 6909 bound_to 6896
  146.1659  139.6894  142.9001 H   0  0  0  0  0  0  0  0  0  0  0  0  # atno 7974 bound_to 7965
  154.8439  140.0434  157.1559 H   0  0  0  0  0  0  0  0  0  0  0  0  # atno 8008 bound_to 7997
  154.9017  140.3001  155.5294 H   0  0  0  0  0  0  0  0  0  0  0  0  # atno 8009 bound_to 7997
  156.2993  140.2374  156.4045 H   0  0  0  0  0  0  0  0  0  0  0  0  # atno 8010 bound_to 7997
  139.8147  143.7654  152.2664 H   0  0  0  0  0  0  0  0  0  0  0  0  # atno 10167 bound_to 10162
  156.4480  130.4478  149.7008 H   0  0  0  0  0  0  0  0  0  0  0  0  # atno 10718 bound_to 10713
  153.6272  135.6990  153.5288 H   0  0  0  0  0  0  0  0  0  0  0  0  # atno 10763 bound_to 10752
  153.2889  135.4163  155.1148 H   0  0  0  0  0  0  0  0  0  0  0  0  # atno 10764 bound_to 10752
  154.8530  135.3620  154.5814 H   0  0  0  0  0  0  0  0  0  0  0  0  # atno 10765 bound_to 10752
  139.9855  134.6675  156.0185 H   0  0  0  0  0  0  0  0  0  0  0  0  # atno 11005 bound_to 11000
  145.4468  141.0426  143.2827 LP  0  0  0  0  0  0  0  0  0  0  0  0  # atno 17320 bound_to 7965
  144.8092  139.5994  143.7037 LP  0  0  0  0  0  0  0  0  0  0  0  0  # atno 17321 bound_to 7965
  139.7814  144.7443  151.0083 LP  0  0  0  0  0  0  0  0  0  0  0  0  # atno 17342 bound_to 10162
  140.7816  143.4538  151.0375 LP  0  0  0  0  0  0  0  0  0  0  0  0  # atno 17343 bound_to 10162
  156.3846  130.7596  151.2592 LP  0  0  0  0  0  0  0  0  0  0  0  0  # atno 17370 bound_to 10713
  157.7504  131.0285  150.4054 LP  0  0  0  0  0  0  0  0  0  0  0  0  # atno 17371 bound_to 10713
  141.1520  133.6547  156.4044 LP  0  0  0  0  0  0  0  0  0  0  0  0  # atno 17394 bound_to 11000
  140.5012  134.6484  157.5249 LP  0  0  0  0  0  0  0  0  0  0  0  0  # atno 17395 bound_to 11000

$$$$
