AV-unprocessed.smi:1312|AV-procd|sdf|5448|dock4
  -GOLD-   22720 5 13D 1   1.00000     0.00000
 Structure written by MMmdl.
 50 51  0  0  0  0  0  0  0  0  2 V2000
  149.0034  130.8203  154.5847 C   0  0  0  0  0  0  0  0  0  0  0  0
  148.0125  131.8323  153.9883 C   0  0  0  0  0  0  0  0  0  0  0  0
  148.6514  133.1712  153.5283 C   0  0  2  0  0  0  0  0  0  0  0  0
  149.2112  133.9960  154.7156 C   0  0  0  0  0  0  0  0  0  0  0  0
  149.6555  135.3215  154.2994 N   0  0  0  0  0  0  0  0  0  0  0  0
  150.2126  136.2296  155.1132 C   0  0  0  0  0  0  0  0  0  0  0  0
  150.3950  136.0299  156.3151 O   0  0  0  0  0  0  0  0  0  0  0  0
  150.6322  137.5492  154.4549 C   0  0  0  0  0  0  0  0  0  0  0  0
  151.2561  138.4954  155.4525 C   0  0  0  0  0  0  0  0  0  0  0  0
  152.6393  138.8081  155.6004 C   0  0  0  0  0  0  0  0  0  0  0  0
  153.8001  138.2696  154.8140 C   0  0  0  0  0  0  0  0  0  0  0  0
  152.8594  139.6810  156.5697 N   0  0  0  0  0  0  0  0  0  0  0  0
  151.6381  139.9516  157.0725 N   0  0  0  0  0  0  0  0  0  0  0  0
  151.5127  140.8901  158.1709 C   0  0  0  0  0  0  0  0  0  0  0  0
  150.6448  139.2478  156.4197 C   0  0  0  0  0  0  0  0  0  0  0  0
  149.2036  139.3708  156.7953 C   0  0  0  0  0  0  0  0  0  0  0  0
  147.6996  133.9681  152.6985 N   0  3  0  0  0  0  0  0  0  0  0  0
  147.2518  133.3351  151.4386 C   0  0  0  0  0  0  0  0  0  0  0  0
  145.9742  134.0731  151.0572 C   0  0  0  0  0  0  0  0  0  0  0  0
  145.3105  134.3229  152.4056 C   0  0  0  0  0  0  0  0  0  0  0  0
  146.4739  134.4281  153.4010 C   0  0  0  0  0  0  0  0  0  0  0  0
  148.4807  129.9227  154.9157 H   0  0  0  0  0  0  0  0  0  0  0  0
  149.5260  131.2318  155.4482 H   0  0  0  0  0  0  0  0  0  0  0  0
  149.7500  130.5093  153.8541 H   0  0  0  0  0  0  0  0  0  0  0  0
  147.4996  131.3620  153.1492 H   0  0  0  0  0  0  0  0  0  0  0  0
  147.2244  132.0200  154.7171 H   0  0  0  0  0  0  0  0  0  0  0  0
  149.4972  132.9224  152.8850 H   0  0  0  0  0  0  0  0  0  0  0  0
  148.4490  134.1440  155.4809 H   0  0  0  0  0  0  0  0  0  0  0  0
  150.0308  133.4555  155.1918 H   0  0  0  0  0  0  0  0  0  0  0  0
  149.5407  135.5631  153.3256 H   0  0  0  0  0  0  0  0  0  0  0  0
  151.3259  137.3176  153.6464 H   0  0  0  0  0  0  0  0  0  0  0  0
  149.7616  138.0037  153.9806 H   0  0  0  0  0  0  0  0  0  0  0  0
  153.6434  138.4055  153.7441 H   0  0  0  0  0  0  0  0  0  0  0  0
  153.9302  137.2029  154.9975 H   0  0  0  0  0  0  0  0  0  0  0  0
  154.7340  138.7684  155.0760 H   0  0  0  0  0  0  0  0  0  0  0  0
  150.8873  141.7292  157.8658 H   0  0  0  0  0  0  0  0  0  0  0  0
  152.4912  141.2693  158.4689 H   0  0  0  0  0  0  0  0  0  0  0  0
  151.0525  140.3945  159.0259 H   0  0  0  0  0  0  0  0  0  0  0  0
  148.5870  138.6684  156.2347 H   0  0  0  0  0  0  0  0  0  0  0  0
  148.8358  140.3766  156.5925 H   0  0  0  0  0  0  0  0  0  0  0  0
  149.0599  139.1645  157.8559 H   0  0  0  0  0  0  0  0  0  0  0  0
  148.0085  133.4009  150.6561 H   0  0  0  0  0  0  0  0  0  0  0  0
  147.0289  132.2809  151.6131 H   0  0  0  0  0  0  0  0  0  0  0  0
  146.2215  135.0235  150.5825 H   0  0  0  0  0  0  0  0  0  0  0  0
  145.3441  133.5062  150.3713 H   0  0  0  0  0  0  0  0  0  0  0  0
  144.6783  135.2110  152.4016 H   0  0  0  0  0  0  0  0  0  0  0  0
  144.6819  133.4707  152.6667 H   0  0  0  0  0  0  0  0  0  0  0  0
  146.2565  133.8211  154.2810 H   0  0  0  0  0  0  0  0  0  0  0  0
  146.6188  135.4563  153.7336 H   0  0  0  0  0  0  0  0  0  0  0  0
  148.1880  134.8072  152.4197 H   0  0  0  0  0  0  0  0  0  0  0  0
  1  2  1  0  0  0  0
  1 22  1  0  0  0  0
  1 23  1  0  0  0  0
  1 24  1  0  0  0  0
  2  3  1  0  0  0  0
  2 25  1  0  0  0  0
  2 26  1  0  0  0  0
  3  4  1  0  0  0  0
  3 17  1  0  0  0  0
  3 27  1  0  0  0  0
  4  5  1  0  0  0  0
  4 28  1  0  0  0  0
  4 29  1  0  0  0  0
  5  6  1  0  0  0  0
  5 30  1  0  0  0  0
  6  7  2  0  0  0  0
  6  8  1  0  0  0  0
  8  9  1  0  0  0  0
  8 31  1  0  0  0  0
  8 32  1  0  0  0  0
  9 15  2  0  0  0  0
  9 10  1  0  0  0  0
 10 11  1  0  0  0  0
 10 12  2  0  0  0  0
 11 33  1  0  0  0  0
 11 34  1  0  0  0  0
 11 35  1  0  0  0  0
 12 13  1  0  0  0  0
 13 14  1  0  0  0  0
 13 15  1  0  0  0  0
 14 36  1  0  0  0  0
 14 37  1  0  0  0  0
 14 38  1  0  0  0  0
 15 16  1  0  0  0  0
 16 39  1  0  0  0  0
 16 40  1  0  0  0  0
 16 41  1  0  0  0  0
 17 21  1  0  0  0  0
 17 18  1  0  0  0  0
 17 50  1  0  0  0  0
 18 19  1  0  0  0  0
 18 42  1  0  0  0  0
 18 43  1  0  0  0  0
 19 20  1  0  0  0  0
 19 44  1  0  0  0  0
 19 45  1  0  0  0  0
 20 21  1  0  0  0  0
 20 46  1  0  0  0  0
 20 47  1  0  0  0  0
 21 48  1  0  0  0  0
 21 49  1  0  0  0  0
M  CHG  1  17   1
M  END
> <s_m_source_file>
AV-unprocessed.smi

> <i_m_source_file_index>
1312

> <i_lp_mmshare_version>
43012

> <i_f3d_flags>
0

> <s_epik_input>
W0NIMl0xW0NIMl1bQ0gyXVtDSDJdTjFbQ0BIXShbQ0gyXVtDSDNdKVtDSDJdW05IXUMoPU8pW0NIMl1jMmMoW0NIM10pbm4oW0NIM10pYzJbQ0gzXQ==

> <s_epik_cmdline>
J2VwaWtfcHl0aG9uJywgJy1waCcsICc3LjAnLCAnLXRuJywgJzgnLCAnLW1hJywgJzIwMCcsICctbWV0YWxfYmluZGluZycsICctaW1hZScsICc8aW5maWxlLm1hZT4nLCAnLW9tYWUnLCAnPG91dGZpbGUubWFlPic=

> <r_lp_tautomer_probability>
1

> <r_epik_Ionization_Penalty>
0.00585463

> <r_epik_Ionization_Penalty_Charging>
0.00366302

> <r_epik_Ionization_Penalty_Neutral>
0.00219161

> <r_epik_State_Penalty>
-0

> <r_epik_Charging_Adjusted_Penalty>
0.00366302

> <i_epik_Tot_Q>
1

> <i_epik_Tot_abs_Q>
1

> <r_epik_Metal_State_Penalty>
-0

> <b_epik_Metal_Only>
0

> <s_lp_Force_Field>
OPLS_2005

> <r_lp_Energy>
29.647

> <b_lp_Chiralities_Consistent>
1

> <s_lp_Variant>
AV-unprocessed.smi:1312-1

> <Gold.Version>
5.8.1

> <Gold.Id.Protein>
6NUR|6NUR_protein|mol2

> <Gold.PLP.Fitness>
45.8093

> <Gold.PLP.PLP>
-34.3257

> <Gold.PLP.part.hbond>
-3.5768

> <Gold.PLP.part.metal>
0.0000

> <Gold.PLP.part.buried>
-1.5076

> <Gold.PLP.part.nonpolar>
-28.6397

> <Gold.PLP.part.repulsive>
0.0747

> <Gold.PLP.ligand.clash>
0.0000

> <Gold.PLP.ligand.torsion>
0.3257

> <Gold.PLP.Chemscore.Hbond>
4.0000

> <Gold.PLP.Chemscore.CHOScore>
0.0000

> <Gold.PLP.Chemscore.Metal>
0.0000

> <Gold.Chemscore.Hbonds>
donor molecule, donor type, donor heavy atom, donor atom, acceptor molecule, acceptor atom, score
      L1  H     5    30       P1  7948  0.70
      L1  H    17    50       P1  7948  2.00
      P1  H  7997  8010       L1    12  1.00

> <Gold.PLP.Chemscore.Internal.Correction>
0.1349

> <Gold.Rescore>
     Score         DG    S(hbond)    S(metal)    S(lipo)     H(rot)  DE(clash)    DE(int)     intcor
     18.88     -19.29       2.87        0.00      73.91       1.72       0.02       0.39       ----

> <Gold.Chemscore.Fitness>
18.8816

> <Gold.Chemscore.DG>
-19.2942

> <Gold.Chemscore.ZeroCoef>
-5.4800

> <Gold.Chemscore.Hbond>
2.8663

> <Gold.Chemscore.Metal>
0.0000

> <Gold.Chemscore.Lipo>
73.9075

> <Gold.Chemscore.Internal_Hbond>
0.0000

> <Gold.Chemscore.DEClash>
0.0234

> <Gold.Chemscore.DEInternal>
0.3891

> <Gold.Chemscore.Rot>
1.7213

> <Gold.Chemscore.Internal.Correction>
   9.000000E+99

> <Gold.Chemscore.Hbonds>
donor molecule, donor type, donor heavy atom, donor atom, acceptor molecule, acceptor atom, score
      L1  H     5    30       P1  7948  0.07
      L1  H    17    50       P1  7948  0.45
      P1  H  7997  8010       L1    12  0.62

> <Gold.Chemscore.Hbond.Weighted>
-9.5736

> <Gold.Chemscore.Metal.Weighted>
-0.0000

> <Gold.Chemscore.Lipo.Weighted>
-8.6472

> <Gold.Chemscore.Internal_Hbond.Weighted>
0.0000

> <Gold.Chemscore.DEClash.Weighted>
0.0234

> <Gold.Chemscore.DEInternal.Weighted>
0.3891

> <Gold.Chemscore.Rot.Weighted>
4.4065

> <Gold.Chemscore.Internal.Correction.Weighted>
   9.000000E+99

> <Gold.Protein.RotatedTorsions>
[ 6907 6896 6895 6894 ] final  123.86 input  -60.11 | X-H torsion
[ 7974 7965 7964 7962 ] final   -7.04 input  175.53 | X-H torsion
[ 8008 7997 7996 7995 ] final   68.46 input   59.86 | X-H torsion
[ 10167 10162 10161 10158 ] final   37.62 input  -65.29 | X-H torsion
[ 10718 10713 10712 10709 ] final  -64.78 input   66.30 | X-H torsion
[ 10763 10752 10751 10750 ] final  106.20 input  -60.55 | X-H torsion
[ 11005 11000 10999 10996 ] final  -51.39 input  -57.11 | X-H torsion

> <Gold.Protein.ActiveResidues>
 VAL166  LYS551  ARG553  GLY616  TRP617  ASP618  TYR619  PRO620  LYS621  CYS622 
 ASP623  PHE694  ASN695  SER759  ASP760  ASP761  ALA762  ILE779  LEU786  VAL792 
 PHE793  MET794  SER795  GLU796  ALA797  LYS798  CYS799  TRP800  GLU811  SER814 

> <Gold.Protein.RotatedAtoms>
  152.4126  133.6988  159.6410 H   0  0  0  0  0  0  0  0  0  0  0  0  # atno 6907 bound_to 6896
  150.8005  133.8597  159.3237 H   0  0  0  0  0  0  0  0  0  0  0  0  # atno 6908 bound_to 6896
  151.6335  135.1022  160.0178 H   0  0  0  0  0  0  0  0  0  0  0  0  # atno 6909 bound_to 6896
  146.2316  140.2260  142.8339 H   0  0  0  0  0  0  0  0  0  0  0  0  # atno 7974 bound_to 7965
  155.7087  140.3494  155.4964 H   0  0  0  0  0  0  0  0  0  0  0  0  # atno 8008 bound_to 7997
  155.9375  140.1095  157.1104 H   0  0  0  0  0  0  0  0  0  0  0  0  # atno 8009 bound_to 7997
  154.4096  140.1219  156.4870 H   0  0  0  0  0  0  0  0  0  0  0  0  # atno 8010 bound_to 7997
  140.4015  144.1717  150.6134 H   0  0  0  0  0  0  0  0  0  0  0  0  # atno 10167 bound_to 10162
  156.0709  130.4238  150.1469 H   0  0  0  0  0  0  0  0  0  0  0  0  # atno 10718 bound_to 10713
  153.3898  135.3884  155.1915 H   0  0  0  0  0  0  0  0  0  0  0  0  # atno 10763 bound_to 10752
  154.8718  135.3745  154.4752 H   0  0  0  0  0  0  0  0  0  0  0  0  # atno 10764 bound_to 10752
  153.5237  135.7086  153.5779 H   0  0  0  0  0  0  0  0  0  0  0  0  # atno 10765 bound_to 10752
  141.0868  133.6641  156.3870 H   0  0  0  0  0  0  0  0  0  0  0  0  # atno 11005 bound_to 11000
  144.9595  140.8260  143.5522 LP  0  0  0  0  0  0  0  0  0  0  0  0  # atno 17320 bound_to 7965
  145.2229  139.2150  143.5083 LP  0  0  0  0  0  0  0  0  0  0  0  0  # atno 17321 bound_to 7965
  140.4734  143.2404  151.9056 LP  0  0  0  0  0  0  0  0  0  0  0  0  # atno 17342 bound_to 10162
  139.4784  144.5345  151.8618 LP  0  0  0  0  0  0  0  0  0  0  0  0  # atno 17343 bound_to 10162
  156.9520  130.9778  151.3496 LP  0  0  0  0  0  0  0  0  0  0  0  0  # atno 17370 bound_to 10713
  157.5778  130.8355  149.8480 LP  0  0  0  0  0  0  0  0  0  0  0  0  # atno 17371 bound_to 10713
  140.5344  134.6181  157.5360 LP  0  0  0  0  0  0  0  0  0  0  0  0  # atno 17394 bound_to 11000
  139.9688  134.7328  156.0084 LP  0  0  0  0  0  0  0  0  0  0  0  0  # atno 17395 bound_to 11000

$$$$
