AV-unprocessed.smi:102|AV-procd|sdf|965|dock7
  -GOLD-   2262017513D 1   1.00000     0.00000
 Structure written by MMmdl.
 43 44  0  0  0  0  0  0  0  0  2 V2000
  147.1914  135.6479  162.2113 C   0  0  0  0  0  0  0  0  0  0  0  0
  147.3831  136.0955  160.7677 C   0  0  0  0  0  0  0  0  0  0  0  0
  147.4853  137.2869  160.4751 O   0  0  0  0  0  0  0  0  0  0  0  0
  147.4224  135.0658  159.9085 O   0  0  0  0  0  0  0  0  0  0  0  0
  146.9635  135.2457  158.5789 C   0  0  0  0  0  0  0  0  0  0  0  0
  148.0653  134.8228  157.5950 C   0  0  2  0  0  0  0  0  0  0  0  0
  149.0689  135.8275  157.5440 O   0  0  0  0  0  0  0  0  0  0  0  0
  148.7409  136.7472  156.5529 C   0  0  1  0  0  0  0  0  0  0  0  0
  150.0047  137.3739  156.0202 N   0  0  0  0  0  0  0  0  0  0  0  0
  150.2357  138.7295  156.1775 C   0  0  0  0  0  0  0  0  0  0  0  0
  151.3732  139.3000  155.7315 C   0  0  0  0  0  0  0  0  0  0  0  0
  151.5709  140.6190  155.8977 F   0  0  0  0  0  0  0  0  0  0  0  0
  152.3863  138.4753  155.0753 C   0  0  0  0  0  0  0  0  0  0  0  0
  153.4168  139.0027  154.6604 O   0  0  0  0  0  0  0  0  0  0  0  0
  152.1404  137.1383  154.9547 N   0  5  0  0  0  0  0  0  0  0  0  0
  150.9940  136.5547  155.4128 C   0  0  0  0  0  0  0  0  0  0  0  0
  150.7761  135.3457  155.3331 O   0  0  0  0  0  0  0  0  0  0  0  0
  148.0197  135.9787  155.4458 C   0  0  2  0  0  0  0  0  0  0  0  0
  146.9324  136.7437  154.9456 O   0  0  0  0  0  0  0  0  0  0  0  0
  147.1654  137.8232  154.1811 C   0  0  0  0  0  0  0  0  0  0  0  0
  146.0523  138.0717  153.1721 C   0  0  0  0  0  0  0  0  0  0  0  0
  148.1529  138.5560  154.2424 O   0  0  0  0  0  0  0  0  0  0  0  0
  147.5412  134.7143  156.1537 C   0  0  1  0  0  0  0  0  0  0  0  0
  148.0763  133.5804  155.4827 O   0  0  0  0  0  0  0  0  0  0  0  0
  147.9577  133.4621  154.1493 C   0  0  0  0  0  0  0  0  0  0  0  0
  148.6816  132.2363  153.6084 C   0  0  0  0  0  0  0  0  0  0  0  0
  147.3406  134.2247  153.4053 O   0  0  0  0  0  0  0  0  0  0  0  0
  147.0606  134.5672  162.2720 H   0  0  0  0  0  0  0  0  0  0  0  0
  146.3108  136.1262  162.6399 H   0  0  0  0  0  0  0  0  0  0  0  0
  148.0600  135.9241  162.8092 H   0  0  0  0  0  0  0  0  0  0  0  0
  146.0803  134.6235  158.4264 H   0  0  0  0  0  0  0  0  0  0  0  0
  146.6651  136.2816  158.4121 H   0  0  0  0  0  0  0  0  0  0  0  0
  148.5028  133.8808  157.9281 H   0  0  0  0  0  0  0  0  0  0  0  0
  148.1442  137.5405  157.0073 H   0  0  0  0  0  0  0  0  0  0  0  0
  149.5004  139.3474  156.6713 H   0  0  0  0  0  0  0  0  0  0  0  0
  148.7396  135.7375  154.6612 H   0  0  0  0  0  0  0  0  0  0  0  0
  145.0806  137.8484  153.6130 H   0  0  0  0  0  0  0  0  0  0  0  0
  146.1897  137.4393  152.2951 H   0  0  0  0  0  0  0  0  0  0  0  0
  146.0536  139.1138  152.8523 H   0  0  0  0  0  0  0  0  0  0  0  0
  146.4508  134.6701  156.1449 H   0  0  0  0  0  0  0  0  0  0  0  0
  149.6391  132.1044  154.1127 H   0  0  0  0  0  0  0  0  0  0  0  0
  148.8676  132.3432  152.5396 H   0  0  0  0  0  0  0  0  0  0  0  0
  148.0790  131.3422  153.7674 H   0  0  0  0  0  0  0  0  0  0  0  0
  1  2  1  0  0  0  0
  1 28  1  0  0  0  0
  1 29  1  0  0  0  0
  1 30  1  0  0  0  0
  2  3  2  0  0  0  0
  2  4  1  0  0  0  0
  4  5  1  0  0  0  0
  5  6  1  0  0  0  0
  5 31  1  0  0  0  0
  5 32  1  0  0  0  0
  6 23  1  0  0  0  0
  6  7  1  0  0  0  0
  6 33  1  0  0  0  0
  7  8  1  0  0  0  0
  8  9  1  0  0  0  0
  8 18  1  0  0  0  0
  8 34  1  0  0  0  0
  9 16  1  0  0  0  0
  9 10  1  0  0  0  0
 10 11  2  0  0  0  0
 10 35  1  0  0  0  0
 11 12  1  0  0  0  0
 11 13  1  0  0  0  0
 13 14  2  0  0  0  0
 13 15  1  0  0  0  0
 15 16  1  0  0  0  0
 16 17  2  0  0  0  0
 18 19  1  0  0  0  0
 18 23  1  0  0  0  0
 18 36  1  0  0  0  0
 19 20  1  0  0  0  0
 20 21  1  0  0  0  0
 20 22  2  0  0  0  0
 21 37  1  0  0  0  0
 21 38  1  0  0  0  0
 21 39  1  0  0  0  0
 23 24  1  0  0  0  0
 23 40  1  0  0  0  0
 24 25  1  0  0  0  0
 25 26  1  0  0  0  0
 25 27  2  0  0  0  0
 26 41  1  0  0  0  0
 26 42  1  0  0  0  0
 26 43  1  0  0  0  0
M  CHG  1  15  -1
M  END
> <s_m_source_file>
AV-unprocessed.smi

> <i_m_source_file_index>
102

> <i_lp_mmshare_version>
43012

> <i_f3d_flags>
0

> <s_epik_input>
W0NIM11DKD1PKU9bQ0gyXVtDQEBIXTFPW0NASF0oW0NAQEhdKE9DKD1PKVtDSDNdKVtDQEhdMU9DKD1PKVtDSDNdKW4yW2NIXWMoRiljKD1PKVtuSF1jMj1P

> <s_epik_cmdline>
J2VwaWtfcHl0aG9uJywgJy1waCcsICc3LjAnLCAnLXRuJywgJzgnLCAnLW1hJywgJzIwMCcsICctbWV0YWxfYmluZGluZycsICctaW1hZScsICc8aW5maWxlLm1hZT4nLCAnLW9tYWUnLCAnPG91dGZpbGUubWFlPic=

> <r_epik_Ionization_Penalty>
1.40304

> <r_epik_Ionization_Penalty_Charging>
1.43915e-08

> <r_epik_Ionization_Penalty_Neutral>
1.40304

> <r_epik_State_Penalty>
1.48536

> <r_epik_Charging_Adjusted_Penalty>
1.48536

> <i_epik_Tot_Q>
-1

> <i_epik_Tot_abs_Q>
1

> <r_epik_Metal_State_Penalty>
0.00663881

> <b_epik_Metal_Only>
0

> <s_epik_Chemistry_Notes>
This compound has an ester and may undergo hydrolysis at high or low pH. This compound contains an acetal/aminal-like group ( X-CH(R)-Y where X, Y are N, S, or O) that may be acid/base labile, releasing an aldehyde.

> <s_lp_Force_Field>
OPLS_2005

> <r_lp_Energy>
22.1455

> <b_lp_Chiralities_Consistent>
1

> <s_lp_Variant>
AV-unprocessed.smi:102-21

> <Gold.Version>
5.8.1

> <Gold.Id.Protein>
6NUR|6NUR_protein|mol2

> <Gold.PLP.Fitness>
39.3002

> <Gold.PLP.PLP>
-29.3155

> <Gold.PLP.part.hbond>
-4.3646

> <Gold.PLP.part.metal>
0.0000

> <Gold.PLP.part.buried>
-6.3893

> <Gold.PLP.part.nonpolar>
-20.2540

> <Gold.PLP.part.repulsive>
0.5003

> <Gold.PLP.ligand.clash>
0.0000

> <Gold.PLP.ligand.torsion>
1.3784

> <Gold.PLP.Chemscore.Hbond>
4.2160

> <Gold.PLP.Chemscore.CHOScore>
0.0000

> <Gold.PLP.Chemscore.Metal>
0.0000

> <Gold.Chemscore.Hbonds>
donor molecule, donor type, donor heavy atom, donor atom, acceptor molecule, acceptor atom, score
      P1  H  6931  6943       L1     3  0.20
      P1  H  6934  6947       L1     3  1.00
      P1  H  7997  8008       L1    14  0.99
      P1  H 10752 10763       L1    15  1.46

> <Gold.PLP.Chemscore.Internal.Correction>
0.0935

> <Gold.Rescore>
     Score         DG    S(hbond)    S(metal)    S(lipo)     H(rot)  DE(clash)    DE(int)     intcor
      5.77     -10.99       3.62        0.00      31.17       4.00       0.00       5.21       ----

> <Gold.Chemscore.Fitness>
5.7725

> <Gold.Chemscore.DG>
-10.9904

> <Gold.Chemscore.ZeroCoef>
-5.4800

> <Gold.Chemscore.Hbond>
3.6201

> <Gold.Chemscore.Metal>
0.0000

> <Gold.Chemscore.Lipo>
31.1690

> <Gold.Chemscore.Internal_Hbond>
0.0000

> <Gold.Chemscore.DEClash>
0.0029

> <Gold.Chemscore.DEInternal>
5.2150

> <Gold.Chemscore.Rot>
3.9951

> <Gold.Chemscore.Internal.Correction>
   9.000000E+99

> <Gold.Chemscore.Hbonds>
donor molecule, donor type, donor heavy atom, donor atom, acceptor molecule, acceptor atom, score
      P1  H  6931  6943       L1     3  0.15
      P1  H  6934  6947       L1     3  0.95
      P1  H  7997  8008       L1    14  0.81
      P1  H 10752 10763       L1    15  0.16

> <Gold.Chemscore.Hbond.Weighted>
-12.0910

> <Gold.Chemscore.Metal.Weighted>
-0.0000

> <Gold.Chemscore.Lipo.Weighted>
-3.6468

> <Gold.Chemscore.Internal_Hbond.Weighted>
0.0000

> <Gold.Chemscore.DEClash.Weighted>
0.0029

> <Gold.Chemscore.DEInternal.Weighted>
5.2150

> <Gold.Chemscore.Rot.Weighted>
10.2274

> <Gold.Chemscore.Internal.Correction.Weighted>
   9.000000E+99

> <Gold.Protein.RotatedTorsions>
[ 6907 6896 6895 6894 ] final  171.72 input  -60.11 | X-H torsion
[ 7974 7965 7964 7962 ] final  -19.12 input  175.53 | X-H torsion
[ 8008 7997 7996 7995 ] final  -23.88 input   59.86 | X-H torsion
[ 10167 10162 10161 10158 ] final   71.43 input  -65.29 | X-H torsion
[ 10718 10713 10712 10709 ] final  -89.66 input   66.30 | X-H torsion
[ 10763 10752 10751 10750 ] final   40.92 input  -60.55 | X-H torsion
[ 11005 11000 10999 10996 ] final -174.07 input  -57.11 | X-H torsion

> <Gold.Protein.ActiveResidues>
 VAL166  LYS551  ARG553  GLY616  TRP617  ASP618  TYR619  PRO620  LYS621  CYS622 
 ASP623  PHE694  ASN695  SER759  ASP760  ASP761  ALA762  ILE779  LEU786  VAL792 
 PHE793  MET794  SER795  GLU796  ALA797  LYS798  CYS799  TRP800  GLU811  SER814 

> <Gold.Protein.RotatedAtoms>
  151.7958  133.3364  159.3512 H   0  0  0  0  0  0  0  0  0  0  0  0  # atno 6907 bound_to 6896
  150.7376  134.5800  159.5943 H   0  0  0  0  0  0  0  0  0  0  0  0  # atno 6908 bound_to 6896
  152.3178  134.7419  160.0372 H   0  0  0  0  0  0  0  0  0  0  0  0  # atno 6909 bound_to 6896
  146.1858  140.4017  142.8477 H   0  0  0  0  0  0  0  0  0  0  0  0  # atno 7974 bound_to 7965
  154.4560  140.1968  156.0379 H   0  0  0  0  0  0  0  0  0  0  0  0  # atno 8008 bound_to 7997
  156.0746  140.3280  155.7590 H   0  0  0  0  0  0  0  0  0  0  0  0  # atno 8009 bound_to 7997
  155.5208  140.0569  157.2898 H   0  0  0  0  0  0  0  0  0  0  0  0  # atno 8010 bound_to 7997
  140.0462  144.5349  150.7397 H   0  0  0  0  0  0  0  0  0  0  0  0  # atno 10167 bound_to 10162
  155.9985  130.4881  150.5206 H   0  0  0  0  0  0  0  0  0  0  0  0  # atno 10718 bound_to 10713
  152.9922  135.6177  154.2703 H   0  0  0  0  0  0  0  0  0  0  0  0  # atno 10763 bound_to 10752
  154.2436  135.2787  155.2846 H   0  0  0  0  0  0  0  0  0  0  0  0  # atno 10764 bound_to 10752
  154.5348  135.5778  153.6847 H   0  0  0  0  0  0  0  0  0  0  0  0  # atno 10765 bound_to 10752
  140.4787  134.6096  157.4911 H   0  0  0  0  0  0  0  0  0  0  0  0  # atno 11005 bound_to 11000
  144.8394  140.6833  143.6239 LP  0  0  0  0  0  0  0  0  0  0  0  0  # atno 17320 bound_to 7965
  145.3944  139.1610  143.4212 LP  0  0  0  0  0  0  0  0  0  0  0  0  # atno 17321 bound_to 7965
  140.7238  143.2615  151.4190 LP  0  0  0  0  0  0  0  0  0  0  0  0  # atno 17342 bound_to 10162
  139.5982  144.1352  152.2168 LP  0  0  0  0  0  0  0  0  0  0  0  0  # atno 17343 bound_to 10162
  157.3167  131.0674  151.1961 LP  0  0  0  0  0  0  0  0  0  0  0  0  # atno 17370 bound_to 10713
  157.2888  130.6786  149.6103 LP  0  0  0  0  0  0  0  0  0  0  0  0  # atno 17371 bound_to 10713
  139.9840  134.7091  155.9807 LP  0  0  0  0  0  0  0  0  0  0  0  0  # atno 17394 bound_to 11000
  141.1542  133.6545  156.4108 LP  0  0  0  0  0  0  0  0  0  0  0  0  # atno 17395 bound_to 11000

$$$$
