AV-unprocessed.smi:2909|AV-procd|sdf|11171|dock2
  -GOLD-   2272016 63D 1   1.00000     0.00000
 Structure written by MMmdl.
 44 45  0  0  0  0  0  0  0  0  1 V2000
  149.6728  133.4634  156.8945 C   0  0  0  0  0  0  0  0  0  0  0  0
  150.2418  134.7087  156.3045 C   0  0  0  0  0  0  0  0  0  0  0  0
  149.6824  135.6716  155.5127 C   0  0  0  0  0  0  0  0  0  0  0  0
  150.7387  136.6046  155.2900 C   0  0  0  0  0  0  0  0  0  0  0  0
  150.6989  137.8766  154.4857 C   0  0  0  0  0  0  0  0  0  0  0  0
  151.1194  139.0605  155.3568 C   0  0  0  0  0  0  0  0  0  0  0  0
  152.0711  139.7652  155.0204 O   0  0  0  0  0  0  0  0  0  0  0  0
  150.4063  139.2638  156.4761 N   0  0  0  0  0  0  0  0  0  0  0  0
  150.6591  140.3131  157.4581 C   0  0  2  0  0  0  0  0  0  0  0  0
  150.4956  141.7025  156.8186 C   0  0  0  0  0  0  0  0  0  0  0  0
  150.8272  142.8250  157.8142 C   0  0  0  0  0  0  0  0  0  0  0  0
  152.2486  142.6909  158.4151 C   0  0  1  0  0  0  0  0  0  0  0  0
  152.5661  143.8220  159.4377 C   0  0  0  0  0  0  0  0  0  0  0  0
  151.8699  143.6079  160.7961 C   0  0  0  0  0  0  0  0  0  0  0  0
  152.2009  145.2236  158.9114 C   0  0  0  0  0  0  0  0  0  0  0  0
  152.4066  141.2776  159.0289 C   0  0  0  0  0  0  0  0  0  0  0  0
  152.0769  140.1593  158.0272 C   0  0  0  0  0  0  0  0  0  0  0  0
  151.8639  136.2436  155.8912 N   0  0  0  0  0  0  0  0  0  0  0  0
  151.5478  135.0903  156.5078 N   0  0  0  0  0  0  0  0  0  0  0  0
  152.2252  134.5802  157.0570 H   0  0  0  0  0  0  0  0  0  0  0  0
  148.8116  133.1199  156.3209 H   0  0  0  0  0  0  0  0  0  0  0  0
  149.3479  133.6363  157.9204 H   0  0  0  0  0  0  0  0  0  0  0  0
  150.4115  132.6616  156.9033 H   0  0  0  0  0  0  0  0  0  0  0  0
  148.6665  135.7084  155.1482 H   0  0  0  0  0  0  0  0  0  0  0  0
  151.3611  137.8133  153.6209 H   0  0  0  0  0  0  0  0  0  0  0  0
  149.6958  138.0476  154.0935 H   0  0  0  0  0  0  0  0  0  0  0  0
  149.6428  138.6326  156.6719 H   0  0  0  0  0  0  0  0  0  0  0  0
  149.9484  140.2133  158.2809 H   0  0  0  0  0  0  0  0  0  0  0  0
  151.1469  141.7878  155.9475 H   0  0  0  0  0  0  0  0  0  0  0  0
  149.4757  141.8306  156.4537 H   0  0  0  0  0  0  0  0  0  0  0  0
  150.7173  143.7734  157.2902 H   0  0  0  0  0  0  0  0  0  0  0  0
  150.0880  142.8268  158.6162 H   0  0  0  0  0  0  0  0  0  0  0  0
  152.9633  142.7750  157.5948 H   0  0  0  0  0  0  0  0  0  0  0  0
  153.6410  143.8187  159.6228 H   0  0  0  0  0  0  0  0  0  0  0  0
  150.7913  143.5014  160.6768 H   0  0  0  0  0  0  0  0  0  0  0  0
  152.0456  144.4509  161.4653 H   0  0  0  0  0  0  0  0  0  0  0  0
  152.2422  142.7242  161.3131 H   0  0  0  0  0  0  0  0  0  0  0  0
  151.1554  145.2730  158.6056 H   0  0  0  0  0  0  0  0  0  0  0  0
  152.8170  145.5151  158.0616 H   0  0  0  0  0  0  0  0  0  0  0  0
  152.3562  145.9841  159.6773 H   0  0  0  0  0  0  0  0  0  0  0  0
  153.4267  141.1192  159.3760 H   0  0  0  0  0  0  0  0  0  0  0  0
  151.7627  141.1825  159.9042 H   0  0  0  0  0  0  0  0  0  0  0  0
  152.1787  139.1896  158.5162 H   0  0  0  0  0  0  0  0  0  0  0  0
  152.8068  140.1746  157.2164 H   0  0  0  0  0  0  0  0  0  0  0  0
  1  2  1  0  0  0  0
  1 21  1  0  0  0  0
  1 22  1  0  0  0  0
  1 23  1  0  0  0  0
  2 19  1  0  0  0  0
  2  3  2  0  0  0  0
  3  4  1  0  0  0  0
  3 24  1  0  0  0  0
  4  5  1  0  0  0  0
  4 18  2  0  0  0  0
  5  6  1  0  0  0  0
  5 25  1  0  0  0  0
  5 26  1  0  0  0  0
  6  7  2  0  0  0  0
  6  8  1  0  0  0  0
  8  9  1  0  0  0  0
  8 27  1  0  0  0  0
  9 17  1  0  0  0  0
  9 10  1  0  0  0  0
  9 28  1  0  0  0  0
 10 11  1  0  0  0  0
 10 29  1  0  0  0  0
 10 30  1  0  0  0  0
 11 12  1  0  0  0  0
 11 31  1  0  0  0  0
 11 32  1  0  0  0  0
 12 13  1  0  0  0  0
 12 16  1  0  0  0  0
 12 33  1  0  0  0  0
 13 14  1  0  0  0  0
 13 15  1  0  0  0  0
 13 34  1  0  0  0  0
 14 35  1  0  0  0  0
 14 36  1  0  0  0  0
 14 37  1  0  0  0  0
 15 38  1  0  0  0  0
 15 39  1  0  0  0  0
 15 40  1  0  0  0  0
 16 17  1  0  0  0  0
 16 41  1  0  0  0  0
 16 42  1  0  0  0  0
 17 43  1  0  0  0  0
 17 44  1  0  0  0  0
 18 19  1  0  0  0  0
 19 20  1  0  0  0  0
M  END
> <s_m_source_file>
AV-unprocessed.smi

> <i_m_source_file_index>
2909

> <i_lp_mmshare_version>
43012

> <i_f3d_flags>
0

> <s_epik_input>
W0NIM11jMVtjSF1jKG5bbkhdMSlbQ0gyXUMoPU8pW05IXVtDQEBIXTJbQ0gyXVtDSDJdW0NAQEhdKFtDSF0oW0NIM10pW0NIM10pW0NIMl1bQ0gyXTI=

> <s_epik_cmdline>
J2VwaWtfcHl0aG9uJywgJy1waCcsICc3LjAnLCAnLXRuJywgJzgnLCAnLW1hJywgJzIwMCcsICctbWV0YWxfYmluZGluZycsICctaW1hZScsICc8aW5maWxlLm1hZT4nLCAnLW9tYWUnLCAnPG91dGZpbGUubWFlPic=

> <r_lp_tautomer_probability>
0.5

> <r_epik_Ionization_Penalty>
9.34828e-05

> <r_epik_Ionization_Penalty_Charging>
0

> <r_epik_Ionization_Penalty_Neutral>
9.34828e-05

> <r_epik_State_Penalty>
0.41068

> <r_epik_Charging_Adjusted_Penalty>
0.41068

> <i_epik_Tot_Q>
0

> <i_epik_Tot_abs_Q>
0

> <r_epik_Metal_State_Penalty>
0.4107

> <b_epik_Metal_Only>
0

> <s_lp_Force_Field>
OPLS_2005

> <r_lp_Energy>
11.82

> <b_lp_Chiralities_Consistent>
1

> <s_lp_Variant>
AV-unprocessed.smi:2909-1

> <Gold.Version>
5.8.1

> <Gold.Id.Protein>
6NUR|6NUR_protein|mol2

> <Gold.PLP.Fitness>
42.0908

> <Gold.PLP.PLP>
-37.3110

> <Gold.PLP.part.hbond>
-2.0000

> <Gold.PLP.part.metal>
0.0000

> <Gold.PLP.part.buried>
-6.4455

> <Gold.PLP.part.nonpolar>
-30.4273

> <Gold.PLP.part.repulsive>
0.7072

> <Gold.PLP.ligand.clash>
0.0000

> <Gold.PLP.ligand.torsion>
0.1818

> <Gold.PLP.Chemscore.Hbond>
1.7072

> <Gold.PLP.Chemscore.CHOScore>
0.0000

> <Gold.PLP.Chemscore.Metal>
0.0000

> <Gold.Chemscore.Hbonds>
donor molecule, donor type, donor heavy atom, donor atom, acceptor molecule, acceptor atom, score
      P1  H  7989  7998       L1     7  0.85
      P1  H 10752 10764       L1    18  0.91

> <Gold.PLP.Chemscore.Internal.Correction>
0.0218

> <Gold.Rescore>
     Score         DG    S(hbond)    S(metal)    S(lipo)     H(rot)  DE(clash)    DE(int)     intcor
     17.42     -18.69       1.49        0.00     103.10       1.50       0.00       1.27       ----

> <Gold.Chemscore.Fitness>
17.4180

> <Gold.Chemscore.DG>
-18.6879

> <Gold.Chemscore.ZeroCoef>
-5.4800

> <Gold.Chemscore.Hbond>
1.4933

> <Gold.Chemscore.Metal>
0.0000

> <Gold.Chemscore.Lipo>
103.1027

> <Gold.Chemscore.Internal_Hbond>
0.0000

> <Gold.Chemscore.DEClash>
0.0000

> <Gold.Chemscore.DEInternal>
1.2700

> <Gold.Chemscore.Rot>
1.5011

> <Gold.Chemscore.Internal.Correction>
   9.000000E+99

> <Gold.Chemscore.Hbonds>
donor molecule, donor type, donor heavy atom, donor atom, acceptor molecule, acceptor atom, score
      P1  H  7989  7998       L1     7  0.72
      P1  H 10752 10764       L1    18  0.12

> <Gold.Chemscore.Hbond.Weighted>
-4.9878

> <Gold.Chemscore.Metal.Weighted>
-0.0000

> <Gold.Chemscore.Lipo.Weighted>
-12.0630

> <Gold.Chemscore.Internal_Hbond.Weighted>
0.0000

> <Gold.Chemscore.DEClash.Weighted>
0.0000

> <Gold.Chemscore.DEInternal.Weighted>
1.2700

> <Gold.Chemscore.Rot.Weighted>
3.8429

> <Gold.Chemscore.Internal.Correction.Weighted>
   9.000000E+99

> <Gold.Protein.RotatedTorsions>
[ 6907 6896 6895 6894 ] final   97.39 input  -60.11 | X-H torsion
[ 7974 7965 7964 7962 ] final -120.78 input  175.53 | X-H torsion
[ 8008 7997 7996 7995 ] final  -37.32 input   59.86 | X-H torsion
[ 10167 10162 10161 10158 ] final -162.51 input  -65.29 | X-H torsion
[ 10718 10713 10712 10709 ] final  -40.04 input   66.30 | X-H torsion
[ 10763 10752 10751 10750 ] final  -59.12 input  -60.55 | X-H torsion
[ 11005 11000 10999 10996 ] final  -72.16 input  -57.11 | X-H torsion

> <Gold.Protein.ActiveResidues>
 VAL166  LYS551  ARG553  GLY616  TRP617  ASP618  TYR619  PRO620  LYS621  CYS622 
 ASP623  PHE694  ASN695  SER759  ASP760  ASP761  ALA762  ILE779  LEU786  VAL792 
 PHE793  MET794  SER795  GLU796  ALA797  LYS798  CYS799  TRP800  GLU811  SER814 

> <Gold.Protein.RotatedAtoms>
  152.5424  134.0741  159.8206 H   0  0  0  0  0  0  0  0  0  0  0  0  # atno 6907 bound_to 6896
  151.0851  133.5352  159.2625 H   0  0  0  0  0  0  0  0  0  0  0  0  # atno 6908 bound_to 6896
  151.2164  135.0510  159.8986 H   0  0  0  0  0  0  0  0  0  0  0  0  # atno 6909 bound_to 6896
  145.0476  140.8194  143.4228 H   0  0  0  0  0  0  0  0  0  0  0  0  # atno 7974 bound_to 7965
  154.4056  140.1607  156.2517 H   0  0  0  0  0  0  0  0  0  0  0  0  # atno 8008 bound_to 7997
  155.9113  140.3427  155.6078 H   0  0  0  0  0  0  0  0  0  0  0  0  # atno 8009 bound_to 7997
  155.7333  140.0783  157.2270 H   0  0  0  0  0  0  0  0  0  0  0  0  # atno 8010 bound_to 7997
  139.6387  144.0300  152.2075 H   0  0  0  0  0  0  0  0  0  0  0  0  # atno 10167 bound_to 10162
  156.2857  130.4222  149.8290 H   0  0  0  0  0  0  0  0  0  0  0  0  # atno 10718 bound_to 10713
  154.2487  135.6330  153.5232 H   0  0  0  0  0  0  0  0  0  0  0  0  # atno 10763 bound_to 10752
  152.9916  135.5559  154.5831 H   0  0  0  0  0  0  0  0  0  0  0  0  # atno 10764 bound_to 10752
  154.5353  135.2891  155.1118 H   0  0  0  0  0  0  0  0  0  0  0  0  # atno 10765 bound_to 10752
  141.1604  133.6838  156.7016 H   0  0  0  0  0  0  0  0  0  0  0  0  # atno 11005 bound_to 11000
  145.1568  139.2482  143.5412 LP  0  0  0  0  0  0  0  0  0  0  0  0  # atno 17320 bound_to 7965
  146.3515  140.1284  142.8598 LP  0  0  0  0  0  0  0  0  0  0  0  0  # atno 17321 bound_to 7965
  139.9984  144.6311  150.7751 LP  0  0  0  0  0  0  0  0  0  0  0  0  # atno 17342 bound_to 10162
  140.7479  143.2914  151.3320 LP  0  0  0  0  0  0  0  0  0  0  0  0  # atno 17343 bound_to 10162
  156.5721  130.8429  151.3359 LP  0  0  0  0  0  0  0  0  0  0  0  0  # atno 17370 bound_to 10713
  157.7328  130.9720  150.1945 LP  0  0  0  0  0  0  0  0  0  0  0  0  # atno 17371 bound_to 10713
  140.2954  134.8206  157.4053 LP  0  0  0  0  0  0  0  0  0  0  0  0  # atno 17394 bound_to 11000
  140.1309  134.5097  155.8106 LP  0  0  0  0  0  0  0  0  0  0  0  0  # atno 17395 bound_to 11000

$$$$
