AV-unprocessed.smi:94|AV-procd|sdf|852|dock3
  -GOLD-   2262017293D 1   1.00000     0.00000
 Structure written by MMmdl.
 53 55  0  0  0  0  0  0  0  0  1 V2000
  149.0701  141.4265  154.3418 C   0  0  0  0  0  0  0  0  0  0  0  0
  150.1660  140.6165  154.7412 O   0  0  0  0  0  0  0  0  0  0  0  0
  150.7919  140.8977  155.9390 C   0  0  0  0  0  0  0  0  0  0  0  0
  150.6004  142.1112  156.6480 C   0  0  0  0  0  0  0  0  0  0  0  0
  151.2755  142.3514  157.8584 C   0  0  0  0  0  0  0  0  0  0  0  0
  152.1569  141.3868  158.3787 C   0  0  0  0  0  0  0  0  0  0  0  0
  152.8900  141.6464  159.6785 C   0  0  0  0  0  0  0  0  0  0  0  0
  152.3513  140.1772  157.6857 C   0  0  0  0  0  0  0  0  0  0  0  0
  151.6690  139.9193  156.4733 C   0  0  0  0  0  0  0  0  0  0  0  0
  151.8994  138.6062  155.7230 C   0  0  1  0  0  0  0  0  0  0  0  0
  153.4030  138.3178  155.5754 C   0  0  0  0  0  0  0  0  0  0  0  0
  151.2275  137.4714  156.3563 N   0  0  0  0  0  0  0  0  0  0  0  0
  150.9785  136.2876  155.7759 C   0  0  0  0  0  0  0  0  0  0  0  0
  151.2920  136.0263  154.6136 O   0  0  0  0  0  0  0  0  0  0  0  0
  150.2554  135.2479  156.6447 C   0  0  0  0  0  0  0  0  0  0  0  0
  150.0526  133.9608  155.9446 N   0  0  0  0  0  0  0  0  0  0  0  0
  149.1597  133.9069  154.8457 C   0  0  0  0  0  0  0  0  0  0  0  0
  148.5401  134.9049  154.4757 O   0  0  0  0  0  0  0  0  0  0  0  0
  149.0384  132.6062  154.1967 C   0  0  0  0  0  0  0  0  0  0  0  0
  148.1999  132.4575  153.1571 F   0  0  0  0  0  0  0  0  0  0  0  0
  149.7551  131.5459  154.6235 C   0  0  0  0  0  0  0  0  0  0  0  0
  150.6405  131.6187  155.6843 N   0  0  0  0  0  0  0  0  0  0  0  0
  151.4454  130.4218  156.1477 C   0  0  2  0  0  0  0  0  0  0  0  0
  152.9424  130.7784  156.2457 C   0  0  0  0  0  0  0  0  0  0  0  0
  153.6032  129.6954  155.4161 C   0  0  0  0  0  0  0  0  0  0  0  0
  152.5108  129.3533  154.4147 C   0  0  0  0  0  0  0  0  0  0  0  0
  151.3367  129.3843  155.2150 O   0  0  0  0  0  0  0  0  0  0  0  0
  150.7951  132.8376  156.3795 C   0  0  0  0  0  0  0  0  0  0  0  0
  151.5662  132.9192  157.3385 O   0  0  0  0  0  0  0  0  0  0  0  0
  148.6915  141.0698  153.3841 H   0  0  0  0  0  0  0  0  0  0  0  0
  149.3700  142.4670  154.2103 H   0  0  0  0  0  0  0  0  0  0  0  0
  148.2510  141.3723  155.0601 H   0  0  0  0  0  0  0  0  0  0  0  0
  149.9395  142.8819  156.2824 H   0  0  0  0  0  0  0  0  0  0  0  0
  151.1167  143.2820  158.3834 H   0  0  0  0  0  0  0  0  0  0  0  0
  153.8679  141.1640  159.6759 H   0  0  0  0  0  0  0  0  0  0  0  0
  152.3153  141.2552  160.5180 H   0  0  0  0  0  0  0  0  0  0  0  0
  153.0420  142.7150  159.8338 H   0  0  0  0  0  0  0  0  0  0  0  0
  153.0376  139.4491  158.0925 H   0  0  0  0  0  0  0  0  0  0  0  0
  151.4706  138.7158  154.7257 H   0  0  0  0  0  0  0  0  0  0  0  0
  153.9083  139.1326  155.0560 H   0  0  0  0  0  0  0  0  0  0  0  0
  153.5809  137.4073  155.0024 H   0  0  0  0  0  0  0  0  0  0  0  0
  153.8807  138.1972  156.5483 H   0  0  0  0  0  0  0  0  0  0  0  0
  150.9292  137.5996  157.3123 H   0  0  0  0  0  0  0  0  0  0  0  0
  150.8140  135.0926  157.5699 H   0  0  0  0  0  0  0  0  0  0  0  0
  149.3111  135.6819  156.9756 H   0  0  0  0  0  0  0  0  0  0  0  0
  149.6153  130.6121  154.1008 H   0  0  0  0  0  0  0  0  0  0  0  0
  150.9945  130.1150  157.0930 H   0  0  0  0  0  0  0  0  0  0  0  0
  153.1289  131.7600  155.8068 H   0  0  0  0  0  0  0  0  0  0  0  0
  153.2751  130.7856  157.2839 H   0  0  0  0  0  0  0  0  0  0  0  0
  154.5291  130.0237  154.9432 H   0  0  0  0  0  0  0  0  0  0  0  0
  153.8243  128.8275  156.0387 H   0  0  0  0  0  0  0  0  0  0  0  0
  152.4527  130.1081  153.6291 H   0  0  0  0  0  0  0  0  0  0  0  0
  152.6546  128.3785  153.9484 H   0  0  0  0  0  0  0  0  0  0  0  0
  1  2  1  0  0  0  0
  1 30  1  0  0  0  0
  1 31  1  0  0  0  0
  1 32  1  0  0  0  0
  2  3  1  0  0  0  0
  3  9  1  0  0  0  0
  3  4  2  0  0  0  0
  4  5  1  0  0  0  0
  4 33  1  0  0  0  0
  5  6  2  0  0  0  0
  5 34  1  0  0  0  0
  6  7  1  0  0  0  0
  6  8  1  0  0  0  0
  7 35  1  0  0  0  0
  7 36  1  0  0  0  0
  7 37  1  0  0  0  0
  8  9  2  0  0  0  0
  8 38  1  0  0  0  0
  9 10  1  0  0  0  0
 10 11  1  0  0  0  0
 10 12  1  0  0  0  0
 10 39  1  0  0  0  0
 11 40  1  0  0  0  0
 11 41  1  0  0  0  0
 11 42  1  0  0  0  0
 12 13  1  0  0  0  0
 12 43  1  0  0  0  0
 13 14  2  0  0  0  0
 13 15  1  0  0  0  0
 15 16  1  0  0  0  0
 15 44  1  0  0  0  0
 15 45  1  0  0  0  0
 16 28  1  0  0  0  0
 16 17  1  0  0  0  0
 17 18  2  0  0  0  0
 17 19  1  0  0  0  0
 19 20  1  0  0  0  0
 19 21  2  0  0  0  0
 21 22  1  0  0  0  0
 21 46  1  0  0  0  0
 22 23  1  0  0  0  0
 22 28  1  0  0  0  0
 23 27  1  0  0  0  0
 23 24  1  0  0  0  0
 23 47  1  0  0  0  0
 24 25  1  0  0  0  0
 24 48  1  0  0  0  0
 24 49  1  0  0  0  0
 25 26  1  0  0  0  0
 25 50  1  0  0  0  0
 25 51  1  0  0  0  0
 26 27  1  0  0  0  0
 26 52  1  0  0  0  0
 26 53  1  0  0  0  0
 28 29  2  0  0  0  0
M  END
> <s_m_source_file>
AV-unprocessed.smi

> <i_m_source_file_index>
94

> <i_lp_mmshare_version>
43012

> <i_f3d_flags>
0

> <s_epik_input>
W0NIM11PYzFbY0hdW2NIXWMoW0NIM10pW2NIXWMxW0NASF0oW0NIM10pW05IXUMoPU8pW0NIMl1uMmMoPU8pYyhGKVtjSF1uKGMyPU8pW0NAQEhdM1tDSDJdW0NIMl1bQ0gyXU8z

> <s_epik_cmdline>
J2VwaWtfcHl0aG9uJywgJy1waCcsICc3LjAnLCAnLXRuJywgJzgnLCAnLW1hJywgJzIwMCcsICctbWV0YWxfYmluZGluZycsICctaW1hZScsICc8aW5maWxlLm1hZT4nLCAnLW9tYWUnLCAnPG91dGZpbGUubWFlPic=

> <r_lp_tautomer_probability>
1

> <r_epik_Ionization_Penalty>
3.37009e-08

> <r_epik_Ionization_Penalty_Charging>
3.59856e-09

> <r_epik_Ionization_Penalty_Neutral>
3.01024e-08

> <r_epik_State_Penalty>
-0

> <r_epik_Charging_Adjusted_Penalty>
3.59856e-09

> <i_epik_Tot_Q>
0

> <i_epik_Tot_abs_Q>
0

> <r_epik_Metal_State_Penalty>
-0

> <b_epik_Metal_Only>
0

> <s_epik_Chemistry_Notes>
This compound contains an acetal/aminal-like group ( X-CH(R)-Y where X, Y are N, S, or O) that may be acid/base labile, releasing an aldehyde.

> <s_lp_Force_Field>
OPLS_2005

> <r_lp_Energy>
32.1562

> <b_lp_Chiralities_Consistent>
1

> <s_lp_Variant>
AV-unprocessed.smi:94-2

> <Gold.Version>
5.8.1

> <Gold.Id.Protein>
6NUR|6NUR_protein|mol2

> <Gold.PLP.Fitness>
56.3432

> <Gold.PLP.PLP>
-49.7607

> <Gold.PLP.part.hbond>
-3.0000

> <Gold.PLP.part.metal>
0.0000

> <Gold.PLP.part.buried>
-2.8814

> <Gold.PLP.part.nonpolar>
-46.1646

> <Gold.PLP.part.repulsive>
1.4034

> <Gold.PLP.ligand.clash>
0.0000

> <Gold.PLP.ligand.torsion>
0.8858

> <Gold.PLP.Chemscore.Hbond>
2.7440

> <Gold.PLP.Chemscore.CHOScore>
0.0000

> <Gold.PLP.Chemscore.Metal>
0.0000

> <Gold.Chemscore.Hbonds>
donor molecule, donor type, donor heavy atom, donor atom, acceptor molecule, acceptor atom, score
      P1  H  6896  6908       L1    29  0.90
      P1  H  7989  7998       L1     2  0.88
      P1  H 10752 10765       L1    14  1.00

> <Gold.PLP.Chemscore.Internal.Correction>
0.1220

> <Gold.Rescore>
     Score         DG    S(hbond)    S(metal)    S(lipo)     H(rot)  DE(clash)    DE(int)     intcor
     13.43     -19.55       2.30        0.00     105.65       2.34       0.50       5.62       ----

> <Gold.Chemscore.Fitness>
13.4331

> <Gold.Chemscore.DG>
-19.5536

> <Gold.Chemscore.ZeroCoef>
-5.4800

> <Gold.Chemscore.Hbond>
2.3040

> <Gold.Chemscore.Metal>
0.0000

> <Gold.Chemscore.Lipo>
105.6493

> <Gold.Chemscore.Internal_Hbond>
0.0000

> <Gold.Chemscore.DEClash>
0.4995

> <Gold.Chemscore.DEInternal>
5.6210

> <Gold.Chemscore.Rot>
2.3370

> <Gold.Chemscore.Internal.Correction>
   9.000000E+99

> <Gold.Chemscore.Hbonds>
donor molecule, donor type, donor heavy atom, donor atom, acceptor molecule, acceptor atom, score
      P1  H  6896  6908       L1    29  0.88
      P1  H  7989  7998       L1     2  0.17
      P1  H 10752 10765       L1    14  0.94

> <Gold.Chemscore.Hbond.Weighted>
-7.6953

> <Gold.Chemscore.Metal.Weighted>
-0.0000

> <Gold.Chemscore.Lipo.Weighted>
-12.3610

> <Gold.Chemscore.Internal_Hbond.Weighted>
0.0000

> <Gold.Chemscore.DEClash.Weighted>
0.4995

> <Gold.Chemscore.DEInternal.Weighted>
5.6210

> <Gold.Chemscore.Rot.Weighted>
5.9827

> <Gold.Chemscore.Internal.Correction.Weighted>
   9.000000E+99

> <Gold.Protein.RotatedTorsions>
[ 6907 6896 6895 6894 ] final   76.23 input  -60.11 | X-H torsion
[ 7974 7965 7964 7962 ] final   80.11 input  175.53 | X-H torsion
[ 8008 7997 7996 7995 ] final  116.31 input   59.86 | X-H torsion
[ 10167 10162 10161 10158 ] final -109.88 input  -65.29 | X-H torsion
[ 10718 10713 10712 10709 ] final  -53.82 input   66.30 | X-H torsion
[ 10763 10752 10751 10750 ] final  154.71 input  -60.55 | X-H torsion
[ 11005 11000 10999 10996 ] final  175.97 input  -57.11 | X-H torsion

> <Gold.Protein.ActiveResidues>
 VAL166  LYS551  ARG553  GLY616  TRP617  ASP618  TYR619  PRO620  LYS621  CYS622 
 ASP623  PHE694  ASN695  SER759  ASP760  ASP761  ALA762  ILE779  LEU786  VAL792 
 PHE793  MET794  SER795  GLU796  ALA797  LYS798  CYS799  TRP800  GLU811  SER814 

> <Gold.Protein.RotatedAtoms>
  152.5063  134.4001  159.9413 H   0  0  0  0  0  0  0  0  0  0  0  0  # atno 6907 bound_to 6896
  151.3964  133.3765  159.2735 H   0  0  0  0  0  0  0  0  0  0  0  0  # atno 6908 bound_to 6896
  150.9394  134.8825  159.7661 H   0  0  0  0  0  0  0  0  0  0  0  0  # atno 6909 bound_to 6896
  145.6554  139.2458  143.1953 H   0  0  0  0  0  0  0  0  0  0  0  0  # atno 7974 bound_to 7965
  156.2432  140.2920  156.0503 H   0  0  0  0  0  0  0  0  0  0  0  0  # atno 8008 bound_to 7997
  155.1888  140.0406  157.2913 H   0  0  0  0  0  0  0  0  0  0  0  0  # atno 8009 bound_to 7997
  154.6209  140.2475  155.7558 H   0  0  0  0  0  0  0  0  0  0  0  0  # atno 8010 bound_to 7997
  140.1505  143.4203  152.1498 H   0  0  0  0  0  0  0  0  0  0  0  0  # atno 10167 bound_to 10162
  156.1503  130.4151  149.9957 H   0  0  0  0  0  0  0  0  0  0  0  0  # atno 10718 bound_to 10713
  154.1567  135.2812  155.3120 H   0  0  0  0  0  0  0  0  0  0  0  0  # atno 10763 bound_to 10752
  154.6177  135.5478  153.7544 H   0  0  0  0  0  0  0  0  0  0  0  0  # atno 10764 bound_to 10752
  153.0204  135.6431  154.1710 H   0  0  0  0  0  0  0  0  0  0  0  0  # atno 10765 bound_to 10752
  140.3680  134.7055  157.4374 H   0  0  0  0  0  0  0  0  0  0  0  0  # atno 11005 bound_to 11000
  146.1169  140.7358  142.9476 LP  0  0  0  0  0  0  0  0  0  0  0  0  # atno 17320 bound_to 7965
  144.7108  140.4029  143.7082 LP  0  0  0  0  0  0  0  0  0  0  0  0  # atno 17321 bound_to 7965
  139.5428  144.7272  151.4678 LP  0  0  0  0  0  0  0  0  0  0  0  0  # atno 17342 bound_to 10162
  140.6705  143.8303  150.6994 LP  0  0  0  0  0  0  0  0  0  0  0  0  # atno 17343 bound_to 10162
  156.7816  130.9223  151.3646 LP  0  0  0  0  0  0  0  0  0  0  0  0  # atno 17370 bound_to 10713
  157.6651  130.9000  149.9914 LP  0  0  0  0  0  0  0  0  0  0  0  0  # atno 17371 bound_to 10713
  140.0574  134.6044  155.8789 LP  0  0  0  0  0  0  0  0  0  0  0  0  # atno 17394 bound_to 11000
  141.1963  133.6591  156.5687 LP  0  0  0  0  0  0  0  0  0  0  0  0  # atno 17395 bound_to 11000

$$$$
