AV-unprocessed.smi:2496|AV-procd|sdf|9827|dock8
  -GOLD-   2272013453D 1   1.00000     0.00000
 Structure written by MMmdl.
 40 40  0  0  0  0  0  0  0  0  1 V2000
  152.2583  139.5496  156.0359 C   0  0  0  0  0  0  0  0  0  0  0  0
  150.9533  139.9624  155.4173 C   0  0  0  0  0  0  0  0  0  0  0  0
  150.6874  139.6052  154.1706 N   0  0  0  0  0  0  0  0  0  0  0  0
  149.4739  140.1317  153.9368 N   0  0  0  0  0  0  0  0  0  0  0  0
  148.9651  140.8199  155.0130 C   0  0  0  0  0  0  0  0  0  0  0  0
  147.6312  141.4884  154.9522 C   0  0  0  0  0  0  0  0  0  0  0  0
  149.9044  140.7319  156.0091 C   0  0  0  0  0  0  0  0  0  0  0  0
  149.8855  141.3101  157.4108 C   0  0  2  0  0  0  0  0  0  0  0  0
  148.4739  141.7732  157.8174 C   0  0  0  0  0  0  0  0  0  0  0  0
  150.9434  142.4205  157.5288 C   0  0  0  0  0  0  0  0  0  0  0  0
  151.2314  143.1255  156.5608 O   0  0  0  0  0  0  0  0  0  0  0  0
  151.5195  142.5582  158.7342 N   0  0  0  0  0  0  0  0  0  0  0  0
  152.6048  143.4775  159.0690 C   0  0  1  0  0  0  0  0  0  0  0  0
  152.0829  144.9198  158.9412 C   0  0  0  0  0  0  0  0  0  0  0  0
  153.1643  143.1445  160.4777 C   0  0  0  0  0  0  0  0  0  0  0  0
  153.4735  141.6460  160.6454 C   0  0  0  0  0  0  0  0  0  0  0  0
  152.2191  143.6036  161.6063 C   0  0  0  0  0  0  0  0  0  0  0  0
  149.0098  140.0168  153.0469 H   0  0  0  0  0  0  0  0  0  0  0  0
  152.8349  140.4221  156.3433 H   0  0  0  0  0  0  0  0  0  0  0  0
  152.8730  138.9738  155.3431 H   0  0  0  0  0  0  0  0  0  0  0  0
  152.0912  138.9332  156.9192 H   0  0  0  0  0  0  0  0  0  0  0  0
  147.6559  142.4584  155.4484 H   0  0  0  0  0  0  0  0  0  0  0  0
  146.8719  140.8775  155.4399 H   0  0  0  0  0  0  0  0  0  0  0  0
  147.3193  141.6521  153.9203 H   0  0  0  0  0  0  0  0  0  0  0  0
  150.1795  140.5449  158.1300 H   0  0  0  0  0  0  0  0  0  0  0  0
  148.1026  142.5686  157.1712 H   0  0  0  0  0  0  0  0  0  0  0  0
  148.4593  142.1457  158.8423 H   0  0  0  0  0  0  0  0  0  0  0  0
  147.7653  140.9464  157.7632 H   0  0  0  0  0  0  0  0  0  0  0  0
  151.2145  141.9362  159.4691 H   0  0  0  0  0  0  0  0  0  0  0  0
  153.4169  143.3471  158.3513 H   0  0  0  0  0  0  0  0  0  0  0  0
  152.8806  145.6516  159.0639 H   0  0  0  0  0  0  0  0  0  0  0  0
  151.3150  145.1313  159.6859 H   0  0  0  0  0  0  0  0  0  0  0  0
  151.6462  145.0922  157.9569 H   0  0  0  0  0  0  0  0  0  0  0  0
  154.1030  143.6858  160.6050 H   0  0  0  0  0  0  0  0  0  0  0  0
  152.5843  141.0374  160.4778 H   0  0  0  0  0  0  0  0  0  0  0  0
  153.8366  141.4312  161.6509 H   0  0  0  0  0  0  0  0  0  0  0  0
  154.2460  141.3100  159.9544 H   0  0  0  0  0  0  0  0  0  0  0  0
  151.2339  143.1471  161.5059 H   0  0  0  0  0  0  0  0  0  0  0  0
  152.0855  144.6857  161.6130 H   0  0  0  0  0  0  0  0  0  0  0  0
  152.6132  143.3291  162.5851 H   0  0  0  0  0  0  0  0  0  0  0  0
  1  2  1  0  0  0  0
  1 19  1  0  0  0  0
  1 20  1  0  0  0  0
  1 21  1  0  0  0  0
  2  7  1  0  0  0  0
  2  3  2  0  0  0  0
  3  4  1  0  0  0  0
  4 18  1  0  0  0  0
  4  5  1  0  0  0  0
  5  6  1  0  0  0  0
  5  7  2  0  0  0  0
  6 22  1  0  0  0  0
  6 23  1  0  0  0  0
  6 24  1  0  0  0  0
  7  8  1  0  0  0  0
  8  9  1  0  0  0  0
  8 10  1  0  0  0  0
  8 25  1  0  0  0  0
  9 26  1  0  0  0  0
  9 27  1  0  0  0  0
  9 28  1  0  0  0  0
 10 11  2  0  0  0  0
 10 12  1  0  0  0  0
 12 13  1  0  0  0  0
 12 29  1  0  0  0  0
 13 14  1  0  0  0  0
 13 15  1  0  0  0  0
 13 30  1  0  0  0  0
 14 31  1  0  0  0  0
 14 32  1  0  0  0  0
 14 33  1  0  0  0  0
 15 16  1  0  0  0  0
 15 17  1  0  0  0  0
 15 34  1  0  0  0  0
 16 35  1  0  0  0  0
 16 36  1  0  0  0  0
 16 37  1  0  0  0  0
 17 38  1  0  0  0  0
 17 39  1  0  0  0  0
 17 40  1  0  0  0  0
M  END
> <s_m_source_file>
AV-unprocessed.smi

> <i_m_source_file_index>
2496

> <i_lp_mmshare_version>
43012

> <i_f3d_flags>
0

> <s_epik_input>
W0NIM11jMW5bbkhdYyhbQ0gzXSljMVtDQEhdKFtDSDNdKUMoPU8pW05IXVtDQEhdKFtDSDNdKVtDSF0oW0NIM10pW0NIM10=

> <s_epik_cmdline>
J2VwaWtfcHl0aG9uJywgJy1waCcsICc3LjAnLCAnLXRuJywgJzgnLCAnLW1hJywgJzIwMCcsICctbWV0YWxfYmluZGluZycsICctaW1hZScsICc8aW5maWxlLm1hZT4nLCAnLW9tYWUnLCAnPG91dGZpbGUubWFlPic=

> <r_lp_tautomer_probability>
1

> <r_epik_Ionization_Penalty>
0.000456212

> <r_epik_Ionization_Penalty_Charging>
0

> <r_epik_Ionization_Penalty_Neutral>
0.000456212

> <r_epik_State_Penalty>
-0

> <r_epik_Charging_Adjusted_Penalty>
0

> <i_epik_Tot_Q>
0

> <i_epik_Tot_abs_Q>
0

> <r_epik_Metal_State_Penalty>
-0

> <b_epik_Metal_Only>
0

> <s_lp_Force_Field>
OPLS_2005

> <r_lp_Energy>
1.42294

> <b_lp_Chiralities_Consistent>
1

> <s_lp_Variant>
AV-unprocessed.smi:2496-3

> <Gold.Version>
5.8.1

> <Gold.Id.Protein>
6NUR|6NUR_protein|mol2

> <Gold.PLP.Fitness>
40.7854

> <Gold.PLP.PLP>
-38.7609

> <Gold.PLP.part.hbond>
-2.0000

> <Gold.PLP.part.metal>
0.0000

> <Gold.PLP.part.buried>
-2.1140

> <Gold.PLP.part.nonpolar>
-35.4518

> <Gold.PLP.part.repulsive>
2.4175

> <Gold.PLP.ligand.clash>
0.0000

> <Gold.PLP.ligand.torsion>
1.1918

> <Gold.PLP.Chemscore.Hbond>
1.4325

> <Gold.PLP.Chemscore.CHOScore>
0.0000

> <Gold.PLP.Chemscore.Metal>
0.0000

> <Gold.Chemscore.Hbonds>
donor molecule, donor type, donor heavy atom, donor atom, acceptor molecule, acceptor atom, score
      L1  H     4    18       P1  7957  0.69
      P1  H  7989  7998       L1     3  0.63

> <Gold.PLP.Chemscore.Internal.Correction>
0.1107

> <Gold.Rescore>
     Score         DG    S(hbond)    S(metal)    S(lipo)     H(rot)  DE(clash)    DE(int)     intcor
     13.02     -16.62       0.91        0.00     101.34       1.47       1.39       2.21       ----

> <Gold.Chemscore.Fitness>
13.0243

> <Gold.Chemscore.DG>
-16.6193

> <Gold.Chemscore.ZeroCoef>
-5.4800

> <Gold.Chemscore.Hbond>
0.9090

> <Gold.Chemscore.Metal>
0.0000

> <Gold.Chemscore.Lipo>
101.3379

> <Gold.Chemscore.Internal_Hbond>
0.0000

> <Gold.Chemscore.DEClash>
1.3888

> <Gold.Chemscore.DEInternal>
2.2061

> <Gold.Chemscore.Rot>
1.4662

> <Gold.Chemscore.Internal.Correction>
   9.000000E+99

> <Gold.Chemscore.Hbonds>
donor molecule, donor type, donor heavy atom, donor atom, acceptor molecule, acceptor atom, score
      L1  H     4    18       P1  7957  0.68
      P1  H  7989  7998       L1     3  0.01

> <Gold.Chemscore.Hbond.Weighted>
-3.0361

> <Gold.Chemscore.Metal.Weighted>
-0.0000

> <Gold.Chemscore.Lipo.Weighted>
-11.8565

> <Gold.Chemscore.Internal_Hbond.Weighted>
0.0000

> <Gold.Chemscore.DEClash.Weighted>
1.3888

> <Gold.Chemscore.DEInternal.Weighted>
2.2061

> <Gold.Chemscore.Rot.Weighted>
3.7534

> <Gold.Chemscore.Internal.Correction.Weighted>
   9.000000E+99

> <Gold.Protein.RotatedTorsions>
[ 6907 6896 6895 6894 ] final   28.01 input  -60.11 | X-H torsion
[ 7974 7965 7964 7962 ] final   -9.76 input  175.53 | X-H torsion
[ 8008 7997 7996 7995 ] final   22.35 input   59.86 | X-H torsion
[ 10167 10162 10161 10158 ] final -112.70 input  -65.29 | X-H torsion
[ 10718 10713 10712 10709 ] final -127.01 input   66.30 | X-H torsion
[ 10763 10752 10751 10750 ] final   41.73 input  -60.55 | X-H torsion
[ 11005 11000 10999 10996 ] final   89.48 input  -57.11 | X-H torsion

> <Gold.Protein.ActiveResidues>
 VAL166  LYS551  ARG553  GLY616  TRP617  ASP618  TYR619  PRO620  LYS621  CYS622 
 ASP623  PHE694  ASN695  SER759  ASP760  ASP761  ALA762  ILE779  LEU786  VAL792 
 PHE793  MET794  SER795  GLU796  ALA797  LYS798  CYS799  TRP800  GLU811  SER814 

> <Gold.Protein.RotatedAtoms>
  152.0107  134.9877  160.0567 H   0  0  0  0  0  0  0  0  0  0  0  0  # atno 6907 bound_to 6896
  152.1431  133.4471  159.4785 H   0  0  0  0  0  0  0  0  0  0  0  0  # atno 6908 bound_to 6896
  150.6867  134.2199  159.4436 H   0  0  0  0  0  0  0  0  0  0  0  0  # atno 6909 bound_to 6896
  146.2242  140.2665  142.8354 H   0  0  0  0  0  0  0  0  0  0  0  0  # atno 7974 bound_to 7965
  154.9644  140.3082  155.5016 H   0  0  0  0  0  0  0  0  0  0  0  0  # atno 8008 bound_to 7997
  156.2973  140.2295  156.4670 H   0  0  0  0  0  0  0  0  0  0  0  0  # atno 8009 bound_to 7997
  154.7935  140.0438  157.1207 H   0  0  0  0  0  0  0  0  0  0  0  0  # atno 8010 bound_to 7997
  140.1199  143.4453  152.1698 H   0  0  0  0  0  0  0  0  0  0  0  0  # atno 10167 bound_to 10162
  156.1817  130.6736  151.0313 H   0  0  0  0  0  0  0  0  0  0  0  0  # atno 10718 bound_to 10713
  152.9900  135.6153  154.2835 H   0  0  0  0  0  0  0  0  0  0  0  0  # atno 10763 bound_to 10752
  154.2563  135.2783  155.2798 H   0  0  0  0  0  0  0  0  0  0  0  0  # atno 10764 bound_to 10752
  154.5244  135.5805  153.6765 H   0  0  0  0  0  0  0  0  0  0  0  0  # atno 10765 bound_to 10752
  139.8874  134.8554  156.3148 H   0  0  0  0  0  0  0  0  0  0  0  0  # atno 11005 bound_to 11000
  144.9300  140.7964  143.5695 LP  0  0  0  0  0  0  0  0  0  0  0  0  # atno 17320 bound_to 7965
  145.2607  139.1993  143.4893 LP  0  0  0  0  0  0  0  0  0  0  0  0  # atno 17321 bound_to 7965
  139.5574  144.7382  151.4253 LP  0  0  0  0  0  0  0  0  0  0  0  0  # atno 17342 bound_to 10162
  140.6878  143.7933  150.7211 LP  0  0  0  0  0  0  0  0  0  0  0  0  # atno 17343 bound_to 10162
  157.6872  131.0821  150.7208 LP  0  0  0  0  0  0  0  0  0  0  0  0  # atno 17370 bound_to 10713
  156.7265  130.4696  149.5510 LP  0  0  0  0  0  0  0  0  0  0  0  0  # atno 17371 bound_to 10713
  140.9826  133.7258  156.0695 LP  0  0  0  0  0  0  0  0  0  0  0  0  # atno 17394 bound_to 11000
  140.7729  134.3812  157.5504 LP  0  0  0  0  0  0  0  0  0  0  0  0  # atno 17395 bound_to 11000

$$$$
