AV-unprocessed.smi:1289|AV-procd|sdf|5385|dock8
  -GOLD-   22720 4533D 1   1.00000     0.00000
 Structure written by MMmdl.
 37 39  0  0  0  0  0  0  0  0  1 V2000
  156.4155  143.1321  169.8450 N   0  0  0  0  0  0  0  0  0  0  0  0
  156.3657  142.8597  168.7215 C   0  0  0  0  0  0  0  0  0  0  0  0
  156.3034  142.5172  167.3104 C   0  0  0  0  0  0  0  0  0  0  0  0
  156.0062  143.5080  166.3543 C   0  0  0  0  0  0  0  0  0  0  0  0
  155.9498  143.1739  164.9876 C   0  0  0  0  0  0  0  0  0  0  0  0
  156.1891  141.8532  164.5556 C   0  0  0  0  0  0  0  0  0  0  0  0
  156.1160  141.6168  163.1998 O   0  0  0  0  0  0  0  0  0  0  0  0
  155.7081  140.3271  162.7603 C   0  0  0  0  0  0  0  0  0  0  0  0
  154.8225  140.4523  161.5098 C   0  0  2  0  0  0  0  0  0  0  0  0
  155.6119  140.8866  160.4200 O   0  0  0  0  0  0  0  0  0  0  0  0
  153.5899  141.3555  161.7104 C   0  0  0  0  0  0  0  0  0  0  0  0
  152.8458  141.5510  160.4795 N   0  0  0  0  0  0  0  0  0  0  0  0
  152.6594  140.6498  159.4961 C   0  0  0  0  0  0  0  0  0  0  0  0
  151.9437  141.0352  158.4435 N   0  0  0  0  0  0  0  0  0  0  0  0
  151.6261  142.3389  158.7841 C   0  0  0  0  0  0  0  0  0  0  0  0
  150.8767  143.3124  158.0853 C   0  0  0  0  0  0  0  0  0  0  0  0
  150.6815  144.5956  158.6374 C   0  0  0  0  0  0  0  0  0  0  0  0
  151.2326  144.9254  159.8928 C   0  0  0  0  0  0  0  0  0  0  0  0
  151.9842  143.9725  160.6072 C   0  0  0  0  0  0  0  0  0  0  0  0
  152.1753  142.6928  160.0536 C   0  0  0  0  0  0  0  0  0  0  0  0
  156.4853  140.8608  165.5242 C   0  0  0  0  0  0  0  0  0  0  0  0
  156.5411  141.1929  166.8921 C   0  0  0  0  0  0  0  0  0  0  0  0
  155.8213  144.5274  166.6614 H   0  0  0  0  0  0  0  0  0  0  0  0
  155.7226  143.9408  164.2617 H   0  0  0  0  0  0  0  0  0  0  0  0
  156.5704  139.6914  162.5509 H   0  0  0  0  0  0  0  0  0  0  0  0
  155.1286  139.8499  163.5521 H   0  0  0  0  0  0  0  0  0  0  0  0
  154.4769  139.4507  161.2508 H   0  0  0  0  0  0  0  0  0  0  0  0
  155.0521  140.9853  159.6649 H   0  0  0  0  0  0  0  0  0  0  0  0
  152.9190  140.9151  162.4493 H   0  0  0  0  0  0  0  0  0  0  0  0
  153.8819  142.3323  162.0979 H   0  0  0  0  0  0  0  0  0  0  0  0
  153.0758  139.6549  159.5558 H   0  0  0  0  0  0  0  0  0  0  0  0
  150.4515  143.0713  157.1223 H   0  0  0  0  0  0  0  0  0  0  0  0
  150.1066  145.3315  158.0943 H   0  0  0  0  0  0  0  0  0  0  0  0
  151.0788  145.9110  160.3073 H   0  0  0  0  0  0  0  0  0  0  0  0
  152.4099  144.2224  161.5678 H   0  0  0  0  0  0  0  0  0  0  0  0
  156.6736  139.8357  165.2440 H   0  0  0  0  0  0  0  0  0  0  0  0
  156.7683  140.4240  167.6168 H   0  0  0  0  0  0  0  0  0  0  0  0
  1  2  3  0  0  0  0
  2  3  1  0  0  0  0
  3 22  1  0  0  0  0
  3  4  2  0  0  0  0
  4  5  1  0  0  0  0
  4 23  1  0  0  0  0
  5  6  2  0  0  0  0
  5 24  1  0  0  0  0
  6  7  1  0  0  0  0
  6 21  1  0  0  0  0
  7  8  1  0  0  0  0
  8  9  1  0  0  0  0
  8 25  1  0  0  0  0
  8 26  1  0  0  0  0
  9 10  1  0  0  0  0
  9 11  1  0  0  0  0
  9 27  1  0  0  0  0
 10 28  1  0  0  0  0
 11 12  1  0  0  0  0
 11 29  1  0  0  0  0
 11 30  1  0  0  0  0
 12 20  1  0  0  0  0
 12 13  1  0  0  0  0
 13 14  2  0  0  0  0
 13 31  1  0  0  0  0
 14 15  1  0  0  0  0
 15 20  2  0  0  0  0
 15 16  1  0  0  0  0
 16 17  2  0  0  0  0
 16 32  1  0  0  0  0
 17 18  1  0  0  0  0
 17 33  1  0  0  0  0
 18 19  2  0  0  0  0
 18 34  1  0  0  0  0
 19 20  1  0  0  0  0
 19 35  1  0  0  0  0
 21 22  2  0  0  0  0
 21 36  1  0  0  0  0
 22 37  1  0  0  0  0
M  END
> <s_m_source_file>
AV-unprocessed.smi

> <i_m_source_file_index>
1289

> <i_lp_mmshare_version>
43012

> <i_f3d_flags>
0

> <s_epik_input>
TiNDYzFbY0hdW2NIXWMoW2NIXVtjSF0xKU9bQ0gyXVtDQEhdKFtPSF0pW0NIMl1uKFtjSF1uMiljKGMyMylbY0hdW2NIXVtjSF1bY0hdMw==

> <s_epik_cmdline>
J2VwaWtfcHl0aG9uJywgJy1waCcsICc3LjAnLCAnLXRuJywgJzgnLCAnLW1hJywgJzIwMCcsICctbWV0YWxfYmluZGluZycsICctaW1hZScsICc8aW5maWxlLm1hZT4nLCAnLW9tYWUnLCAnPG91dGZpbGUubWFlPic=

> <r_epik_Ionization_Penalty>
0.0590811

> <r_epik_Ionization_Penalty_Charging>
0

> <r_epik_Ionization_Penalty_Neutral>
0.0590811

> <r_epik_State_Penalty>
0.0511328

> <r_epik_Charging_Adjusted_Penalty>
0.0511328

> <i_epik_Tot_Q>
0

> <i_epik_Tot_abs_Q>
0

> <r_epik_Metal_State_Penalty>
5.34017e-05

> <b_epik_Metal_Only>
0

> <s_lp_Force_Field>
OPLS_2005

> <r_lp_Energy>
15.8446

> <b_lp_Chiralities_Consistent>
1

> <s_lp_Variant>
AV-unprocessed.smi:1289-1

> <Gold.Version>
5.8.1

> <Gold.Id.Protein>
6NUR|6NUR_protein|mol2

> <Gold.PLP.Fitness>
52.5988

> <Gold.PLP.PLP>
-54.5953

> <Gold.PLP.part.hbond>
-1.8917

> <Gold.PLP.part.metal>
0.0000

> <Gold.PLP.part.buried>
-3.8214

> <Gold.PLP.part.nonpolar>
-47.1331

> <Gold.PLP.part.repulsive>
0.2180

> <Gold.PLP.ligand.clash>
0.0000

> <Gold.PLP.ligand.torsion>
1.0371

> <Gold.PLP.Chemscore.Hbond>
0.0000

> <Gold.PLP.Chemscore.CHOScore>
0.0000

> <Gold.PLP.Chemscore.Metal>
0.0000

> <Gold.PLP.Chemscore.Internal.Correction>
0.0778

> <Gold.Rescore>
     Score         DG    S(hbond)    S(metal)    S(lipo)     H(rot)  DE(clash)    DE(int)     intcor
     12.49     -13.59       0.00        0.00     123.92       2.50       0.03       1.07       ----

> <Gold.Chemscore.Fitness>
12.4879

> <Gold.Chemscore.DG>
-13.5899

> <Gold.Chemscore.ZeroCoef>
-5.4800

> <Gold.Chemscore.Hbond>
0.0000

> <Gold.Chemscore.Metal>
0.0000

> <Gold.Chemscore.Lipo>
123.9164

> <Gold.Chemscore.Internal_Hbond>
0.0000

> <Gold.Chemscore.DEClash>
0.0270

> <Gold.Chemscore.DEInternal>
1.0750

> <Gold.Chemscore.Rot>
2.4954

> <Gold.Chemscore.Internal.Correction>
   9.000000E+99

> <Gold.Chemscore.Hbond.Weighted>
-0.0000

> <Gold.Chemscore.Metal.Weighted>
-0.0000

> <Gold.Chemscore.Lipo.Weighted>
-14.4982

> <Gold.Chemscore.Internal_Hbond.Weighted>
0.0000

> <Gold.Chemscore.DEClash.Weighted>
0.0270

> <Gold.Chemscore.DEInternal.Weighted>
1.0750

> <Gold.Chemscore.Rot.Weighted>
6.3883

> <Gold.Chemscore.Internal.Correction.Weighted>
   9.000000E+99

> <Gold.Protein.RotatedTorsions>
[ 6907 6896 6895 6894 ] final   97.68 input  -60.11 | X-H torsion
[ 7974 7965 7964 7962 ] final  115.14 input  175.53 | X-H torsion
[ 8008 7997 7996 7995 ] final  -73.30 input   59.86 | X-H torsion
[ 10167 10162 10161 10158 ] final  158.19 input  -65.29 | X-H torsion
[ 10718 10713 10712 10709 ] final  -21.74 input   66.30 | X-H torsion
[ 10763 10752 10751 10750 ] final   55.83 input  -60.55 | X-H torsion
[ 11005 11000 10999 10996 ] final  120.04 input  -57.11 | X-H torsion

> <Gold.Protein.ActiveResidues>
 VAL166  LYS551  ARG553  GLY616  TRP617  ASP618  TYR619  PRO620  LYS621  CYS622 
 ASP623  PHE694  ASN695  SER759  ASP760  ASP761  ALA762  ILE779  LEU786  VAL792 
 PHE793  MET794  SER795  GLU796  ALA797  LYS798  CYS799  TRP800  GLU811  SER814 

> <Gold.Protein.RotatedAtoms>
  152.5420  134.0696  159.8187 H   0  0  0  0  0  0  0  0  0  0  0  0  # atno 6907 bound_to 6896
  151.0812  133.5381  159.2628 H   0  0  0  0  0  0  0  0  0  0  0  0  # atno 6908 bound_to 6896
  151.2208  135.0526  159.9003 H   0  0  0  0  0  0  0  0  0  0  0  0  # atno 6909 bound_to 6896
  145.1956  139.2978  143.4345 H   0  0  0  0  0  0  0  0  0  0  0  0  # atno 7974 bound_to 7965
  154.5236  140.0781  156.8218 H   0  0  0  0  0  0  0  0  0  0  0  0  # atno 8008 bound_to 7997
  155.3522  140.3413  155.4221 H   0  0  0  0  0  0  0  0  0  0  0  0  # atno 8009 bound_to 7997
  156.1708  140.1619  156.8438 H   0  0  0  0  0  0  0  0  0  0  0  0  # atno 8010 bound_to 7997
  139.4826  144.4848  151.8393 H   0  0  0  0  0  0  0  0  0  0  0  0  # atno 10167 bound_to 10162
  156.5140  130.4617  149.6632 H   0  0  0  0  0  0  0  0  0  0  0  0  # atno 10718 bound_to 10713
  152.9822  135.5697  154.5131 H   0  0  0  0  0  0  0  0  0  0  0  0  # atno 10763 bound_to 10752
  154.4632  135.2782  155.1700 H   0  0  0  0  0  0  0  0  0  0  0  0  # atno 10764 bound_to 10752
  154.3279  135.6255  153.5591 H   0  0  0  0  0  0  0  0  0  0  0  0  # atno 10765 bound_to 10752
  139.9169  134.9632  156.7746 H   0  0  0  0  0  0  0  0  0  0  0  0  # atno 11005 bound_to 11000
  146.3428  140.2183  142.8591 LP  0  0  0  0  0  0  0  0  0  0  0  0  # atno 17320 bound_to 7965
  144.9998  140.8621  143.5289 LP  0  0  0  0  0  0  0  0  0  0  0  0  # atno 17321 bound_to 7965
  140.4327  144.2094  150.5888 LP  0  0  0  0  0  0  0  0  0  0  0  0  # atno 17342 bound_to 10162
  140.4763  143.2395  151.9018 LP  0  0  0  0  0  0  0  0  0  0  0  0  # atno 17343 bound_to 10162
  156.3213  130.7282  151.2194 LP  0  0  0  0  0  0  0  0  0  0  0  0  # atno 17370 bound_to 10713
  157.7446  131.0455  150.4846 LP  0  0  0  0  0  0  0  0  0  0  0  0  # atno 17371 bound_to 10713
  140.6593  133.9659  155.7796 LP  0  0  0  0  0  0  0  0  0  0  0  0  # atno 17394 bound_to 11000
  141.0654  134.0284  157.3601 LP  0  0  0  0  0  0  0  0  0  0  0  0  # atno 17395 bound_to 11000

$$$$
