AV-unprocessed.smi:2565|AV-procd|sdf|10068|dock3
  -GOLD-   2272014103D 1   1.00000     0.00000
 Structure written by MMmdl.
 25 26  0  0  0  0  0  0  0  0  2 V2000
  149.7239  138.9881  154.5170 C   0  0  0  0  0  0  0  0  0  0  0  0
  151.0865  138.8000  154.9735 N   0  0  0  0  0  0  0  0  0  0  0  0
  152.0196  137.9622  154.4968 C   0  0  0  0  0  0  0  0  0  0  0  0
  153.1968  138.0181  155.1178 N   0  0  0  0  0  0  0  0  0  0  0  0
  153.0296  138.9800  156.0935 N   0  0  0  0  0  0  0  0  0  0  0  0
  151.7648  139.4047  155.9708 C   0  0  0  0  0  0  0  0  0  0  0  0
  151.1577  140.4790  156.8250 C   0  0  2  0  0  0  0  0  0  0  0  0
  150.6543  141.6727  155.9904 C   0  0  0  0  0  0  0  0  0  0  0  0
  150.1601  142.7406  156.8815 N   0  3  0  0  0  0  0  0  0  0  0  0
  151.1852  143.1400  157.8661 C   0  0  0  0  0  0  0  0  0  0  0  0
  151.6859  141.9074  158.6394 C   0  0  0  0  0  0  0  0  0  0  0  0
  152.1687  140.9284  157.7248 O   0  0  0  0  0  0  0  0  0  0  0  0
  149.5516  138.4149  153.6054 H   0  0  0  0  0  0  0  0  0  0  0  0
  149.5454  140.0434  154.3090 H   0  0  0  0  0  0  0  0  0  0  0  0
  149.0284  138.6487  155.2848 H   0  0  0  0  0  0  0  0  0  0  0  0
  151.8356  137.2944  153.6677 H   0  0  0  0  0  0  0  0  0  0  0  0
  150.3378  140.0526  157.4055 H   0  0  0  0  0  0  0  0  0  0  0  0
  151.4591  142.0712  155.3708 H   0  0  0  0  0  0  0  0  0  0  0  0
  149.8533  141.3639  155.3182 H   0  0  0  0  0  0  0  0  0  0  0  0
  149.8946  143.5436  156.3288 H   0  0  0  0  0  0  0  0  0  0  0  0
  152.0144  143.6209  157.3454 H   0  0  0  0  0  0  0  0  0  0  0  0
  150.7632  143.8770  158.5497 H   0  0  0  0  0  0  0  0  0  0  0  0
  152.4942  142.1900  159.3141 H   0  0  0  0  0  0  0  0  0  0  0  0
  150.8909  141.4841  159.2553 H   0  0  0  0  0  0  0  0  0  0  0  0
  149.3493  142.4002  157.3784 H   0  0  0  0  0  0  0  0  0  0  0  0
  1  2  1  0  0  0  0
  1 13  1  0  0  0  0
  1 14  1  0  0  0  0
  1 15  1  0  0  0  0
  2  6  1  0  0  0  0
  2  3  1  0  0  0  0
  3  4  2  0  0  0  0
  3 16  1  0  0  0  0
  4  5  1  0  0  0  0
  5  6  2  0  0  0  0
  6  7  1  0  0  0  0
  7 12  1  0  0  0  0
  7  8  1  0  0  0  0
  7 17  1  0  0  0  0
  8  9  1  0  0  0  0
  8 18  1  0  0  0  0
  8 19  1  0  0  0  0
  9 10  1  0  0  0  0
  9 20  1  0  0  0  0
  9 25  1  0  0  0  0
 10 11  1  0  0  0  0
 10 21  1  0  0  0  0
 10 22  1  0  0  0  0
 11 12  1  0  0  0  0
 11 23  1  0  0  0  0
 11 24  1  0  0  0  0
M  CHG  1   9   1
M  END
> <s_m_source_file>
AV-unprocessed.smi

> <i_m_source_file_index>
2565

> <i_lp_mmshare_version>
43012

> <i_f3d_flags>
0

> <s_epik_input>
W0NIM11uMVtjSF1ubmMxW0NAQEhdMltDSDJdW05IXVtDSDJdW0NIMl1PMg==

> <s_epik_cmdline>
J2VwaWtfcHl0aG9uJywgJy1waCcsICc3LjAnLCAnLXRuJywgJzgnLCAnLW1hJywgJzIwMCcsICctbWV0YWxfYmluZGluZycsICctaW1hZScsICc8aW5maWxlLm1hZT4nLCAnLW9tYWUnLCAnPG91dGZpbGUubWFlPic=

> <r_lp_tautomer_probability>
1

> <r_epik_Ionization_Penalty>
0.12571

> <r_epik_Ionization_Penalty_Charging>
0.125708

> <r_epik_Ionization_Penalty_Neutral>
1.64918e-06

> <r_epik_State_Penalty>
0.115169

> <r_epik_Charging_Adjusted_Penalty>
0.240877

> <i_epik_Tot_Q>
1

> <i_epik_Tot_abs_Q>
1

> <r_epik_Metal_State_Penalty>
0.115216

> <b_epik_Metal_Only>
0

> <s_lp_Force_Field>
OPLS_2005

> <r_lp_Energy>
13.9295

> <b_lp_Chiralities_Consistent>
1

> <s_lp_Variant>
AV-unprocessed.smi:2565-1

> <Gold.Version>
5.8.1

> <Gold.Id.Protein>
6NUR|6NUR_protein|mol2

> <Gold.PLP.Fitness>
37.4185

> <Gold.PLP.PLP>
-25.4301

> <Gold.PLP.part.hbond>
-3.0798

> <Gold.PLP.part.metal>
0.0000

> <Gold.PLP.part.buried>
-3.9265

> <Gold.PLP.part.nonpolar>
-18.1273

> <Gold.PLP.part.repulsive>
0.0514

> <Gold.PLP.ligand.clash>
0.0000

> <Gold.PLP.ligand.torsion>
0.0077

> <Gold.PLP.Chemscore.Hbond>
3.0000

> <Gold.PLP.Chemscore.CHOScore>
1.0000

> <Gold.PLP.Chemscore.Metal>
0.0000

> <Gold.Chemscore.Hbonds>
donor molecule, donor type, donor heavy atom, donor atom, acceptor molecule, acceptor atom, score
      L1  H     9    20       P1  8028  2.00
      P1  H  7997  8008       L1     5  1.00
      L1  C     3    16       P1  7949  0.77

> <Gold.PLP.Chemscore.Internal.Correction>
0.0039

> <Gold.Rescore>
     Score         DG    S(hbond)    S(metal)    S(lipo)     H(rot)  DE(clash)    DE(int)     intcor
     13.91     -13.91       1.99        0.00      37.06       1.00       0.00       0.00       ----

> <Gold.Chemscore.Fitness>
13.9088

> <Gold.Chemscore.DG>
-13.9113

> <Gold.Chemscore.ZeroCoef>
-5.4800

> <Gold.Chemscore.Hbond>
1.9925

> <Gold.Chemscore.Metal>
0.0000

> <Gold.Chemscore.Lipo>
37.0645

> <Gold.Chemscore.Internal_Hbond>
0.0000

> <Gold.Chemscore.DEClash>
0.0004

> <Gold.Chemscore.DEInternal>
0.0021

> <Gold.Chemscore.Rot>
1.0000

> <Gold.Chemscore.Internal.Correction>
   9.000000E+99

> <Gold.Chemscore.Hbonds>
donor molecule, donor type, donor heavy atom, donor atom, acceptor molecule, acceptor atom, score
      L1  H     9    20       P1  8028  0.99
      P1  H  7997  8008       L1     5  0.86

> <Gold.Chemscore.Hbond.Weighted>
-6.6548

> <Gold.Chemscore.Metal.Weighted>
-0.0000

> <Gold.Chemscore.Lipo.Weighted>
-4.3365

> <Gold.Chemscore.Internal_Hbond.Weighted>
0.0000

> <Gold.Chemscore.DEClash.Weighted>
0.0004

> <Gold.Chemscore.DEInternal.Weighted>
0.0021

> <Gold.Chemscore.Rot.Weighted>
2.5600

> <Gold.Chemscore.Internal.Correction.Weighted>
   9.000000E+99

> <Gold.Protein.RotatedTorsions>
[ 6907 6896 6895 6894 ] final  -72.75 input  -60.11 | X-H torsion
[ 7974 7965 7964 7962 ] final   97.07 input  175.53 | X-H torsion
[ 8008 7997 7996 7995 ] final  -35.66 input   59.86 | X-H torsion
[ 10167 10162 10161 10158 ] final   32.46 input  -65.29 | X-H torsion
[ 10718 10713 10712 10709 ] final   17.99 input   66.30 | X-H torsion
[ 10763 10752 10751 10750 ] final  -50.00 input  -60.55 | X-H torsion
[ 11005 11000 10999 10996 ] final   53.27 input  -57.11 | X-H torsion

> <Gold.Protein.ActiveResidues>
 VAL166  LYS551  ARG553  GLY616  TRP617  ASP618  TYR619  PRO620  LYS621  CYS622 
 ASP623  PHE694  ASN695  SER759  ASP760  ASP761  ALA762  ILE779  LEU786  VAL792 
 PHE793  MET794  SER795  GLU796  ALA797  LYS798  CYS799  TRP800  GLU811  SER814 

> <Gold.Protein.RotatedAtoms>
  150.7157  134.5117  159.5610 H   0  0  0  0  0  0  0  0  0  0  0  0  # atno 6907 bound_to 6896
  152.2692  134.7948  160.0426 H   0  0  0  0  0  0  0  0  0  0  0  0  # atno 6908 bound_to 6896
  151.8635  133.3426  159.3748 H   0  0  0  0  0  0  0  0  0  0  0  0  # atno 6909 bound_to 6896
  145.4304  139.2311  143.3147 H   0  0  0  0  0  0  0  0  0  0  0  0  # atno 7974 bound_to 7965
  154.4090  140.1651  156.2248 H   0  0  0  0  0  0  0  0  0  0  0  0  # atno 8008 bound_to 7997
  155.9333  140.3413  155.6244 H   0  0  0  0  0  0  0  0  0  0  0  0  # atno 8009 bound_to 7997
  155.7080  140.0753  157.2374 H   0  0  0  0  0  0  0  0  0  0  0  0  # atno 8010 bound_to 7997
  140.4497  144.1067  150.6189 H   0  0  0  0  0  0  0  0  0  0  0  0  # atno 10167 bound_to 10162
  157.0900  130.6424  149.5846 H   0  0  0  0  0  0  0  0  0  0  0  0  # atno 10718 bound_to 10713
  154.1032  135.6560  153.4872 H   0  0  0  0  0  0  0  0  0  0  0  0  # atno 10763 bound_to 10752
  153.0281  135.5230  154.7265 H   0  0  0  0  0  0  0  0  0  0  0  0  # atno 10764 bound_to 10752
  154.6423  135.2990  155.0057 H   0  0  0  0  0  0  0  0  0  0  0  0  # atno 10765 bound_to 10752
  140.0781  134.5377  155.8975 H   0  0  0  0  0  0  0  0  0  0  0  0  # atno 11005 bound_to 11000
  146.2610  140.5040  142.8853 LP  0  0  0  0  0  0  0  0  0  0  0  0  # atno 17320 bound_to 7965
  144.8186  140.6511  143.6368 LP  0  0  0  0  0  0  0  0  0  0  0  0  # atno 17321 bound_to 7965
  140.4222  143.2606  151.9701 LP  0  0  0  0  0  0  0  0  0  0  0  0  # atno 17342 bound_to 10162
  139.4795  144.5820  151.7916 LP  0  0  0  0  0  0  0  0  0  0  0  0  # atno 17343 bound_to 10162
  155.9900  130.4950  150.7240 LP  0  0  0  0  0  0  0  0  0  0  0  0  # atno 17370 bound_to 10713
  157.4729  131.0895  151.0623 LP  0  0  0  0  0  0  0  0  0  0  0  0  # atno 17371 bound_to 10713
  141.2037  133.6633  156.6076 LP  0  0  0  0  0  0  0  0  0  0  0  0  # atno 17394 bound_to 11000
  140.3528  134.7754  157.4479 LP  0  0  0  0  0  0  0  0  0  0  0  0  # atno 17395 bound_to 11000

$$$$
