AV-unprocessed.smi:246|AV-procd|sdf|1881|dock5
  -GOLD-   2262020523D 1   1.00000     0.00000
 Structure written by MMmdl.
 57 60  0  0  0  0  0  0  0  0  1 V2000
  144.2139  131.9535  150.3524 C   0  0  0  0  0  0  0  0  0  0  0  0
  145.0330  133.1754  150.7899 C   0  0  0  0  0  0  0  0  0  0  0  0
  146.4033  132.8499  150.9759 O   0  0  0  0  0  0  0  0  0  0  0  0
  146.7080  132.3109  152.2541 C   0  0  0  0  0  0  0  0  0  0  0  0
  148.0368  132.9014  152.7342 C   0  0  0  0  0  0  0  0  0  0  0  0
  148.4370  132.2327  153.9207 O   0  0  0  0  0  0  0  0  0  0  0  0
  149.6229  132.7589  154.4970 C   0  0  2  0  0  0  0  0  0  0  0  0
  149.8949  132.1183  155.8585 C   0  0  0  0  0  0  0  0  0  0  0  0
  150.7331  133.1645  156.6015 C   0  0  0  0  0  0  0  0  0  0  0  0
  150.4383  134.4345  155.9533 N   0  0  0  0  0  0  0  0  0  0  0  0
  150.5718  135.6264  156.5901 C   0  0  0  0  0  0  0  0  0  0  0  0
  150.1747  135.7170  157.8872 N   0  0  0  0  0  0  0  0  0  0  0  0
  150.2822  136.8703  158.5524 C   0  0  0  0  0  0  0  0  0  0  0  0
  150.7428  138.0434  158.1170 N   0  0  0  0  0  0  0  0  0  0  0  0
  151.1326  137.9675  156.8126 C   0  0  0  0  0  0  0  0  0  0  0  0
  151.0855  136.8104  155.9819 C   0  0  0  0  0  0  0  0  0  0  0  0
  151.5631  137.1286  154.7146 N   0  0  0  0  0  0  0  0  0  0  0  0
  151.8785  138.3919  154.7938 C   0  0  0  0  0  0  0  0  0  0  0  0
  151.6318  138.9809  156.0126 N   0  0  0  0  0  0  0  0  0  0  0  0
  151.8829  140.3658  156.3741 C   0  0  0  0  0  0  0  0  0  0  0  0
  151.2650  140.7763  157.7306 C   0  0  2  0  0  0  0  0  0  0  0  0
  149.8687  140.8182  157.5192 O   0  0  0  0  0  0  0  0  0  0  0  0
  151.6818  142.1686  158.2580 C   0  0  2  0  0  0  0  0  0  0  0  0
  153.0374  142.2465  158.9664 C   0  0  0  0  0  0  0  0  0  0  0  0
  152.8933  143.4261  159.9142 C   0  0  0  0  0  0  0  0  0  0  0  0
  151.3851  143.6690  159.9712 C   0  0  0  0  0  0  0  0  0  0  0  0
  150.8122  142.5470  159.3158 O   0  0  0  0  0  0  0  0  0  0  0  0
  149.5116  134.2454  154.8471 C   0  0  0  0  0  0  0  0  0  0  0  0
  150.4844  132.5872  153.8487 H   0  0  0  0  0  0  0  0  0  0  0  0
  143.1524  132.1973  150.3093 H   0  0  0  0  0  0  0  0  0  0  0  0
  144.3370  131.1297  151.0558 H   0  0  0  0  0  0  0  0  0  0  0  0
  144.5075  131.5991  149.3648 H   0  0  0  0  0  0  0  0  0  0  0  0
  144.9175  134.0001  150.0850 H   0  0  0  0  0  0  0  0  0  0  0  0
  144.6490  133.5303  151.7463 H   0  0  0  0  0  0  0  0  0  0  0  0
  145.9211  132.5160  152.9801 H   0  0  0  0  0  0  0  0  0  0  0  0
  146.8029  131.2273  152.1705 H   0  0  0  0  0  0  0  0  0  0  0  0
  148.7995  132.7528  151.9685 H   0  0  0  0  0  0  0  0  0  0  0  0
  147.9368  133.9761  152.8928 H   0  0  0  0  0  0  0  0  0  0  0  0
  148.9530  131.9697  156.3884 H   0  0  0  0  0  0  0  0  0  0  0  0
  150.3917  131.1507  155.7827 H   0  0  0  0  0  0  0  0  0  0  0  0
  150.4872  133.1773  157.6640 H   0  0  0  0  0  0  0  0  0  0  0  0
  151.7975  132.9526  156.4954 H   0  0  0  0  0  0  0  0  0  0  0  0
  149.9486  136.8505  159.5794 H   0  0  0  0  0  0  0  0  0  0  0  0
  152.2926  138.9342  153.9562 H   0  0  0  0  0  0  0  0  0  0  0  0
  152.9580  140.5503  156.3766 H   0  0  0  0  0  0  0  0  0  0  0  0
  151.4680  140.9812  155.5745 H   0  0  0  0  0  0  0  0  0  0  0  0
  151.4720  140.0133  158.4818 H   0  0  0  0  0  0  0  0  0  0  0  0
  149.5408  139.9316  157.5299 H   0  0  0  0  0  0  0  0  0  0  0  0
  151.6398  142.9157  157.4624 H   0  0  0  0  0  0  0  0  0  0  0  0
  153.2147  141.3395  159.5458 H   0  0  0  0  0  0  0  0  0  0  0  0
  153.8683  142.3760  158.2734 H   0  0  0  0  0  0  0  0  0  0  0  0
  153.3033  143.1886  160.8966 H   0  0  0  0  0  0  0  0  0  0  0  0
  153.4104  144.3089  159.5368 H   0  0  0  0  0  0  0  0  0  0  0  0
  151.0125  143.7610  160.9917 H   0  0  0  0  0  0  0  0  0  0  0  0
  151.1208  144.5773  159.4276 H   0  0  0  0  0  0  0  0  0  0  0  0
  149.7605  134.8816  153.9970 H   0  0  0  0  0  0  0  0  0  0  0  0
  148.5007  134.4882  155.1782 H   0  0  0  0  0  0  0  0  0  0  0  0
  1  2  1  0  0  0  0
  1 30  1  0  0  0  0
  1 31  1  0  0  0  0
  1 32  1  0  0  0  0
  2  3  1  0  0  0  0
  2 33  1  0  0  0  0
  2 34  1  0  0  0  0
  3  4  1  0  0  0  0
  4  5  1  0  0  0  0
  4 35  1  0  0  0  0
  4 36  1  0  0  0  0
  5  6  1  0  0  0  0
  5 37  1  0  0  0  0
  5 38  1  0  0  0  0
  6  7  1  0  0  0  0
  7 29  1  0  0  0  0
  7 28  1  0  0  0  0
  7  8  1  0  0  0  0
  8  9  1  0  0  0  0
  8 39  1  0  0  0  0
  8 40  1  0  0  0  0
  9 10  1  0  0  0  0
  9 41  1  0  0  0  0
  9 42  1  0  0  0  0
 10 11  1  0  0  0  0
 10 28  1  0  0  0  0
 11 16  1  0  0  0  0
 11 12  2  0  0  0  0
 12 13  1  0  0  0  0
 13 14  2  0  0  0  0
 13 43  1  0  0  0  0
 14 15  1  0  0  0  0
 15 19  1  0  0  0  0
 15 16  2  0  0  0  0
 16 17  1  0  0  0  0
 17 18  2  0  0  0  0
 18 19  1  0  0  0  0
 18 44  1  0  0  0  0
 19 20  1  0  0  0  0
 20 21  1  0  0  0  0
 20 45  1  0  0  0  0
 20 46  1  0  0  0  0
 21 22  1  0  0  0  0
 21 23  1  0  0  0  0
 21 47  1  0  0  0  0
 22 48  1  0  0  0  0
 23 27  1  0  0  0  0
 23 24  1  0  0  0  0
 23 49  1  0  0  0  0
 24 25  1  0  0  0  0
 24 50  1  0  0  0  0
 24 51  1  0  0  0  0
 25 26  1  0  0  0  0
 25 52  1  0  0  0  0
 25 53  1  0  0  0  0
 26 27  1  0  0  0  0
 26 54  1  0  0  0  0
 26 55  1  0  0  0  0
 28 56  1  0  0  0  0
 28 57  1  0  0  0  0
M  END
> <s_m_source_file>
AV-unprocessed.smi

> <i_m_source_file_index>
246

> <i_lp_mmshare_version>
43012

> <i_f3d_flags>
0

> <s_epik_input>
W0NIM11bQ0gyXU9bQ0gyXVtDSDJdT1tDQEhdMVtDSDJdW0NIMl1OKFtDSDJdMSljKG5bY0hdbjIpYyhjMjMpbltjSF1uM1tDSDJdW0NASF0oW09IXSlbQ0BASF00W0NIMl1bQ0gyXVtDSDJdTzQ=

> <s_epik_cmdline>
J2VwaWtfcHl0aG9uJywgJy1waCcsICc3LjAnLCAnLXRuJywgJzgnLCAnLW1hJywgJzIwMCcsICctbWV0YWxfYmluZGluZycsICctaW1hZScsICc8aW5maWxlLm1hZT4nLCAnLW9tYWUnLCAnPG91dGZpbGUubWFlPic=

> <r_lp_tautomer_probability>
1

> <r_epik_Ionization_Penalty>
0.0024631

> <r_epik_Ionization_Penalty_Charging>
0

> <r_epik_Ionization_Penalty_Neutral>
0.0024631

> <r_epik_State_Penalty>
0.00162428

> <r_epik_Charging_Adjusted_Penalty>
0.00162428

> <i_epik_Tot_Q>
0

> <i_epik_Tot_abs_Q>
0

> <r_epik_Metal_State_Penalty>
-0

> <b_epik_Metal_Only>
0

> <s_lp_Force_Field>
OPLS_2005

> <r_lp_Energy>
52.7106

> <b_lp_Chiralities_Consistent>
1

> <s_lp_Variant>
AV-unprocessed.smi:246-2

> <Gold.Version>
5.8.1

> <Gold.Id.Protein>
6NUR|6NUR_protein|mol2

> <Gold.PLP.Fitness>
49.8611

> <Gold.PLP.PLP>
-48.9014

> <Gold.PLP.part.hbond>
-2.6768

> <Gold.PLP.part.metal>
0.0000

> <Gold.PLP.part.buried>
-8.3872

> <Gold.PLP.part.nonpolar>
-39.5967

> <Gold.PLP.part.repulsive>
0.4628

> <Gold.PLP.ligand.clash>
0.0000

> <Gold.PLP.ligand.torsion>
1.8208

> <Gold.PLP.Chemscore.Hbond>
1.3629

> <Gold.PLP.Chemscore.CHOScore>
0.0000

> <Gold.PLP.Chemscore.Metal>
0.0000

> <Gold.Chemscore.Hbonds>
donor molecule, donor type, donor heavy atom, donor atom, acceptor molecule, acceptor atom, score
      P1  H  6896  6907       L1    12  0.52
      P1  H 10752 10763       L1    17  0.98

> <Gold.PLP.Chemscore.Internal.Correction>
0.5127

> <Gold.Rescore>
     Score         DG    S(hbond)    S(metal)    S(lipo)     H(rot)  DE(clash)    DE(int)     intcor
     11.17     -14.55       1.31        0.00     107.95       3.10       0.24       3.14       ----

> <Gold.Chemscore.Fitness>
11.1675

> <Gold.Chemscore.DG>
-14.5454

> <Gold.Chemscore.ZeroCoef>
-5.4800

> <Gold.Chemscore.Hbond>
1.3108

> <Gold.Chemscore.Metal>
0.0000

> <Gold.Chemscore.Lipo>
107.9497

> <Gold.Chemscore.Internal_Hbond>
0.0000

> <Gold.Chemscore.DEClash>
0.2399

> <Gold.Chemscore.DEInternal>
3.1381

> <Gold.Chemscore.Rot>
3.1026

> <Gold.Chemscore.Internal.Correction>
   9.000000E+99

> <Gold.Chemscore.Hbonds>
donor molecule, donor type, donor heavy atom, donor atom, acceptor molecule, acceptor atom, score
      P1  H  6896  6907       L1    12  0.06
      P1  H 10752 10763       L1    17  0.23

> <Gold.Chemscore.Hbond.Weighted>
-4.3779

> <Gold.Chemscore.Metal.Weighted>
-0.0000

> <Gold.Chemscore.Lipo.Weighted>
-12.6301

> <Gold.Chemscore.Internal_Hbond.Weighted>
0.0000

> <Gold.Chemscore.DEClash.Weighted>
0.2399

> <Gold.Chemscore.DEInternal.Weighted>
3.1381

> <Gold.Chemscore.Rot.Weighted>
7.9426

> <Gold.Chemscore.Internal.Correction.Weighted>
   9.000000E+99

> <Gold.Protein.RotatedTorsions>
[ 6907 6896 6895 6894 ] final  -74.42 input  -60.11 | X-H torsion
[ 7974 7965 7964 7962 ] final  104.13 input  175.53 | X-H torsion
[ 8008 7997 7996 7995 ] final  -18.29 input   59.86 | X-H torsion
[ 10167 10162 10161 10158 ] final -171.50 input  -65.29 | X-H torsion
[ 10718 10713 10712 10709 ] final  -24.11 input   66.30 | X-H torsion
[ 10763 10752 10751 10750 ] final   52.60 input  -60.55 | X-H torsion
[ 11005 11000 10999 10996 ] final  105.12 input  -57.11 | X-H torsion

> <Gold.Protein.ActiveResidues>
 VAL166  LYS551  ARG553  GLY616  TRP617  ASP618  TYR619  PRO620  LYS621  CYS622 
 ASP623  PHE694  ASN695  SER759  ASP760  ASP761  ALA762  ILE779  LEU786  VAL792 
 PHE793  MET794  SER795  GLU796  ALA797  LYS798  CYS799  TRP800  GLU811  SER814 

> <Gold.Protein.RotatedAtoms>
  150.7094  134.4872  159.5498 H   0  0  0  0  0  0  0  0  0  0  0  0  # atno 6907 bound_to 6896
  152.2497  134.8142  160.0457 H   0  0  0  0  0  0  0  0  0  0  0  0  # atno 6908 bound_to 6896
  151.8894  133.3477  159.3830 H   0  0  0  0  0  0  0  0  0  0  0  0  # atno 6909 bound_to 6896
  145.3369  139.2472  143.3630 H   0  0  0  0  0  0  0  0  0  0  0  0  # atno 7974 bound_to 7965
  154.4917  140.2120  155.9534 H   0  0  0  0  0  0  0  0  0  0  0  0  # atno 8008 bound_to 7997
  156.1314  140.3196  155.8323 H   0  0  0  0  0  0  0  0  0  0  0  0  # atno 8009 bound_to 7997
  155.4289  140.0502  157.3011 H   0  0  0  0  0  0  0  0  0  0  0  0  # atno 8010 bound_to 7997
  139.5799  144.1447  152.1501 H   0  0  0  0  0  0  0  0  0  0  0  0  # atno 10167 bound_to 10162
  156.4821  130.4547  149.6805 H   0  0  0  0  0  0  0  0  0  0  0  0  # atno 10718 bound_to 10713
  152.9790  135.5807  154.4605 H   0  0  0  0  0  0  0  0  0  0  0  0  # atno 10763 bound_to 10752
  154.4181  135.2771  155.1995 H   0  0  0  0  0  0  0  0  0  0  0  0  # atno 10764 bound_to 10752
  154.3756  135.6158  153.5817 H   0  0  0  0  0  0  0  0  0  0  0  0  # atno 10765 bound_to 10752
  139.8798  134.9324  156.5465 H   0  0  0  0  0  0  0  0  0  0  0  0  # atno 11005 bound_to 11000
  146.3023  140.3958  142.8699 LP  0  0  0  0  0  0  0  0  0  0  0  0  # atno 17320 bound_to 7965
  144.8820  140.7413  143.5980 LP  0  0  0  0  0  0  0  0  0  0  0  0  # atno 17321 bound_to 7965
  140.0998  144.5549  150.6996 LP  0  0  0  0  0  0  0  0  0  0  0  0  # atno 17342 bound_to 10162
  140.7078  143.2481  151.4673 LP  0  0  0  0  0  0  0  0  0  0  0  0  # atno 17343 bound_to 10162
  156.3511  130.7432  151.2392 LP  0  0  0  0  0  0  0  0  0  0  0  0  # atno 17370 bound_to 10713
  157.7482  131.0377  150.4466 LP  0  0  0  0  0  0  0  0  0  0  0  0  # atno 17371 bound_to 10713
  140.8272  133.8307  155.8950 LP  0  0  0  0  0  0  0  0  0  0  0  0  # atno 17394 bound_to 11000
  140.9363  134.1958  157.4829 LP  0  0  0  0  0  0  0  0  0  0  0  0  # atno 17395 bound_to 11000

$$$$
