AV-unprocessed.smi:912|AV-procd|sdf|4147|dock10
  -GOLD-   22720 2 53D 1   1.00000     0.00000
 Structure written by MMmdl.
 26 26  0  0  0  0  0  0  0  0  3 V2000
  146.9213  138.8680  152.2735 C   0  0  0  0  0  0  0  0  0  0  0  0
  148.2579  138.8227  152.9100 N   0  3  0  0  0  0  0  0  0  0  0  0
  148.3787  139.3098  154.3165 C   0  0  2  0  0  0  0  0  0  0  0  0
  147.6085  138.3747  155.2818 C   0  0  0  0  0  0  0  0  0  0  0  0
  147.8129  140.7620  154.3639 C   0  0  0  0  0  0  0  0  0  0  0  0
  148.3901  141.5963  153.4694 N   0  5  0  0  0  0  0  0  0  0  0  0
  146.9228  141.0513  155.1623 O   0  0  0  0  0  0  0  0  0  0  0  0
  149.8655  139.2839  154.7385 C   0  0  0  0  0  0  0  0  0  0  0  0
  150.7434  138.2475  154.3312 C   0  0  0  0  0  0  0  0  0  0  0  0
  152.0960  138.2953  154.7215 C   0  0  0  0  0  0  0  0  0  0  0  0
  152.6203  139.2950  155.4593 N   0  0  0  0  0  0  0  0  0  0  0  0
  151.7974  140.2964  155.8296 C   0  0  0  0  0  0  0  0  0  0  0  0
  150.4299  140.3431  155.4931 C   0  0  0  0  0  0  0  0  0  0  0  0
  147.0117  138.5807  151.2264 H   0  0  0  0  0  0  0  0  0  0  0  0
  146.4886  139.8680  152.3063 H   0  0  0  0  0  0  0  0  0  0  0  0
  146.2304  138.1702  152.7462 H   0  0  0  0  0  0  0  0  0  0  0  0
  148.5818  137.8673  152.8848 H   0  0  0  0  0  0  0  0  0  0  0  0
  147.7625  138.6682  156.3214 H   0  0  0  0  0  0  0  0  0  0  0  0
  147.9477  137.3428  155.1853 H   0  0  0  0  0  0  0  0  0  0  0  0
  146.5323  138.3851  155.1062 H   0  0  0  0  0  0  0  0  0  0  0  0
  148.8423  141.2015  152.6365 H   0  0  0  0  0  0  0  0  0  0  0  0
  150.4006  137.4220  153.7250 H   0  0  0  0  0  0  0  0  0  0  0  0
  152.7772  137.5117  154.4245 H   0  0  0  0  0  0  0  0  0  0  0  0
  152.2436  141.0922  156.4078 H   0  0  0  0  0  0  0  0  0  0  0  0
  149.8426  141.1902  155.8136 H   0  0  0  0  0  0  0  0  0  0  0  0
  148.8859  139.3888  152.3567 H   0  0  0  0  0  0  0  0  0  0  0  0
  1  2  1  0  0  0  0
  1 14  1  0  0  0  0
  1 15  1  0  0  0  0
  1 16  1  0  0  0  0
  2  3  1  0  0  0  0
  2 17  1  0  0  0  0
  2 26  1  0  0  0  0
  3  4  1  0  0  0  0
  3  5  1  0  0  0  0
  3  8  1  0  0  0  0
  4 18  1  0  0  0  0
  4 19  1  0  0  0  0
  4 20  1  0  0  0  0
  5  6  1  0  0  0  0
  5  7  2  0  0  0  0
  6 21  1  0  0  0  0
  8 13  1  0  0  0  0
  8  9  2  0  0  0  0
  9 10  1  0  0  0  0
  9 22  1  0  0  0  0
 10 11  2  0  0  0  0
 10 23  1  0  0  0  0
 11 12  1  0  0  0  0
 12 13  2  0  0  0  0
 12 24  1  0  0  0  0
 13 25  1  0  0  0  0
M  CHG  1   2   1
M  CHG  1   6  -1
M  END
> <s_m_source_file>
AV-unprocessed.smi

> <i_m_source_file_index>
912

> <i_lp_mmshare_version>
43012

> <i_f3d_flags>
0

> <s_epik_input>
W0NIM11bTkhdW0NAQF0oW0NIM10pKEMoPU8pW05IMl0pYzFbY0hdW2NIXW5bY0hdW2NIXTE=

> <s_epik_cmdline>
J2VwaWtfcHl0aG9uJywgJy1waCcsICc3LjAnLCAnLXRuJywgJzgnLCAnLW1hJywgJzIwMCcsICctbWV0YWxfYmluZGluZycsICctaW1hZScsICc8aW5maWxlLm1hZT4nLCAnLW9tYWUnLCAnPG91dGZpbGUubWFlPic=

> <r_epik_Ionization_Penalty>
6.88213

> <r_epik_Ionization_Penalty_Charging>
6.88153

> <r_epik_Ionization_Penalty_Neutral>
0.000601258

> <r_epik_State_Penalty>
7.02604

> <r_epik_Charging_Adjusted_Penalty>
13.9076

> <i_epik_Tot_Q>
0

> <i_epik_Tot_abs_Q>
2

> <r_epik_Metal_State_Penalty>
3.10652

> <b_epik_Metal_Only>
1

> <s_lp_Force_Field>
OPLS_2005

> <r_lp_Energy>
7.66147

> <b_lp_Chiralities_Consistent>
1

> <s_lp_Variant>
AV-unprocessed.smi:912-8

> <Gold.Version>
5.8.1

> <Gold.Id.Protein>
6NUR|6NUR_protein|mol2

> <Gold.PLP.Fitness>
37.9134

> <Gold.PLP.PLP>
-24.9801

> <Gold.PLP.part.hbond>
-4.8109

> <Gold.PLP.part.metal>
0.0000

> <Gold.PLP.part.buried>
-1.7426

> <Gold.PLP.part.nonpolar>
-19.3277

> <Gold.PLP.part.repulsive>
0.1508

> <Gold.PLP.ligand.clash>
0.0000

> <Gold.PLP.ligand.torsion>
0.9729

> <Gold.PLP.Chemscore.Hbond>
4.9503

> <Gold.PLP.Chemscore.CHOScore>
0.0000

> <Gold.PLP.Chemscore.Metal>
0.0000

> <Gold.Chemscore.Hbonds>
donor molecule, donor type, donor heavy atom, donor atom, acceptor molecule, acceptor atom, score
      L1  H     2    17       P1  7948  1.95
      L1  H     2    26       P1  7957  1.00
      L1  H     6    21       P1  7957  1.00
      P1  H  7997  8009       L1    11  0.83

> <Gold.PLP.Chemscore.Internal.Correction>
0.0284

> <Gold.Rescore>
     Score         DG    S(hbond)    S(metal)    S(lipo)     H(rot)  DE(clash)    DE(int)     intcor
     17.19     -18.66       3.47        0.00      53.11       1.80       0.39       1.07       ----

> <Gold.Chemscore.Fitness>
17.1940

> <Gold.Chemscore.DG>
-18.6569

> <Gold.Chemscore.ZeroCoef>
-5.4800

> <Gold.Chemscore.Hbond>
3.4671

> <Gold.Chemscore.Metal>
0.0000

> <Gold.Chemscore.Lipo>
53.1136

> <Gold.Chemscore.Internal_Hbond>
0.0000

> <Gold.Chemscore.DEClash>
0.3889

> <Gold.Chemscore.DEInternal>
1.0741

> <Gold.Chemscore.Rot>
1.8037

> <Gold.Chemscore.Internal.Correction>
   9.000000E+99

> <Gold.Chemscore.Hbonds>
donor molecule, donor type, donor heavy atom, donor atom, acceptor molecule, acceptor atom, score
      L1  H     2    17       P1  7948  0.93
      L1  H     2    26       P1  7957  0.93
      L1  H     6    21       P1  7957  0.95
      P1  H  7997  8009       L1    11  0.16

> <Gold.Chemscore.Hbond.Weighted>
-11.5801

> <Gold.Chemscore.Metal.Weighted>
-0.0000

> <Gold.Chemscore.Lipo.Weighted>
-6.2143

> <Gold.Chemscore.Internal_Hbond.Weighted>
0.0000

> <Gold.Chemscore.DEClash.Weighted>
0.3889

> <Gold.Chemscore.DEInternal.Weighted>
1.0741

> <Gold.Chemscore.Rot.Weighted>
4.6174

> <Gold.Chemscore.Internal.Correction.Weighted>
   9.000000E+99

> <Gold.Protein.RotatedTorsions>
[ 6907 6896 6895 6894 ] final   92.85 input  -60.11 | X-H torsion
[ 7974 7965 7964 7962 ] final  -22.60 input  175.53 | X-H torsion
[ 8008 7997 7996 7995 ] final -140.70 input   59.86 | X-H torsion
[ 10167 10162 10161 10158 ] final   79.39 input  -65.29 | X-H torsion
[ 10718 10713 10712 10709 ] final -146.11 input   66.30 | X-H torsion
[ 10763 10752 10751 10750 ] final   44.00 input  -60.55 | X-H torsion
[ 11005 11000 10999 10996 ] final  145.45 input  -57.11 | X-H torsion

> <Gold.Protein.ActiveResidues>
 VAL166  LYS551  ARG553  GLY616  TRP617  ASP618  TYR619  PRO620  LYS621  CYS622 
 ASP623  PHE694  ASN695  SER759  ASP760  ASP761  ALA762  ILE779  LEU786  VAL792 
 PHE793  MET794  SER795  GLU796  ALA797  LYS798  CYS799  TRP800  GLU811  SER814 

> <Gold.Protein.RotatedAtoms>
  152.5453  134.1439  159.8489 H   0  0  0  0  0  0  0  0  0  0  0  0  # atno 6907 bound_to 6896
  151.1472  133.4924  159.2603 H   0  0  0  0  0  0  0  0  0  0  0  0  # atno 6908 bound_to 6896
  151.1510  135.0238  159.8723 H   0  0  0  0  0  0  0  0  0  0  0  0  # atno 6909 bound_to 6896
  146.1666  140.4502  142.8549 H   0  0  0  0  0  0  0  0  0  0  0  0  # atno 7974 bound_to 7965
  155.4656  140.0549  157.2985 H   0  0  0  0  0  0  0  0  0  0  0  0  # atno 8008 bound_to 7997
  154.4719  140.2044  155.9928 H   0  0  0  0  0  0  0  0  0  0  0  0  # atno 8009 bound_to 7997
  156.1070  140.3210  155.8024 H   0  0  0  0  0  0  0  0  0  0  0  0  # atno 8010 bound_to 7997
  139.9609  144.5962  150.8073 H   0  0  0  0  0  0  0  0  0  0  0  0  # atno 10167 bound_to 10162
  156.3909  130.7885  151.2087 H   0  0  0  0  0  0  0  0  0  0  0  0  # atno 10718 bound_to 10713
  152.9849  135.6084  154.3202 H   0  0  0  0  0  0  0  0  0  0  0  0  # atno 10763 bound_to 10752
  154.2912  135.2775  155.2655 H   0  0  0  0  0  0  0  0  0  0  0  0  # atno 10764 bound_to 10752
  154.4950  135.5882  153.6544 H   0  0  0  0  0  0  0  0  0  0  0  0  # atno 10765 bound_to 10752
  140.0713  134.9150  157.1350 H   0  0  0  0  0  0  0  0  0  0  0  0  # atno 11005 bound_to 11000
  144.8101  140.6370  143.6421 LP  0  0  0  0  0  0  0  0  0  0  0  0  # atno 17320 bound_to 7965
  145.4451  139.1530  143.3949 LP  0  0  0  0  0  0  0  0  0  0  0  0  # atno 17321 bound_to 7965
  140.7553  143.3044  151.2998 LP  0  0  0  0  0  0  0  0  0  0  0  0  # atno 17342 bound_to 10162
  139.6555  144.0284  152.2656 LP  0  0  0  0  0  0  0  0  0  0  0  0  # atno 17343 bound_to 10162
  157.7499  131.0316  150.4188 LP  0  0  0  0  0  0  0  0  0  0  0  0  # atno 17370 bound_to 10713
  156.4449  130.3999  149.6673 LP  0  0  0  0  0  0  0  0  0  0  0  0  # atno 17371 bound_to 10713
  140.3622  134.2481  155.7186 LP  0  0  0  0  0  0  0  0  0  0  0  0  # atno 17394 bound_to 11000
  141.2013  133.7966  157.0447 LP  0  0  0  0  0  0  0  0  0  0  0  0  # atno 17395 bound_to 11000

$$$$
