AV-unprocessed.smi:1597|AV-procd|sdf|6420|dock2
  -GOLD-   22720 7 53D 1   1.00000     0.00000
 Structure written by MMmdl.
 53 54  0  0  0  0  0  0  0  0  2 V2000
  146.8415  140.9467  152.9863 C   0  0  0  0  0  0  0  0  0  0  0  0
  146.1434  139.6949  153.3851 N   0  3  0  0  0  0  0  0  0  0  0  0
  146.5036  138.5948  152.4472 C   0  0  0  0  0  0  0  0  0  0  0  0
  146.1881  139.3559  154.8601 C   0  0  0  0  0  0  0  0  0  0  0  0
  147.6295  138.8453  155.1964 C   0  0  0  0  0  0  0  0  0  0  0  0
  148.6273  139.9127  155.2150 N   0  0  0  0  0  0  0  0  0  0  0  0
  149.4305  140.2575  156.2344 C   0  0  0  0  0  0  0  0  0  0  0  0
  149.4250  139.6735  157.3163 O   0  0  0  0  0  0  0  0  0  0  0  0
  150.3729  141.4565  156.0306 C   0  0  0  0  0  0  0  0  0  0  0  0
  151.0554  141.9082  157.2539 N   0  0  0  0  0  0  0  0  0  0  0  0
  150.7274  143.1354  157.8015 C   0  0  0  0  0  0  0  0  0  0  0  0
  151.3212  143.6425  158.9036 C   0  0  0  0  0  0  0  0  0  0  0  0
  152.3702  142.9026  159.5932 C   0  0  0  0  0  0  0  0  0  0  0  0
  152.9405  143.3173  160.6029 O   0  0  0  0  0  0  0  0  0  0  0  0
  152.6902  141.6544  159.0122 N   0  0  0  0  0  0  0  0  0  0  0  0
  153.7261  140.8849  159.6693 C   0  0  0  0  0  0  0  0  0  0  0  0
  152.0601  141.1236  157.8625 C   0  0  0  0  0  0  0  0  0  0  0  0
  152.3652  140.0284  157.3861 O   0  0  0  0  0  0  0  0  0  0  0  0
  145.8966  140.6483  155.6966 C   0  0  0  0  0  0  0  0  0  0  0  0
  145.0707  140.5474  156.9936 C   0  0  0  0  0  0  0  0  0  0  0  0
  145.5009  139.4752  158.0020 C   0  0  0  0  0  0  0  0  0  0  0  0
  144.8219  138.1257  157.7411 C   0  0  0  0  0  0  0  0  0  0  0  0
  145.2959  137.4062  156.4737 C   0  0  0  0  0  0  0  0  0  0  0  0
  145.1553  138.2085  155.1575 C   0  0  0  0  0  0  0  0  0  0  0  0
  147.8940  140.9286  153.2696 H   0  0  0  0  0  0  0  0  0  0  0  0
  146.3818  141.8340  153.4194 H   0  0  0  0  0  0  0  0  0  0  0  0
  146.7936  141.0850  151.9057 H   0  0  0  0  0  0  0  0  0  0  0  0
  147.5742  138.3917  152.4456 H   0  0  0  0  0  0  0  0  0  0  0  0
  146.2301  138.8766  151.4299 H   0  0  0  0  0  0  0  0  0  0  0  0
  145.9864  137.6606  152.6497 H   0  0  0  0  0  0  0  0  0  0  0  0
  147.6699  138.2812  156.1266 H   0  0  0  0  0  0  0  0  0  0  0  0
  147.9608  138.1212  154.4556 H   0  0  0  0  0  0  0  0  0  0  0  0
  148.7142  140.4507  154.3642 H   0  0  0  0  0  0  0  0  0  0  0  0
  151.1180  141.1785  155.2838 H   0  0  0  0  0  0  0  0  0  0  0  0
  149.8080  142.2749  155.5816 H   0  0  0  0  0  0  0  0  0  0  0  0
  149.9584  143.7239  157.3222 H   0  0  0  0  0  0  0  0  0  0  0  0
  151.0171  144.6084  159.2797 H   0  0  0  0  0  0  0  0  0  0  0  0
  153.9951  140.0035  159.0885 H   0  0  0  0  0  0  0  0  0  0  0  0
  153.3353  140.5922  160.6452 H   0  0  0  0  0  0  0  0  0  0  0  0
  154.6023  141.5285  159.7681 H   0  0  0  0  0  0  0  0  0  0  0  0
  146.8392  141.1476  155.9249 H   0  0  0  0  0  0  0  0  0  0  0  0
  145.3504  141.3693  155.0900 H   0  0  0  0  0  0  0  0  0  0  0  0
  145.1282  141.5181  157.4875 H   0  0  0  0  0  0  0  0  0  0  0  0
  144.0150  140.4215  156.7499 H   0  0  0  0  0  0  0  0  0  0  0  0
  146.5851  139.3812  158.0502 H   0  0  0  0  0  0  0  0  0  0  0  0
  145.1935  139.8065  158.9946 H   0  0  0  0  0  0  0  0  0  0  0  0
  145.0010  137.4717  158.5952 H   0  0  0  0  0  0  0  0  0  0  0  0
  143.7407  138.2631  157.6989 H   0  0  0  0  0  0  0  0  0  0  0  0
  146.3068  137.0296  156.6169 H   0  0  0  0  0  0  0  0  0  0  0  0
  144.6889  136.5055  156.3745 H   0  0  0  0  0  0  0  0  0  0  0  0
  144.1353  138.5900  155.0981 H   0  0  0  0  0  0  0  0  0  0  0  0
  145.2321  137.4699  154.3578 H   0  0  0  0  0  0  0  0  0  0  0  0
  145.1669  139.8772  153.2009 H   0  0  0  0  0  0  0  0  0  0  0  0
  1  2  1  0  0  0  0
  1 25  1  0  0  0  0
  1 26  1  0  0  0  0
  1 27  1  0  0  0  0
  2  3  1  0  0  0  0
  2  4  1  0  0  0  0
  2 53  1  0  0  0  0
  3 28  1  0  0  0  0
  3 29  1  0  0  0  0
  3 30  1  0  0  0  0
  4 24  1  0  0  0  0
  4  5  1  0  0  0  0
  4 19  1  0  0  0  0
  5  6  1  0  0  0  0
  5 31  1  0  0  0  0
  5 32  1  0  0  0  0
  6  7  1  0  0  0  0
  6 33  1  0  0  0  0
  7  8  2  0  0  0  0
  7  9  1  0  0  0  0
  9 10  1  0  0  0  0
  9 34  1  0  0  0  0
  9 35  1  0  0  0  0
 10 17  1  0  0  0  0
 10 11  1  0  0  0  0
 11 12  2  0  0  0  0
 11 36  1  0  0  0  0
 12 13  1  0  0  0  0
 12 37  1  0  0  0  0
 13 14  2  0  0  0  0
 13 15  1  0  0  0  0
 15 16  1  0  0  0  0
 15 17  1  0  0  0  0
 16 38  1  0  0  0  0
 16 39  1  0  0  0  0
 16 40  1  0  0  0  0
 17 18  2  0  0  0  0
 19 20  1  0  0  0  0
 19 41  1  0  0  0  0
 19 42  1  0  0  0  0
 20 21  1  0  0  0  0
 20 43  1  0  0  0  0
 20 44  1  0  0  0  0
 21 22  1  0  0  0  0
 21 45  1  0  0  0  0
 21 46  1  0  0  0  0
 22 23  1  0  0  0  0
 22 47  1  0  0  0  0
 22 48  1  0  0  0  0
 23 24  1  0  0  0  0
 23 49  1  0  0  0  0
 23 50  1  0  0  0  0
 24 51  1  0  0  0  0
 24 52  1  0  0  0  0
M  CHG  1   2   1
M  END
> <s_m_source_file>
AV-unprocessed.smi

> <i_m_source_file_index>
1597

> <i_lp_mmshare_version>
43012

> <i_f3d_flags>
0

> <s_epik_input>
W0NIMl0xW0NIMl1bQ0gyXVtDSDJdW0NIMl1bQ0gyXUMxKE4oW0NIM10pW0NIM10pW0NIMl1bTkhdQyg9TylbQ0gyXW4yW2NIXVtjSF1jKD1PKW4oW0NIM10pYzI9Tw==

> <s_epik_cmdline>
J2VwaWtfcHl0aG9uJywgJy1waCcsICc3LjAnLCAnLXRuJywgJzgnLCAnLW1hJywgJzIwMCcsICctbWV0YWxfYmluZGluZycsICctaW1hZScsICc8aW5maWxlLm1hZT4nLCAnLW9tYWUnLCAnPG91dGZpbGUubWFlPic=

> <r_lp_tautomer_probability>
1

> <r_epik_Ionization_Penalty>
0.00225783

> <r_epik_Ionization_Penalty_Charging>
0.00225776

> <r_epik_Ionization_Penalty_Neutral>
7.38919e-08

> <r_epik_State_Penalty>
0.00155497

> <r_epik_Charging_Adjusted_Penalty>
0.00381272

> <i_epik_Tot_Q>
1

> <i_epik_Tot_abs_Q>
1

> <r_epik_Metal_State_Penalty>
-0

> <b_epik_Metal_Only>
0

> <s_lp_Force_Field>
OPLS_2005

> <r_lp_Energy>
50.4542

> <b_lp_Chiralities_Consistent>
1

> <s_lp_Variant>
AV-unprocessed.smi:1597-1

> <Gold.Version>
5.8.1

> <Gold.Id.Protein>
6NUR|6NUR_protein|mol2

> <Gold.PLP.Fitness>
42.5187

> <Gold.PLP.PLP>
-31.2866

> <Gold.PLP.part.hbond>
-2.0000

> <Gold.PLP.part.metal>
0.0000

> <Gold.PLP.part.buried>
-4.4734

> <Gold.PLP.part.nonpolar>
-23.9749

> <Gold.PLP.part.repulsive>
0.0901

> <Gold.PLP.ligand.clash>
0.0000

> <Gold.PLP.ligand.torsion>
0.4442

> <Gold.PLP.Chemscore.Hbond>
2.9920

> <Gold.PLP.Chemscore.CHOScore>
1.0000

> <Gold.PLP.Chemscore.Metal>
0.0000

> <Gold.Chemscore.Hbonds>
donor molecule, donor type, donor heavy atom, donor atom, acceptor molecule, acceptor atom, score
      L1  H     2    53       P1 10175  2.00
      P1  H  7997  8010       L1    18  0.67
      L1  C    11    36       P1  8028  1.00

> <Gold.PLP.Chemscore.Internal.Correction>
0.1445

> <Gold.Rescore>
     Score         DG    S(hbond)    S(metal)    S(lipo)     H(rot)  DE(clash)    DE(int)     intcor
     10.78     -13.90       1.75        0.00      66.29       2.02       2.40       0.72       ----

> <Gold.Chemscore.Fitness>
10.7787

> <Gold.Chemscore.DG>
-13.8952

> <Gold.Chemscore.ZeroCoef>
-5.4800

> <Gold.Chemscore.Hbond>
1.7484

> <Gold.Chemscore.Metal>
0.0000

> <Gold.Chemscore.Lipo>
66.2895

> <Gold.Chemscore.Internal_Hbond>
0.0000

> <Gold.Chemscore.DEClash>
2.3951

> <Gold.Chemscore.DEInternal>
0.7215

> <Gold.Chemscore.Rot>
2.0236

> <Gold.Chemscore.Internal.Correction>
   9.000000E+99

> <Gold.Chemscore.Hbonds>
donor molecule, donor type, donor heavy atom, donor atom, acceptor molecule, acceptor atom, score
      L1  H     2    53       P1 10175  1.00
      P1  H  7997  8010       L1    18  0.42

> <Gold.Chemscore.Hbond.Weighted>
-5.8397

> <Gold.Chemscore.Metal.Weighted>
-0.0000

> <Gold.Chemscore.Lipo.Weighted>
-7.7559

> <Gold.Chemscore.Internal_Hbond.Weighted>
0.0000

> <Gold.Chemscore.DEClash.Weighted>
2.3951

> <Gold.Chemscore.DEInternal.Weighted>
0.7215

> <Gold.Chemscore.Rot.Weighted>
5.1803

> <Gold.Chemscore.Internal.Correction.Weighted>
   9.000000E+99

> <Gold.Protein.RotatedTorsions>
[ 6907 6896 6895 6894 ] final   57.55 input  -60.11 | X-H torsion
[ 7974 7965 7964 7962 ] final -129.41 input  175.53 | X-H torsion
[ 8008 7997 7996 7995 ] final   46.10 input   59.86 | X-H torsion
[ 10167 10162 10161 10158 ] final  113.89 input  -65.29 | X-H torsion
[ 10718 10713 10712 10709 ] final  147.57 input   66.30 | X-H torsion
[ 10763 10752 10751 10750 ] final -101.86 input  -60.55 | X-H torsion
[ 11005 11000 10999 10996 ] final  -92.39 input  -57.11 | X-H torsion

> <Gold.Protein.ActiveResidues>
 VAL166  LYS551  ARG553  GLY616  TRP617  ASP618  TYR619  PRO620  LYS621  CYS622 
 ASP623  PHE694  ASN695  SER759  ASP760  ASP761  ALA762  ILE779  LEU786  VAL792 
 PHE793  MET794  SER795  GLU796  ALA797  LYS798  CYS799  TRP800  GLU811  SER814 

> <Gold.Protein.RotatedAtoms>
  152.3741  134.6689  160.0165 H   0  0  0  0  0  0  0  0  0  0  0  0  # atno 6907 bound_to 6896
  151.6973  133.3305  159.3265 H   0  0  0  0  0  0  0  0  0  0  0  0  # atno 6908 bound_to 6896
  150.7696  134.6582  159.6370 H   0  0  0  0  0  0  0  0  0  0  0  0  # atno 6909 bound_to 6896
  144.9574  140.7410  143.4750 H   0  0  0  0  0  0  0  0  0  0  0  0  # atno 7974 bound_to 7965
  155.3468  140.3411  155.4239 H   0  0  0  0  0  0  0  0  0  0  0  0  # atno 8008 bound_to 7997
  156.1785  140.1655  156.8354 H   0  0  0  0  0  0  0  0  0  0  0  0  # atno 8009 bound_to 7997
  154.5307  140.0746  156.8323 H   0  0  0  0  0  0  0  0  0  0  0  0  # atno 8010 bound_to 7997
  139.6428  144.7125  151.2202 H   0  0  0  0  0  0  0  0  0  0  0  0  # atno 10167 bound_to 10162
  157.3193  131.0901  151.1253 H   0  0  0  0  0  0  0  0  0  0  0  0  # atno 10718 bound_to 10713
  154.7690  135.4882  153.9611 H   0  0  0  0  0  0  0  0  0  0  0  0  # atno 10763 bound_to 10752
  153.1344  135.6759  153.9134 H   0  0  0  0  0  0  0  0  0  0  0  0  # atno 10764 bound_to 10752
  153.8828  135.3130  155.3424 H   0  0  0  0  0  0  0  0  0  0  0  0  # atno 10765 bound_to 10752
  141.1523  133.7818  157.0014 H   0  0  0  0  0  0  0  0  0  0  0  0  # atno 11005 bound_to 11000
  145.2751  139.1939  143.4821 LP  0  0  0  0  0  0  0  0  0  0  0  0  # atno 17320 bound_to 7965
  146.3342  140.2704  142.8605 LP  0  0  0  0  0  0  0  0  0  0  0  0  # atno 17321 bound_to 7965
  140.7499  143.6282  150.8448 LP  0  0  0  0  0  0  0  0  0  0  0  0  # atno 17342 bound_to 10162
  139.9921  143.5835  152.2906 LP  0  0  0  0  0  0  0  0  0  0  0  0  # atno 17343 bound_to 10162
  157.2544  130.6629  149.5946 LP  0  0  0  0  0  0  0  0  0  0  0  0  # atno 17370 bound_to 10713
  155.9684  130.4528  150.5788 LP  0  0  0  0  0  0  0  0  0  0  0  0  # atno 17371 bound_to 10713
  140.0938  134.9577  157.1817 LP  0  0  0  0  0  0  0  0  0  0  0  0  # atno 17394 bound_to 11000
  140.3410  134.2703  155.7212 LP  0  0  0  0  0  0  0  0  0  0  0  0  # atno 17395 bound_to 11000

$$$$
