AV-unprocessed.smi:1808|AV-procd|sdf|7305|dock2
  -GOLD-   22720 8563D 1   1.00000     0.00000
 Structure written by MMmdl.
 28 29  0  0  0  0  0  0  0  0  1 V2000
  148.5893  144.6457  161.3893 O   0  0  0  0  0  0  0  0  0  0  0  0
  148.4397  144.9223  160.1986 C   0  0  0  0  0  0  0  0  0  0  0  0
  147.2698  145.3116  159.6723 N   0  0  0  0  0  0  0  0  0  0  0  0
  146.0285  145.4712  160.4209 C   0  0  0  0  0  0  0  0  0  0  0  0
  144.8844  145.9589  159.5174 C   0  0  2  0  0  0  0  0  0  0  0  0
  144.5385  144.9915  158.3874 C   0  0  0  0  0  0  0  0  0  0  0  0
  143.9023  145.9206  157.3795 C   0  0  0  0  0  0  0  0  0  0  0  0
  144.7730  147.1662  157.5148 C   0  0  0  0  0  0  0  0  0  0  0  0
  145.2444  147.1725  158.8603 O   0  0  0  0  0  0  0  0  0  0  0  0
  149.4050  144.8826  159.2636 N   0  0  0  0  0  0  0  0  0  0  0  0
  150.7610  144.4912  159.4181 C   0  0  0  0  0  0  0  0  0  0  0  0
  151.2445  143.8512  160.4892 N   0  0  0  0  0  0  0  0  0  0  0  0
  152.6108  143.5849  160.3688 C   0  0  0  0  0  0  0  0  0  0  0  0
  153.1555  144.0320  159.1908 C   0  0  0  0  0  0  0  0  0  0  0  0
  151.9671  144.8104  158.1800 S   0  0  0  0  0  0  0  0  0  0  0  0
  147.2360  145.5262  158.6865 H   0  0  0  0  0  0  0  0  0  0  0  0
  145.7701  144.5115  160.8689 H   0  0  0  0  0  0  0  0  0  0  0  0
  146.1804  146.1678  161.2473 H   0  0  0  0  0  0  0  0  0  0  0  0
  143.9844  146.1477  160.1052 H   0  0  0  0  0  0  0  0  0  0  0  0
  145.4423  144.5479  157.9670 H   0  0  0  0  0  0  0  0  0  0  0  0
  143.8763  144.1858  158.7056 H   0  0  0  0  0  0  0  0  0  0  0  0
  143.8885  145.5156  156.3675 H   0  0  0  0  0  0  0  0  0  0  0  0
  142.8761  146.1448  157.6740 H   0  0  0  0  0  0  0  0  0  0  0  0
  145.6341  147.1031  156.8485 H   0  0  0  0  0  0  0  0  0  0  0  0
  144.2287  148.0806  157.2781 H   0  0  0  0  0  0  0  0  0  0  0  0
  149.1357  145.1535  158.3295 H   0  0  0  0  0  0  0  0  0  0  0  0
  153.1177  143.0696  161.1712 H   0  0  0  0  0  0  0  0  0  0  0  0
  154.1796  143.9498  158.8578 H   0  0  0  0  0  0  0  0  0  0  0  0
  1  2  2  0  0  0  0
  2  3  1  0  0  0  0
  2 10  1  0  0  0  0
  3  4  1  0  0  0  0
  3 16  1  0  0  0  0
  4  5  1  0  0  0  0
  4 17  1  0  0  0  0
  4 18  1  0  0  0  0
  5  9  1  0  0  0  0
  5  6  1  0  0  0  0
  5 19  1  0  0  0  0
  6  7  1  0  0  0  0
  6 20  1  0  0  0  0
  6 21  1  0  0  0  0
  7  8  1  0  0  0  0
  7 22  1  0  0  0  0
  7 23  1  0  0  0  0
  8  9  1  0  0  0  0
  8 24  1  0  0  0  0
  8 25  1  0  0  0  0
 10 11  1  0  0  0  0
 10 26  1  0  0  0  0
 11 15  1  0  0  0  0
 11 12  2  0  0  0  0
 12 13  1  0  0  0  0
 13 14  2  0  0  0  0
 13 27  1  0  0  0  0
 14 15  1  0  0  0  0
 14 28  1  0  0  0  0
M  END
> <s_m_source_file>
AV-unprocessed.smi

> <i_m_source_file_index>
1808

> <i_lp_mmshare_version>
43012

> <i_f3d_flags>
0

> <s_epik_input>
czFbY0hdW2NIXW5jMVtOSF1DKD1PKVtOSF1bQ0gyXVtDQEBIXTJbQ0gyXVtDSDJdW0NIMl1PMg==

> <s_epik_cmdline>
J2VwaWtfcHl0aG9uJywgJy1waCcsICc3LjAnLCAnLXRuJywgJzgnLCAnLW1hJywgJzIwMCcsICctbWV0YWxfYmluZGluZycsICctaW1hZScsICc8aW5maWxlLm1hZT4nLCAnLW9tYWUnLCAnPG91dGZpbGUubWFlPic=

> <r_lp_tautomer_probability>
0.999

> <r_epik_Ionization_Penalty>
0.000333847

> <r_epik_Ionization_Penalty_Charging>
0

> <r_epik_Ionization_Penalty_Neutral>
0.000333847

> <r_epik_State_Penalty>
0.000177984

> <r_epik_Charging_Adjusted_Penalty>
0.000177984

> <i_epik_Tot_Q>
0

> <i_epik_Tot_abs_Q>
0

> <r_epik_Metal_State_Penalty>
0.00767616

> <b_epik_Metal_Only>
0

> <s_lp_Force_Field>
OPLS_2005

> <r_lp_Energy>
15.026

> <b_lp_Chiralities_Consistent>
1

> <s_lp_Variant>
AV-unprocessed.smi:1808-1

> <Gold.Version>
5.8.1

> <Gold.Id.Protein>
6NUR|6NUR_protein|mol2

> <Gold.PLP.Fitness>
38.9917

> <Gold.PLP.PLP>
-30.4538

> <Gold.PLP.part.hbond>
-3.8372

> <Gold.PLP.part.metal>
0.0000

> <Gold.PLP.part.buried>
-5.3148

> <Gold.PLP.part.nonpolar>
-22.1325

> <Gold.PLP.part.repulsive>
0.7091

> <Gold.PLP.ligand.clash>
0.0000

> <Gold.PLP.ligand.torsion>
0.0436

> <Gold.PLP.Chemscore.Hbond>
2.8720

> <Gold.PLP.Chemscore.CHOScore>
0.0000

> <Gold.PLP.Chemscore.Metal>
0.0000

> <Gold.Chemscore.Hbonds>
donor molecule, donor type, donor heavy atom, donor atom, acceptor molecule, acceptor atom, score
      L1  H     3    16       P1  8029  1.00
      L1  H    10    26       P1  8029  0.96
      P1  H  6933  6944       L1     1  0.33

> <Gold.PLP.Chemscore.Internal.Correction>
0.0092

> <Gold.Rescore>
     Score         DG    S(hbond)    S(metal)    S(lipo)     H(rot)  DE(clash)    DE(int)     intcor
     17.72     -19.03       2.85        0.00      63.17       1.32       0.01       1.31       ----

> <Gold.Chemscore.Fitness>
17.7164

> <Gold.Chemscore.DG>
-19.0331

> <Gold.Chemscore.ZeroCoef>
-5.4800

> <Gold.Chemscore.Hbond>
2.8538

> <Gold.Chemscore.Metal>
0.0000

> <Gold.Chemscore.Lipo>
63.1720

> <Gold.Chemscore.Internal_Hbond>
0.0000

> <Gold.Chemscore.DEClash>
0.0077

> <Gold.Chemscore.DEInternal>
1.3089

> <Gold.Chemscore.Rot>
1.3163

> <Gold.Chemscore.Internal.Correction>
   9.000000E+99

> <Gold.Chemscore.Hbonds>
donor molecule, donor type, donor heavy atom, donor atom, acceptor molecule, acceptor atom, score
      L1  H     3    16       P1  8029  0.96
      L1  H    10    26       P1  8029  0.69
      P1  H  6933  6944       L1     1  0.16

> <Gold.Chemscore.Hbond.Weighted>
-9.5318

> <Gold.Chemscore.Metal.Weighted>
-0.0000

> <Gold.Chemscore.Lipo.Weighted>
-7.3911

> <Gold.Chemscore.Internal_Hbond.Weighted>
0.0000

> <Gold.Chemscore.DEClash.Weighted>
0.0077

> <Gold.Chemscore.DEInternal.Weighted>
1.3089

> <Gold.Chemscore.Rot.Weighted>
3.3698

> <Gold.Chemscore.Internal.Correction.Weighted>
   9.000000E+99

> <Gold.Protein.RotatedTorsions>
[ 6907 6896 6895 6894 ] final  168.03 input  -60.11 | X-H torsion
[ 7974 7965 7964 7962 ] final  -31.32 input  175.53 | X-H torsion
[ 8008 7997 7996 7995 ] final  115.63 input   59.86 | X-H torsion
[ 10167 10162 10161 10158 ] final  -40.83 input  -65.29 | X-H torsion
[ 10718 10713 10712 10709 ] final   26.61 input   66.30 | X-H torsion
[ 10763 10752 10751 10750 ] final   66.80 input  -60.55 | X-H torsion
[ 11005 11000 10999 10996 ] final   49.60 input  -57.11 | X-H torsion

> <Gold.Protein.ActiveResidues>
 VAL166  LYS551  ARG553  GLY616  TRP617  ASP618  TYR619  PRO620  LYS621  CYS622 
 ASP623  PHE694  ASN695  SER759  ASP760  ASP761  ALA762  ILE779  LEU786  VAL792 
 PHE793  MET794  SER795  GLU796  ALA797  LYS798  CYS799  TRP800  GLU811  SER814 

> <Gold.Protein.RotatedAtoms>
  151.8540  133.3445  159.3682 H   0  0  0  0  0  0  0  0  0  0  0  0  # atno 6907 bound_to 6896
  150.7198  134.5271  159.5691 H   0  0  0  0  0  0  0  0  0  0  0  0  # atno 6908 bound_to 6896
  152.2771  134.7870  160.0454 H   0  0  0  0  0  0  0  0  0  0  0  0  # atno 6909 bound_to 6896
  146.1076  140.5652  142.8792 H   0  0  0  0  0  0  0  0  0  0  0  0  # atno 7974 bound_to 7965
  156.2393  140.2934  156.0399 H   0  0  0  0  0  0  0  0  0  0  0  0  # atno 8008 bound_to 7997
  155.1999  140.0409  157.2933 H   0  0  0  0  0  0  0  0  0  0  0  0  # atno 8009 bound_to 7997
  154.6137  140.2458  155.7643 H   0  0  0  0  0  0  0  0  0  0  0  0  # atno 8010 bound_to 7997
  140.7022  143.3130  151.2979 H   0  0  0  0  0  0  0  0  0  0  0  0  # atno 10167 bound_to 10162
  157.2091  130.6926  149.6221 H   0  0  0  0  0  0  0  0  0  0  0  0  # atno 10718 bound_to 10713
  153.0156  135.5307  154.6880 H   0  0  0  0  0  0  0  0  0  0  0  0  # atno 10763 bound_to 10752
  154.6022  135.2869  155.0525 H   0  0  0  0  0  0  0  0  0  0  0  0  # atno 10764 bound_to 10752
  154.1578  135.6552  153.5031 H   0  0  0  0  0  0  0  0  0  0  0  0  # atno 10765 bound_to 10752
  140.1090  134.4980  155.8695 H   0  0  0  0  0  0  0  0  0  0  0  0  # atno 11005 bound_to 11000
  144.7484  140.5128  143.6819 LP  0  0  0  0  0  0  0  0  0  0  0  0  # atno 17320 bound_to 7965
  145.5728  139.1484  143.3279 LP  0  0  0  0  0  0  0  0  0  0  0  0  # atno 17321 bound_to 7965
  139.6560  144.0276  152.2659 LP  0  0  0  0  0  0  0  0  0  0  0  0  # atno 17342 bound_to 10162
  139.9828  144.6416  150.7885 LP  0  0  0  0  0  0  0  0  0  0  0  0  # atno 17343 bound_to 10162
  155.9692  130.4557  150.5897 LP  0  0  0  0  0  0  0  0  0  0  0  0  # atno 17370 bound_to 10713
  157.3690  131.0762  151.1574 LP  0  0  0  0  0  0  0  0  0  0  0  0  # atno 17371 bound_to 10713
  141.2125  133.6721  156.6667 LP  0  0  0  0  0  0  0  0  0  0  0  0  # atno 17394 bound_to 11000
  140.3117  134.8080  157.4181 LP  0  0  0  0  0  0  0  0  0  0  0  0  # atno 17395 bound_to 11000

$$$$
