AV-unprocessed.smi:264|AV-procd|sdf|2007|dock2
  -GOLD-   2262021203D 1   1.00000     0.00000
 Structure written by MMmdl.
 52 56  0  0  0  0  0  0  0  0  1 V2000
  151.4447  144.3883  158.2034 C   0  0  0  0  0  0  0  0  0  0  0  0
  151.5822  143.3255  159.3048 C   0  0  2  0  0  0  0  0  0  0  0  0
  152.9175  143.3912  159.7997 O   0  0  0  0  0  0  0  0  0  0  0  0
  153.3191  142.0991  160.2187 C   0  0  0  0  0  0  0  0  0  0  0  0
  152.7200  141.2049  159.1443 C   0  0  0  0  0  0  0  0  0  0  0  0
  151.3598  141.8453  158.8827 C   0  0  1  0  0  0  0  0  0  0  0  0
  150.4300  141.2765  159.7900 O   0  0  0  0  0  0  0  0  0  0  0  0
  150.8279  141.6098  157.4444 C   0  0  0  0  0  0  0  0  0  0  0  0
  150.5216  140.2155  157.1605 N   0  0  0  0  0  0  0  0  0  0  0  0
  149.2701  139.6633  157.0070 C   0  0  0  0  0  0  0  0  0  0  0  0
  149.2531  138.3827  156.7562 N   0  0  0  0  0  0  0  0  0  0  0  0
  150.5960  138.0254  156.7206 C   0  0  0  0  0  0  0  0  0  0  0  0
  151.2905  136.8023  156.5001 C   0  0  0  0  0  0  0  0  0  0  0  0
  150.6524  135.6343  156.2330 N   0  0  0  0  0  0  0  0  0  0  0  0
  150.0337  135.5618  154.9151 C   0  0  0  0  0  0  0  0  0  0  0  0
  149.0662  134.3718  154.8576 C   0  0  0  0  0  0  0  0  0  0  0  0
  149.7493  133.1705  155.2121 O   0  0  0  0  0  0  0  0  0  0  0  0
  150.3394  133.1890  156.5158 C   0  0  1  0  0  0  0  0  0  0  0  0
  149.2700  133.1589  157.6150 C   0  0  0  0  0  0  0  0  0  0  0  0
  149.7466  132.0653  158.5610 C   0  0  0  0  0  0  0  0  0  0  0  0
  150.3147  131.1237  157.6708 O   0  0  0  0  0  0  0  0  0  0  0  0
  151.0839  131.8568  156.7286 C   0  0  0  0  0  0  0  0  0  0  0  0
  151.3088  134.3890  156.6236 C   0  0  0  0  0  0  0  0  0  0  0  0
  152.6490  136.8359  156.5650 N   0  0  0  0  0  0  0  0  0  0  0  0
  153.2859  137.9838  156.8132 C   0  0  0  0  0  0  0  0  0  0  0  0
  152.7693  139.1950  157.0274 N   0  0  0  0  0  0  0  0  0  0  0  0
  151.4069  139.1675  156.9767 C   0  0  0  0  0  0  0  0  0  0  0  0
  150.4372  144.4043  157.7876 H   0  0  0  0  0  0  0  0  0  0  0  0
  152.1490  144.2152  157.3892 H   0  0  0  0  0  0  0  0  0  0  0  0
  151.6472  145.3822  158.6030 H   0  0  0  0  0  0  0  0  0  0  0  0
  150.9126  143.5926  160.1244 H   0  0  0  0  0  0  0  0  0  0  0  0
  154.4042  142.0154  160.2821 H   0  0  0  0  0  0  0  0  0  0  0  0
  152.8943  141.8787  161.1991 H   0  0  0  0  0  0  0  0  0  0  0  0
  153.3430  141.2710  158.2517 H   0  0  0  0  0  0  0  0  0  0  0  0
  152.6672  140.1550  159.4363 H   0  0  0  0  0  0  0  0  0  0  0  0
  149.9303  141.9758  160.1831 H   0  0  0  0  0  0  0  0  0  0  0  0
  149.9240  142.1958  157.2732 H   0  0  0  0  0  0  0  0  0  0  0  0
  151.5571  141.9445  156.7064 H   0  0  0  0  0  0  0  0  0  0  0  0
  148.3635  140.2444  157.0937 H   0  0  0  0  0  0  0  0  0  0  0  0
  149.4960  136.4774  154.6710 H   0  0  0  0  0  0  0  0  0  0  0  0
  150.8151  135.4438  154.1632 H   0  0  0  0  0  0  0  0  0  0  0  0
  148.2123  134.5392  155.5150 H   0  0  0  0  0  0  0  0  0  0  0  0
  148.6678  134.2639  153.8489 H   0  0  0  0  0  0  0  0  0  0  0  0
  149.1293  134.1166  158.1174 H   0  0  0  0  0  0  0  0  0  0  0  0
  148.3076  132.8599  157.1974 H   0  0  0  0  0  0  0  0  0  0  0  0
  150.5109  132.4395  159.2444 H   0  0  0  0  0  0  0  0  0  0  0  0
  148.9372  131.6305  159.1475 H   0  0  0  0  0  0  0  0  0  0  0  0
  151.2150  131.2904  155.8061 H   0  0  0  0  0  0  0  0  0  0  0  0
  152.0744  132.0227  157.1555 H   0  0  0  0  0  0  0  0  0  0  0  0
  152.1674  134.2261  155.9703 H   0  0  0  0  0  0  0  0  0  0  0  0
  151.6903  134.4677  157.6430 H   0  0  0  0  0  0  0  0  0  0  0  0
  154.3637  137.9231  156.8432 H   0  0  0  0  0  0  0  0  0  0  0  0
  1  2  1  0  0  0  0
  1 28  1  0  0  0  0
  1 29  1  0  0  0  0
  1 30  1  0  0  0  0
  2  6  1  0  0  0  0
  2  3  1  0  0  0  0
  2 31  1  0  0  0  0
  3  4  1  0  0  0  0
  4  5  1  0  0  0  0
  4 32  1  0  0  0  0
  4 33  1  0  0  0  0
  5  6  1  0  0  0  0
  5 34  1  0  0  0  0
  5 35  1  0  0  0  0
  6  7  1  0  0  0  0
  6  8  1  0  0  0  0
  7 36  1  0  0  0  0
  8  9  1  0  0  0  0
  8 37  1  0  0  0  0
  8 38  1  0  0  0  0
  9 27  1  0  0  0  0
  9 10  1  0  0  0  0
 10 11  2  0  0  0  0
 10 39  1  0  0  0  0
 11 12  1  0  0  0  0
 12 27  2  0  0  0  0
 12 13  1  0  0  0  0
 13 14  1  0  0  0  0
 13 24  2  0  0  0  0
 14 23  1  0  0  0  0
 14 15  1  0  0  0  0
 15 16  1  0  0  0  0
 15 40  1  0  0  0  0
 15 41  1  0  0  0  0
 16 17  1  0  0  0  0
 16 42  1  0  0  0  0
 16 43  1  0  0  0  0
 17 18  1  0  0  0  0
 18 22  1  0  0  0  0
 18 19  1  0  0  0  0
 18 23  1  0  0  0  0
 19 20  1  0  0  0  0
 19 44  1  0  0  0  0
 19 45  1  0  0  0  0
 20 21  1  0  0  0  0
 20 46  1  0  0  0  0
 20 47  1  0  0  0  0
 21 22  1  0  0  0  0
 22 48  1  0  0  0  0
 22 49  1  0  0  0  0
 23 50  1  0  0  0  0
 23 51  1  0  0  0  0
 24 25  1  0  0  0  0
 25 26  2  0  0  0  0
 25 52  1  0  0  0  0
 26 27  1  0  0  0  0
M  END
> <s_m_source_file>
AV-unprocessed.smi

> <i_m_source_file_index>
264

> <i_lp_mmshare_version>
43012

> <i_f3d_flags>
0

> <s_epik_input>
W0NIMl0xW0NIMl1PW0NAQEhdKFtDSDNdKVtDQEBdMShbT0hdKVtDSDJdbihbY0hdbjIpYyhjMjMpbltjSF1uYzNOKFtDSDJdNClbQ0gyXVtDSDJdT1tDQF00NVtDSDJdW0NIMl1PW0NIMl01

> <s_epik_cmdline>
J2VwaWtfcHl0aG9uJywgJy1waCcsICc3LjAnLCAnLXRuJywgJzgnLCAnLW1hJywgJzIwMCcsICctbWV0YWxfYmluZGluZycsICctaW1hZScsICc8aW5maWxlLm1hZT4nLCAnLW9tYWUnLCAnPG91dGZpbGUubWFlPic=

> <r_lp_tautomer_probability>
1

> <r_epik_Ionization_Penalty>
0.00539389

> <r_epik_Ionization_Penalty_Charging>
0

> <r_epik_Ionization_Penalty_Neutral>
0.00539389

> <r_epik_State_Penalty>
0.00375441

> <r_epik_Charging_Adjusted_Penalty>
0.00375441

> <i_epik_Tot_Q>
0

> <i_epik_Tot_abs_Q>
0

> <r_epik_Metal_State_Penalty>
-0

> <b_epik_Metal_Only>
0

> <s_lp_Force_Field>
OPLS_2005

> <r_lp_Energy>
54.1721

> <b_lp_Chiralities_Consistent>
1

> <s_lp_Variant>
AV-unprocessed.smi:264-1

> <Gold.Version>
5.8.1

> <Gold.Id.Protein>
6NUR|6NUR_protein|mol2

> <Gold.PLP.Fitness>
39.1147

> <Gold.PLP.PLP>
-34.0776

> <Gold.PLP.part.hbond>
-3.0000

> <Gold.PLP.part.metal>
0.0000

> <Gold.PLP.part.buried>
-1.4612

> <Gold.PLP.part.nonpolar>
-29.6589

> <Gold.PLP.part.repulsive>
0.0851

> <Gold.PLP.ligand.clash>
0.0000

> <Gold.PLP.ligand.torsion>
0.6249

> <Gold.PLP.Chemscore.Hbond>
2.0000

> <Gold.PLP.Chemscore.CHOScore>
0.0000

> <Gold.PLP.Chemscore.Metal>
0.0000

> <Gold.Chemscore.Hbonds>
donor molecule, donor type, donor heavy atom, donor atom, acceptor molecule, acceptor atom, score
      P1  H  7997  8010       L1    26  0.65
      P1  H 10752 10765       L1    24  0.94

> <Gold.PLP.Chemscore.Internal.Correction>
0.2869

> <Gold.Rescore>
     Score         DG    S(hbond)    S(metal)    S(lipo)     H(rot)  DE(clash)    DE(int)     intcor
     15.15     -16.45       1.62        0.00      93.58       2.11       0.29       1.01       ----

> <Gold.Chemscore.Fitness>
15.1508

> <Gold.Chemscore.DG>
-16.4533

> <Gold.Chemscore.ZeroCoef>
-5.4800

> <Gold.Chemscore.Hbond>
1.6216

> <Gold.Chemscore.Metal>
0.0000

> <Gold.Chemscore.Lipo>
93.5829

> <Gold.Chemscore.Internal_Hbond>
0.0000

> <Gold.Chemscore.DEClash>
0.2887

> <Gold.Chemscore.DEInternal>
1.0137

> <Gold.Chemscore.Rot>
2.1063

> <Gold.Chemscore.Internal.Correction>
   9.000000E+99

> <Gold.Chemscore.Hbonds>
donor molecule, donor type, donor heavy atom, donor atom, acceptor molecule, acceptor atom, score
      P1  H  7997  8010       L1    26  0.06
      P1  H 10752 10765       L1    24  0.47

> <Gold.Chemscore.Hbond.Weighted>
-5.4162

> <Gold.Chemscore.Metal.Weighted>
-0.0000

> <Gold.Chemscore.Lipo.Weighted>
-10.9492

> <Gold.Chemscore.Internal_Hbond.Weighted>
0.0000

> <Gold.Chemscore.DEClash.Weighted>
0.2887

> <Gold.Chemscore.DEInternal.Weighted>
1.0137

> <Gold.Chemscore.Rot.Weighted>
5.3921

> <Gold.Chemscore.Internal.Correction.Weighted>
   9.000000E+99

> <Gold.Protein.RotatedTorsions>
[ 6907 6896 6895 6894 ] final   95.06 input  -60.11 | X-H torsion
[ 7974 7965 7964 7962 ] final -129.01 input  175.53 | X-H torsion
[ 8008 7997 7996 7995 ] final   47.28 input   59.86 | X-H torsion
[ 10167 10162 10161 10158 ] final   54.16 input  -65.29 | X-H torsion
[ 10718 10713 10712 10709 ] final  102.11 input   66.30 | X-H torsion
[ 10763 10752 10751 10750 ] final -136.65 input  -60.55 | X-H torsion
[ 11005 11000 10999 10996 ] final -161.76 input  -57.11 | X-H torsion

> <Gold.Protein.ActiveResidues>
 VAL166  LYS551  ARG553  GLY616  TRP617  ASP618  TYR619  PRO620  LYS621  CYS622 
 ASP623  PHE694  ASN695  SER759  ASP760  ASP761  ALA762  ILE779  LEU786  VAL792 
 PHE793  MET794  SER795  GLU796  ALA797  LYS798  CYS799  TRP800  GLU811  SER814 

> <Gold.Protein.RotatedAtoms>
  152.5446  134.1097  159.8352 H   0  0  0  0  0  0  0  0  0  0  0  0  # atno 6907 bound_to 6896
  151.1165  133.5127  159.2611 H   0  0  0  0  0  0  0  0  0  0  0  0  # atno 6908 bound_to 6896
  151.1826  135.0377  159.8853 H   0  0  0  0  0  0  0  0  0  0  0  0  # atno 6909 bound_to 6896
  144.9614  140.7451  143.4726 H   0  0  0  0  0  0  0  0  0  0  0  0  # atno 7974 bound_to 7965
  155.3664  140.3421  155.4242 H   0  0  0  0  0  0  0  0  0  0  0  0  # atno 8008 bound_to 7997
  156.1686  140.1624  156.8521 H   0  0  0  0  0  0  0  0  0  0  0  0  # atno 8009 bound_to 7997
  154.5210  140.0767  156.8154 H   0  0  0  0  0  0  0  0  0  0  0  0  # atno 8010 bound_to 7997
  140.2331  144.3665  150.6407 H   0  0  0  0  0  0  0  0  0  0  0  0  # atno 10167 bound_to 10162
  157.6811  131.0744  150.5354 H   0  0  0  0  0  0  0  0  0  0  0  0  # atno 10718 bound_to 10713
  154.8679  135.3666  154.5095 H   0  0  0  0  0  0  0  0  0  0  0  0  # atno 10763 bound_to 10752
  153.5731  135.7020  153.5501 H   0  0  0  0  0  0  0  0  0  0  0  0  # atno 10764 bound_to 10752
  153.3524  135.4068  155.1619 H   0  0  0  0  0  0  0  0  0  0  0  0  # atno 10765 bound_to 10752
  140.6168  134.4792  157.5220 H   0  0  0  0  0  0  0  0  0  0  0  0  # atno 11005 bound_to 11000
  145.2694  139.1960  143.4849 LP  0  0  0  0  0  0  0  0  0  0  0  0  # atno 17320 bound_to 7965
  146.3354  140.2638  142.8603 LP  0  0  0  0  0  0  0  0  0  0  0  0  # atno 17321 bound_to 7965
  140.6170  143.2173  151.6772 LP  0  0  0  0  0  0  0  0  0  0  0  0  # atno 17342 bound_to 10162
  139.5103  144.3548  152.0618 LP  0  0  0  0  0  0  0  0  0  0  0  0  # atno 17343 bound_to 10162
  156.5663  130.4268  149.6040 LP  0  0  0  0  0  0  0  0  0  0  0  0  # atno 17370 bound_to 10713
  156.2779  130.7054  151.1870 LP  0  0  0  0  0  0  0  0  0  0  0  0  # atno 17371 bound_to 10713
  139.9169  134.8227  156.1335 LP  0  0  0  0  0  0  0  0  0  0  0  0  # atno 17394 bound_to 11000
  141.0770  133.6771  156.2257 LP  0  0  0  0  0  0  0  0  0  0  0  0  # atno 17395 bound_to 11000

$$$$
