AV-unprocessed.smi:153|AV-procd|sdf|1254|dock6
  -GOLD-   2262018493D 1   1.00000     0.00000
 Structure written by MMmdl.
 60 63  0  0  0  0  0  0  0  0  2 V2000
  153.1803  141.5768  159.8880 C   0  0  0  0  0  0  0  0  0  0  0  0
  152.2007  141.6153  158.7092 C   0  0  2  0  0  0  0  0  0  0  0  0
  150.9452  142.0884  159.1804 O   0  0  0  0  0  0  0  0  0  0  0  0
  149.9683  141.7237  158.2253 C   0  0  0  0  0  0  0  0  0  0  0  0
  150.3526  140.2842  157.9197 C   0  0  0  0  0  0  0  0  0  0  0  0
  151.8840  140.2872  157.9557 C   0  0  1  0  0  0  0  0  0  0  0  0
  152.3335  140.4350  156.6207 O   0  0  0  0  0  0  0  0  0  0  0  0
  152.4071  138.9449  158.5502 C   0  0  0  0  0  0  0  0  0  0  0  0
  151.9320  137.7253  157.9059 N   0  0  0  0  0  0  0  0  0  0  0  0
  152.6251  136.9394  157.0150 C   0  0  0  0  0  0  0  0  0  0  0  0
  151.9904  135.8815  156.5941 N   0  0  0  0  0  0  0  0  0  0  0  0
  150.7752  135.9075  157.2708 C   0  0  0  0  0  0  0  0  0  0  0  0
  149.6252  135.0569  157.3091 C   0  0  0  0  0  0  0  0  0  0  0  0
  149.4607  133.9175  156.5754 N   0  0  0  0  0  0  0  0  0  0  0  0
  148.6696  132.8137  157.1073 C   0  0  0  0  0  0  0  0  0  0  0  0
  149.7476  133.9238  155.1385 C   0  0  0  0  0  0  0  0  0  0  0  0
  148.5143  133.5551  154.2885 C   0  0  1  0  0  0  0  0  0  0  0  0
  147.7713  134.7335  154.0451 O   0  0  0  0  0  0  0  0  0  0  0  0
  148.9229  132.9751  152.9196 C   0  0  0  0  0  0  0  0  0  0  0  0
  147.7803  132.3696  152.1881 N   0  3  0  0  0  0  0  0  0  0  0  0
  146.9654  131.4789  153.0483 C   0  0  0  0  0  0  0  0  0  0  0  0
  145.8368  130.8270  152.2320 C   0  0  0  0  0  0  0  0  0  0  0  0
  145.0361  131.8379  151.6324 O   0  0  0  0  0  0  0  0  0  0  0  0
  145.7865  132.6470  150.7356 C   0  0  0  0  0  0  0  0  0  0  0  0
  146.9136  133.3602  151.5021 C   0  0  0  0  0  0  0  0  0  0  0  0
  148.6237  135.4246  158.1530 N   0  0  0  0  0  0  0  0  0  0  0  0
  148.7238  136.5241  158.9030 C   0  0  0  0  0  0  0  0  0  0  0  0
  149.7263  137.3989  158.9658 N   0  0  0  0  0  0  0  0  0  0  0  0
  150.7373  137.0547  158.1185 C   0  0  0  0  0  0  0  0  0  0  0  0
  154.1884  141.3423  159.5507 H   0  0  0  0  0  0  0  0  0  0  0  0
  152.8803  140.8530  160.6454 H   0  0  0  0  0  0  0  0  0  0  0  0
  153.2291  142.5519  160.3730 H   0  0  0  0  0  0  0  0  0  0  0  0
  152.5615  142.3659  158.0024 H   0  0  0  0  0  0  0  0  0  0  0  0
  148.9577  141.8169  158.6232 H   0  0  0  0  0  0  0  0  0  0  0  0
  150.0563  142.3553  157.3398 H   0  0  0  0  0  0  0  0  0  0  0  0
  149.9585  139.6494  158.7148 H   0  0  0  0  0  0  0  0  0  0  0  0
  149.9316  139.9234  156.9800 H   0  0  0  0  0  0  0  0  0  0  0  0
  151.5830  140.5766  156.0639 H   0  0  0  0  0  0  0  0  0  0  0  0
  153.4973  138.9327  158.5636 H   0  0  0  0  0  0  0  0  0  0  0  0
  152.1053  138.8801  159.5967 H   0  0  0  0  0  0  0  0  0  0  0  0
  153.6244  137.1745  156.6795 H   0  0  0  0  0  0  0  0  0  0  0  0
  149.0284  132.5212  158.0946 H   0  0  0  0  0  0  0  0  0  0  0  0
  148.7379  131.9363  156.4640 H   0  0  0  0  0  0  0  0  0  0  0  0
  147.6176  133.0911  157.1799 H   0  0  0  0  0  0  0  0  0  0  0  0
  150.1963  134.8606  154.8050 H   0  0  0  0  0  0  0  0  0  0  0  0
  150.5236  133.1754  154.9749 H   0  0  0  0  0  0  0  0  0  0  0  0
  147.8950  132.8423  154.8319 H   0  0  0  0  0  0  0  0  0  0  0  0
  146.9195  134.4886  153.7147 H   0  0  0  0  0  0  0  0  0  0  0  0
  149.3580  133.7763  152.3193 H   0  0  0  0  0  0  0  0  0  0  0  0
  149.7067  132.2253  153.0388 H   0  0  0  0  0  0  0  0  0  0  0  0
  147.5966  130.7022  153.4822 H   0  0  0  0  0  0  0  0  0  0  0  0
  146.5460  132.0530  153.8763 H   0  0  0  0  0  0  0  0  0  0  0  0
  146.2420  130.1640  151.4657 H   0  0  0  0  0  0  0  0  0  0  0  0
  145.2083  130.2168  152.8810 H   0  0  0  0  0  0  0  0  0  0  0  0
  146.1905  132.0367  149.9260 H   0  0  0  0  0  0  0  0  0  0  0  0
  145.1207  133.3798  150.2795 H   0  0  0  0  0  0  0  0  0  0  0  0
  146.4873  134.0459  152.2361 H   0  0  0  0  0  0  0  0  0  0  0  0
  147.4936  133.9610  150.8030 H   0  0  0  0  0  0  0  0  0  0  0  0
  147.8789  136.7337  159.5424 H   0  0  0  0  0  0  0  0  0  0  0  0
  148.1836  131.7809  151.4726 H   0  0  0  0  0  0  0  0  0  0  0  0
  1  2  1  0  0  0  0
  1 30  1  0  0  0  0
  1 31  1  0  0  0  0
  1 32  1  0  0  0  0
  2  6  1  0  0  0  0
  2  3  1  0  0  0  0
  2 33  1  0  0  0  0
  3  4  1  0  0  0  0
  4  5  1  0  0  0  0
  4 34  1  0  0  0  0
  4 35  1  0  0  0  0
  5  6  1  0  0  0  0
  5 36  1  0  0  0  0
  5 37  1  0  0  0  0
  6  7  1  0  0  0  0
  6  8  1  0  0  0  0
  7 38  1  0  0  0  0
  8  9  1  0  0  0  0
  8 39  1  0  0  0  0
  8 40  1  0  0  0  0
  9 29  1  0  0  0  0
  9 10  1  0  0  0  0
 10 11  2  0  0  0  0
 10 41  1  0  0  0  0
 11 12  1  0  0  0  0
 12 29  2  0  0  0  0
 12 13  1  0  0  0  0
 13 14  1  0  0  0  0
 13 26  2  0  0  0  0
 14 15  1  0  0  0  0
 14 16  1  0  0  0  0
 15 42  1  0  0  0  0
 15 43  1  0  0  0  0
 15 44  1  0  0  0  0
 16 17  1  0  0  0  0
 16 45  1  0  0  0  0
 16 46  1  0  0  0  0
 17 18  1  0  0  0  0
 17 19  1  0  0  0  0
 17 47  1  0  0  0  0
 18 48  1  0  0  0  0
 19 20  1  0  0  0  0
 19 49  1  0  0  0  0
 19 50  1  0  0  0  0
 20 25  1  0  0  0  0
 20 21  1  0  0  0  0
 20 60  1  0  0  0  0
 21 22  1  0  0  0  0
 21 51  1  0  0  0  0
 21 52  1  0  0  0  0
 22 23  1  0  0  0  0
 22 53  1  0  0  0  0
 22 54  1  0  0  0  0
 23 24  1  0  0  0  0
 24 25  1  0  0  0  0
 24 55  1  0  0  0  0
 24 56  1  0  0  0  0
 25 57  1  0  0  0  0
 25 58  1  0  0  0  0
 26 27  1  0  0  0  0
 27 28  2  0  0  0  0
 27 59  1  0  0  0  0
 28 29  1  0  0  0  0
M  CHG  1  20   1
M  END
> <s_m_source_file>
AV-unprocessed.smi

> <i_m_source_file_index>
153

> <i_lp_mmshare_version>
43012

> <i_f3d_flags>
0

> <s_epik_input>
W0NIMl0xW0NIMl1PW0NAQEhdKFtDSDNdKVtDQEBdMShbT0hdKVtDSDJdbihbY0hdbjIpYyhjMjMpbltjSF1uYzNOKFtDSDNdKVtDSDJdW0NASF0oW09IXSlbQ0gyXU40W0NIMl1bQ0gyXU9bQ0gyXVtDSDJdNA==

> <s_epik_cmdline>
J2VwaWtfcHl0aG9uJywgJy1waCcsICc3LjAnLCAnLXRuJywgJzgnLCAnLW1hJywgJzIwMCcsICctbWV0YWxfYmluZGluZycsICctaW1hZScsICc8aW5maWxlLm1hZT4nLCAnLW9tYWUnLCAnPG91dGZpbGUubWFlPic=

> <r_lp_tautomer_probability>
1

> <r_epik_Ionization_Penalty>
0.403509

> <r_epik_Ionization_Penalty_Charging>
0.40072

> <r_epik_Ionization_Penalty_Neutral>
0.00278876

> <r_epik_State_Penalty>
0.400058

> <r_epik_Charging_Adjusted_Penalty>
0.800778

> <i_epik_Tot_Q>
1

> <i_epik_Tot_abs_Q>
1

> <r_epik_Metal_State_Penalty>
0.400321

> <b_epik_Metal_Only>
0

> <s_lp_Force_Field>
OPLS_2005

> <r_lp_Energy>
49.6176

> <b_lp_Chiralities_Consistent>
1

> <s_lp_Variant>
AV-unprocessed.smi:153-5

> <Gold.Version>
5.8.1

> <Gold.Id.Protein>
6NUR|6NUR_protein|mol2

> <Gold.PLP.Fitness>
43.9354

> <Gold.PLP.PLP>
-37.4396

> <Gold.PLP.part.hbond>
-4.5694

> <Gold.PLP.part.metal>
0.0000

> <Gold.PLP.part.buried>
-5.3314

> <Gold.PLP.part.nonpolar>
-27.8294

> <Gold.PLP.part.repulsive>
0.1415

> <Gold.PLP.ligand.clash>
0.0000

> <Gold.PLP.ligand.torsion>
1.5191

> <Gold.PLP.Chemscore.Hbond>
2.9600

> <Gold.PLP.Chemscore.CHOScore>
0.0000

> <Gold.PLP.Chemscore.Metal>
0.0000

> <Gold.Chemscore.Hbonds>
donor molecule, donor type, donor heavy atom, donor atom, acceptor molecule, acceptor atom, score
      L1  H    20    60       P1 10747  1.00
      P1  H  7997  8010       L1     7  0.95
      P1  H 10752 10763       L1    11  0.95

> <Gold.PLP.Chemscore.Internal.Correction>
0.6540

> <Gold.Rescore>
     Score         DG    S(hbond)    S(metal)    S(lipo)     H(rot)  DE(clash)    DE(int)     intcor
     11.54     -13.23       2.02        0.00      87.81       3.62       0.06       1.63       ----

> <Gold.Chemscore.Fitness>
11.5354

> <Gold.Chemscore.DG>
-13.2277

> <Gold.Chemscore.ZeroCoef>
-5.4800

> <Gold.Chemscore.Hbond>
2.0168

> <Gold.Chemscore.Metal>
0.0000

> <Gold.Chemscore.Lipo>
87.8108

> <Gold.Chemscore.Internal_Hbond>
0.0000

> <Gold.Chemscore.DEClash>
0.0589

> <Gold.Chemscore.DEInternal>
1.6334

> <Gold.Chemscore.Rot>
3.6182

> <Gold.Chemscore.Internal.Correction>
   9.000000E+99

> <Gold.Chemscore.Hbonds>
donor molecule, donor type, donor heavy atom, donor atom, acceptor molecule, acceptor atom, score
      L1  H    20    60       P1 10747  1.00
      P1  H  7997  8010       L1     7  0.70
      P1  H 10752 10763       L1    11  0.20

> <Gold.Chemscore.Hbond.Weighted>
-6.7363

> <Gold.Chemscore.Metal.Weighted>
-0.0000

> <Gold.Chemscore.Lipo.Weighted>
-10.2739

> <Gold.Chemscore.Internal_Hbond.Weighted>
0.0000

> <Gold.Chemscore.DEClash.Weighted>
0.0589

> <Gold.Chemscore.DEInternal.Weighted>
1.6334

> <Gold.Chemscore.Rot.Weighted>
9.2625

> <Gold.Chemscore.Internal.Correction.Weighted>
   9.000000E+99

> <Gold.Protein.RotatedTorsions>
[ 6907 6896 6895 6894 ] final  105.12 input  -60.11 | X-H torsion
[ 7974 7965 7964 7962 ] final  -95.70 input  175.53 | X-H torsion
[ 8008 7997 7996 7995 ] final   71.22 input   59.86 | X-H torsion
[ 10167 10162 10161 10158 ] final -114.43 input  -65.29 | X-H torsion
[ 10718 10713 10712 10709 ] final   53.61 input   66.30 | X-H torsion
[ 10763 10752 10751 10750 ] final   79.14 input  -60.55 | X-H torsion
[ 11005 11000 10999 10996 ] final  -29.23 input  -57.11 | X-H torsion

> <Gold.Protein.ActiveResidues>
 VAL166  LYS551  ARG553  GLY616  TRP617  ASP618  TYR619  PRO620  LYS621  CYS622 
 ASP623  PHE694  ASN695  SER759  ASP760  ASP761  ALA762  ILE779  LEU786  VAL792 
 PHE793  MET794  SER795  GLU796  ALA797  LYS798  CYS799  TRP800  GLU811  SER814 

> <Gold.Protein.RotatedAtoms>
  152.5241  133.9576  159.7701 H   0  0  0  0  0  0  0  0  0  0  0  0  # atno 6907 bound_to 6896
  150.9873  133.6177  159.2720 H   0  0  0  0  0  0  0  0  0  0  0  0  # atno 6908 bound_to 6896
  151.3332  135.0852  159.9399 H   0  0  0  0  0  0  0  0  0  0  0  0  # atno 6909 bound_to 6896
  145.3566  140.9485  143.2524 H   0  0  0  0  0  0  0  0  0  0  0  0  # atno 7974 bound_to 7965
  155.7506  140.3488  155.5148 H   0  0  0  0  0  0  0  0  0  0  0  0  # atno 8008 bound_to 7997
  155.9009  140.1034  157.1372 H   0  0  0  0  0  0  0  0  0  0  0  0  # atno 8009 bound_to 7997
  154.4044  140.1286  156.4421 H   0  0  0  0  0  0  0  0  0  0  0  0  # atno 8010 bound_to 7997
  140.1010  143.4612  152.1812 H   0  0  0  0  0  0  0  0  0  0  0  0  # atno 10167 bound_to 10162
  157.5182  130.8547  149.8523 H   0  0  0  0  0  0  0  0  0  0  0  0  # atno 10718 bound_to 10713
  153.0929  135.4851  154.8724 H   0  0  0  0  0  0  0  0  0  0  0  0  # atno 10763 bound_to 10752
  154.7291  135.3056  154.8924 H   0  0  0  0  0  0  0  0  0  0  0  0  # atno 10764 bound_to 10752
  153.9566  135.6817  153.4798 H   0  0  0  0  0  0  0  0  0  0  0  0  # atno 10765 bound_to 10752
  140.9278  133.7357  156.0892 H   0  0  0  0  0  0  0  0  0  0  0  0  # atno 11005 bound_to 11000
  144.8678  139.5082  143.6782 LP  0  0  0  0  0  0  0  0  0  0  0  0  # atno 17320 bound_to 7965
  146.2945  139.7238  142.9136 LP  0  0  0  0  0  0  0  0  0  0  0  0  # atno 17321 bound_to 7965
  139.5671  144.7441  151.3992 LP  0  0  0  0  0  0  0  0  0  0  0  0  # atno 17342 bound_to 10162
  140.6977  143.7708  150.7353 LP  0  0  0  0  0  0  0  0  0  0  0  0  # atno 17343 bound_to 10162
  156.0335  130.3758  150.1623 LP  0  0  0  0  0  0  0  0  0  0  0  0  # atno 17370 bound_to 10713
  156.9812  130.9864  151.3437 LP  0  0  0  0  0  0  0  0  0  0  0  0  # atno 17371 bound_to 10713
  140.7903  134.3625  157.5466 LP  0  0  0  0  0  0  0  0  0  0  0  0  # atno 17394 bound_to 11000
  139.8789  134.9136  156.3087 LP  0  0  0  0  0  0  0  0  0  0  0  0  # atno 17395 bound_to 11000

$$$$
