AV-unprocessed.smi:3298|AV-procd|sdf|12640|dock9
  -GOLD-   2272018573D 1   1.00000     0.00000
 Structure written by MMmdl.
 35 36  0  0  0  0  0  0  0  0  1 V2000
  152.4906  139.2730  155.6202 C   0  0  0  0  0  0  0  0  0  0  0  0
  151.1069  139.6503  155.1338 C   0  0  0  0  0  0  0  0  0  0  0  0
  150.3104  138.7204  154.4334 C   0  0  0  0  0  0  0  0  0  0  0  0
  149.0300  139.1156  153.9936 C   0  0  0  0  0  0  0  0  0  0  0  0
  148.2449  138.1539  153.3015 N   0  0  0  0  0  0  0  0  0  0  0  0
  146.9106  138.1111  153.1425 C   0  0  0  0  0  0  0  0  0  0  0  0
  146.1108  138.9391  153.5783 O   0  0  0  0  0  0  0  0  0  0  0  0
  146.5443  137.0452  152.4166 N   0  0  0  0  0  0  0  0  0  0  0  0
  145.1715  136.7232  152.0436 C   0  0  2  0  0  0  0  0  0  0  0  0
  144.4979  135.9415  153.1378 C   0  0  0  0  0  0  0  0  0  0  0  0
  144.0055  134.7807  152.7122 C   0  0  0  0  0  0  0  0  0  0  0  0
  144.2544  134.5420  151.2446 C   0  0  2  0  0  0  0  0  0  0  0  0
  144.9660  133.2064  150.9673 C   0  0  0  0  0  0  0  0  0  0  0  0
  145.1206  133.0041  149.5782 O   0  0  0  0  0  0  0  0  0  0  0  0
  145.0881  135.7768  150.8166 C   0  0  0  0  0  0  0  0  0  0  0  0
  148.5955  140.4274  154.3009 C   0  0  0  0  0  0  0  0  0  0  0  0
  149.4684  141.2778  155.0085 C   0  0  0  0  0  0  0  0  0  0  0  0
  150.6998  140.9061  155.4178 N   0  0  0  0  0  0  0  0  0  0  0  0
  144.6003  137.6372  151.8720 H   0  0  0  0  0  0  0  0  0  0  0  0
  143.2907  134.5588  150.7336 H   0  0  0  0  0  0  0  0  0  0  0  0
  152.8753  138.4106  155.0753 H   0  0  0  0  0  0  0  0  0  0  0  0
  152.4612  139.0232  156.6809 H   0  0  0  0  0  0  0  0  0  0  0  0
  153.1887  140.0990  155.4801 H   0  0  0  0  0  0  0  0  0  0  0  0
  150.6782  137.7244  154.2333 H   0  0  0  0  0  0  0  0  0  0  0  0
  148.7692  137.4389  152.8189 H   0  0  0  0  0  0  0  0  0  0  0  0
  147.2642  136.4163  152.0923 H   0  0  0  0  0  0  0  0  0  0  0  0
  144.4217  136.3139  154.1490 H   0  0  0  0  0  0  0  0  0  0  0  0
  143.4718  134.0709  153.3270 H   0  0  0  0  0  0  0  0  0  0  0  0
  145.9540  133.2019  151.4286 H   0  0  0  0  0  0  0  0  0  0  0  0
  144.4068  132.3717  151.3917 H   0  0  0  0  0  0  0  0  0  0  0  0
  145.5419  133.7649  149.2081 H   0  0  0  0  0  0  0  0  0  0  0  0
  144.6258  136.2834  149.9685 H   0  0  0  0  0  0  0  0  0  0  0  0
  146.0837  135.4718  150.4899 H   0  0  0  0  0  0  0  0  0  0  0  0
  147.6190  140.7928  154.0242 H   0  0  0  0  0  0  0  0  0  0  0  0
  149.1656  142.2838  155.2581 H   0  0  0  0  0  0  0  0  0  0  0  0
  1  2  1  0  0  0  0
  1 21  1  0  0  0  0
  1 22  1  0  0  0  0
  1 23  1  0  0  0  0
  2 18  1  0  0  0  0
  2  3  2  0  0  0  0
  3  4  1  0  0  0  0
  3 24  1  0  0  0  0
  4  5  1  0  0  0  0
  4 16  2  0  0  0  0
  5  6  1  0  0  0  0
  5 25  1  0  0  0  0
  6  7  2  0  0  0  0
  6  8  1  0  0  0  0
  8  9  1  0  0  0  0
  8 26  1  0  0  0  0
  9 19  1  0  0  0  0
  9 15  1  0  0  0  0
  9 10  1  0  0  0  0
 10 11  2  0  0  0  0
 10 27  1  0  0  0  0
 11 12  1  0  0  0  0
 11 28  1  0  0  0  0
 12 20  1  0  0  0  0
 12 13  1  0  0  0  0
 12 15  1  0  0  0  0
 13 14  1  0  0  0  0
 13 29  1  0  0  0  0
 13 30  1  0  0  0  0
 14 31  1  0  0  0  0
 15 32  1  0  0  0  0
 15 33  1  0  0  0  0
 16 17  1  0  0  0  0
 16 34  1  0  0  0  0
 17 18  2  0  0  0  0
 17 35  1  0  0  0  0
M  END
> <s_m_source_file>
AV-unprocessed.smi

> <i_m_source_file_index>
3298

> <i_lp_mmshare_version>
43012

> <i_f3d_flags>
0

> <s_epik_input>
W0NIM11jMVtjSF1jKFtjSF1bY0hdbjEpW05IXUMoPU8pW05IXVtDQEBIXTJbQ0hdPVtDSF1bQ0BASF0oW0NIMl0yKVtDSDJdW09IXQ==

> <s_epik_cmdline>
J2VwaWtfcHl0aG9uJywgJy1waCcsICc3LjAnLCAnLXRuJywgJzgnLCAnLW1hJywgJzIwMCcsICctbWV0YWxfYmluZGluZycsICctaW1hZScsICc8aW5maWxlLm1hZT4nLCAnLW9tYWUnLCAnPG91dGZpbGUubWFlPic=

> <r_epik_Ionization_Penalty>
0.379275

> <r_epik_Ionization_Penalty_Charging>
0

> <r_epik_Ionization_Penalty_Neutral>
0.379275

> <r_epik_State_Penalty>
0.377195

> <r_epik_Charging_Adjusted_Penalty>
0.377195

> <i_epik_Tot_Q>
0

> <i_epik_Tot_abs_Q>
0

> <r_epik_Metal_State_Penalty>
0.22815

> <b_epik_Metal_Only>
0

> <s_lp_Force_Field>
OPLS_2005

> <r_lp_Energy>
20.8901

> <b_lp_Chiralities_Consistent>
1

> <s_lp_Variant>
AV-unprocessed.smi:3298-1

> <Gold.Version>
5.8.1

> <Gold.Id.Protein>
6NUR|6NUR_protein|mol2

> <Gold.PLP.Fitness>
42.1885

> <Gold.PLP.PLP>
-31.3121

> <Gold.PLP.part.hbond>
-4.4668

> <Gold.PLP.part.metal>
0.0000

> <Gold.PLP.part.buried>
0.3388

> <Gold.PLP.part.nonpolar>
-27.8980

> <Gold.PLP.part.repulsive>
0.6327

> <Gold.PLP.ligand.clash>
0.0000

> <Gold.PLP.ligand.torsion>
0.4369

> <Gold.PLP.Chemscore.Hbond>
2.9120

> <Gold.PLP.Chemscore.CHOScore>
1.0000

> <Gold.PLP.Chemscore.Metal>
0.0000

> <Gold.Chemscore.Hbonds>
donor molecule, donor type, donor heavy atom, donor atom, acceptor molecule, acceptor atom, score
      L1  H     5    25       P1  7948  1.00
      L1  H     8    26       P1  7948  0.91
      L1  H    14    31       P1  7921  1.00
      L1  C    17    35       P1  8028  1.00

> <Gold.PLP.Chemscore.Internal.Correction>
0.0142

> <Gold.Rescore>
     Score         DG    S(hbond)    S(metal)    S(lipo)     H(rot)  DE(clash)    DE(int)     intcor
     16.10     -18.12       2.56        0.00      73.76       1.78       0.46       1.55       ----

> <Gold.Chemscore.Fitness>
16.1041

> <Gold.Chemscore.DG>
-18.1166

> <Gold.Chemscore.ZeroCoef>
-5.4800

> <Gold.Chemscore.Hbond>
2.5635

> <Gold.Chemscore.Metal>
0.0000

> <Gold.Chemscore.Lipo>
73.7649

> <Gold.Chemscore.Internal_Hbond>
0.0000

> <Gold.Chemscore.DEClash>
0.4596

> <Gold.Chemscore.DEInternal>
1.5529

> <Gold.Chemscore.Rot>
1.7796

> <Gold.Chemscore.Internal.Correction>
   9.000000E+99

> <Gold.Chemscore.Hbonds>
donor molecule, donor type, donor heavy atom, donor atom, acceptor molecule, acceptor atom, score
      L1  H     5    25       P1  7948  0.92
      L1  H     8    26       P1  7948  0.88
      L1  H    14    31       P1  7921  0.46

> <Gold.Chemscore.Hbond.Weighted>
-8.5620

> <Gold.Chemscore.Metal.Weighted>
-0.0000

> <Gold.Chemscore.Lipo.Weighted>
-8.6305

> <Gold.Chemscore.Internal_Hbond.Weighted>
0.0000

> <Gold.Chemscore.DEClash.Weighted>
0.4596

> <Gold.Chemscore.DEInternal.Weighted>
1.5529

> <Gold.Chemscore.Rot.Weighted>
4.5558

> <Gold.Chemscore.Internal.Correction.Weighted>
   9.000000E+99

> <Gold.Protein.RotatedTorsions>
[ 6907 6896 6895 6894 ] final -160.44 input  -60.11 | X-H torsion
[ 7974 7965 7964 7962 ] final  114.53 input  175.53 | X-H torsion
[ 8008 7997 7996 7995 ] final   76.88 input   59.86 | X-H torsion
[ 10167 10162 10161 10158 ] final  145.38 input  -65.29 | X-H torsion
[ 10718 10713 10712 10709 ] final  -45.60 input   66.30 | X-H torsion
[ 10763 10752 10751 10750 ] final  157.18 input  -60.55 | X-H torsion
[ 11005 11000 10999 10996 ] final   83.71 input  -57.11 | X-H torsion

> <Gold.Protein.ActiveResidues>
 VAL166  LYS551  ARG553  GLY616  TRP617  ASP618  TYR619  PRO620  LYS621  CYS622 
 ASP623  PHE694  ASN695  SER759  ASP760  ASP761  ALA762  ILE779  LEU786  VAL792 
 PHE793  MET794  SER795  GLU796  ALA797  LYS798  CYS799  TRP800  GLU811  SER814 

> <Gold.Protein.RotatedAtoms>
  151.3491  133.3932  159.2678 H   0  0  0  0  0  0  0  0  0  0  0  0  # atno 6907 bound_to 6896
  150.9815  134.9170  159.7857 H   0  0  0  0  0  0  0  0  0  0  0  0  # atno 6908 bound_to 6896
  152.5218  134.3455  159.9285 H   0  0  0  0  0  0  0  0  0  0  0  0  # atno 6909 bound_to 6896
  145.2033  139.2942  143.4307 H   0  0  0  0  0  0  0  0  0  0  0  0  # atno 7974 bound_to 7965
  155.8337  140.3465  155.5588 H   0  0  0  0  0  0  0  0  0  0  0  0  # atno 8008 bound_to 7997
  155.8215  140.0913  157.1866 H   0  0  0  0  0  0  0  0  0  0  0  0  # atno 8009 bound_to 7997
  154.4004  140.1429  156.3493 H   0  0  0  0  0  0  0  0  0  0  0  0  # atno 8010 bound_to 7997
  139.4927  144.5906  151.6689 H   0  0  0  0  0  0  0  0  0  0  0  0  # atno 10167 bound_to 10162
  156.2267  130.4170  149.8925 H   0  0  0  0  0  0  0  0  0  0  0  0  # atno 10718 bound_to 10713
  154.1961  135.2792  155.3006 H   0  0  0  0  0  0  0  0  0  0  0  0  # atno 10763 bound_to 10752
  154.5891  135.5565  153.7264 H   0  0  0  0  0  0  0  0  0  0  0  0  # atno 10764 bound_to 10752
  153.0100  135.6364  154.2099 H   0  0  0  0  0  0  0  0  0  0  0  0  # atno 10765 bound_to 10752
  139.9022  134.8164  156.2346 H   0  0  0  0  0  0  0  0  0  0  0  0  # atno 11005 bound_to 11000
  146.3413  140.2284  142.8593 LP  0  0  0  0  0  0  0  0  0  0  0  0  # atno 17320 bound_to 7965
  144.9927  140.8561  143.5329 LP  0  0  0  0  0  0  0  0  0  0  0  0  # atno 17321 bound_to 7965
  140.5532  144.0391  150.6136 LP  0  0  0  0  0  0  0  0  0  0  0  0  # atno 17342 bound_to 10162
  140.3452  143.2995  152.0545 LP  0  0  0  0  0  0  0  0  0  0  0  0  # atno 17343 bound_to 10162
  156.6553  130.8760  151.3538 LP  0  0  0  0  0  0  0  0  0  0  0  0  # atno 17370 bound_to 10713
  157.7114  130.9445  150.1102 LP  0  0  0  0  0  0  0  0  0  0  0  0  # atno 17371 bound_to 10713
  141.0324  133.6981  156.1453 LP  0  0  0  0  0  0  0  0  0  0  0  0  # atno 17394 bound_to 11000
  140.7077  134.4495  157.5583 LP  0  0  0  0  0  0  0  0  0  0  0  0  # atno 17395 bound_to 11000

$$$$
