AV-unprocessed.smi:2649|AV-procd|sdf|10289|dock1
  -GOLD-   2272014303D 1   1.00000     0.00000
 Structure written by MMmdl.
 34 35  0  0  0  0  0  0  0  0  1 V2000
  152.3378  145.0387  158.7378 C   0  0  0  0  0  0  0  0  0  0  0  0
  151.0300  145.0803  159.9938 S   0  0  0  0  0  0  0  0  0  0  0  0
  151.9056  144.3945  161.4326 C   0  0  0  0  0  0  0  0  0  0  0  0
  152.4298  142.9980  161.1374 C   0  0  0  0  0  0  0  0  0  0  0  0
  152.1915  142.5424  159.8874 N   0  0  0  0  0  0  0  0  0  0  0  0
  152.6120  141.3038  159.5328 C   0  0  0  0  0  0  0  0  0  0  0  0
  152.4047  140.7424  158.2451 N   0  0  0  0  0  0  0  0  0  0  0  0
  152.3803  139.4418  157.8947 C   0  0  0  0  0  0  0  0  0  0  0  0
  152.5441  138.5084  158.6818 O   0  0  0  0  0  0  0  0  0  0  0  0
  152.1055  139.1582  156.4102 C   0  0  2  0  0  0  0  0  0  0  0  0
  151.2319  140.2423  155.7369 C   0  0  0  0  0  0  0  0  0  0  0  0
  151.0024  139.8842  154.3802 O   0  0  0  0  0  0  0  0  0  0  0  0
  150.3354  138.6337  154.2800 C   0  0  0  0  0  0  0  0  0  0  0  0
  151.2036  137.5504  154.9406 C   0  0  0  0  0  0  0  0  0  0  0  0
  151.4353  137.9047  156.2978 O   0  0  0  0  0  0  0  0  0  0  0  0
  153.3044  140.4779  160.4450 C   0  0  0  0  0  0  0  0  0  0  0  0
  153.5620  140.9494  161.7463 C   0  0  0  0  0  0  0  0  0  0  0  0
  153.1193  142.2350  162.1071 C   0  0  0  0  0  0  0  0  0  0  0  0
  153.4285  142.8350  163.6982 Cl  0  0  0  0  0  0  0  0  0  0  0  0
  151.9884  145.5108  157.8196 H   0  0  0  0  0  0  0  0  0  0  0  0
  152.6199  144.0119  158.5064 H   0  0  0  0  0  0  0  0  0  0  0  0
  153.2207  145.5737  159.0878 H   0  0  0  0  0  0  0  0  0  0  0  0
  152.7245  145.0623  161.7038 H   0  0  0  0  0  0  0  0  0  0  0  0
  151.2293  144.3648  162.2869 H   0  0  0  0  0  0  0  0  0  0  0  0
  152.2652  141.4057  157.4967 H   0  0  0  0  0  0  0  0  0  0  0  0
  153.0704  139.0973  155.9035 H   0  0  0  0  0  0  0  0  0  0  0  0
  150.2795  140.3640  156.2565 H   0  0  0  0  0  0  0  0  0  0  0  0
  151.7347  141.2099  155.7545 H   0  0  0  0  0  0  0  0  0  0  0  0
  149.3539  138.6900  154.7535 H   0  0  0  0  0  0  0  0  0  0  0  0
  150.1724  138.4000  153.2279 H   0  0  0  0  0  0  0  0  0  0  0  0
  150.6977  136.5855  154.9055 H   0  0  0  0  0  0  0  0  0  0  0  0
  152.1520  137.4360  154.4133 H   0  0  0  0  0  0  0  0  0  0  0  0
  153.6379  139.4920  160.1550 H   0  0  0  0  0  0  0  0  0  0  0  0
  154.0922  140.3315  162.4561 H   0  0  0  0  0  0  0  0  0  0  0  0
  1  2  1  0  0  0  0
  1 20  1  0  0  0  0
  1 21  1  0  0  0  0
  1 22  1  0  0  0  0
  2  3  1  0  0  0  0
  3  4  1  0  0  0  0
  3 23  1  0  0  0  0
  3 24  1  0  0  0  0
  4 18  1  0  0  0  0
  4  5  2  0  0  0  0
  5  6  1  0  0  0  0
  6  7  1  0  0  0  0
  6 16  2  0  0  0  0
  7  8  1  0  0  0  0
  7 25  1  0  0  0  0
  8  9  2  0  0  0  0
  8 10  1  0  0  0  0
 10 15  1  0  0  0  0
 10 11  1  0  0  0  0
 10 26  1  0  0  0  0
 11 12  1  0  0  0  0
 11 27  1  0  0  0  0
 11 28  1  0  0  0  0
 12 13  1  0  0  0  0
 13 14  1  0  0  0  0
 13 29  1  0  0  0  0
 13 30  1  0  0  0  0
 14 15  1  0  0  0  0
 14 31  1  0  0  0  0
 14 32  1  0  0  0  0
 16 17  1  0  0  0  0
 16 33  1  0  0  0  0
 17 18  2  0  0  0  0
 17 34  1  0  0  0  0
 18 19  1  0  0  0  0
M  END
> <s_m_source_file>
AV-unprocessed.smi

> <i_m_source_file_index>
2649

> <i_lp_mmshare_version>
43012

> <i_f3d_flags>
0

> <s_epik_input>
W0NIM11TW0NIMl1jMW5jKFtjSF1bY0hdYzFDbClbTkhdQyg9TylbQ0BASF0yW0NIMl1PW0NIMl1bQ0gyXU8y

> <s_epik_cmdline>
J2VwaWtfcHl0aG9uJywgJy1waCcsICc3LjAnLCAnLXRuJywgJzgnLCAnLW1hJywgJzIwMCcsICctbWV0YWxfYmluZGluZycsICctaW1hZScsICc8aW5maWxlLm1hZT4nLCAnLW9tYWUnLCAnPG91dGZpbGUubWFlPic=

> <r_lp_tautomer_probability>
1

> <r_epik_Ionization_Penalty>
9.71596e-06

> <r_epik_Ionization_Penalty_Charging>
0

> <r_epik_Ionization_Penalty_Neutral>
9.71596e-06

> <r_epik_State_Penalty>
-0

> <r_epik_Charging_Adjusted_Penalty>
0

> <i_epik_Tot_Q>
0

> <i_epik_Tot_abs_Q>
0

> <r_epik_Metal_State_Penalty>
-0

> <b_epik_Metal_Only>
0

> <s_lp_Force_Field>
OPLS_2005

> <r_lp_Energy>
11.5794

> <b_lp_Chiralities_Consistent>
1

> <s_lp_Variant>
AV-unprocessed.smi:2649-1

> <Gold.Version>
5.8.1

> <Gold.Id.Protein>
6NUR|6NUR_protein|mol2

> <Gold.PLP.Fitness>
47.3946

> <Gold.PLP.PLP>
-46.1281

> <Gold.PLP.part.hbond>
-1.0000

> <Gold.PLP.part.metal>
0.0000

> <Gold.PLP.part.buried>
-5.0017

> <Gold.PLP.part.nonpolar>
-40.0473

> <Gold.PLP.part.repulsive>
0.2064

> <Gold.PLP.ligand.clash>
0.0000

> <Gold.PLP.ligand.torsion>
0.8683

> <Gold.PLP.Chemscore.Hbond>
1.0000

> <Gold.PLP.Chemscore.CHOScore>
0.0000

> <Gold.PLP.Chemscore.Metal>
0.0000

> <Gold.Chemscore.Hbonds>
donor molecule, donor type, donor heavy atom, donor atom, acceptor molecule, acceptor atom, score
      P1  H  7989  7998       L1    12  0.83

> <Gold.PLP.Chemscore.Internal.Correction>
0.0031

> <Gold.Rescore>
     Score         DG    S(hbond)    S(metal)    S(lipo)     H(rot)  DE(clash)    DE(int)     intcor
     14.89     -18.65       0.86        0.00     117.25       1.34       0.06       3.70       ----

> <Gold.Chemscore.Fitness>
14.8881

> <Gold.Chemscore.DG>
-18.6477

> <Gold.Chemscore.ZeroCoef>
-5.4800

> <Gold.Chemscore.Hbond>
0.8629

> <Gold.Chemscore.Metal>
0.0000

> <Gold.Chemscore.Lipo>
117.2524

> <Gold.Chemscore.Internal_Hbond>
0.0000

> <Gold.Chemscore.DEClash>
0.0589

> <Gold.Chemscore.DEInternal>
3.7007

> <Gold.Chemscore.Rot>
1.3410

> <Gold.Chemscore.Internal.Correction>
   9.000000E+99

> <Gold.Chemscore.Hbonds>
donor molecule, donor type, donor heavy atom, donor atom, acceptor molecule, acceptor atom, score
      P1  H  7989  7998       L1    12  0.61

> <Gold.Chemscore.Hbond.Weighted>
-2.8822

> <Gold.Chemscore.Metal.Weighted>
-0.0000

> <Gold.Chemscore.Lipo.Weighted>
-13.7185

> <Gold.Chemscore.Internal_Hbond.Weighted>
0.0000

> <Gold.Chemscore.DEClash.Weighted>
0.0589

> <Gold.Chemscore.DEInternal.Weighted>
3.7007

> <Gold.Chemscore.Rot.Weighted>
3.4331

> <Gold.Chemscore.Internal.Correction.Weighted>
   9.000000E+99

> <Gold.Protein.RotatedTorsions>
[ 6907 6896 6895 6894 ] final -155.20 input  -60.11 | X-H torsion
[ 7974 7965 7964 7962 ] final  -50.07 input  175.53 | X-H torsion
[ 8008 7997 7996 7995 ] final  -36.46 input   59.86 | X-H torsion
[ 10167 10162 10161 10158 ] final   -9.53 input  -65.29 | X-H torsion
[ 10718 10713 10712 10709 ] final  -23.84 input   66.30 | X-H torsion
[ 10763 10752 10751 10750 ] final -179.07 input  -60.55 | X-H torsion
[ 11005 11000 10999 10996 ] final -116.96 input  -57.11 | X-H torsion

> <Gold.Protein.ActiveResidues>
 VAL166  LYS551  ARG553  GLY616  TRP617  ASP618  TYR619  PRO620  LYS621  CYS622 
 ASP623  PHE694  ASN695  SER759  ASP760  ASP761  ALA762  ILE779  LEU786  VAL792 
 PHE793  MET794  SER795  GLU796  ALA797  LYS798  CYS799  TRP800  GLU811  SER814 

> <Gold.Protein.RotatedAtoms>
  151.2689  133.4265  159.2619 H   0  0  0  0  0  0  0  0  0  0  0  0  # atno 6907 bound_to 6896
  151.0463  134.9642  159.8198 H   0  0  0  0  0  0  0  0  0  0  0  0  # atno 6908 bound_to 6896
  152.5374  134.2645  159.9000 H   0  0  0  0  0  0  0  0  0  0  0  0  # atno 6909 bound_to 6896
  145.9338  140.7725  142.9586 H   0  0  0  0  0  0  0  0  0  0  0  0  # atno 7974 bound_to 7965
  154.4072  140.1630  156.2378 H   0  0  0  0  0  0  0  0  0  0  0  0  # atno 8008 bound_to 7997
  155.9227  140.3420  155.6163 H   0  0  0  0  0  0  0  0  0  0  0  0  # atno 8009 bound_to 7997
  155.7202  140.0767  157.2324 H   0  0  0  0  0  0  0  0  0  0  0  0  # atno 8010 bound_to 7997
  140.7090  143.5847  150.8955 H   0  0  0  0  0  0  0  0  0  0  0  0  # atno 10167 bound_to 10162
  156.4856  130.4555  149.6785 H   0  0  0  0  0  0  0  0  0  0  0  0  # atno 10718 bound_to 10713
  154.5397  135.2805  155.1107 H   0  0  0  0  0  0  0  0  0  0  0  0  # atno 10763 bound_to 10752
  154.2594  135.6324  153.5273 H   0  0  0  0  0  0  0  0  0  0  0  0  # atno 10764 bound_to 10752
  152.9976  135.5602  154.5933 H   0  0  0  0  0  0  0  0  0  0  0  0  # atno 10765 bound_to 10752
  141.0387  133.9869  157.3029 H   0  0  0  0  0  0  0  0  0  0  0  0  # atno 11005 bound_to 11000
  144.6768  140.2170  143.7371 LP  0  0  0  0  0  0  0  0  0  0  0  0  # atno 17320 bound_to 7965
  145.8391  139.2121  143.1838 LP  0  0  0  0  0  0  0  0  0  0  0  0  # atno 17321 bound_to 7965
  139.9573  143.6203  152.3012 LP  0  0  0  0  0  0  0  0  0  0  0  0  # atno 17342 bound_to 10162
  139.6743  144.7659  151.1724 LP  0  0  0  0  0  0  0  0  0  0  0  0  # atno 17343 bound_to 10162
  156.3477  130.7415  151.2370 LP  0  0  0  0  0  0  0  0  0  0  0  0  # atno 17370 bound_to 10713
  157.7479  131.0386  150.4509 LP  0  0  0  0  0  0  0  0  0  0  0  0  # atno 17371 bound_to 10713
  139.9260  135.0201  156.8234 LP  0  0  0  0  0  0  0  0  0  0  0  0  # atno 17394 bound_to 11000
  140.6274  133.9937  155.7646 LP  0  0  0  0  0  0  0  0  0  0  0  0  # atno 17395 bound_to 11000

$$$$
