AV-unprocessed.smi:3292|AV-procd|sdf|12628|dock1
  -GOLD-   2272018563D 1   1.00000     0.00000
 Structure written by MMmdl.
 38 39  0  0  0  0  0  0  0  0  1 V2000
  144.2936  136.3291  152.0901 C   0  0  0  0  0  0  0  0  0  0  0  0
  145.5751  135.4996  152.2738 C   0  0  1  0  0  0  0  0  0  0  0  0
  146.0182  134.7711  150.9864 C   0  0  0  0  0  0  0  0  0  0  0  0
  145.2963  133.5326  150.7661 N   0  0  0  0  0  0  0  0  0  0  0  0
  143.9380  133.3910  150.5152 C   0  0  0  0  0  0  0  0  0  0  0  0
  143.7023  132.0417  150.3774 C   0  0  0  0  0  0  0  0  0  0  0  0
  144.8934  131.3386  150.5426 N   0  0  0  0  0  0  0  0  0  0  0  0
  145.7920  132.2875  150.7723 C   0  0  0  0  0  0  0  0  0  0  0  0
  146.6470  136.3697  152.7496 N   0  0  0  0  0  0  0  0  0  0  0  0
  146.6819  136.9645  153.9507 C   0  0  0  0  0  0  0  0  0  0  0  0
  145.7958  136.8580  154.7986 O   0  0  0  0  0  0  0  0  0  0  0  0
  147.8037  137.6786  154.1201 N   0  0  0  0  0  0  0  0  0  0  0  0
  148.1549  138.4272  155.3231 C   0  0  0  0  0  0  0  0  0  0  0  0
  149.1855  139.5345  155.0314 C   0  0  1  0  0  0  0  0  0  0  0  0
  149.5118  140.3980  156.2327 C   0  0  0  0  0  0  0  0  0  0  0  0
  150.8199  141.0561  155.8039 C   0  0  0  0  0  0  0  0  0  0  0  0
  151.4676  140.1174  154.9500 O   0  0  0  0  0  0  0  0  0  0  0  0
  150.5826  139.0443  154.6446 C   0  0  0  0  0  0  0  0  0  0  0  0
  143.4444  135.6993  151.8237 H   0  0  0  0  0  0  0  0  0  0  0  0
  144.4139  137.0764  151.3052 H   0  0  0  0  0  0  0  0  0  0  0  0
  144.0303  136.8517  153.0103 H   0  0  0  0  0  0  0  0  0  0  0  0
  145.3690  134.7521  153.0423 H   0  0  0  0  0  0  0  0  0  0  0  0
  145.8763  135.4156  150.1174 H   0  0  0  0  0  0  0  0  0  0  0  0
  147.0823  134.5350  151.0279 H   0  0  0  0  0  0  0  0  0  0  0  0
  143.2711  134.2388  150.4558 H   0  0  0  0  0  0  0  0  0  0  0  0
  142.7745  131.5272  150.1756 H   0  0  0  0  0  0  0  0  0  0  0  0
  146.8362  132.0715  150.9448 H   0  0  0  0  0  0  0  0  0  0  0  0
  147.4231  136.5195  152.1215 H   0  0  0  0  0  0  0  0  0  0  0  0
  148.4702  137.7015  153.3622 H   0  0  0  0  0  0  0  0  0  0  0  0
  147.2401  138.8771  155.7095 H   0  0  0  0  0  0  0  0  0  0  0  0
  148.5176  137.7575  156.1050 H   0  0  0  0  0  0  0  0  0  0  0  0
  148.8082  140.1805  154.2368 H   0  0  0  0  0  0  0  0  0  0  0  0
  148.7305  141.1214  156.4673 H   0  0  0  0  0  0  0  0  0  0  0  0
  149.6786  139.7769  157.1143 H   0  0  0  0  0  0  0  0  0  0  0  0
  150.6196  141.9626  155.2314 H   0  0  0  0  0  0  0  0  0  0  0  0
  151.4489  141.3237  156.6532 H   0  0  0  0  0  0  0  0  0  0  0  0
  150.8706  138.1820  155.2476 H   0  0  0  0  0  0  0  0  0  0  0  0
  150.6518  138.7601  153.5942 H   0  0  0  0  0  0  0  0  0  0  0  0
  1  2  1  0  0  0  0
  1 19  1  0  0  0  0
  1 20  1  0  0  0  0
  1 21  1  0  0  0  0
  2  3  1  0  0  0  0
  2  9  1  0  0  0  0
  2 22  1  0  0  0  0
  3  4  1  0  0  0  0
  3 23  1  0  0  0  0
  3 24  1  0  0  0  0
  4  8  1  0  0  0  0
  4  5  1  0  0  0  0
  5  6  2  0  0  0  0
  5 25  1  0  0  0  0
  6  7  1  0  0  0  0
  6 26  1  0  0  0  0
  7  8  2  0  0  0  0
  8 27  1  0  0  0  0
  9 10  1  0  0  0  0
  9 28  1  0  0  0  0
 10 11  2  0  0  0  0
 10 12  1  0  0  0  0
 12 13  1  0  0  0  0
 12 29  1  0  0  0  0
 13 14  1  0  0  0  0
 13 30  1  0  0  0  0
 13 31  1  0  0  0  0
 14 18  1  0  0  0  0
 14 15  1  0  0  0  0
 14 32  1  0  0  0  0
 15 16  1  0  0  0  0
 15 33  1  0  0  0  0
 15 34  1  0  0  0  0
 16 17  1  0  0  0  0
 16 35  1  0  0  0  0
 16 36  1  0  0  0  0
 17 18  1  0  0  0  0
 18 37  1  0  0  0  0
 18 38  1  0  0  0  0
M  END
> <s_m_source_file>
AV-unprocessed.smi

> <i_m_source_file_index>
3292

> <i_lp_mmshare_version>
43012

> <i_f3d_flags>
0

> <s_epik_input>
W2NIXTFuW2NIXVtjSF1uMVtDSDJdW0NAQEhdKFtDSDNdKVtOSF1DKD1PKVtOSF1bQ0gyXVtDQEBIXTJbQ0gyXVtDSDJdT1tDSDJdMg==

> <s_epik_cmdline>
J2VwaWtfcHl0aG9uJywgJy1waCcsICc3LjAnLCAnLXRuJywgJzgnLCAnLW1hJywgJzIwMCcsICctbWV0YWxfYmluZGluZycsICctaW1hZScsICc8aW5maWxlLm1hZT4nLCAnLW9tYWUnLCAnPG91dGZpbGUubWFlPic=

> <r_lp_tautomer_probability>
1

> <r_epik_Ionization_Penalty>
0.621291

> <r_epik_Ionization_Penalty_Charging>
0.621234

> <r_epik_Ionization_Penalty_Neutral>
5.72199e-05

> <r_epik_State_Penalty>
0.637278

> <r_epik_Charging_Adjusted_Penalty>
1.25851

> <i_epik_Tot_Q>
0

> <i_epik_Tot_abs_Q>
0

> <r_epik_Metal_State_Penalty>
0.306757

> <b_epik_Metal_Only>
0

> <s_lp_Force_Field>
OPLS_2005

> <r_lp_Energy>
18.205

> <b_lp_Chiralities_Consistent>
1

> <s_lp_Variant>
AV-unprocessed.smi:3292-8

> <Gold.Version>
5.8.1

> <Gold.Id.Protein>
6NUR|6NUR_protein|mol2

> <Gold.PLP.Fitness>
43.0350

> <Gold.PLP.PLP>
-27.5864

> <Gold.PLP.part.hbond>
-2.6244

> <Gold.PLP.part.metal>
0.0000

> <Gold.PLP.part.buried>
-4.4164

> <Gold.PLP.part.nonpolar>
-21.1723

> <Gold.PLP.part.repulsive>
0.2147

> <Gold.PLP.ligand.clash>
0.0000

> <Gold.PLP.ligand.torsion>
0.5278

> <Gold.PLP.Chemscore.Hbond>
2.4453

> <Gold.PLP.Chemscore.CHOScore>
3.0000

> <Gold.PLP.Chemscore.Metal>
0.0000

> <Gold.Chemscore.Hbonds>
donor molecule, donor type, donor heavy atom, donor atom, acceptor molecule, acceptor atom, score
      L1  H     9    28       P1  7948  0.93
      L1  H    12    29       P1  7948  0.46
      P1  H  7989  7998       L1    17  1.00
      L1  C     5    25       P1 10186  1.00
      L1  C     6    26       P1 10952  1.00
      L1  C     8    27       P1 10747  0.95

> <Gold.PLP.Chemscore.Internal.Correction>
0.1682

> <Gold.Rescore>
     Score         DG    S(hbond)    S(metal)    S(lipo)     H(rot)  DE(clash)    DE(int)     intcor
     13.53     -14.08       2.20        0.00      57.81       2.16       0.06       0.50       ----

> <Gold.Chemscore.Fitness>
13.5287

> <Gold.Chemscore.DG>
-14.0843

> <Gold.Chemscore.ZeroCoef>
-5.4800

> <Gold.Chemscore.Hbond>
2.2048

> <Gold.Chemscore.Metal>
0.0000

> <Gold.Chemscore.Lipo>
57.8111

> <Gold.Chemscore.Internal_Hbond>
0.0000

> <Gold.Chemscore.DEClash>
0.0593

> <Gold.Chemscore.DEInternal>
0.4963

> <Gold.Chemscore.Rot>
2.1577

> <Gold.Chemscore.Internal.Correction>
   9.000000E+99

> <Gold.Chemscore.Hbonds>
donor molecule, donor type, donor heavy atom, donor atom, acceptor molecule, acceptor atom, score
      L1  H     9    28       P1  7948  0.86
      L1  H    12    29       P1  7948  0.45
      P1  H  7989  7998       L1    17  0.21

> <Gold.Chemscore.Hbond.Weighted>
-7.3641

> <Gold.Chemscore.Metal.Weighted>
-0.0000

> <Gold.Chemscore.Lipo.Weighted>
-6.7639

> <Gold.Chemscore.Internal_Hbond.Weighted>
0.0000

> <Gold.Chemscore.DEClash.Weighted>
0.0593

> <Gold.Chemscore.DEInternal.Weighted>
0.4963

> <Gold.Chemscore.Rot.Weighted>
5.5237

> <Gold.Chemscore.Internal.Correction.Weighted>
   9.000000E+99

> <Gold.Protein.RotatedTorsions>
[ 6907 6896 6895 6894 ] final  -71.65 input  -60.11 | X-H torsion
[ 7974 7965 7964 7962 ] final -103.27 input  175.53 | X-H torsion
[ 8008 7997 7996 7995 ] final   91.28 input   59.86 | X-H torsion
[ 10167 10162 10161 10158 ] final  -84.40 input  -65.29 | X-H torsion
[ 10718 10713 10712 10709 ] final   20.94 input   66.30 | X-H torsion
[ 10763 10752 10751 10750 ] final -164.51 input  -60.55 | X-H torsion
[ 11005 11000 10999 10996 ] final  -29.05 input  -57.11 | X-H torsion

> <Gold.Protein.ActiveResidues>
 VAL166  LYS551  ARG553  GLY616  TRP617  ASP618  TYR619  PRO620  LYS621  CYS622 
 ASP623  PHE694  ASN695  SER759  ASP760  ASP761  ALA762  ILE779  LEU786  VAL792 
 PHE793  MET794  SER795  GLU796  ALA797  LYS798  CYS799  TRP800  GLU811  SER814 

> <Gold.Protein.RotatedAtoms>
  150.7203  134.5277  159.5684 H   0  0  0  0  0  0  0  0  0  0  0  0  # atno 6907 bound_to 6896
  152.2818  134.7817  160.0404 H   0  0  0  0  0  0  0  0  0  0  0  0  # atno 6908 bound_to 6896
  151.8461  133.3396  159.3695 H   0  0  0  0  0  0  0  0  0  0  0  0  # atno 6909 bound_to 6896
  145.2580  140.9260  143.3057 H   0  0  0  0  0  0  0  0  0  0  0  0  # atno 7974 bound_to 7965
  156.0219  140.3339  155.7048 H   0  0  0  0  0  0  0  0  0  0  0  0  # atno 8008 bound_to 7997
  155.6010  140.0655  157.2750 H   0  0  0  0  0  0  0  0  0  0  0  0  # atno 8009 bound_to 7997
  154.4319  140.1810  156.1161 H   0  0  0  0  0  0  0  0  0  0  0  0  # atno 8010 bound_to 7997
  140.4136  143.2612  151.8985 H   0  0  0  0  0  0  0  0  0  0  0  0  # atno 10167 bound_to 10162
  157.1315  130.6593  149.5953 H   0  0  0  0  0  0  0  0  0  0  0  0  # atno 10718 bound_to 10713
  154.7021  135.2990  154.9325 H   0  0  0  0  0  0  0  0  0  0  0  0  # atno 10763 bound_to 10752
  154.0254  135.6677  153.4780 H   0  0  0  0  0  0  0  0  0  0  0  0  # atno 10764 bound_to 10752
  153.0689  135.5072  154.8171 H   0  0  0  0  0  0  0  0  0  0  0  0  # atno 10765 bound_to 10752
  140.9262  133.7367  156.0872 H   0  0  0  0  0  0  0  0  0  0  0  0  # atno 11005 bound_to 11000
  144.9444  139.4153  143.6433 LP  0  0  0  0  0  0  0  0  0  0  0  0  # atno 17320 bound_to 7965
  146.3283  139.8419  142.8889 LP  0  0  0  0  0  0  0  0  0  0  0  0  # atno 17321 bound_to 7965
  139.4782  144.5511  151.8384 LP  0  0  0  0  0  0  0  0  0  0  0  0  # atno 17342 bound_to 10162
  140.4611  144.1721  150.5906 LP  0  0  0  0  0  0  0  0  0  0  0  0  # atno 17343 bound_to 10162
  155.9807  130.4809  150.6786 LP  0  0  0  0  0  0  0  0  0  0  0  0  # atno 17370 bound_to 10713
  157.4388  131.0858  151.0964 LP  0  0  0  0  0  0  0  0  0  0  0  0  # atno 17371 bound_to 10713
  140.7922  134.3604  157.5461 LP  0  0  0  0  0  0  0  0  0  0  0  0  # atno 17394 bound_to 11000
  139.8786  134.9147  156.3114 LP  0  0  0  0  0  0  0  0  0  0  0  0  # atno 17395 bound_to 11000

$$$$
