AV-unprocessed.smi:1406|AV-procd|sdf|5712|dock8
  -GOLD-   22720 5343D 1   1.00000     0.00000
 Structure written by MMmdl.
 41 43  0  0  0  0  0  0  0  0  2 V2000
  147.1037  136.3382  155.1158 C   0  0  0  0  0  0  0  0  0  0  0  0
  148.1339  135.2607  155.5118 C   0  0  1  0  0  0  0  0  0  0  0  0
  148.1266  134.0451  154.5634 C   0  0  0  0  0  0  0  0  0  0  0  0
  148.7757  133.0335  154.8324 O   0  0  0  0  0  0  0  0  0  0  0  0
  147.4051  134.1591  153.4358 N   0  0  0  0  0  0  0  0  0  0  0  0
  147.2695  133.1192  152.4205 C   0  0  1  0  0  0  0  0  0  0  0  0
  146.3885  131.9466  152.8706 C   0  0  0  0  0  0  0  0  0  0  0  0
  145.7179  131.4334  151.5839 C   0  0  0  0  0  0  0  0  0  0  0  0
  146.1844  132.3189  150.4933 N   0  3  1  0  0  0  0  0  0  0  0  0
  145.2938  132.4362  149.3103 C   0  0  0  0  0  0  0  0  0  0  0  0
  144.1098  133.3879  149.5499 C   0  0  0  0  0  0  0  0  0  0  0  0
  144.6032  134.7524  150.0418 C   0  0  0  0  0  0  0  0  0  0  0  0
  145.4213  134.5690  151.3241 C   0  0  0  0  0  0  0  0  0  0  0  0
  146.6084  133.5934  151.1155 C   0  0  1  0  0  0  0  0  0  0  0  0
  149.4718  135.8295  155.6438 N   0  0  0  0  0  0  0  0  0  0  0  0
  150.2198  136.4820  154.7512 C   0  0  0  0  0  0  0  0  0  0  0  0
  151.3842  136.8998  155.2274 N   0  0  0  0  0  0  0  0  0  0  0  0
  151.2847  136.4399  156.5100 C   0  0  0  0  0  0  0  0  0  0  0  0
  150.1563  135.7989  156.8145 N   0  0  0  0  0  0  0  0  0  0  0  0
  146.0894  135.9376  155.1163 H   0  0  0  0  0  0  0  0  0  0  0  0
  147.3002  136.7416  154.1215 H   0  0  0  0  0  0  0  0  0  0  0  0
  147.1215  137.1706  155.8198 H   0  0  0  0  0  0  0  0  0  0  0  0
  147.8496  134.8833  156.4950 H   0  0  0  0  0  0  0  0  0  0  0  0
  146.9002  135.0199  153.2813 H   0  0  0  0  0  0  0  0  0  0  0  0
  148.2584  132.7199  152.1843 H   0  0  0  0  0  0  0  0  0  0  0  0
  146.9737  131.1723  153.3680 H   0  0  0  0  0  0  0  0  0  0  0  0
  145.6234  132.2803  153.5734 H   0  0  0  0  0  0  0  0  0  0  0  0
  145.9898  130.3999  151.3669 H   0  0  0  0  0  0  0  0  0  0  0  0
  144.6332  131.4773  151.6868 H   0  0  0  0  0  0  0  0  0  0  0  0
  145.8913  132.8121  148.4788 H   0  0  0  0  0  0  0  0  0  0  0  0
  144.9403  131.4479  149.0145 H   0  0  0  0  0  0  0  0  0  0  0  0
  143.5396  133.5091  148.6283 H   0  0  0  0  0  0  0  0  0  0  0  0
  143.4231  132.9587  150.2803 H   0  0  0  0  0  0  0  0  0  0  0  0
  145.2135  135.2299  149.2742 H   0  0  0  0  0  0  0  0  0  0  0  0
  143.7567  135.4142  150.2274 H   0  0  0  0  0  0  0  0  0  0  0  0
  145.7872  135.5388  151.6627 H   0  0  0  0  0  0  0  0  0  0  0  0
  144.7629  134.1998  152.1115 H   0  0  0  0  0  0  0  0  0  0  0  0
  147.3455  134.0718  150.4688 H   0  0  0  0  0  0  0  0  0  0  0  0
  149.9035  136.6617  153.7341 H   0  0  0  0  0  0  0  0  0  0  0  0
  152.0639  136.5879  157.2432 H   0  0  0  0  0  0  0  0  0  0  0  0
  147.0361  131.8886  150.1617 H   0  0  0  0  0  0  0  0  0  0  0  0
  1  2  1  0  0  0  0
  1 20  1  0  0  0  0
  1 21  1  0  0  0  0
  1 22  1  0  0  0  0
  2  3  1  0  0  0  0
  2 15  1  0  0  0  0
  2 23  1  0  0  0  0
  3  4  2  0  0  0  0
  3  5  1  0  0  0  0
  5  6  1  0  0  0  0
  5 24  1  0  0  0  0
  6 14  1  0  0  0  0
  6  7  1  0  0  0  0
  6 25  1  0  0  0  0
  7  8  1  0  0  0  0
  7 26  1  0  0  0  0
  7 27  1  0  0  0  0
  8  9  1  0  0  0  0
  8 28  1  0  0  0  0
  8 29  1  0  0  0  0
  9 14  1  0  0  0  0
  9 10  1  0  0  0  0
  9 41  1  0  0  0  0
 10 11  1  0  0  0  0
 10 30  1  0  0  0  0
 10 31  1  0  0  0  0
 11 12  1  0  0  0  0
 11 32  1  0  0  0  0
 11 33  1  0  0  0  0
 12 13  1  0  0  0  0
 12 34  1  0  0  0  0
 12 35  1  0  0  0  0
 13 14  1  0  0  0  0
 13 36  1  0  0  0  0
 13 37  1  0  0  0  0
 14 38  1  0  0  0  0
 15 19  1  0  0  0  0
 15 16  1  0  0  0  0
 16 17  2  0  0  0  0
 16 39  1  0  0  0  0
 17 18  1  0  0  0  0
 18 19  2  0  0  0  0
 18 40  1  0  0  0  0
M  CHG  1   9   1
M  END
> <s_m_source_file>
AV-unprocessed.smi

> <i_m_source_file_index>
1406

> <i_lp_mmshare_version>
43012

> <i_f3d_flags>
0

> <s_epik_input>
bjFbY0hdbltjSF1uMVtDQEhdKFtDSDNdKUMoPU8pW05IXVtDQEhdKFtDSDJdW0NIMl0yKVtDQEBIXShOMjMpW0NIMl1bQ0gyXVtDSDJdW0NIMl0z

> <s_epik_cmdline>
J2VwaWtfcHl0aG9uJywgJy1waCcsICc3LjAnLCAnLXRuJywgJzgnLCAnLW1hJywgJzIwMCcsICctbWV0YWxfYmluZGluZycsICctaW1hZScsICc8aW5maWxlLm1hZT4nLCAnLW9tYWUnLCAnPG91dGZpbGUubWFlPic=

> <r_lp_tautomer_probability>
1

> <r_epik_Ionization_Penalty>
0.00197066

> <r_epik_Ionization_Penalty_Charging>
0.00196223

> <r_epik_Ionization_Penalty_Neutral>
8.43107e-06

> <r_epik_State_Penalty>
0.00133866

> <r_epik_Charging_Adjusted_Penalty>
0.00330089

> <i_epik_Tot_Q>
1

> <i_epik_Tot_abs_Q>
1

> <r_epik_Metal_State_Penalty>
-0

> <b_epik_Metal_Only>
0

> <s_lp_Force_Field>
OPLS_2005

> <r_lp_Energy>
42.4798

> <b_lp_Chiralities_Consistent>
1

> <s_lp_Variant>
AV-unprocessed.smi:1406-4

> <Gold.Version>
5.8.1

> <Gold.Id.Protein>
6NUR|6NUR_protein|mol2

> <Gold.PLP.Fitness>
38.4690

> <Gold.PLP.PLP>
-29.9575

> <Gold.PLP.part.hbond>
-2.5293

> <Gold.PLP.part.metal>
0.0000

> <Gold.PLP.part.buried>
-4.5633

> <Gold.PLP.part.nonpolar>
-22.8867

> <Gold.PLP.part.repulsive>
0.1501

> <Gold.PLP.ligand.clash>
0.0000

> <Gold.PLP.ligand.torsion>
0.2690

> <Gold.PLP.Chemscore.Hbond>
2.0000

> <Gold.PLP.Chemscore.CHOScore>
0.9830

> <Gold.PLP.Chemscore.Metal>
0.0000

> <Gold.Chemscore.Hbonds>
donor molecule, donor type, donor heavy atom, donor atom, acceptor molecule, acceptor atom, score
      L1  H     9    41       P1 10747  0.60
      P1  H 10752 10764       L1    17  0.71
      L1  C    16    39       P1  7948  1.00

> <Gold.PLP.Chemscore.Internal.Correction>
0.1006

> <Gold.Rescore>
     Score         DG    S(hbond)    S(metal)    S(lipo)     H(rot)  DE(clash)    DE(int)     intcor
     14.38     -14.71       1.91        0.00      65.74       1.89       0.02       0.31       ----

> <Gold.Chemscore.Fitness>
14.3777

> <Gold.Chemscore.DG>
-14.7079

> <Gold.Chemscore.ZeroCoef>
-5.4800

> <Gold.Chemscore.Hbond>
1.9060

> <Gold.Chemscore.Metal>
0.0000

> <Gold.Chemscore.Lipo>
65.7394

> <Gold.Chemscore.Internal_Hbond>
0.0000

> <Gold.Chemscore.DEClash>
0.0237

> <Gold.Chemscore.DEInternal>
0.3065

> <Gold.Chemscore.Rot>
1.8865

> <Gold.Chemscore.Internal.Correction>
   9.000000E+99

> <Gold.Chemscore.Hbonds>
donor molecule, donor type, donor heavy atom, donor atom, acceptor molecule, acceptor atom, score
      L1  H     9    41       P1 10747  0.60
      P1  H 10752 10764       L1    17  0.11

> <Gold.Chemscore.Hbond.Weighted>
-6.3659

> <Gold.Chemscore.Metal.Weighted>
-0.0000

> <Gold.Chemscore.Lipo.Weighted>
-7.6915

> <Gold.Chemscore.Internal_Hbond.Weighted>
0.0000

> <Gold.Chemscore.DEClash.Weighted>
0.0237

> <Gold.Chemscore.DEInternal.Weighted>
0.3065

> <Gold.Chemscore.Rot.Weighted>
4.8295

> <Gold.Chemscore.Internal.Correction.Weighted>
   9.000000E+99

> <Gold.Protein.RotatedTorsions>
[ 6907 6896 6895 6894 ] final   85.46 input  -60.11 | X-H torsion
[ 7974 7965 7964 7962 ] final  160.70 input  175.53 | X-H torsion
[ 8008 7997 7996 7995 ] final -124.73 input   59.86 | X-H torsion
[ 10167 10162 10161 10158 ] final  126.09 input  -65.29 | X-H torsion
[ 10718 10713 10712 10709 ] final   -3.86 input   66.30 | X-H torsion
[ 10763 10752 10751 10750 ] final  -64.58 input  -60.55 | X-H torsion
[ 11005 11000 10999 10996 ] final  -29.11 input  -57.11 | X-H torsion

> <Gold.Protein.ActiveResidues>
 VAL166  LYS551  ARG553  GLY616  TRP617  ASP618  TYR619  PRO620  LYS621  CYS622 
 ASP623  PHE694  ASN695  SER759  ASP760  ASP761  ALA762  ILE779  LEU786  VAL792 
 PHE793  MET794  SER795  GLU796  ALA797  LYS798  CYS799  TRP800  GLU811  SER814 

> <Gold.Protein.RotatedAtoms>
  152.5375  134.2583  159.8925 H   0  0  0  0  0  0  0  0  0  0  0  0  # atno 6907 bound_to 6896
  151.2544  133.4327  159.2620 H   0  0  0  0  0  0  0  0  0  0  0  0  # atno 6908 bound_to 6896
  151.0510  134.9687  159.8267 H   0  0  0  0  0  0  0  0  0  0  0  0  # atno 6909 bound_to 6896
  144.7723  139.7794  143.6292 H   0  0  0  0  0  0  0  0  0  0  0  0  # atno 7974 bound_to 7965
  155.2016  140.0416  157.2918 H   0  0  0  0  0  0  0  0  0  0  0  0  # atno 8008 bound_to 7997
  154.6071  140.2467  155.7689 H   0  0  0  0  0  0  0  0  0  0  0  0  # atno 8009 bound_to 7997
  156.2356  140.2922  156.0314 H   0  0  0  0  0  0  0  0  0  0  0  0  # atno 8010 bound_to 7997
  139.5650  144.6905  151.3936 H   0  0  0  0  0  0  0  0  0  0  0  0  # atno 10167 bound_to 10162
  156.7698  130.5296  149.5769 H   0  0  0  0  0  0  0  0  0  0  0  0  # atno 10718 bound_to 10713
  154.3322  135.6174  153.5556 H   0  0  0  0  0  0  0  0  0  0  0  0  # atno 10763 bound_to 10752
  152.9810  135.5749  154.4949 H   0  0  0  0  0  0  0  0  0  0  0  0  # atno 10764 bound_to 10752
  154.4637  135.2857  155.1671 H   0  0  0  0  0  0  0  0  0  0  0  0  # atno 10765 bound_to 10752
  140.9267  133.7364  156.0878 H   0  0  0  0  0  0  0  0  0  0  0  0  # atno 11005 bound_to 11000
  146.1879  139.5104  142.9824 LP  0  0  0  0  0  0  0  0  0  0  0  0  # atno 17320 bound_to 7965
  145.6286  141.0308  143.1875 LP  0  0  0  0  0  0  0  0  0  0  0  0  # atno 17321 bound_to 7965
  140.6933  143.7810  150.7287 LP  0  0  0  0  0  0  0  0  0  0  0  0  # atno 17342 bound_to 10162
  140.1299  143.4535  152.2261 LP  0  0  0  0  0  0  0  0  0  0  0  0  # atno 17343 bound_to 10162
  156.1285  130.6161  151.0299 LP  0  0  0  0  0  0  0  0  0  0  0  0  # atno 17370 bound_to 10713
  157.6696  131.0864  150.7644 LP  0  0  0  0  0  0  0  0  0  0  0  0  # atno 17371 bound_to 10713
  140.7916  134.3610  157.5463 LP  0  0  0  0  0  0  0  0  0  0  0  0  # atno 17394 bound_to 11000
  139.8787  134.9144  156.3106 LP  0  0  0  0  0  0  0  0  0  0  0  0  # atno 17395 bound_to 11000

$$$$
