AV-unprocessed.smi:1644|AV-procd|sdf|6598|dock9
  -GOLD-   22720 7303D 1   1.00000     0.00000
 Structure written by MMmdl.
 49 51  0  0  0  0  0  0  0  0  3 V2000
  147.4459  136.9075  163.0876 C   0  0  0  0  0  0  0  0  0  0  0  0
  147.1877  136.7517  161.5848 C   0  0  0  0  0  0  0  0  0  0  0  0
  148.2242  135.8457  160.9002 C   0  0  0  0  0  0  0  0  0  0  0  0
  148.2975  136.0494  159.3717 C   0  0  2  0  0  0  0  0  0  0  0  0
  149.4412  135.3694  158.7990 N   0  5  0  0  0  0  0  0  0  0  0  0
  150.2276  136.2834  158.1851 C   0  0  0  0  0  0  0  0  0  0  0  0
  151.2751  136.0612  157.5788 O   0  0  0  0  0  0  0  0  0  0  0  0
  149.7142  137.5228  158.3062 N   0  0  0  0  0  0  0  0  0  0  0  0
  150.3090  138.7479  157.7588 C   0  0  0  0  0  0  0  0  0  0  0  0
  150.9067  138.5386  156.3524 C   0  0  1  0  0  0  0  0  0  0  0  0
  149.8422  138.2452  155.4693 O   0  0  0  0  0  0  0  0  0  0  0  0
  151.7087  139.7539  155.8400 C   0  0  0  0  0  0  0  0  0  0  0  0
  151.2712  141.0229  156.4368 N   0  0  0  0  0  0  0  0  0  0  0  0
  150.4061  141.9552  155.9549 C   0  0  0  0  0  0  0  0  0  0  0  0
  150.3309  142.9585  156.8728 N   0  3  0  0  0  0  0  0  0  0  0  0
  151.1602  142.6613  157.9567 C   0  0  0  0  0  0  0  0  0  0  0  0
  151.4195  143.3679  159.1252 C   0  0  0  0  0  0  0  0  0  0  0  0
  152.3222  142.7864  160.0441 C   0  0  0  0  0  0  0  0  0  0  0  0
  152.6293  143.5331  161.3311 C   0  0  0  0  0  0  0  0  0  0  0  0
  152.9296  141.5322  159.7764 C   0  0  0  0  0  0  0  0  0  0  0  0
  153.8948  140.9134  160.7729 C   0  0  0  0  0  0  0  0  0  0  0  0
  152.6533  140.8301  158.5818 C   0  0  0  0  0  0  0  0  0  0  0  0
  151.7649  141.4189  157.6850 C   0  0  0  0  0  0  0  0  0  0  0  0
  148.5713  137.4923  158.9987 C   0  0  0  0  0  0  0  0  0  0  0  0
  147.8432  138.4417  159.2905 O   0  0  0  0  0  0  0  0  0  0  0  0
  146.6985  137.5562  163.5447 H   0  0  0  0  0  0  0  0  0  0  0  0
  148.4267  137.3449  163.2754 H   0  0  0  0  0  0  0  0  0  0  0  0
  147.4048  135.9435  163.5952 H   0  0  0  0  0  0  0  0  0  0  0  0
  146.1862  136.3467  161.4357 H   0  0  0  0  0  0  0  0  0  0  0  0
  147.1952  137.7353  161.1142 H   0  0  0  0  0  0  0  0  0  0  0  0
  149.2020  136.0524  161.3380 H   0  0  0  0  0  0  0  0  0  0  0  0
  148.0077  134.8009  161.1306 H   0  0  0  0  0  0  0  0  0  0  0  0
  147.3573  135.7483  158.9077 H   0  0  0  0  0  0  0  0  0  0  0  0
  149.5391  139.5207  157.7197 H   0  0  0  0  0  0  0  0  0  0  0  0
  151.0727  139.1372  158.4343 H   0  0  0  0  0  0  0  0  0  0  0  0
  151.5589  137.6644  156.3648 H   0  0  0  0  0  0  0  0  0  0  0  0
  149.8929  138.8378  154.7347 H   0  0  0  0  0  0  0  0  0  0  0  0
  152.7772  139.6229  156.0108 H   0  0  0  0  0  0  0  0  0  0  0  0
  151.5852  139.8572  154.7615 H   0  0  0  0  0  0  0  0  0  0  0  0
  149.8767  141.9073  155.0142 H   0  0  0  0  0  0  0  0  0  0  0  0
  150.9512  144.3209  159.3233 H   0  0  0  0  0  0  0  0  0  0  0  0
  153.6978  143.7344  161.4121 H   0  0  0  0  0  0  0  0  0  0  0  0
  152.3205  142.9465  162.1968 H   0  0  0  0  0  0  0  0  0  0  0  0
  152.1072  144.4896  161.3724 H   0  0  0  0  0  0  0  0  0  0  0  0
  154.2572  139.9445  160.4277 H   0  0  0  0  0  0  0  0  0  0  0  0
  153.4071  140.7621  161.7363 H   0  0  0  0  0  0  0  0  0  0  0  0
  154.7604  141.5600  160.9190 H   0  0  0  0  0  0  0  0  0  0  0  0
  153.1115  139.8729  158.3809 H   0  0  0  0  0  0  0  0  0  0  0  0
  149.7551  143.7834  156.7643 H   0  0  0  0  0  0  0  0  0  0  0  0
  1  2  1  0  0  0  0
  1 26  1  0  0  0  0
  1 27  1  0  0  0  0
  1 28  1  0  0  0  0
  2  3  1  0  0  0  0
  2 29  1  0  0  0  0
  2 30  1  0  0  0  0
  3  4  1  0  0  0  0
  3 31  1  0  0  0  0
  3 32  1  0  0  0  0
  4 24  1  0  0  0  0
  4  5  1  0  0  0  0
  4 33  1  0  0  0  0
  5  6  1  0  0  0  0
  6  7  2  0  0  0  0
  6  8  1  0  0  0  0
  8  9  1  0  0  0  0
  8 24  1  0  0  0  0
  9 10  1  0  0  0  0
  9 34  1  0  0  0  0
  9 35  1  0  0  0  0
 10 11  1  0  0  0  0
 10 12  1  0  0  0  0
 10 36  1  0  0  0  0
 11 37  1  0  0  0  0
 12 13  1  0  0  0  0
 12 38  1  0  0  0  0
 12 39  1  0  0  0  0
 13 23  1  0  0  0  0
 13 14  1  0  0  0  0
 14 15  2  0  0  0  0
 14 40  1  0  0  0  0
 15 16  1  0  0  0  0
 15 49  1  0  0  0  0
 16 23  2  0  0  0  0
 16 17  1  0  0  0  0
 17 18  2  0  0  0  0
 17 41  1  0  0  0  0
 18 19  1  0  0  0  0
 18 20  1  0  0  0  0
 19 42  1  0  0  0  0
 19 43  1  0  0  0  0
 19 44  1  0  0  0  0
 20 21  1  0  0  0  0
 20 22  2  0  0  0  0
 21 45  1  0  0  0  0
 21 46  1  0  0  0  0
 21 47  1  0  0  0  0
 22 23  1  0  0  0  0
 22 48  1  0  0  0  0
 24 25  2  0  0  0  0
M  CHG  1   5  -1
M  CHG  1  15   1
M  END
> <s_m_source_file>
AV-unprocessed.smi

> <i_m_source_file_index>
1644

> <i_lp_mmshare_version>
43012

> <i_f3d_flags>
0

> <s_epik_input>
W0NIM11bQ0gyXVtDSDJdW0NAQEhdMVtOSF1DKD1PKU4oQzE9TylbQ0gyXVtDQEhdKFtPSF0pW0NIMl1uKFtjSF1uMiljKGMyMylbY0hdYyhbQ0gzXSljKFtjSF0zKVtDSDNd

> <s_epik_cmdline>
J2VwaWtfcHl0aG9uJywgJy1waCcsICc3LjAnLCAnLXRuJywgJzgnLCAnLW1hJywgJzIwMCcsICctbWV0YWxfYmluZGluZycsICctaW1hZScsICc8aW5maWxlLm1hZT4nLCAnLW9tYWUnLCAnPG91dGZpbGUubWFlPic=

> <r_lp_tautomer_probability>
1

> <r_epik_Ionization_Penalty>
6.86868

> <r_epik_Ionization_Penalty_Charging>
6.86868

> <r_epik_Ionization_Penalty_Neutral>
5.84798e-07

> <r_epik_State_Penalty>
6.92818

> <r_epik_Charging_Adjusted_Penalty>
13.7969

> <i_epik_Tot_Q>
0

> <i_epik_Tot_abs_Q>
2

> <r_epik_Metal_State_Penalty>
2.98017

> <b_epik_Metal_Only>
1

> <s_lp_Force_Field>
OPLS_2005

> <r_lp_Energy>
19.1239

> <b_lp_Chiralities_Consistent>
1

> <s_lp_Variant>
AV-unprocessed.smi:1644-15

> <Gold.Version>
5.8.1

> <Gold.Id.Protein>
6NUR|6NUR_protein|mol2

> <Gold.PLP.Fitness>
56.1106

> <Gold.PLP.PLP>
-45.8463

> <Gold.PLP.part.hbond>
-3.6304

> <Gold.PLP.part.metal>
0.0000

> <Gold.PLP.part.buried>
-4.2612

> <Gold.PLP.part.nonpolar>
-37.7838

> <Gold.PLP.part.repulsive>
0.0428

> <Gold.PLP.ligand.clash>
0.0000

> <Gold.PLP.ligand.torsion>
1.2238

> <Gold.PLP.Chemscore.Hbond>
4.2075

> <Gold.PLP.Chemscore.CHOScore>
0.0000

> <Gold.PLP.Chemscore.Metal>
0.0000

> <Gold.Chemscore.Hbonds>
donor molecule, donor type, donor heavy atom, donor atom, acceptor molecule, acceptor atom, score
      L1  H    15    49       P1  8028  1.82
      P1  H  6896  6909       L1     5  1.90
      P1  H  6934  6947       L1    25  0.18

> <Gold.PLP.Chemscore.Internal.Correction>
0.0895

> <Gold.Rescore>
     Score         DG    S(hbond)    S(metal)    S(lipo)     H(rot)  DE(clash)    DE(int)     intcor
     14.13     -17.95       1.67        0.00     118.58       2.72       0.54       3.28       ----

> <Gold.Chemscore.Fitness>
14.1314

> <Gold.Chemscore.DG>
-17.9541

> <Gold.Chemscore.ZeroCoef>
-5.4800

> <Gold.Chemscore.Hbond>
1.6692

> <Gold.Chemscore.Metal>
0.0000

> <Gold.Chemscore.Lipo>
118.5800

> <Gold.Chemscore.Internal_Hbond>
0.0000

> <Gold.Chemscore.DEClash>
0.5439

> <Gold.Chemscore.DEInternal>
3.2788

> <Gold.Chemscore.Rot>
2.7245

> <Gold.Chemscore.Internal.Correction>
   9.000000E+99

> <Gold.Chemscore.Hbonds>
donor molecule, donor type, donor heavy atom, donor atom, acceptor molecule, acceptor atom, score
      L1  H    15    49       P1  8028  0.89
      P1  H  6896  6909       L1     5  0.21
      P1  H  6934  6947       L1    25  0.19

> <Gold.Chemscore.Hbond.Weighted>
-5.5750

> <Gold.Chemscore.Metal.Weighted>
-0.0000

> <Gold.Chemscore.Lipo.Weighted>
-13.8739

> <Gold.Chemscore.Internal_Hbond.Weighted>
0.0000

> <Gold.Chemscore.DEClash.Weighted>
0.5439

> <Gold.Chemscore.DEInternal.Weighted>
3.2788

> <Gold.Chemscore.Rot.Weighted>
6.9748

> <Gold.Chemscore.Internal.Correction.Weighted>
   9.000000E+99

> <Gold.Protein.RotatedTorsions>
[ 6907 6896 6895 6894 ] final   36.15 input  -60.11 | X-H torsion
[ 7974 7965 7964 7962 ] final   74.50 input  175.53 | X-H torsion
[ 8008 7997 7996 7995 ] final  -30.09 input   59.86 | X-H torsion
[ 10167 10162 10161 10158 ] final  106.70 input  -65.29 | X-H torsion
[ 10718 10713 10712 10709 ] final   77.73 input   66.30 | X-H torsion
[ 10763 10752 10751 10750 ] final    7.99 input  -60.55 | X-H torsion
[ 11005 11000 10999 10996 ] final -154.94 input  -57.11 | X-H torsion

> <Gold.Protein.ActiveResidues>
 VAL166  LYS551  ARG553  GLY616  TRP617  ASP618  TYR619  PRO620  LYS621  CYS622 
 ASP623  PHE694  ASN695  SER759  ASP760  ASP761  ALA762  ILE779  LEU786  VAL792 
 PHE793  MET794  SER795  GLU796  ALA797  LYS798  CYS799  TRP800  GLU811  SER814 

> <Gold.Protein.RotatedAtoms>
  152.1258  134.9171  160.0560 H   0  0  0  0  0  0  0  0  0  0  0  0  # atno 6907 bound_to 6896
  152.0295  133.3926  159.4299 H   0  0  0  0  0  0  0  0  0  0  0  0  # atno 6908 bound_to 6896
  150.6852  134.3458  159.4931 H   0  0  0  0  0  0  0  0  0  0  0  0  # atno 6909 bound_to 6896
  145.7275  139.2671  143.1560 H   0  0  0  0  0  0  0  0  0  0  0  0  # atno 7974 bound_to 7965
  154.4264  140.1801  156.1351 H   0  0  0  0  0  0  0  0  0  0  0  0  # atno 8008 bound_to 7997
  156.0036  140.3357  155.6845 H   0  0  0  0  0  0  0  0  0  0  0  0  # atno 8009 bound_to 7997
  155.6208  140.0659  157.2669 H   0  0  0  0  0  0  0  0  0  0  0  0  # atno 8010 bound_to 7997
  139.6987  144.7097  151.1222 H   0  0  0  0  0  0  0  0  0  0  0  0  # atno 10167 bound_to 10162
  157.6721  130.9835  150.1684 H   0  0  0  0  0  0  0  0  0  0  0  0  # atno 10718 bound_to 10713
  153.2301  135.6891  153.7900 H   0  0  0  0  0  0  0  0  0  0  0  0  # atno 10763 bound_to 10752
  153.7067  135.3289  155.3238 H   0  0  0  0  0  0  0  0  0  0  0  0  # atno 10764 bound_to 10752
  154.8310  135.4581  154.1183 H   0  0  0  0  0  0  0  0  0  0  0  0  # atno 10765 bound_to 10752
  140.6919  134.4032  157.5218 H   0  0  0  0  0  0  0  0  0  0  0  0  # atno 11005 bound_to 11000
  146.0568  140.8012  142.9754 LP  0  0  0  0  0  0  0  0  0  0  0  0  # atno 17320 bound_to 7965
  144.6901  140.3136  143.7244 LP  0  0  0  0  0  0  0  0  0  0  0  0  # atno 17321 bound_to 7965
  140.7704  143.5454  150.9265 LP  0  0  0  0  0  0  0  0  0  0  0  0  # atno 17342 bound_to 10162
  139.9135  143.6692  152.3110 LP  0  0  0  0  0  0  0  0  0  0  0  0  # atno 17343 bound_to 10162
  156.2444  130.3694  149.8301 LP  0  0  0  0  0  0  0  0  0  0  0  0  # atno 17370 bound_to 10713
  156.6092  130.8579  151.3450 LP  0  0  0  0  0  0  0  0  0  0  0  0  # atno 17371 bound_to 10713
  139.8921  134.8763  156.2287 LP  0  0  0  0  0  0  0  0  0  0  0  0  # atno 17394 bound_to 11000
  141.0235  133.7028  156.1307 LP  0  0  0  0  0  0  0  0  0  0  0  0  # atno 17395 bound_to 11000

$$$$
