AV-unprocessed.smi:1005|AV-procd|sdf|4371|dock7
  -GOLD-   22720 2283D 1   1.00000     0.00000
 Structure written by MMmdl.
 57 59  0  0  0  0  0  0  0  0  3 V2000
  152.9472  143.4323  161.9310 C   0  0  0  0  0  0  0  0  0  0  0  0
  152.3474  143.0066  160.6019 C   0  0  0  0  0  0  0  0  0  0  0  0
  152.8409  141.8442  159.9693 C   0  0  0  0  0  0  0  0  0  0  0  0
  152.3325  141.4273  158.7199 C   0  0  0  0  0  0  0  0  0  0  0  0
  152.6687  140.3387  157.9358 N   0  0  0  0  0  0  0  0  0  0  0  0
  151.8618  140.5002  156.8921 C   0  0  0  0  0  0  0  0  0  0  0  0
  151.0236  141.5549  156.9162 N   0  0  0  0  0  0  0  0  0  0  0  0
  150.0576  141.9151  155.8898 C   0  0  0  0  0  0  0  0  0  0  0  0
  149.3144  140.6995  155.2971 C   0  0  1  0  0  0  0  0  0  0  0  0
  150.1334  140.1398  154.2909 O   0  0  0  0  0  0  0  0  0  0  0  0
  148.9721  139.6059  156.3378 C   0  0  0  0  0  0  0  0  0  0  0  0
  149.6706  138.3171  156.0811 N   0  3  1  0  0  0  0  0  0  0  0  0
  149.9718  137.5581  157.3192 C   0  0  0  0  0  0  0  0  0  0  0  0
  148.7154  136.8478  157.8556 C   0  0  0  0  0  0  0  0  0  0  0  0
  148.1810  135.9997  156.8455 O   0  0  0  0  0  0  0  0  0  0  0  0
  147.7726  136.7166  155.6845 C   0  0  2  0  0  0  0  0  0  0  0  0
  147.1702  135.7093  154.6882 C   0  0  0  0  0  0  0  0  0  0  0  0
  148.2071  134.9599  153.9339 N   0  3  0  0  0  0  0  0  0  0  0  0
  149.2501  134.3657  154.8005 C   0  0  0  0  0  0  0  0  0  0  0  0
  147.6157  133.9482  153.0306 C   0  0  0  0  0  0  0  0  0  0  0  0
  149.0066  137.4301  155.0880 C   0  0  0  0  0  0  0  0  0  0  0  0
  151.3070  142.2104  158.1125 C   0  0  0  0  0  0  0  0  0  0  0  0
  150.8037  143.3664  158.7371 C   0  0  0  0  0  0  0  0  0  0  0  0
  151.3191  143.7654  159.9882 C   0  0  0  0  0  0  0  0  0  0  0  0
  150.7635  145.0117  160.6539 C   0  0  0  0  0  0  0  0  0  0  0  0
  153.5985  142.6585  162.3388 H   0  0  0  0  0  0  0  0  0  0  0  0
  152.1707  143.6345  162.6682 H   0  0  0  0  0  0  0  0  0  0  0  0
  153.5414  144.3373  161.8015 H   0  0  0  0  0  0  0  0  0  0  0  0
  153.6259  141.2663  160.4351 H   0  0  0  0  0  0  0  0  0  0  0  0
  151.8745  139.8047  156.0655 H   0  0  0  0  0  0  0  0  0  0  0  0
  149.3471  142.6210  156.3220 H   0  0  0  0  0  0  0  0  0  0  0  0
  150.5854  142.4498  155.0982 H   0  0  0  0  0  0  0  0  0  0  0  0
  148.4162  141.0663  154.8075 H   0  0  0  0  0  0  0  0  0  0  0  0
  149.6640  140.1450  153.4710 H   0  0  0  0  0  0  0  0  0  0  0  0
  149.2325  139.9801  157.3293 H   0  0  0  0  0  0  0  0  0  0  0  0
  147.9013  139.4167  156.3755 H   0  0  0  0  0  0  0  0  0  0  0  0
  150.7346  136.8132  157.0888 H   0  0  0  0  0  0  0  0  0  0  0  0
  150.4032  138.2119  158.0781 H   0  0  0  0  0  0  0  0  0  0  0  0
  148.9724  136.2399  158.7232 H   0  0  0  0  0  0  0  0  0  0  0  0
  147.9619  137.5646  158.1855 H   0  0  0  0  0  0  0  0  0  0  0  0
  147.0179  137.4542  155.9552 H   0  0  0  0  0  0  0  0  0  0  0  0
  146.5167  135.0030  155.2033 H   0  0  0  0  0  0  0  0  0  0  0  0
  146.5366  136.2581  153.9894 H   0  0  0  0  0  0  0  0  0  0  0  0
  148.8150  133.6210  155.4663 H   0  0  0  0  0  0  0  0  0  0  0  0
  149.7514  135.1177  155.4084 H   0  0  0  0  0  0  0  0  0  0  0  0
  150.0143  133.8740  154.1981 H   0  0  0  0  0  0  0  0  0  0  0  0
  147.0683  133.1921  153.5955 H   0  0  0  0  0  0  0  0  0  0  0  0
  148.3911  133.4468  152.4505 H   0  0  0  0  0  0  0  0  0  0  0  0
  146.9272  134.4138  152.3247 H   0  0  0  0  0  0  0  0  0  0  0  0
  148.7290  137.9726  154.1862 H   0  0  0  0  0  0  0  0  0  0  0  0
  149.7356  136.6829  154.7712 H   0  0  0  0  0  0  0  0  0  0  0  0
  150.0338  143.9508  158.2566 H   0  0  0  0  0  0  0  0  0  0  0  0
  150.0517  145.5253  160.0070 H   0  0  0  0  0  0  0  0  0  0  0  0
  151.5649  145.7123  160.8898 H   0  0  0  0  0  0  0  0  0  0  0  0
  150.2482  144.7496  161.5783 H   0  0  0  0  0  0  0  0  0  0  0  0
  148.6681  135.6303  153.3347 H   0  0  0  0  0  0  0  0  0  0  0  0
  150.5660  138.5749  155.6904 H   0  0  0  0  0  0  0  0  0  0  0  0
  1  2  1  0  0  0  0
  1 26  1  0  0  0  0
  1 27  1  0  0  0  0
  1 28  1  0  0  0  0
  2 24  1  0  0  0  0
  2  3  2  0  0  0  0
  3  4  1  0  0  0  0
  3 29  1  0  0  0  0
  4 22  2  0  0  0  0
  4  5  1  0  0  0  0
  5  6  2  0  0  0  0
  6  7  1  0  0  0  0
  6 30  1  0  0  0  0
  7  8  1  0  0  0  0
  7 22  1  0  0  0  0
  8  9  1  0  0  0  0
  8 31  1  0  0  0  0
  8 32  1  0  0  0  0
  9 10  1  0  0  0  0
  9 11  1  0  0  0  0
  9 33  1  0  0  0  0
 10 34  1  0  0  0  0
 11 12  1  0  0  0  0
 11 35  1  0  0  0  0
 11 36  1  0  0  0  0
 12 21  1  0  0  0  0
 12 13  1  0  0  0  0
 12 57  1  0  0  0  0
 13 14  1  0  0  0  0
 13 37  1  0  0  0  0
 13 38  1  0  0  0  0
 14 15  1  0  0  0  0
 14 39  1  0  0  0  0
 14 40  1  0  0  0  0
 15 16  1  0  0  0  0
 16 17  1  0  0  0  0
 16 21  1  0  0  0  0
 16 41  1  0  0  0  0
 17 18  1  0  0  0  0
 17 42  1  0  0  0  0
 17 43  1  0  0  0  0
 18 19  1  0  0  0  0
 18 20  1  0  0  0  0
 18 56  1  0  0  0  0
 19 44  1  0  0  0  0
 19 45  1  0  0  0  0
 19 46  1  0  0  0  0
 20 47  1  0  0  0  0
 20 48  1  0  0  0  0
 20 49  1  0  0  0  0
 21 50  1  0  0  0  0
 21 51  1  0  0  0  0
 22 23  1  0  0  0  0
 23 24  2  0  0  0  0
 23 52  1  0  0  0  0
 24 25  1  0  0  0  0
 25 53  1  0  0  0  0
 25 54  1  0  0  0  0
 25 55  1  0  0  0  0
M  CHG  1  12   1
M  CHG  1  18   1
M  END
> <s_m_source_file>
AV-unprocessed.smi

> <i_m_source_file_index>
1005

> <i_lp_mmshare_version>
43012

> <i_f3d_flags>
0

> <s_epik_input>
W0NIM11jKFtjSF0xKWMoW0NIM10pW2NIXWMoYzEyKW4oW2NIXW4yKVtDSDJdW0NASF0oW09IXSlbQ0gyXU4zW0NIMl1bQ0gyXU9bQ0BIXShbQ0gyXTMpW0NIMl1OKFtDSDNdKVtDSDNd

> <s_epik_cmdline>
J2VwaWtfcHl0aG9uJywgJy1waCcsICc3LjAnLCAnLXRuJywgJzgnLCAnLW1hJywgJzIwMCcsICctbWV0YWxfYmluZGluZycsICctaW1hZScsICc8aW5maWxlLm1hZT4nLCAnLW9tYWUnLCAnPG91dGZpbGUubWFlPic=

> <r_epik_Ionization_Penalty>
1.0968

> <r_epik_Ionization_Penalty_Charging>
1.0096

> <r_epik_Ionization_Penalty_Neutral>
0.0871956

> <r_epik_State_Penalty>
1.31185

> <r_epik_Charging_Adjusted_Penalty>
2.32145

> <i_epik_Tot_Q>
2

> <i_epik_Tot_abs_Q>
2

> <r_epik_Metal_State_Penalty>
1.22442

> <b_epik_Metal_Only>
0

> <s_lp_Force_Field>
OPLS_2005

> <r_lp_Energy>
34.2577

> <b_lp_Chiralities_Consistent>
1

> <s_lp_Variant>
AV-unprocessed.smi:1005-10

> <Gold.Version>
5.8.1

> <Gold.Id.Protein>
6NUR|6NUR_protein|mol2

> <Gold.PLP.Fitness>
52.5836

> <Gold.PLP.PLP>
-41.0903

> <Gold.PLP.part.hbond>
-4.0000

> <Gold.PLP.part.metal>
0.0000

> <Gold.PLP.part.buried>
-3.0864

> <Gold.PLP.part.nonpolar>
-32.1675

> <Gold.PLP.part.repulsive>
0.0022

> <Gold.PLP.ligand.clash>
0.0000

> <Gold.PLP.ligand.torsion>
1.7883

> <Gold.PLP.Chemscore.Hbond>
5.0000

> <Gold.PLP.Chemscore.CHOScore>
0.0000

> <Gold.PLP.Chemscore.Metal>
0.0000

> <Gold.Chemscore.Hbonds>
donor molecule, donor type, donor heavy atom, donor atom, acceptor molecule, acceptor atom, score
      L1  H    10    34       P1  7957  0.29
      L1  H    18    56       P1  7948  1.98
      P1  H  7989  7998       L1    10  0.55
      P1  H  7997  8009       L1     5  0.48

> <Gold.PLP.Chemscore.Internal.Correction>
0.0699

> <Gold.Rescore>
     Score         DG    S(hbond)    S(metal)    S(lipo)     H(rot)  DE(clash)    DE(int)     intcor
     17.80     -21.70       2.95        0.00     108.55       2.48       0.19       3.71       ----

> <Gold.Chemscore.Fitness>
17.8031

> <Gold.Chemscore.DG>
-21.6976

> <Gold.Chemscore.ZeroCoef>
-5.4800

> <Gold.Chemscore.Hbond>
2.9548

> <Gold.Chemscore.Metal>
0.0000

> <Gold.Chemscore.Lipo>
108.5545

> <Gold.Chemscore.Internal_Hbond>
0.0000

> <Gold.Chemscore.DEClash>
0.1882

> <Gold.Chemscore.DEInternal>
3.7062

> <Gold.Chemscore.Rot>
2.4814

> <Gold.Chemscore.Internal.Correction>
   9.000000E+99

> <Gold.Chemscore.Hbonds>
donor molecule, donor type, donor heavy atom, donor atom, acceptor molecule, acceptor atom, score
      L1  H    10    34       P1  7957  0.28
      L1  H    18    56       P1  7948  0.91
      P1  H  7989  7998       L1    10  0.03
      P1  H  7997  8009       L1     5  0.05

> <Gold.Chemscore.Hbond.Weighted>
-9.8690

> <Gold.Chemscore.Metal.Weighted>
-0.0000

> <Gold.Chemscore.Lipo.Weighted>
-12.7009

> <Gold.Chemscore.Internal_Hbond.Weighted>
0.0000

> <Gold.Chemscore.DEClash.Weighted>
0.1882

> <Gold.Chemscore.DEInternal.Weighted>
3.7062

> <Gold.Chemscore.Rot.Weighted>
6.3524

> <Gold.Chemscore.Internal.Correction.Weighted>
   9.000000E+99

> <Gold.Protein.RotatedTorsions>
[ 6907 6896 6895 6894 ] final   63.80 input  -60.11 | X-H torsion
[ 7974 7965 7964 7962 ] final  -36.60 input  175.53 | X-H torsion
[ 8008 7997 7996 7995 ] final  175.30 input   59.86 | X-H torsion
[ 10167 10162 10161 10158 ] final  -36.93 input  -65.29 | X-H torsion
[ 10718 10713 10712 10709 ] final   14.11 input   66.30 | X-H torsion
[ 10763 10752 10751 10750 ] final -138.38 input  -60.55 | X-H torsion
[ 11005 11000 10999 10996 ] final   76.02 input  -57.11 | X-H torsion

> <Gold.Protein.ActiveResidues>
 VAL166  LYS551  ARG553  GLY616  TRP617  ASP618  TYR619  PRO620  LYS621  CYS622 
 ASP623  PHE694  ASN695  SER759  ASP760  ASP761  ALA762  ILE779  LEU786  VAL792 
 PHE793  MET794  SER795  GLU796  ALA797  LYS798  CYS799  TRP800  GLU811  SER814 

> <Gold.Protein.RotatedAtoms>
  152.4281  134.5829  159.9952 H   0  0  0  0  0  0  0  0  0  0  0  0  # atno 6907 bound_to 6896
  151.5960  133.3355  159.3045 H   0  0  0  0  0  0  0  0  0  0  0  0  # atno 6908 bound_to 6896
  150.8172  134.7397  159.6805 H   0  0  0  0  0  0  0  0  0  0  0  0  # atno 6909 bound_to 6896
  146.0647  140.6298  142.8980 H   0  0  0  0  0  0  0  0  0  0  0  0  # atno 7974 bound_to 7965
  156.0885  140.1412  156.9623 H   0  0  0  0  0  0  0  0  0  0  0  0  # atno 8008 bound_to 7997
  154.4627  140.0937  156.6984 H   0  0  0  0  0  0  0  0  0  0  0  0  # atno 8009 bound_to 7997
  155.4959  140.3449  155.4365 H   0  0  0  0  0  0  0  0  0  0  0  0  # atno 8010 bound_to 7997
  140.7131  143.3375  151.2430 H   0  0  0  0  0  0  0  0  0  0  0  0  # atno 10167 bound_to 10162
  157.0344  130.6206  149.5740 H   0  0  0  0  0  0  0  0  0  0  0  0  # atno 10718 bound_to 10713
  154.8638  135.3614  154.5376 H   0  0  0  0  0  0  0  0  0  0  0  0  # atno 10763 bound_to 10752
  153.5999  135.7013  153.5393 H   0  0  0  0  0  0  0  0  0  0  0  0  # atno 10764 bound_to 10752
  153.3300  135.4127  155.1448 H   0  0  0  0  0  0  0  0  0  0  0  0  # atno 10765 bound_to 10752
  139.9317  134.7566  156.1343 H   0  0  0  0  0  0  0  0  0  0  0  0  # atno 11005 bound_to 11000
  144.7195  140.4326  143.7018 LP  0  0  0  0  0  0  0  0  0  0  0  0  # atno 17320 bound_to 7965
  145.6498  139.1563  143.2868 LP  0  0  0  0  0  0  0  0  0  0  0  0  # atno 17321 bound_to 7965
  139.6874  143.9750  152.2841 LP  0  0  0  0  0  0  0  0  0  0  0  0  # atno 17342 bound_to 10162
  139.9400  144.6687  150.8276 LP  0  0  0  0  0  0  0  0  0  0  0  0  # atno 17343 bound_to 10162
  156.0059  130.5145  150.7826 LP  0  0  0  0  0  0  0  0  0  0  0  0  # atno 17370 bound_to 10713
  157.5153  131.0928  151.0147 LP  0  0  0  0  0  0  0  0  0  0  0  0  # atno 17371 bound_to 10713
  141.0909  133.6714  156.2539 LP  0  0  0  0  0  0  0  0  0  0  0  0  # atno 17394 bound_to 11000
  140.6184  134.5387  157.5544 LP  0  0  0  0  0  0  0  0  0  0  0  0  # atno 17395 bound_to 11000

$$$$
