AV-unprocessed.smi:157|AV-procd|sdf|1291|dock2
  -GOLD-   2262018573D 1   1.00000     0.00000
 Structure written by MMmdl.
 35 37  0  0  0  0  0  0  0  0  1 V2000
  151.3037  136.5253  155.0924 O   0  0  0  0  0  0  0  0  0  0  0  0
  150.7005  137.7643  154.7868 C   0  0  0  0  0  0  0  0  0  0  0  0
  151.5646  138.9237  155.3082 C   0  0  1  0  0  0  0  0  0  0  0  0
  151.0419  140.1789  154.8630 O   0  0  0  0  0  0  0  0  0  0  0  0
  151.0304  141.1109  155.9070 C   0  0  1  0  0  0  0  0  0  0  0  0
  149.6148  141.2822  156.3862 N   0  0  0  0  0  0  0  0  0  0  0  0
  149.1831  141.2972  157.6557 C   0  0  0  0  0  0  0  0  0  0  0  0
  147.8797  141.4681  157.7942 N   0  0  0  0  0  0  0  0  0  0  0  0
  147.4118  141.5537  156.4852 C   0  0  0  0  0  0  0  0  0  0  0  0
  148.4689  141.4232  155.5961 C   0  0  0  0  0  0  0  0  0  0  0  0
  148.6183  141.4180  154.2222 N   0  0  0  0  0  0  0  0  0  0  0  0
  147.5663  141.2124  153.4942 C   0  0  0  0  0  0  0  0  0  0  0  0
  146.2350  141.0771  153.8609 N   0  0  0  0  0  0  0  0  0  0  0  0
  145.5595  141.9880  154.7689 C   0  0  0  0  0  0  0  0  0  0  0  0
  145.9489  141.7863  156.2383 C   0  0  1  0  0  0  0  0  0  0  0  0
  145.2585  140.6668  156.7544 O   0  0  0  0  0  0  0  0  0  0  0  0
  151.8928  140.5146  157.0198 C   0  0  0  0  0  0  0  0  0  0  0  0
  151.6411  139.0330  156.8358 C   0  0  2  0  0  0  0  0  0  0  0  0
  152.7010  138.2747  157.3801 O   0  0  0  0  0  0  0  0  0  0  0  0
  152.5710  138.8539  154.8910 H   0  0  0  0  0  0  0  0  0  0  0  0
  151.3359  142.1039  155.5756 H   0  0  0  0  0  0  0  0  0  0  0  0
  145.6123  142.6541  156.8062 H   0  0  0  0  0  0  0  0  0  0  0  0
  150.6956  138.7483  157.2998 H   0  0  0  0  0  0  0  0  0  0  0  0
  150.6236  135.8780  155.1996 H   0  0  0  0  0  0  0  0  0  0  0  0
  150.5970  137.8341  153.7038 H   0  0  0  0  0  0  0  0  0  0  0  0
  149.6973  137.7925  155.2110 H   0  0  0  0  0  0  0  0  0  0  0  0
  149.8351  141.1820  158.5074 H   0  0  0  0  0  0  0  0  0  0  0  0
  147.6925  141.1320  152.4136 H   0  0  0  0  0  0  0  0  0  0  0  0
  145.5895  140.6815  153.1928 H   0  0  0  0  0  0  0  0  0  0  0  0
  145.8276  143.0023  154.4696 H   0  0  0  0  0  0  0  0  0  0  0  0
  144.4797  141.9082  154.6399 H   0  0  0  0  0  0  0  0  0  0  0  0
  144.5147  140.4960  156.1969 H   0  0  0  0  0  0  0  0  0  0  0  0
  152.9351  140.7657  156.8162 H   0  0  0  0  0  0  0  0  0  0  0  0
  151.6253  140.8907  158.0075 H   0  0  0  0  0  0  0  0  0  0  0  0
  153.4084  138.2604  156.7533 H   0  0  0  0  0  0  0  0  0  0  0  0
  1  2  1  0  0  0  0
  1 24  1  0  0  0  0
  2  3  1  0  0  0  0
  2 25  1  0  0  0  0
  2 26  1  0  0  0  0
  3 20  1  0  0  0  0
  3 18  1  0  0  0  0
  3  4  1  0  0  0  0
  4  5  1  0  0  0  0
  5 21  1  0  0  0  0
  5  6  1  0  0  0  0
  5 17  1  0  0  0  0
  6 10  1  0  0  0  0
  6  7  1  0  0  0  0
  7  8  2  0  0  0  0
  7 27  1  0  0  0  0
  8  9  1  0  0  0  0
  9 15  1  0  0  0  0
  9 10  2  0  0  0  0
 10 11  1  0  0  0  0
 11 12  2  0  0  0  0
 12 13  1  0  0  0  0
 12 28  1  0  0  0  0
 13 14  1  0  0  0  0
 13 29  1  0  0  0  0
 14 15  1  0  0  0  0
 14 30  1  0  0  0  0
 14 31  1  0  0  0  0
 15 22  1  0  0  0  0
 15 16  1  0  0  0  0
 16 32  1  0  0  0  0
 17 18  1  0  0  0  0
 17 33  1  0  0  0  0
 17 34  1  0  0  0  0
 18 23  1  0  0  0  0
 18 19  1  0  0  0  0
 19 35  1  0  0  0  0
M  END
> <s_m_source_file>
AV-unprocessed.smi

> <i_m_source_file_index>
157

> <i_lp_mmshare_version>
43012

> <i_f3d_flags>
0

> <s_epik_input>
W09IXVtDSDJdW0NASF0xT1tDQEhdKFtDSDJdW0NAQEhdMVtPSF0pbihbY0hdbjIpYyhjMjMpTj1bQ0hdW05IXVtDSDJdW0NASF0zW09IXQ==

> <s_epik_cmdline>
J2VwaWtfcHl0aG9uJywgJy1waCcsICc3LjAnLCAnLXRuJywgJzgnLCAnLW1hJywgJzIwMCcsICctbWV0YWxfYmluZGluZycsICctaW1hZScsICc8aW5maWxlLm1hZT4nLCAnLW9tYWUnLCAnPG91dGZpbGUubWFlPic=

> <r_lp_tautomer_probability>
1

> <r_epik_Ionization_Penalty>
0.0357149

> <r_epik_Ionization_Penalty_Charging>
0.0355056

> <r_epik_Ionization_Penalty_Neutral>
0.000209255

> <r_epik_State_Penalty>
0.0296046

> <r_epik_Charging_Adjusted_Penalty>
0.0651102

> <i_epik_Tot_Q>
0

> <i_epik_Tot_abs_Q>
0

> <r_epik_Metal_State_Penalty>
3.03559e-05

> <b_epik_Metal_Only>
0

> <s_epik_Chemistry_Notes>
This compound has an imine and may undergo hydrolysis. This compound contains an acetal/aminal-like group ( X-CH(R)-Y where X, Y are N, S, or O) that may be acid/base labile, releasing an aldehyde.

> <s_lp_Force_Field>
OPLS_2005

> <r_lp_Energy>
41.3094

> <b_lp_Chiralities_Consistent>
1

> <s_lp_Variant>
AV-unprocessed.smi:157-1

> <Gold.Version>
5.8.1

> <Gold.Id.Protein>
6NUR|6NUR_protein|mol2

> <Gold.PLP.Fitness>
37.2755

> <Gold.PLP.PLP>
-26.3670

> <Gold.PLP.part.hbond>
-3.4138

> <Gold.PLP.part.metal>
0.0000

> <Gold.PLP.part.buried>
-5.9827

> <Gold.PLP.part.nonpolar>
-17.9960

> <Gold.PLP.part.repulsive>
0.2998

> <Gold.PLP.ligand.clash>
0.0000

> <Gold.PLP.ligand.torsion>
0.4673

> <Gold.PLP.Chemscore.Hbond>
2.9913

> <Gold.PLP.Chemscore.CHOScore>
0.9495

> <Gold.PLP.Chemscore.Metal>
0.0000

> <Gold.Chemscore.Hbonds>
donor molecule, donor type, donor heavy atom, donor atom, acceptor molecule, acceptor atom, score
      L1  H    13    29       P1 10175  0.97
      P1  H  7989  7998       L1     4  1.00
      P1  H 10752 10765       L1     1  1.00
      L1  C    12    28       P1  7957  0.97

> <Gold.PLP.Chemscore.Internal.Correction>
0.0209

> <Gold.Rescore>
     Score         DG    S(hbond)    S(metal)    S(lipo)     H(rot)  DE(clash)    DE(int)     intcor
      6.41      -8.37       2.54        0.00      31.86       3.64       0.00       1.96       ----

> <Gold.Chemscore.Fitness>
6.4070

> <Gold.Chemscore.DG>
-8.3699

> <Gold.Chemscore.ZeroCoef>
-5.4800

> <Gold.Chemscore.Hbond>
2.5363

> <Gold.Chemscore.Metal>
0.0000

> <Gold.Chemscore.Lipo>
31.8563

> <Gold.Chemscore.Internal_Hbond>
0.0000

> <Gold.Chemscore.DEClash>
0.0000

> <Gold.Chemscore.DEInternal>
1.9629

> <Gold.Chemscore.Rot>
3.6362

> <Gold.Chemscore.Internal.Correction>
   9.000000E+99

> <Gold.Chemscore.Hbonds>
donor molecule, donor type, donor heavy atom, donor atom, acceptor molecule, acceptor atom, score
      L1  H    13    29       P1 10175  0.68
      P1  H  7989  7998       L1     4  0.72
      P1  H 10752 10765       L1     1  0.66

> <Gold.Chemscore.Hbond.Weighted>
-8.4714

> <Gold.Chemscore.Metal.Weighted>
-0.0000

> <Gold.Chemscore.Lipo.Weighted>
-3.7272

> <Gold.Chemscore.Internal_Hbond.Weighted>
0.0000

> <Gold.Chemscore.DEClash.Weighted>
0.0000

> <Gold.Chemscore.DEInternal.Weighted>
1.9629

> <Gold.Chemscore.Rot.Weighted>
9.3087

> <Gold.Chemscore.Internal.Correction.Weighted>
   9.000000E+99

> <Gold.Protein.RotatedTorsions>
[ 6907 6896 6895 6894 ] final  172.04 input  -60.11 | X-H torsion
[ 7974 7965 7964 7962 ] final -153.08 input  175.53 | X-H torsion
[ 8008 7997 7996 7995 ] final  151.50 input   59.86 | X-H torsion
[ 10167 10162 10161 10158 ] final    2.90 input  -65.29 | X-H torsion
[ 10718 10713 10712 10709 ] final -137.92 input   66.30 | X-H torsion
[ 10763 10752 10751 10750 ] final  159.35 input  -60.55 | X-H torsion
[ 11005 11000 10999 10996 ] final   74.43 input  -57.11 | X-H torsion

> <Gold.Protein.ActiveResidues>
 VAL166  LYS551  ARG553  GLY616  TRP617  ASP618  TYR619  PRO620  LYS621  CYS622 
 ASP623  PHE694  ASN695  SER759  ASP760  ASP761  ALA762  ILE779  LEU786  VAL792 
 PHE793  MET794  SER795  GLU796  ALA797  LYS798  CYS799  TRP800  GLU811  SER814 

> <Gold.Protein.RotatedAtoms>
  151.7906  133.3359  159.3497 H   0  0  0  0  0  0  0  0  0  0  0  0  # atno 6907 bound_to 6896
  150.7393  134.5846  159.5965 H   0  0  0  0  0  0  0  0  0  0  0  0  # atno 6908 bound_to 6896
  152.3213  134.7378  160.0364 H   0  0  0  0  0  0  0  0  0  0  0  0  # atno 6909 bound_to 6896
  144.7759  140.4574  143.5873 H   0  0  0  0  0  0  0  0  0  0  0  0  # atno 7974 bound_to 7965
  156.2671  140.2046  156.6186 H   0  0  0  0  0  0  0  0  0  0  0  0  # atno 8008 bound_to 7997
  154.6775  140.0543  157.0255 H   0  0  0  0  0  0  0  0  0  0  0  0  # atno 8009 bound_to 7997
  155.1048  140.3209  155.4540 H   0  0  0  0  0  0  0  0  0  0  0  0  # atno 8010 bound_to 7997
  140.6613  143.7297  150.7743 H   0  0  0  0  0  0  0  0  0  0  0  0  # atno 10167 bound_to 10162
  156.2936  130.7389  151.1421 H   0  0  0  0  0  0  0  0  0  0  0  0  # atno 10718 bound_to 10713
  154.2304  135.2778  155.2892 H   0  0  0  0  0  0  0  0  0  0  0  0  # atno 10763 bound_to 10752
  154.5629  135.5642  153.7027 H   0  0  0  0  0  0  0  0  0  0  0  0  # atno 10764 bound_to 10752
  153.0021  135.6302  154.2445 H   0  0  0  0  0  0  0  0  0  0  0  0  # atno 10765 bound_to 10752
  139.9391  134.7432  156.1147 H   0  0  0  0  0  0  0  0  0  0  0  0  # atno 11005 bound_to 11000
  145.6187  139.1521  143.3035 LP  0  0  0  0  0  0  0  0  0  0  0  0  # atno 17320 bound_to 7965
  146.1938  140.6298  142.9133 LP  0  0  0  0  0  0  0  0  0  0  0  0  # atno 17321 bound_to 7965
  140.0966  143.4827  152.2448 LP  0  0  0  0  0  0  0  0  0  0  0  0  # atno 17342 bound_to 10162
  139.5847  144.7526  151.3550 LP  0  0  0  0  0  0  0  0  0  0  0  0  # atno 17343 bound_to 10162
  157.7349  131.0577  150.5499 LP  0  0  0  0  0  0  0  0  0  0  0  0  # atno 17370 bound_to 10713
  156.5618  130.4257  149.6059 LP  0  0  0  0  0  0  0  0  0  0  0  0  # atno 17371 bound_to 10713
  141.1018  133.6674  156.2772 LP  0  0  0  0  0  0  0  0  0  0  0  0  # atno 17394 bound_to 11000
  140.5998  134.5567  157.5515 LP  0  0  0  0  0  0  0  0  0  0  0  0  # atno 17395 bound_to 11000

$$$$
