AV-unprocessed.smi:1005|AV-procd|sdf|4371|dock5
  -GOLD-   22720 2283D 1   1.00000     0.00000
 Structure written by MMmdl.
 57 59  0  0  0  0  0  0  0  0  3 V2000
  152.4514  142.6737  158.6282 C   0  0  0  0  0  0  0  0  0  0  0  0
  151.4534  142.0395  157.6749 C   0  0  0  0  0  0  0  0  0  0  0  0
  151.9163  141.1077  156.7197 C   0  0  0  0  0  0  0  0  0  0  0  0
  151.0287  140.5149  155.7956 C   0  0  0  0  0  0  0  0  0  0  0  0
  151.2668  139.5947  154.7908 N   0  0  0  0  0  0  0  0  0  0  0  0
  150.0530  139.4451  154.2706 C   0  0  0  0  0  0  0  0  0  0  0  0
  149.0484  140.1439  154.8345 N   0  0  0  0  0  0  0  0  0  0  0  0
  147.6504  140.1258  154.4323 C   0  0  0  0  0  0  0  0  0  0  0  0
  147.2835  141.2558  153.4477 C   0  0  1  0  0  0  0  0  0  0  0  0
  146.4476  140.7062  152.4499 O   0  0  0  0  0  0  0  0  0  0  0  0
  146.5608  142.4539  154.1101 C   0  0  0  0  0  0  0  0  0  0  0  0
  145.2027  142.1107  154.6126 N   0  3  1  0  0  0  0  0  0  0  0  0
  145.2260  141.2954  155.8514 C   0  0  0  0  0  0  0  0  0  0  0  0
  145.5358  142.1650  157.0837 C   0  0  0  0  0  0  0  0  0  0  0  0
  144.5824  143.2176  157.1745 O   0  0  0  0  0  0  0  0  0  0  0  0
  144.6164  144.0893  156.0487 C   0  0  2  0  0  0  0  0  0  0  0  0
  143.5846  145.2084  156.2794 C   0  0  0  0  0  0  0  0  0  0  0  0
  143.8756  146.4287  155.4845 N   0  3  0  0  0  0  0  0  0  0  0  0
  142.6689  147.0400  154.8828 C   0  0  0  0  0  0  0  0  0  0  0  0
  144.6561  147.4217  156.2552 C   0  0  0  0  0  0  0  0  0  0  0  0
  144.2845  143.2692  154.7818 C   0  0  0  0  0  0  0  0  0  0  0  0
  149.6516  140.8813  155.8512 C   0  0  0  0  0  0  0  0  0  0  0  0
  149.1787  141.8035  156.8028 C   0  0  0  0  0  0  0  0  0  0  0  0
  150.0785  142.3820  157.7226 C   0  0  0  0  0  0  0  0  0  0  0  0
  149.5544  143.3716  158.7478 C   0  0  0  0  0  0  0  0  0  0  0  0
  153.4232  142.1823  158.5707 H   0  0  0  0  0  0  0  0  0  0  0  0
  152.1079  142.6092  159.6603 H   0  0  0  0  0  0  0  0  0  0  0  0
  152.5920  143.7258  158.3786 H   0  0  0  0  0  0  0  0  0  0  0  0
  152.9642  140.8474  156.6811 H   0  0  0  0  0  0  0  0  0  0  0  0
  149.8828  138.7803  153.4362 H   0  0  0  0  0  0  0  0  0  0  0  0
  147.4346  139.1520  153.9906 H   0  0  0  0  0  0  0  0  0  0  0  0
  147.0365  140.2027  155.3314 H   0  0  0  0  0  0  0  0  0  0  0  0
  148.1975  141.5762  152.9548 H   0  0  0  0  0  0  0  0  0  0  0  0
  145.5464  140.7861  152.7222 H   0  0  0  0  0  0  0  0  0  0  0  0
  147.1806  142.8194  154.9305 H   0  0  0  0  0  0  0  0  0  0  0  0
  146.4727  143.2923  153.4223 H   0  0  0  0  0  0  0  0  0  0  0  0
  144.2466  140.8316  155.9762 H   0  0  0  0  0  0  0  0  0  0  0  0
  145.9418  140.4774  155.7623 H   0  0  0  0  0  0  0  0  0  0  0  0
  145.4785  141.5617  157.9898 H   0  0  0  0  0  0  0  0  0  0  0  0
  146.5468  142.5728  157.0405 H   0  0  0  0  0  0  0  0  0  0  0  0
  145.6097  144.5264  155.9527 H   0  0  0  0  0  0  0  0  0  0  0  0
  142.5778  144.8570  156.0467 H   0  0  0  0  0  0  0  0  0  0  0  0
  143.5833  145.4574  157.3419 H   0  0  0  0  0  0  0  0  0  0  0  0
  141.9873  147.3849  155.6599 H   0  0  0  0  0  0  0  0  0  0  0  0
  142.1333  146.3396  154.2434 H   0  0  0  0  0  0  0  0  0  0  0  0
  142.9403  147.8980  154.2673 H   0  0  0  0  0  0  0  0  0  0  0  0
  144.0954  147.7711  157.1234 H   0  0  0  0  0  0  0  0  0  0  0  0
  144.9017  148.2856  155.6365 H   0  0  0  0  0  0  0  0  0  0  0  0
  145.5950  146.9906  156.6043 H   0  0  0  0  0  0  0  0  0  0  0  0
  144.2842  143.9138  153.9048 H   0  0  0  0  0  0  0  0  0  0  0  0
  143.2691  142.8785  154.8623 H   0  0  0  0  0  0  0  0  0  0  0  0
  148.1342  142.0748  156.8226 H   0  0  0  0  0  0  0  0  0  0  0  0
  148.4993  143.5933  158.5846 H   0  0  0  0  0  0  0  0  0  0  0  0
  150.1046  144.3113  158.6925 H   0  0  0  0  0  0  0  0  0  0  0  0
  149.6602  142.9660  159.7542 H   0  0  0  0  0  0  0  0  0  0  0  0
  144.4717  146.1399  154.7214 H   0  0  0  0  0  0  0  0  0  0  0  0
  144.7988  141.5190  153.9001 H   0  0  0  0  0  0  0  0  0  0  0  0
  1  2  1  0  0  0  0
  1 26  1  0  0  0  0
  1 27  1  0  0  0  0
  1 28  1  0  0  0  0
  2 24  1  0  0  0  0
  2  3  2  0  0  0  0
  3  4  1  0  0  0  0
  3 29  1  0  0  0  0
  4 22  2  0  0  0  0
  4  5  1  0  0  0  0
  5  6  2  0  0  0  0
  6  7  1  0  0  0  0
  6 30  1  0  0  0  0
  7  8  1  0  0  0  0
  7 22  1  0  0  0  0
  8  9  1  0  0  0  0
  8 31  1  0  0  0  0
  8 32  1  0  0  0  0
  9 10  1  0  0  0  0
  9 11  1  0  0  0  0
  9 33  1  0  0  0  0
 10 34  1  0  0  0  0
 11 12  1  0  0  0  0
 11 35  1  0  0  0  0
 11 36  1  0  0  0  0
 12 21  1  0  0  0  0
 12 13  1  0  0  0  0
 12 57  1  0  0  0  0
 13 14  1  0  0  0  0
 13 37  1  0  0  0  0
 13 38  1  0  0  0  0
 14 15  1  0  0  0  0
 14 39  1  0  0  0  0
 14 40  1  0  0  0  0
 15 16  1  0  0  0  0
 16 17  1  0  0  0  0
 16 21  1  0  0  0  0
 16 41  1  0  0  0  0
 17 18  1  0  0  0  0
 17 42  1  0  0  0  0
 17 43  1  0  0  0  0
 18 19  1  0  0  0  0
 18 20  1  0  0  0  0
 18 56  1  0  0  0  0
 19 44  1  0  0  0  0
 19 45  1  0  0  0  0
 19 46  1  0  0  0  0
 20 47  1  0  0  0  0
 20 48  1  0  0  0  0
 20 49  1  0  0  0  0
 21 50  1  0  0  0  0
 21 51  1  0  0  0  0
 22 23  1  0  0  0  0
 23 24  2  0  0  0  0
 23 52  1  0  0  0  0
 24 25  1  0  0  0  0
 25 53  1  0  0  0  0
 25 54  1  0  0  0  0
 25 55  1  0  0  0  0
M  CHG  1  12   1
M  CHG  1  18   1
M  END
> <s_m_source_file>
AV-unprocessed.smi

> <i_m_source_file_index>
1005

> <i_lp_mmshare_version>
43012

> <i_f3d_flags>
0

> <s_epik_input>
W0NIM11jKFtjSF0xKWMoW0NIM10pW2NIXWMoYzEyKW4oW2NIXW4yKVtDSDJdW0NASF0oW09IXSlbQ0gyXU4zW0NIMl1bQ0gyXU9bQ0BIXShbQ0gyXTMpW0NIMl1OKFtDSDNdKVtDSDNd

> <s_epik_cmdline>
J2VwaWtfcHl0aG9uJywgJy1waCcsICc3LjAnLCAnLXRuJywgJzgnLCAnLW1hJywgJzIwMCcsICctbWV0YWxfYmluZGluZycsICctaW1hZScsICc8aW5maWxlLm1hZT4nLCAnLW9tYWUnLCAnPG91dGZpbGUubWFlPic=

> <r_epik_Ionization_Penalty>
1.0968

> <r_epik_Ionization_Penalty_Charging>
1.0096

> <r_epik_Ionization_Penalty_Neutral>
0.0871956

> <r_epik_State_Penalty>
1.31185

> <r_epik_Charging_Adjusted_Penalty>
2.32145

> <i_epik_Tot_Q>
2

> <i_epik_Tot_abs_Q>
2

> <r_epik_Metal_State_Penalty>
1.22442

> <b_epik_Metal_Only>
0

> <s_lp_Force_Field>
OPLS_2005

> <r_lp_Energy>
34.2577

> <b_lp_Chiralities_Consistent>
1

> <s_lp_Variant>
AV-unprocessed.smi:1005-10

> <Gold.Version>
5.8.1

> <Gold.Id.Protein>
6NUR|6NUR_protein|mol2

> <Gold.PLP.Fitness>
45.4388

> <Gold.PLP.PLP>
-36.7032

> <Gold.PLP.part.hbond>
-3.0000

> <Gold.PLP.part.metal>
0.0000

> <Gold.PLP.part.buried>
-4.6386

> <Gold.PLP.part.nonpolar>
-29.8366

> <Gold.PLP.part.repulsive>
0.0864

> <Gold.PLP.ligand.clash>
0.0000

> <Gold.PLP.ligand.torsion>
1.8888

> <Gold.PLP.Chemscore.Hbond>
3.4500

> <Gold.PLP.Chemscore.CHOScore>
0.6977

> <Gold.PLP.Chemscore.Metal>
0.0000

> <Gold.Chemscore.Hbonds>
donor molecule, donor type, donor heavy atom, donor atom, acceptor molecule, acceptor atom, score
      L1  H    10    34       P1 10175  1.00
      L1  H    12    57       P1 10175  1.76
      P1  H  7989  7998       L1     5  0.38
      L1  C     6    30       P1  7957  0.55

> <Gold.PLP.Chemscore.Internal.Correction>
0.0699

> <Gold.Rescore>
     Score         DG    S(hbond)    S(metal)    S(lipo)     H(rot)  DE(clash)    DE(int)     intcor
     12.64     -15.87       1.69        0.00      94.91       2.48       0.46       2.77       ----

> <Gold.Chemscore.Fitness>
12.6392

> <Gold.Chemscore.DG>
-15.8720

> <Gold.Chemscore.ZeroCoef>
-5.4800

> <Gold.Chemscore.Hbond>
1.6885

> <Gold.Chemscore.Metal>
0.0000

> <Gold.Chemscore.Lipo>
94.9124

> <Gold.Chemscore.Internal_Hbond>
0.0000

> <Gold.Chemscore.DEClash>
0.4587

> <Gold.Chemscore.DEInternal>
2.7741

> <Gold.Chemscore.Rot>
2.4814

> <Gold.Chemscore.Internal.Correction>
   9.000000E+99

> <Gold.Chemscore.Hbonds>
donor molecule, donor type, donor heavy atom, donor atom, acceptor molecule, acceptor atom, score
      L1  H    10    34       P1 10175  0.33
      L1  H    12    57       P1 10175  0.19

> <Gold.Chemscore.Hbond.Weighted>
-5.6396

> <Gold.Chemscore.Metal.Weighted>
-0.0000

> <Gold.Chemscore.Lipo.Weighted>
-11.1047

> <Gold.Chemscore.Internal_Hbond.Weighted>
0.0000

> <Gold.Chemscore.DEClash.Weighted>
0.4587

> <Gold.Chemscore.DEInternal.Weighted>
2.7741

> <Gold.Chemscore.Rot.Weighted>
6.3524

> <Gold.Chemscore.Internal.Correction.Weighted>
   9.000000E+99

> <Gold.Protein.RotatedTorsions>
[ 6907 6896 6895 6894 ] final  -12.67 input  -60.11 | X-H torsion
[ 7974 7965 7964 7962 ] final  -15.12 input  175.53 | X-H torsion
[ 8008 7997 7996 7995 ] final   83.81 input   59.86 | X-H torsion
[ 10167 10162 10161 10158 ] final -170.01 input  -65.29 | X-H torsion
[ 10718 10713 10712 10709 ] final -139.99 input   66.30 | X-H torsion
[ 10763 10752 10751 10750 ] final  -66.98 input  -60.55 | X-H torsion
[ 11005 11000 10999 10996 ] final   25.16 input  -57.11 | X-H torsion

> <Gold.Protein.ActiveResidues>
 VAL166  LYS551  ARG553  GLY616  TRP617  ASP618  TYR619  PRO620  LYS621  CYS622 
 ASP623  PHE694  ASN695  SER759  ASP760  ASP761  ALA762  ILE779  LEU786  VAL792 
 PHE793  MET794  SER795  GLU796  ALA797  LYS798  CYS799  TRP800  GLU811  SER814 

> <Gold.Protein.RotatedAtoms>
  151.3669  135.0915  159.9452 H   0  0  0  0  0  0  0  0  0  0  0  0  # atno 6907 bound_to 6896
  152.5146  133.9203  159.7541 H   0  0  0  0  0  0  0  0  0  0  0  0  # atno 6908 bound_to 6896
  150.9609  133.6392  159.2784 H   0  0  0  0  0  0  0  0  0  0  0  0  # atno 6909 bound_to 6896
  146.2045  140.3447  142.8411 H   0  0  0  0  0  0  0  0  0  0  0  0  # atno 7974 bound_to 7965
  155.9288  140.3416  155.6232 H   0  0  0  0  0  0  0  0  0  0  0  0  # atno 8008 bound_to 7997
  155.7183  140.0780  157.2360 H   0  0  0  0  0  0  0  0  0  0  0  0  # atno 8009 bound_to 7997
  154.4081  140.1610  156.2361 H   0  0  0  0  0  0  0  0  0  0  0  0  # atno 8010 bound_to 7997
  139.5887  144.1260  152.1608 H   0  0  0  0  0  0  0  0  0  0  0  0  # atno 10167 bound_to 10162
  156.3171  130.7514  151.1603 H   0  0  0  0  0  0  0  0  0  0  0  0  # atno 10718 bound_to 10713
  154.3677  135.6102  153.5724 H   0  0  0  0  0  0  0  0  0  0  0  0  # atno 10763 bound_to 10752
  152.9791  135.5830  154.4558 H   0  0  0  0  0  0  0  0  0  0  0  0  # atno 10764 bound_to 10752
  154.4307  135.2848  155.1892 H   0  0  0  0  0  0  0  0  0  0  0  0  # atno 10765 bound_to 10752
  140.3508  134.2231  155.7680 H   0  0  0  0  0  0  0  0  0  0  0  0  # atno 11005 bound_to 11000
  144.8761  140.7337  143.6016 LP  0  0  0  0  0  0  0  0  0  0  0  0  # atno 17320 bound_to 7965
  145.3367  139.1744  143.4508 LP  0  0  0  0  0  0  0  0  0  0  0  0  # atno 17321 bound_to 7965
  140.0830  144.5685  150.7109 LP  0  0  0  0  0  0  0  0  0  0  0  0  # atno 17342 bound_to 10162
  140.7154  143.2540  151.4449 LP  0  0  0  0  0  0  0  0  0  0  0  0  # atno 17343 bound_to 10162
  157.7404  131.0517  150.5169 LP  0  0  0  0  0  0  0  0  0  0  0  0  # atno 17370 bound_to 10713
  156.5317  130.4186  149.6198 LP  0  0  0  0  0  0  0  0  0  0  0  0  # atno 17371 bound_to 10713
  141.2012  133.7967  157.0450 LP  0  0  0  0  0  0  0  0  0  0  0  0  # atno 17394 bound_to 11000
  140.0704  134.9705  157.1458 LP  0  0  0  0  0  0  0  0  0  0  0  0  # atno 17395 bound_to 11000

$$$$
