AV-unprocessed.smi:2726|AV-procd|sdf|10520|dock2
  -GOLD-   2272014563D 1   1.00000     0.00000
 Structure written by MMmdl.
 42 43  0  0  0  0  0  0  0  0  2 V2000
  145.8791  130.7949  152.4090 C   0  0  0  0  0  0  0  0  0  0  0  0
  145.6852  132.1743  151.7547 C   0  0  0  0  0  0  0  0  0  0  0  0
  147.0116  132.9585  151.8418 C   0  0  0  0  0  0  0  0  0  0  0  0
  145.2661  131.9767  150.2823 C   0  0  0  0  0  0  0  0  0  0  0  0
  144.6283  132.8598  152.5090 N   0  0  0  0  0  0  0  0  0  0  0  0
  144.1404  134.0984  152.3240 C   0  0  0  0  0  0  0  0  0  0  0  0
  144.5265  134.8674  151.4444 O   0  0  0  0  0  0  0  0  0  0  0  0
  143.1964  134.3846  153.2374 N   0  0  0  0  0  0  0  0  0  0  0  0
  142.4421  135.5804  153.3812 C   0  0  0  0  0  0  0  0  0  0  0  0
  141.0850  135.4628  153.7503 C   0  0  0  0  0  0  0  0  0  0  0  0
  140.2945  136.6219  153.8907 C   0  0  0  0  0  0  0  0  0  0  0  0
  140.8729  137.8893  153.6470 C   0  0  0  0  0  0  0  0  0  0  0  0
  140.1775  139.1012  153.7602 N   0  0  0  0  0  0  0  0  0  0  0  0
  138.9955  139.2159  152.9223 C   0  0  0  0  0  0  0  0  0  0  0  0
  138.1961  140.3861  153.5011 C   0  0  0  0  0  0  0  0  0  0  0  0
  138.6833  140.5181  154.9490 C   0  0  0  0  0  0  0  0  0  0  0  0
  139.7458  139.4272  155.1089 C   0  0  0  0  0  0  0  0  0  0  0  0
  142.1717  137.9593  153.2831 N   0  3  0  0  0  0  0  0  0  0  0  0
  142.9640  136.8748  153.1399 C   0  0  0  0  0  0  0  0  0  0  0  0
  146.6590  130.2226  151.9056 H   0  0  0  0  0  0  0  0  0  0  0  0
  144.9635  130.2030  152.3716 H   0  0  0  0  0  0  0  0  0  0  0  0
  146.1679  130.8882  153.4568 H   0  0  0  0  0  0  0  0  0  0  0  0
  147.3038  133.1303  152.8784 H   0  0  0  0  0  0  0  0  0  0  0  0
  146.9484  133.9301  151.3519 H   0  0  0  0  0  0  0  0  0  0  0  0
  147.8226  132.4114  151.3602 H   0  0  0  0  0  0  0  0  0  0  0  0
  146.0051  131.3857  149.7401 H   0  0  0  0  0  0  0  0  0  0  0  0
  145.1667  132.9238  149.7520 H   0  0  0  0  0  0  0  0  0  0  0  0
  144.3112  131.4552  150.2075 H   0  0  0  0  0  0  0  0  0  0  0  0
  144.2275  132.3257  153.2662 H   0  0  0  0  0  0  0  0  0  0  0  0
  143.0396  133.6842  153.9473 H   0  0  0  0  0  0  0  0  0  0  0  0
  140.6499  134.4909  153.9326 H   0  0  0  0  0  0  0  0  0  0  0  0
  139.2585  136.5318  154.1826 H   0  0  0  0  0  0  0  0  0  0  0  0
  139.2686  139.3939  151.8817 H   0  0  0  0  0  0  0  0  0  0  0  0
  138.4025  138.3013  152.9621 H   0  0  0  0  0  0  0  0  0  0  0  0
  138.4148  141.3028  152.9521 H   0  0  0  0  0  0  0  0  0  0  0  0
  137.1219  140.2099  153.4373 H   0  0  0  0  0  0  0  0  0  0  0  0
  139.1237  141.5037  155.1048 H   0  0  0  0  0  0  0  0  0  0  0  0
  137.8751  140.3978  155.6711 H   0  0  0  0  0  0  0  0  0  0  0  0
  139.3149  138.5515  155.5961 H   0  0  0  0  0  0  0  0  0  0  0  0
  140.5842  139.7708  155.7158 H   0  0  0  0  0  0  0  0  0  0  0  0
  143.9745  137.0905  152.8275 H   0  0  0  0  0  0  0  0  0  0  0  0
  142.5756  138.8792  153.1047 H   0  0  0  0  0  0  0  0  0  0  0  0
  1  2  1  0  0  0  0
  1 20  1  0  0  0  0
  1 21  1  0  0  0  0
  1 22  1  0  0  0  0
  2  3  1  0  0  0  0
  2  4  1  0  0  0  0
  2  5  1  0  0  0  0
  3 23  1  0  0  0  0
  3 24  1  0  0  0  0
  3 25  1  0  0  0  0
  4 26  1  0  0  0  0
  4 27  1  0  0  0  0
  4 28  1  0  0  0  0
  5  6  1  0  0  0  0
  5 29  1  0  0  0  0
  6  7  2  0  0  0  0
  6  8  1  0  0  0  0
  8  9  1  0  0  0  0
  8 30  1  0  0  0  0
  9 19  1  0  0  0  0
  9 10  2  0  0  0  0
 10 11  1  0  0  0  0
 10 31  1  0  0  0  0
 11 12  2  0  0  0  0
 11 32  1  0  0  0  0
 12 13  1  0  0  0  0
 12 18  1  0  0  0  0
 13 17  1  0  0  0  0
 13 14  1  0  0  0  0
 14 15  1  0  0  0  0
 14 33  1  0  0  0  0
 14 34  1  0  0  0  0
 15 16  1  0  0  0  0
 15 35  1  0  0  0  0
 15 36  1  0  0  0  0
 16 17  1  0  0  0  0
 16 37  1  0  0  0  0
 16 38  1  0  0  0  0
 17 39  1  0  0  0  0
 17 40  1  0  0  0  0
 18 19  2  0  0  0  0
 18 42  1  0  0  0  0
 19 41  1  0  0  0  0
M  CHG  1  18   1
M  END
> <s_m_source_file>
AV-unprocessed.smi

> <i_m_source_file_index>
2726

> <i_lp_mmshare_version>
43012

> <i_f3d_flags>
0

> <s_epik_input>
W0NIM11DKFtDSDNdKShbQ0gzXSlbTkhdQyg9TylbTkhdYzFbY0hdW2NIXWMobltjSF0xKU4yW0NIMl1bQ0gyXVtDSDJdW0NIMl0y

> <s_epik_cmdline>
J2VwaWtfcHl0aG9uJywgJy1waCcsICc3LjAnLCAnLXRuJywgJzgnLCAnLW1hJywgJzIwMCcsICctbWV0YWxfYmluZGluZycsICctaW1hZScsICc8aW5maWxlLm1hZT4nLCAnLW9tYWUnLCAnPG91dGZpbGUubWFlPic=

> <r_lp_tautomer_probability>
0.999994

> <r_epik_Ionization_Penalty>
1.07826

> <r_epik_Ionization_Penalty_Charging>
1.07824

> <r_epik_Ionization_Penalty_Neutral>
2.30307e-05

> <r_epik_State_Penalty>
1.13344

> <r_epik_Charging_Adjusted_Penalty>
2.21168

> <i_epik_Tot_Q>
1

> <i_epik_Tot_abs_Q>
1

> <r_epik_Metal_State_Penalty>
1.22394

> <b_epik_Metal_Only>
0

> <s_lp_Force_Field>
OPLS_2005

> <r_lp_Energy>
40.4449

> <b_lp_Chiralities_Consistent>
1

> <s_lp_Variant>
AV-unprocessed.smi:2726-2

> <Gold.Version>
5.8.1

> <Gold.Id.Protein>
6NUR|6NUR_protein|mol2

> <Gold.PLP.Fitness>
40.6377

> <Gold.PLP.PLP>
-31.7837

> <Gold.PLP.part.hbond>
-2.3098

> <Gold.PLP.part.metal>
0.0000

> <Gold.PLP.part.buried>
-4.0006

> <Gold.PLP.part.nonpolar>
-27.2326

> <Gold.PLP.part.repulsive>
0.6060

> <Gold.PLP.ligand.clash>
0.0000

> <Gold.PLP.ligand.torsion>
0.3148

> <Gold.PLP.Chemscore.Hbond>
3.1554

> <Gold.PLP.Chemscore.CHOScore>
0.0000

> <Gold.PLP.Chemscore.Metal>
0.0000

> <Gold.Chemscore.Hbonds>
donor molecule, donor type, donor heavy atom, donor atom, acceptor molecule, acceptor atom, score
      L1  H     5    29       P1 10957  0.35
      L1  H     8    30       P1 10957  0.76
      L1  H    18    42       P1 10175  2.00

> <Gold.PLP.Chemscore.Internal.Correction>
0.0175

> <Gold.Rescore>
     Score         DG    S(hbond)    S(metal)    S(lipo)     H(rot)  DE(clash)    DE(int)     intcor
     15.23     -17.69       1.92        0.00      75.51       1.18       1.42       1.03       ----

> <Gold.Chemscore.Fitness>
15.2328

> <Gold.Chemscore.DG>
-17.6867

> <Gold.Chemscore.ZeroCoef>
-5.4800

> <Gold.Chemscore.Hbond>
1.9163

> <Gold.Chemscore.Metal>
0.0000

> <Gold.Chemscore.Lipo>
75.5118

> <Gold.Chemscore.Internal_Hbond>
0.0000

> <Gold.Chemscore.DEClash>
1.4242

> <Gold.Chemscore.DEInternal>
1.0297

> <Gold.Chemscore.Rot>
1.1830

> <Gold.Chemscore.Internal.Correction>
   9.000000E+99

> <Gold.Chemscore.Hbonds>
donor molecule, donor type, donor heavy atom, donor atom, acceptor molecule, acceptor atom, score
      L1  H     5    29       P1 10957  0.04
      L1  H     8    30       P1 10957  0.74
      L1  H    18    42       P1 10175  0.98

> <Gold.Chemscore.Hbond.Weighted>
-6.4003

> <Gold.Chemscore.Metal.Weighted>
-0.0000

> <Gold.Chemscore.Lipo.Weighted>
-8.8349

> <Gold.Chemscore.Internal_Hbond.Weighted>
0.0000

> <Gold.Chemscore.DEClash.Weighted>
1.4242

> <Gold.Chemscore.DEInternal.Weighted>
1.0297

> <Gold.Chemscore.Rot.Weighted>
3.0285

> <Gold.Chemscore.Internal.Correction.Weighted>
   9.000000E+99

> <Gold.Protein.RotatedTorsions>
[ 6907 6896 6895 6894 ] final  132.36 input  -60.11 | X-H torsion
[ 7974 7965 7964 7962 ] final   48.32 input  175.53 | X-H torsion
[ 8008 7997 7996 7995 ] final  -25.54 input   59.86 | X-H torsion
[ 10167 10162 10161 10158 ] final -178.59 input  -65.29 | X-H torsion
[ 10718 10713 10712 10709 ] final  -53.04 input   66.30 | X-H torsion
[ 10763 10752 10751 10750 ] final -169.69 input  -60.55 | X-H torsion
[ 11005 11000 10999 10996 ] final   25.71 input  -57.11 | X-H torsion

> <Gold.Protein.ActiveResidues>
 VAL166  LYS551  ARG553  GLY616  TRP617  ASP618  TYR619  PRO620  LYS621  CYS622 
 ASP623  PHE694  ASN695  SER759  ASP760  ASP761  ALA762  ILE779  LEU786  VAL792 
 PHE793  MET794  SER795  GLU796  ALA797  LYS798  CYS799  TRP800  GLU811  SER814 

> <Gold.Protein.RotatedAtoms>
  152.3332  133.5981  159.5823 H   0  0  0  0  0  0  0  0  0  0  0  0  # atno 6907 bound_to 6896
  150.7435  133.9836  159.3593 H   0  0  0  0  0  0  0  0  0  0  0  0  # atno 6908 bound_to 6896
  151.7709  135.0787  160.0411 H   0  0  0  0  0  0  0  0  0  0  0  0  # atno 6909 bound_to 6896
  146.0215  139.4656  142.9894 H   0  0  0  0  0  0  0  0  0  0  0  0  # atno 7974 bound_to 7965
  154.4471  140.1924  156.0635 H   0  0  0  0  0  0  0  0  0  0  0  0  # atno 8008 bound_to 7997
  156.0565  140.3302  155.7384 H   0  0  0  0  0  0  0  0  0  0  0  0  # atno 8009 bound_to 7997
  155.5477  140.0592  157.2847 H   0  0  0  0  0  0  0  0  0  0  0  0  # atno 8010 bound_to 7997
  139.5425  144.2324  152.0924 H   0  0  0  0  0  0  0  0  0  0  0  0  # atno 10167 bound_to 10162
  156.1570  130.4150  149.9854 H   0  0  0  0  0  0  0  0  0  0  0  0  # atno 10718 bound_to 10713
  154.6496  135.2909  155.0004 H   0  0  0  0  0  0  0  0  0  0  0  0  # atno 10763 bound_to 10752
  154.1101  135.6564  153.4887 H   0  0  0  0  0  0  0  0  0  0  0  0  # atno 10764 bound_to 10752
  153.0369  135.5263  154.7398 H   0  0  0  0  0  0  0  0  0  0  0  0  # atno 10765 bound_to 10752
  140.3448  134.2293  155.7686 H   0  0  0  0  0  0  0  0  0  0  0  0  # atno 11005 bound_to 11000
  145.7186  141.0082  143.1415 LP  0  0  0  0  0  0  0  0  0  0  0  0  # atno 17320 bound_to 7965
  144.6992  139.8843  143.7449 LP  0  0  0  0  0  0  0  0  0  0  0  0  # atno 17321 bound_to 7965
  140.1805  144.4849  150.6531 LP  0  0  0  0  0  0  0  0  0  0  0  0  # atno 17342 bound_to 10162
  140.6661  143.2268  151.5740 LP  0  0  0  0  0  0  0  0  0  0  0  0  # atno 17343 bound_to 10162
  156.7695  130.9181  151.3644 LP  0  0  0  0  0  0  0  0  0  0  0  0  # atno 17370 bound_to 10713
  157.6702  130.9044  150.0024 LP  0  0  0  0  0  0  0  0  0  0  0  0  # atno 17371 bound_to 10713
  141.2028  133.7927  157.0370 LP  0  0  0  0  0  0  0  0  0  0  0  0  # atno 17394 bound_to 11000
  140.0751  134.9680  157.1532 LP  0  0  0  0  0  0  0  0  0  0  0  0  # atno 17395 bound_to 11000

$$$$
