AV-unprocessed.smi:652|AV-procd|sdf|3197|dock10
  -GOLD-   22720 0123D 1   1.00000     0.00000
 Structure written by MMmdl.
 47 48  0  0  0  0  0  0  0  0  1 V2000
  147.3678  135.0611  162.8256 C   0  0  0  0  0  0  0  0  0  0  0  0
  147.2308  134.4169  161.4374 C   0  0  0  0  0  0  0  0  0  0  0  0
  147.7144  132.9606  161.4352 C   0  0  0  0  0  0  0  0  0  0  0  0
  147.9835  135.1777  160.4447 N   0  0  0  0  0  0  0  0  0  0  0  0
  148.0193  136.5162  160.3517 C   0  0  0  0  0  0  0  0  0  0  0  0
  147.4315  137.2671  161.1305 O   0  0  0  0  0  0  0  0  0  0  0  0
  148.8442  137.0989  159.1994 C   0  0  0  0  0  0  0  0  0  0  0  0
  147.9912  137.8879  158.1832 C   0  0  0  0  0  0  0  0  0  0  0  0
  148.7384  138.6615  157.1891 N   0  0  0  0  0  0  0  0  0  0  0  0
  149.6756  137.8413  156.4261 C   0  0  0  0  0  0  0  0  0  0  0  0
  150.4524  138.6739  155.3916 C   0  0  0  0  0  0  0  0  0  0  0  0
  151.1290  139.7450  156.0417 O   0  0  0  0  0  0  0  0  0  0  0  0
  150.2500  140.5919  156.7784 C   0  0  2  0  0  0  0  0  0  0  0  0
  151.0560  141.7459  157.3955 C   0  0  0  0  0  0  0  0  0  0  0  0
  152.0888  141.2774  158.3091 N   0  0  0  0  0  0  0  0  0  0  0  0
  152.2854  141.8964  159.5498 C   0  0  0  0  0  0  0  0  0  0  0  0
  153.3283  141.5329  160.4328 C   0  0  0  0  0  0  0  0  0  0  0  0
  153.4224  142.2299  161.6497 C   0  0  0  0  0  0  0  0  0  0  0  0
  152.4700  143.2353  161.8941 C   0  0  0  0  0  0  0  0  0  0  0  0
  151.4920  143.5408  161.0124 N   0  0  0  0  0  0  0  0  0  0  0  0
  151.4032  142.8770  159.8540 N   0  0  0  0  0  0  0  0  0  0  0  0
  149.4671  139.7584  157.8148 C   0  0  0  0  0  0  0  0  0  0  0  0
  146.8009  134.5041  163.5722 H   0  0  0  0  0  0  0  0  0  0  0  0
  146.9916  136.0846  162.8261 H   0  0  0  0  0  0  0  0  0  0  0  0
  148.4084  135.0884  163.1503 H   0  0  0  0  0  0  0  0  0  0  0  0
  146.1753  134.4144  161.1592 H   0  0  0  0  0  0  0  0  0  0  0  0
  147.1475  132.3588  162.1459 H   0  0  0  0  0  0  0  0  0  0  0  0
  148.7684  132.8904  161.7063 H   0  0  0  0  0  0  0  0  0  0  0  0
  147.5922  132.5078  160.4505 H   0  0  0  0  0  0  0  0  0  0  0  0
  148.5015  134.6441  159.7617 H   0  0  0  0  0  0  0  0  0  0  0  0
  149.5970  137.7619  159.6264 H   0  0  0  0  0  0  0  0  0  0  0  0
  149.3988  136.3059  158.6962 H   0  0  0  0  0  0  0  0  0  0  0  0
  147.3508  137.1730  157.6642 H   0  0  0  0  0  0  0  0  0  0  0  0
  147.3121  138.5482  158.7242 H   0  0  0  0  0  0  0  0  0  0  0  0
  150.3803  137.3565  157.1032 H   0  0  0  0  0  0  0  0  0  0  0  0
  149.1441  137.0463  155.9042 H   0  0  0  0  0  0  0  0  0  0  0  0
  151.1836  138.0513  154.8757 H   0  0  0  0  0  0  0  0  0  0  0  0
  149.7768  139.0699  154.6320 H   0  0  0  0  0  0  0  0  0  0  0  0
  149.5377  141.0283  156.0757 H   0  0  0  0  0  0  0  0  0  0  0  0
  151.5202  142.3332  156.6023 H   0  0  0  0  0  0  0  0  0  0  0  0
  150.3781  142.4098  157.9330 H   0  0  0  0  0  0  0  0  0  0  0  0
  152.7840  140.6315  157.9635 H   0  0  0  0  0  0  0  0  0  0  0  0
  154.0385  140.7539  160.2006 H   0  0  0  0  0  0  0  0  0  0  0  0
  154.1954  142.0026  162.3688 H   0  0  0  0  0  0  0  0  0  0  0  0
  152.4911  143.8046  162.8115 H   0  0  0  0  0  0  0  0  0  0  0  0
  148.7698  140.4078  158.3456 H   0  0  0  0  0  0  0  0  0  0  0  0
  150.1529  139.3598  158.5638 H   0  0  0  0  0  0  0  0  0  0  0  0
  1  2  1  0  0  0  0
  1 23  1  0  0  0  0
  1 24  1  0  0  0  0
  1 25  1  0  0  0  0
  2  3  1  0  0  0  0
  2  4  1  0  0  0  0
  2 26  1  0  0  0  0
  3 27  1  0  0  0  0
  3 28  1  0  0  0  0
  3 29  1  0  0  0  0
  4  5  1  0  0  0  0
  4 30  1  0  0  0  0
  5  6  2  0  0  0  0
  5  7  1  0  0  0  0
  7  8  1  0  0  0  0
  7 31  1  0  0  0  0
  7 32  1  0  0  0  0
  8  9  1  0  0  0  0
  8 33  1  0  0  0  0
  8 34  1  0  0  0  0
  9 22  1  0  0  0  0
  9 10  1  0  0  0  0
 10 11  1  0  0  0  0
 10 35  1  0  0  0  0
 10 36  1  0  0  0  0
 11 12  1  0  0  0  0
 11 37  1  0  0  0  0
 11 38  1  0  0  0  0
 12 13  1  0  0  0  0
 13 14  1  0  0  0  0
 13 22  1  0  0  0  0
 13 39  1  0  0  0  0
 14 15  1  0  0  0  0
 14 40  1  0  0  0  0
 14 41  1  0  0  0  0
 15 16  1  0  0  0  0
 15 42  1  0  0  0  0
 16 21  1  0  0  0  0
 16 17  2  0  0  0  0
 17 18  1  0  0  0  0
 17 43  1  0  0  0  0
 18 19  2  0  0  0  0
 18 44  1  0  0  0  0
 19 20  1  0  0  0  0
 19 45  1  0  0  0  0
 20 21  2  0  0  0  0
 22 46  1  0  0  0  0
 22 47  1  0  0  0  0
M  END
> <s_m_source_file>
AV-unprocessed.smi

> <i_m_source_file_index>
652

> <i_lp_mmshare_version>
43012

> <i_f3d_flags>
0

> <s_epik_input>
W0NIM11bQ0hdKFtDSDNdKVtOSF1DKD1PKVtDSDJdW0NIMl1OMVtDSDJdW0NIMl1PW0NASF0oW0NIMl0xKVtDSDJdW05IXWMyW2NIXVtjSF1bY0hdbm4y

> <s_epik_cmdline>
J2VwaWtfcHl0aG9uJywgJy1waCcsICc3LjAnLCAnLXRuJywgJzgnLCAnLW1hJywgJzIwMCcsICctbWV0YWxfYmluZGluZycsICctaW1hZScsICc8aW5maWxlLm1hZT4nLCAnLW9tYWUnLCAnPG91dGZpbGUubWFlPic=

> <r_lp_tautomer_probability>
0.999978

> <r_epik_Ionization_Penalty>
0.428793

> <r_epik_Ionization_Penalty_Charging>
0

> <r_epik_Ionization_Penalty_Neutral>
0.428793

> <r_epik_State_Penalty>
0.437051

> <r_epik_Charging_Adjusted_Penalty>
0.437051

> <i_epik_Tot_Q>
0

> <i_epik_Tot_abs_Q>
0

> <r_epik_Metal_State_Penalty>
0.432371

> <b_epik_Metal_Only>
0

> <s_lp_Force_Field>
OPLS_2005

> <r_lp_Energy>
25.2897

> <b_lp_Chiralities_Consistent>
1

> <s_lp_Variant>
AV-unprocessed.smi:652-6

> <Gold.Version>
5.8.1

> <Gold.Id.Protein>
6NUR|6NUR_protein|mol2

> <Gold.PLP.Fitness>
46.1453

> <Gold.PLP.PLP>
-41.2077

> <Gold.PLP.part.hbond>
-3.0337

> <Gold.PLP.part.metal>
0.0000

> <Gold.PLP.part.buried>
-7.2046

> <Gold.PLP.part.nonpolar>
-30.7255

> <Gold.PLP.part.repulsive>
0.3230

> <Gold.PLP.ligand.clash>
0.0000

> <Gold.PLP.ligand.torsion>
0.3589

> <Gold.PLP.Chemscore.Hbond>
1.8560

> <Gold.PLP.Chemscore.CHOScore>
0.0000

> <Gold.PLP.Chemscore.Metal>
0.0000

> <Gold.Chemscore.Hbonds>
donor molecule, donor type, donor heavy atom, donor atom, acceptor molecule, acceptor atom, score
      P1  H  6931  6943       L1     6  0.83
      P1  H  6934  6947       L1     6  0.99

> <Gold.PLP.Chemscore.Internal.Correction>
0.0874

> <Gold.Rescore>
     Score         DG    S(hbond)    S(metal)    S(lipo)     H(rot)  DE(clash)    DE(int)     intcor
     13.57     -15.00       1.70        0.00      80.86       2.20       0.00       1.43       ----

> <Gold.Chemscore.Fitness>
13.5692

> <Gold.Chemscore.DG>
-14.9970

> <Gold.Chemscore.ZeroCoef>
-5.4800

> <Gold.Chemscore.Hbond>
1.7042

> <Gold.Chemscore.Metal>
0.0000

> <Gold.Chemscore.Lipo>
80.8572

> <Gold.Chemscore.Internal_Hbond>
0.0000

> <Gold.Chemscore.DEClash>
0.0009

> <Gold.Chemscore.DEInternal>
1.4269

> <Gold.Chemscore.Rot>
2.2013

> <Gold.Chemscore.Internal.Correction>
   9.000000E+99

> <Gold.Chemscore.Hbonds>
donor molecule, donor type, donor heavy atom, donor atom, acceptor molecule, acceptor atom, score
      P1  H  6931  6943       L1     6  0.20
      P1  H  6934  6947       L1     6  0.94

> <Gold.Chemscore.Hbond.Weighted>
-5.6921

> <Gold.Chemscore.Metal.Weighted>
-0.0000

> <Gold.Chemscore.Lipo.Weighted>
-9.4603

> <Gold.Chemscore.Internal_Hbond.Weighted>
0.0000

> <Gold.Chemscore.DEClash.Weighted>
0.0009

> <Gold.Chemscore.DEInternal.Weighted>
1.4269

> <Gold.Chemscore.Rot.Weighted>
5.6354

> <Gold.Chemscore.Internal.Correction.Weighted>
   9.000000E+99

> <Gold.Protein.RotatedTorsions>
[ 6907 6896 6895 6894 ] final  -27.23 input  -60.11 | X-H torsion
[ 7974 7965 7964 7962 ] final  -62.39 input  175.53 | X-H torsion
[ 8008 7997 7996 7995 ] final   20.42 input   59.86 | X-H torsion
[ 10167 10162 10161 10158 ] final -152.33 input  -65.29 | X-H torsion
[ 10718 10713 10712 10709 ] final   70.77 input   66.30 | X-H torsion
[ 10763 10752 10751 10750 ] final -158.23 input  -60.55 | X-H torsion
[ 11005 11000 10999 10996 ] final -113.89 input  -57.11 | X-H torsion

> <Gold.Protein.ActiveResidues>
 VAL166  LYS551  ARG553  GLY616  TRP617  ASP618  TYR619  PRO620  LYS621  CYS622 
 ASP623  PHE694  ASN695  SER759  ASP760  ASP761  ALA762  ILE779  LEU786  VAL792 
 PHE793  MET794  SER795  GLU796  ALA797  LYS798  CYS799  TRP800  GLU811  SER814 

> <Gold.Protein.RotatedAtoms>
  151.1498  135.0221  159.8662 H   0  0  0  0  0  0  0  0  0  0  0  0  # atno 6907 bound_to 6896
  152.5453  134.1402  159.8486 H   0  0  0  0  0  0  0  0  0  0  0  0  # atno 6908 bound_to 6896
  151.1486  133.4877  159.2628 H   0  0  0  0  0  0  0  0  0  0  0  0  # atno 6909 bound_to 6896
  145.7918  140.8705  143.0276 H   0  0  0  0  0  0  0  0  0  0  0  0  # atno 7974 bound_to 7965
  154.9353  140.3046  155.5147 H   0  0  0  0  0  0  0  0  0  0  0  0  # atno 8008 bound_to 7997
  156.3000  140.2346  156.4354 H   0  0  0  0  0  0  0  0  0  0  0  0  # atno 8009 bound_to 7997
  154.8197  140.0424  157.1391 H   0  0  0  0  0  0  0  0  0  0  0  0  # atno 8010 bound_to 7997
  139.7191  143.8986  152.2497 H   0  0  0  0  0  0  0  0  0  0  0  0  # atno 10167 bound_to 10162
  157.6417  130.9494  150.0697 H   0  0  0  0  0  0  0  0  0  0  0  0  # atno 10718 bound_to 10713
  154.7573  135.3108  154.8445 H   0  0  0  0  0  0  0  0  0  0  0  0  # atno 10763 bound_to 10752
  153.9216  135.6795  153.4752 H   0  0  0  0  0  0  0  0  0  0  0  0  # atno 10764 bound_to 10752
  153.1171  135.4839  154.9064 H   0  0  0  0  0  0  0  0  0  0  0  0  # atno 10765 bound_to 10752
  141.0586  133.9572  157.2709 H   0  0  0  0  0  0  0  0  0  0  0  0  # atno 11005 bound_to 11000
  144.6780  140.0135  143.7484 LP  0  0  0  0  0  0  0  0  0  0  0  0  # atno 17320 bound_to 7965
  145.9968  139.3059  143.0951 LP  0  0  0  0  0  0  0  0  0  0  0  0  # atno 17321 bound_to 7965
  139.8877  144.6983  150.8806 LP  0  0  0  0  0  0  0  0  0  0  0  0  # atno 17342 bound_to 10162
  140.7750  143.3611  151.1827 LP  0  0  0  0  0  0  0  0  0  0  0  0  # atno 17343 bound_to 10162
  156.1705  130.3646  149.9172 LP  0  0  0  0  0  0  0  0  0  0  0  0  # atno 17370 bound_to 10713
  156.7148  130.8984  151.3613 LP  0  0  0  0  0  0  0  0  0  0  0  0  # atno 17371 bound_to 10713
  139.9412  135.0191  156.8714 LP  0  0  0  0  0  0  0  0  0  0  0  0  # atno 17394 bound_to 11000
  140.5914  134.0258  155.7501 LP  0  0  0  0  0  0  0  0  0  0  0  0  # atno 17395 bound_to 11000

$$$$
