AV-unprocessed.smi:106|AV-procd|sdf|1012|dock1
  -GOLD-   2262018 13D 1   1.00000     0.00000
 Structure written by MMmdl.
 51 54  0  0  0  0  0  0  0  0  1 V2000
  151.3708  136.5575  154.5708 O   0  0  0  0  0  0  0  0  0  0  0  0
  150.8364  137.1225  155.5275 C   0  0  0  0  0  0  0  0  0  0  0  0
  149.4003  136.7195  155.9294 C   0  0  0  0  0  0  0  0  0  0  0  0
  148.7821  135.7348  155.0134 N   0  0  0  0  0  0  0  0  0  0  0  0
  149.4656  134.5194  154.7617 C   0  0  0  0  0  0  0  0  0  0  0  0
  150.5508  134.2755  155.2914 O   0  0  0  0  0  0  0  0  0  0  0  0
  148.8026  133.6024  153.8416 C   0  0  0  0  0  0  0  0  0  0  0  0
  149.3718  132.4190  153.5565 F   0  0  0  0  0  0  0  0  0  0  0  0
  147.6229  133.9220  153.2711 C   0  0  0  0  0  0  0  0  0  0  0  0
  146.9752  135.1206  153.5112 N   0  0  0  0  0  0  0  0  0  0  0  0
  145.6569  135.4693  152.8531 C   0  0  1  0  0  0  0  0  0  0  0  0
  145.8469  135.6840  151.3398 C   0  0  0  0  0  0  0  0  0  0  0  0
  144.7785  134.7929  150.7383 C   0  0  0  0  0  0  0  0  0  0  0  0
  144.6601  133.6940  151.7836 C   0  0  0  0  0  0  0  0  0  0  0  0
  144.7534  134.4117  153.0073 O   0  0  0  0  0  0  0  0  0  0  0  0
  147.5484  136.0571  154.3987 C   0  0  0  0  0  0  0  0  0  0  0  0
  146.9887  137.1327  154.6231 O   0  0  0  0  0  0  0  0  0  0  0  0
  151.4637  138.0908  156.2389 N   0  0  0  0  0  0  0  0  0  0  0  0
  150.8292  138.7932  157.3659 C   0  0  0  0  0  0  0  0  0  0  0  0
  151.6527  139.9828  157.9062 C   0  0  0  0  0  0  0  0  0  0  0  0
  153.0649  139.6442  158.1517 N   0  0  0  0  0  0  0  0  0  0  0  0
  153.7808  140.3251  159.0827 C   0  0  0  0  0  0  0  0  0  0  0  0
  154.9307  140.0035  159.3885 O   0  0  0  0  0  0  0  0  0  0  0  0
  153.1687  141.5000  159.7528 C   0  0  0  0  0  0  0  0  0  0  0  0
  152.3996  142.5415  159.2918 C   0  0  0  0  0  0  0  0  0  0  0  0
  152.0670  143.4873  160.3058 C   0  0  0  0  0  0  0  0  0  0  0  0
  152.6078  143.1737  161.5239 C   0  0  0  0  0  0  0  0  0  0  0  0
  153.5515  141.7115  161.4465 S   0  0  0  0  0  0  0  0  0  0  0  0
  153.6554  138.6665  157.2233 C   0  0  0  0  0  0  0  0  0  0  0  0
  152.8354  138.5140  155.9315 C   0  0  0  0  0  0  0  0  0  0  0  0
  149.4081  136.3316  156.9491 H   0  0  0  0  0  0  0  0  0  0  0  0
  148.7864  137.6190  155.9888 H   0  0  0  0  0  0  0  0  0  0  0  0
  147.1844  133.1974  152.6024 H   0  0  0  0  0  0  0  0  0  0  0  0
  145.2816  136.3449  153.3857 H   0  0  0  0  0  0  0  0  0  0  0  0
  145.7294  136.7353  151.0759 H   0  0  0  0  0  0  0  0  0  0  0  0
  146.8389  135.3496  151.0317 H   0  0  0  0  0  0  0  0  0  0  0  0
  143.8360  135.3366  150.6591 H   0  0  0  0  0  0  0  0  0  0  0  0
  145.0426  134.4160  149.7500 H   0  0  0  0  0  0  0  0  0  0  0  0
  143.7229  133.1417  151.7128 H   0  0  0  0  0  0  0  0  0  0  0  0
  145.4856  132.9862  151.6967 H   0  0  0  0  0  0  0  0  0  0  0  0
  149.8444  139.1623  157.0777 H   0  0  0  0  0  0  0  0  0  0  0  0
  150.6771  138.0777  158.1754 H   0  0  0  0  0  0  0  0  0  0  0  0
  151.6186  140.8091  157.1945 H   0  0  0  0  0  0  0  0  0  0  0  0
  151.1664  140.3411  158.8151 H   0  0  0  0  0  0  0  0  0  0  0  0
  152.0671  142.6640  158.2722 H   0  0  0  0  0  0  0  0  0  0  0  0
  151.4584  144.3570  160.1064 H   0  0  0  0  0  0  0  0  0  0  0  0
  152.5205  143.7151  162.4544 H   0  0  0  0  0  0  0  0  0  0  0  0
  154.6690  138.9608  156.9472 H   0  0  0  0  0  0  0  0  0  0  0  0
  153.7220  137.6983  157.7202 H   0  0  0  0  0  0  0  0  0  0  0  0
  153.3539  137.8061  155.2835 H   0  0  0  0  0  0  0  0  0  0  0  0
  152.8033  139.4577  155.3849 H   0  0  0  0  0  0  0  0  0  0  0  0
  1  2  2  0  0  0  0
  2  3  1  0  0  0  0
  2 18  1  0  0  0  0
  3  4  1  0  0  0  0
  3 31  1  0  0  0  0
  3 32  1  0  0  0  0
  4 16  1  0  0  0  0
  4  5  1  0  0  0  0
  5  6  2  0  0  0  0
  5  7  1  0  0  0  0
  7  8  1  0  0  0  0
  7  9  2  0  0  0  0
  9 10  1  0  0  0  0
  9 33  1  0  0  0  0
 10 11  1  0  0  0  0
 10 16  1  0  0  0  0
 11 15  1  0  0  0  0
 11 12  1  0  0  0  0
 11 34  1  0  0  0  0
 12 13  1  0  0  0  0
 12 35  1  0  0  0  0
 12 36  1  0  0  0  0
 13 14  1  0  0  0  0
 13 37  1  0  0  0  0
 13 38  1  0  0  0  0
 14 15  1  0  0  0  0
 14 39  1  0  0  0  0
 14 40  1  0  0  0  0
 16 17  2  0  0  0  0
 18 30  1  0  0  0  0
 18 19  1  0  0  0  0
 19 20  1  0  0  0  0
 19 41  1  0  0  0  0
 19 42  1  0  0  0  0
 20 21  1  0  0  0  0
 20 43  1  0  0  0  0
 20 44  1  0  0  0  0
 21 22  1  0  0  0  0
 21 29  1  0  0  0  0
 22 23  2  0  0  0  0
 22 24  1  0  0  0  0
 24 28  1  0  0  0  0
 24 25  2  0  0  0  0
 25 26  1  0  0  0  0
 25 45  1  0  0  0  0
 26 27  2  0  0  0  0
 26 46  1  0  0  0  0
 27 28  1  0  0  0  0
 27 47  1  0  0  0  0
 29 30  1  0  0  0  0
 29 48  1  0  0  0  0
 29 49  1  0  0  0  0
 30 50  1  0  0  0  0
 30 51  1  0  0  0  0
M  END
> <s_m_source_file>
AV-unprocessed.smi

> <i_m_source_file_index>
106

> <i_lp_mmshare_version>
43012

> <i_f3d_flags>
0

> <s_epik_input>
czFbY0hdW2NIXVtjSF1jMUMoPU8pTihbQ0gyXVtDSDJdMilbQ0gyXVtDSDJdTjJDKD1PKVtDSDJdbjNjKD1PKWMoRilbY0hdbihjMz1PKVtDQEBIXTRbQ0gyXVtDSDJdW0NIMl1PNA==

> <s_epik_cmdline>
J2VwaWtfcHl0aG9uJywgJy1waCcsICc3LjAnLCAnLXRuJywgJzgnLCAnLW1hJywgJzIwMCcsICctbWV0YWxfYmluZGluZycsICctaW1hZScsICc8aW5maWxlLm1hZT4nLCAnLW9tYWUnLCAnPG91dGZpbGUubWFlPic=

> <r_lp_tautomer_probability>
1

> <r_epik_Ionization_Penalty>
4.82844e-09

> <r_epik_Ionization_Penalty_Charging>
4.20153e-09

> <r_epik_Ionization_Penalty_Neutral>
6.26919e-10

> <r_epik_State_Penalty>
-0

> <r_epik_Charging_Adjusted_Penalty>
4.20153e-09

> <i_epik_Tot_Q>
0

> <i_epik_Tot_abs_Q>
0

> <r_epik_Metal_State_Penalty>
-0

> <b_epik_Metal_Only>
0

> <s_epik_Chemistry_Notes>
This compound contains an acetal/aminal-like group ( X-CH(R)-Y where X, Y are N, S, or O) that may be acid/base labile, releasing an aldehyde.

> <s_lp_Force_Field>
OPLS_2005

> <r_lp_Energy>
72.1787

> <b_lp_Chiralities_Consistent>
1

> <s_lp_Variant>
AV-unprocessed.smi:106-2

> <Gold.Version>
5.8.1

> <Gold.Id.Protein>
6NUR|6NUR_protein|mol2

> <Gold.PLP.Fitness>
45.7625

> <Gold.PLP.PLP>
-42.7970

> <Gold.PLP.part.hbond>
-1.8391

> <Gold.PLP.part.metal>
0.0000

> <Gold.PLP.part.buried>
-0.2459

> <Gold.PLP.part.nonpolar>
-40.2233

> <Gold.PLP.part.repulsive>
0.3752

> <Gold.PLP.ligand.clash>
0.0000

> <Gold.PLP.ligand.torsion>
0.8674

> <Gold.PLP.Chemscore.Hbond>
1.3489

> <Gold.PLP.Chemscore.CHOScore>
0.0000

> <Gold.PLP.Chemscore.Metal>
0.0000

> <Gold.Chemscore.Hbonds>
donor molecule, donor type, donor heavy atom, donor atom, acceptor molecule, acceptor atom, score
      P1  H  7997  8010       L1    23  0.31
      P1  H 10752 10765       L1     1  1.00

> <Gold.PLP.Chemscore.Internal.Correction>
0.6535

> <Gold.Rescore>
     Score         DG    S(hbond)    S(metal)    S(lipo)     H(rot)  DE(clash)    DE(int)     intcor
     10.11     -16.33       0.99        0.00     100.10       1.63       0.04       6.18       ----

> <Gold.Chemscore.Fitness>
10.1054

> <Gold.Chemscore.DG>
-16.3255

> <Gold.Chemscore.ZeroCoef>
-5.4800

> <Gold.Chemscore.Hbond>
0.9863

> <Gold.Chemscore.Metal>
0.0000

> <Gold.Chemscore.Lipo>
100.0990

> <Gold.Chemscore.Internal_Hbond>
0.0000

> <Gold.Chemscore.DEClash>
0.0408

> <Gold.Chemscore.DEInternal>
6.1792

> <Gold.Chemscore.Rot>
1.6252

> <Gold.Chemscore.Internal.Correction>
   9.000000E+99

> <Gold.Chemscore.Hbonds>
donor molecule, donor type, donor heavy atom, donor atom, acceptor molecule, acceptor atom, score
      P1  H  7997  8010       L1    23  0.01
      P1  H 10752 10765       L1     1  1.00

> <Gold.Chemscore.Hbond.Weighted>
-3.2944

> <Gold.Chemscore.Metal.Weighted>
-0.0000

> <Gold.Chemscore.Lipo.Weighted>
-11.7116

> <Gold.Chemscore.Internal_Hbond.Weighted>
0.0000

> <Gold.Chemscore.DEClash.Weighted>
0.0408

> <Gold.Chemscore.DEInternal.Weighted>
6.1792

> <Gold.Chemscore.Rot.Weighted>
4.1605

> <Gold.Chemscore.Internal.Correction.Weighted>
   9.000000E+99

> <Gold.Protein.RotatedTorsions>
[ 6907 6896 6895 6894 ] final  137.09 input  -60.11 | X-H torsion
[ 7974 7965 7964 7962 ] final   98.55 input  175.53 | X-H torsion
[ 8008 7997 7996 7995 ] final  -15.90 input   59.86 | X-H torsion
[ 10167 10162 10161 10158 ] final -124.62 input  -65.29 | X-H torsion
[ 10718 10713 10712 10709 ] final  159.27 input   66.30 | X-H torsion
[ 10763 10752 10751 10750 ] final -177.84 input  -60.55 | X-H torsion
[ 11005 11000 10999 10996 ] final  113.86 input  -57.11 | X-H torsion

> <Gold.Protein.ActiveResidues>
 VAL166  LYS551  ARG553  GLY616  TRP617  ASP618  TYR619  PRO620  LYS621  CYS622 
 ASP623  PHE694  ASN695  SER759  ASP760  ASP761  ALA762  ILE779  LEU786  VAL792 
 PHE793  MET794  SER795  GLU796  ALA797  LYS798  CYS799  TRP800  GLU811  SER814 

> <Gold.Protein.RotatedAtoms>
  152.2820  133.5479  159.5503 H   0  0  0  0  0  0  0  0  0  0  0  0  # atno 6907 bound_to 6896
  150.7200  134.0551  159.3820 H   0  0  0  0  0  0  0  0  0  0  0  0  # atno 6908 bound_to 6896
  151.8461  135.0574  160.0504 H   0  0  0  0  0  0  0  0  0  0  0  0  # atno 6909 bound_to 6896
  145.4106  139.2334  143.3250 H   0  0  0  0  0  0  0  0  0  0  0  0  # atno 7974 bound_to 7965
  154.5095  140.2184  155.9185 H   0  0  0  0  0  0  0  0  0  0  0  0  # atno 8008 bound_to 7997
  156.1534  140.3157  155.8652 H   0  0  0  0  0  0  0  0  0  0  0  0  # atno 8009 bound_to 7997
  155.3894  140.0477  157.3032 H   0  0  0  0  0  0  0  0  0  0  0  0  # atno 8010 bound_to 7997
  139.9908  143.5643  152.2342 H   0  0  0  0  0  0  0  0  0  0  0  0  # atno 10167 bound_to 10162
  157.1664  131.0599  151.2205 H   0  0  0  0  0  0  0  0  0  0  0  0  # atno 10718 bound_to 10713
  154.5551  135.2816  155.0972 H   0  0  0  0  0  0  0  0  0  0  0  0  # atno 10763 bound_to 10752
  154.2402  135.6358  153.5208 H   0  0  0  0  0  0  0  0  0  0  0  0  # atno 10764 bound_to 10752
  153.0013  135.5558  154.6129 H   0  0  0  0  0  0  0  0  0  0  0  0  # atno 10765 bound_to 10752
  139.8964  134.9557  156.6803 H   0  0  0  0  0  0  0  0  0  0  0  0  # atno 11005 bound_to 11000
  146.2707  140.4817  142.8816 LP  0  0  0  0  0  0  0  0  0  0  0  0  # atno 17320 bound_to 7965
  144.8311  140.6709  143.6290 LP  0  0  0  0  0  0  0  0  0  0  0  0  # atno 17321 bound_to 7965
  139.6341  144.7648  151.2474 LP  0  0  0  0  0  0  0  0  0  0  0  0  # atno 17342 bound_to 10162
  140.7455  143.6428  150.8319 LP  0  0  0  0  0  0  0  0  0  0  0  0  # atno 17343 bound_to 10162
  157.4084  130.7371  149.6820 LP  0  0  0  0  0  0  0  0  0  0  0  0  # atno 17370 bound_to 10713
  155.9745  130.4102  150.3917 LP  0  0  0  0  0  0  0  0  0  0  0  0  # atno 17371 bound_to 10713
  140.7304  133.9064  155.8207 LP  0  0  0  0  0  0  0  0  0  0  0  0  # atno 17394 bound_to 11000
  141.0158  134.0958  157.4174 LP  0  0  0  0  0  0  0  0  0  0  0  0  # atno 17395 bound_to 11000

$$$$
