AV-unprocessed.smi:1830|AV-procd|sdf|7452|dock2
  -GOLD-   22720 9143D 1   1.00000     0.00000
 Structure written by MMmdl.
 53 56  0  0  0  0  0  0  0  0  2 V2000
  149.8906  133.3928  155.3170 O   0  0  0  0  0  0  0  0  0  0  0  0
  149.4726  134.1891  154.4768 C   0  0  0  0  0  0  0  0  0  0  0  0
  149.9047  135.4535  154.3757 N   0  0  0  0  0  0  0  0  0  0  0  0
  150.9398  136.0528  155.2113 C   0  0  0  0  0  0  0  0  0  0  0  0
  150.4072  137.2595  156.0036 C   0  0  2  0  0  0  0  0  0  0  0  0
  150.8962  138.6011  155.4128 C   0  0  0  0  0  0  0  0  0  0  0  0
  150.4582  139.6964  156.2560 N   0  0  0  0  0  0  0  0  0  0  0  0
  150.8940  141.0228  155.8867 C   0  0  0  0  0  0  0  0  0  0  0  0
  150.6399  141.8697  157.1463 C   0  0  0  0  0  0  0  0  0  0  0  0
  150.5543  140.8384  158.2937 C   0  0  0  0  0  0  0  0  0  0  0  0
  150.9402  139.5306  157.6007 C   0  0  1  0  0  0  0  0  0  0  0  0
  150.4187  138.2201  158.2080 C   0  0  0  0  0  0  0  0  0  0  0  0
  150.8415  137.1448  157.3653 O   0  0  0  0  0  0  0  0  0  0  0  0
  148.5532  133.9136  153.5368 N   0  0  0  0  0  0  0  0  0  0  0  0
  147.9253  132.6669  153.2534 C   0  0  0  0  0  0  0  0  0  0  0  0
  148.5255  131.4349  153.6222 C   0  0  0  0  0  0  0  0  0  0  0  0
  147.8938  130.2193  153.2998 C   0  0  0  0  0  0  0  0  0  0  0  0
  146.6663  130.2515  152.6170 C   0  0  0  0  0  0  0  0  0  0  0  0
  146.1091  131.4383  152.3008 N   0  3  0  0  0  0  0  0  0  0  0  0
  146.6595  132.6425  152.5970 C   0  0  0  0  0  0  0  0  0  0  0  0
  145.9468  133.8023  152.2137 N   0  0  0  0  0  0  0  0  0  0  0  0
  145.8645  134.1869  150.8092 C   0  0  0  0  0  0  0  0  0  0  0  0
  144.7577  135.2357  150.7487 C   0  0  0  0  0  0  0  0  0  0  0  0
  143.7791  134.7408  151.8091 C   0  0  0  0  0  0  0  0  0  0  0  0
  144.6840  134.1152  152.8758 C   0  0  0  0  0  0  0  0  0  0  0  0
  149.5114  136.0393  153.6538 H   0  0  0  0  0  0  0  0  0  0  0  0
  151.3119  135.2909  155.8967 H   0  0  0  0  0  0  0  0  0  0  0  0
  151.7857  136.3504  154.5893 H   0  0  0  0  0  0  0  0  0  0  0  0
  149.3160  137.2503  155.9882 H   0  0  0  0  0  0  0  0  0  0  0  0
  151.9849  138.5995  155.3389 H   0  0  0  0  0  0  0  0  0  0  0  0
  150.5084  138.7320  154.4021 H   0  0  0  0  0  0  0  0  0  0  0  0
  151.9598  141.0175  155.6524 H   0  0  0  0  0  0  0  0  0  0  0  0
  150.3570  141.3951  155.0138 H   0  0  0  0  0  0  0  0  0  0  0  0
  151.4431  142.5903  157.3024 H   0  0  0  0  0  0  0  0  0  0  0  0
  149.7040  142.4235  157.0631 H   0  0  0  0  0  0  0  0  0  0  0  0
  151.2187  141.0760  159.1248 H   0  0  0  0  0  0  0  0  0  0  0  0
  149.5344  140.7866  158.6769 H   0  0  0  0  0  0  0  0  0  0  0  0
  152.0309  139.4783  157.5795 H   0  0  0  0  0  0  0  0  0  0  0  0
  150.8187  138.0729  159.2111 H   0  0  0  0  0  0  0  0  0  0  0  0
  149.3303  138.2266  158.2865 H   0  0  0  0  0  0  0  0  0  0  0  0
  148.3738  134.6503  152.8708 H   0  0  0  0  0  0  0  0  0  0  0  0
  149.4637  131.3995  154.1546 H   0  0  0  0  0  0  0  0  0  0  0  0
  148.3472  129.2770  153.5706 H   0  0  0  0  0  0  0  0  0  0  0  0
  146.1118  129.3717  152.3239 H   0  0  0  0  0  0  0  0  0  0  0  0
  146.8146  134.5793  150.4457 H   0  0  0  0  0  0  0  0  0  0  0  0
  145.5878  133.3291  150.1948 H   0  0  0  0  0  0  0  0  0  0  0  0
  145.1516  136.2128  151.0323 H   0  0  0  0  0  0  0  0  0  0  0  0
  144.3087  135.3240  149.7591 H   0  0  0  0  0  0  0  0  0  0  0  0
  143.1430  135.5329  152.2048 H   0  0  0  0  0  0  0  0  0  0  0  0
  143.1328  133.9738  151.3804 H   0  0  0  0  0  0  0  0  0  0  0  0
  144.2208  133.2326  153.3195 H   0  0  0  0  0  0  0  0  0  0  0  0
  144.8745  134.8370  153.6707 H   0  0  0  0  0  0  0  0  0  0  0  0
  145.2123  131.4288  151.8147 H   0  0  0  0  0  0  0  0  0  0  0  0
  1  2  2  0  0  0  0
  2  3  1  0  0  0  0
  2 14  1  0  0  0  0
  3  4  1  0  0  0  0
  3 26  1  0  0  0  0
  4  5  1  0  0  0  0
  4 27  1  0  0  0  0
  4 28  1  0  0  0  0
  5 13  1  0  0  0  0
  5  6  1  0  0  0  0
  5 29  1  0  0  0  0
  6  7  1  0  0  0  0
  6 30  1  0  0  0  0
  6 31  1  0  0  0  0
  7 11  1  0  0  0  0
  7  8  1  0  0  0  0
  8  9  1  0  0  0  0
  8 32  1  0  0  0  0
  8 33  1  0  0  0  0
  9 10  1  0  0  0  0
  9 34  1  0  0  0  0
  9 35  1  0  0  0  0
 10 11  1  0  0  0  0
 10 36  1  0  0  0  0
 10 37  1  0  0  0  0
 11 12  1  0  0  0  0
 11 38  1  0  0  0  0
 12 13  1  0  0  0  0
 12 39  1  0  0  0  0
 12 40  1  0  0  0  0
 14 15  1  0  0  0  0
 14 41  1  0  0  0  0
 15 20  1  0  0  0  0
 15 16  2  0  0  0  0
 16 17  1  0  0  0  0
 16 42  1  0  0  0  0
 17 18  2  0  0  0  0
 17 43  1  0  0  0  0
 18 19  1  0  0  0  0
 18 44  1  0  0  0  0
 19 20  2  0  0  0  0
 19 53  1  0  0  0  0
 20 21  1  0  0  0  0
 21 25  1  0  0  0  0
 21 22  1  0  0  0  0
 22 23  1  0  0  0  0
 22 45  1  0  0  0  0
 22 46  1  0  0  0  0
 23 24  1  0  0  0  0
 23 47  1  0  0  0  0
 23 48  1  0  0  0  0
 24 25  1  0  0  0  0
 24 49  1  0  0  0  0
 24 50  1  0  0  0  0
 25 51  1  0  0  0  0
 25 52  1  0  0  0  0
M  CHG  1  19   1
M  END
> <s_m_source_file>
AV-unprocessed.smi

> <i_m_source_file_index>
1830

> <i_lp_mmshare_version>
43012

> <i_f3d_flags>
0

> <s_epik_input>
W0NIMl0xW0NIMl1bQ0gyXVtDQEhdKE4xMilbQ0gyXU9bQ0BASF0oW0NIMl0yKVtDSDJdW05IXUMoPU8pW05IXWMzW2NIXVtjSF1bY0hdbmMzTjRbQ0gyXVtDSDJdW0NIMl1bQ0gyXTQ=

> <s_epik_cmdline>
J2VwaWtfcHl0aG9uJywgJy1waCcsICc3LjAnLCAnLXRuJywgJzgnLCAnLW1hJywgJzIwMCcsICctbWV0YWxfYmluZGluZycsICctaW1hZScsICc8aW5maWxlLm1hZT4nLCAnLW9tYWUnLCAnPG91dGZpbGUubWFlPic=

> <r_epik_Ionization_Penalty>
2.19264

> <r_epik_Ionization_Penalty_Charging>
1.12452

> <r_epik_Ionization_Penalty_Neutral>
1.06812

> <r_epik_State_Penalty>
2.334

> <r_epik_Charging_Adjusted_Penalty>
3.45852

> <i_epik_Tot_Q>
1

> <i_epik_Tot_abs_Q>
1

> <r_epik_Metal_State_Penalty>
2.41144

> <b_epik_Metal_Only>
0

> <s_lp_Force_Field>
OPLS_2005

> <r_lp_Energy>
81.6261

> <b_lp_Chiralities_Consistent>
1

> <s_lp_Variant>
AV-unprocessed.smi:1830-21

> <Gold.Version>
5.8.1

> <Gold.Id.Protein>
6NUR|6NUR_protein|mol2

> <Gold.PLP.Fitness>
41.4983

> <Gold.PLP.PLP>
-37.0978

> <Gold.PLP.part.hbond>
-2.5358

> <Gold.PLP.part.metal>
0.0000

> <Gold.PLP.part.buried>
-3.6395

> <Gold.PLP.part.nonpolar>
-30.0247

> <Gold.PLP.part.repulsive>
0.1981

> <Gold.PLP.ligand.clash>
0.0000

> <Gold.PLP.ligand.torsion>
0.9640

> <Gold.PLP.Chemscore.Hbond>
1.9760

> <Gold.PLP.Chemscore.CHOScore>
0.0000

> <Gold.PLP.Chemscore.Metal>
0.0000

> <Gold.Chemscore.Hbonds>
donor molecule, donor type, donor heavy atom, donor atom, acceptor molecule, acceptor atom, score
      L1  H     3    26       P1  7948  0.94
      L1  H    14    41       P1  7948  1.00

> <Gold.PLP.Chemscore.Internal.Correction>
0.4005

> <Gold.Rescore>
     Score         DG    S(hbond)    S(metal)    S(lipo)     H(rot)  DE(clash)    DE(int)     intcor
     13.78     -15.89       1.40        0.00      79.54       1.40       0.03       2.08       ----

> <Gold.Chemscore.Fitness>
13.7819

> <Gold.Chemscore.DG>
-15.8873

> <Gold.Chemscore.ZeroCoef>
-5.4800

> <Gold.Chemscore.Hbond>
1.3996

> <Gold.Chemscore.Metal>
0.0000

> <Gold.Chemscore.Lipo>
79.5403

> <Gold.Chemscore.Internal_Hbond>
0.0000

> <Gold.Chemscore.DEClash>
0.0262

> <Gold.Chemscore.DEInternal>
2.0792

> <Gold.Chemscore.Rot>
1.3959

> <Gold.Chemscore.Internal.Correction>
   9.000000E+99

> <Gold.Chemscore.Hbonds>
donor molecule, donor type, donor heavy atom, donor atom, acceptor molecule, acceptor atom, score
      L1  H     3    26       P1  7948  0.46
      L1  H    14    41       P1  7948  0.37

> <Gold.Chemscore.Hbond.Weighted>
-4.6747

> <Gold.Chemscore.Metal.Weighted>
-0.0000

> <Gold.Chemscore.Lipo.Weighted>
-9.3062

> <Gold.Chemscore.Internal_Hbond.Weighted>
0.0000

> <Gold.Chemscore.DEClash.Weighted>
0.0262

> <Gold.Chemscore.DEInternal.Weighted>
2.0792

> <Gold.Chemscore.Rot.Weighted>
3.5736

> <Gold.Chemscore.Internal.Correction.Weighted>
   9.000000E+99

> <Gold.Protein.RotatedTorsions>
[ 6907 6896 6895 6894 ] final -121.59 input  -60.11 | X-H torsion
[ 7974 7965 7964 7962 ] final   10.85 input  175.53 | X-H torsion
[ 8008 7997 7996 7995 ] final  -48.22 input   59.86 | X-H torsion
[ 10167 10162 10161 10158 ] final   86.21 input  -65.29 | X-H torsion
[ 10718 10713 10712 10709 ] final  -32.74 input   66.30 | X-H torsion
[ 10763 10752 10751 10750 ] final -150.47 input  -60.55 | X-H torsion
[ 11005 11000 10999 10996 ] final  168.42 input  -57.11 | X-H torsion

> <Gold.Protein.ActiveResidues>
 VAL166  LYS551  ARG553  GLY616  TRP617  ASP618  TYR619  PRO620  LYS621  CYS622 
 ASP623  PHE694  ASN695  SER759  ASP760  ASP761  ALA762  ILE779  LEU786  VAL792 
 PHE793  MET794  SER795  GLU796  ALA797  LYS798  CYS799  TRP800  GLU811  SER814 

> <Gold.Protein.RotatedAtoms>
  150.8497  133.7806  159.3029 H   0  0  0  0  0  0  0  0  0  0  0  0  # atno 6907 bound_to 6896
  151.5482  135.1066  159.9952 H   0  0  0  0  0  0  0  0  0  0  0  0  # atno 6908 bound_to 6896
  152.4543  133.7648  159.6822 H   0  0  0  0  0  0  0  0  0  0  0  0  # atno 6909 bound_to 6896
  146.2381  139.9573  142.8463 H   0  0  0  0  0  0  0  0  0  0  0  0  # atno 7974 bound_to 7965
  154.4026  140.1327  156.4304 H   0  0  0  0  0  0  0  0  0  0  0  0  # atno 8008 bound_to 7997
  155.7556  140.3487  155.5152 H   0  0  0  0  0  0  0  0  0  0  0  0  # atno 8009 bound_to 7997
  155.8907  140.1003  157.1410 H   0  0  0  0  0  0  0  0  0  0  0  0  # atno 8010 bound_to 7997
  139.8898  144.6392  150.8751 H   0  0  0  0  0  0  0  0  0  0  0  0  # atno 10167 bound_to 10162
  156.3712  130.4340  149.7544 H   0  0  0  0  0  0  0  0  0  0  0  0  # atno 10718 bound_to 10713
  154.8117  135.3283  154.7288 H   0  0  0  0  0  0  0  0  0  0  0  0  # atno 10763 bound_to 10752
  153.7936  135.6909  153.4872 H   0  0  0  0  0  0  0  0  0  0  0  0  # atno 10764 bound_to 10752
  153.1900  135.4554  155.0084 H   0  0  0  0  0  0  0  0  0  0  0  0  # atno 10765 bound_to 10752
  140.2871  134.7703  157.3807 H   0  0  0  0  0  0  0  0  0  0  0  0  # atno 11005 bound_to 11000
  145.1804  140.9764  143.4269 LP  0  0  0  0  0  0  0  0  0  0  0  0  # atno 17320 bound_to 7965
  144.9947  139.3655  143.6197 LP  0  0  0  0  0  0  0  0  0  0  0  0  # atno 17321 bound_to 7965
  140.7729  143.3519  151.1998 LP  0  0  0  0  0  0  0  0  0  0  0  0  # atno 17342 bound_to 10162
  139.7120  143.9362  152.2951 LP  0  0  0  0  0  0  0  0  0  0  0  0  # atno 17343 bound_to 10162
  156.4671  130.7979  151.2998 LP  0  0  0  0  0  0  0  0  0  0  0  0  # atno 17370 bound_to 10713
  157.7484  131.0048  150.3088 LP  0  0  0  0  0  0  0  0  0  0  0  0  # atno 17371 bound_to 10713
  140.1230  134.5195  155.8168 LP  0  0  0  0  0  0  0  0  0  0  0  0  # atno 17394 bound_to 11000
  141.2153  133.6763  156.6900 LP  0  0  0  0  0  0  0  0  0  0  0  0  # atno 17395 bound_to 11000

$$$$
