AV-unprocessed.smi:3282|AV-procd|sdf|12567|dock1
  -GOLD-   2272018483D 1   1.00000     0.00000
 Structure written by MMmdl.
 33 34  0  0  0  0  0  0  0  0  2 V2000
  151.4966  144.0842  159.9177 C   0  0  0  0  0  0  0  0  0  0  0  0
  152.8252  143.5510  159.3575 C   0  0  0  0  0  0  0  0  0  0  0  0
  153.1047  142.0824  159.7185 C   0  0  0  0  0  0  0  0  0  0  0  0
  154.0667  141.8001  160.4346 O   0  0  0  0  0  0  0  0  0  0  0  0
  152.2739  141.1379  159.2302 N   0  0  0  0  0  0  0  0  0  0  0  0
  151.1088  141.3821  158.3825 C   0  0  0  0  0  0  0  0  0  0  0  0
  150.3776  140.0437  158.2757 C   0  0  0  0  0  0  0  0  0  0  0  0
  151.4460  138.9922  158.5624 C   0  0  2  0  0  0  0  0  0  0  0  0
  150.8755  137.8001  159.1828 N   0  0  0  0  0  0  0  0  0  0  0  0
  149.7397  137.1926  158.8105 C   0  0  0  0  0  0  0  0  0  0  0  0
  149.0800  137.6457  157.8723 O   0  0  0  0  0  0  0  0  0  0  0  0
  149.4415  136.0976  159.5456 N   0  5  0  0  0  0  0  0  0  0  0  0
  148.4172  136.1337  160.4132 C   0  0  0  0  0  0  0  0  0  0  0  0
  147.7886  137.2268  160.8488 N   0  0  0  0  0  0  0  0  0  0  0  0
  146.8150  136.7791  161.7283 C   0  0  0  0  0  0  0  0  0  0  0  0
  146.9026  135.4153  161.7927 C   0  0  0  0  0  0  0  0  0  0  0  0
  147.9125  134.9968  160.9713 O   0  0  0  0  0  0  0  0  0  0  0  0
  152.4389  139.7096  159.4872 C   0  0  0  0  0  0  0  0  0  0  0  0
  151.3516  145.1273  159.6359 H   0  0  0  0  0  0  0  0  0  0  0  0
  151.4743  144.0315  161.0068 H   0  0  0  0  0  0  0  0  0  0  0  0
  150.6457  143.5196  159.5339 H   0  0  0  0  0  0  0  0  0  0  0  0
  152.8203  143.6510  158.2716 H   0  0  0  0  0  0  0  0  0  0  0  0
  153.6412  144.1706  159.7311 H   0  0  0  0  0  0  0  0  0  0  0  0
  150.4530  142.1522  158.7903 H   0  0  0  0  0  0  0  0  0  0  0  0
  151.4473  141.7075  157.3978 H   0  0  0  0  0  0  0  0  0  0  0  0
  149.5972  140.0042  159.0376 H   0  0  0  0  0  0  0  0  0  0  0  0
  149.8988  139.9026  157.3063 H   0  0  0  0  0  0  0  0  0  0  0  0
  151.9425  138.7337  157.6252 H   0  0  0  0  0  0  0  0  0  0  0  0
  151.3845  137.3984  159.9564 H   0  0  0  0  0  0  0  0  0  0  0  0
  146.1457  137.4587  162.2341 H   0  0  0  0  0  0  0  0  0  0  0  0
  146.3652  134.6510  162.3334 H   0  0  0  0  0  0  0  0  0  0  0  0
  153.4609  139.3761  159.3001 H   0  0  0  0  0  0  0  0  0  0  0  0
  152.2108  139.5187  160.5375 H   0  0  0  0  0  0  0  0  0  0  0  0
  1  2  1  0  0  0  0
  1 19  1  0  0  0  0
  1 20  1  0  0  0  0
  1 21  1  0  0  0  0
  2  3  1  0  0  0  0
  2 22  1  0  0  0  0
  2 23  1  0  0  0  0
  3  4  2  0  0  0  0
  3  5  1  0  0  0  0
  5 18  1  0  0  0  0
  5  6  1  0  0  0  0
  6  7  1  0  0  0  0
  6 24  1  0  0  0  0
  6 25  1  0  0  0  0
  7  8  1  0  0  0  0
  7 26  1  0  0  0  0
  7 27  1  0  0  0  0
  8  9  1  0  0  0  0
  8 18  1  0  0  0  0
  8 28  1  0  0  0  0
  9 10  1  0  0  0  0
  9 29  1  0  0  0  0
 10 11  2  0  0  0  0
 10 12  1  0  0  0  0
 12 13  1  0  0  0  0
 13 17  1  0  0  0  0
 13 14  2  0  0  0  0
 14 15  1  0  0  0  0
 15 16  2  0  0  0  0
 15 30  1  0  0  0  0
 16 17  1  0  0  0  0
 16 31  1  0  0  0  0
 18 32  1  0  0  0  0
 18 33  1  0  0  0  0
M  CHG  1  12  -1
M  END
> <s_m_source_file>
AV-unprocessed.smi

> <i_m_source_file_index>
3282

> <i_lp_mmshare_version>
43012

> <i_f3d_flags>
0

> <s_epik_input>
W0NIM11bQ0gyXUMoPU8pTjFbQ0gyXVtDSDJdW0NASF0oW0NIMl0xKVtOSF1DKD1PKVtOSF1jMm5bY0hdW2NIXW8y

> <s_epik_cmdline>
J2VwaWtfcHl0aG9uJywgJy1waCcsICc3LjAnLCAnLXRuJywgJzgnLCAnLW1hJywgJzIwMCcsICctbWV0YWxfYmluZGluZycsICctaW1hZScsICc8aW5maWxlLm1hZT4nLCAnLW9tYWUnLCAnPG91dGZpbGUubWFlPic=

> <r_lp_tautomer_probability>
0.785861

> <r_epik_Ionization_Penalty>
9.30511

> <r_epik_Ionization_Penalty_Charging>
6.7516

> <r_epik_Ionization_Penalty_Neutral>
2.55351

> <r_epik_State_Penalty>
6.77285

> <r_epik_Charging_Adjusted_Penalty>
13.5244

> <i_epik_Tot_Q>
-1

> <i_epik_Tot_abs_Q>
1

> <r_epik_Metal_State_Penalty>
2.67327

> <b_epik_Metal_Only>
1

> <s_lp_Force_Field>
OPLS_2005

> <r_lp_Energy>
20.6417

> <b_lp_Chiralities_Consistent>
1

> <s_lp_Variant>
AV-unprocessed.smi:3282-8

> <Gold.Version>
5.8.1

> <Gold.Id.Protein>
6NUR|6NUR_protein|mol2

> <Gold.PLP.Fitness>
42.8121

> <Gold.PLP.PLP>
-33.4311

> <Gold.PLP.part.hbond>
-3.0000

> <Gold.PLP.part.metal>
0.0000

> <Gold.PLP.part.buried>
-5.0438

> <Gold.PLP.part.nonpolar>
-25.6131

> <Gold.PLP.part.repulsive>
0.1745

> <Gold.PLP.ligand.clash>
0.0000

> <Gold.PLP.ligand.torsion>
0.9886

> <Gold.PLP.Chemscore.Hbond>
3.7600

> <Gold.PLP.Chemscore.CHOScore>
0.0000

> <Gold.PLP.Chemscore.Metal>
0.0000

> <Gold.Chemscore.Hbonds>
donor molecule, donor type, donor heavy atom, donor atom, acceptor molecule, acceptor atom, score
      P1  H  6896  6908       L1    12  2.00
      P1  H  6931  6943       L1    14  0.85
      P1  H  6934  6947       L1    14  0.59

> <Gold.PLP.Chemscore.Internal.Correction>
0.0782

> <Gold.Rescore>
     Score         DG    S(hbond)    S(metal)    S(lipo)     H(rot)  DE(clash)    DE(int)     intcor
     13.21     -15.53       1.93        0.00      59.29       1.31       0.02       2.29       ----

> <Gold.Chemscore.Fitness>
13.2138

> <Gold.Chemscore.DG>
-15.5270

> <Gold.Chemscore.ZeroCoef>
-5.4800

> <Gold.Chemscore.Hbond>
1.9339

> <Gold.Chemscore.Metal>
0.0000

> <Gold.Chemscore.Lipo>
59.2864

> <Gold.Chemscore.Internal_Hbond>
0.0000

> <Gold.Chemscore.DEClash>
0.0231

> <Gold.Chemscore.DEInternal>
2.2901

> <Gold.Chemscore.Rot>
1.3082

> <Gold.Chemscore.Internal.Correction>
   9.000000E+99

> <Gold.Chemscore.Hbonds>
donor molecule, donor type, donor heavy atom, donor atom, acceptor molecule, acceptor atom, score
      P1  H  6896  6908       L1    12  0.93
      P1  H  6931  6943       L1    14  0.30
      P1  H  6934  6947       L1    14  0.06

> <Gold.Chemscore.Hbond.Weighted>
-6.4594

> <Gold.Chemscore.Metal.Weighted>
-0.0000

> <Gold.Chemscore.Lipo.Weighted>
-6.9365

> <Gold.Chemscore.Internal_Hbond.Weighted>
0.0000

> <Gold.Chemscore.DEClash.Weighted>
0.0231

> <Gold.Chemscore.DEInternal.Weighted>
2.2901

> <Gold.Chemscore.Rot.Weighted>
3.3489

> <Gold.Chemscore.Internal.Correction.Weighted>
   9.000000E+99

> <Gold.Protein.RotatedTorsions>
[ 6907 6896 6895 6894 ] final  176.41 input  -60.11 | X-H torsion
[ 7974 7965 7964 7962 ] final  134.01 input  175.53 | X-H torsion
[ 8008 7997 7996 7995 ] final   -4.12 input   59.86 | X-H torsion
[ 10167 10162 10161 10158 ] final   -9.84 input  -65.29 | X-H torsion
[ 10718 10713 10712 10709 ] final  125.54 input   66.30 | X-H torsion
[ 10763 10752 10751 10750 ] final -152.02 input  -60.55 | X-H torsion
[ 11005 11000 10999 10996 ] final  -93.25 input  -57.11 | X-H torsion

> <Gold.Protein.ActiveResidues>
 VAL166  LYS551  ARG553  GLY616  TRP617  ASP618  TYR619  PRO620  LYS621  CYS622 
 ASP623  PHE694  ASN695  SER759  ASP760  ASP761  ALA762  ILE779  LEU786  VAL792 
 PHE793  MET794  SER795  GLU796  ALA797  LYS798  CYS799  TRP800  GLU811  SER814 

> <Gold.Protein.RotatedAtoms>
  151.7206  133.3314  159.3314 H   0  0  0  0  0  0  0  0  0  0  0  0  # atno 6907 bound_to 6896
  150.7654  134.6451  159.6267 H   0  0  0  0  0  0  0  0  0  0  0  0  # atno 6908 bound_to 6896
  152.3654  134.6814  160.0245 H   0  0  0  0  0  0  0  0  0  0  0  0  # atno 6909 bound_to 6896
  144.9807  139.4508  143.5388 H   0  0  0  0  0  0  0  0  0  0  0  0  # atno 7974 bound_to 7965
  154.6177  140.2492  155.7589 H   0  0  0  0  0  0  0  0  0  0  0  0  # atno 8008 bound_to 7997
  156.2408  140.2933  156.0389 H   0  0  0  0  0  0  0  0  0  0  0  0  # atno 8009 bound_to 7997
  155.1948  140.0392  157.2897 H   0  0  0  0  0  0  0  0  0  0  0  0  # atno 8010 bound_to 7997
  140.7098  143.5814  150.8988 H   0  0  0  0  0  0  0  0  0  0  0  0  # atno 10167 bound_to 10162
  157.5495  131.1094  150.8726 H   0  0  0  0  0  0  0  0  0  0  0  0  # atno 10718 bound_to 10713
  154.8021  135.3246  154.7524 H   0  0  0  0  0  0  0  0  0  0  0  0  # atno 10763 bound_to 10752
  153.8189  135.6889  153.4834 H   0  0  0  0  0  0  0  0  0  0  0  0  # atno 10764 bound_to 10752
  153.1744  135.4610  154.9889 H   0  0  0  0  0  0  0  0  0  0  0  0  # atno 10765 bound_to 10752
  141.1502  133.7875  157.0133 H   0  0  0  0  0  0  0  0  0  0  0  0  # atno 11005 bound_to 11000
  146.3407  139.9077  142.8785 LP  0  0  0  0  0  0  0  0  0  0  0  0  # atno 17320 bound_to 7965
  145.2426  141.0015  143.3927 LP  0  0  0  0  0  0  0  0  0  0  0  0  # atno 17321 bound_to 7965
  139.9540  143.6240  152.3021 LP  0  0  0  0  0  0  0  0  0  0  0  0  # atno 17342 bound_to 10162
  139.6768  144.7658  151.1680 LP  0  0  0  0  0  0  0  0  0  0  0  0  # atno 17343 bound_to 10162
  156.9255  130.5330  149.5279 LP  0  0  0  0  0  0  0  0  0  0  0  0  # atno 17370 bound_to 10713
  156.0564  130.5625  150.9100 LP  0  0  0  0  0  0  0  0  0  0  0  0  # atno 17371 bound_to 10713
  140.0863  134.9618  157.1706 LP  0  0  0  0  0  0  0  0  0  0  0  0  # atno 17394 bound_to 11000
  140.3507  134.2602  155.7199 LP  0  0  0  0  0  0  0  0  0  0  0  0  # atno 17395 bound_to 11000

$$$$
