AV-unprocessed.smi:2995|AV-procd|sdf|11407|dock2
  -GOLD-   2272016333D 1   1.00000     0.00000
 Structure written by MMmdl.
 49 51  0  0  0  0  0  0  0  0  2 V2000
  151.1492  137.7310  154.3398 C   0  0  0  0  0  0  0  0  0  0  0  0
  150.4339  139.0415  154.6160 C   0  0  0  0  0  0  0  0  0  0  0  0
  151.1299  140.1046  155.2275 C   0  0  0  0  0  0  0  0  0  0  0  0
  150.4443  141.3100  155.4699 C   0  0  0  0  0  0  0  0  0  0  0  0
  149.1518  141.5053  155.1387 N   0  0  0  0  0  0  0  0  0  0  0  0
  148.4865  140.4861  154.5552 C   0  0  0  0  0  0  0  0  0  0  0  0
  149.0709  139.2245  154.2791 C   0  0  0  0  0  0  0  0  0  0  0  0
  148.3659  138.1640  153.6443 N   0  0  0  0  0  0  0  0  0  0  0  0
  147.0958  138.1562  153.2053 C   0  0  0  0  0  0  0  0  0  0  0  0
  146.3077  139.0979  153.2888 O   0  0  0  0  0  0  0  0  0  0  0  0
  146.7720  136.9674  152.6758 N   0  0  0  0  0  0  0  0  0  0  0  0
  145.4633  136.6229  152.1279 C   0  0  2  0  0  0  0  0  0  0  0  0
  144.7017  135.6790  153.0792 C   0  0  0  0  0  0  0  0  0  0  0  0
  143.3761  135.2065  152.4529 C   0  0  0  0  0  0  0  0  0  0  0  0
  143.5844  134.5543  151.1305 N   0  3  2  0  0  0  0  0  0  0  0  0
  144.1804  133.1860  151.2013 C   0  0  0  0  0  0  0  0  0  0  0  0
  145.5873  133.1591  151.8145 C   0  0  0  0  0  0  0  0  0  0  0  0
  146.2033  131.8370  151.3476 C   0  0  0  0  0  0  0  0  0  0  0  0
  145.4671  131.4561  150.0562 C   0  0  0  0  0  0  0  0  0  0  0  0
  144.4156  132.5466  149.8252 C   0  0  0  0  0  0  0  0  0  0  0  0
  144.2750  135.4837  150.1936 C   0  0  0  0  0  0  0  0  0  0  0  0
  145.6304  135.9627  150.7484 C   0  0  0  0  0  0  0  0  0  0  0  0
  152.1854  137.7653  154.6772 H   0  0  0  0  0  0  0  0  0  0  0  0
  151.1495  137.5160  153.2711 H   0  0  0  0  0  0  0  0  0  0  0  0
  150.6532  136.9099  154.8581 H   0  0  0  0  0  0  0  0  0  0  0  0
  152.1682  140.0042  155.5074 H   0  0  0  0  0  0  0  0  0  0  0  0
  150.9500  142.1420  155.9374 H   0  0  0  0  0  0  0  0  0  0  0  0
  147.4657  140.7109  154.2877 H   0  0  0  0  0  0  0  0  0  0  0  0
  148.8624  137.2869  153.5887 H   0  0  0  0  0  0  0  0  0  0  0  0
  147.4813  136.2492  152.6517 H   0  0  0  0  0  0  0  0  0  0  0  0
  144.8807  137.5369  151.9959 H   0  0  0  0  0  0  0  0  0  0  0  0
  145.3218  134.8180  153.3311 H   0  0  0  0  0  0  0  0  0  0  0  0
  144.4941  136.1870  154.0216 H   0  0  0  0  0  0  0  0  0  0  0  0
  142.8410  134.5511  153.1389 H   0  0  0  0  0  0  0  0  0  0  0  0
  142.7238  136.0687  152.3073 H   0  0  0  0  0  0  0  0  0  0  0  0
  143.5366  132.5263  151.7842 H   0  0  0  0  0  0  0  0  0  0  0  0
  146.1793  133.9897  151.4268 H   0  0  0  0  0  0  0  0  0  0  0  0
  145.5784  133.2356  152.9022 H   0  0  0  0  0  0  0  0  0  0  0  0
  147.2793  131.9292  151.1949 H   0  0  0  0  0  0  0  0  0  0  0  0
  146.0465  131.0644  152.1014 H   0  0  0  0  0  0  0  0  0  0  0  0
  146.1478  131.3770  149.2078 H   0  0  0  0  0  0  0  0  0  0  0  0
  144.9854  130.4851  150.1787 H   0  0  0  0  0  0  0  0  0  0  0  0
  143.5043  132.1391  149.3863 H   0  0  0  0  0  0  0  0  0  0  0  0
  144.8143  133.2889  149.1316 H   0  0  0  0  0  0  0  0  0  0  0  0
  144.4009  135.0344  149.2095 H   0  0  0  0  0  0  0  0  0  0  0  0
  143.6285  136.3483  150.0365 H   0  0  0  0  0  0  0  0  0  0  0  0
  146.0791  136.6719  150.0515 H   0  0  0  0  0  0  0  0  0  0  0  0
  146.3228  135.1226  150.8131 H   0  0  0  0  0  0  0  0  0  0  0  0
  142.6609  134.4145  150.7457 H   0  0  0  0  0  0  0  0  0  0  0  0
  1  2  1  0  0  0  0
  1 23  1  0  0  0  0
  1 24  1  0  0  0  0
  1 25  1  0  0  0  0
  2  7  1  0  0  0  0
  2  3  2  0  0  0  0
  3  4  1  0  0  0  0
  3 26  1  0  0  0  0
  4  5  2  0  0  0  0
  4 27  1  0  0  0  0
  5  6  1  0  0  0  0
  6  7  2  0  0  0  0
  6 28  1  0  0  0  0
  7  8  1  0  0  0  0
  8  9  1  0  0  0  0
  8 29  1  0  0  0  0
  9 10  2  0  0  0  0
  9 11  1  0  0  0  0
 11 12  1  0  0  0  0
 11 30  1  0  0  0  0
 12 22  1  0  0  0  0
 12 13  1  0  0  0  0
 12 31  1  0  0  0  0
 13 14  1  0  0  0  0
 13 32  1  0  0  0  0
 13 33  1  0  0  0  0
 14 15  1  0  0  0  0
 14 34  1  0  0  0  0
 14 35  1  0  0  0  0
 15 16  1  0  0  0  0
 15 21  1  0  0  0  0
 15 49  1  0  0  0  0
 16 20  1  0  0  0  0
 16 17  1  0  0  0  0
 16 36  1  0  0  0  0
 17 18  1  0  0  0  0
 17 37  1  0  0  0  0
 17 38  1  0  0  0  0
 18 19  1  0  0  0  0
 18 39  1  0  0  0  0
 18 40  1  0  0  0  0
 19 20  1  0  0  0  0
 19 41  1  0  0  0  0
 19 42  1  0  0  0  0
 20 43  1  0  0  0  0
 20 44  1  0  0  0  0
 21 22  1  0  0  0  0
 21 45  1  0  0  0  0
 21 46  1  0  0  0  0
 22 47  1  0  0  0  0
 22 48  1  0  0  0  0
M  CHG  1  15   1
M  END
> <s_m_source_file>
AV-unprocessed.smi

> <i_m_source_file_index>
2995

> <i_lp_mmshare_version>
43012

> <i_f3d_flags>
0

> <s_epik_input>
W0NIM11jMVtjSF1bY0hdbltjSF1jMVtOSF1DKD1PKVtOSF1bQ0hdMltDSDJdW0NIMl1OKFtDSDJdW0NIMl0yKVtDSF0zW0NIMl1bQ0gyXVtDSDJdW0NIMl0z

> <s_epik_cmdline>
J2VwaWtfcHl0aG9uJywgJy1waCcsICc3LjAnLCAnLXRuJywgJzgnLCAnLW1hJywgJzIwMCcsICctbWV0YWxfYmluZGluZycsICctaW1hZScsICc8aW5maWxlLm1hZT4nLCAnLW9tYWUnLCAnPG91dGZpbGUubWFlPic=

> <r_epik_Ionization_Penalty>
0.0196897

> <r_epik_Ionization_Penalty_Charging>
0.00179121

> <r_epik_Ionization_Penalty_Neutral>
0.0178985

> <r_epik_State_Penalty>
0.014187

> <r_epik_Charging_Adjusted_Penalty>
0.0159782

> <i_epik_Tot_Q>
1

> <i_epik_Tot_abs_Q>
1

> <r_epik_Metal_State_Penalty>
0.013703

> <b_epik_Metal_Only>
0

> <s_lp_Force_Field>
OPLS_2005

> <r_lp_Energy>
42.3495

> <b_lp_Chiralities_Consistent>
1

> <s_lp_Variant>
AV-unprocessed.smi:2995-2

> <Gold.Version>
5.8.1

> <Gold.Id.Protein>
6NUR|6NUR_protein|mol2

> <Gold.PLP.Fitness>
45.8835

> <Gold.PLP.PLP>
-38.6701

> <Gold.PLP.part.hbond>
-2.7262

> <Gold.PLP.part.metal>
0.0000

> <Gold.PLP.part.buried>
-1.5114

> <Gold.PLP.part.nonpolar>
-35.3048

> <Gold.PLP.part.repulsive>
0.6328

> <Gold.PLP.ligand.clash>
1.4842

> <Gold.PLP.ligand.torsion>
0.1859

> <Gold.PLP.Chemscore.Hbond>
3.0047

> <Gold.PLP.Chemscore.CHOScore>
0.0000

> <Gold.PLP.Chemscore.Metal>
0.0000

> <Gold.Chemscore.Hbonds>
donor molecule, donor type, donor heavy atom, donor atom, acceptor molecule, acceptor atom, score
      L1  H     8    29       P1  7948  0.43
      L1  H    11    30       P1  7948  0.59
      L1  H    15    49       P1 10186  2.00

> <Gold.PLP.Chemscore.Internal.Correction>
0.0554

> <Gold.Rescore>
     Score         DG    S(hbond)    S(metal)    S(lipo)     H(rot)  DE(clash)    DE(int)     intcor
     18.36     -23.80       2.41        0.00     113.53       1.17       1.83       3.61       ----

> <Gold.Chemscore.Fitness>
18.3602

> <Gold.Chemscore.DG>
-23.7997

> <Gold.Chemscore.ZeroCoef>
-5.4800

> <Gold.Chemscore.Hbond>
2.4069

> <Gold.Chemscore.Metal>
0.0000

> <Gold.Chemscore.Lipo>
113.5345

> <Gold.Chemscore.Internal_Hbond>
0.0000

> <Gold.Chemscore.DEClash>
1.8274

> <Gold.Chemscore.DEInternal>
3.6120

> <Gold.Chemscore.Rot>
1.1731

> <Gold.Chemscore.Internal.Correction>
   9.000000E+99

> <Gold.Chemscore.Hbonds>
donor molecule, donor type, donor heavy atom, donor atom, acceptor molecule, acceptor atom, score
      L1  H     8    29       P1  7948  0.42
      L1  H    11    30       P1  7948  0.60
      L1  H    15    49       P1 10186  0.28

> <Gold.Chemscore.Hbond.Weighted>
-8.0392

> <Gold.Chemscore.Metal.Weighted>
-0.0000

> <Gold.Chemscore.Lipo.Weighted>
-13.2835

> <Gold.Chemscore.Internal_Hbond.Weighted>
0.0000

> <Gold.Chemscore.DEClash.Weighted>
1.8274

> <Gold.Chemscore.DEInternal.Weighted>
3.6120

> <Gold.Chemscore.Rot.Weighted>
3.0030

> <Gold.Chemscore.Internal.Correction.Weighted>
   9.000000E+99

> <Gold.Protein.RotatedTorsions>
[ 6907 6896 6895 6894 ] final    4.47 input  -60.11 | X-H torsion
[ 7974 7965 7964 7962 ] final  112.98 input  175.53 | X-H torsion
[ 8008 7997 7996 7995 ] final   21.00 input   59.86 | X-H torsion
[ 10167 10162 10161 10158 ] final    0.22 input  -65.29 | X-H torsion
[ 10718 10713 10712 10709 ] final  113.78 input   66.30 | X-H torsion
[ 10763 10752 10751 10750 ] final    7.40 input  -60.55 | X-H torsion
[ 11005 11000 10999 10996 ] final  -62.08 input  -57.11 | X-H torsion

> <Gold.Protein.ActiveResidues>
 VAL166  LYS551  ARG553  GLY616  TRP617  ASP618  TYR619  PRO620  LYS621  CYS622 
 ASP623  PHE694  ASN695  SER759  ASP760  ASP761  ALA762  ILE779  LEU786  VAL792 
 PHE793  MET794  SER795  GLU796  ALA797  LYS798  CYS799  TRP800  GLU811  SER814 

> <Gold.Protein.RotatedAtoms>
  151.6417  135.1012  160.0142 H   0  0  0  0  0  0  0  0  0  0  0  0  # atno 6907 bound_to 6896
  152.4050  133.6871  159.6357 H   0  0  0  0  0  0  0  0  0  0  0  0  # atno 6908 bound_to 6896
  150.7945  133.8642  159.3281 H   0  0  0  0  0  0  0  0  0  0  0  0  # atno 6909 bound_to 6896
  145.2227  139.2854  143.4209 H   0  0  0  0  0  0  0  0  0  0  0  0  # atno 7974 bound_to 7965
  154.9440  140.3057  155.5107 H   0  0  0  0  0  0  0  0  0  0  0  0  # atno 8008 bound_to 7997
  156.2993  140.2331  156.4449 H   0  0  0  0  0  0  0  0  0  0  0  0  # atno 8009 bound_to 7997
  154.8118  140.0428  157.1337 H   0  0  0  0  0  0  0  0  0  0  0  0  # atno 8010 bound_to 7997
  140.6738  143.6973  150.7980 H   0  0  0  0  0  0  0  0  0  0  0  0  # atno 10167 bound_to 10162
  157.6319  131.0989  150.7090 H   0  0  0  0  0  0  0  0  0  0  0  0  # atno 10718 bound_to 10713
  153.2367  135.6899  153.7829 H   0  0  0  0  0  0  0  0  0  0  0  0  # atno 10763 bound_to 10752
  153.6974  135.3303  155.3217 H   0  0  0  0  0  0  0  0  0  0  0  0  # atno 10764 bound_to 10752
  154.8338  135.4559  154.1273 H   0  0  0  0  0  0  0  0  0  0  0  0  # atno 10765 bound_to 10752
  141.1347  133.6636  156.5473 H   0  0  0  0  0  0  0  0  0  0  0  0  # atno 11005 bound_to 11000
  146.3372  140.2538  142.8599 LP  0  0  0  0  0  0  0  0  0  0  0  0  # atno 17320 bound_to 7965
  144.9750  140.8405  143.5432 LP  0  0  0  0  0  0  0  0  0  0  0  0  # atno 17321 bound_to 7965
  140.0662  143.5105  152.2603 LP  0  0  0  0  0  0  0  0  0  0  0  0  # atno 17342 bound_to 10162
  139.6020  144.7585  151.3149 LP  0  0  0  0  0  0  0  0  0  0  0  0  # atno 17343 bound_to 10162
  156.7428  130.4744  149.5474 LP  0  0  0  0  0  0  0  0  0  0  0  0  # atno 17370 bound_to 10713
  156.1529  130.6322  151.0619 LP  0  0  0  0  0  0  0  0  0  0  0  0  # atno 17371 bound_to 10713
  140.4092  134.7287  157.4826 LP  0  0  0  0  0  0  0  0  0  0  0  0  # atno 17394 bound_to 11000
  140.0440  134.6227  155.8945 LP  0  0  0  0  0  0  0  0  0  0  0  0  # atno 17395 bound_to 11000

$$$$
