AV-unprocessed.smi:1703|AV-procd|sdf|6859|dock9
  -GOLD-   22720 8 43D 1   1.00000     0.00000
 Structure written by MMmdl.
 49 51  0  0  0  0  0  0  0  0  2 V2000
  146.3287  138.4049  152.2767 C   0  0  0  0  0  0  0  0  0  0  0  0
  147.3150  139.3733  152.9387 C   0  0  2  0  0  0  0  0  0  0  0  0
  148.4964  138.6349  153.5938 C   0  0  0  0  0  0  0  0  0  0  0  0
  149.3773  139.5944  154.2974 N   0  3  2  0  0  0  0  0  0  0  0  0
  150.5969  138.9545  154.8511 C   0  0  0  0  0  0  0  0  0  0  0  0
  151.3396  139.8754  155.8434 C   0  0  2  0  0  0  0  0  0  0  0  0
  152.7140  139.5462  155.8316 O   0  0  0  0  0  0  0  0  0  0  0  0
  150.8367  139.7572  157.2958 C   0  0  0  0  0  0  0  0  0  0  0  0
  151.6239  140.5551  158.2268 N   0  0  0  0  0  0  0  0  0  0  0  0
  152.3526  140.1407  159.2952 C   0  0  0  0  0  0  0  0  0  0  0  0
  152.4546  138.6993  159.6902 C   0  0  0  0  0  0  0  0  0  0  0  0
  153.3420  138.4913  160.7677 O   0  0  0  0  0  0  0  0  0  0  0  0
  152.9738  141.1010  159.9805 N   0  0  0  0  0  0  0  0  0  0  0  0
  152.6274  142.2436  159.2870 C   0  0  0  0  0  0  0  0  0  0  0  0
  152.9731  143.5953  159.5125 C   0  0  0  0  0  0  0  0  0  0  0  0
  152.4913  144.6074  158.6568 C   0  0  0  0  0  0  0  0  0  0  0  0
  151.6593  144.2835  157.5656 C   0  0  0  0  0  0  0  0  0  0  0  0
  151.3029  142.9430  157.3231 C   0  0  0  0  0  0  0  0  0  0  0  0
  151.7850  141.9366  158.1812 C   0  0  0  0  0  0  0  0  0  0  0  0
  148.6010  140.3599  155.3036 C   0  0  0  0  0  0  0  0  0  0  0  0
  147.3921  141.0593  154.6527 C   0  0  1  0  0  0  0  0  0  0  0  0
  147.7774  142.2768  153.7935 C   0  0  0  0  0  0  0  0  0  0  0  0
  146.6054  140.1118  153.9301 O   0  0  0  0  0  0  0  0  0  0  0  0
  146.8164  137.8175  151.4983 H   0  0  0  0  0  0  0  0  0  0  0  0
  145.5021  138.9456  151.8149 H   0  0  0  0  0  0  0  0  0  0  0  0
  145.9065  137.7112  153.0045 H   0  0  0  0  0  0  0  0  0  0  0  0
  147.6878  140.0517  152.1710 H   0  0  0  0  0  0  0  0  0  0  0  0
  148.1352  137.8858  154.3006 H   0  0  0  0  0  0  0  0  0  0  0  0
  149.0646  138.1063  152.8274 H   0  0  0  0  0  0  0  0  0  0  0  0
  150.3121  138.0123  155.3212 H   0  0  0  0  0  0  0  0  0  0  0  0
  151.2815  138.6936  154.0426 H   0  0  0  0  0  0  0  0  0  0  0  0
  151.2479  140.9151  155.5321 H   0  0  0  0  0  0  0  0  0  0  0  0
  152.9875  139.4168  154.9358 H   0  0  0  0  0  0  0  0  0  0  0  0
  149.7875  140.0435  157.3597 H   0  0  0  0  0  0  0  0  0  0  0  0
  150.8853  138.7177  157.6236 H   0  0  0  0  0  0  0  0  0  0  0  0
  151.4681  138.3332  159.9772 H   0  0  0  0  0  0  0  0  0  0  0  0
  152.7722  138.1033  158.8349 H   0  0  0  0  0  0  0  0  0  0  0  0
  153.1920  137.6270  161.1192 H   0  0  0  0  0  0  0  0  0  0  0  0
  153.6115  143.8536  160.3444 H   0  0  0  0  0  0  0  0  0  0  0  0
  152.7631  145.6370  158.8375 H   0  0  0  0  0  0  0  0  0  0  0  0
  151.2966  145.0650  156.9140 H   0  0  0  0  0  0  0  0  0  0  0  0
  150.6682  142.6925  156.4860 H   0  0  0  0  0  0  0  0  0  0  0  0
  148.2513  139.6758  156.0785 H   0  0  0  0  0  0  0  0  0  0  0  0
  149.2280  141.0989  155.8015 H   0  0  0  0  0  0  0  0  0  0  0  0
  146.7537  141.4308  155.4549 H   0  0  0  0  0  0  0  0  0  0  0  0
  148.2676  143.0376  154.4014 H   0  0  0  0  0  0  0  0  0  0  0  0
  146.8936  142.7325  153.3467 H   0  0  0  0  0  0  0  0  0  0  0  0
  148.4635  142.0166  152.9881 H   0  0  0  0  0  0  0  0  0  0  0  0
  149.6942  140.2531  153.5998 H   0  0  0  0  0  0  0  0  0  0  0  0
  1  2  1  0  0  0  0
  1 24  1  0  0  0  0
  1 25  1  0  0  0  0
  1 26  1  0  0  0  0
  2 23  1  0  0  0  0
  2  3  1  0  0  0  0
  2 27  1  0  0  0  0
  3  4  1  0  0  0  0
  3 28  1  0  0  0  0
  3 29  1  0  0  0  0
  4  5  1  0  0  0  0
  4 20  1  0  0  0  0
  4 49  1  0  0  0  0
  5  6  1  0  0  0  0
  5 30  1  0  0  0  0
  5 31  1  0  0  0  0
  6  7  1  0  0  0  0
  6  8  1  0  0  0  0
  6 32  1  0  0  0  0
  7 33  1  0  0  0  0
  8  9  1  0  0  0  0
  8 34  1  0  0  0  0
  8 35  1  0  0  0  0
  9 19  1  0  0  0  0
  9 10  1  0  0  0  0
 10 11  1  0  0  0  0
 10 13  2  0  0  0  0
 11 12  1  0  0  0  0
 11 36  1  0  0  0  0
 11 37  1  0  0  0  0
 12 38  1  0  0  0  0
 13 14  1  0  0  0  0
 14 19  2  0  0  0  0
 14 15  1  0  0  0  0
 15 16  2  0  0  0  0
 15 39  1  0  0  0  0
 16 17  1  0  0  0  0
 16 40  1  0  0  0  0
 17 18  2  0  0  0  0
 17 41  1  0  0  0  0
 18 19  1  0  0  0  0
 18 42  1  0  0  0  0
 20 21  1  0  0  0  0
 20 43  1  0  0  0  0
 20 44  1  0  0  0  0
 21 22  1  0  0  0  0
 21 23  1  0  0  0  0
 21 45  1  0  0  0  0
 22 46  1  0  0  0  0
 22 47  1  0  0  0  0
 22 48  1  0  0  0  0
M  CHG  1   4   1
M  END
> <s_m_source_file>
AV-unprocessed.smi

> <i_m_source_file_index>
1703

> <i_lp_mmshare_version>
43012

> <i_f3d_flags>
0

> <s_epik_input>
W0NIM11bQ0BASF0xW0NIMl1OKFtDSDJdW0NASF0oTzEpW0NIM10pW0NIMl1bQ0BIXShbT0hdKVtDSDJdbihjKG4yKVtDSDJdW09IXSljKGMyMylbY0hdW2NIXVtjSF1bY0hdMw==

> <s_epik_cmdline>
J2VwaWtfcHl0aG9uJywgJy1waCcsICc3LjAnLCAnLXRuJywgJzgnLCAnLW1hJywgJzIwMCcsICctbWV0YWxfYmluZGluZycsICctaW1hZScsICc8aW5maWxlLm1hZT4nLCAnLW9tYWUnLCAnPG91dGZpbGUubWFlPic=

> <r_epik_Ionization_Penalty>
0.655661

> <r_epik_Ionization_Penalty_Charging>
0.608065

> <r_epik_Ionization_Penalty_Neutral>
0.0475963

> <r_epik_State_Penalty>
0.695267

> <r_epik_Charging_Adjusted_Penalty>
1.30333

> <i_epik_Tot_Q>
1

> <i_epik_Tot_abs_Q>
1

> <r_epik_Metal_State_Penalty>
0.653591

> <b_epik_Metal_Only>
0

> <s_lp_Force_Field>
OPLS_2005

> <r_lp_Energy>
25.4362

> <b_lp_Chiralities_Consistent>
1

> <s_lp_Variant>
AV-unprocessed.smi:1703-7

> <Gold.Version>
5.8.1

> <Gold.Id.Protein>
6NUR|6NUR_protein|mol2

> <Gold.PLP.Fitness>
46.7464

> <Gold.PLP.PLP>
-44.6704

> <Gold.PLP.part.hbond>
-1.0997

> <Gold.PLP.part.metal>
0.0000

> <Gold.PLP.part.buried>
-4.0551

> <Gold.PLP.part.nonpolar>
-40.2375

> <Gold.PLP.part.repulsive>
0.2091

> <Gold.PLP.ligand.clash>
0.0000

> <Gold.PLP.ligand.torsion>
0.4975

> <Gold.PLP.Chemscore.Hbond>
1.0000

> <Gold.PLP.Chemscore.CHOScore>
0.0000

> <Gold.PLP.Chemscore.Metal>
0.0000

> <Gold.Chemscore.Hbonds>
donor molecule, donor type, donor heavy atom, donor atom, acceptor molecule, acceptor atom, score
      P1  H  7997  8008       L1     7  0.80

> <Gold.PLP.Chemscore.Internal.Correction>
0.0709

> <Gold.Rescore>
     Score         DG    S(hbond)    S(metal)    S(lipo)     H(rot)  DE(clash)    DE(int)     intcor
     14.83     -15.44       0.84        0.00     125.95       2.96       0.25       0.35       ----

> <Gold.Chemscore.Fitness>
14.8327

> <Gold.Chemscore.DG>
-15.4388

> <Gold.Chemscore.ZeroCoef>
-5.4800

> <Gold.Chemscore.Hbond>
0.8391

> <Gold.Chemscore.Metal>
0.0000

> <Gold.Chemscore.Lipo>
125.9543

> <Gold.Chemscore.Internal_Hbond>
0.0000

> <Gold.Chemscore.DEClash>
0.2515

> <Gold.Chemscore.DEInternal>
0.3545

> <Gold.Chemscore.Rot>
2.9611

> <Gold.Chemscore.Internal.Correction>
   9.000000E+99

> <Gold.Chemscore.Hbonds>
donor molecule, donor type, donor heavy atom, donor atom, acceptor molecule, acceptor atom, score
      L1  H     4    49       P1  7957  0.03
      P1  H  7997  8008       L1     7  0.12

> <Gold.Chemscore.Hbond.Weighted>
-2.8025

> <Gold.Chemscore.Metal.Weighted>
-0.0000

> <Gold.Chemscore.Lipo.Weighted>
-14.7367

> <Gold.Chemscore.Internal_Hbond.Weighted>
0.0000

> <Gold.Chemscore.DEClash.Weighted>
0.2515

> <Gold.Chemscore.DEInternal.Weighted>
0.3545

> <Gold.Chemscore.Rot.Weighted>
7.5803

> <Gold.Chemscore.Internal.Correction.Weighted>
   9.000000E+99

> <Gold.Protein.RotatedTorsions>
[ 6907 6896 6895 6894 ] final -173.67 input  -60.11 | X-H torsion
[ 7974 7965 7964 7962 ] final -133.14 input  175.53 | X-H torsion
[ 8008 7997 7996 7995 ] final  -50.74 input   59.86 | X-H torsion
[ 10167 10162 10161 10158 ] final   61.46 input  -65.29 | X-H torsion
[ 10718 10713 10712 10709 ] final   33.41 input   66.30 | X-H torsion
[ 10763 10752 10751 10750 ] final  -21.48 input  -60.55 | X-H torsion
[ 11005 11000 10999 10996 ] final  -78.16 input  -57.11 | X-H torsion

> <Gold.Protein.ActiveResidues>
 VAL166  LYS551  ARG553  GLY616  TRP617  ASP618  TYR619  PRO620  LYS621  CYS622 
 ASP623  PHE694  ASN695  SER759  ASP760  ASP761  ALA762  ILE779  LEU786  VAL792 
 PHE793  MET794  SER795  GLU796  ALA797  LYS798  CYS799  TRP800  GLU811  SER814 

> <Gold.Protein.RotatedAtoms>
  151.5599  133.3405  159.2968 H   0  0  0  0  0  0  0  0  0  0  0  0  # atno 6907 bound_to 6896
  150.8429  134.7730  159.6958 H   0  0  0  0  0  0  0  0  0  0  0  0  # atno 6908 bound_to 6896
  152.4493  134.5436  159.9898 H   0  0  0  0  0  0  0  0  0  0  0  0  # atno 6909 bound_to 6896
  144.9221  140.7026  143.4959 H   0  0  0  0  0  0  0  0  0  0  0  0  # atno 7974 bound_to 7965
  154.4068  140.1265  156.4715 H   0  0  0  0  0  0  0  0  0  0  0  0  # atno 8008 bound_to 7997
  155.7175  140.3493  155.4981 H   0  0  0  0  0  0  0  0  0  0  0  0  # atno 8009 bound_to 7997
  155.9245  140.1058  157.1171 H   0  0  0  0  0  0  0  0  0  0  0  0  # atno 8010 bound_to 7997
  140.1545  144.4430  150.6741 H   0  0  0  0  0  0  0  0  0  0  0  0  # atno 10167 bound_to 10162
  157.2975  130.7334  149.6647 H   0  0  0  0  0  0  0  0  0  0  0  0  # atno 10718 bound_to 10713
  153.6367  135.6987  153.5256 H   0  0  0  0  0  0  0  0  0  0  0  0  # atno 10763 bound_to 10752
  153.2815  135.4184  155.1082 H   0  0  0  0  0  0  0  0  0  0  0  0  # atno 10764 bound_to 10752
  154.8509  135.3603  154.5911 H   0  0  0  0  0  0  0  0  0  0  0  0  # atno 10765 bound_to 10752
  141.1663  133.7052  156.7929 H   0  0  0  0  0  0  0  0  0  0  0  0  # atno 11005 bound_to 11000
  145.3279  139.1768  143.4552 LP  0  0  0  0  0  0  0  0  0  0  0  0  # atno 17320 bound_to 7965
  146.3209  140.3305  142.8640 LP  0  0  0  0  0  0  0  0  0  0  0  0  # atno 17321 bound_to 7965
  140.6682  143.2275  151.5691 LP  0  0  0  0  0  0  0  0  0  0  0  0  # atno 17342 bound_to 10162
  139.5410  144.2648  152.1350 LP  0  0  0  0  0  0  0  0  0  0  0  0  # atno 17343 bound_to 10162
  155.9670  130.4290  150.4813 LP  0  0  0  0  0  0  0  0  0  0  0  0  # atno 17370 bound_to 10713
  157.2787  131.0602  151.2212 LP  0  0  0  0  0  0  0  0  0  0  0  0  # atno 17371 bound_to 10713
  140.2312  134.8684  157.3478 LP  0  0  0  0  0  0  0  0  0  0  0  0  # atno 17394 bound_to 11000
  140.1889  134.4396  155.7727 LP  0  0  0  0  0  0  0  0  0  0  0  0  # atno 17395 bound_to 11000

$$$$
