AV-unprocessed.smi:3255|AV-procd|sdf|12458|dock8
  -GOLD-   2272018353D 1   1.00000     0.00000
 Structure written by MMmdl.
 39 40  0  0  0  0  0  0  0  0  2 V2000
  148.5444  140.7299  154.0464 C   0  0  0  0  0  0  0  0  0  0  0  0
  148.9556  139.2843  154.3613 C   0  0  1  0  0  0  0  0  0  0  0  0
  148.2620  138.3775  153.4477 N   0  0  0  0  0  0  0  0  0  0  0  0
  146.9324  138.2796  153.3117 C   0  0  0  0  0  0  0  0  0  0  0  0
  146.1193  138.9736  153.9230 O   0  0  0  0  0  0  0  0  0  0  0  0
  146.5889  137.3209  152.4406 N   0  0  0  0  0  0  0  0  0  0  0  0
  145.2154  136.9577  152.1145 C   0  0  0  0  0  0  0  0  0  0  0  0
  145.1577  136.0041  150.9092 C   0  0  0  0  0  0  0  0  0  0  0  0
  144.4644  134.7586  151.2387 N   0  0  0  0  0  0  0  0  0  0  0  0
  144.3316  133.6435  150.4521 C   0  0  0  0  0  0  0  0  0  0  0  0
  143.6025  132.7379  151.1797 C   0  0  0  0  0  0  0  0  0  0  0  0
  143.3210  133.3390  152.3775 N   0  3  0  0  0  0  0  0  0  0  0  0
  143.8458  134.5682  152.4112 C   0  0  0  0  0  0  0  0  0  0  0  0
  150.4899  139.0969  154.3041 C   0  0  2  0  0  0  0  0  0  0  0  0
  151.0602  137.9063  155.0870 C   0  0  0  0  0  0  0  0  0  0  0  0
  152.4545  138.3895  155.4146 C   0  0  0  0  0  0  0  0  0  0  0  0
  152.2022  139.8650  155.7007 C   0  0  0  0  0  0  0  0  0  0  0  0
  151.1663  140.2503  154.8036 O   0  0  0  0  0  0  0  0  0  0  0  0
  149.0171  141.4302  154.7356 H   0  0  0  0  0  0  0  0  0  0  0  0
  147.4655  140.8597  154.1369 H   0  0  0  0  0  0  0  0  0  0  0  0
  148.8300  141.0157  153.0336 H   0  0  0  0  0  0  0  0  0  0  0  0
  148.6276  139.0768  155.3816 H   0  0  0  0  0  0  0  0  0  0  0  0
  148.8415  137.7608  152.8975 H   0  0  0  0  0  0  0  0  0  0  0  0
  147.3243  136.8016  151.9835 H   0  0  0  0  0  0  0  0  0  0  0  0
  144.7385  136.5052  152.9858 H   0  0  0  0  0  0  0  0  0  0  0  0
  144.6598  137.8703  151.8964 H   0  0  0  0  0  0  0  0  0  0  0  0
  144.6372  136.4704  150.0717 H   0  0  0  0  0  0  0  0  0  0  0  0
  146.1594  135.7470  150.5604 H   0  0  0  0  0  0  0  0  0  0  0  0
  144.7538  133.5791  149.4595 H   0  0  0  0  0  0  0  0  0  0  0  0
  143.2711  131.7378  150.9411 H   0  0  0  0  0  0  0  0  0  0  0  0
  143.7817  135.2697  153.2243 H   0  0  0  0  0  0  0  0  0  0  0  0
  150.7971  139.0010  153.2614 H   0  0  0  0  0  0  0  0  0  0  0  0
  150.5129  137.7304  156.0133 H   0  0  0  0  0  0  0  0  0  0  0  0
  151.0549  136.9805  154.5112 H   0  0  0  0  0  0  0  0  0  0  0  0
  152.9065  137.8631  156.2558 H   0  0  0  0  0  0  0  0  0  0  0  0
  153.1065  138.2782  154.5473 H   0  0  0  0  0  0  0  0  0  0  0  0
  151.8432  139.9982  156.7222 H   0  0  0  0  0  0  0  0  0  0  0  0
  153.0941  140.4782  155.5702 H   0  0  0  0  0  0  0  0  0  0  0  0
  142.7918  132.9172  153.1307 H   0  0  0  0  0  0  0  0  0  0  0  0
  1  2  1  0  0  0  0
  1 19  1  0  0  0  0
  1 20  1  0  0  0  0
  1 21  1  0  0  0  0
  2  3  1  0  0  0  0
  2 14  1  0  0  0  0
  2 22  1  0  0  0  0
  3  4  1  0  0  0  0
  3 23  1  0  0  0  0
  4  5  2  0  0  0  0
  4  6  1  0  0  0  0
  6  7  1  0  0  0  0
  6 24  1  0  0  0  0
  7  8  1  0  0  0  0
  7 25  1  0  0  0  0
  7 26  1  0  0  0  0
  8  9  1  0  0  0  0
  8 27  1  0  0  0  0
  8 28  1  0  0  0  0
  9 13  1  0  0  0  0
  9 10  1  0  0  0  0
 10 11  2  0  0  0  0
 10 29  1  0  0  0  0
 11 12  1  0  0  0  0
 11 30  1  0  0  0  0
 12 13  2  0  0  0  0
 12 39  1  0  0  0  0
 13 31  1  0  0  0  0
 14 18  1  0  0  0  0
 14 15  1  0  0  0  0
 14 32  1  0  0  0  0
 15 16  1  0  0  0  0
 15 33  1  0  0  0  0
 15 34  1  0  0  0  0
 16 17  1  0  0  0  0
 16 35  1  0  0  0  0
 16 36  1  0  0  0  0
 17 18  1  0  0  0  0
 17 37  1  0  0  0  0
 17 38  1  0  0  0  0
M  CHG  1  12   1
M  END
> <s_m_source_file>
AV-unprocessed.smi

> <i_m_source_file_index>
3255

> <i_lp_mmshare_version>
43012

> <i_f3d_flags>
0

> <s_epik_input>
TzFbQ0gyXVtDSDJdW0NIMl1bQ0BIXTFbQ0BIXShbQ0gzXSlbTkhdQyg9TylbTkhdW0NIMl1bQ0gyXW4yW2NIXVtjSF1uW2NIXTI=

> <s_epik_cmdline>
J2VwaWtfcHl0aG9uJywgJy1waCcsICc3LjAnLCAnLXRuJywgJzgnLCAnLW1hJywgJzIwMCcsICctbWV0YWxfYmluZGluZycsICctaW1hZScsICc8aW5maWxlLm1hZT4nLCAnLW9tYWUnLCAnPG91dGZpbGUubWFlPic=

> <r_lp_tautomer_probability>
1

> <r_epik_Ionization_Penalty>
0.256241

> <r_epik_Ionization_Penalty_Charging>
0

> <r_epik_Ionization_Penalty_Neutral>
0.256241

> <r_epik_State_Penalty>
0.247735

> <r_epik_Charging_Adjusted_Penalty>
0.247735

> <i_epik_Tot_Q>
1

> <i_epik_Tot_abs_Q>
1

> <r_epik_Metal_State_Penalty>
0.537184

> <b_epik_Metal_Only>
0

> <s_lp_Force_Field>
OPLS_2005

> <r_lp_Energy>
18.6285

> <b_lp_Chiralities_Consistent>
1

> <s_lp_Variant>
AV-unprocessed.smi:3255-2

> <Gold.Version>
5.8.1

> <Gold.Id.Protein>
6NUR|6NUR_protein|mol2

> <Gold.PLP.Fitness>
51.0068

> <Gold.PLP.PLP>
-34.8936

> <Gold.PLP.part.hbond>
-4.6417

> <Gold.PLP.part.metal>
0.0000

> <Gold.PLP.part.buried>
-1.4490

> <Gold.PLP.part.nonpolar>
-28.8454

> <Gold.PLP.part.repulsive>
0.3050

> <Gold.PLP.ligand.clash>
0.0000

> <Gold.PLP.ligand.torsion>
0.8926

> <Gold.PLP.Chemscore.Hbond>
4.9600

> <Gold.PLP.Chemscore.CHOScore>
1.0000

> <Gold.PLP.Chemscore.Metal>
0.0000

> <Gold.Chemscore.Hbonds>
donor molecule, donor type, donor heavy atom, donor atom, acceptor molecule, acceptor atom, score
      L1  H     3    23       P1  7948  0.98
      L1  H     6    24       P1  7948  1.00
      L1  H    12    39       P1 10957  2.00
      P1  H  7989  7998       L1    18  0.96
      L1  C    10    29       P1  7921  0.84

> <Gold.PLP.Chemscore.Internal.Correction>
0.0184

> <Gold.Rescore>
     Score         DG    S(hbond)    S(metal)    S(lipo)     H(rot)  DE(clash)    DE(int)     intcor
     18.04     -19.35       3.47        0.00      69.03       2.26       0.41       0.90       ----

> <Gold.Chemscore.Fitness>
18.0350

> <Gold.Chemscore.DG>
-19.3510

> <Gold.Chemscore.ZeroCoef>
-5.4800

> <Gold.Chemscore.Hbond>
3.4702

> <Gold.Chemscore.Metal>
0.0000

> <Gold.Chemscore.Lipo>
69.0276

> <Gold.Chemscore.Internal_Hbond>
0.0000

> <Gold.Chemscore.DEClash>
0.4127

> <Gold.Chemscore.DEInternal>
0.9033

> <Gold.Chemscore.Rot>
2.2640

> <Gold.Chemscore.Internal.Correction>
   9.000000E+99

> <Gold.Chemscore.Hbonds>
donor molecule, donor type, donor heavy atom, donor atom, acceptor molecule, acceptor atom, score
      L1  H     3    23       P1  7948  0.93
      L1  H     6    24       P1  7948  0.98
      L1  H    12    39       P1 10957  0.51
      P1  H  7989  7998       L1    18  0.25

> <Gold.Chemscore.Hbond.Weighted>
-11.5905

> <Gold.Chemscore.Metal.Weighted>
-0.0000

> <Gold.Chemscore.Lipo.Weighted>
-8.0762

> <Gold.Chemscore.Internal_Hbond.Weighted>
0.0000

> <Gold.Chemscore.DEClash.Weighted>
0.4127

> <Gold.Chemscore.DEInternal.Weighted>
0.9033

> <Gold.Chemscore.Rot.Weighted>
5.7958

> <Gold.Chemscore.Internal.Correction.Weighted>
   9.000000E+99

> <Gold.Protein.RotatedTorsions>
[ 6907 6896 6895 6894 ] final  -20.40 input  -60.11 | X-H torsion
[ 7974 7965 7964 7962 ] final   42.30 input  175.53 | X-H torsion
[ 8008 7997 7996 7995 ] final    2.86 input   59.86 | X-H torsion
[ 10167 10162 10161 10158 ] final -176.11 input  -65.29 | X-H torsion
[ 10718 10713 10712 10709 ] final  -70.19 input   66.30 | X-H torsion
[ 10763 10752 10751 10750 ] final -149.99 input  -60.55 | X-H torsion
[ 11005 11000 10999 10996 ] final   59.62 input  -57.11 | X-H torsion

> <Gold.Protein.ActiveResidues>
 VAL166  LYS551  ARG553  GLY616  TRP617  ASP618  TYR619  PRO620  LYS621  CYS622 
 ASP623  PHE694  ASN695  SER759  ASP760  ASP761  ALA762  ILE779  LEU786  VAL792 
 PHE793  MET794  SER795  GLU796  ALA797  LYS798  CYS799  TRP800  GLU811  SER814 

> <Gold.Protein.RotatedAtoms>
  151.2487  135.0614  159.9053 H   0  0  0  0  0  0  0  0  0  0  0  0  # atno 6907 bound_to 6896
  152.5383  134.0356  159.8054 H   0  0  0  0  0  0  0  0  0  0  0  0  # atno 6908 bound_to 6896
  151.0561  133.5534  159.2669 H   0  0  0  0  0  0  0  0  0  0  0  0  # atno 6909 bound_to 6896
  146.0752  139.5316  142.9572 H   0  0  0  0  0  0  0  0  0  0  0  0  # atno 7974 bound_to 7965
  154.6966  140.2664  155.6760 H   0  0  0  0  0  0  0  0  0  0  0  0  # atno 8008 bound_to 7997
  156.2751  140.2780  156.1486 H   0  0  0  0  0  0  0  0  0  0  0  0  # atno 8009 bound_to 7997
  155.0822  140.0372  157.2633 H   0  0  0  0  0  0  0  0  0  0  0  0  # atno 8010 bound_to 7997
  139.5546  144.2021  152.1137 H   0  0  0  0  0  0  0  0  0  0  0  0  # atno 10167 bound_to 10162
  156.0419  130.4327  150.2259 H   0  0  0  0  0  0  0  0  0  0  0  0  # atno 10718 bound_to 10713
  154.8145  135.3295  154.7213 H   0  0  0  0  0  0  0  0  0  0  0  0  # atno 10763 bound_to 10752
  153.7856  135.6915  153.4885 H   0  0  0  0  0  0  0  0  0  0  0  0  # atno 10764 bound_to 10752
  153.1950  135.4537  155.0144 H   0  0  0  0  0  0  0  0  0  0  0  0  # atno 10765 bound_to 10752
  140.0290  134.6040  155.9533 H   0  0  0  0  0  0  0  0  0  0  0  0  # atno 11005 bound_to 11000
  145.6319  141.0302  143.1858 LP  0  0  0  0  0  0  0  0  0  0  0  0  # atno 17320 bound_to 7965
  144.7257  139.7884  143.7366 LP  0  0  0  0  0  0  0  0  0  0  0  0  # atno 17321 bound_to 7965
  140.1523  144.5103  150.6680 LP  0  0  0  0  0  0  0  0  0  0  0  0  # atno 17342 bound_to 10162
  140.6816  143.2330  151.5368 LP  0  0  0  0  0  0  0  0  0  0  0  0  # atno 17343 bound_to 10162
  157.0353  131.0019  151.3300 LP  0  0  0  0  0  0  0  0  0  0  0  0  # atno 17370 bound_to 10713
  157.5248  130.8021  149.7850 LP  0  0  0  0  0  0  0  0  0  0  0  0  # atno 17371 bound_to 10713
  141.1820  133.6548  156.5059 LP  0  0  0  0  0  0  0  0  0  0  0  0  # atno 17394 bound_to 11000
  140.4257  134.7147  157.4914 LP  0  0  0  0  0  0  0  0  0  0  0  0  # atno 17395 bound_to 11000

$$$$
