AV-unprocessed.smi:1212|AV-procd|sdf|5082|dock7
  -GOLD-   22720 4133D 1   1.00000     0.00000
 Structure written by MMmdl.
 39 40  0  0  0  0  0  0  0  0  1 V2000
  145.3255  136.5899  151.4964 C   0  0  0  0  0  0  0  0  0  0  0  0
  146.0280  137.7653  152.0857 C   0  0  0  0  0  0  0  0  0  0  0  0
  146.4627  138.7955  151.3494 N   0  0  0  0  0  0  0  0  0  0  0  0
  147.0851  139.7678  152.1205 N   0  0  0  0  0  0  0  0  0  0  0  0
  147.0994  139.4413  153.4203 C   0  0  0  0  0  0  0  0  0  0  0  0
  147.6741  140.2541  154.4328 N   0  0  0  0  0  0  0  0  0  0  0  0
  148.9762  140.4631  154.6960 C   0  0  0  0  0  0  0  0  0  0  0  0
  149.9173  139.9635  154.0787 O   0  0  0  0  0  0  0  0  0  0  0  0
  149.1337  141.2984  155.7329 N   0  0  0  0  0  0  0  0  0  0  0  0
  150.4183  141.7363  156.2650 C   0  0  0  0  0  0  0  0  0  0  0  0
  150.2500  142.5095  157.5864 C   0  0  0  0  0  0  0  0  0  0  0  0
  151.5229  142.5977  158.3131 N   0  0  0  0  0  0  0  0  0  0  0  0
  152.0996  143.9448  158.4569 C   0  0  0  0  0  0  0  0  0  0  0  0
  152.0514  144.4926  159.9027 C   0  0  0  0  0  0  0  0  0  0  0  0
  152.1093  143.4473  161.0343 C   0  0  0  0  0  0  0  0  0  0  0  0
  153.2840  142.4511  160.9436 C   0  0  0  0  0  0  0  0  0  0  0  0
  153.4360  141.6839  159.6086 C   0  0  0  0  0  0  0  0  0  0  0  0
  152.1217  141.4976  158.8329 C   0  0  0  0  0  0  0  0  0  0  0  0
  151.6582  140.3628  158.7167 O   0  0  0  0  0  0  0  0  0  0  0  0
  146.3456  137.9046  153.8105 S   0  0  0  0  0  0  0  0  0  0  0  0
  145.4763  136.5530  150.4169 H   0  0  0  0  0  0  0  0  0  0  0  0
  144.2565  136.6551  151.6989 H   0  0  0  0  0  0  0  0  0  0  0  0
  145.7095  135.6676  151.9326 H   0  0  0  0  0  0  0  0  0  0  0  0
  147.0148  140.7348  155.0267 H   0  0  0  0  0  0  0  0  0  0  0  0
  148.3071  141.6607  156.1853 H   0  0  0  0  0  0  0  0  0  0  0  0
  151.0770  140.8777  156.4058 H   0  0  0  0  0  0  0  0  0  0  0  0
  150.8940  142.3683  155.5148 H   0  0  0  0  0  0  0  0  0  0  0  0
  149.8640  143.5106  157.3856 H   0  0  0  0  0  0  0  0  0  0  0  0
  149.4880  142.0324  158.2033 H   0  0  0  0  0  0  0  0  0  0  0  0
  153.1299  143.9318  158.1007 H   0  0  0  0  0  0  0  0  0  0  0  0
  151.6041  144.6604  157.8004 H   0  0  0  0  0  0  0  0  0  0  0  0
  152.8570  145.2160  160.0313 H   0  0  0  0  0  0  0  0  0  0  0  0
  151.1272  145.0588  160.0252 H   0  0  0  0  0  0  0  0  0  0  0  0
  152.1626  143.9680  161.9908 H   0  0  0  0  0  0  0  0  0  0  0  0
  151.1675  142.8975  161.0663 H   0  0  0  0  0  0  0  0  0  0  0  0
  154.2145  142.9827  161.1453 H   0  0  0  0  0  0  0  0  0  0  0  0
  153.1803  141.7282  161.7534 H   0  0  0  0  0  0  0  0  0  0  0  0
  154.1583  142.1877  158.9666 H   0  0  0  0  0  0  0  0  0  0  0  0
  153.8758  140.7057  159.8069 H   0  0  0  0  0  0  0  0  0  0  0  0
  1  2  1  0  0  0  0
  1 21  1  0  0  0  0
  1 22  1  0  0  0  0
  1 23  1  0  0  0  0
  2 20  1  0  0  0  0
  2  3  2  0  0  0  0
  3  4  1  0  0  0  0
  4  5  2  0  0  0  0
  5  6  1  0  0  0  0
  5 20  1  0  0  0  0
  6  7  1  0  0  0  0
  6 24  1  0  0  0  0
  7  8  2  0  0  0  0
  7  9  1  0  0  0  0
  9 10  1  0  0  0  0
  9 25  1  0  0  0  0
 10 11  1  0  0  0  0
 10 26  1  0  0  0  0
 10 27  1  0  0  0  0
 11 12  1  0  0  0  0
 11 28  1  0  0  0  0
 11 29  1  0  0  0  0
 12 18  1  0  0  0  0
 12 13  1  0  0  0  0
 13 14  1  0  0  0  0
 13 30  1  0  0  0  0
 13 31  1  0  0  0  0
 14 15  1  0  0  0  0
 14 32  1  0  0  0  0
 14 33  1  0  0  0  0
 15 16  1  0  0  0  0
 15 34  1  0  0  0  0
 15 35  1  0  0  0  0
 16 17  1  0  0  0  0
 16 36  1  0  0  0  0
 16 37  1  0  0  0  0
 17 18  1  0  0  0  0
 17 38  1  0  0  0  0
 17 39  1  0  0  0  0
 18 19  2  0  0  0  0
M  END
> <s_m_source_file>
AV-unprocessed.smi

> <i_m_source_file_index>
1212

> <i_lp_mmshare_version>
43012

> <i_f3d_flags>
0

> <s_epik_input>
W0NIM11jMW5uYyhzMSlbTkhdQyg9TylbTkhdW0NIMl1bQ0gyXU4yW0NIMl1bQ0gyXVtDSDJdW0NIMl1bQ0gyXUMyPU8=

> <s_epik_cmdline>
J2VwaWtfcHl0aG9uJywgJy1waCcsICc3LjAnLCAnLXRuJywgJzgnLCAnLW1hJywgJzIwMCcsICctbWV0YWxfYmluZGluZycsICctaW1hZScsICc8aW5maWxlLm1hZT4nLCAnLW9tYWUnLCAnPG91dGZpbGUubWFlPic=

> <r_lp_tautomer_probability>
1

> <r_epik_Ionization_Penalty>
0.00255187

> <r_epik_Ionization_Penalty_Charging>
0

> <r_epik_Ionization_Penalty_Neutral>
0.00255187

> <r_epik_State_Penalty>
-0

> <r_epik_Charging_Adjusted_Penalty>
0

> <i_epik_Tot_Q>
0

> <i_epik_Tot_abs_Q>
0

> <r_epik_Metal_State_Penalty>
0.352847

> <b_epik_Metal_Only>
0

> <s_lp_Force_Field>
OPLS_2005

> <r_lp_Energy>
20.0291

> <b_lp_Chiralities_Consistent>
1

> <s_lp_Variant>
AV-unprocessed.smi:1212-1

> <Gold.Version>
5.8.1

> <Gold.Id.Protein>
6NUR|6NUR_protein|mol2

> <Gold.PLP.Fitness>
41.5812

> <Gold.PLP.PLP>
-37.5680

> <Gold.PLP.part.hbond>
-2.0000

> <Gold.PLP.part.metal>
0.0000

> <Gold.PLP.part.buried>
-4.6619

> <Gold.PLP.part.nonpolar>
-36.9908

> <Gold.PLP.part.repulsive>
7.1438

> <Gold.PLP.ligand.clash>
0.0000

> <Gold.PLP.ligand.torsion>
0.8375

> <Gold.PLP.Chemscore.Hbond>
1.8938

> <Gold.PLP.Chemscore.CHOScore>
0.0000

> <Gold.PLP.Chemscore.Metal>
0.0000

> <Gold.Chemscore.Hbonds>
donor molecule, donor type, donor heavy atom, donor atom, acceptor molecule, acceptor atom, score
      P1  H  7954  7966       L1     3  0.03
      P1  H  7989  7998       L1     8  0.93

> <Gold.PLP.Chemscore.Internal.Correction>
0.0069

> <Gold.Rescore>
     Score         DG    S(hbond)    S(metal)    S(lipo)     H(rot)  DE(clash)    DE(int)     intcor
     11.43     -15.64       1.17        0.00      89.68       1.65       2.60       1.61       ----

> <Gold.Chemscore.Fitness>
11.4306

> <Gold.Chemscore.DG>
-15.6412

> <Gold.Chemscore.ZeroCoef>
-5.4800

> <Gold.Chemscore.Hbond>
1.1687

> <Gold.Chemscore.Metal>
0.0000

> <Gold.Chemscore.Lipo>
89.6814

> <Gold.Chemscore.Internal_Hbond>
0.0000

> <Gold.Chemscore.DEClash>
2.5984

> <Gold.Chemscore.DEInternal>
1.6122

> <Gold.Chemscore.Rot>
1.6544

> <Gold.Chemscore.Internal.Correction>
   9.000000E+99

> <Gold.Chemscore.Hbonds>
donor molecule, donor type, donor heavy atom, donor atom, acceptor molecule, acceptor atom, score
      P1  H  7954  7966       L1     3  0.02
      P1  H  7989  7998       L1     8  0.85

> <Gold.Chemscore.Hbond.Weighted>
-3.9036

> <Gold.Chemscore.Metal.Weighted>
-0.0000

> <Gold.Chemscore.Lipo.Weighted>
-10.4927

> <Gold.Chemscore.Internal_Hbond.Weighted>
0.0000

> <Gold.Chemscore.DEClash.Weighted>
2.5984

> <Gold.Chemscore.DEInternal.Weighted>
1.6122

> <Gold.Chemscore.Rot.Weighted>
4.2352

> <Gold.Chemscore.Internal.Correction.Weighted>
   9.000000E+99

> <Gold.Protein.RotatedTorsions>
[ 6907 6896 6895 6894 ] final  -41.42 input  -60.11 | X-H torsion
[ 7974 7965 7964 7962 ] final    5.90 input  175.53 | X-H torsion
[ 8008 7997 7996 7995 ] final -161.71 input   59.86 | X-H torsion
[ 10167 10162 10161 10158 ] final -104.07 input  -65.29 | X-H torsion
[ 10718 10713 10712 10709 ] final   29.02 input   66.30 | X-H torsion
[ 10763 10752 10751 10750 ] final   79.71 input  -60.55 | X-H torsion
[ 11005 11000 10999 10996 ] final -176.33 input  -57.11 | X-H torsion

> <Gold.Protein.ActiveResidues>
 VAL166  LYS551  ARG553  GLY616  TRP617  ASP618  TYR619  PRO620  LYS621  CYS622 
 ASP623  PHE694  ASN695  SER759  ASP760  ASP761  ALA762  ILE779  LEU786  VAL792 
 PHE793  MET794  SER795  GLU796  ALA797  LYS798  CYS799  TRP800  GLU811  SER814 

> <Gold.Protein.RotatedAtoms>
  150.9670  134.9049  159.7764 H   0  0  0  0  0  0  0  0  0  0  0  0  # atno 6907 bound_to 6896
  152.5177  134.3594  159.9289 H   0  0  0  0  0  0  0  0  0  0  0  0  # atno 6908 bound_to 6896
  151.3604  133.3851  159.2724 H   0  0  0  0  0  0  0  0  0  0  0  0  # atno 6909 bound_to 6896
  146.2438  140.0314  142.8389 H   0  0  0  0  0  0  0  0  0  0  0  0  # atno 7974 bound_to 7965
  155.7961  140.0885  157.1982 H   0  0  0  0  0  0  0  0  0  0  0  0  # atno 8008 bound_to 7997
  154.3983  140.1481  156.3278 H   0  0  0  0  0  0  0  0  0  0  0  0  # atno 8009 bound_to 7997
  155.8509  140.3434  155.5695 H   0  0  0  0  0  0  0  0  0  0  0  0  # atno 8010 bound_to 7997
  140.2132  143.3731  152.1032 H   0  0  0  0  0  0  0  0  0  0  0  0  # atno 10167 bound_to 10162
  157.2411  130.7069  149.6359 H   0  0  0  0  0  0  0  0  0  0  0  0  # atno 10718 bound_to 10713
  153.0975  135.4829  154.8805 H   0  0  0  0  0  0  0  0  0  0  0  0  # atno 10763 bound_to 10752
  154.7341  135.3067  154.8844 H   0  0  0  0  0  0  0  0  0  0  0  0  # atno 10764 bound_to 10752
  153.9472  135.6827  153.4797 H   0  0  0  0  0  0  0  0  0  0  0  0  # atno 10765 bound_to 10752
  140.4533  134.6323  157.4811 H   0  0  0  0  0  0  0  0  0  0  0  0  # atno 11005 bound_to 11000
  145.1151  140.9429  143.4633 LP  0  0  0  0  0  0  0  0  0  0  0  0  # atno 17320 bound_to 7965
  145.0537  139.3161  143.5916 LP  0  0  0  0  0  0  0  0  0  0  0  0  # atno 17321 bound_to 7965
  139.5172  144.6988  151.5553 LP  0  0  0  0  0  0  0  0  0  0  0  0  # atno 17342 bound_to 10162
  140.6308  143.9079  150.6604 LP  0  0  0  0  0  0  0  0  0  0  0  0  # atno 17343 bound_to 10162
  155.9670  130.4458  150.5514 LP  0  0  0  0  0  0  0  0  0  0  0  0  # atno 17370 bound_to 10713
  157.3378  131.0711  151.1812 LP  0  0  0  0  0  0  0  0  0  0  0  0  # atno 17371 bound_to 10713
  139.9993  134.6862  155.9557 LP  0  0  0  0  0  0  0  0  0  0  0  0  # atno 17394 bound_to 11000
  141.1654  133.6537  156.4462 LP  0  0  0  0  0  0  0  0  0  0  0  0  # atno 17395 bound_to 11000

$$$$
