AV-unprocessed.smi:1762|AV-procd|sdf|7108|dock6
  -GOLD-   22720 8333D 1   1.00000     0.00000
 Structure written by MMmdl.
 53 54  0  0  0  0  0  0  0  0  2 V2000
  150.7347  142.5191  156.1496 C   0  0  0  0  0  0  0  0  0  0  0  0
  150.3663  141.0335  156.0648 C   0  0  1  0  0  0  0  0  0  0  0  0
  148.8601  140.8152  155.8226 C   0  0  0  0  0  0  0  0  0  0  0  0
  148.5086  139.3982  155.6682 N   0  0  0  0  0  0  0  0  0  0  0  0
  147.0485  139.1780  155.4687 C   0  0  1  0  0  0  0  0  0  0  0  0
  146.6972  137.7129  155.1169 C   0  0  0  0  0  0  0  0  0  0  0  0
  147.2573  136.7815  155.6963 O   0  0  0  0  0  0  0  0  0  0  0  0
  145.7896  137.5250  154.1457 N   0  0  0  0  0  0  0  0  0  0  0  0
  145.3512  136.2227  153.6589 C   0  0  0  0  0  0  0  0  0  0  0  0
  145.8813  135.9425  152.2425 C   0  0  0  0  0  0  0  0  0  0  0  0
  146.0047  134.4583  151.9593 C   0  0  0  0  0  0  0  0  0  0  0  0
  144.8731  133.6245  151.8257 C   0  0  0  0  0  0  0  0  0  0  0  0
  145.0562  132.2523  151.5556 C   0  0  0  0  0  0  0  0  0  0  0  0
  146.3650  131.7437  151.4233 C   0  0  0  0  0  0  0  0  0  0  0  0
  147.4592  132.6216  151.5640 C   0  0  0  0  0  0  0  0  0  0  0  0
  147.2428  133.9301  151.8232 N   0  3  0  0  0  0  0  0  0  0  0  0
  146.1356  139.7025  156.6277 C   0  0  0  0  0  0  0  0  0  0  0  0
  146.0034  141.2376  156.6728 C   0  0  0  0  0  0  0  0  0  0  0  0
  146.5308  139.1580  158.0152 C   0  0  0  0  0  0  0  0  0  0  0  0
  149.3597  138.8203  154.6133 C   0  0  0  0  0  0  0  0  0  0  0  0
  150.8617  139.0568  154.8619 C   0  0  1  0  0  0  0  0  0  0  0  0
  151.7318  138.5290  153.7158 C   0  0  0  0  0  0  0  0  0  0  0  0
  151.1001  140.4523  154.9947 O   0  0  0  0  0  0  0  0  0  0  0  0
  150.2080  143.0079  156.9696 H   0  0  0  0  0  0  0  0  0  0  0  0
  150.4799  143.0430  155.2280 H   0  0  0  0  0  0  0  0  0  0  0  0
  151.8041  142.6458  156.3201 H   0  0  0  0  0  0  0  0  0  0  0  0
  150.6588  140.5497  156.9984 H   0  0  0  0  0  0  0  0  0  0  0  0
  148.3392  141.2518  156.6722 H   0  0  0  0  0  0  0  0  0  0  0  0
  148.5461  141.3735  154.9388 H   0  0  0  0  0  0  0  0  0  0  0  0
  146.7667  139.7625  154.5900 H   0  0  0  0  0  0  0  0  0  0  0  0
  145.3772  138.3409  153.7162 H   0  0  0  0  0  0  0  0  0  0  0  0
  145.6742  135.4415  154.3493 H   0  0  0  0  0  0  0  0  0  0  0  0
  144.2611  136.2078  153.6613 H   0  0  0  0  0  0  0  0  0  0  0  0
  145.2219  136.3935  151.4996 H   0  0  0  0  0  0  0  0  0  0  0  0
  146.8588  136.4069  152.1053 H   0  0  0  0  0  0  0  0  0  0  0  0
  143.8767  134.0298  151.9273 H   0  0  0  0  0  0  0  0  0  0  0  0
  144.2033  131.5976  151.4503 H   0  0  0  0  0  0  0  0  0  0  0  0
  146.5267  130.6959  151.2161 H   0  0  0  0  0  0  0  0  0  0  0  0
  148.4928  132.3191  151.4774 H   0  0  0  0  0  0  0  0  0  0  0  0
  145.1354  139.3035  156.4683 H   0  0  0  0  0  0  0  0  0  0  0  0
  146.9446  141.7207  156.9337 H   0  0  0  0  0  0  0  0  0  0  0  0
  145.2672  141.5405  157.4177 H   0  0  0  0  0  0  0  0  0  0  0  0
  145.6763  141.6411  155.7144 H   0  0  0  0  0  0  0  0  0  0  0  0
  147.4781  139.5702  158.3641 H   0  0  0  0  0  0  0  0  0  0  0  0
  146.6224  138.0716  158.0002 H   0  0  0  0  0  0  0  0  0  0  0  0
  145.7758  139.4107  158.7601 H   0  0  0  0  0  0  0  0  0  0  0  0
  149.2220  137.7424  154.5373 H   0  0  0  0  0  0  0  0  0  0  0  0
  149.0791  139.2397  153.6453 H   0  0  0  0  0  0  0  0  0  0  0  0
  151.1610  138.5565  155.7845 H   0  0  0  0  0  0  0  0  0  0  0  0
  151.5965  137.4556  153.5822 H   0  0  0  0  0  0  0  0  0  0  0  0
  152.7887  138.7078  153.9154 H   0  0  0  0  0  0  0  0  0  0  0  0
  151.4835  139.0184  152.7736 H   0  0  0  0  0  0  0  0  0  0  0  0
  148.0494  134.5471  151.9206 H   0  0  0  0  0  0  0  0  0  0  0  0
  1  2  1  0  0  0  0
  1 24  1  0  0  0  0
  1 25  1  0  0  0  0
  1 26  1  0  0  0  0
  2 23  1  0  0  0  0
  2  3  1  0  0  0  0
  2 27  1  0  0  0  0
  3  4  1  0  0  0  0
  3 28  1  0  0  0  0
  3 29  1  0  0  0  0
  4  5  1  0  0  0  0
  4 20  1  0  0  0  0
  5  6  1  0  0  0  0
  5 17  1  0  0  0  0
  5 30  1  0  0  0  0
  6  7  2  0  0  0  0
  6  8  1  0  0  0  0
  8  9  1  0  0  0  0
  8 31  1  0  0  0  0
  9 10  1  0  0  0  0
  9 32  1  0  0  0  0
  9 33  1  0  0  0  0
 10 11  1  0  0  0  0
 10 34  1  0  0  0  0
 10 35  1  0  0  0  0
 11 16  1  0  0  0  0
 11 12  2  0  0  0  0
 12 13  1  0  0  0  0
 12 36  1  0  0  0  0
 13 14  2  0  0  0  0
 13 37  1  0  0  0  0
 14 15  1  0  0  0  0
 14 38  1  0  0  0  0
 15 16  2  0  0  0  0
 15 39  1  0  0  0  0
 16 53  1  0  0  0  0
 17 18  1  0  0  0  0
 17 19  1  0  0  0  0
 17 40  1  0  0  0  0
 18 41  1  0  0  0  0
 18 42  1  0  0  0  0
 18 43  1  0  0  0  0
 19 44  1  0  0  0  0
 19 45  1  0  0  0  0
 19 46  1  0  0  0  0
 20 21  1  0  0  0  0
 20 47  1  0  0  0  0
 20 48  1  0  0  0  0
 21 22  1  0  0  0  0
 21 23  1  0  0  0  0
 21 49  1  0  0  0  0
 22 50  1  0  0  0  0
 22 51  1  0  0  0  0
 22 52  1  0  0  0  0
M  CHG  1  16   1
M  END
> <s_m_source_file>
AV-unprocessed.smi

> <i_m_source_file_index>
1762

> <i_lp_mmshare_version>
43012

> <i_f3d_flags>
0

> <s_epik_input>
W0NIM11bQ0BASF0xW0NIMl1OKFtDSDJdW0NASF0oTzEpW0NIM10pW0NAQEhdKFtDSF0oW0NIM10pW0NIM10pQyg9TylbTkhdW0NIMl1bQ0gyXWMyW2NIXVtjSF1bY0hdW2NIXW4y

> <s_epik_cmdline>
J2VwaWtfcHl0aG9uJywgJy1waCcsICc3LjAnLCAnLXRuJywgJzgnLCAnLW1hJywgJzIwMCcsICctbWV0YWxfYmluZGluZycsICctaW1hZScsICc8aW5maWxlLm1hZT4nLCAnLW9tYWUnLCAnPG91dGZpbGUubWFlPic=

> <r_epik_Ionization_Penalty>
1.86475

> <r_epik_Ionization_Penalty_Charging>
1.85347

> <r_epik_Ionization_Penalty_Neutral>
0.0112771

> <r_epik_State_Penalty>
1.99714

> <r_epik_Charging_Adjusted_Penalty>
3.85061

> <i_epik_Tot_Q>
1

> <i_epik_Tot_abs_Q>
1

> <r_epik_Metal_State_Penalty>
2.02271

> <b_epik_Metal_Only>
0

> <s_lp_Force_Field>
OPLS_2005

> <r_lp_Energy>
32.1869

> <b_lp_Chiralities_Consistent>
1

> <s_lp_Variant>
AV-unprocessed.smi:1762-10

> <Gold.Version>
5.8.1

> <Gold.Id.Protein>
6NUR|6NUR_protein|mol2

> <Gold.PLP.Fitness>
42.5114

> <Gold.PLP.PLP>
-33.4663

> <Gold.PLP.part.hbond>
-3.0000

> <Gold.PLP.part.metal>
0.0000

> <Gold.PLP.part.buried>
-4.4003

> <Gold.PLP.part.nonpolar>
-27.5104

> <Gold.PLP.part.repulsive>
0.1749

> <Gold.PLP.ligand.clash>
0.0000

> <Gold.PLP.ligand.torsion>
1.1808

> <Gold.PLP.Chemscore.Hbond>
3.6864

> <Gold.PLP.Chemscore.CHOScore>
0.0000

> <Gold.PLP.Chemscore.Metal>
0.0000

> <Gold.Chemscore.Hbonds>
donor molecule, donor type, donor heavy atom, donor atom, acceptor molecule, acceptor atom, score
      L1  H    16    53       P1  7948  1.50
      P1  H  7989  7998       L1    23  1.00

> <Gold.PLP.Chemscore.Internal.Correction>
0.3475

> <Gold.Rescore>
     Score         DG    S(hbond)    S(metal)    S(lipo)     H(rot)  DE(clash)    DE(int)     intcor
     17.73     -19.73       2.67        0.00      83.13       1.72       0.59       1.41       ----

> <Gold.Chemscore.Fitness>
17.7252

> <Gold.Chemscore.DG>
-19.7265

> <Gold.Chemscore.ZeroCoef>
-5.4800

> <Gold.Chemscore.Hbond>
2.6698

> <Gold.Chemscore.Metal>
0.0000

> <Gold.Chemscore.Lipo>
83.1281

> <Gold.Chemscore.Internal_Hbond>
0.0000

> <Gold.Chemscore.DEClash>
0.5948

> <Gold.Chemscore.DEInternal>
1.4065

> <Gold.Chemscore.Rot>
1.7174

> <Gold.Chemscore.Internal.Correction>
   9.000000E+99

> <Gold.Chemscore.Hbonds>
donor molecule, donor type, donor heavy atom, donor atom, acceptor molecule, acceptor atom, score
      L1  H    16    53       P1  7948  0.09
      P1  H  7989  7998       L1    23  0.38

> <Gold.Chemscore.Hbond.Weighted>
-8.9171

> <Gold.Chemscore.Metal.Weighted>
-0.0000

> <Gold.Chemscore.Lipo.Weighted>
-9.7260

> <Gold.Chemscore.Internal_Hbond.Weighted>
0.0000

> <Gold.Chemscore.DEClash.Weighted>
0.5948

> <Gold.Chemscore.DEInternal.Weighted>
1.4065

> <Gold.Chemscore.Rot.Weighted>
4.3966

> <Gold.Chemscore.Internal.Correction.Weighted>
   9.000000E+99

> <Gold.Protein.RotatedTorsions>
[ 6907 6896 6895 6894 ] final -165.02 input  -60.11 | X-H torsion
[ 7974 7965 7964 7962 ] final   13.71 input  175.53 | X-H torsion
[ 8008 7997 7996 7995 ] final  112.01 input   59.86 | X-H torsion
[ 10167 10162 10161 10158 ] final   85.67 input  -65.29 | X-H torsion
[ 10718 10713 10712 10709 ] final -123.51 input   66.30 | X-H torsion
[ 10763 10752 10751 10750 ] final  -61.86 input  -60.55 | X-H torsion
[ 11005 11000 10999 10996 ] final   57.99 input  -57.11 | X-H torsion

> <Gold.Protein.ActiveResidues>
 VAL166  LYS551  ARG553  GLY616  TRP617  ASP618  TYR619  PRO620  LYS621  CYS622 
 ASP623  PHE694  ASN695  SER759  ASP760  ASP761  ALA762  ILE779  LEU786  VAL792 
 PHE793  MET794  SER795  GLU796  ALA797  LYS798  CYS799  TRP800  GLU811  SER814 

> <Gold.Protein.RotatedAtoms>
  151.4211  133.3698  159.2755 H   0  0  0  0  0  0  0  0  0  0  0  0  # atno 6907 bound_to 6896
  150.9293  134.8710  159.7551 H   0  0  0  0  0  0  0  0  0  0  0  0  # atno 6908 bound_to 6896
  152.5020  134.4154  159.9515 H   0  0  0  0  0  0  0  0  0  0  0  0  # atno 6909 bound_to 6896
  146.2323  139.9148  142.8519 H   0  0  0  0  0  0  0  0  0  0  0  0  # atno 7974 bound_to 7965
  156.2163  140.3008  155.9848 H   0  0  0  0  0  0  0  0  0  0  0  0  # atno 8008 bound_to 7997
  155.2596  140.0429  157.3013 H   0  0  0  0  0  0  0  0  0  0  0  0  # atno 8009 bound_to 7997
  154.5773  140.2365  155.8112 H   0  0  0  0  0  0  0  0  0  0  0  0  # atno 8010 bound_to 7997
  139.8954  144.6361  150.8694 H   0  0  0  0  0  0  0  0  0  0  0  0  # atno 10167 bound_to 10162
  156.1509  130.6533  150.9911 H   0  0  0  0  0  0  0  0  0  0  0  0  # atno 10718 bound_to 10713
  154.2911  135.6253  153.5385 H   0  0  0  0  0  0  0  0  0  0  0  0  # atno 10763 bound_to 10752
  152.9852  135.5656  154.5389 H   0  0  0  0  0  0  0  0  0  0  0  0  # atno 10764 bound_to 10752
  154.5000  135.2871  155.1404 H   0  0  0  0  0  0  0  0  0  0  0  0  # atno 10765 bound_to 10752
  140.0411  134.5872  155.9380 H   0  0  0  0  0  0  0  0  0  0  0  0  # atno 11005 bound_to 11000
  145.2194  140.9929  143.4054 LP  0  0  0  0  0  0  0  0  0  0  0  0  # atno 17320 bound_to 7965
  144.9623  139.3966  143.6349 LP  0  0  0  0  0  0  0  0  0  0  0  0  # atno 17321 bound_to 7965
  140.7718  143.3477  151.2077 LP  0  0  0  0  0  0  0  0  0  0  0  0  # atno 17342 bound_to 10162
  139.7072  143.9435  152.2932 LP  0  0  0  0  0  0  0  0  0  0  0  0  # atno 17343 bound_to 10162
  157.6656  131.0872  150.7737 LP  0  0  0  0  0  0  0  0  0  0  0  0  # atno 17370 bound_to 10713
  156.7805  130.4858  149.5402 LP  0  0  0  0  0  0  0  0  0  0  0  0  # atno 17371 bound_to 10713
  141.1883  133.6562  156.5320 LP  0  0  0  0  0  0  0  0  0  0  0  0  # atno 17394 bound_to 11000
  140.4067  134.7308  157.4812 LP  0  0  0  0  0  0  0  0  0  0  0  0  # atno 17395 bound_to 11000

$$$$
