AV-unprocessed.smi:1705|AV-procd|sdf|6885|dock9
  -GOLD-   22720 8 93D 1   1.00000     0.00000
 Structure written by MMmdl.
 38 39  0  0  0  0  0  0  0  0  1 V2000
  151.9686  140.0434  154.9116 C   0  0  0  0  0  0  0  0  0  0  0  0
  150.7365  140.4932  155.7118 C   0  0  1  0  0  0  0  0  0  0  0  0
  151.0608  141.6812  156.4873 N   0  0  0  0  0  0  0  0  0  0  0  0
  151.6958  141.7170  157.7249 C   0  0  0  0  0  0  0  0  0  0  0  0
  152.0972  140.5804  158.3611 C   0  0  0  0  0  0  0  0  0  0  0  0
  151.9488  139.2700  157.8106 C   0  0  0  0  0  0  0  0  0  0  0  0
  151.8309  138.1957  157.3943 N   0  0  0  0  0  0  0  0  0  0  0  0
  152.7538  140.6140  159.6663 C   0  0  0  0  0  0  0  0  0  0  0  0
  153.1257  139.6075  160.2745 O   0  0  0  0  0  0  0  0  0  0  0  0
  152.9357  141.9039  160.2043 N   0  0  0  0  0  0  0  0  0  0  0  0
  153.5704  141.9738  161.5058 C   0  0  0  0  0  0  0  0  0  0  0  0
  152.5272  143.0953  159.5697 C   0  0  0  0  0  0  0  0  0  0  0  0
  152.6910  144.2003  160.0958 O   0  0  0  0  0  0  0  0  0  0  0  0
  151.9123  142.9734  158.2992 N   0  0  0  0  0  0  0  0  0  0  0  0
  151.5080  144.2310  157.7028 C   0  0  0  0  0  0  0  0  0  0  0  0
  149.5273  140.7875  154.8050 C   0  0  1  0  0  0  0  0  0  0  0  0
  148.9440  139.5672  154.0939 C   0  0  0  0  0  0  0  0  0  0  0  0
  147.5145  139.9876  153.7974 C   0  0  0  0  0  0  0  0  0  0  0  0
  147.2526  141.1292  154.7842 C   0  0  0  0  0  0  0  0  0  0  0  0
  148.4218  141.2129  155.5880 O   0  0  0  0  0  0  0  0  0  0  0  0
  151.7813  139.1073  154.3854 H   0  0  0  0  0  0  0  0  0  0  0  0
  152.8274  139.8822  155.5628 H   0  0  0  0  0  0  0  0  0  0  0  0
  152.2533  140.7916  154.1712 H   0  0  0  0  0  0  0  0  0  0  0  0
  150.4517  139.6902  156.3910 H   0  0  0  0  0  0  0  0  0  0  0  0
  150.3713  142.4085  156.3624 H   0  0  0  0  0  0  0  0  0  0  0  0
  153.7625  143.0036  161.8037 H   0  0  0  0  0  0  0  0  0  0  0  0
  154.5199  141.4396  161.4374 H   0  0  0  0  0  0  0  0  0  0  0  0
  152.8949  141.4956  162.2170 H   0  0  0  0  0  0  0  0  0  0  0  0
  150.7117  144.6420  158.3256 H   0  0  0  0  0  0  0  0  0  0  0  0
  151.1481  144.0785  156.6881 H   0  0  0  0  0  0  0  0  0  0  0  0
  152.3814  144.8852  157.6737 H   0  0  0  0  0  0  0  0  0  0  0  0
  149.7691  141.5643  154.0767 H   0  0  0  0  0  0  0  0  0  0  0  0
  149.4983  139.2934  153.1959 H   0  0  0  0  0  0  0  0  0  0  0  0
  148.9409  138.7075  154.7653 H   0  0  0  0  0  0  0  0  0  0  0  0
  147.4178  140.3455  152.7718 H   0  0  0  0  0  0  0  0  0  0  0  0
  146.8189  139.1586  153.9316 H   0  0  0  0  0  0  0  0  0  0  0  0
  147.1099  142.0712  154.2535 H   0  0  0  0  0  0  0  0  0  0  0  0
  146.3733  140.9508  155.4034 H   0  0  0  0  0  0  0  0  0  0  0  0
  1  2  1  0  0  0  0
  1 21  1  0  0  0  0
  1 22  1  0  0  0  0
  1 23  1  0  0  0  0
  2  3  1  0  0  0  0
  2 16  1  0  0  0  0
  2 24  1  0  0  0  0
  3  4  1  0  0  0  0
  3 25  1  0  0  0  0
  4 14  1  0  0  0  0
  4  5  2  0  0  0  0
  5  6  1  0  0  0  0
  5  8  1  0  0  0  0
  6  7  3  0  0  0  0
  8  9  2  0  0  0  0
  8 10  1  0  0  0  0
 10 11  1  0  0  0  0
 10 12  1  0  0  0  0
 11 26  1  0  0  0  0
 11 27  1  0  0  0  0
 11 28  1  0  0  0  0
 12 13  2  0  0  0  0
 12 14  1  0  0  0  0
 14 15  1  0  0  0  0
 15 29  1  0  0  0  0
 15 30  1  0  0  0  0
 15 31  1  0  0  0  0
 16 20  1  0  0  0  0
 16 17  1  0  0  0  0
 16 32  1  0  0  0  0
 17 18  1  0  0  0  0
 17 33  1  0  0  0  0
 17 34  1  0  0  0  0
 18 19  1  0  0  0  0
 18 35  1  0  0  0  0
 18 36  1  0  0  0  0
 19 20  1  0  0  0  0
 19 37  1  0  0  0  0
 19 38  1  0  0  0  0
M  END
> <s_m_source_file>
AV-unprocessed.smi

> <i_m_source_file_index>
1705

> <i_lp_mmshare_version>
43012

> <i_f3d_flags>
0

> <s_epik_input>
TzFbQ0gyXVtDSDJdW0NIMl1bQ0BIXTFbQ0BIXShbQ0gzXSlbTkhdYzJjKEMjTiljKD1PKW4oW0NIM10pYyg9TyluMltDSDNd

> <s_epik_cmdline>
J2VwaWtfcHl0aG9uJywgJy1waCcsICc3LjAnLCAnLXRuJywgJzgnLCAnLW1hJywgJzIwMCcsICctbWV0YWxfYmluZGluZycsICctaW1hZScsICc8aW5maWxlLm1hZT4nLCAnLW9tYWUnLCAnPG91dGZpbGUubWFlPic=

> <r_epik_Ionization_Penalty>
0.000446268

> <r_epik_Ionization_Penalty_Charging>
9.41922e-10

> <r_epik_Ionization_Penalty_Neutral>
0.000446267

> <r_epik_State_Penalty>
0.000275531

> <r_epik_Charging_Adjusted_Penalty>
0.000275532

> <i_epik_Tot_Q>
0

> <i_epik_Tot_abs_Q>
0

> <r_epik_Metal_State_Penalty>
-0

> <b_epik_Metal_Only>
0

> <s_lp_Force_Field>
OPLS_2005

> <r_lp_Energy>
37.8394

> <b_lp_Chiralities_Consistent>
1

> <s_lp_Variant>
AV-unprocessed.smi:1705-4

> <Gold.Version>
5.8.1

> <Gold.Id.Protein>
6NUR|6NUR_protein|mol2

> <Gold.PLP.Fitness>
33.7282

> <Gold.PLP.PLP>
-34.4479

> <Gold.PLP.part.hbond>
0.0000

> <Gold.PLP.part.metal>
0.0000

> <Gold.PLP.part.buried>
2.5928

> <Gold.PLP.part.nonpolar>
-37.5776

> <Gold.PLP.part.repulsive>
0.2169

> <Gold.PLP.ligand.clash>
9.0509

> <Gold.PLP.ligand.torsion>
0.3744

> <Gold.PLP.Chemscore.Hbond>
0.0000

> <Gold.PLP.Chemscore.CHOScore>
0.0000

> <Gold.PLP.Chemscore.Metal>
0.0000

> <Gold.PLP.Chemscore.Internal.Correction>
9.0800

> <Gold.Rescore>
     Score         DG    S(hbond)    S(metal)    S(lipo)     H(rot)  DE(clash)    DE(int)     intcor
      5.76     -10.00       0.00        0.00      66.61       1.28       1.55       2.69       ----

> <Gold.Chemscore.Fitness>
5.7611

> <Gold.Chemscore.DG>
-10.0022

> <Gold.Chemscore.ZeroCoef>
-5.4800

> <Gold.Chemscore.Hbond>
0.0000

> <Gold.Chemscore.Metal>
0.0000

> <Gold.Chemscore.Lipo>
66.6143

> <Gold.Chemscore.Internal_Hbond>
0.0000

> <Gold.Chemscore.DEClash>
1.5509

> <Gold.Chemscore.DEInternal>
2.6902

> <Gold.Chemscore.Rot>
1.2780

> <Gold.Chemscore.Internal.Correction>
   9.000000E+99

> <Gold.Chemscore.Hbond.Weighted>
-0.0000

> <Gold.Chemscore.Metal.Weighted>
-0.0000

> <Gold.Chemscore.Lipo.Weighted>
-7.7939

> <Gold.Chemscore.Internal_Hbond.Weighted>
0.0000

> <Gold.Chemscore.DEClash.Weighted>
1.5509

> <Gold.Chemscore.DEInternal.Weighted>
2.6902

> <Gold.Chemscore.Rot.Weighted>
3.2717

> <Gold.Chemscore.Internal.Correction.Weighted>
   9.000000E+99

> <Gold.Protein.RotatedTorsions>
[ 6907 6896 6895 6894 ] final  -95.99 input  -60.11 | X-H torsion
[ 7974 7965 7964 7962 ] final -171.81 input  175.53 | X-H torsion
[ 8008 7997 7996 7995 ] final   82.58 input   59.86 | X-H torsion
[ 10167 10162 10161 10158 ] final  141.83 input  -65.29 | X-H torsion
[ 10718 10713 10712 10709 ] final -100.52 input   66.30 | X-H torsion
[ 10763 10752 10751 10750 ] final -100.04 input  -60.55 | X-H torsion
[ 11005 11000 10999 10996 ] final   79.58 input  -57.11 | X-H torsion

> <Gold.Protein.ActiveResidues>
 VAL166  LYS551  ARG553  GLY616  TRP617  ASP618  TYR619  PRO620  LYS621  CYS622 
 ASP623  PHE694  ASN695  SER759  ASP760  ASP761  ALA762  ILE779  LEU786  VAL792 
 PHE793  MET794  SER795  GLU796  ALA797  LYS798  CYS799  TRP800  GLU811  SER814 

> <Gold.Protein.RotatedAtoms>
  150.6977  134.1571  159.4162 H   0  0  0  0  0  0  0  0  0  0  0  0  # atno 6907 bound_to 6896
  151.9553  135.0147  160.0553 H   0  0  0  0  0  0  0  0  0  0  0  0  # atno 6908 bound_to 6896
  152.1975  133.4782  159.5077 H   0  0  0  0  0  0  0  0  0  0  0  0  # atno 6909 bound_to 6896
  144.7153  140.1866  143.6353 H   0  0  0  0  0  0  0  0  0  0  0  0  # atno 7974 bound_to 7965
  155.9126  140.3426  155.6110 H   0  0  0  0  0  0  0  0  0  0  0  0  # atno 8008 bound_to 7997
  155.7370  140.0802  157.2282 H   0  0  0  0  0  0  0  0  0  0  0  0  # atno 8009 bound_to 7997
  154.4058  140.1578  156.2560 H   0  0  0  0  0  0  0  0  0  0  0  0  # atno 8010 bound_to 7997
  139.5010  144.6146  151.6193 H   0  0  0  0  0  0  0  0  0  0  0  0  # atno 10167 bound_to 10162
  156.0166  130.5331  150.6829 H   0  0  0  0  0  0  0  0  0  0  0  0  # atno 10718 bound_to 10713
  154.7547  135.4950  153.9353 H   0  0  0  0  0  0  0  0  0  0  0  0  # atno 10763 bound_to 10752
  153.1182  135.6725  153.9389 H   0  0  0  0  0  0  0  0  0  0  0  0  # atno 10764 bound_to 10752
  153.9128  135.3097  155.3427 H   0  0  0  0  0  0  0  0  0  0  0  0  # atno 10765 bound_to 10752
  139.9167  134.7853  156.1797 H   0  0  0  0  0  0  0  0  0  0  0  0  # atno 11005 bound_to 11000
  145.8807  139.2321  143.1607 LP  0  0  0  0  0  0  0  0  0  0  0  0  # atno 17320 bound_to 7965
  145.9998  140.8530  143.0024 LP  0  0  0  0  0  0  0  0  0  0  0  0  # atno 17321 bound_to 7965
  140.5831  143.9912  150.6279 LP  0  0  0  0  0  0  0  0  0  0  0  0  # atno 17342 bound_to 10162
  140.3067  143.3224  152.0919 LP  0  0  0  0  0  0  0  0  0  0  0  0  # atno 17343 bound_to 10162
  157.4527  131.0874  151.0828 LP  0  0  0  0  0  0  0  0  0  0  0  0  # atno 17370 bound_to 10713
  157.1339  130.6114  149.5537 LP  0  0  0  0  0  0  0  0  0  0  0  0  # atno 17371 bound_to 10713
  141.0650  133.6823  156.2027 LP  0  0  0  0  0  0  0  0  0  0  0  0  # atno 17394 bound_to 11000
  140.6600  134.4978  157.5583 LP  0  0  0  0  0  0  0  0  0  0  0  0  # atno 17395 bound_to 11000

$$$$
