AV-unprocessed.smi:203|AV-procd|sdf|1596|dock1
  -GOLD-   2262019503D 1   1.00000     0.00000
 Structure written by MMmdl.
 57 61  0  0  0  0  0  0  0  0  1 V2000
  149.9541  141.2082  153.9266 O   0  0  0  0  0  0  0  0  0  0  0  0
  149.8817  141.2537  155.1523 C   0  0  0  0  0  0  0  0  0  0  0  0
  150.4673  140.1914  156.0669 C   0  0  0  0  0  0  0  0  0  0  0  0
  150.3410  140.8117  157.4726 C   0  0  1  0  0  0  0  0  0  0  0  0
  151.7091  141.1962  158.1208 C   0  0  1  0  0  0  0  0  0  0  0  0
  151.6071  142.4396  159.0443 C   0  0  0  0  0  0  0  0  0  0  0  0
  152.9613  142.7970  159.6708 C   0  0  0  0  0  0  0  0  0  0  0  0
  153.5259  141.5851  160.4188 C   0  0  0  0  0  0  0  0  0  0  0  0
  153.6242  140.3769  159.4788 C   0  0  0  0  0  0  0  0  0  0  0  0
  152.3346  140.0812  158.8551 N   0  0  0  0  0  0  0  0  0  0  0  0
  152.3843  138.8877  158.2223 C   0  0  0  0  0  0  0  0  0  0  0  0
  153.5479  138.5629  157.6074 N   0  0  0  0  0  0  0  0  0  0  0  0
  153.6597  137.3965  156.9648 C   0  0  0  0  0  0  0  0  0  0  0  0
  152.7474  136.4332  156.8170 N   0  0  0  0  0  0  0  0  0  0  0  0
  151.5741  136.7620  157.4299 C   0  0  0  0  0  0  0  0  0  0  0  0
  151.3063  137.9609  158.1480 C   0  0  0  0  0  0  0  0  0  0  0  0
  150.0020  137.9458  158.6272 N   0  0  0  0  0  0  0  0  0  0  0  0
  149.5265  136.8011  158.2185 C   0  0  0  0  0  0  0  0  0  0  0  0
  150.4022  136.0291  157.4895 N   0  0  0  0  0  0  0  0  0  0  0  0
  150.1337  134.7218  156.9148 C   0  0  0  0  0  0  0  0  0  0  0  0
  149.3984  134.8113  155.5601 C   0  0  1  0  0  0  0  0  0  0  0  0
  150.3271  135.2358  154.5808 O   0  0  0  0  0  0  0  0  0  0  0  0
  148.8128  133.4619  155.0965 C   0  0  1  0  0  0  0  0  0  0  0  0
  148.3391  133.4297  153.6427 C   0  0  0  0  0  0  0  0  0  0  0  0
  148.3671  131.9506  153.3021 C   0  0  0  0  0  0  0  0  0  0  0  0
  149.3650  131.3663  154.3053 C   0  0  0  0  0  0  0  0  0  0  0  0
  149.8334  132.4745  155.0640 O   0  0  0  0  0  0  0  0  0  0  0  0
  149.3743  142.0041  157.2946 C   0  0  0  0  0  0  0  0  0  0  0  0
  149.2910  142.2125  155.8621 N   0  0  0  0  0  0  0  0  0  0  0  0
  149.8672  139.2845  155.9835 H   0  0  0  0  0  0  0  0  0  0  0  0
  151.4922  139.9411  155.7926 H   0  0  0  0  0  0  0  0  0  0  0  0
  149.8514  140.0643  158.0973 H   0  0  0  0  0  0  0  0  0  0  0  0
  152.3878  141.4615  157.3098 H   0  0  0  0  0  0  0  0  0  0  0  0
  151.2384  143.3043  158.4937 H   0  0  0  0  0  0  0  0  0  0  0  0
  150.8885  142.2597  159.8443 H   0  0  0  0  0  0  0  0  0  0  0  0
  153.6580  143.1100  158.8922 H   0  0  0  0  0  0  0  0  0  0  0  0
  152.8501  143.6417  160.3514 H   0  0  0  0  0  0  0  0  0  0  0  0
  154.5081  141.8202  160.8297 H   0  0  0  0  0  0  0  0  0  0  0  0
  152.8828  141.3411  161.2655 H   0  0  0  0  0  0  0  0  0  0  0  0
  154.3643  140.5746  158.7020 H   0  0  0  0  0  0  0  0  0  0  0  0
  153.9762  139.5093  160.0393 H   0  0  0  0  0  0  0  0  0  0  0  0
  154.6173  137.2081  156.5018 H   0  0  0  0  0  0  0  0  0  0  0  0
  148.5158  136.4869  158.4354 H   0  0  0  0  0  0  0  0  0  0  0  0
  151.0766  134.1851  156.8018 H   0  0  0  0  0  0  0  0  0  0  0  0
  149.5415  134.1600  157.6374 H   0  0  0  0  0  0  0  0  0  0  0  0
  148.6008  135.5518  155.6328 H   0  0  0  0  0  0  0  0  0  0  0  0
  151.1844  134.9211  154.8236 H   0  0  0  0  0  0  0  0  0  0  0  0
  148.0031  133.1373  155.7535 H   0  0  0  0  0  0  0  0  0  0  0  0
  147.3530  133.8744  153.5058 H   0  0  0  0  0  0  0  0  0  0  0  0
  149.0447  133.9649  153.0055 H   0  0  0  0  0  0  0  0  0  0  0  0
  147.3834  131.5017  153.4455 H   0  0  0  0  0  0  0  0  0  0  0  0
  148.6689  131.7804  152.2683 H   0  0  0  0  0  0  0  0  0  0  0  0
  148.8734  130.6515  154.9669 H   0  0  0  0  0  0  0  0  0  0  0  0
  150.1979  130.8603  153.8162 H   0  0  0  0  0  0  0  0  0  0  0  0
  148.3820  141.7582  157.6749 H   0  0  0  0  0  0  0  0  0  0  0  0
  149.7065  142.9096  157.8032 H   0  0  0  0  0  0  0  0  0  0  0  0
  148.8356  143.0173  155.4559 H   0  0  0  0  0  0  0  0  0  0  0  0
  1  2  2  0  0  0  0
  2 29  1  0  0  0  0
  2  3  1  0  0  0  0
  3  4  1  0  0  0  0
  3 30  1  0  0  0  0
  3 31  1  0  0  0  0
  4  5  1  0  0  0  0
  4 28  1  0  0  0  0
  4 32  1  0  0  0  0
  5 10  1  0  0  0  0
  5  6  1  0  0  0  0
  5 33  1  0  0  0  0
  6  7  1  0  0  0  0
  6 34  1  0  0  0  0
  6 35  1  0  0  0  0
  7  8  1  0  0  0  0
  7 36  1  0  0  0  0
  7 37  1  0  0  0  0
  8  9  1  0  0  0  0
  8 38  1  0  0  0  0
  8 39  1  0  0  0  0
  9 10  1  0  0  0  0
  9 40  1  0  0  0  0
  9 41  1  0  0  0  0
 10 11  1  0  0  0  0
 11 16  1  0  0  0  0
 11 12  2  0  0  0  0
 12 13  1  0  0  0  0
 13 14  2  0  0  0  0
 13 42  1  0  0  0  0
 14 15  1  0  0  0  0
 15 19  1  0  0  0  0
 15 16  2  0  0  0  0
 16 17  1  0  0  0  0
 17 18  2  0  0  0  0
 18 19  1  0  0  0  0
 18 43  1  0  0  0  0
 19 20  1  0  0  0  0
 20 21  1  0  0  0  0
 20 44  1  0  0  0  0
 20 45  1  0  0  0  0
 21 22  1  0  0  0  0
 21 23  1  0  0  0  0
 21 46  1  0  0  0  0
 22 47  1  0  0  0  0
 23 27  1  0  0  0  0
 23 24  1  0  0  0  0
 23 48  1  0  0  0  0
 24 25  1  0  0  0  0
 24 49  1  0  0  0  0
 24 50  1  0  0  0  0
 25 26  1  0  0  0  0
 25 51  1  0  0  0  0
 25 52  1  0  0  0  0
 26 27  1  0  0  0  0
 26 53  1  0  0  0  0
 26 54  1  0  0  0  0
 28 29  1  0  0  0  0
 28 55  1  0  0  0  0
 28 56  1  0  0  0  0
 29 57  1  0  0  0  0
M  END
> <s_m_source_file>
AV-unprocessed.smi

> <i_m_source_file_index>
203

> <i_lp_mmshare_version>
43012

> <i_f3d_flags>
0

> <s_epik_input>
Tz1DMVtDSDJdW0NASF0oW0NIMl1bTkhdMSlbQ0BASF0yW0NIMl1bQ0gyXVtDSDJdW0NIMl1OMmMobltjSF1uMyljKGMzNCluW2NIXW40W0NIMl1bQ0BIXShbT0hdKVtDQEBIXTVbQ0gyXVtDSDJdW0NIMl1PNQ==

> <s_epik_cmdline>
J2VwaWtfcHl0aG9uJywgJy1waCcsICc3LjAnLCAnLXRuJywgJzgnLCAnLW1hJywgJzIwMCcsICctbWV0YWxfYmluZGluZycsICctaW1hZScsICc8aW5maWxlLm1hZT4nLCAnLW9tYWUnLCAnPG91dGZpbGUubWFlPic=

> <r_lp_tautomer_probability>
1

> <r_epik_Ionization_Penalty>
0.00175146

> <r_epik_Ionization_Penalty_Charging>
0

> <r_epik_Ionization_Penalty_Neutral>
0.00175146

> <r_epik_State_Penalty>
0.00109045

> <r_epik_Charging_Adjusted_Penalty>
0.00109045

> <i_epik_Tot_Q>
0

> <i_epik_Tot_abs_Q>
0

> <r_epik_Metal_State_Penalty>
-0

> <b_epik_Metal_Only>
0

> <s_lp_Force_Field>
OPLS_2005

> <r_lp_Energy>
57.4119

> <b_lp_Chiralities_Consistent>
1

> <s_lp_Variant>
AV-unprocessed.smi:203-15

> <Gold.Version>
5.8.1

> <Gold.Id.Protein>
6NUR|6NUR_protein|mol2

> <Gold.PLP.Fitness>
51.7755

> <Gold.PLP.PLP>
-43.7563

> <Gold.PLP.part.hbond>
-6.3350

> <Gold.PLP.part.metal>
0.0000

> <Gold.PLP.part.buried>
-3.5889

> <Gold.PLP.part.nonpolar>
-34.2424

> <Gold.PLP.part.repulsive>
0.3056

> <Gold.PLP.ligand.clash>
0.0000

> <Gold.PLP.ligand.torsion>
1.8732

> <Gold.PLP.Chemscore.Hbond>
3.7432

> <Gold.PLP.Chemscore.CHOScore>
0.0000

> <Gold.PLP.Chemscore.Metal>
0.0000

> <Gold.Chemscore.Hbonds>
donor molecule, donor type, donor heavy atom, donor atom, acceptor molecule, acceptor atom, score
      L1  H    29    57       P1  8028  0.75
      P1  H  7989  7998       L1     1  0.32
      P1  H  7997  8010       L1    12  1.00
      P1  H  8011  8017       L1     1  0.75
      P1  H 10752 10763       L1    14  1.00

> <Gold.PLP.Chemscore.Internal.Correction>
0.5360

> <Gold.Rescore>
     Score         DG    S(hbond)    S(metal)    S(lipo)     H(rot)  DE(clash)    DE(int)     intcor
     17.18     -19.76       3.02        0.00      95.24       2.72       0.85       1.74       ----

> <Gold.Chemscore.Fitness>
17.1789

> <Gold.Chemscore.DG>
-19.7647

> <Gold.Chemscore.ZeroCoef>
-5.4800

> <Gold.Chemscore.Hbond>
3.0233

> <Gold.Chemscore.Metal>
0.0000

> <Gold.Chemscore.Lipo>
95.2363

> <Gold.Chemscore.Internal_Hbond>
0.0000

> <Gold.Chemscore.DEClash>
0.8503

> <Gold.Chemscore.DEInternal>
1.7355

> <Gold.Chemscore.Rot>
2.7171

> <Gold.Chemscore.Internal.Correction>
   9.000000E+99

> <Gold.Chemscore.Hbonds>
donor molecule, donor type, donor heavy atom, donor atom, acceptor molecule, acceptor atom, score
      L1  H    29    57       P1  8028  0.76
      P1  H  7989  7998       L1     1  0.22
      P1  H  7997  8010       L1    12  0.89
      P1  H  8011  8017       L1     1  0.73
      P1  H 10752 10763       L1    14  0.29

> <Gold.Chemscore.Hbond.Weighted>
-10.0978

> <Gold.Chemscore.Metal.Weighted>
-0.0000

> <Gold.Chemscore.Lipo.Weighted>
-11.1426

> <Gold.Chemscore.Internal_Hbond.Weighted>
0.0000

> <Gold.Chemscore.DEClash.Weighted>
0.8503

> <Gold.Chemscore.DEInternal.Weighted>
1.7355

> <Gold.Chemscore.Rot.Weighted>
6.9557

> <Gold.Chemscore.Internal.Correction.Weighted>
   9.000000E+99

> <Gold.Protein.RotatedTorsions>
[ 6907 6896 6895 6894 ] final  -80.77 input  -60.11 | X-H torsion
[ 7974 7965 7964 7962 ] final -164.55 input  175.53 | X-H torsion
[ 8008 7997 7996 7995 ] final   31.98 input   59.86 | X-H torsion
[ 10167 10162 10161 10158 ] final   49.05 input  -65.29 | X-H torsion
[ 10718 10713 10712 10709 ] final -154.84 input   66.30 | X-H torsion
[ 10763 10752 10751 10750 ] final  117.22 input  -60.55 | X-H torsion
[ 11005 11000 10999 10996 ] final   -8.28 input  -57.11 | X-H torsion

> <Gold.Protein.ActiveResidues>
 VAL166  LYS551  ARG553  GLY616  TRP617  ASP618  TYR619  PRO620  LYS621  CYS622 
 ASP623  PHE694  ASN695  SER759  ASP760  ASP761  ALA762  ILE779  LEU786  VAL792 
 PHE793  MET794  SER795  GLU796  ALA797  LYS798  CYS799  TRP800  GLU811  SER814 

> <Gold.Protein.RotatedAtoms>
  150.6923  134.3918  159.5079 H   0  0  0  0  0  0  0  0  0  0  0  0  # atno 6907 bound_to 6896
  152.1705  134.8835  160.0544 H   0  0  0  0  0  0  0  0  0  0  0  0  # atno 6908 bound_to 6896
  151.9863  133.3740  159.4164 H   0  0  0  0  0  0  0  0  0  0  0  0  # atno 6909 bound_to 6896
  144.7294  140.2945  143.6215 H   0  0  0  0  0  0  0  0  0  0  0  0  # atno 7974 bound_to 7965
  155.1152  140.3243  155.4511 H   0  0  0  0  0  0  0  0  0  0  0  0  # atno 8008 bound_to 7997
  156.2679  140.2037  156.6223 H   0  0  0  0  0  0  0  0  0  0  0  0  # atno 8009 bound_to 7997
  154.6726  140.0535  157.0168 H   0  0  0  0  0  0  0  0  0  0  0  0  # atno 8010 bound_to 7997
  140.2869  144.3091  150.6250 H   0  0  0  0  0  0  0  0  0  0  0  0  # atno 10167 bound_to 10162
  156.5048  130.8408  151.2623 H   0  0  0  0  0  0  0  0  0  0  0  0  # atno 10718 bound_to 10713
  153.5491  135.3543  155.2751 H   0  0  0  0  0  0  0  0  0  0  0  0  # atno 10763 bound_to 10752
  154.8709  135.4109  154.2957 H   0  0  0  0  0  0  0  0  0  0  0  0  # atno 10764 bound_to 10752
  153.3680  135.7063  153.6728 H   0  0  0  0  0  0  0  0  0  0  0  0  # atno 10765 bound_to 10752
  140.7218  133.8822  155.8826 H   0  0  0  0  0  0  0  0  0  0  0  0  # atno 11005 bound_to 11000
  145.7822  139.1895  143.2151 LP  0  0  0  0  0  0  0  0  0  0  0  0  # atno 17320 bound_to 7965
  146.0824  140.7748  142.9635 LP  0  0  0  0  0  0  0  0  0  0  0  0  # atno 17321 bound_to 7965
  140.5765  143.2176  151.7506 LP  0  0  0  0  0  0  0  0  0  0  0  0  # atno 17342 bound_to 10162
  139.4948  144.4142  152.0048 LP  0  0  0  0  0  0  0  0  0  0  0  0  # atno 17343 bound_to 10162
  157.7458  130.9969  150.2798 LP  0  0  0  0  0  0  0  0  0  0  0  0  # atno 17370 bound_to 10713
  156.3297  130.3798  149.7501 LP  0  0  0  0  0  0  0  0  0  0  0  0  # atno 17371 bound_to 10713
  140.9997  134.1167  157.4329 LP  0  0  0  0  0  0  0  0  0  0  0  0  # atno 17394 bound_to 11000
  139.8846  135.0064  156.6381 LP  0  0  0  0  0  0  0  0  0  0  0  0  # atno 17395 bound_to 11000

$$$$
