AV-unprocessed.smi:353|AV-procd|sdf|2402|dock4
  -GOLD-   2262022333D 1   1.00000     0.00000
 Structure written by MMmdl.
 36 37  0  0  0  0  0  0  0  0  1 V2000
  146.2679  137.4286  152.0539 C   0  0  0  0  0  0  0  0  0  0  0  0
  146.7282  138.8828  151.9214 C   0  0  0  0  0  0  0  0  0  0  0  0
  146.6318  139.5882  153.1886 N   0  0  0  0  0  0  0  0  0  0  0  0
  147.5244  139.5568  154.2522 C   0  0  0  0  0  0  0  0  0  0  0  0
  148.7436  138.7644  154.2268 C   0  0  0  0  0  0  0  0  0  0  0  0
  149.5759  138.7327  155.2095 N   0  0  0  0  0  0  0  0  0  0  0  0
  149.3199  139.4766  156.3441 N   0  0  0  0  0  0  0  0  0  0  0  0
  150.3652  139.3750  157.3697 C   0  0  0  0  0  0  0  0  0  0  0  0
  151.7560  139.6865  156.7939 C   0  0  0  0  0  0  0  0  0  0  0  0
  152.5842  140.2153  157.8207 O   0  0  0  0  0  0  0  0  0  0  0  0
  152.3113  141.4785  158.2973 C   0  0  0  0  0  0  0  0  0  0  0  0
  153.1528  141.9716  159.3157 C   0  0  0  0  0  0  0  0  0  0  0  0
  152.9457  143.2513  159.8653 C   0  0  0  0  0  0  0  0  0  0  0  0
  151.8895  144.0549  159.3975 C   0  0  0  0  0  0  0  0  0  0  0  0
  151.6319  145.6226  160.0698 Cl  0  0  0  0  0  0  0  0  0  0  0  0
  151.0436  143.5763  158.3793 C   0  0  0  0  0  0  0  0  0  0  0  0
  151.2516  142.2963  157.8294 C   0  0  0  0  0  0  0  0  0  0  0  0
  148.2212  140.2691  156.5226 C   0  0  0  0  0  0  0  0  0  0  0  0
  148.0349  140.9202  157.5516 O   0  0  0  0  0  0  0  0  0  0  0  0
  147.2938  140.2782  155.3818 C   0  0  0  0  0  0  0  0  0  0  0  0
  145.8717  141.2581  155.5181 Cl  0  0  0  0  0  0  0  0  0  0  0  0
  146.3439  136.9105  151.0978 H   0  0  0  0  0  0  0  0  0  0  0  0
  145.2294  137.3715  152.3814 H   0  0  0  0  0  0  0  0  0  0  0  0
  146.8787  136.8858  152.7758 H   0  0  0  0  0  0  0  0  0  0  0  0
  147.7608  138.9131  151.5722 H   0  0  0  0  0  0  0  0  0  0  0  0
  146.1189  139.3978  151.1781 H   0  0  0  0  0  0  0  0  0  0  0  0
  145.8159  140.1749  153.2927 H   0  0  0  0  0  0  0  0  0  0  0  0
  148.9219  138.1887  153.3189 H   0  0  0  0  0  0  0  0  0  0  0  0
  150.1564  140.0222  158.2233 H   0  0  0  0  0  0  0  0  0  0  0  0
  150.3677  138.3617  157.7749 H   0  0  0  0  0  0  0  0  0  0  0  0
  152.2000  138.7686  156.4062 H   0  0  0  0  0  0  0  0  0  0  0  0
  151.6641  140.3911  155.9655 H   0  0  0  0  0  0  0  0  0  0  0  0
  153.9650  141.3602  159.6808 H   0  0  0  0  0  0  0  0  0  0  0  0
  153.5980  143.6137  160.6463 H   0  0  0  0  0  0  0  0  0  0  0  0
  150.2327  144.1909  158.0172 H   0  0  0  0  0  0  0  0  0  0  0  0
  150.5842  141.9652  157.0485 H   0  0  0  0  0  0  0  0  0  0  0  0
  1  2  1  0  0  0  0
  1 22  1  0  0  0  0
  1 23  1  0  0  0  0
  1 24  1  0  0  0  0
  2  3  1  0  0  0  0
  2 25  1  0  0  0  0
  2 26  1  0  0  0  0
  3  4  1  0  0  0  0
  3 27  1  0  0  0  0
  4 20  2  0  0  0  0
  4  5  1  0  0  0  0
  5  6  2  0  0  0  0
  5 28  1  0  0  0  0
  6  7  1  0  0  0  0
  7  8  1  0  0  0  0
  7 18  1  0  0  0  0
  8  9  1  0  0  0  0
  8 29  1  0  0  0  0
  8 30  1  0  0  0  0
  9 10  1  0  0  0  0
  9 31  1  0  0  0  0
  9 32  1  0  0  0  0
 10 11  1  0  0  0  0
 11 17  1  0  0  0  0
 11 12  2  0  0  0  0
 12 13  1  0  0  0  0
 12 33  1  0  0  0  0
 13 14  2  0  0  0  0
 13 34  1  0  0  0  0
 14 15  1  0  0  0  0
 14 16  1  0  0  0  0
 16 17  2  0  0  0  0
 16 35  1  0  0  0  0
 17 36  1  0  0  0  0
 18 19  2  0  0  0  0
 18 20  1  0  0  0  0
 20 21  1  0  0  0  0
M  END
> <s_m_source_file>
AV-unprocessed.smi

> <i_m_source_file_index>
353

> <i_lp_mmshare_version>
43012

> <i_f3d_flags>
0

> <s_epik_input>
W0NIM11bQ0gyXVtOSF1jMVtjSF1ubihjKD1PKWMxQ2wpW0NIMl1bQ0gyXU9jMltjSF1bY0hdYyhDbClbY0hdW2NIXTI=

> <s_epik_cmdline>
J2VwaWtfcHl0aG9uJywgJy1waCcsICc3LjAnLCAnLXRuJywgJzgnLCAnLW1hJywgJzIwMCcsICctbWV0YWxfYmluZGluZycsICctaW1hZScsICc8aW5maWxlLm1hZT4nLCAnLW9tYWUnLCAnPG91dGZpbGUubWFlPic=

> <r_lp_tautomer_probability>
1

> <r_epik_Ionization_Penalty>
1.47008e-05

> <r_epik_Ionization_Penalty_Charging>
1.08079e-09

> <r_epik_Ionization_Penalty_Neutral>
1.46998e-05

> <r_epik_State_Penalty>
-0

> <r_epik_Charging_Adjusted_Penalty>
1.08079e-09

> <i_epik_Tot_Q>
0

> <i_epik_Tot_abs_Q>
0

> <r_epik_Metal_State_Penalty>
-0

> <b_epik_Metal_Only>
0

> <s_lp_Force_Field>
OPLS_2005

> <r_lp_Energy>
29.5526

> <b_lp_Chiralities_Consistent>
1

> <s_lp_Variant>
AV-unprocessed.smi:353-1

> <Gold.Version>
5.8.1

> <Gold.Id.Protein>
6NUR|6NUR_protein|mol2

> <Gold.PLP.Fitness>
44.4598

> <Gold.PLP.PLP>
-36.2399

> <Gold.PLP.part.hbond>
-2.0000

> <Gold.PLP.part.metal>
0.0000

> <Gold.PLP.part.buried>
-0.8363

> <Gold.PLP.part.nonpolar>
-33.9417

> <Gold.PLP.part.repulsive>
0.1575

> <Gold.PLP.ligand.clash>
0.0000

> <Gold.PLP.ligand.torsion>
0.3899

> <Gold.PLP.Chemscore.Hbond>
1.3346

> <Gold.PLP.Chemscore.CHOScore>
1.6574

> <Gold.PLP.Chemscore.Metal>
0.0000

> <Gold.Chemscore.Hbonds>
donor molecule, donor type, donor heavy atom, donor atom, acceptor molecule, acceptor atom, score
      L1  H     3    27       P1 10175  0.28
      P1  H  7997  8008       L1    10  0.60
      L1  C     5    28       P1  7948  1.00
      L1  C     5    28       P1  7957  0.03

> <Gold.PLP.Chemscore.Internal.Correction>
0.0236

> <Gold.Rescore>
     Score         DG    S(hbond)    S(metal)    S(lipo)     H(rot)  DE(clash)    DE(int)     intcor
     18.39     -19.06       1.18        0.00     118.31       1.64       0.25       0.42       ----

> <Gold.Chemscore.Fitness>
18.3945

> <Gold.Chemscore.DG>
-19.0584

> <Gold.Chemscore.ZeroCoef>
-5.4800

> <Gold.Chemscore.Hbond>
1.1766

> <Gold.Chemscore.Metal>
0.0000

> <Gold.Chemscore.Lipo>
118.3136

> <Gold.Chemscore.Internal_Hbond>
0.0000

> <Gold.Chemscore.DEClash>
0.2455

> <Gold.Chemscore.DEInternal>
0.4183

> <Gold.Chemscore.Rot>
1.6384

> <Gold.Chemscore.Internal.Correction>
   9.000000E+99

> <Gold.Chemscore.Hbonds>
donor molecule, donor type, donor heavy atom, donor atom, acceptor molecule, acceptor atom, score
      L1  H     3    27       P1 10175  0.25
      P1  H  7997  8008       L1    10  0.07

> <Gold.Chemscore.Hbond.Weighted>
-3.9300

> <Gold.Chemscore.Metal.Weighted>
-0.0000

> <Gold.Chemscore.Lipo.Weighted>
-13.8427

> <Gold.Chemscore.Internal_Hbond.Weighted>
0.0000

> <Gold.Chemscore.DEClash.Weighted>
0.2455

> <Gold.Chemscore.DEInternal.Weighted>
0.4183

> <Gold.Chemscore.Rot.Weighted>
4.1943

> <Gold.Chemscore.Internal.Correction.Weighted>
   9.000000E+99

> <Gold.Protein.RotatedTorsions>
[ 6907 6896 6895 6894 ] final -147.94 input  -60.11 | X-H torsion
[ 7974 7965 7964 7962 ] final  -53.59 input  175.53 | X-H torsion
[ 8008 7997 7996 7995 ] final  -64.50 input   59.86 | X-H torsion
[ 10167 10162 10161 10158 ] final  147.94 input  -65.29 | X-H torsion
[ 10718 10713 10712 10709 ] final  -96.21 input   66.30 | X-H torsion
[ 10763 10752 10751 10750 ] final  136.74 input  -60.55 | X-H torsion
[ 11005 11000 10999 10996 ] final  133.51 input  -57.11 | X-H torsion

> <Gold.Protein.ActiveResidues>
 VAL166  LYS551  ARG553  GLY616  TRP617  ASP618  TYR619  PRO620  LYS621  CYS622 
 ASP623  PHE694  ASN695  SER759  ASP760  ASP761  ALA762  ILE779  LEU786  VAL792 
 PHE793  MET794  SER795  GLU796  ALA797  LYS798  CYS799  TRP800  GLU811  SER814 

> <Gold.Protein.RotatedAtoms>
  151.1628  133.4834  159.2593 H   0  0  0  0  0  0  0  0  0  0  0  0  # atno 6907 bound_to 6896
  151.1437  135.0192  159.8647 H   0  0  0  0  0  0  0  0  0  0  0  0  # atno 6908 bound_to 6896
  152.5463  134.1519  159.8575 H   0  0  0  0  0  0  0  0  0  0  0  0  # atno 6909 bound_to 6896
  145.8951  140.8039  142.9771 H   0  0  0  0  0  0  0  0  0  0  0  0  # atno 7974 bound_to 7965
  154.4615  140.0952  156.6907 H   0  0  0  0  0  0  0  0  0  0  0  0  # atno 8008 bound_to 7997
  155.4979  140.3473  155.4347 H   0  0  0  0  0  0  0  0  0  0  0  0  # atno 8009 bound_to 7997
  156.0880  140.1390  156.9618 H   0  0  0  0  0  0  0  0  0  0  0  0  # atno 8010 bound_to 7997
  139.4882  144.5717  151.7042 H   0  0  0  0  0  0  0  0  0  0  0  0  # atno 10167 bound_to 10162
  156.0058  130.5141  150.6191 H   0  0  0  0  0  0  0  0  0  0  0  0  # atno 10718 bound_to 10713
  153.8615  135.3067  155.3438 H   0  0  0  0  0  0  0  0  0  0  0  0  # atno 10763 bound_to 10752
  154.7847  135.4816  153.9922 H   0  0  0  0  0  0  0  0  0  0  0  0  # atno 10764 bound_to 10752
  153.1459  135.6833  153.9050 H   0  0  0  0  0  0  0  0  0  0  0  0  # atno 10765 bound_to 10752
  139.9856  134.9533  156.9735 H   0  0  0  0  0  0  0  0  0  0  0  0  # atno 11005 bound_to 11000
  144.6732  140.1590  143.7424 LP  0  0  0  0  0  0  0  0  0  0  0  0  # atno 17320 bound_to 7965
  145.8860  139.2349  143.1577 LP  0  0  0  0  0  0  0  0  0  0  0  0  # atno 17321 bound_to 7965
  140.5306  144.0737  150.6052 LP  0  0  0  0  0  0  0  0  0  0  0  0  # atno 17342 bound_to 10162
  140.3725  143.2846  152.0262 LP  0  0  0  0  0  0  0  0  0  0  0  0  # atno 17343 bound_to 10162
  157.4010  131.0810  151.1308 LP  0  0  0  0  0  0  0  0  0  0  0  0  # atno 17370 bound_to 10713
  157.1970  130.6377  149.5725 LP  0  0  0  0  0  0  0  0  0  0  0  0  # atno 17371 bound_to 10713
  140.5009  134.1098  155.7250 LP  0  0  0  0  0  0  0  0  0  0  0  0  # atno 17394 bound_to 11000
  141.1522  133.8949  157.2070 LP  0  0  0  0  0  0  0  0  0  0  0  0  # atno 17395 bound_to 11000

$$$$
