AV-unprocessed.smi:1875|AV-procd|sdf|7616|dock9
  -GOLD-   22720 9343D 1   1.00000     0.00000
 Structure written by MMmdl.
 49 51  0  0  0  0  0  0  0  0  3 V2000
  145.4958  135.5787  150.0806 C   0  0  0  0  0  0  0  0  0  0  0  0
  146.4993  134.8474  150.9474 C   0  0  0  0  0  0  0  0  0  0  0  0
  146.9912  133.7003  150.4698 N   0  0  0  0  0  0  0  0  0  0  0  0
  147.8853  133.0475  151.2438 C   0  0  0  0  0  0  0  0  0  0  0  0
  148.2920  133.5550  152.4946 C   0  0  0  0  0  0  0  0  0  0  0  0
  147.7062  134.7748  152.8929 C   0  0  0  0  0  0  0  0  0  0  0  0
  148.0763  135.4341  154.2087 C   0  0  0  0  0  0  0  0  0  0  0  0
  148.7106  136.7534  154.0028 N   0  3  0  0  0  0  0  0  0  0  0  0
  149.5700  137.2100  155.1165 C   0  0  0  0  0  0  0  0  0  0  0  0
  150.6020  138.2505  154.6445 C   0  0  2  0  0  0  0  0  0  0  0  0
  151.5338  137.6208  153.7897 O   0  0  0  0  0  0  0  0  0  0  0  0
  151.3895  138.9059  155.7983 C   0  0  0  0  0  0  0  0  0  0  0  0
  150.8332  140.1989  156.2197 N   0  0  0  0  0  0  0  0  0  0  0  0
  150.0381  141.0749  155.5453 C   0  0  0  0  0  0  0  0  0  0  0  0
  149.7970  142.1300  156.3718 N   0  3  0  0  0  0  0  0  0  0  0  0
  150.4372  141.9197  157.5951 C   0  0  0  0  0  0  0  0  0  0  0  0
  150.4841  142.6992  158.7447 C   0  0  0  0  0  0  0  0  0  0  0  0
  151.2267  142.1945  159.8362 C   0  0  0  0  0  0  0  0  0  0  0  0
  151.2958  143.0212  161.1089 C   0  0  0  0  0  0  0  0  0  0  0  0
  151.8929  140.9444  159.7511 C   0  0  0  0  0  0  0  0  0  0  0  0
  152.6848  140.4102  160.9327 C   0  0  0  0  0  0  0  0  0  0  0  0
  151.8361  140.1681  158.5711 C   0  0  0  0  0  0  0  0  0  0  0  0
  151.0999  140.6803  157.5057 C   0  0  0  0  0  0  0  0  0  0  0  0
  146.8080  135.4199  152.1150 N   0  0  0  0  0  0  0  0  0  0  0  0
  145.4064  135.1173  149.0960 H   0  0  0  0  0  0  0  0  0  0  0  0
  145.7984  136.6170  149.9414 H   0  0  0  0  0  0  0  0  0  0  0  0
  144.5127  135.5670  150.5520 H   0  0  0  0  0  0  0  0  0  0  0  0
  148.2820  132.1188  150.8615 H   0  0  0  0  0  0  0  0  0  0  0  0
  149.0109  133.0333  153.1093 H   0  0  0  0  0  0  0  0  0  0  0  0
  147.1985  135.5361  154.8487 H   0  0  0  0  0  0  0  0  0  0  0  0
  148.7784  134.7907  154.7394 H   0  0  0  0  0  0  0  0  0  0  0  0
  149.2840  136.7013  153.1729 H   0  0  0  0  0  0  0  0  0  0  0  0
  148.9319  137.6548  155.8788 H   0  0  0  0  0  0  0  0  0  0  0  0
  150.0684  136.3553  155.5760 H   0  0  0  0  0  0  0  0  0  0  0  0
  150.0925  139.0265  154.0721 H   0  0  0  0  0  0  0  0  0  0  0  0
  152.3814  137.6210  154.2087 H   0  0  0  0  0  0  0  0  0  0  0  0
  151.3896  138.2544  156.6734 H   0  0  0  0  0  0  0  0  0  0  0  0
  152.4348  139.0562  155.5241 H   0  0  0  0  0  0  0  0  0  0  0  0
  149.6690  140.9583  154.5362 H   0  0  0  0  0  0  0  0  0  0  0  0
  149.9731  143.6493  158.8039 H   0  0  0  0  0  0  0  0  0  0  0  0
  150.8697  142.4697  161.9473 H   0  0  0  0  0  0  0  0  0  0  0  0
  150.7417  143.9549  161.0080 H   0  0  0  0  0  0  0  0  0  0  0  0
  152.3298  143.2721  161.3475 H   0  0  0  0  0  0  0  0  0  0  0  0
  153.1176  139.4333  160.7151 H   0  0  0  0  0  0  0  0  0  0  0  0
  152.0427  140.3009  161.8070 H   0  0  0  0  0  0  0  0  0  0  0  0
  153.5007  141.0882  161.1843 H   0  0  0  0  0  0  0  0  0  0  0  0
  152.3423  139.2160  158.5065 H   0  0  0  0  0  0  0  0  0  0  0  0
  147.9843  137.4379  153.8482 H   0  0  0  0  0  0  0  0  0  0  0  0
  149.2300  142.9300  156.1207 H   0  0  0  0  0  0  0  0  0  0  0  0
  1  2  1  0  0  0  0
  1 25  1  0  0  0  0
  1 26  1  0  0  0  0
  1 27  1  0  0  0  0
  2 24  1  0  0  0  0
  2  3  2  0  0  0  0
  3  4  1  0  0  0  0
  4  5  2  0  0  0  0
  4 28  1  0  0  0  0
  5  6  1  0  0  0  0
  5 29  1  0  0  0  0
  6  7  1  0  0  0  0
  6 24  2  0  0  0  0
  7  8  1  0  0  0  0
  7 30  1  0  0  0  0
  7 31  1  0  0  0  0
  8  9  1  0  0  0  0
  8 32  1  0  0  0  0
  8 48  1  0  0  0  0
  9 10  1  0  0  0  0
  9 33  1  0  0  0  0
  9 34  1  0  0  0  0
 10 11  1  0  0  0  0
 10 12  1  0  0  0  0
 10 35  1  0  0  0  0
 11 36  1  0  0  0  0
 12 13  1  0  0  0  0
 12 37  1  0  0  0  0
 12 38  1  0  0  0  0
 13 23  1  0  0  0  0
 13 14  1  0  0  0  0
 14 15  2  0  0  0  0
 14 39  1  0  0  0  0
 15 16  1  0  0  0  0
 15 49  1  0  0  0  0
 16 23  2  0  0  0  0
 16 17  1  0  0  0  0
 17 18  2  0  0  0  0
 17 40  1  0  0  0  0
 18 19  1  0  0  0  0
 18 20  1  0  0  0  0
 19 41  1  0  0  0  0
 19 42  1  0  0  0  0
 19 43  1  0  0  0  0
 20 21  1  0  0  0  0
 20 22  2  0  0  0  0
 21 44  1  0  0  0  0
 21 45  1  0  0  0  0
 21 46  1  0  0  0  0
 22 23  1  0  0  0  0
 22 47  1  0  0  0  0
M  CHG  1   8   1
M  CHG  1  15   1
M  END
> <s_m_source_file>
AV-unprocessed.smi

> <i_m_source_file_index>
1875

> <i_lp_mmshare_version>
43012

> <i_f3d_flags>
0

> <s_epik_input>
W0NIM11jMW5bY0hdW2NIXWMobjEpW0NIMl1bTkhdW0NIMl1bQ0BIXShbT0hdKVtDSDJdbihbY0hdbjIpYyhjMjMpW2NIXWMoW0NIM10pYyhbY0hdMylbQ0gzXQ==

> <s_epik_cmdline>
J2VwaWtfcHl0aG9uJywgJy1waCcsICc3LjAnLCAnLXRuJywgJzgnLCAnLW1hJywgJzIwMCcsICctbWV0YWxfYmluZGluZycsICctaW1hZScsICc8aW5maWxlLm1hZT4nLCAnLW9tYWUnLCAnPG91dGZpbGUubWFlPic=

> <r_lp_tautomer_probability>
1

> <r_epik_Ionization_Penalty>
1.27527

> <r_epik_Ionization_Penalty_Charging>
1.27526

> <r_epik_Ionization_Penalty_Neutral>
8.72389e-06

> <r_epik_State_Penalty>
1.28654

> <r_epik_Charging_Adjusted_Penalty>
2.5618

> <i_epik_Tot_Q>
2

> <i_epik_Tot_abs_Q>
2

> <r_epik_Metal_State_Penalty>
1.36882

> <b_epik_Metal_Only>
0

> <s_epik_Chemistry_Notes>
This compound contains an electron-poor aromatic ring that is susceptible to covalent hydrolysis at low pH, typically resulting in measured values for nitrogen ring protonation that are around two units higher than predicted values.

> <s_lp_Force_Field>
OPLS_2005

> <r_lp_Energy>
13.455

> <b_lp_Chiralities_Consistent>
1

> <s_lp_Variant>
AV-unprocessed.smi:1875-5

> <Gold.Version>
5.8.1

> <Gold.Id.Protein>
6NUR|6NUR_protein|mol2

> <Gold.PLP.Fitness>
57.9851

> <Gold.PLP.PLP>
-45.1263

> <Gold.PLP.part.hbond>
-3.0000

> <Gold.PLP.part.metal>
0.0000

> <Gold.PLP.part.buried>
-2.9915

> <Gold.PLP.part.nonpolar>
-37.4900

> <Gold.PLP.part.repulsive>
0.8477

> <Gold.PLP.ligand.clash>
0.0000

> <Gold.PLP.ligand.torsion>
1.1116

> <Gold.PLP.Chemscore.Hbond>
4.0000

> <Gold.PLP.Chemscore.CHOScore>
1.0000

> <Gold.PLP.Chemscore.Metal>
0.0000

> <Gold.Chemscore.Hbonds>
donor molecule, donor type, donor heavy atom, donor atom, acceptor molecule, acceptor atom, score
      L1  H     8    32       P1  7948  0.87
      L1  H    15    49       P1  8028  2.00

> <Gold.PLP.Chemscore.Internal.Correction>
0.0820

> <Gold.Rescore>
     Score         DG    S(hbond)    S(metal)    S(lipo)     H(rot)  DE(clash)    DE(int)     intcor
     15.66     -17.20       1.97        0.00     106.96       2.88       0.28       1.27       ----

> <Gold.Chemscore.Fitness>
15.6580

> <Gold.Chemscore.DG>
-17.2049

> <Gold.Chemscore.ZeroCoef>
-5.4800

> <Gold.Chemscore.Hbond>
1.9739

> <Gold.Chemscore.Metal>
0.0000

> <Gold.Chemscore.Lipo>
106.9599

> <Gold.Chemscore.Internal_Hbond>
0.0000

> <Gold.Chemscore.DEClash>
0.2776

> <Gold.Chemscore.DEInternal>
1.2692

> <Gold.Chemscore.Rot>
2.8838

> <Gold.Chemscore.Internal.Correction>
   9.000000E+99

> <Gold.Chemscore.Hbonds>
donor molecule, donor type, donor heavy atom, donor atom, acceptor molecule, acceptor atom, score
      L1  H     8    32       P1  7948  0.42
      L1  H    15    49       P1  8028  0.99

> <Gold.Chemscore.Hbond.Weighted>
-6.5930

> <Gold.Chemscore.Metal.Weighted>
-0.0000

> <Gold.Chemscore.Lipo.Weighted>
-12.5143

> <Gold.Chemscore.Internal_Hbond.Weighted>
0.0000

> <Gold.Chemscore.DEClash.Weighted>
0.2776

> <Gold.Chemscore.DEInternal.Weighted>
1.2692

> <Gold.Chemscore.Rot.Weighted>
7.3824

> <Gold.Chemscore.Internal.Correction.Weighted>
   9.000000E+99

> <Gold.Protein.RotatedTorsions>
[ 6907 6896 6895 6894 ] final  -45.81 input  -60.11 | X-H torsion
[ 7974 7965 7964 7962 ] final  169.26 input  175.53 | X-H torsion
[ 8008 7997 7996 7995 ] final    3.46 input   59.86 | X-H torsion
[ 10167 10162 10161 10158 ] final  -76.67 input  -65.29 | X-H torsion
[ 10718 10713 10712 10709 ] final  112.84 input   66.30 | X-H torsion
[ 10763 10752 10751 10750 ] final -162.66 input  -60.55 | X-H torsion
[ 11005 11000 10999 10996 ] final   22.11 input  -57.11 | X-H torsion

> <Gold.Protein.ActiveResidues>
 VAL166  LYS551  ARG553  GLY616  TRP617  ASP618  TYR619  PRO620  LYS621  CYS622 
 ASP623  PHE694  ASN695  SER759  ASP760  ASP761  ALA762  ILE779  LEU786  VAL792 
 PHE793  MET794  SER795  GLU796  ALA797  LYS798  CYS799  TRP800  GLU811  SER814 

> <Gold.Protein.RotatedAtoms>
  150.9179  134.8597  159.7469 H   0  0  0  0  0  0  0  0  0  0  0  0  # atno 6907 bound_to 6896
  152.4978  134.4261  159.9507 H   0  0  0  0  0  0  0  0  0  0  0  0  # atno 6908 bound_to 6896
  151.4298  133.3634  159.2802 H   0  0  0  0  0  0  0  0  0  0  0  0  # atno 6909 bound_to 6896
  144.7361  139.9028  143.6410 H   0  0  0  0  0  0  0  0  0  0  0  0  # atno 7974 bound_to 7965
  154.7039  140.2679  155.6693 H   0  0  0  0  0  0  0  0  0  0  0  0  # atno 8008 bound_to 7997
  156.2774  140.2766  156.1583 H   0  0  0  0  0  0  0  0  0  0  0  0  # atno 8009 bound_to 7997
  155.0726  140.0372  157.2603 H   0  0  0  0  0  0  0  0  0  0  0  0  # atno 8010 bound_to 7997
  140.4836  143.2396  151.8018 H   0  0  0  0  0  0  0  0  0  0  0  0  # atno 10167 bound_to 10162
  157.6371  131.0974  150.6954 H   0  0  0  0  0  0  0  0  0  0  0  0  # atno 10718 bound_to 10713
  154.7194  135.3022  154.9071 H   0  0  0  0  0  0  0  0  0  0  0  0  # atno 10763 bound_to 10752
  153.9948  135.6714  153.4760 H   0  0  0  0  0  0  0  0  0  0  0  0  # atno 10764 bound_to 10752
  153.0821  135.5003  154.8440 H   0  0  0  0  0  0  0  0  0  0  0  0  # atno 10765 bound_to 10752
  140.3842  134.1888  155.7663 H   0  0  0  0  0  0  0  0  0  0  0  0  # atno 11005 bound_to 11000
  146.1059  139.4059  143.0318 LP  0  0  0  0  0  0  0  0  0  0  0  0  # atno 17320 bound_to 7965
  145.7512  140.9971  143.1249 LP  0  0  0  0  0  0  0  0  0  0  0  0  # atno 17321 bound_to 7965
  139.4838  144.4740  151.9390 LP  0  0  0  0  0  0  0  0  0  0  0  0  # atno 17342 bound_to 10162
  140.3826  144.2717  150.5907 LP  0  0  0  0  0  0  0  0  0  0  0  0  # atno 17343 bound_to 10162
  156.7284  130.4702  149.5505 LP  0  0  0  0  0  0  0  0  0  0  0  0  # atno 17370 bound_to 10713
  156.1618  130.6379  151.0729 LP  0  0  0  0  0  0  0  0  0  0  0  0  # atno 17371 bound_to 10713
  141.1913  133.8198  157.0884 LP  0  0  0  0  0  0  0  0  0  0  0  0  # atno 17394 bound_to 11000
  140.0455  134.9832  157.1041 LP  0  0  0  0  0  0  0  0  0  0  0  0  # atno 17395 bound_to 11000

$$$$
