AV-unprocessed.smi:501|AV-procd|sdf|2743|dock2
  -GOLD-   2262023203D 1   1.00000     0.00000
 Structure written by MMmdl.
 46 48  0  0  0  0  0  0  0  0  2 V2000
  154.0404  136.4392  163.7875 C   0  0  0  0  0  0  0  0  0  0  0  0
  154.2785  137.4799  162.7125 C   0  0  0  0  0  0  0  0  0  0  0  0
  155.1920  138.5311  162.9276 C   0  0  0  0  0  0  0  0  0  0  0  0
  155.4044  139.4933  161.9235 C   0  0  0  0  0  0  0  0  0  0  0  0
  154.7057  139.4058  160.7044 C   0  0  0  0  0  0  0  0  0  0  0  0
  153.7891  138.3601  160.4716 C   0  0  0  0  0  0  0  0  0  0  0  0
  153.1482  138.3498  159.2510 O   0  0  0  0  0  0  0  0  0  0  0  0
  152.9637  139.5897  158.5847 C   0  0  0  0  0  0  0  0  0  0  0  0
  151.4683  139.8033  158.3298 C   0  0  0  0  0  0  0  0  0  0  0  0
  151.1907  141.1733  157.8763 N   0  0  0  0  0  0  0  0  0  0  0  0
  150.5563  141.6260  156.7550 C   0  0  0  0  0  0  0  0  0  0  0  0
  149.9463  140.7992  155.6631 C   0  0  0  0  0  0  0  0  0  0  0  0
  149.2538  141.6431  154.5734 C   0  0  0  0  0  0  0  0  0  0  0  0
  148.6028  140.8325  153.5471 N   0  0  0  0  0  0  0  0  0  0  0  0
  147.2786  140.6550  153.4349 C   0  0  0  0  0  0  0  0  0  0  0  0
  146.4463  141.1330  154.2037 O   0  0  0  0  0  0  0  0  0  0  0  0
  150.5539  142.9885  156.8194 N   0  3  0  0  0  0  0  0  0  0  0  0
  151.2193  143.4105  157.9706 C   0  0  0  0  0  0  0  0  0  0  0  0
  151.4833  144.6884  158.4539 C   0  0  0  0  0  0  0  0  0  0  0  0
  152.1967  144.7711  159.6678 C   0  0  0  0  0  0  0  0  0  0  0  0
  152.6188  143.6122  160.3515 C   0  0  0  0  0  0  0  0  0  0  0  0
  152.3441  142.3221  159.8521 C   0  0  0  0  0  0  0  0  0  0  0  0
  151.6357  142.2493  158.6527 C   0  0  0  0  0  0  0  0  0  0  0  0
  153.5812  137.3948  161.4901 C   0  0  0  0  0  0  0  0  0  0  0  0
  154.6378  136.6401  164.6773 H   0  0  0  0  0  0  0  0  0  0  0  0
  154.3035  135.4479  163.4180 H   0  0  0  0  0  0  0  0  0  0  0  0
  152.9897  136.4301  164.0784 H   0  0  0  0  0  0  0  0  0  0  0  0
  155.7313  138.6043  163.8607 H   0  0  0  0  0  0  0  0  0  0  0  0
  156.1034  140.2999  162.0880 H   0  0  0  0  0  0  0  0  0  0  0  0
  154.8746  140.1500  159.9400 H   0  0  0  0  0  0  0  0  0  0  0  0
  153.3597  140.4055  159.1917 H   0  0  0  0  0  0  0  0  0  0  0  0
  153.4931  139.5852  157.6323 H   0  0  0  0  0  0  0  0  0  0  0  0
  151.1112  139.1147  157.5640 H   0  0  0  0  0  0  0  0  0  0  0  0
  150.8812  139.5935  159.2241 H   0  0  0  0  0  0  0  0  0  0  0  0
  150.7148  140.1786  155.2031 H   0  0  0  0  0  0  0  0  0  0  0  0
  149.2271  140.1122  156.1091 H   0  0  0  0  0  0  0  0  0  0  0  0
  148.5282  142.3195  155.0280 H   0  0  0  0  0  0  0  0  0  0  0  0
  149.9894  142.2766  154.0770 H   0  0  0  0  0  0  0  0  0  0  0  0
  149.1992  140.3974  152.8580 H   0  0  0  0  0  0  0  0  0  0  0  0
  147.0385  140.0229  152.5661 H   0  0  0  0  0  0  0  0  0  0  0  0
  151.1627  145.5773  157.9304 H   0  0  0  0  0  0  0  0  0  0  0  0
  152.4263  145.7420  160.0825 H   0  0  0  0  0  0  0  0  0  0  0  0
  153.1649  143.7144  161.2783 H   0  0  0  0  0  0  0  0  0  0  0  0
  152.6750  141.4418  160.3831 H   0  0  0  0  0  0  0  0  0  0  0  0
  152.8893  136.5773  161.3567 H   0  0  0  0  0  0  0  0  0  0  0  0
  150.1321  143.5850  156.1194 H   0  0  0  0  0  0  0  0  0  0  0  0
  1  2  1  0  0  0  0
  1 25  1  0  0  0  0
  1 26  1  0  0  0  0
  1 27  1  0  0  0  0
  2 24  1  0  0  0  0
  2  3  2  0  0  0  0
  3  4  1  0  0  0  0
  3 28  1  0  0  0  0
  4  5  2  0  0  0  0
  4 29  1  0  0  0  0
  5  6  1  0  0  0  0
  5 30  1  0  0  0  0
  6  7  1  0  0  0  0
  6 24  2  0  0  0  0
  7  8  1  0  0  0  0
  8  9  1  0  0  0  0
  8 31  1  0  0  0  0
  8 32  1  0  0  0  0
  9 10  1  0  0  0  0
  9 33  1  0  0  0  0
  9 34  1  0  0  0  0
 10 23  1  0  0  0  0
 10 11  1  0  0  0  0
 11 12  1  0  0  0  0
 11 17  2  0  0  0  0
 12 13  1  0  0  0  0
 12 35  1  0  0  0  0
 12 36  1  0  0  0  0
 13 14  1  0  0  0  0
 13 37  1  0  0  0  0
 13 38  1  0  0  0  0
 14 15  1  0  0  0  0
 14 39  1  0  0  0  0
 15 16  2  0  0  0  0
 15 40  1  0  0  0  0
 17 18  1  0  0  0  0
 17 46  1  0  0  0  0
 18 23  2  0  0  0  0
 18 19  1  0  0  0  0
 19 20  2  0  0  0  0
 19 41  1  0  0  0  0
 20 21  1  0  0  0  0
 20 42  1  0  0  0  0
 21 22  2  0  0  0  0
 21 43  1  0  0  0  0
 22 23  1  0  0  0  0
 22 44  1  0  0  0  0
 24 45  1  0  0  0  0
M  CHG  1  17   1
M  END
> <s_m_source_file>
AV-unprocessed.smi

> <i_m_source_file_index>
501

> <i_lp_mmshare_version>
43012

> <i_f3d_flags>
0

> <s_epik_input>
W0NIM11jMVtjSF1bY0hdW2NIXWMoW2NIXTEpT1tDSDJdW0NIMl1uKGMobjIpW0NIMl1bQ0gyXVtOSF1bQ0hdPU8pYyhjMjMpW2NIXVtjSF1bY0hdW2NIXTM=

> <s_epik_cmdline>
J2VwaWtfcHl0aG9uJywgJy1waCcsICc3LjAnLCAnLXRuJywgJzgnLCAnLW1hJywgJzIwMCcsICctbWV0YWxfYmluZGluZycsICctaW1hZScsICc8aW5maWxlLm1hZT4nLCAnLW9tYWUnLCAnPG91dGZpbGUubWFlPic=

> <r_lp_tautomer_probability>
1

> <r_epik_Ionization_Penalty>
1.14747

> <r_epik_Ionization_Penalty_Charging>
1.14747

> <r_epik_Ionization_Penalty_Neutral>
1.55554e-08

> <r_epik_State_Penalty>
1.20856

> <r_epik_Charging_Adjusted_Penalty>
2.35603

> <i_epik_Tot_Q>
1

> <i_epik_Tot_abs_Q>
1

> <r_epik_Metal_State_Penalty>
1.28951

> <b_epik_Metal_Only>
0

> <s_lp_Force_Field>
OPLS_2005

> <r_lp_Energy>
21.7567

> <b_lp_Chiralities_Consistent>
1

> <s_lp_Variant>
AV-unprocessed.smi:501-2

> <Gold.Version>
5.8.1

> <Gold.Id.Protein>
6NUR|6NUR_protein|mol2

> <Gold.PLP.Fitness>
61.3904

> <Gold.PLP.PLP>
-53.9306

> <Gold.PLP.part.hbond>
-2.0000

> <Gold.PLP.part.metal>
0.0000

> <Gold.PLP.part.buried>
-6.7766

> <Gold.PLP.part.nonpolar>
-46.3171

> <Gold.PLP.part.repulsive>
0.3638

> <Gold.PLP.ligand.clash>
0.0078

> <Gold.PLP.ligand.torsion>
0.8879

> <Gold.PLP.Chemscore.Hbond>
3.0000

> <Gold.PLP.Chemscore.CHOScore>
0.0000

> <Gold.PLP.Chemscore.Metal>
0.0000

> <Gold.Chemscore.Hbonds>
donor molecule, donor type, donor heavy atom, donor atom, acceptor molecule, acceptor atom, score
      L1  H    14    39       P1  7957  1.00
      L1  H    17    46       P1  8028  1.98

> <Gold.PLP.Chemscore.Internal.Correction>
0.2434

> <Gold.Rescore>
     Score         DG    S(hbond)    S(metal)    S(lipo)     H(rot)  DE(clash)    DE(int)     intcor
     20.89     -21.79       1.96        0.00     142.15       2.68       0.03       0.88       ----

> <Gold.Chemscore.Fitness>
20.8912

> <Gold.Chemscore.DG>
-21.7943

> <Gold.Chemscore.ZeroCoef>
-5.4800

> <Gold.Chemscore.Hbond>
1.9626

> <Gold.Chemscore.Metal>
0.0000

> <Gold.Chemscore.Lipo>
142.1467

> <Gold.Chemscore.Internal_Hbond>
0.0000

> <Gold.Chemscore.DEClash>
0.0276

> <Gold.Chemscore.DEInternal>
0.8756

> <Gold.Chemscore.Rot>
2.6843

> <Gold.Chemscore.Internal.Correction>
   9.000000E+99

> <Gold.Chemscore.Hbonds>
donor molecule, donor type, donor heavy atom, donor atom, acceptor molecule, acceptor atom, score
      L1  H    14    39       P1  7957  0.94
      L1  H    17    46       P1  8028  0.94

> <Gold.Chemscore.Hbond.Weighted>
-6.5549

> <Gold.Chemscore.Metal.Weighted>
-0.0000

> <Gold.Chemscore.Lipo.Weighted>
-16.6312

> <Gold.Chemscore.Internal_Hbond.Weighted>
0.0000

> <Gold.Chemscore.DEClash.Weighted>
0.0276

> <Gold.Chemscore.DEInternal.Weighted>
0.8756

> <Gold.Chemscore.Rot.Weighted>
6.8718

> <Gold.Chemscore.Internal.Correction.Weighted>
   9.000000E+99

> <Gold.Protein.RotatedTorsions>
[ 6907 6896 6895 6894 ] final -106.19 input  -60.11 | X-H torsion
[ 7974 7965 7964 7962 ] final   65.17 input  175.53 | X-H torsion
[ 8008 7997 7996 7995 ] final -126.96 input   59.86 | X-H torsion
[ 10167 10162 10161 10158 ] final -137.06 input  -65.29 | X-H torsion
[ 10718 10713 10712 10709 ] final  152.31 input   66.30 | X-H torsion
[ 10763 10752 10751 10750 ] final -136.06 input  -60.55 | X-H torsion
[ 11005 11000 10999 10996 ] final   95.22 input  -57.11 | X-H torsion

> <Gold.Protein.ActiveResidues>
 VAL166  LYS551  ARG553  GLY616  TRP617  ASP618  TYR619  PRO620  LYS621  CYS622 
 ASP623  PHE694  ASN695  SER759  ASP760  ASP761  ALA762  ILE779  LEU786  VAL792 
 PHE793  MET794  SER795  GLU796  ALA797  LYS798  CYS799  TRP800  GLU811  SER814 

> <Gold.Protein.RotatedAtoms>
  150.7376  134.0013  159.3638 H   0  0  0  0  0  0  0  0  0  0  0  0  # atno 6907 bound_to 6896
  151.7967  135.0718  160.0404 H   0  0  0  0  0  0  0  0  0  0  0  0  # atno 6908 bound_to 6896
  152.3169  133.5776  159.5754 H   0  0  0  0  0  0  0  0  0  0  0  0  # atno 6909 bound_to 6896
  145.8416  139.3199  143.0928 H   0  0  0  0  0  0  0  0  0  0  0  0  # atno 7974 bound_to 7965
  155.2382  140.0427  157.2971 H   0  0  0  0  0  0  0  0  0  0  0  0  # atno 8008 bound_to 7997
  154.5845  140.2410  155.7977 H   0  0  0  0  0  0  0  0  0  0  0  0  # atno 8009 bound_to 7997
  156.2216  140.2968  155.9975 H   0  0  0  0  0  0  0  0  0  0  0  0  # atno 8010 bound_to 7997
  139.8616  143.7070  152.2649 H   0  0  0  0  0  0  0  0  0  0  0  0  # atno 10167 bound_to 10162
  157.2594  131.0795  151.1676 H   0  0  0  0  0  0  0  0  0  0  0  0  # atno 10718 bound_to 10713
  154.8691  135.3684  154.5000 H   0  0  0  0  0  0  0  0  0  0  0  0  # atno 10763 bound_to 10752
  153.5641  135.7022  153.5539 H   0  0  0  0  0  0  0  0  0  0  0  0  # atno 10764 bound_to 10752
  153.3601  135.4049  155.1675 H   0  0  0  0  0  0  0  0  0  0  0  0  # atno 10765 bound_to 10752
  139.8791  134.8887  156.3979 H   0  0  0  0  0  0  0  0  0  0  0  0  # atno 11005 bound_to 11000
  145.9459  140.8945  143.0284 LP  0  0  0  0  0  0  0  0  0  0  0  0  # atno 17320 bound_to 7965
  144.6733  140.1612  143.7422 LP  0  0  0  0  0  0  0  0  0  0  0  0  # atno 17321 bound_to 7965
  139.7369  144.7569  151.0714 LP  0  0  0  0  0  0  0  0  0  0  0  0  # atno 17342 bound_to 10162
  140.7774  143.5020  150.9759 LP  0  0  0  0  0  0  0  0  0  0  0  0  # atno 17343 bound_to 10162
  157.3192  130.6928  149.6259 LP  0  0  0  0  0  0  0  0  0  0  0  0  # atno 17370 bound_to 10713
  155.9664  130.4340  150.5032 LP  0  0  0  0  0  0  0  0  0  0  0  0  # atno 17371 bound_to 10713
  140.9287  133.7594  155.9998 LP  0  0  0  0  0  0  0  0  0  0  0  0  # atno 17394 bound_to 11000
  140.8355  134.3128  157.5333 LP  0  0  0  0  0  0  0  0  0  0  0  0  # atno 17395 bound_to 11000

$$$$
