AV-unprocessed.smi:1621|AV-procd|sdf|6493|dock9
  -GOLD-   22720 7153D 1   1.00000     0.00000
 Structure written by MMmdl.
 39 40  0  0  0  0  0  0  0  0  2 V2000
  150.4581  141.6843  155.4733 C   0  0  0  0  0  0  0  0  0  0  0  0
  149.2877  140.8640  155.0938 N   0  3  2  0  0  0  0  0  0  0  0  0
  149.6783  139.5308  154.5728 C   0  0  0  0  0  0  0  0  0  0  0  0
  148.4417  138.6585  154.2990 C   0  0  0  0  0  0  0  0  0  0  0  0
  147.4671  139.3548  153.3280 C   0  0  1  0  0  0  0  0  0  0  0  0
  146.1958  138.5221  153.0572 C   0  0  0  0  0  0  0  0  0  0  0  0
  146.4889  137.2245  152.4559 N   0  0  0  0  0  0  0  0  0  0  0  0
  145.5690  136.3292  152.0679 C   0  0  0  0  0  0  0  0  0  0  0  0
  144.3578  136.5193  152.1735 O   0  0  0  0  0  0  0  0  0  0  0  0
  146.1502  135.2233  151.5697 N   0  0  0  0  0  0  0  0  0  0  0  0
  145.5501  134.0346  151.0679 C   0  0  0  0  0  0  0  0  0  0  0  0
  146.4130  133.0039  150.6400 C   0  0  0  0  0  0  0  0  0  0  0  0
  145.8545  131.8155  150.1287 C   0  0  0  0  0  0  0  0  0  0  0  0
  144.5258  131.6086  150.0182 N   0  0  0  0  0  0  0  0  0  0  0  0
  143.7006  132.5990  150.4180 C   0  0  0  0  0  0  0  0  0  0  0  0
  144.1548  133.8254  150.9435 C   0  0  0  0  0  0  0  0  0  0  0  0
  147.1122  140.7445  153.8866 C   0  0  0  0  0  0  0  0  0  0  0  0
  148.3749  141.5768  154.1666 C   0  0  0  0  0  0  0  0  0  0  0  0
  151.0800  141.9044  154.6048 H   0  0  0  0  0  0  0  0  0  0  0  0
  151.0704  141.1634  156.2100 H   0  0  0  0  0  0  0  0  0  0  0  0
  150.1395  142.6289  155.9153 H   0  0  0  0  0  0  0  0  0  0  0  0
  150.2624  139.6517  153.6590 H   0  0  0  0  0  0  0  0  0  0  0  0
  150.3221  139.0304  155.2973 H   0  0  0  0  0  0  0  0  0  0  0  0
  148.7641  137.6993  153.8929 H   0  0  0  0  0  0  0  0  0  0  0  0
  147.9338  138.4405  155.2397 H   0  0  0  0  0  0  0  0  0  0  0  0
  147.9839  139.5031  152.3783 H   0  0  0  0  0  0  0  0  0  0  0  0
  145.6589  138.3466  153.9899 H   0  0  0  0  0  0  0  0  0  0  0  0
  145.5113  139.0751  152.4117 H   0  0  0  0  0  0  0  0  0  0  0  0
  147.4632  136.9874  152.3386 H   0  0  0  0  0  0  0  0  0  0  0  0
  147.1590  135.2103  151.5956 H   0  0  0  0  0  0  0  0  0  0  0  0
  147.4856  133.1152  150.7034 H   0  0  0  0  0  0  0  0  0  0  0  0
  146.4933  131.0100  149.7979 H   0  0  0  0  0  0  0  0  0  0  0  0
  142.6427  132.4105  150.3113 H   0  0  0  0  0  0  0  0  0  0  0  0
  143.4273  134.5694  151.2259 H   0  0  0  0  0  0  0  0  0  0  0  0
  146.4731  141.2782  153.1823 H   0  0  0  0  0  0  0  0  0  0  0  0
  146.5349  140.6382  154.8062 H   0  0  0  0  0  0  0  0  0  0  0  0
  148.0887  142.5354  154.6014 H   0  0  0  0  0  0  0  0  0  0  0  0
  148.8966  141.7945  153.2332 H   0  0  0  0  0  0  0  0  0  0  0  0
  148.7652  140.7003  155.9426 H   0  0  0  0  0  0  0  0  0  0  0  0
  1  2  1  0  0  0  0
  1 19  1  0  0  0  0
  1 20  1  0  0  0  0
  1 21  1  0  0  0  0
  2 18  1  0  0  0  0
  2  3  1  0  0  0  0
  2 39  1  0  0  0  0
  3  4  1  0  0  0  0
  3 22  1  0  0  0  0
  3 23  1  0  0  0  0
  4  5  1  0  0  0  0
  4 24  1  0  0  0  0
  4 25  1  0  0  0  0
  5  6  1  0  0  0  0
  5 17  1  0  0  0  0
  5 26  1  0  0  0  0
  6  7  1  0  0  0  0
  6 27  1  0  0  0  0
  6 28  1  0  0  0  0
  7  8  1  0  0  0  0
  7 29  1  0  0  0  0
  8  9  2  0  0  0  0
  8 10  1  0  0  0  0
 10 11  1  0  0  0  0
 10 30  1  0  0  0  0
 11 16  1  0  0  0  0
 11 12  2  0  0  0  0
 12 13  1  0  0  0  0
 12 31  1  0  0  0  0
 13 14  2  0  0  0  0
 13 32  1  0  0  0  0
 14 15  1  0  0  0  0
 15 16  2  0  0  0  0
 15 33  1  0  0  0  0
 16 34  1  0  0  0  0
 17 18  1  0  0  0  0
 17 35  1  0  0  0  0
 17 36  1  0  0  0  0
 18 37  1  0  0  0  0
 18 38  1  0  0  0  0
M  CHG  1   2   1
M  END
> <s_m_source_file>
AV-unprocessed.smi

> <i_m_source_file_index>
1621

> <i_lp_mmshare_version>
43012

> <i_f3d_flags>
0

> <s_epik_input>
W0NIM11OMVtDSDJdW0NIMl1bQ0hdKFtDSDJdW0NIMl0xKVtDSDJdW05IXUMoPU8pW05IXWMyW2NIXVtjSF1uW2NIXVtjSF0y

> <s_epik_cmdline>
J2VwaWtfcHl0aG9uJywgJy1waCcsICc3LjAnLCAnLXRuJywgJzgnLCAnLW1hJywgJzIwMCcsICctbWV0YWxfYmluZGluZycsICctaW1hZScsICc8aW5maWxlLm1hZT4nLCAnLW9tYWUnLCAnPG91dGZpbGUubWFlPic=

> <r_epik_Ionization_Penalty>
0.107254

> <r_epik_Ionization_Penalty_Charging>
0.00106265

> <r_epik_Ionization_Penalty_Neutral>
0.106191

> <r_epik_State_Penalty>
0.0960133

> <r_epik_Charging_Adjusted_Penalty>
0.0970759

> <i_epik_Tot_Q>
1

> <i_epik_Tot_abs_Q>
1

> <r_epik_Metal_State_Penalty>
0.0813061

> <b_epik_Metal_Only>
0

> <s_lp_Force_Field>
OPLS_2005

> <r_lp_Energy>
22.3351

> <b_lp_Chiralities_Consistent>
1

> <s_lp_Variant>
AV-unprocessed.smi:1621-1

> <Gold.Version>
5.8.1

> <Gold.Id.Protein>
6NUR|6NUR_protein|mol2

> <Gold.PLP.Fitness>
45.5880

> <Gold.PLP.PLP>
-33.5581

> <Gold.PLP.part.hbond>
-3.0000

> <Gold.PLP.part.metal>
0.0000

> <Gold.PLP.part.buried>
-3.5662

> <Gold.PLP.part.nonpolar>
-28.1575

> <Gold.PLP.part.repulsive>
1.3922

> <Gold.PLP.ligand.clash>
0.0000

> <Gold.PLP.ligand.torsion>
0.0083

> <Gold.PLP.Chemscore.Hbond>
2.1693

> <Gold.PLP.Chemscore.CHOScore>
1.8454

> <Gold.PLP.Chemscore.Metal>
0.0000

> <Gold.Chemscore.Hbonds>
donor molecule, donor type, donor heavy atom, donor atom, acceptor molecule, acceptor atom, score
      L1  H     7    29       P1  7948  1.00
      L1  H    10    30       P1  7948  0.99
      P1  H 10785 10796       L1    14  0.11
      L1  C    13    32       P1 10747  0.91
      L1  C    15    33       P1 10186  0.47
      L1  C    15    33       P1 10952  0.22

> <Gold.PLP.Chemscore.Internal.Correction>
0.0025

> <Gold.Rescore>
     Score         DG    S(hbond)    S(metal)    S(lipo)     H(rot)  DE(clash)    DE(int)     intcor
     17.64     -18.82       1.97        0.00      85.07       1.25       0.06       1.12       ----

> <Gold.Chemscore.Fitness>
17.6360

> <Gold.Chemscore.DG>
-18.8206

> <Gold.Chemscore.ZeroCoef>
-5.4800

> <Gold.Chemscore.Hbond>
1.9710

> <Gold.Chemscore.Metal>
0.0000

> <Gold.Chemscore.Lipo>
85.0683

> <Gold.Chemscore.Internal_Hbond>
0.0000

> <Gold.Chemscore.DEClash>
0.0611

> <Gold.Chemscore.DEInternal>
1.1235

> <Gold.Chemscore.Rot>
1.2482

> <Gold.Chemscore.Internal.Correction>
   9.000000E+99

> <Gold.Chemscore.Hbonds>
donor molecule, donor type, donor heavy atom, donor atom, acceptor molecule, acceptor atom, score
      L1  H     7    29       P1  7948  1.00
      L1  H    10    30       P1  7948  0.82
      P1  H 10785 10796       L1    14  0.07

> <Gold.Chemscore.Hbond.Weighted>
-6.5831

> <Gold.Chemscore.Metal.Weighted>
-0.0000

> <Gold.Chemscore.Lipo.Weighted>
-9.9530

> <Gold.Chemscore.Internal_Hbond.Weighted>
0.0000

> <Gold.Chemscore.DEClash.Weighted>
0.0611

> <Gold.Chemscore.DEInternal.Weighted>
1.1235

> <Gold.Chemscore.Rot.Weighted>
3.1954

> <Gold.Chemscore.Internal.Correction.Weighted>
   9.000000E+99

> <Gold.Protein.RotatedTorsions>
[ 6907 6896 6895 6894 ] final  -33.57 input  -60.11 | X-H torsion
[ 7974 7965 7964 7962 ] final  -43.76 input  175.53 | X-H torsion
[ 8008 7997 7996 7995 ] final   81.92 input   59.86 | X-H torsion
[ 10167 10162 10161 10158 ] final  158.32 input  -65.29 | X-H torsion
[ 10718 10713 10712 10709 ] final   81.41 input   66.30 | X-H torsion
[ 10763 10752 10751 10750 ] final  138.51 input  -60.55 | X-H torsion
[ 11005 11000 10999 10996 ] final -131.78 input  -57.11 | X-H torsion

> <Gold.Protein.ActiveResidues>
 VAL166  LYS551  ARG553  GLY616  TRP617  ASP618  TYR619  PRO620  LYS621  CYS622 
 ASP623  PHE694  ASN695  SER759  ASP760  ASP761  ALA762  ILE779  LEU786  VAL792 
 PHE793  MET794  SER795  GLU796  ALA797  LYS798  CYS799  TRP800  GLU811  SER814 

> <Gold.Protein.RotatedAtoms>
  151.0639  134.9755  159.8274 H   0  0  0  0  0  0  0  0  0  0  0  0  # atno 6907 bound_to 6896
  152.5399  134.2383  159.8862 H   0  0  0  0  0  0  0  0  0  0  0  0  # atno 6908 bound_to 6896
  151.2404  133.4359  159.2641 H   0  0  0  0  0  0  0  0  0  0  0  0  # atno 6909 bound_to 6896
  145.9987  140.7099  142.9281 H   0  0  0  0  0  0  0  0  0  0  0  0  # atno 7974 bound_to 7965
  155.9036  140.3432  155.6045 H   0  0  0  0  0  0  0  0  0  0  0  0  # atno 8008 bound_to 7997
  155.7470  140.0815  157.2238 H   0  0  0  0  0  0  0  0  0  0  0  0  # atno 8009 bound_to 7997
  154.4047  140.1560  156.2668 H   0  0  0  0  0  0  0  0  0  0  0  0  # atno 8010 bound_to 7997
  139.4826  144.4836  151.8409 H   0  0  0  0  0  0  0  0  0  0  0  0  # atno 10167 bound_to 10162
  157.6832  131.0003  150.2222 H   0  0  0  0  0  0  0  0  0  0  0  0  # atno 10718 bound_to 10713
  153.8908  135.3033  155.3447 H   0  0  0  0  0  0  0  0  0  0  0  0  # atno 10763 bound_to 10752
  154.7717  135.4882  153.9666 H   0  0  0  0  0  0  0  0  0  0  0  0  # atno 10764 bound_to 10752
  153.1299  135.6801  153.9294 H   0  0  0  0  0  0  0  0  0  0  0  0  # atno 10765 bound_to 10752
  140.9228  134.1422  157.4300 H   0  0  0  0  0  0  0  0  0  0  0  0  # atno 11005 bound_to 11000
  144.6912  140.3196  143.7234 LP  0  0  0  0  0  0  0  0  0  0  0  0  # atno 17320 bound_to 7965
  145.7520  139.1797  143.2316 LP  0  0  0  0  0  0  0  0  0  0  0  0  # atno 17321 bound_to 7965
  140.4314  144.2111  150.5888 LP  0  0  0  0  0  0  0  0  0  0  0  0  # atno 17342 bound_to 10162
  140.4776  143.2390  151.9001 LP  0  0  0  0  0  0  0  0  0  0  0  0  # atno 17343 bound_to 10162
  156.2872  130.3741  149.7877 LP  0  0  0  0  0  0  0  0  0  0  0  0  # atno 17370 bound_to 10713
  156.5548  130.8357  151.3310 LP  0  0  0  0  0  0  0  0  0  0  0  0  # atno 17371 bound_to 10713
  139.8779  134.9977  156.5863 LP  0  0  0  0  0  0  0  0  0  0  0  0  # atno 17394 bound_to 11000
  140.7965  133.8540  155.8690 LP  0  0  0  0  0  0  0  0  0  0  0  0  # atno 17395 bound_to 11000

$$$$
