AV-unprocessed.smi:2036|AV-procd|sdf|8273|dock1
  -GOLD-   2272010543D 1   1.00000     0.00000
 Structure written by MMmdl.
 41 42  0  0  0  0  0  0  0  0  1 V2000
  145.4016  136.3114  151.7257 C   0  0  0  0  0  0  0  0  0  0  0  0
  146.0368  137.2607  152.5638 O   0  0  0  0  0  0  0  0  0  0  0  0
  146.4787  138.4035  151.8478 C   0  0  0  0  0  0  0  0  0  0  0  0
  147.2226  139.3347  152.8042 C   0  0  0  0  0  0  0  0  0  0  0  0
  146.7740  140.4595  153.0202 O   0  0  0  0  0  0  0  0  0  0  0  0
  148.3468  138.8345  153.3509 N   0  0  0  0  0  0  0  0  0  0  0  0
  149.2536  139.4471  154.2587 C   0  0  0  0  0  0  0  0  0  0  0  0
  150.5927  139.0348  154.4602 C   0  0  0  0  0  0  0  0  0  0  0  0
  151.3892  139.7361  155.3858 C   0  0  0  0  0  0  0  0  0  0  0  0
  150.8294  140.8313  156.0746 C   0  0  0  0  0  0  0  0  0  0  0  0
  151.6184  141.5272  157.0011 N   0  0  0  0  0  0  0  0  0  0  0  0
  152.0228  140.7137  158.1403 C   0  0  0  0  0  0  0  0  0  0  0  0
  152.9942  141.5045  159.0366 C   0  0  2  0  0  0  0  0  0  0  0  0
  153.3700  140.7271  160.3020 C   0  0  0  0  0  0  0  0  0  0  0  0
  152.3756  142.7283  159.4283 O   0  0  0  0  0  0  0  0  0  0  0  0
  152.0449  143.5578  158.3162 C   0  0  2  0  0  0  0  0  0  0  0  0
  151.4591  144.8687  158.8505 C   0  0  0  0  0  0  0  0  0  0  0  0
  151.0528  142.8073  157.4072 C   0  0  0  0  0  0  0  0  0  0  0  0
  149.5540  141.2404  155.8771 N   0  0  0  0  0  0  0  0  0  0  0  0
  148.7956  140.5631  154.9897 C   0  0  0  0  0  0  0  0  0  0  0  0
  145.0744  135.4580  152.3197 H   0  0  0  0  0  0  0  0  0  0  0  0
  146.0841  135.9450  150.9580 H   0  0  0  0  0  0  0  0  0  0  0  0
  144.5244  136.7400  151.2396 H   0  0  0  0  0  0  0  0  0  0  0  0
  147.1397  138.1081  151.0311 H   0  0  0  0  0  0  0  0  0  0  0  0
  145.6299  138.9356  151.4156 H   0  0  0  0  0  0  0  0  0  0  0  0
  148.6177  137.9178  153.0248 H   0  0  0  0  0  0  0  0  0  0  0  0
  151.0305  138.2088  153.9229 H   0  0  0  0  0  0  0  0  0  0  0  0
  152.4127  139.4377  155.5600 H   0  0  0  0  0  0  0  0  0  0  0  0
  151.1418  140.4207  158.7134 H   0  0  0  0  0  0  0  0  0  0  0  0
  152.4976  139.7974  157.7872 H   0  0  0  0  0  0  0  0  0  0  0  0
  153.9075  141.7275  158.4821 H   0  0  0  0  0  0  0  0  0  0  0  0
  153.8572  139.7843  160.0526 H   0  0  0  0  0  0  0  0  0  0  0  0
  152.4881  140.5003  160.9017 H   0  0  0  0  0  0  0  0  0  0  0  0
  154.0566  141.3024  160.9235 H   0  0  0  0  0  0  0  0  0  0  0  0
  152.9547  143.7864  157.7579 H   0  0  0  0  0  0  0  0  0  0  0  0
  151.2008  145.5440  158.0347 H   0  0  0  0  0  0  0  0  0  0  0  0
  152.1755  145.3821  159.4921 H   0  0  0  0  0  0  0  0  0  0  0  0
  150.5569  144.6887  159.4357 H   0  0  0  0  0  0  0  0  0  0  0  0
  150.8259  143.4050  156.5234 H   0  0  0  0  0  0  0  0  0  0  0  0
  150.1129  142.6433  157.9365 H   0  0  0  0  0  0  0  0  0  0  0  0
  147.7849  140.9232  154.8638 H   0  0  0  0  0  0  0  0  0  0  0  0
  1  2  1  0  0  0  0
  1 21  1  0  0  0  0
  1 22  1  0  0  0  0
  1 23  1  0  0  0  0
  2  3  1  0  0  0  0
  3  4  1  0  0  0  0
  3 24  1  0  0  0  0
  3 25  1  0  0  0  0
  4  5  2  0  0  0  0
  4  6  1  0  0  0  0
  6  7  1  0  0  0  0
  6 26  1  0  0  0  0
  7 20  1  0  0  0  0
  7  8  2  0  0  0  0
  8  9  1  0  0  0  0
  8 27  1  0  0  0  0
  9 10  2  0  0  0  0
  9 28  1  0  0  0  0
 10 11  1  0  0  0  0
 10 19  1  0  0  0  0
 11 18  1  0  0  0  0
 11 12  1  0  0  0  0
 12 13  1  0  0  0  0
 12 29  1  0  0  0  0
 12 30  1  0  0  0  0
 13 14  1  0  0  0  0
 13 15  1  0  0  0  0
 13 31  1  0  0  0  0
 14 32  1  0  0  0  0
 14 33  1  0  0  0  0
 14 34  1  0  0  0  0
 15 16  1  0  0  0  0
 16 17  1  0  0  0  0
 16 18  1  0  0  0  0
 16 35  1  0  0  0  0
 17 36  1  0  0  0  0
 17 37  1  0  0  0  0
 17 38  1  0  0  0  0
 18 39  1  0  0  0  0
 18 40  1  0  0  0  0
 19 20  2  0  0  0  0
 20 41  1  0  0  0  0
M  END
> <s_m_source_file>
AV-unprocessed.smi

> <i_m_source_file_index>
2036

> <i_lp_mmshare_version>
43012

> <i_f3d_flags>
0

> <s_epik_input>
W0NIM11PW0NIMl1DKD1PKVtOSF1jMVtjSF1bY0hdYyhuW2NIXTEpTjJbQ0gyXVtDQEBIXShbQ0gzXSlPW0NAQEhdKFtDSDNdKVtDSDJdMg==

> <s_epik_cmdline>
J2VwaWtfcHl0aG9uJywgJy1waCcsICc3LjAnLCAnLXRuJywgJzgnLCAnLW1hJywgJzIwMCcsICctbWV0YWxfYmluZGluZycsICctaW1hZScsICc8aW5maWxlLm1hZT4nLCAnLW9tYWUnLCAnPG91dGZpbGUubWFlPic=

> <r_lp_tautomer_probability>
1

> <r_epik_Ionization_Penalty>
0.000662619

> <r_epik_Ionization_Penalty_Charging>
0

> <r_epik_Ionization_Penalty_Neutral>
0.000662619

> <r_epik_State_Penalty>
0.000419321

> <r_epik_Charging_Adjusted_Penalty>
0.000419321

> <i_epik_Tot_Q>
0

> <i_epik_Tot_abs_Q>
0

> <r_epik_Metal_State_Penalty>
-0

> <b_epik_Metal_Only>
0

> <s_lp_Force_Field>
OPLS_2005

> <r_lp_Energy>
23.9394

> <b_lp_Chiralities_Consistent>
1

> <s_lp_Variant>
AV-unprocessed.smi:2036-1

> <Gold.Version>
5.8.1

> <Gold.Id.Protein>
6NUR|6NUR_protein|mol2

> <Gold.PLP.Fitness>
42.5955

> <Gold.PLP.PLP>
-40.0747

> <Gold.PLP.part.hbond>
-2.0000

> <Gold.PLP.part.metal>
0.0000

> <Gold.PLP.part.buried>
-1.3829

> <Gold.PLP.part.nonpolar>
-38.2530

> <Gold.PLP.part.repulsive>
0.7071

> <Gold.PLP.ligand.clash>
0.0000

> <Gold.PLP.ligand.torsion>
0.2792

> <Gold.PLP.Chemscore.Hbond>
0.9913

> <Gold.PLP.Chemscore.CHOScore>
0.0000

> <Gold.PLP.Chemscore.Metal>
0.0000

> <Gold.Chemscore.Hbonds>
donor molecule, donor type, donor heavy atom, donor atom, acceptor molecule, acceptor atom, score
      L1  H     6    26       P1  7948  0.94

> <Gold.PLP.Chemscore.Internal.Correction>
0.1054

> <Gold.Rescore>
     Score         DG    S(hbond)    S(metal)    S(lipo)     H(rot)  DE(clash)    DE(int)     intcor
     14.37     -17.03       0.98        0.00     101.57       1.41       1.06       1.61       ----

> <Gold.Chemscore.Fitness>
14.3671

> <Gold.Chemscore.DG>
-17.0322

> <Gold.Chemscore.ZeroCoef>
-5.4800

> <Gold.Chemscore.Hbond>
0.9796

> <Gold.Chemscore.Metal>
0.0000

> <Gold.Chemscore.Lipo>
101.5717

> <Gold.Chemscore.Internal_Hbond>
0.0000

> <Gold.Chemscore.DEClash>
1.0575

> <Gold.Chemscore.DEInternal>
1.6075

> <Gold.Chemscore.Rot>
1.4077

> <Gold.Chemscore.Internal.Correction>
   9.000000E+99

> <Gold.Chemscore.Hbonds>
donor molecule, donor type, donor heavy atom, donor atom, acceptor molecule, acceptor atom, score
      L1  H     6    26       P1  7948  0.90

> <Gold.Chemscore.Hbond.Weighted>
-3.2719

> <Gold.Chemscore.Metal.Weighted>
-0.0000

> <Gold.Chemscore.Lipo.Weighted>
-11.8839

> <Gold.Chemscore.Internal_Hbond.Weighted>
0.0000

> <Gold.Chemscore.DEClash.Weighted>
1.0575

> <Gold.Chemscore.DEInternal.Weighted>
1.6075

> <Gold.Chemscore.Rot.Weighted>
3.6036

> <Gold.Chemscore.Internal.Correction.Weighted>
   9.000000E+99

> <Gold.Protein.RotatedTorsions>
[ 6907 6896 6895 6894 ] final -145.64 input  -60.11 | X-H torsion
[ 7974 7965 7964 7962 ] final -132.72 input  175.53 | X-H torsion
[ 8008 7997 7996 7995 ] final  179.68 input   59.86 | X-H torsion
[ 10167 10162 10161 10158 ] final   90.17 input  -65.29 | X-H torsion
[ 10718 10713 10712 10709 ] final  -92.21 input   66.30 | X-H torsion
[ 10763 10752 10751 10750 ] final   64.08 input  -60.55 | X-H torsion
[ 11005 11000 10999 10996 ] final    5.57 input  -57.11 | X-H torsion

> <Gold.Protein.ActiveResidues>
 VAL166  LYS551  ARG553  GLY616  TRP617  ASP618  TYR619  PRO620  LYS621  CYS622 
 ASP623  PHE694  ASN695  SER759  ASP760  ASP761  ALA762  ILE779  LEU786  VAL792 
 PHE793  MET794  SER795  GLU796  ALA797  LYS798  CYS799  TRP800  GLU811  SER814 

> <Gold.Protein.RotatedAtoms>
  151.1306  133.5040  159.2599 H   0  0  0  0  0  0  0  0  0  0  0  0  # atno 6907 bound_to 6896
  151.1762  135.0340  159.8783 H   0  0  0  0  0  0  0  0  0  0  0  0  # atno 6908 bound_to 6896
  152.5459  134.1163  159.8433 H   0  0  0  0  0  0  0  0  0  0  0  0  # atno 6909 bound_to 6896
  144.9259  140.7071  143.4936 H   0  0  0  0  0  0  0  0  0  0  0  0  # atno 7974 bound_to 7965
  156.0406  140.1302  157.0159 H   0  0  0  0  0  0  0  0  0  0  0  0  # atno 8008 bound_to 7997
  154.4389  140.1031  156.6302 H   0  0  0  0  0  0  0  0  0  0  0  0  # atno 8009 bound_to 7997
  155.5672  140.3466  155.4508 H   0  0  0  0  0  0  0  0  0  0  0  0  # atno 8010 bound_to 7997
  139.8499  144.6598  150.9182 H   0  0  0  0  0  0  0  0  0  0  0  0  # atno 10167 bound_to 10162
  156.0000  130.4978  150.5592 H   0  0  0  0  0  0  0  0  0  0  0  0  # atno 10718 bound_to 10713
  153.0042  135.5406  154.6454 H   0  0  0  0  0  0  0  0  0  0  0  0  # atno 10763 bound_to 10752
  154.5699  135.2841  155.0840 H   0  0  0  0  0  0  0  0  0  0  0  0  # atno 10764 bound_to 10752
  154.2009  135.6484  153.5139 H   0  0  0  0  0  0  0  0  0  0  0  0  # atno 10765 bound_to 10752
  140.5692  134.0119  155.8002 H   0  0  0  0  0  0  0  0  0  0  0  0  # atno 11005 bound_to 11000
  145.3219  139.1785  143.4583 LP  0  0  0  0  0  0  0  0  0  0  0  0  # atno 17320 bound_to 7965
  146.3226  140.3238  142.8635 LP  0  0  0  0  0  0  0  0  0  0  0  0  # atno 17321 bound_to 7965
  140.7788  143.3836  151.1432 LP  0  0  0  0  0  0  0  0  0  0  0  0  # atno 17342 bound_to 10162
  139.7475  143.8829  152.3068 LP  0  0  0  0  0  0  0  0  0  0  0  0  # atno 17343 bound_to 10162
  157.3503  131.0732  151.1718 LP  0  0  0  0  0  0  0  0  0  0  0  0  # atno 17370 bound_to 10713
  157.2537  130.6626  149.5943 LP  0  0  0  0  0  0  0  0  0  0  0  0  # atno 17371 bound_to 10713
  141.1067  133.9682  157.2984 LP  0  0  0  0  0  0  0  0  0  0  0  0  # atno 17394 bound_to 11000
  139.9370  135.0195  156.8588 LP  0  0  0  0  0  0  0  0  0  0  0  0  # atno 17395 bound_to 11000

$$$$
