AV-unprocessed.smi:1802|AV-procd|sdf|7275|dock10
  -GOLD-   22720 8533D 1   1.00000     0.00000
 Structure written by MMmdl.
 40 41  0  0  0  0  0  0  0  0  3 V2000
  145.3862  133.8074  150.3132 C   0  0  0  0  0  0  0  0  0  0  0  0
  146.1776  132.6559  150.9497 C   0  0  2  0  0  0  0  0  0  0  0  0
  145.2412  131.6192  151.5928 C   0  0  0  0  0  0  0  0  0  0  0  0
  146.0587  130.4962  152.2428 C   0  0  0  0  0  0  0  0  0  0  0  0
  147.0753  131.0654  153.2450 C   0  0  0  0  0  0  0  0  0  0  0  0
  147.9684  132.0598  152.5961 N   0  3  2  0  0  0  0  0  0  0  0  0
  149.0463  132.5229  153.5065 C   0  0  0  0  0  0  0  0  0  0  0  0
  148.6225  133.7399  154.3457 C   0  0  0  0  0  0  0  0  0  0  0  0
  149.8171  134.4250  155.0214 C   0  0  0  0  0  0  0  0  0  0  0  0
  149.9800  135.7804  154.5142 N   0  0  0  0  0  0  0  0  0  0  0  0
  150.7956  136.7068  155.0343 C   0  0  0  0  0  0  0  0  0  0  0  0
  151.4762  136.4379  156.0266 O   0  0  0  0  0  0  0  0  0  0  0  0
  150.7739  137.8840  154.3697 N   0  5  0  0  0  0  0  0  0  0  0  0
  150.4735  139.0187  155.0232 C   0  0  0  0  0  0  0  0  0  0  0  0
  150.3494  140.1991  154.3953 N   0  0  0  0  0  0  0  0  0  0  0  0
  150.0415  141.2449  155.2551 N   0  0  0  0  0  0  0  0  0  0  0  0
  149.9493  140.8255  156.5167 C   0  0  0  0  0  0  0  0  0  0  0  0
  150.2318  139.1160  156.7697 S   0  0  0  0  0  0  0  0  0  0  0  0
  147.1936  133.1747  151.9875 C   0  0  0  0  0  0  0  0  0  0  0  0
  144.8058  134.3503  151.0598 H   0  0  0  0  0  0  0  0  0  0  0  0
  144.6926  133.4367  149.5579 H   0  0  0  0  0  0  0  0  0  0  0  0
  146.0518  134.5203  149.8258 H   0  0  0  0  0  0  0  0  0  0  0  0
  146.7339  132.1605  150.1522 H   0  0  0  0  0  0  0  0  0  0  0  0
  144.6137  132.0986  152.3457 H   0  0  0  0  0  0  0  0  0  0  0  0
  144.5667  131.2011  150.8446 H   0  0  0  0  0  0  0  0  0  0  0  0
  145.3927  129.7939  152.7451 H   0  0  0  0  0  0  0  0  0  0  0  0
  146.5813  129.9293  151.4714 H   0  0  0  0  0  0  0  0  0  0  0  0
  146.5580  131.5320  154.0847 H   0  0  0  0  0  0  0  0  0  0  0  0
  147.6686  130.2460  153.6526 H   0  0  0  0  0  0  0  0  0  0  0  0
  149.3736  131.7027  154.1473 H   0  0  0  0  0  0  0  0  0  0  0  0
  149.9136  132.8132  152.9120 H   0  0  0  0  0  0  0  0  0  0  0  0
  148.1104  134.4601  153.7058 H   0  0  0  0  0  0  0  0  0  0  0  0
  147.9078  133.4437  155.1134 H   0  0  0  0  0  0  0  0  0  0  0  0
  149.6712  134.4628  156.1019 H   0  0  0  0  0  0  0  0  0  0  0  0
  150.7283  133.8538  154.8365 H   0  0  0  0  0  0  0  0  0  0  0  0
  149.4368  136.0403  153.7041 H   0  0  0  0  0  0  0  0  0  0  0  0
  149.7165  141.5271  157.3036 H   0  0  0  0  0  0  0  0  0  0  0  0
  147.8690  133.8755  151.4982 H   0  0  0  0  0  0  0  0  0  0  0  0
  146.6802  133.7307  152.7738 H   0  0  0  0  0  0  0  0  0  0  0  0
  148.4266  131.5717  151.8397 H   0  0  0  0  0  0  0  0  0  0  0  0
  1  2  1  0  0  0  0
  1 20  1  0  0  0  0
  1 21  1  0  0  0  0
  1 22  1  0  0  0  0
  2 19  1  0  0  0  0
  2  3  1  0  0  0  0
  2 23  1  0  0  0  0
  3  4  1  0  0  0  0
  3 24  1  0  0  0  0
  3 25  1  0  0  0  0
  4  5  1  0  0  0  0
  4 26  1  0  0  0  0
  4 27  1  0  0  0  0
  5  6  1  0  0  0  0
  5 28  1  0  0  0  0
  5 29  1  0  0  0  0
  6  7  1  0  0  0  0
  6 19  1  0  0  0  0
  6 40  1  0  0  0  0
  7  8  1  0  0  0  0
  7 30  1  0  0  0  0
  7 31  1  0  0  0  0
  8  9  1  0  0  0  0
  8 32  1  0  0  0  0
  8 33  1  0  0  0  0
  9 10  1  0  0  0  0
  9 34  1  0  0  0  0
  9 35  1  0  0  0  0
 10 11  1  0  0  0  0
 10 36  1  0  0  0  0
 11 12  2  0  0  0  0
 11 13  1  0  0  0  0
 13 14  1  0  0  0  0
 14 18  1  0  0  0  0
 14 15  2  0  0  0  0
 15 16  1  0  0  0  0
 16 17  2  0  0  0  0
 17 18  1  0  0  0  0
 17 37  1  0  0  0  0
 19 38  1  0  0  0  0
 19 39  1  0  0  0  0
M  CHG  1   6   1
M  CHG  1  13  -1
M  END
> <s_m_source_file>
AV-unprocessed.smi

> <i_m_source_file_index>
1802

> <i_lp_mmshare_version>
43012

> <i_f3d_flags>
0

> <s_epik_input>
W0NIM11bQ0BASF0xW0NIMl1bQ0gyXVtDSDJdTihbQ0gyXTEpW0NIMl1bQ0gyXVtDSDJdW05IXUMoPU8pW05IXWMybm5bY0hdczI=

> <s_epik_cmdline>
J2VwaWtfcHl0aG9uJywgJy1waCcsICc3LjAnLCAnLXRuJywgJzgnLCAnLW1hJywgJzIwMCcsICctbWV0YWxfYmluZGluZycsICctaW1hZScsICc8aW5maWxlLm1hZT4nLCAnLW9tYWUnLCAnPG91dGZpbGUubWFlPic=

> <r_lp_tautomer_probability>
1

> <r_epik_Ionization_Penalty>
3.29702

> <r_epik_Ionization_Penalty_Charging>
3.26059

> <r_epik_Ionization_Penalty_Neutral>
0.0364294

> <r_epik_State_Penalty>
3.25788

> <r_epik_Charging_Adjusted_Penalty>
6.51847

> <i_epik_Tot_Q>
0

> <i_epik_Tot_abs_Q>
2

> <r_epik_Metal_State_Penalty>
0.477639

> <b_epik_Metal_Only>
1

> <s_lp_Force_Field>
OPLS_2005

> <r_lp_Energy>
10.8961

> <b_lp_Chiralities_Consistent>
1

> <s_lp_Variant>
AV-unprocessed.smi:1802-5

> <Gold.Version>
5.8.1

> <Gold.Id.Protein>
6NUR|6NUR_protein|mol2

> <Gold.PLP.Fitness>
42.8522

> <Gold.PLP.PLP>
-33.3499

> <Gold.PLP.part.hbond>
-5.8064

> <Gold.PLP.part.metal>
0.0000

> <Gold.PLP.part.buried>
-4.4580

> <Gold.PLP.part.nonpolar>
-23.5118

> <Gold.PLP.part.repulsive>
0.5851

> <Gold.PLP.ligand.clash>
0.0000

> <Gold.PLP.ligand.torsion>
1.2807

> <Gold.PLP.Chemscore.Hbond>
4.0000

> <Gold.PLP.Chemscore.CHOScore>
0.0000

> <Gold.PLP.Chemscore.Metal>
0.0000

> <Gold.Chemscore.Hbonds>
donor molecule, donor type, donor heavy atom, donor atom, acceptor molecule, acceptor atom, score
      L1  H     6    40       P1 10747  1.00
      L1  H    10    36       P1  7948  1.00
      P1  H  7989  7998       L1    15  1.00
      P1  H 10752 10764       L1    12  0.67

> <Gold.PLP.Chemscore.Internal.Correction>
0.0636

> <Gold.Rescore>
     Score         DG    S(hbond)    S(metal)    S(lipo)     H(rot)  DE(clash)    DE(int)     intcor
     18.37     -19.73       3.48        0.00      64.80       1.94       0.05       1.31       ----

> <Gold.Chemscore.Fitness>
18.3708

> <Gold.Chemscore.DG>
-19.7341

> <Gold.Chemscore.ZeroCoef>
-5.4800

> <Gold.Chemscore.Hbond>
3.4835

> <Gold.Chemscore.Metal>
0.0000

> <Gold.Chemscore.Lipo>
64.7981

> <Gold.Chemscore.Internal_Hbond>
0.0000

> <Gold.Chemscore.DEClash>
0.0512

> <Gold.Chemscore.DEInternal>
1.3121

> <Gold.Chemscore.Rot>
1.9383

> <Gold.Chemscore.Internal.Correction>
   9.000000E+99

> <Gold.Chemscore.Hbonds>
donor molecule, donor type, donor heavy atom, donor atom, acceptor molecule, acceptor atom, score
      L1  H     6    40       P1 10747  1.00
      L1  H    10    36       P1  7948  0.60
      P1  H  7989  7998       L1    15  0.29
      P1  H 10752 10764       L1    12  0.17

> <Gold.Chemscore.Hbond.Weighted>
-11.6348

> <Gold.Chemscore.Metal.Weighted>
-0.0000

> <Gold.Chemscore.Lipo.Weighted>
-7.5814

> <Gold.Chemscore.Internal_Hbond.Weighted>
0.0000

> <Gold.Chemscore.DEClash.Weighted>
0.0512

> <Gold.Chemscore.DEInternal.Weighted>
1.3121

> <Gold.Chemscore.Rot.Weighted>
4.9620

> <Gold.Chemscore.Internal.Correction.Weighted>
   9.000000E+99

> <Gold.Protein.RotatedTorsions>
[ 6907 6896 6895 6894 ] final  -96.16 input  -60.11 | X-H torsion
[ 7974 7965 7964 7962 ] final  -39.82 input  175.53 | X-H torsion
[ 8008 7997 7996 7995 ] final -167.66 input   59.86 | X-H torsion
[ 10167 10162 10161 10158 ] final  -73.41 input  -65.29 | X-H torsion
[ 10718 10713 10712 10709 ] final   51.28 input   66.30 | X-H torsion
[ 10763 10752 10751 10750 ] final  -27.71 input  -60.55 | X-H torsion
[ 11005 11000 10999 10996 ] final   40.30 input  -57.11 | X-H torsion

> <Gold.Protein.ActiveResidues>
 VAL166  LYS551  ARG553  GLY616  TRP617  ASP618  TYR619  PRO620  LYS621  CYS622 
 ASP623  PHE694  ASN695  SER759  ASP760  ASP761  ALA762  ILE779  LEU786  VAL792 
 PHE793  MET794  SER795  GLU796  ALA797  LYS798  CYS799  TRP800  GLU811  SER814 

> <Gold.Protein.RotatedAtoms>
  150.6981  134.1546  159.4152 H   0  0  0  0  0  0  0  0  0  0  0  0  # atno 6907 bound_to 6896
  151.9528  135.0159  160.0552 H   0  0  0  0  0  0  0  0  0  0  0  0  # atno 6908 bound_to 6896
  152.1996  133.4796  159.5088 H   0  0  0  0  0  0  0  0  0  0  0  0  # atno 6909 bound_to 6896
  146.0362  140.6668  142.9109 H   0  0  0  0  0  0  0  0  0  0  0  0  # atno 7974 bound_to 7965
  155.8807  140.1008  157.1487 H   0  0  0  0  0  0  0  0  0  0  0  0  # atno 8008 bound_to 7997
  154.4005  140.1329  156.4256 H   0  0  0  0  0  0  0  0  0  0  0  0  # atno 8009 bound_to 7997
  155.7646  140.3462  155.5218 H   0  0  0  0  0  0  0  0  0  0  0  0  # atno 8010 bound_to 7997
  140.5112  143.2344  151.7590 H   0  0  0  0  0  0  0  0  0  0  0  0  # atno 10167 bound_to 10162
  157.4966  130.8410  149.8266 H   0  0  0  0  0  0  0  0  0  0  0  0  # atno 10718 bound_to 10713
  153.7366  135.6935  153.4977 H   0  0  0  0  0  0  0  0  0  0  0  0  # atno 10763 bound_to 10752
  153.2098  135.4407  155.0365 H   0  0  0  0  0  0  0  0  0  0  0  0  # atno 10764 bound_to 10752
  154.8235  135.3434  154.6893 H   0  0  0  0  0  0  0  0  0  0  0  0  # atno 10765 bound_to 10752
  140.1944  134.3947  155.8129 H   0  0  0  0  0  0  0  0  0  0  0  0  # atno 11005 bound_to 11000
  144.7053  140.3824  143.7123 LP  0  0  0  0  0  0  0  0  0  0  0  0  # atno 17320 bound_to 7965
  145.6960  139.1650  143.2619 LP  0  0  0  0  0  0  0  0  0  0  0  0  # atno 17321 bound_to 7965
  139.4897  144.4388  151.9789 LP  0  0  0  0  0  0  0  0  0  0  0  0  # atno 17342 bound_to 10162
  140.3480  144.3123  150.5954 LP  0  0  0  0  0  0  0  0  0  0  0  0  # atno 17343 bound_to 10162
  156.0204  130.3798  150.1980 LP  0  0  0  0  0  0  0  0  0  0  0  0  # atno 17370 bound_to 10713
  157.0169  130.9968  151.3350 LP  0  0  0  0  0  0  0  0  0  0  0  0  # atno 17371 bound_to 10713
  141.2227  133.7062  156.8151 LP  0  0  0  0  0  0  0  0  0  0  0  0  # atno 17394 bound_to 11000
  140.2123  134.8818  157.3288 LP  0  0  0  0  0  0  0  0  0  0  0  0  # atno 17395 bound_to 11000

$$$$
