AV-unprocessed.smi:711|AV-procd|sdf|3466|dock6
  -GOLD-   22720 0453D 1   1.00000     0.00000
 Structure written by MMmdl.
 28 29  0  0  0  0  0  0  0  0  2 V2000
  152.6864  137.6181  155.0631 O   0  0  0  0  0  0  0  0  0  0  0  0
  152.8376  138.0261  156.2138 C   0  0  0  0  0  0  0  0  0  0  0  0
  153.5364  137.3288  157.1566 N   0  5  0  0  0  0  0  0  0  0  0  0
  153.7135  137.7642  158.4419 C   0  0  0  0  0  0  0  0  0  0  0  0
  154.3409  137.1097  159.2745 O   0  0  0  0  0  0  0  0  0  0  0  0
  153.1676  138.9616  158.8123 N   0  0  0  0  0  0  0  0  0  0  0  0
  153.2809  139.5114  160.1728 C   0  0  0  0  0  0  0  0  0  0  0  0
  154.1313  140.8007  160.2205 C   0  0  2  0  0  0  0  0  0  0  0  0
  154.9011  140.7817  161.4059 O   0  0  0  0  0  0  0  0  0  0  0  0
  153.2989  142.0716  160.0895 C   0  0  0  0  0  0  0  0  0  0  0  0
  152.9705  142.5753  158.8110 C   0  0  0  0  0  0  0  0  0  0  0  0
  152.2236  143.7619  158.6830 C   0  0  0  0  0  0  0  0  0  0  0  0
  151.8007  144.4549  159.8326 C   0  0  0  0  0  0  0  0  0  0  0  0
  151.0823  145.5962  159.7098 F   0  0  0  0  0  0  0  0  0  0  0  0
  152.1259  143.9608  161.1099 C   0  0  0  0  0  0  0  0  0  0  0  0
  152.8731  142.7740  161.2407 C   0  0  0  0  0  0  0  0  0  0  0  0
  153.1852  142.3199  162.4785 F   0  0  0  0  0  0  0  0  0  0  0  0
  152.4416  139.7195  157.8782 C   0  0  0  0  0  0  0  0  0  0  0  0
  152.2548  139.3062  156.6101 C   0  0  0  0  0  0  0  0  0  0  0  0
  151.3508  140.2580  155.4868 Cl  0  0  0  0  0  0  0  0  0  0  0  0
  152.2980  139.6996  160.6079 H   0  0  0  0  0  0  0  0  0  0  0  0
  153.7298  138.7544  160.8179 H   0  0  0  0  0  0  0  0  0  0  0  0
  154.8508  140.7714  159.4020 H   0  0  0  0  0  0  0  0  0  0  0  0
  154.3302  140.5702  162.1284 H   0  0  0  0  0  0  0  0  0  0  0  0
  153.3009  142.0574  157.9226 H   0  0  0  0  0  0  0  0  0  0  0  0
  151.9796  144.1426  157.7022 H   0  0  0  0  0  0  0  0  0  0  0  0
  151.8054  144.4952  161.9919 H   0  0  0  0  0  0  0  0  0  0  0  0
  152.0436  140.6489  158.2589 H   0  0  0  0  0  0  0  0  0  0  0  0
  1  2  2  0  0  0  0
  2 19  1  0  0  0  0
  2  3  1  0  0  0  0
  3  4  1  0  0  0  0
  4  5  2  0  0  0  0
  4  6  1  0  0  0  0
  6  7  1  0  0  0  0
  6 18  1  0  0  0  0
  7  8  1  0  0  0  0
  7 21  1  0  0  0  0
  7 22  1  0  0  0  0
  8  9  1  0  0  0  0
  8 10  1  0  0  0  0
  8 23  1  0  0  0  0
  9 24  1  0  0  0  0
 10 16  1  0  0  0  0
 10 11  2  0  0  0  0
 11 12  1  0  0  0  0
 11 25  1  0  0  0  0
 12 13  2  0  0  0  0
 12 26  1  0  0  0  0
 13 14  1  0  0  0  0
 13 15  1  0  0  0  0
 15 16  2  0  0  0  0
 15 27  1  0  0  0  0
 16 17  1  0  0  0  0
 18 19  2  0  0  0  0
 18 28  1  0  0  0  0
 19 20  1  0  0  0  0
M  CHG  1   3  -1
M  END
> <s_m_source_file>
AV-unprocessed.smi

> <i_m_source_file_index>
711

> <i_lp_mmshare_version>
43012

> <i_f3d_flags>
0

> <s_epik_input>
Tz1jMVtuSF1jKD1PKW4oW2NIXWMxQ2wpW0NIMl1bQ0BIXShbT0hdKWMyW2NIXVtjSF1jKEYpW2NIXWMyRg==

> <s_epik_cmdline>
J2VwaWtfcHl0aG9uJywgJy1waCcsICc3LjAnLCAnLXRuJywgJzgnLCAnLW1hJywgJzIwMCcsICctbWV0YWxfYmluZGluZycsICctaW1hZScsICc8aW5maWxlLm1hZT4nLCAnLW9tYWUnLCAnPG91dGZpbGUubWFlPic=

> <r_epik_Ionization_Penalty>
1.7979

> <r_epik_Ionization_Penalty_Charging>
3.23819e-08

> <r_epik_Ionization_Penalty_Neutral>
1.7979

> <r_epik_State_Penalty>
1.91135

> <r_epik_Charging_Adjusted_Penalty>
1.91135

> <i_epik_Tot_Q>
-1

> <i_epik_Tot_abs_Q>
1

> <r_epik_Metal_State_Penalty>
0.014155

> <b_epik_Metal_Only>
0

> <s_lp_Force_Field>
OPLS_2005

> <r_lp_Energy>
19.2938

> <b_lp_Chiralities_Consistent>
1

> <s_lp_Variant>
AV-unprocessed.smi:711-3

> <Gold.Version>
5.8.1

> <Gold.Id.Protein>
6NUR|6NUR_protein|mol2

> <Gold.PLP.Fitness>
44.9247

> <Gold.PLP.PLP>
-46.4487

> <Gold.PLP.part.hbond>
-2.0000

> <Gold.PLP.part.metal>
0.0000

> <Gold.PLP.part.buried>
-4.1316

> <Gold.PLP.part.nonpolar>
-39.4301

> <Gold.PLP.part.repulsive>
0.0389

> <Gold.PLP.ligand.clash>
0.0000

> <Gold.PLP.ligand.torsion>
1.2459

> <Gold.PLP.Chemscore.Hbond>
0.3162

> <Gold.PLP.Chemscore.CHOScore>
0.0000

> <Gold.PLP.Chemscore.Metal>
0.0000

> <Gold.Chemscore.Hbonds>
donor molecule, donor type, donor heavy atom, donor atom, acceptor molecule, acceptor atom, score
      P1  H 10752 10764       L1     1  0.39

> <Gold.PLP.Chemscore.Internal.Correction>
0.0194

> <Gold.Rescore>
     Score         DG    S(hbond)    S(metal)    S(lipo)     H(rot)  DE(clash)    DE(int)     intcor
      9.52     -13.02       0.35        0.00     105.18       2.32       1.16       2.34       ----

> <Gold.Chemscore.Fitness>
9.5182

> <Gold.Chemscore.DG>
-13.0210

> <Gold.Chemscore.ZeroCoef>
-5.4800

> <Gold.Chemscore.Hbond>
0.3490

> <Gold.Chemscore.Metal>
0.0000

> <Gold.Chemscore.Lipo>
105.1765

> <Gold.Chemscore.Internal_Hbond>
0.0000

> <Gold.Chemscore.DEClash>
1.1591

> <Gold.Chemscore.DEInternal>
2.3438

> <Gold.Chemscore.Rot>
2.3164

> <Gold.Chemscore.Internal.Correction>
   9.000000E+99

> <Gold.Chemscore.Hbonds>
donor molecule, donor type, donor heavy atom, donor atom, acceptor molecule, acceptor atom, score
      P1  H 10752 10764       L1     1  0.37

> <Gold.Chemscore.Hbond.Weighted>
-1.1655

> <Gold.Chemscore.Metal.Weighted>
-0.0000

> <Gold.Chemscore.Lipo.Weighted>
-12.3057

> <Gold.Chemscore.Internal_Hbond.Weighted>
0.0000

> <Gold.Chemscore.DEClash.Weighted>
1.1591

> <Gold.Chemscore.DEInternal.Weighted>
2.3438

> <Gold.Chemscore.Rot.Weighted>
5.9301

> <Gold.Chemscore.Internal.Correction.Weighted>
   9.000000E+99

> <Gold.Protein.RotatedTorsions>
[ 6907 6896 6895 6894 ] final -104.07 input  -60.11 | X-H torsion
[ 7974 7965 7964 7962 ] final   79.09 input  175.53 | X-H torsion
[ 8008 7997 7996 7995 ] final   59.00 input   59.86 | X-H torsion
[ 10167 10162 10161 10158 ] final   54.34 input  -65.29 | X-H torsion
[ 10718 10713 10712 10709 ] final  116.17 input   66.30 | X-H torsion
[ 10763 10752 10751 10750 ] final  -73.47 input  -60.55 | X-H torsion
[ 11005 11000 10999 10996 ] final -121.71 input  -57.11 | X-H torsion

> <Gold.Protein.ActiveResidues>
 VAL166  LYS551  ARG553  GLY616  TRP617  ASP618  TYR619  PRO620  LYS621  CYS622 
 ASP623  PHE694  ASN695  SER759  ASP760  ASP761  ALA762  ILE779  LEU786  VAL792 
 PHE793  MET794  SER795  GLU796  ALA797  LYS798  CYS799  TRP800  GLU811  SER814 

> <Gold.Protein.RotatedAtoms>
  150.7270  134.0333  159.3740 H   0  0  0  0  0  0  0  0  0  0  0  0  # atno 6907 bound_to 6896
  151.8304  135.0621  160.0445 H   0  0  0  0  0  0  0  0  0  0  0  0  # atno 6908 bound_to 6896
  152.2938  133.5551  159.5611 H   0  0  0  0  0  0  0  0  0  0  0  0  # atno 6909 bound_to 6896
  145.6687  139.2491  143.1881 H   0  0  0  0  0  0  0  0  0  0  0  0  # atno 7974 bound_to 7965
  155.5592  140.3488  155.4487 H   0  0  0  0  0  0  0  0  0  0  0  0  # atno 8008 bound_to 7997
  156.0527  140.1321  157.0058 H   0  0  0  0  0  0  0  0  0  0  0  0  # atno 8009 bound_to 7997
  154.4442  140.1001  156.6385 H   0  0  0  0  0  0  0  0  0  0  0  0  # atno 8010 bound_to 7997
  140.2312  144.3685  150.6414 H   0  0  0  0  0  0  0  0  0  0  0  0  # atno 10167 bound_to 10162
  157.6177  131.1022  150.7434 H   0  0  0  0  0  0  0  0  0  0  0  0  # atno 10718 bound_to 10713
  154.4598  135.5896  153.6248 H   0  0  0  0  0  0  0  0  0  0  0  0  # atno 10763 bound_to 10752
  152.9822  135.6041  154.3500 H   0  0  0  0  0  0  0  0  0  0  0  0  # atno 10764 bound_to 10752
  154.3370  135.2842  155.2421 H   0  0  0  0  0  0  0  0  0  0  0  0  # atno 10765 bound_to 10752
  141.0050  134.0348  157.3489 H   0  0  0  0  0  0  0  0  0  0  0  0  # atno 11005 bound_to 11000
  146.1064  140.7482  142.9524 LP  0  0  0  0  0  0  0  0  0  0  0  0  # atno 17320 bound_to 7965
  144.7064  140.3868  143.7115 LP  0  0  0  0  0  0  0  0  0  0  0  0  # atno 17321 bound_to 7965
  140.6184  143.2174  151.6745 LP  0  0  0  0  0  0  0  0  0  0  0  0  # atno 17342 bound_to 10162
  139.5109  144.3526  152.0638 LP  0  0  0  0  0  0  0  0  0  0  0  0  # atno 17343 bound_to 10162
  156.7798  130.4855  149.5403 LP  0  0  0  0  0  0  0  0  0  0  0  0  # atno 17370 bound_to 10713
  156.1307  130.6176  151.0329 LP  0  0  0  0  0  0  0  0  0  0  0  0  # atno 17371 bound_to 10713
  139.9058  135.0179  156.7480 LP  0  0  0  0  0  0  0  0  0  0  0  0  # atno 17394 bound_to 11000
  140.6828  133.9459  155.7920 LP  0  0  0  0  0  0  0  0  0  0  0  0  # atno 17395 bound_to 11000

$$$$
