AV-unprocessed.smi:689|AV-procd|sdf|3359|dock4
  -GOLD-   22720 0333D 1   1.00000     0.00000
 Structure written by MMmdl.
 34 35  0  0  0  0  0  0  0  0  1 V2000
  150.2908  136.4998  155.9097 C   0  0  0  0  0  0  0  0  0  0  0  0
  150.0919  137.9247  155.4789 C   0  0  0  0  0  0  0  0  0  0  0  0
  151.0612  138.5559  154.8383 N   0  0  0  0  0  0  0  0  0  0  0  0
  150.5719  139.8377  154.5701 O   0  0  0  0  0  0  0  0  0  0  0  0
  149.3115  139.9289  155.0644 C   0  0  0  0  0  0  0  0  0  0  0  0
  148.6135  141.2312  154.8622 C   0  0  0  0  0  0  0  0  0  0  0  0
  148.9452  138.7508  155.6569 C   0  0  0  0  0  0  0  0  0  0  0  0
  147.6428  138.3913  156.3243 C   0  0  0  0  0  0  0  0  0  0  0  0
  147.9012  138.1237  157.8051 C   0  0  0  0  0  0  0  0  0  0  0  0
  148.5768  138.8919  158.4882 O   0  0  0  0  0  0  0  0  0  0  0  0
  147.3633  136.9312  158.2972 N   0  0  0  0  0  0  0  0  0  0  0  0
  147.8219  136.1583  159.7736 S   0  0  0  0  0  0  0  0  0  0  0  0
  148.6818  135.0103  159.4456 O   0  0  0  0  0  0  0  0  0  0  0  0
  148.3165  137.2209  160.6619 O   0  0  0  0  0  0  0  0  0  0  0  0
  146.2019  135.5685  160.4471 C   0  0  0  0  0  0  0  0  0  0  0  0
  146.3234  134.9058  161.8070 C   0  0  0  0  0  0  0  0  0  0  0  0
  147.3659  135.3641  162.8015 C   0  0  0  0  0  0  0  0  0  0  0  0
  147.5009  134.0167  162.1393 C   0  0  0  0  0  0  0  0  0  0  0  0
  149.6692  135.8257  155.3199 H   0  0  0  0  0  0  0  0  0  0  0  0
  150.0212  136.3679  156.9574 H   0  0  0  0  0  0  0  0  0  0  0  0
  151.3281  136.1830  155.7950 H   0  0  0  0  0  0  0  0  0  0  0  0
  147.5914  141.1939  155.2384 H   0  0  0  0  0  0  0  0  0  0  0  0
  148.5723  141.4853  153.8029 H   0  0  0  0  0  0  0  0  0  0  0  0
  149.1356  142.0334  155.3835 H   0  0  0  0  0  0  0  0  0  0  0  0
  146.9120  139.1959  156.2379 H   0  0  0  0  0  0  0  0  0  0  0  0
  147.1851  137.5158  155.8617 H   0  0  0  0  0  0  0  0  0  0  0  0
  146.8076  136.3233  157.6964 H   0  0  0  0  0  0  0  0  0  0  0  0
  145.5549  136.4416  160.5351 H   0  0  0  0  0  0  0  0  0  0  0  0
  145.7403  134.8885  159.7315 H   0  0  0  0  0  0  0  0  0  0  0  0
  145.3691  134.6012  162.2311 H   0  0  0  0  0  0  0  0  0  0  0  0
  148.0578  136.1452  162.4928 H   0  0  0  0  0  0  0  0  0  0  0  0
  147.0831  135.3814  163.8520 H   0  0  0  0  0  0  0  0  0  0  0  0
  147.3047  133.1336  162.7440 H   0  0  0  0  0  0  0  0  0  0  0  0
  148.2812  133.9039  161.3889 H   0  0  0  0  0  0  0  0  0  0  0  0
  1  2  1  0  0  0  0
  1 19  1  0  0  0  0
  1 20  1  0  0  0  0
  1 21  1  0  0  0  0
  2  7  1  0  0  0  0
  2  3  2  0  0  0  0
  3  4  1  0  0  0  0
  4  5  1  0  0  0  0
  5  6  1  0  0  0  0
  5  7  2  0  0  0  0
  6 22  1  0  0  0  0
  6 23  1  0  0  0  0
  6 24  1  0  0  0  0
  7  8  1  0  0  0  0
  8  9  1  0  0  0  0
  8 25  1  0  0  0  0
  8 26  1  0  0  0  0
  9 10  2  0  0  0  0
  9 11  1  0  0  0  0
 11 12  1  0  0  0  0
 11 27  1  0  0  0  0
 12 13  2  0  0  0  0
 12 14  2  0  0  0  0
 12 15  1  0  0  0  0
 15 16  1  0  0  0  0
 15 28  1  0  0  0  0
 15 29  1  0  0  0  0
 16 18  1  0  0  0  0
 16 17  1  0  0  0  0
 16 30  1  0  0  0  0
 17 18  1  0  0  0  0
 17 31  1  0  0  0  0
 17 32  1  0  0  0  0
 18 33  1  0  0  0  0
 18 34  1  0  0  0  0
M  END
> <s_m_source_file>
AV-unprocessed.smi

> <i_m_source_file_index>
689

> <i_lp_mmshare_version>
43012

> <i_f3d_flags>
0

> <s_epik_input>
W0NIM11jMW5vYyhbQ0gzXSljMVtDSDJdQyg9TylbTkhdUyg9TykoPU8pW0NIMl1bQ0hdMltDSDJdW0NIMl0y

> <s_epik_cmdline>
J2VwaWtfcHl0aG9uJywgJy1waCcsICc3LjAnLCAnLXRuJywgJzgnLCAnLW1hJywgJzIwMCcsICctbWV0YWxfYmluZGluZycsICctaW1hZScsICc8aW5maWxlLm1hZT4nLCAnLW9tYWUnLCAnPG91dGZpbGUubWFlPic=

> <r_epik_Ionization_Penalty>
2.32728

> <r_epik_Ionization_Penalty_Charging>
0

> <r_epik_Ionization_Penalty_Neutral>
2.32728

> <r_epik_State_Penalty>
2.47991

> <r_epik_Charging_Adjusted_Penalty>
2.47991

> <i_epik_Tot_Q>
0

> <i_epik_Tot_abs_Q>
0

> <r_epik_Metal_State_Penalty>
2.4915

> <b_epik_Metal_Only>
0

> <s_lp_Force_Field>
OPLS_2005

> <r_lp_Energy>
-0.069028

> <b_lp_Chiralities_Consistent>
1

> <s_lp_Variant>
AV-unprocessed.smi:689-2

> <Gold.Version>
5.8.1

> <Gold.Id.Protein>
6NUR|6NUR_protein|mol2

> <Gold.PLP.Fitness>
35.0471

> <Gold.PLP.PLP>
-26.1699

> <Gold.PLP.part.hbond>
-4.2548

> <Gold.PLP.part.metal>
0.0000

> <Gold.PLP.part.buried>
-4.3524

> <Gold.PLP.part.nonpolar>
-18.4477

> <Gold.PLP.part.repulsive>
0.3185

> <Gold.PLP.ligand.clash>
0.0000

> <Gold.PLP.ligand.torsion>
1.0444

> <Gold.PLP.Chemscore.Hbond>
3.1077

> <Gold.PLP.Chemscore.CHOScore>
0.0000

> <Gold.PLP.Chemscore.Metal>
0.0000

> <Gold.Chemscore.Hbonds>
donor molecule, donor type, donor heavy atom, donor atom, acceptor molecule, acceptor atom, score
      P1  H  6896  6907       L1    13  0.94
      P1  H  6931  6943       L1    14  0.80
      P1  H  6934  6947       L1    14  0.44
      P1  H  7989  7998       L1     4  1.00

> <Gold.PLP.Chemscore.Internal.Correction>
1.6429

> <Gold.Rescore>
     Score         DG    S(hbond)    S(metal)    S(lipo)     H(rot)  DE(clash)    DE(int)     intcor
     14.96     -18.23       3.19        0.00      54.15       1.65       0.00       3.26       ----

> <Gold.Chemscore.Fitness>
14.9631

> <Gold.Chemscore.DG>
-18.2317

> <Gold.Chemscore.ZeroCoef>
-5.4800

> <Gold.Chemscore.Hbond>
3.1873

> <Gold.Chemscore.Metal>
0.0000

> <Gold.Chemscore.Lipo>
54.1458

> <Gold.Chemscore.Internal_Hbond>
0.0000

> <Gold.Chemscore.DEClash>
0.0038

> <Gold.Chemscore.DEInternal>
3.2648

> <Gold.Chemscore.Rot>
1.6519

> <Gold.Chemscore.Internal.Correction>
   9.000000E+99

> <Gold.Chemscore.Hbonds>
donor molecule, donor type, donor heavy atom, donor atom, acceptor molecule, acceptor atom, score
      P1  H  6896  6907       L1    13  0.86
      P1  H  6931  6943       L1    14  0.80
      P1  H  6934  6947       L1    14  0.43
      P1  H  7989  7998       L1     4  0.91

> <Gold.Chemscore.Hbond.Weighted>
-10.6456

> <Gold.Chemscore.Metal.Weighted>
-0.0000

> <Gold.Chemscore.Lipo.Weighted>
-6.3351

> <Gold.Chemscore.Internal_Hbond.Weighted>
0.0000

> <Gold.Chemscore.DEClash.Weighted>
0.0038

> <Gold.Chemscore.DEInternal.Weighted>
3.2648

> <Gold.Chemscore.Rot.Weighted>
4.2290

> <Gold.Chemscore.Internal.Correction.Weighted>
   9.000000E+99

> <Gold.Protein.RotatedTorsions>
[ 6907 6896 6895 6894 ] final  -85.99 input  -60.11 | X-H torsion
[ 7974 7965 7964 7962 ] final   -4.17 input  175.53 | X-H torsion
[ 8008 7997 7996 7995 ] final -133.96 input   59.86 | X-H torsion
[ 10167 10162 10161 10158 ] final -123.85 input  -65.29 | X-H torsion
[ 10718 10713 10712 10709 ] final -123.25 input   66.30 | X-H torsion
[ 10763 10752 10751 10750 ] final -136.36 input  -60.55 | X-H torsion
[ 11005 11000 10999 10996 ] final -120.01 input  -57.11 | X-H torsion

> <Gold.Protein.ActiveResidues>
 VAL166  LYS551  ARG553  GLY616  TRP617  ASP618  TYR619  PRO620  LYS621  CYS622 
 ASP623  PHE694  ASN695  SER759  ASP760  ASP761  ALA762  ILE779  LEU786  VAL792 
 PHE793  MET794  SER795  GLU796  ALA797  LYS798  CYS799  TRP800  GLU811  SER814 

> <Gold.Protein.RotatedAtoms>
  150.6868  134.3119  159.4749 H   0  0  0  0  0  0  0  0  0  0  0  0  # atno 6907 bound_to 6896
  152.1004  134.9343  160.0579 H   0  0  0  0  0  0  0  0  0  0  0  0  # atno 6908 bound_to 6896
  152.0624  133.4033  159.4460 H   0  0  0  0  0  0  0  0  0  0  0  0  # atno 6909 bound_to 6896
  146.2377  140.1831  142.8332 H   0  0  0  0  0  0  0  0  0  0  0  0  # atno 7974 bound_to 7965
  155.3541  140.0479  157.3046 H   0  0  0  0  0  0  0  0  0  0  0  0  # atno 8008 bound_to 7997
  154.5212  140.2225  155.8937 H   0  0  0  0  0  0  0  0  0  0  0  0  # atno 8009 bound_to 7997
  156.1691  140.3100  155.8948 H   0  0  0  0  0  0  0  0  0  0  0  0  # atno 8010 bound_to 7997
  139.9991  143.5560  152.2311 H   0  0  0  0  0  0  0  0  0  0  0  0  # atno 10167 bound_to 10162
  156.1486  130.6518  150.9880 H   0  0  0  0  0  0  0  0  0  0  0  0  # atno 10718 bound_to 10713
  154.8685  135.3675  154.5048 H   0  0  0  0  0  0  0  0  0  0  0  0  # atno 10763 bound_to 10752
  153.5686  135.7021  153.5519 H   0  0  0  0  0  0  0  0  0  0  0  0  # atno 10764 bound_to 10752
  153.3562  135.4058  155.1647 H   0  0  0  0  0  0  0  0  0  0  0  0  # atno 10765 bound_to 10752
  141.0174  134.0175  157.3330 H   0  0  0  0  0  0  0  0  0  0  0  0  # atno 11005 bound_to 11000
  144.9918  140.8554  143.5334 LP  0  0  0  0  0  0  0  0  0  0  0  0  # atno 17320 bound_to 7965
  145.1838  139.2337  143.5278 LP  0  0  0  0  0  0  0  0  0  0  0  0  # atno 17321 bound_to 7965
  139.6285  144.7641  151.2587 LP  0  0  0  0  0  0  0  0  0  0  0  0  # atno 17342 bound_to 10162
  140.7426  143.6521  150.8239 LP  0  0  0  0  0  0  0  0  0  0  0  0  # atno 17343 bound_to 10162
  157.6638  131.0876  150.7777 LP  0  0  0  0  0  0  0  0  0  0  0  0  # atno 17370 bound_to 10713
  156.7846  130.4870  149.5395 LP  0  0  0  0  0  0  0  0  0  0  0  0  # atno 17371 bound_to 10713
  139.9125  135.0192  156.7751 LP  0  0  0  0  0  0  0  0  0  0  0  0  # atno 17394 bound_to 11000
  140.6631  133.9627  155.7815 LP  0  0  0  0  0  0  0  0  0  0  0  0  # atno 17395 bound_to 11000

$$$$
