AV-unprocessed.smi:290|AV-procd|sdf|2220|dock7
  -GOLD-   2262022 63D 1   1.00000     0.00000
 Structure written by MMmdl.
 59 62  0  0  0  0  0  0  0  0  2 V2000
  146.1519  137.1444  159.4702 C   0  0  0  0  0  0  0  0  0  0  0  0
  147.2138  136.5291  160.3962 C   0  0  1  0  0  0  0  0  0  0  0  0
  147.3365  137.2939  161.5873 O   0  0  0  0  0  0  0  0  0  0  0  0
  147.9782  136.4733  162.5464 C   0  0  0  0  0  0  0  0  0  0  0  0
  147.2617  135.1403  162.3737 C   0  0  0  0  0  0  0  0  0  0  0  0
  146.9758  135.0701  160.8711 C   0  0  1  0  0  0  0  0  0  0  0  0
  145.6265  134.6708  160.6966 O   0  0  0  0  0  0  0  0  0  0  0  0
  147.8876  134.0421  160.1561 C   0  0  0  0  0  0  0  0  0  0  0  0
  147.7619  134.0618  158.7065 N   0  0  0  0  0  0  0  0  0  0  0  0
  148.3678  134.9401  157.8353 C   0  0  0  0  0  0  0  0  0  0  0  0
  148.0916  134.7548  156.5730 N   0  0  0  0  0  0  0  0  0  0  0  0
  147.2395  133.6588  156.5753 C   0  0  0  0  0  0  0  0  0  0  0  0
  146.5731  132.9283  155.5582 C   0  0  0  0  0  0  0  0  0  0  0  0
  146.7042  133.2523  154.2516 N   0  0  0  0  0  0  0  0  0  0  0  0
  145.5503  133.9147  153.6736 C   0  0  0  0  0  0  0  0  0  0  0  0
  145.7451  133.8244  152.1608 C   0  0  0  0  0  0  0  0  0  0  0  0
  146.8020  132.7227  151.9326 C   0  0  2  0  0  0  0  0  0  0  0  0
  146.3522  131.7434  150.8930 N   0  3  1  0  0  0  0  0  0  0  0  0
  145.5549  130.6472  151.5032 C   0  0  0  0  0  0  0  0  0  0  0  0
  145.6788  132.3368  149.7021 C   0  0  0  0  0  0  0  0  0  0  0  0
  144.1662  132.5620  149.8883 C   0  0  0  0  0  0  0  0  0  0  0  0
  143.6657  133.4015  148.8686 O   0  0  0  0  0  0  0  0  0  0  0  0
  147.0511  132.1580  153.3532 C   0  0  1  0  0  0  0  0  0  0  0  0
  148.5051  131.7007  153.6046 C   0  0  0  0  0  0  0  0  0  0  0  0
  145.8058  131.8701  155.9318 N   0  0  0  0  0  0  0  0  0  0  0  0
  145.6947  131.5518  157.2255 C   0  0  0  0  0  0  0  0  0  0  0  0
  146.2564  132.1434  158.2824 N   0  0  0  0  0  0  0  0  0  0  0  0
  147.0272  133.2045  157.9063 C   0  0  0  0  0  0  0  0  0  0  0  0
  147.7240  133.1958  151.5890 H   0  0  0  0  0  0  0  0  0  0  0  0
  146.3636  131.3319  153.5415 H   0  0  0  0  0  0  0  0  0  0  0  0
  146.0353  136.5560  158.5596 H   0  0  0  0  0  0  0  0  0  0  0  0
  146.4347  138.1553  159.1770 H   0  0  0  0  0  0  0  0  0  0  0  0
  145.1798  137.2052  159.9604 H   0  0  0  0  0  0  0  0  0  0  0  0
  148.1834  136.5943  159.9008 H   0  0  0  0  0  0  0  0  0  0  0  0
  149.0393  136.3834  162.3073 H   0  0  0  0  0  0  0  0  0  0  0  0
  147.8819  136.8775  163.5541 H   0  0  0  0  0  0  0  0  0  0  0  0
  147.8494  134.3008  162.7471 H   0  0  0  0  0  0  0  0  0  0  0  0
  146.3336  135.1674  162.9474 H   0  0  0  0  0  0  0  0  0  0  0  0
  145.5900  133.7264  160.6927 H   0  0  0  0  0  0  0  0  0  0  0  0
  148.9325  134.2279  160.4088 H   0  0  0  0  0  0  0  0  0  0  0  0
  147.6669  133.0320  160.5041 H   0  0  0  0  0  0  0  0  0  0  0  0
  149.0228  135.7327  158.1668 H   0  0  0  0  0  0  0  0  0  0  0  0
  144.6262  133.4109  153.9615 H   0  0  0  0  0  0  0  0  0  0  0  0
  145.4864  134.9510  154.0071 H   0  0  0  0  0  0  0  0  0  0  0  0
  144.7912  133.6084  151.6776 H   0  0  0  0  0  0  0  0  0  0  0  0
  146.1048  134.7741  151.7629 H   0  0  0  0  0  0  0  0  0  0  0  0
  144.5599  130.9975  151.7804 H   0  0  0  0  0  0  0  0  0  0  0  0
  146.0285  130.2523  152.4015 H   0  0  0  0  0  0  0  0  0  0  0  0
  145.4460  129.8032  150.8240 H   0  0  0  0  0  0  0  0  0  0  0  0
  146.1646  133.2799  149.4477 H   0  0  0  0  0  0  0  0  0  0  0  0
  145.7847  131.6818  148.8396 H   0  0  0  0  0  0  0  0  0  0  0  0
  143.6048  131.6292  149.9139 H   0  0  0  0  0  0  0  0  0  0  0  0
  143.9843  133.0504  150.8460 H   0  0  0  0  0  0  0  0  0  0  0  0
  142.8934  133.8424  149.1895 H   0  0  0  0  0  0  0  0  0  0  0  0
  148.8290  130.9227  152.9166 H   0  0  0  0  0  0  0  0  0  0  0  0
  148.6244  131.3018  154.6124 H   0  0  0  0  0  0  0  0  0  0  0  0
  149.2013  132.5335  153.4997 H   0  0  0  0  0  0  0  0  0  0  0  0
  145.0663  130.7015  157.4460 H   0  0  0  0  0  0  0  0  0  0  0  0
  147.1979  131.3199  150.5375 H   0  0  0  0  0  0  0  0  0  0  0  0
  1  2  1  0  0  0  0
  1 31  1  0  0  0  0
  1 32  1  0  0  0  0
  1 33  1  0  0  0  0
  2  6  1  0  0  0  0
  2  3  1  0  0  0  0
  2 34  1  0  0  0  0
  3  4  1  0  0  0  0
  4  5  1  0  0  0  0
  4 35  1  0  0  0  0
  4 36  1  0  0  0  0
  5  6  1  0  0  0  0
  5 37  1  0  0  0  0
  5 38  1  0  0  0  0
  6  7  1  0  0  0  0
  6  8  1  0  0  0  0
  7 39  1  0  0  0  0
  8  9  1  0  0  0  0
  8 40  1  0  0  0  0
  8 41  1  0  0  0  0
  9 28  1  0  0  0  0
  9 10  1  0  0  0  0
 10 11  2  0  0  0  0
 10 42  1  0  0  0  0
 11 12  1  0  0  0  0
 12 28  2  0  0  0  0
 12 13  1  0  0  0  0
 13 14  1  0  0  0  0
 13 25  2  0  0  0  0
 14 23  1  0  0  0  0
 14 15  1  0  0  0  0
 15 16  1  0  0  0  0
 15 43  1  0  0  0  0
 15 44  1  0  0  0  0
 16 17  1  0  0  0  0
 16 45  1  0  0  0  0
 16 46  1  0  0  0  0
 17 29  1  0  0  0  0
 17 18  1  0  0  0  0
 17 23  1  0  0  0  0
 18 19  1  0  0  0  0
 18 20  1  0  0  0  0
 18 59  1  0  0  0  0
 19 47  1  0  0  0  0
 19 48  1  0  0  0  0
 19 49  1  0  0  0  0
 20 21  1  0  0  0  0
 20 50  1  0  0  0  0
 20 51  1  0  0  0  0
 21 22  1  0  0  0  0
 21 52  1  0  0  0  0
 21 53  1  0  0  0  0
 22 54  1  0  0  0  0
 23 30  1  0  0  0  0
 23 24  1  0  0  0  0
 24 55  1  0  0  0  0
 24 56  1  0  0  0  0
 24 57  1  0  0  0  0
 25 26  1  0  0  0  0
 26 27  2  0  0  0  0
 26 58  1  0  0  0  0
 27 28  1  0  0  0  0
M  CHG  1  18   1
M  END
> <s_m_source_file>
AV-unprocessed.smi

> <i_m_source_file_index>
290

> <i_lp_mmshare_version>
43012

> <i_f3d_flags>
0

> <s_epik_input>
W0NIMl0xW0NIMl1PW0NAQEhdKFtDSDNdKVtDQEBdMShbT0hdKVtDSDJdbihbY0hdbjIpYyhjMjMpbltjSF1uYzNONFtDSDJdW0NIMl1bQ0BIXShbQ0BIXTRbQ0gzXSlOKFtDSDNdKVtDSDJdW0NIMl1bT0hd

> <s_epik_cmdline>
J2VwaWtfcHl0aG9uJywgJy1waCcsICc3LjAnLCAnLXRuJywgJzgnLCAnLW1hJywgJzIwMCcsICctbWV0YWxfYmluZGluZycsICctaW1hZScsICc8aW5maWxlLm1hZT4nLCAnLW9tYWUnLCAnPG91dGZpbGUubWFlPic=

> <r_lp_tautomer_probability>
1

> <r_epik_Ionization_Penalty>
0.0036983

> <r_epik_Ionization_Penalty_Charging>
0.0032725

> <r_epik_Ionization_Penalty_Neutral>
0.000425798

> <r_epik_State_Penalty>
-0

> <r_epik_Charging_Adjusted_Penalty>
0.0032725

> <i_epik_Tot_Q>
1

> <i_epik_Tot_abs_Q>
1

> <r_epik_Metal_State_Penalty>
-0

> <b_epik_Metal_Only>
0

> <s_lp_Force_Field>
OPLS_2005

> <r_lp_Energy>
65.0723

> <b_lp_Chiralities_Consistent>
1

> <s_lp_Variant>
AV-unprocessed.smi:290-6

> <Gold.Version>
5.8.1

> <Gold.Id.Protein>
6NUR|6NUR_protein|mol2

> <Gold.PLP.Fitness>
46.2116

> <Gold.PLP.PLP>
-39.7174

> <Gold.PLP.part.hbond>
-4.9430

> <Gold.PLP.part.metal>
0.0000

> <Gold.PLP.part.buried>
-6.4892

> <Gold.PLP.part.nonpolar>
-28.9660

> <Gold.PLP.part.repulsive>
0.2674

> <Gold.PLP.ligand.clash>
0.0000

> <Gold.PLP.ligand.torsion>
1.4034

> <Gold.PLP.Chemscore.Hbond>
3.0262

> <Gold.PLP.Chemscore.CHOScore>
0.0000

> <Gold.PLP.Chemscore.Metal>
0.0000

> <Gold.Chemscore.Hbonds>
donor molecule, donor type, donor heavy atom, donor atom, acceptor molecule, acceptor atom, score
      L1  H    18    59       P1 10747  1.00
      L1  H    22    54       P1 10186  1.00
      P1  H  6934  6947       L1     3  0.88

> <Gold.PLP.Chemscore.Internal.Correction>
0.2226

> <Gold.Rescore>
     Score         DG    S(hbond)    S(metal)    S(lipo)     H(rot)  DE(clash)    DE(int)     intcor
     14.21     -15.88       2.77        0.00      89.93       3.67       0.02       1.65       ----

> <Gold.Chemscore.Fitness>
14.2062

> <Gold.Chemscore.DG>
-15.8801

> <Gold.Chemscore.ZeroCoef>
-5.4800

> <Gold.Chemscore.Hbond>
2.7731

> <Gold.Chemscore.Metal>
0.0000

> <Gold.Chemscore.Lipo>
89.9335

> <Gold.Chemscore.Internal_Hbond>
0.0000

> <Gold.Chemscore.DEClash>
0.0202

> <Gold.Chemscore.DEInternal>
1.6536

> <Gold.Chemscore.Rot>
3.6658

> <Gold.Chemscore.Internal.Correction>
   9.000000E+99

> <Gold.Chemscore.Hbonds>
donor molecule, donor type, donor heavy atom, donor atom, acceptor molecule, acceptor atom, score
      L1  H    18    59       P1 10747  1.00
      L1  H    22    54       P1 10186  0.96
      P1  H  6934  6947       L1     3  0.30

> <Gold.Chemscore.Hbond.Weighted>
-9.2623

> <Gold.Chemscore.Metal.Weighted>
-0.0000

> <Gold.Chemscore.Lipo.Weighted>
-10.5222

> <Gold.Chemscore.Internal_Hbond.Weighted>
0.0000

> <Gold.Chemscore.DEClash.Weighted>
0.0202

> <Gold.Chemscore.DEInternal.Weighted>
1.6536

> <Gold.Chemscore.Rot.Weighted>
9.3844

> <Gold.Chemscore.Internal.Correction.Weighted>
   9.000000E+99

> <Gold.Protein.RotatedTorsions>
[ 6907 6896 6895 6894 ] final  121.40 input  -60.11 | X-H torsion
[ 7974 7965 7964 7962 ] final  -66.94 input  175.53 | X-H torsion
[ 8008 7997 7996 7995 ] final   78.75 input   59.86 | X-H torsion
[ 10167 10162 10161 10158 ] final  -90.85 input  -65.29 | X-H torsion
[ 10718 10713 10712 10709 ] final   94.48 input   66.30 | X-H torsion
[ 10763 10752 10751 10750 ] final  -85.42 input  -60.55 | X-H torsion
[ 11005 11000 10999 10996 ] final -117.92 input  -57.11 | X-H torsion

> <Gold.Protein.ActiveResidues>
 VAL166  LYS551  ARG553  GLY616  TRP617  ASP618  TYR619  PRO620  LYS621  CYS622 
 ASP623  PHE694  ASN695  SER759  ASP760  ASP761  ALA762  ILE779  LEU786  VAL792 
 PHE793  MET794  SER795  GLU796  ALA797  LYS798  CYS799  TRP800  GLU811  SER814 

> <Gold.Protein.RotatedAtoms>
  152.4325  133.7302  159.6582 H   0  0  0  0  0  0  0  0  0  0  0  0  # atno 6907 bound_to 6896
  150.8205  133.8250  159.3147 H   0  0  0  0  0  0  0  0  0  0  0  0  # atno 6908 bound_to 6896
  151.5934  135.1054  160.0095 H   0  0  0  0  0  0  0  0  0  0  0  0  # atno 6909 bound_to 6896
  145.7355  140.8977  143.0557 H   0  0  0  0  0  0  0  0  0  0  0  0  # atno 7974 bound_to 7965
  155.8600  140.3454  155.5750 H   0  0  0  0  0  0  0  0  0  0  0  0  # atno 8008 bound_to 7997
  155.7943  140.0876  157.2011 H   0  0  0  0  0  0  0  0  0  0  0  0  # atno 8009 bound_to 7997
  154.4011  140.1477  156.3187 H   0  0  0  0  0  0  0  0  0  0  0  0  # atno 8010 bound_to 7997
  140.3508  143.2892  151.9728 H   0  0  0  0  0  0  0  0  0  0  0  0  # atno 10167 bound_to 10162
  157.6947  131.0514  150.4193 H   0  0  0  0  0  0  0  0  0  0  0  0  # atno 10718 bound_to 10713
  154.6109  135.5485  153.7472 H   0  0  0  0  0  0  0  0  0  0  0  0  # atno 10763 bound_to 10752
  153.0195  135.6389  154.1580 H   0  0  0  0  0  0  0  0  0  0  0  0  # atno 10764 bound_to 10752
  154.1517  135.2902  155.3113 H   0  0  0  0  0  0  0  0  0  0  0  0  # atno 10765 bound_to 10752
  141.0321  133.9965  157.3127 H   0  0  0  0  0  0  0  0  0  0  0  0  # atno 11005 bound_to 11000
  144.6883  139.9389  143.7474 LP  0  0  0  0  0  0  0  0  0  0  0  0  # atno 17320 bound_to 7965
  146.0497  139.3499  143.0647 LP  0  0  0  0  0  0  0  0  0  0  0  0  # atno 17321 bound_to 7965
  139.4826  144.6077  151.7490 LP  0  0  0  0  0  0  0  0  0  0  0  0  # atno 17342 bound_to 10162
  140.5221  144.0863  150.6026 LP  0  0  0  0  0  0  0  0  0  0  0  0  # atno 17343 bound_to 10162
  156.4570  130.4024  149.6600 LP  0  0  0  0  0  0  0  0  0  0  0  0  # atno 17370 bound_to 10713
  156.3729  130.7539  151.2524 LP  0  0  0  0  0  0  0  0  0  0  0  0  # atno 17371 bound_to 10713
  139.9215  135.0200  156.8081 LP  0  0  0  0  0  0  0  0  0  0  0  0  # atno 17394 bound_to 11000
  140.6388  133.9838  155.7697 LP  0  0  0  0  0  0  0  0  0  0  0  0  # atno 17395 bound_to 11000

$$$$
