AV-unprocessed.smi:1056|AV-procd|sdf|4634|dock9
  -GOLD-   22720 3143D 1   1.00000     0.00000
 Structure written by MMmdl.
 46 48  0  0  0  0  0  0  0  0  3 V2000
  153.1590  142.8970  161.5061 C   0  0  0  0  0  0  0  0  0  0  0  0
  152.6017  142.5037  160.1485 C   0  0  0  0  0  0  0  0  0  0  0  0
  152.9212  141.2277  159.6327 C   0  0  0  0  0  0  0  0  0  0  0  0
  152.3914  140.8938  158.3920 C   0  0  0  0  0  0  0  0  0  0  0  0
  152.5167  139.7316  157.6287 N   0  3  0  0  0  0  0  0  0  0  0  0
  151.8079  139.8667  156.4742 C   0  0  0  0  0  0  0  0  0  0  0  0
  151.2323  141.1001  156.4866 N   0  0  0  0  0  0  0  0  0  0  0  0
  150.3585  141.7381  155.4903 C   0  0  0  0  0  0  0  0  0  0  0  0
  149.3906  140.7456  154.8119 C   0  0  2  0  0  0  0  0  0  0  0  0
  150.0973  139.9562  153.8766 O   0  0  0  0  0  0  0  0  0  0  0  0
  148.2477  141.4522  154.0544 C   0  0  0  0  0  0  0  0  0  0  0  0
  147.3263  142.1908  154.9545 N   0  3  2  0  0  0  0  0  0  0  0  0
  146.9452  141.4331  156.1701 C   0  0  0  0  0  0  0  0  0  0  0  0
  146.1676  142.3404  157.1405 C   0  0  0  0  0  0  0  0  0  0  0  0
  145.1766  143.1794  156.4707 N   0  0  0  0  0  0  0  0  0  0  0  0
  145.1098  143.4001  155.1477 C   0  0  0  0  0  0  0  0  0  0  0  0
  144.2530  144.1294  154.6559 O   0  0  0  0  0  0  0  0  0  0  0  0
  146.1369  142.7131  154.2348 C   0  0  0  0  0  0  0  0  0  0  0  0
  151.5699  141.7783  157.6655 C   0  0  0  0  0  0  0  0  0  0  0  0
  151.2512  143.0426  158.1575 C   0  0  0  0  0  0  0  0  0  0  0  0
  151.7785  143.4002  159.4192 C   0  0  0  0  0  0  0  0  0  0  0  0
  151.4430  144.7707  159.9826 C   0  0  0  0  0  0  0  0  0  0  0  0
  153.7626  142.0975  161.9366 H   0  0  0  0  0  0  0  0  0  0  0  0
  152.3499  143.1143  162.2040 H   0  0  0  0  0  0  0  0  0  0  0  0
  153.7906  143.7813  161.4202 H   0  0  0  0  0  0  0  0  0  0  0  0
  153.5487  140.5406  160.1816 H   0  0  0  0  0  0  0  0  0  0  0  0
  151.7169  139.1260  155.6928 H   0  0  0  0  0  0  0  0  0  0  0  0
  149.7946  142.5108  156.0141 H   0  0  0  0  0  0  0  0  0  0  0  0
  150.9707  142.2590  154.7538 H   0  0  0  0  0  0  0  0  0  0  0  0
  148.9863  140.0638  155.5598 H   0  0  0  0  0  0  0  0  0  0  0  0
  149.6069  139.9326  153.0686 H   0  0  0  0  0  0  0  0  0  0  0  0
  148.6901  142.1483  153.3398 H   0  0  0  0  0  0  0  0  0  0  0  0
  147.6733  140.7362  153.4639 H   0  0  0  0  0  0  0  0  0  0  0  0
  146.3298  140.5797  155.8806 H   0  0  0  0  0  0  0  0  0  0  0  0
  147.8219  141.0318  156.6772 H   0  0  0  0  0  0  0  0  0  0  0  0
  145.6756  141.7423  157.9079 H   0  0  0  0  0  0  0  0  0  0  0  0
  146.8624  143.0031  157.6574 H   0  0  0  0  0  0  0  0  0  0  0  0
  144.4905  143.6329  157.0580 H   0  0  0  0  0  0  0  0  0  0  0  0
  146.4594  143.4226  153.4716 H   0  0  0  0  0  0  0  0  0  0  0  0
  145.6353  141.8925  153.7195 H   0  0  0  0  0  0  0  0  0  0  0  0
  150.6283  143.7302  157.6048 H   0  0  0  0  0  0  0  0  0  0  0  0
  150.8176  145.3431  159.2969 H   0  0  0  0  0  0  0  0  0  0  0  0
  152.3522  145.3452  160.1616 H   0  0  0  0  0  0  0  0  0  0  0  0
  150.9027  144.6747  160.9246 H   0  0  0  0  0  0  0  0  0  0  0  0
  147.8304  143.0061  155.2723 H   0  0  0  0  0  0  0  0  0  0  0  0
  153.0437  138.9041  157.8781 H   0  0  0  0  0  0  0  0  0  0  0  0
  1  2  1  0  0  0  0
  1 23  1  0  0  0  0
  1 24  1  0  0  0  0
  1 25  1  0  0  0  0
  2 21  1  0  0  0  0
  2  3  2  0  0  0  0
  3  4  1  0  0  0  0
  3 26  1  0  0  0  0
  4 19  2  0  0  0  0
  4  5  1  0  0  0  0
  5  6  2  0  0  0  0
  5 46  1  0  0  0  0
  6  7  1  0  0  0  0
  6 27  1  0  0  0  0
  7  8  1  0  0  0  0
  7 19  1  0  0  0  0
  8  9  1  0  0  0  0
  8 28  1  0  0  0  0
  8 29  1  0  0  0  0
  9 10  1  0  0  0  0
  9 11  1  0  0  0  0
  9 30  1  0  0  0  0
 10 31  1  0  0  0  0
 11 12  1  0  0  0  0
 11 32  1  0  0  0  0
 11 33  1  0  0  0  0
 12 18  1  0  0  0  0
 12 13  1  0  0  0  0
 12 45  1  0  0  0  0
 13 14  1  0  0  0  0
 13 34  1  0  0  0  0
 13 35  1  0  0  0  0
 14 15  1  0  0  0  0
 14 36  1  0  0  0  0
 14 37  1  0  0  0  0
 15 16  1  0  0  0  0
 15 38  1  0  0  0  0
 16 17  2  0  0  0  0
 16 18  1  0  0  0  0
 18 39  1  0  0  0  0
 18 40  1  0  0  0  0
 19 20  1  0  0  0  0
 20 21  2  0  0  0  0
 20 41  1  0  0  0  0
 21 22  1  0  0  0  0
 22 42  1  0  0  0  0
 22 43  1  0  0  0  0
 22 44  1  0  0  0  0
M  CHG  1   5   1
M  CHG  1  12   1
M  END
> <s_m_source_file>
AV-unprocessed.smi

> <i_m_source_file_index>
1056

> <i_lp_mmshare_version>
43012

> <i_f3d_flags>
0

> <s_epik_input>
W0NIM11jKFtjSF0xKWMoW0NIM10pW2NIXWMoYzEyKW4oW2NIXW4yKVtDSDJdW0NASF0oW09IXSlbQ0gyXU4zW0NIMl1bQ0gyXVtOSF1DKD1PKVtDSDJdMw==

> <s_epik_cmdline>
J2VwaWtfcHl0aG9uJywgJy1waCcsICc3LjAnLCAnLXRuJywgJzgnLCAnLW1hJywgJzIwMCcsICctbWV0YWxfYmluZGluZycsICctaW1hZScsICc8aW5maWxlLm1hZT4nLCAnLW9tYWUnLCAnPG91dGZpbGUubWFlPic=

> <r_epik_Ionization_Penalty>
1.262

> <r_epik_Ionization_Penalty_Charging>
1.26188

> <r_epik_Ionization_Penalty_Neutral>
0.000125436

> <r_epik_State_Penalty>
1.3387

> <r_epik_Charging_Adjusted_Penalty>
2.60058

> <i_epik_Tot_Q>
2

> <i_epik_Tot_abs_Q>
2

> <r_epik_Metal_State_Penalty>
1.58938

> <b_epik_Metal_Only>
0

> <s_lp_Force_Field>
OPLS_2005

> <r_lp_Energy>
36.1571

> <b_lp_Chiralities_Consistent>
1

> <s_lp_Variant>
AV-unprocessed.smi:1056-5

> <Gold.Version>
5.8.1

> <Gold.Id.Protein>
6NUR|6NUR_protein|mol2

> <Gold.PLP.Fitness>
59.1058

> <Gold.PLP.PLP>
-48.3204

> <Gold.PLP.part.hbond>
-3.0000

> <Gold.PLP.part.metal>
0.0000

> <Gold.PLP.part.buried>
-7.0410

> <Gold.PLP.part.nonpolar>
-38.2840

> <Gold.PLP.part.repulsive>
0.3604

> <Gold.PLP.ligand.clash>
0.0000

> <Gold.PLP.ligand.torsion>
0.5338

> <Gold.PLP.Chemscore.Hbond>
3.9440

> <Gold.PLP.Chemscore.CHOScore>
0.0000

> <Gold.PLP.Chemscore.Metal>
0.0000

> <Gold.Chemscore.Hbonds>
donor molecule, donor type, donor heavy atom, donor atom, acceptor molecule, acceptor atom, score
      L1  H    10    31       P1  7957  0.96
      L1  H    12    45       P1  8028  2.00
      P1  H  7989  7998       L1    10  0.90

> <Gold.PLP.Chemscore.Internal.Correction>
0.0210

> <Gold.Rescore>
     Score         DG    S(hbond)    S(metal)    S(lipo)     H(rot)  DE(clash)    DE(int)     intcor
     18.57     -19.29       1.93        0.00     116.09       2.44       0.18       0.54       ----

> <Gold.Chemscore.Fitness>
18.5738

> <Gold.Chemscore.DG>
-19.2896

> <Gold.Chemscore.ZeroCoef>
-5.4800

> <Gold.Chemscore.Hbond>
1.9350

> <Gold.Chemscore.Metal>
0.0000

> <Gold.Chemscore.Lipo>
116.0863

> <Gold.Chemscore.Internal_Hbond>
0.0000

> <Gold.Chemscore.DEClash>
0.1790

> <Gold.Chemscore.DEInternal>
0.5368

> <Gold.Chemscore.Rot>
2.4357

> <Gold.Chemscore.Internal.Correction>
   9.000000E+99

> <Gold.Chemscore.Hbonds>
donor molecule, donor type, donor heavy atom, donor atom, acceptor molecule, acceptor atom, score
      L1  H    10    31       P1  7957  0.92
      L1  H    12    45       P1  8028  0.70
      P1  H  7989  7998       L1    10  0.24

> <Gold.Chemscore.Hbond.Weighted>
-6.4629

> <Gold.Chemscore.Metal.Weighted>
-0.0000

> <Gold.Chemscore.Lipo.Weighted>
-13.5821

> <Gold.Chemscore.Internal_Hbond.Weighted>
0.0000

> <Gold.Chemscore.DEClash.Weighted>
0.1790

> <Gold.Chemscore.DEInternal.Weighted>
0.5368

> <Gold.Chemscore.Rot.Weighted>
6.2353

> <Gold.Chemscore.Internal.Correction.Weighted>
   9.000000E+99

> <Gold.Protein.RotatedTorsions>
[ 6907 6896 6895 6894 ] final  -72.33 input  -60.11 | X-H torsion
[ 7974 7965 7964 7962 ] final  176.85 input  175.53 | X-H torsion
[ 8008 7997 7996 7995 ] final   75.90 input   59.86 | X-H torsion
[ 10167 10162 10161 10158 ] final   50.15 input  -65.29 | X-H torsion
[ 10718 10713 10712 10709 ] final   60.91 input   66.30 | X-H torsion
[ 10763 10752 10751 10750 ] final  -13.24 input  -60.55 | X-H torsion
[ 11005 11000 10999 10996 ] final  -48.76 input  -57.11 | X-H torsion

> <Gold.Protein.ActiveResidues>
 VAL166  LYS551  ARG553  GLY616  TRP617  ASP618  TYR619  PRO620  LYS621  CYS622 
 ASP623  PHE694  ASN695  SER759  ASP760  ASP761  ALA762  ILE779  LEU786  VAL792 
 PHE793  MET794  SER795  GLU796  ALA797  LYS798  CYS799  TRP800  GLU811  SER814 

> <Gold.Protein.RotatedAtoms>
  150.7174  134.5178  159.5638 H   0  0  0  0  0  0  0  0  0  0  0  0  # atno 6907 bound_to 6896
  152.2740  134.7899  160.0418 H   0  0  0  0  0  0  0  0  0  0  0  0  # atno 6908 bound_to 6896
  151.8569  133.3414  159.3728 H   0  0  0  0  0  0  0  0  0  0  0  0  # atno 6909 bound_to 6896
  144.7178  140.0159  143.6440 H   0  0  0  0  0  0  0  0  0  0  0  0  # atno 7974 bound_to 7965
  155.8196  140.3470  155.5506 H   0  0  0  0  0  0  0  0  0  0  0  0  # atno 8008 bound_to 7997
  155.8355  140.0933  157.1786 H   0  0  0  0  0  0  0  0  0  0  0  0  # atno 8009 bound_to 7997
  154.4004  140.1404  156.3653 H   0  0  0  0  0  0  0  0  0  0  0  0  # atno 8010 bound_to 7997
  140.2754  144.3217  150.6278 H   0  0  0  0  0  0  0  0  0  0  0  0  # atno 10167 bound_to 10162
  157.5788  130.8965  149.9394 H   0  0  0  0  0  0  0  0  0  0  0  0  # atno 10718 bound_to 10713
  153.5104  135.7016  153.5784 H   0  0  0  0  0  0  0  0  0  0  0  0  # atno 10763 bound_to 10752
  153.3877  135.3904  155.1901 H   0  0  0  0  0  0  0  0  0  0  0  0  # atno 10764 bound_to 10752
  154.8704  135.3850  154.4583 H   0  0  0  0  0  0  0  0  0  0  0  0  # atno 10765 bound_to 10752
  141.0719  133.6676  156.3487 H   0  0  0  0  0  0  0  0  0  0  0  0  # atno 11005 bound_to 11000
  146.0220  139.3259  143.0807 LP  0  0  0  0  0  0  0  0  0  0  0  0  # atno 17320 bound_to 7965
  145.8556  140.9504  143.0726 LP  0  0  0  0  0  0  0  0  0  0  0  0  # atno 17321 bound_to 7965
  140.5855  143.2170  151.7350 LP  0  0  0  0  0  0  0  0  0  0  0  0  # atno 17342 bound_to 10162
  139.4977  144.4017  152.0174 LP  0  0  0  0  0  0  0  0  0  0  0  0  # atno 17343 bound_to 10162
  156.0833  130.3670  150.0537 LP  0  0  0  0  0  0  0  0  0  0  0  0  # atno 17370 bound_to 10713
  156.8679  130.9514  151.3612 LP  0  0  0  0  0  0  0  0  0  0  0  0  # atno 17371 bound_to 10713
  140.5654  134.5892  157.5444 LP  0  0  0  0  0  0  0  0  0  0  0  0  # atno 17394 bound_to 11000
  139.9532  134.7580  156.0400 LP  0  0  0  0  0  0  0  0  0  0  0  0  # atno 17395 bound_to 11000

$$$$
