AV-unprocessed.smi:1748|AV-procd|sdf|7039|dock2
  -GOLD-   22720 8253D 1   1.00000     0.00000
 Structure written by MMmdl.
 40 41  0  0  0  0  0  0  0  0  2 V2000
  152.0794  141.6856  158.6412 C   0  0  0  0  0  0  0  0  0  0  0  0
  151.7396  140.5888  157.7093 N   0  3  2  0  0  0  0  0  0  0  0  0
  151.3932  141.0863  156.3543 C   0  0  0  0  0  0  0  0  0  0  0  0
  151.1652  139.9194  155.3789 C   0  0  0  0  0  0  0  0  0  0  0  0
  150.0910  138.9593  155.9084 C   0  0  0  0  0  0  0  0  0  0  0  0
  150.4609  138.4799  157.3213 C   0  0  2  0  0  0  0  0  0  0  0  0
  149.4094  137.6127  157.8446 N   0  0  0  0  0  0  0  0  0  0  0  0
  149.4885  136.9049  158.9807 C   0  0  0  0  0  0  0  0  0  0  0  0
  150.4734  136.9264  159.7188 O   0  0  0  0  0  0  0  0  0  0  0  0
  148.3569  136.2092  159.1956 N   0  0  0  0  0  0  0  0  0  0  0  0
  148.0425  135.3310  160.2465 C   0  0  0  0  0  0  0  0  0  0  0  0
  147.9647  133.9794  160.1308 C   0  0  0  0  0  0  0  0  0  0  0  0
  147.6179  133.1274  161.2556 C   0  0  0  0  0  0  0  0  0  0  0  0
  147.6081  131.6122  161.1264 C   0  0  0  0  0  0  0  0  0  0  0  0
  147.8337  131.2278  159.8693 F   0  0  0  0  0  0  0  0  0  0  0  0
  148.5575  131.0862  161.8993 F   0  0  0  0  0  0  0  0  0  0  0  0
  146.4349  131.1113  161.5138 F   0  0  0  0  0  0  0  0  0  0  0  0
  147.3839  133.7462  162.4278 C   0  0  0  0  0  0  0  0  0  0  0  0
  147.4411  135.1365  162.5501 N   0  0  0  0  0  0  0  0  0  0  0  0
  147.7523  135.9765  161.5375 C   0  0  0  0  0  0  0  0  0  0  0  0
  147.7815  137.1924  161.7248 O   0  0  0  0  0  0  0  0  0  0  0  0
  150.6950  139.6865  158.2552 C   0  0  0  0  0  0  0  0  0  0  0  0
  147.2365  135.5260  163.4591 H   0  0  0  0  0  0  0  0  0  0  0  0
  151.2214  142.3386  158.8065 H   0  0  0  0  0  0  0  0  0  0  0  0
  152.8971  142.2884  158.2448 H   0  0  0  0  0  0  0  0  0  0  0  0
  152.3979  141.2877  159.6052 H   0  0  0  0  0  0  0  0  0  0  0  0
  150.4988  141.7090  156.4109 H   0  0  0  0  0  0  0  0  0  0  0  0
  152.1981  141.7207  155.9808 H   0  0  0  0  0  0  0  0  0  0  0  0
  150.8732  140.3024  154.4007 H   0  0  0  0  0  0  0  0  0  0  0  0
  152.1002  139.3769  155.2319 H   0  0  0  0  0  0  0  0  0  0  0  0
  149.1246  139.4658  155.9256 H   0  0  0  0  0  0  0  0  0  0  0  0
  149.9869  138.1090  155.2333 H   0  0  0  0  0  0  0  0  0  0  0  0
  151.3859  137.9035  157.2508 H   0  0  0  0  0  0  0  0  0  0  0  0
  148.5622  137.5424  157.2991 H   0  0  0  0  0  0  0  0  0  0  0  0
  147.6067  136.3552  158.5357 H   0  0  0  0  0  0  0  0  0  0  0  0
  148.1364  133.4917  159.1850 H   0  0  0  0  0  0  0  0  0  0  0  0
  147.1428  133.2362  163.3489 H   0  0  0  0  0  0  0  0  0  0  0  0
  151.0062  139.3375  159.2409 H   0  0  0  0  0  0  0  0  0  0  0  0
  149.7679  140.2453  158.3952 H   0  0  0  0  0  0  0  0  0  0  0  0
  152.5755  140.0309  157.6073 H   0  0  0  0  0  0  0  0  0  0  0  0
  1  2  1  0  0  0  0
  1 24  1  0  0  0  0
  1 25  1  0  0  0  0
  1 26  1  0  0  0  0
  2 22  1  0  0  0  0
  2  3  1  0  0  0  0
  2 40  1  0  0  0  0
  3  4  1  0  0  0  0
  3 27  1  0  0  0  0
  3 28  1  0  0  0  0
  4  5  1  0  0  0  0
  4 29  1  0  0  0  0
  4 30  1  0  0  0  0
  5  6  1  0  0  0  0
  5 31  1  0  0  0  0
  5 32  1  0  0  0  0
  6  7  1  0  0  0  0
  6 22  1  0  0  0  0
  6 33  1  0  0  0  0
  7  8  1  0  0  0  0
  7 34  1  0  0  0  0
  8  9  2  0  0  0  0
  8 10  1  0  0  0  0
 10 11  1  0  0  0  0
 10 35  1  0  0  0  0
 11 20  1  0  0  0  0
 11 12  2  0  0  0  0
 12 13  1  0  0  0  0
 12 36  1  0  0  0  0
 13 14  1  0  0  0  0
 13 18  2  0  0  0  0
 14 15  1  0  0  0  0
 14 16  1  0  0  0  0
 14 17  1  0  0  0  0
 18 19  1  0  0  0  0
 18 37  1  0  0  0  0
 19 23  1  0  0  0  0
 19 20  1  0  0  0  0
 20 21  2  0  0  0  0
 22 38  1  0  0  0  0
 22 39  1  0  0  0  0
M  CHG  1   2   1
M  END
> <s_m_source_file>
AV-unprocessed.smi

> <i_m_source_file_index>
1748

> <i_lp_mmshare_version>
43012

> <i_f3d_flags>
0

> <s_epik_input>
W0NIM11OMVtDSDJdW0NIMl1bQ0gyXVtDQEhdKFtDSDJdMSlbTkhdQyg9TylbTkhdYzJbY0hdYyhDKEYpKEYpRilbY0hdW25IXWMyPU8=

> <s_epik_cmdline>
J2VwaWtfcHl0aG9uJywgJy1waCcsICc3LjAnLCAnLXRuJywgJzgnLCAnLW1hJywgJzIwMCcsICctbWV0YWxfYmluZGluZycsICctaW1hZScsICc8aW5maWxlLm1hZT4nLCAnLW9tYWUnLCAnPG91dGZpbGUubWFlPic=

> <r_lp_tautomer_probability>
1

> <r_epik_Ionization_Penalty>
0.00746315

> <r_epik_Ionization_Penalty_Charging>
0.00744398

> <r_epik_Ionization_Penalty_Neutral>
1.91704e-05

> <r_epik_State_Penalty>
-0

> <r_epik_Charging_Adjusted_Penalty>
0.00744398

> <i_epik_Tot_Q>
1

> <i_epik_Tot_abs_Q>
1

> <r_epik_Metal_State_Penalty>
0.379332

> <b_epik_Metal_Only>
0

> <s_lp_Force_Field>
OPLS_2005

> <r_lp_Energy>
25.4307

> <b_lp_Chiralities_Consistent>
1

> <s_lp_Variant>
AV-unprocessed.smi:1748-4

> <Gold.Version>
5.8.1

> <Gold.Id.Protein>
6NUR|6NUR_protein|mol2

> <Gold.PLP.Fitness>
39.8437

> <Gold.PLP.PLP>
-33.4258

> <Gold.PLP.part.hbond>
-3.1791

> <Gold.PLP.part.metal>
0.0000

> <Gold.PLP.part.buried>
-4.4850

> <Gold.PLP.part.nonpolar>
-25.9573

> <Gold.PLP.part.repulsive>
0.4151

> <Gold.PLP.ligand.clash>
0.0000

> <Gold.PLP.ligand.torsion>
0.7902

> <Gold.PLP.Chemscore.Hbond>
2.6562

> <Gold.PLP.Chemscore.CHOScore>
0.0000

> <Gold.PLP.Chemscore.Metal>
0.0000

> <Gold.Chemscore.Hbonds>
donor molecule, donor type, donor heavy atom, donor atom, acceptor molecule, acceptor atom, score
      P1  H  6896  6907       L1     9  1.00
      P1  H  6931  6943       L1    21  1.00
      P1  H  6934  6947       L1    21  0.60

> <Gold.PLP.Chemscore.Internal.Correction>
0.0298

> <Gold.Rescore>
     Score         DG    S(hbond)    S(metal)    S(lipo)     H(rot)  DE(clash)    DE(int)     intcor
     18.46     -19.36       2.72        0.00      62.81       1.00       0.05       0.86       ----

> <Gold.Chemscore.Fitness>
18.4573

> <Gold.Chemscore.DG>
-19.3615

> <Gold.Chemscore.ZeroCoef>
-5.4800

> <Gold.Chemscore.Hbond>
2.7225

> <Gold.Chemscore.Metal>
0.0000

> <Gold.Chemscore.Lipo>
62.8067

> <Gold.Chemscore.Internal_Hbond>
0.0000

> <Gold.Chemscore.DEClash>
0.0485

> <Gold.Chemscore.DEInternal>
0.8558

> <Gold.Chemscore.Rot>
1.0000

> <Gold.Chemscore.Internal.Correction>
   9.000000E+99

> <Gold.Chemscore.Hbonds>
donor molecule, donor type, donor heavy atom, donor atom, acceptor molecule, acceptor atom, score
      P1  H  6896  6907       L1     9  0.60
      P1  H  6931  6943       L1    21  0.97
      P1  H  6934  6947       L1    21  0.59

> <Gold.Chemscore.Hbond.Weighted>
-9.0931

> <Gold.Chemscore.Metal.Weighted>
-0.0000

> <Gold.Chemscore.Lipo.Weighted>
-7.3484

> <Gold.Chemscore.Internal_Hbond.Weighted>
0.0000

> <Gold.Chemscore.DEClash.Weighted>
0.0485

> <Gold.Chemscore.DEInternal.Weighted>
0.8558

> <Gold.Chemscore.Rot.Weighted>
2.5600

> <Gold.Chemscore.Internal.Correction.Weighted>
   9.000000E+99

> <Gold.Protein.RotatedTorsions>
[ 6907 6896 6895 6894 ] final  -28.26 input  -60.11 | X-H torsion
[ 7974 7965 7964 7962 ] final  154.96 input  175.53 | X-H torsion
[ 8008 7997 7996 7995 ] final -119.96 input   59.86 | X-H torsion
[ 10167 10162 10161 10158 ] final  -95.11 input  -65.29 | X-H torsion
[ 10718 10713 10712 10709 ] final   11.98 input   66.30 | X-H torsion
[ 10763 10752 10751 10750 ] final  132.52 input  -60.55 | X-H torsion
[ 11005 11000 10999 10996 ] final   99.37 input  -57.11 | X-H torsion

> <Gold.Protein.ActiveResidues>
 VAL166  LYS551  ARG553  GLY616  TRP617  ASP618  TYR619  PRO620  LYS621  CYS622 
 ASP623  PHE694  ASN695  SER759  ASP760  ASP761  ALA762  ILE779  LEU786  VAL792 
 PHE793  MET794  SER795  GLU796  ALA797  LYS798  CYS799  TRP800  GLU811  SER814 

> <Gold.Protein.RotatedAtoms>
  151.1354  135.0152  159.8601 H   0  0  0  0  0  0  0  0  0  0  0  0  # atno 6907 bound_to 6896
  152.5452  134.1561  159.8549 H   0  0  0  0  0  0  0  0  0  0  0  0  # atno 6908 bound_to 6896
  151.1632  133.4786  159.2627 H   0  0  0  0  0  0  0  0  0  0  0  0  # atno 6909 bound_to 6896
  144.8055  139.7004  143.6164 H   0  0  0  0  0  0  0  0  0  0  0  0  # atno 7974 bound_to 7965
  155.1241  140.0399  157.2758 H   0  0  0  0  0  0  0  0  0  0  0  0  # atno 8008 bound_to 7997
  154.6591  140.2587  155.7103 H   0  0  0  0  0  0  0  0  0  0  0  0  # atno 8009 bound_to 7997
  156.2611  140.2820  156.1056 H   0  0  0  0  0  0  0  0  0  0  0  0  # atno 8010 bound_to 7997
  140.3075  143.3125  152.0184 H   0  0  0  0  0  0  0  0  0  0  0  0  # atno 10167 bound_to 10162
  157.0035  130.6089  149.5699 H   0  0  0  0  0  0  0  0  0  0  0  0  # atno 10718 bound_to 10713
  153.7921  135.3153  155.3380 H   0  0  0  0  0  0  0  0  0  0  0  0  # atno 10763 bound_to 10752
  154.8122  135.4660  154.0549 H   0  0  0  0  0  0  0  0  0  0  0  0  # atno 10764 bound_to 10752
  153.1870  135.6902  153.8489 H   0  0  0  0  0  0  0  0  0  0  0  0  # atno 10765 bound_to 10752
  139.8771  134.9092  156.4596 H   0  0  0  0  0  0  0  0  0  0  0  0  # atno 11005 bound_to 11000
  146.2345  139.5879  142.9533 LP  0  0  0  0  0  0  0  0  0  0  0  0  # atno 17320 bound_to 7965
  145.5448  141.0418  143.2310 LP  0  0  0  0  0  0  0  0  0  0  0  0  # atno 17321 bound_to 7965
  139.4901  144.6410  151.6877 LP  0  0  0  0  0  0  0  0  0  0  0  0  # atno 17342 bound_to 10162
  140.5597  144.0288  150.6164 LP  0  0  0  0  0  0  0  0  0  0  0  0  # atno 17343 bound_to 10162
  156.0162  130.5256  150.8142 LP  0  0  0  0  0  0  0  0  0  0  0  0  # atno 17370 bound_to 10713
  157.5373  131.0939  150.9875 LP  0  0  0  0  0  0  0  0  0  0  0  0  # atno 17371 bound_to 10713
  140.8873  133.7874  155.9533 LP  0  0  0  0  0  0  0  0  0  0  0  0  # atno 17394 bound_to 11000
  140.8791  134.2634  157.5153 LP  0  0  0  0  0  0  0  0  0  0  0  0  # atno 17395 bound_to 11000

$$$$
