AV-unprocessed.smi:1084|AV-procd|sdf|4717|dock4
  -GOLD-   22720 3243D 1   1.00000     0.00000
 Structure written by MMmdl.
 52 54  0  0  0  0  0  0  0  0  1 V2000
  143.5475  136.0339  152.2031 C   0  0  0  0  0  0  0  0  0  0  0  0
  144.9052  135.2943  152.0905 C   0  0  1  0  0  0  0  0  0  0  0  0
  145.6361  135.3765  153.4627 C   0  0  0  0  0  0  0  0  0  0  0  0
  146.8264  136.2229  153.4388 N   0  0  0  0  0  0  0  0  0  0  0  0
  147.1947  137.0607  154.4183 C   0  0  0  0  0  0  0  0  0  0  0  0
  146.5564  137.2086  155.4600 O   0  0  0  0  0  0  0  0  0  0  0  0
  148.3466  137.6838  154.1162 N   0  0  0  0  0  0  0  0  0  0  0  0
  149.0543  138.6525  154.8779 C   0  0  0  0  0  0  0  0  0  0  0  0
  148.6700  138.8514  156.2173 C   0  0  0  0  0  0  0  0  0  0  0  0
  149.3642  139.7901  157.0036 C   0  0  0  0  0  0  0  0  0  0  0  0
  150.4453  140.5083  156.4323 C   0  0  0  0  0  0  0  0  0  0  0  0
  151.1787  141.4731  157.1617 N   0  0  0  0  0  0  0  0  0  0  0  0
  151.7427  141.0431  158.4419 C   0  0  0  0  0  0  0  0  0  0  0  0
  152.7873  142.0548  158.9428 C   0  0  0  0  0  0  0  0  0  0  0  0
  152.2135  143.3559  158.9937 O   0  0  0  0  0  0  0  0  0  0  0  0
  151.8055  143.7977  157.7043 C   0  0  0  0  0  0  0  0  0  0  0  0
  150.7191  142.8601  157.1504 C   0  0  0  0  0  0  0  0  0  0  0  0
  150.8202  140.3027  155.1463 N   0  0  0  0  0  0  0  0  0  0  0  0
  150.1506  139.4038  154.3945 C   0  0  0  0  0  0  0  0  0  0  0  0
  144.7632  133.9087  151.5851 N   0  0  0  0  0  0  0  0  0  0  0  0
  144.1089  133.8527  150.2725 C   0  0  0  0  0  0  0  0  0  0  0  0
  143.9830  132.4197  149.7269 C   0  0  0  0  0  0  0  0  0  0  0  0
  145.2691  131.8206  149.6547 O   0  0  0  0  0  0  0  0  0  0  0  0
  145.9102  131.7823  150.9218 C   0  0  0  0  0  0  0  0  0  0  0  0
  146.0496  133.2104  151.4775 C   0  0  0  0  0  0  0  0  0  0  0  0
  143.6513  137.0343  152.6211 H   0  0  0  0  0  0  0  0  0  0  0  0
  142.8511  135.4847  152.8373 H   0  0  0  0  0  0  0  0  0  0  0  0
  143.0759  136.1818  151.2326 H   0  0  0  0  0  0  0  0  0  0  0  0
  145.5089  135.8494  151.3708 H   0  0  0  0  0  0  0  0  0  0  0  0
  144.9573  135.7684  154.2206 H   0  0  0  0  0  0  0  0  0  0  0  0
  145.9575  134.3975  153.8156 H   0  0  0  0  0  0  0  0  0  0  0  0
  147.4133  136.1586  152.6199 H   0  0  0  0  0  0  0  0  0  0  0  0
  148.7967  137.3943  153.2603 H   0  0  0  0  0  0  0  0  0  0  0  0
  147.8483  138.2936  156.6424 H   0  0  0  0  0  0  0  0  0  0  0  0
  149.0566  139.9289  158.0287 H   0  0  0  0  0  0  0  0  0  0  0  0
  150.9338  140.9509  159.1676 H   0  0  0  0  0  0  0  0  0  0  0  0
  152.2176  140.0650  158.3669 H   0  0  0  0  0  0  0  0  0  0  0  0
  153.1278  141.7778  159.9405 H   0  0  0  0  0  0  0  0  0  0  0  0
  153.6668  142.0577  158.2969 H   0  0  0  0  0  0  0  0  0  0  0  0
  151.4183  144.8135  157.7829 H   0  0  0  0  0  0  0  0  0  0  0  0
  152.6644  143.8366  157.0325 H   0  0  0  0  0  0  0  0  0  0  0  0
  150.4777  143.1731  156.1343 H   0  0  0  0  0  0  0  0  0  0  0  0
  149.8104  142.9431  157.7479 H   0  0  0  0  0  0  0  0  0  0  0  0
  150.5311  139.2831  153.3925 H   0  0  0  0  0  0  0  0  0  0  0  0
  143.1013  134.2608  150.3277 H   0  0  0  0  0  0  0  0  0  0  0  0
  144.6609  134.4647  149.5576 H   0  0  0  0  0  0  0  0  0  0  0  0
  143.3278  131.8205  150.3610 H   0  0  0  0  0  0  0  0  0  0  0  0
  143.5400  132.4314  148.7309 H   0  0  0  0  0  0  0  0  0  0  0  0
  145.3400  131.1547  151.6086 H   0  0  0  0  0  0  0  0  0  0  0  0
  146.8923  131.3228  150.8096 H   0  0  0  0  0  0  0  0  0  0  0  0
  146.7290  133.7819  150.8432 H   0  0  0  0  0  0  0  0  0  0  0  0
  146.5246  133.1214  152.4521 H   0  0  0  0  0  0  0  0  0  0  0  0
  1  2  1  0  0  0  0
  1 26  1  0  0  0  0
  1 27  1  0  0  0  0
  1 28  1  0  0  0  0
  2  3  1  0  0  0  0
  2 20  1  0  0  0  0
  2 29  1  0  0  0  0
  3  4  1  0  0  0  0
  3 30  1  0  0  0  0
  3 31  1  0  0  0  0
  4  5  1  0  0  0  0
  4 32  1  0  0  0  0
  5  6  2  0  0  0  0
  5  7  1  0  0  0  0
  7  8  1  0  0  0  0
  7 33  1  0  0  0  0
  8 19  1  0  0  0  0
  8  9  2  0  0  0  0
  9 10  1  0  0  0  0
  9 34  1  0  0  0  0
 10 11  2  0  0  0  0
 10 35  1  0  0  0  0
 11 12  1  0  0  0  0
 11 18  1  0  0  0  0
 12 17  1  0  0  0  0
 12 13  1  0  0  0  0
 13 14  1  0  0  0  0
 13 36  1  0  0  0  0
 13 37  1  0  0  0  0
 14 15  1  0  0  0  0
 14 38  1  0  0  0  0
 14 39  1  0  0  0  0
 15 16  1  0  0  0  0
 16 17  1  0  0  0  0
 16 40  1  0  0  0  0
 16 41  1  0  0  0  0
 17 42  1  0  0  0  0
 17 43  1  0  0  0  0
 18 19  2  0  0  0  0
 19 44  1  0  0  0  0
 20 25  1  0  0  0  0
 20 21  1  0  0  0  0
 21 22  1  0  0  0  0
 21 45  1  0  0  0  0
 21 46  1  0  0  0  0
 22 23  1  0  0  0  0
 22 47  1  0  0  0  0
 22 48  1  0  0  0  0
 23 24  1  0  0  0  0
 24 25  1  0  0  0  0
 24 49  1  0  0  0  0
 24 50  1  0  0  0  0
 25 51  1  0  0  0  0
 25 52  1  0  0  0  0
M  END
> <s_m_source_file>
AV-unprocessed.smi

> <i_m_source_file_index>
1084

> <i_lp_mmshare_version>
43012

> <i_f3d_flags>
0

> <s_epik_input>
W0NIMl0xW0NIMl1PW0NIMl1bQ0gyXU4xW0NASF0oW0NIM10pW0NIMl1bTkhdQyg9TylbTkhdYzJbY0hdW2NIXWMobltjSF0yKU4zW0NIMl1bQ0gyXU9bQ0gyXVtDSDJdMw==

> <s_epik_cmdline>
J2VwaWtfcHl0aG9uJywgJy1waCcsICc3LjAnLCAnLXRuJywgJzgnLCAnLW1hJywgJzIwMCcsICctbWV0YWxfYmluZGluZycsICctaW1hZScsICc8aW5maWxlLm1hZT4nLCAnLW9tYWUnLCAnPG91dGZpbGUubWFlPic=

> <r_lp_tautomer_probability>
1

> <r_epik_Ionization_Penalty>
0.268053

> <r_epik_Ionization_Penalty_Charging>
0

> <r_epik_Ionization_Penalty_Neutral>
0.268053

> <r_epik_State_Penalty>
0.269834

> <r_epik_Charging_Adjusted_Penalty>
0.269834

> <i_epik_Tot_Q>
0

> <i_epik_Tot_abs_Q>
0

> <r_epik_Metal_State_Penalty>
0.268436

> <b_epik_Metal_Only>
0

> <s_lp_Force_Field>
OPLS_2005

> <r_lp_Energy>
45.5603

> <b_lp_Chiralities_Consistent>
1

> <s_lp_Variant>
AV-unprocessed.smi:1084-2

> <Gold.Version>
5.8.1

> <Gold.Id.Protein>
6NUR|6NUR_protein|mol2

> <Gold.PLP.Fitness>
43.2867

> <Gold.PLP.PLP>
-35.3441

> <Gold.PLP.part.hbond>
-3.0284

> <Gold.PLP.part.metal>
0.0000

> <Gold.PLP.part.buried>
-5.1505

> <Gold.PLP.part.nonpolar>
-27.8259

> <Gold.PLP.part.repulsive>
0.3652

> <Gold.PLP.ligand.clash>
0.0000

> <Gold.PLP.ligand.torsion>
1.3208

> <Gold.PLP.Chemscore.Hbond>
2.3500

> <Gold.PLP.Chemscore.CHOScore>
1.0000

> <Gold.PLP.Chemscore.Metal>
0.0000

> <Gold.Chemscore.Hbonds>
donor molecule, donor type, donor heavy atom, donor atom, acceptor molecule, acceptor atom, score
      L1  H     4    32       P1  7948  1.00
      L1  H     7    33       P1  7948  1.00
      P1  H  7989  7998       L1    18  0.30
      L1  C    19    44       P1  7957  1.00

> <Gold.PLP.Chemscore.Internal.Correction>
0.5342

> <Gold.Rescore>
     Score         DG    S(hbond)    S(metal)    S(lipo)     H(rot)  DE(clash)    DE(int)     intcor
     16.35     -19.25       1.93        0.00      98.06       1.62       0.17       2.74       ----

> <Gold.Chemscore.Fitness>
16.3513

> <Gold.Chemscore.DG>
-19.2526

> <Gold.Chemscore.ZeroCoef>
-5.4800

> <Gold.Chemscore.Hbond>
1.9312

> <Gold.Chemscore.Metal>
0.0000

> <Gold.Chemscore.Lipo>
98.0570

> <Gold.Chemscore.Internal_Hbond>
0.0000

> <Gold.Chemscore.DEClash>
0.1662

> <Gold.Chemscore.DEInternal>
2.7351

> <Gold.Chemscore.Rot>
1.6211

> <Gold.Chemscore.Internal.Correction>
   9.000000E+99

> <Gold.Chemscore.Hbonds>
donor molecule, donor type, donor heavy atom, donor atom, acceptor molecule, acceptor atom, score
      L1  H     4    32       P1  7948  0.96
      L1  H     7    33       P1  7948  0.96

> <Gold.Chemscore.Hbond.Weighted>
-6.4500

> <Gold.Chemscore.Metal.Weighted>
-0.0000

> <Gold.Chemscore.Lipo.Weighted>
-11.4727

> <Gold.Chemscore.Internal_Hbond.Weighted>
0.0000

> <Gold.Chemscore.DEClash.Weighted>
0.1662

> <Gold.Chemscore.DEInternal.Weighted>
2.7351

> <Gold.Chemscore.Rot.Weighted>
4.1501

> <Gold.Chemscore.Internal.Correction.Weighted>
   9.000000E+99

> <Gold.Protein.RotatedTorsions>
[ 6907 6896 6895 6894 ] final  153.19 input  -60.11 | X-H torsion
[ 7974 7965 7964 7962 ] final  -25.08 input  175.53 | X-H torsion
[ 8008 7997 7996 7995 ] final  -65.86 input   59.86 | X-H torsion
[ 10167 10162 10161 10158 ] final -166.49 input  -65.29 | X-H torsion
[ 10718 10713 10712 10709 ] final   29.19 input   66.30 | X-H torsion
[ 10763 10752 10751 10750 ] final   -8.98 input  -60.55 | X-H torsion
[ 11005 11000 10999 10996 ] final -119.62 input  -57.11 | X-H torsion

> <Gold.Protein.ActiveResidues>
 VAL166  LYS551  ARG553  GLY616  TRP617  ASP618  TYR619  PRO620  LYS621  CYS622 
 ASP623  PHE694  ASN695  SER759  ASP760  ASP761  ALA762  ILE779  LEU786  VAL792 
 PHE793  MET794  SER795  GLU796  ALA797  LYS798  CYS799  TRP800  GLU811  SER814 

> <Gold.Protein.RotatedAtoms>
  152.0762  133.4130  159.4480 H   0  0  0  0  0  0  0  0  0  0  0  0  # atno 6907 bound_to 6896
  150.6863  134.3035  159.4725 H   0  0  0  0  0  0  0  0  0  0  0  0  # atno 6908 bound_to 6896
  152.0872  134.9431  160.0623 H   0  0  0  0  0  0  0  0  0  0  0  0  # atno 6909 bound_to 6896
  146.1514  140.4838  142.8610 H   0  0  0  0  0  0  0  0  0  0  0  0  # atno 7974 bound_to 7965
  154.4698  140.0924  156.7115 H   0  0  0  0  0  0  0  0  0  0  0  0  # atno 8008 bound_to 7997
  155.4755  140.3466  155.4314 H   0  0  0  0  0  0  0  0  0  0  0  0  # atno 8009 bound_to 7997
  156.1020  140.1424  156.9444 H   0  0  0  0  0  0  0  0  0  0  0  0  # atno 8010 bound_to 7997
  139.6111  144.0812  152.1843 H   0  0  0  0  0  0  0  0  0  0  0  0  # atno 10167 bound_to 10162
  157.2433  130.7080  149.6369 H   0  0  0  0  0  0  0  0  0  0  0  0  # atno 10718 bound_to 10713
  153.4482  135.7014  153.6126 H   0  0  0  0  0  0  0  0  0  0  0  0  # atno 10763 bound_to 10752
  153.4472  135.3766  155.2263 H   0  0  0  0  0  0  0  0  0  0  0  0  # atno 10764 bound_to 10752
  154.8728  135.3988  154.3890 H   0  0  0  0  0  0  0  0  0  0  0  0  # atno 10765 bound_to 10752
  141.0203  134.0135  157.3292 H   0  0  0  0  0  0  0  0  0  0  0  0  # atno 11005 bound_to 11000
  144.7909  140.6029  143.6542 LP  0  0  0  0  0  0  0  0  0  0  0  0  # atno 17320 bound_to 7965
  145.4814  139.1495  143.3760 LP  0  0  0  0  0  0  0  0  0  0  0  0  # atno 17321 bound_to 7965
  140.0431  144.5991  150.7395 LP  0  0  0  0  0  0  0  0  0  0  0  0  # atno 17342 bound_to 10162
  140.7320  143.2700  151.3919 LP  0  0  0  0  0  0  0  0  0  0  0  0  # atno 17343 bound_to 10162
  155.9669  130.4451  150.5487 LP  0  0  0  0  0  0  0  0  0  0  0  0  # atno 17370 bound_to 10713
  157.3355  131.0707  151.1828 LP  0  0  0  0  0  0  0  0  0  0  0  0  # atno 17371 bound_to 10713
  139.9142  135.0194  156.7813 LP  0  0  0  0  0  0  0  0  0  0  0  0  # atno 17394 bound_to 11000
  140.6585  133.9667  155.7792 LP  0  0  0  0  0  0  0  0  0  0  0  0  # atno 17395 bound_to 11000

$$$$
