AV-unprocessed.smi:109|AV-procd|sdf|1035|dock10
  -GOLD-   2262018 53D 1   1.00000     0.00000
 Structure written by MMmdl.
 58 61  0  0  0  0  0  0  0  0  1 V2000
  150.0352  140.3875  153.9597 O   0  0  0  0  0  0  0  0  0  0  0  0
  149.5966  141.5134  154.6891 C   0  0  0  0  0  0  0  0  0  0  0  0
  149.6451  141.2097  156.1961 C   0  0  0  0  0  0  0  0  0  0  0  0
  151.0742  141.1464  156.7904 C   0  0  2  0  0  0  0  0  0  0  0  0
  151.3858  139.7668  157.1709 N   0  0  0  0  0  0  0  0  0  0  0  0
  151.1397  138.7185  156.3532 C   0  0  0  0  0  0  0  0  0  0  0  0
  151.5882  138.6955  155.0718 N   0  0  0  0  0  0  0  0  0  0  0  0
  151.3238  137.6454  154.2900 C   0  0  0  0  0  0  0  0  0  0  0  0
  150.6411  136.5376  154.5854 N   0  0  0  0  0  0  0  0  0  0  0  0
  150.1819  136.5526  155.8717 C   0  0  0  0  0  0  0  0  0  0  0  0
  150.3963  137.6002  156.8115 C   0  0  0  0  0  0  0  0  0  0  0  0
  149.8116  137.2715  158.0257 N   0  0  0  0  0  0  0  0  0  0  0  0
  149.2928  136.0926  157.8155 C   0  0  0  0  0  0  0  0  0  0  0  0
  149.4334  135.5958  156.5357 N   0  0  0  0  0  0  0  0  0  0  0  0
  148.9716  134.2608  156.0127 C   0  0  2  0  0  0  0  0  0  0  0  0
  149.5184  133.2505  156.8030 O   0  0  0  0  0  0  0  0  0  0  0  0
  150.7649  132.8512  156.2498 C   0  0  1  0  0  0  0  0  0  0  0  0
  151.2599  131.5365  156.8754 C   0  0  0  0  0  0  0  0  0  0  0  0
  151.2450  131.6433  158.2828 O   0  0  0  0  0  0  0  0  0  0  0  0
  150.4225  132.7985  154.7562 C   0  0  1  0  0  0  0  0  0  0  0  0
  149.7795  131.5760  154.4297 O   0  0  0  0  0  0  0  0  0  0  0  0
  149.5086  134.0153  154.5844 C   0  0  1  0  0  0  0  0  0  0  0  0
  148.4811  133.8077  153.6339 O   0  0  0  0  0  0  0  0  0  0  0  0
  151.2733  142.0753  158.0236 C   0  0  0  0  0  0  0  0  0  0  0  0
  151.1773  143.5834  157.6795 C   0  0  0  0  0  0  0  0  0  0  0  0
  151.4075  144.4815  158.9065 C   0  0  0  0  0  0  0  0  0  0  0  0
  152.7530  144.1837  159.5783 C   0  0  0  0  0  0  0  0  0  0  0  0
  152.8548  142.6991  159.9470 C   0  0  0  0  0  0  0  0  0  0  0  0
  152.6339  141.8051  158.7170 C   0  0  0  0  0  0  0  0  0  0  0  0
  147.8847  134.2969  156.0968 H   0  0  0  0  0  0  0  0  0  0  0  0
  151.5018  133.6417  156.4100 H   0  0  0  0  0  0  0  0  0  0  0  0
  151.3184  132.8815  154.1400 H   0  0  0  0  0  0  0  0  0  0  0  0
  150.1149  134.8603  154.2583 H   0  0  0  0  0  0  0  0  0  0  0  0
  149.4632  140.2697  153.2168 H   0  0  0  0  0  0  0  0  0  0  0  0
  150.2339  142.3601  154.4342 H   0  0  0  0  0  0  0  0  0  0  0  0
  148.5808  141.7606  154.3796 H   0  0  0  0  0  0  0  0  0  0  0  0
  149.0741  141.9949  156.6882 H   0  0  0  0  0  0  0  0  0  0  0  0
  149.1215  140.2748  156.4001 H   0  0  0  0  0  0  0  0  0  0  0  0
  151.7680  141.4958  156.0257 H   0  0  0  0  0  0  0  0  0  0  0  0
  151.8932  139.6649  158.0380 H   0  0  0  0  0  0  0  0  0  0  0  0
  151.7130  137.7012  153.2842 H   0  0  0  0  0  0  0  0  0  0  0  0
  148.7847  135.5500  158.5998 H   0  0  0  0  0  0  0  0  0  0  0  0
  150.6556  130.6875  156.5544 H   0  0  0  0  0  0  0  0  0  0  0  0
  152.2889  131.3397  156.5729 H   0  0  0  0  0  0  0  0  0  0  0  0
  151.4050  130.7863  158.6486 H   0  0  0  0  0  0  0  0  0  0  0  0
  150.0955  131.2888  153.5863 H   0  0  0  0  0  0  0  0  0  0  0  0
  148.4883  134.5326  153.0272 H   0  0  0  0  0  0  0  0  0  0  0  0
  150.4822  141.8516  158.7415 H   0  0  0  0  0  0  0  0  0  0  0  0
  151.9025  143.8314  156.9031 H   0  0  0  0  0  0  0  0  0  0  0  0
  150.1958  143.8305  157.2791 H   0  0  0  0  0  0  0  0  0  0  0  0
  151.3653  145.5304  158.6115 H   0  0  0  0  0  0  0  0  0  0  0  0
  150.6001  144.3305  159.6243 H   0  0  0  0  0  0  0  0  0  0  0  0
  153.5680  144.4530  158.9054 H   0  0  0  0  0  0  0  0  0  0  0  0
  152.8695  144.7990  160.4709 H   0  0  0  0  0  0  0  0  0  0  0  0
  153.8316  142.4926  160.3854 H   0  0  0  0  0  0  0  0  0  0  0  0
  152.1146  142.4584  160.7114 H   0  0  0  0  0  0  0  0  0  0  0  0
  152.7079  140.7653  159.0359 H   0  0  0  0  0  0  0  0  0  0  0  0
  153.4450  141.9628  158.0049 H   0  0  0  0  0  0  0  0  0  0  0  0
  1  2  1  0  0  0  0
  1 34  1  0  0  0  0
  2  3  1  0  0  0  0
  2 35  1  0  0  0  0
  2 36  1  0  0  0  0
  3  4  1  0  0  0  0
  3 37  1  0  0  0  0
  3 38  1  0  0  0  0
  4  5  1  0  0  0  0
  4 24  1  0  0  0  0
  4 39  1  0  0  0  0
  5  6  1  0  0  0  0
  5 40  1  0  0  0  0
  6 11  1  0  0  0  0
  6  7  2  0  0  0  0
  7  8  1  0  0  0  0
  8  9  2  0  0  0  0
  8 41  1  0  0  0  0
  9 10  1  0  0  0  0
 10 14  1  0  0  0  0
 10 11  2  0  0  0  0
 11 12  1  0  0  0  0
 12 13  2  0  0  0  0
 13 14  1  0  0  0  0
 13 42  1  0  0  0  0
 14 15  1  0  0  0  0
 15 30  1  0  0  0  0
 15 22  1  0  0  0  0
 15 16  1  0  0  0  0
 16 17  1  0  0  0  0
 17 31  1  0  0  0  0
 17 18  1  0  0  0  0
 17 20  1  0  0  0  0
 18 19  1  0  0  0  0
 18 43  1  0  0  0  0
 18 44  1  0  0  0  0
 19 45  1  0  0  0  0
 20 32  1  0  0  0  0
 20 21  1  0  0  0  0
 20 22  1  0  0  0  0
 21 46  1  0  0  0  0
 22 33  1  0  0  0  0
 22 23  1  0  0  0  0
 23 47  1  0  0  0  0
 24 29  1  0  0  0  0
 24 25  1  0  0  0  0
 24 48  1  0  0  0  0
 25 26  1  0  0  0  0
 25 49  1  0  0  0  0
 25 50  1  0  0  0  0
 26 27  1  0  0  0  0
 26 51  1  0  0  0  0
 26 52  1  0  0  0  0
 27 28  1  0  0  0  0
 27 53  1  0  0  0  0
 27 54  1  0  0  0  0
 28 29  1  0  0  0  0
 28 55  1  0  0  0  0
 28 56  1  0  0  0  0
 29 57  1  0  0  0  0
 29 58  1  0  0  0  0
M  END
> <s_m_source_file>
AV-unprocessed.smi

> <i_m_source_file_index>
109

> <i_lp_mmshare_version>
43012

> <i_f3d_flags>
0

> <s_epik_input>
W0NIMl0xW0NIMl1bQ0gyXVtDSDJdW0NIMl1bQ0hdMVtDQEhdKFtDSDJdW0NIMl1bT0hdKVtOSF1jKG5bY0hdbjIpYyhjMjMpbltjSF1uM1tDQEBIXTRPW0NASF0oW0NIMl1bT0hdKVtDQEBIXShbT0hdKVtDQEhdNFtPSF0=

> <s_epik_cmdline>
J2VwaWtfcHl0aG9uJywgJy1waCcsICc3LjAnLCAnLXRuJywgJzgnLCAnLW1hJywgJzIwMCcsICctbWV0YWxfYmluZGluZycsICctaW1hZScsICc8aW5maWxlLm1hZT4nLCAnLW9tYWUnLCAnPG91dGZpbGUubWFlPic=

> <r_lp_tautomer_probability>
1

> <r_epik_Ionization_Penalty>
0.000793976

> <r_epik_Ionization_Penalty_Charging>
0

> <r_epik_Ionization_Penalty_Neutral>
0.000793976

> <r_epik_State_Penalty>
-0

> <r_epik_Charging_Adjusted_Penalty>
0

> <i_epik_Tot_Q>
0

> <i_epik_Tot_abs_Q>
0

> <r_epik_Metal_State_Penalty>
-0

> <b_epik_Metal_Only>
0

> <s_epik_Chemistry_Notes>
This compound contains an acetal/aminal-like group ( X-CH(R)-Y where X, Y are N, S, or O) that may be acid/base labile, releasing an aldehyde.

> <s_lp_Force_Field>
OPLS_2005

> <r_lp_Energy>
57.9127

> <b_lp_Chiralities_Consistent>
1

> <s_lp_Variant>
AV-unprocessed.smi:109-5

> <Gold.Version>
5.8.1

> <Gold.Id.Protein>
6NUR|6NUR_protein|mol2

> <Gold.PLP.Fitness>
52.5158

> <Gold.PLP.PLP>
-42.1639

> <Gold.PLP.part.hbond>
-3.9580

> <Gold.PLP.part.metal>
0.0000

> <Gold.PLP.part.buried>
-5.5419

> <Gold.PLP.part.nonpolar>
-32.7944

> <Gold.PLP.part.repulsive>
0.3016

> <Gold.PLP.ligand.clash>
0.0000

> <Gold.PLP.ligand.torsion>
1.5328

> <Gold.PLP.Chemscore.Hbond>
3.5386

> <Gold.PLP.Chemscore.CHOScore>
0.9000

> <Gold.PLP.Chemscore.Metal>
0.0000

> <Gold.Chemscore.Hbonds>
donor molecule, donor type, donor heavy atom, donor atom, acceptor molecule, acceptor atom, score
      L1  H     1    34       P1  7957  0.69
      L1  H    23    47       P1  7948  0.91
      P1  H  6896  6909       L1    19  1.00
      P1  H  7989  7998       L1     1  0.77
      L1  C     8    41       P1  7949  0.86

> <Gold.PLP.Chemscore.Internal.Correction>
0.1016

> <Gold.Rescore>
     Score         DG    S(hbond)    S(metal)    S(lipo)     H(rot)  DE(clash)    DE(int)     intcor
      8.12     -12.82       2.58        0.00     108.67       5.47       0.19       4.52       ----

> <Gold.Chemscore.Fitness>
8.1163

> <Gold.Chemscore.DG>
-12.8245

> <Gold.Chemscore.ZeroCoef>
-5.4800

> <Gold.Chemscore.Hbond>
2.5820

> <Gold.Chemscore.Metal>
0.0000

> <Gold.Chemscore.Lipo>
108.6671

> <Gold.Chemscore.Internal_Hbond>
0.0000

> <Gold.Chemscore.DEClash>
0.1903

> <Gold.Chemscore.DEInternal>
4.5179

> <Gold.Chemscore.Rot>
5.4662

> <Gold.Chemscore.Internal.Correction>
   9.000000E+99

> <Gold.Chemscore.Hbonds>
donor molecule, donor type, donor heavy atom, donor atom, acceptor molecule, acceptor atom, score
      L1  H     1    34       P1  7957  0.66
      L1  H    23    47       P1  7948  0.26
      P1  H  6896  6909       L1    19  0.99
      P1  H  7989  7998       L1     1  0.21

> <Gold.Chemscore.Hbond.Weighted>
-8.6239

> <Gold.Chemscore.Metal.Weighted>
-0.0000

> <Gold.Chemscore.Lipo.Weighted>
-12.7141

> <Gold.Chemscore.Internal_Hbond.Weighted>
0.0000

> <Gold.Chemscore.DEClash.Weighted>
0.1903

> <Gold.Chemscore.DEInternal.Weighted>
4.5179

> <Gold.Chemscore.Rot.Weighted>
13.9935

> <Gold.Chemscore.Internal.Correction.Weighted>
   9.000000E+99

> <Gold.Protein.RotatedTorsions>
[ 6907 6896 6895 6894 ] final  -52.94 input  -60.11 | X-H torsion
[ 7974 7965 7964 7962 ] final -160.75 input  175.53 | X-H torsion
[ 8008 7997 7996 7995 ] final   17.46 input   59.86 | X-H torsion
[ 10167 10162 10161 10158 ] final -160.10 input  -65.29 | X-H torsion
[ 10718 10713 10712 10709 ] final    9.56 input   66.30 | X-H torsion
[ 10763 10752 10751 10750 ] final   81.08 input  -60.55 | X-H torsion
[ 11005 11000 10999 10996 ] final   45.43 input  -57.11 | X-H torsion

> <Gold.Protein.ActiveResidues>
 VAL166  LYS551  ARG553  GLY616  TRP617  ASP618  TYR619  PRO620  LYS621  CYS622 
 ASP623  PHE694  ASN695  SER759  ASP760  ASP761  ALA762  ILE779  LEU786  VAL792 
 PHE793  MET794  SER795  GLU796  ALA797  LYS798  CYS799  TRP800  GLU811  SER814 

> <Gold.Protein.RotatedAtoms>
  150.8472  134.7784  159.6979 H   0  0  0  0  0  0  0  0  0  0  0  0  # atno 6907 bound_to 6896
  152.4545  134.5317  159.9823 H   0  0  0  0  0  0  0  0  0  0  0  0  # atno 6908 bound_to 6896
  151.5445  133.3389  159.2977 H   0  0  0  0  0  0  0  0  0  0  0  0  # atno 6909 bound_to 6896
  144.7416  140.3497  143.6118 H   0  0  0  0  0  0  0  0  0  0  0  0  # atno 7974 bound_to 7965
  154.8917  140.2988  155.5367 H   0  0  0  0  0  0  0  0  0  0  0  0  # atno 8008 bound_to 7997
  156.3021  140.2423  156.3868 H   0  0  0  0  0  0  0  0  0  0  0  0  # atno 8009 bound_to 7997
  154.8611  140.0405  157.1655 H   0  0  0  0  0  0  0  0  0  0  0  0  # atno 8010 bound_to 7997
  139.6565  143.9990  152.2197 H   0  0  0  0  0  0  0  0  0  0  0  0  # atno 10167 bound_to 10162
  156.9682  130.5959  149.5667 H   0  0  0  0  0  0  0  0  0  0  0  0  # atno 10718 bound_to 10713
  153.1087  135.4778  154.8997 H   0  0  0  0  0  0  0  0  0  0  0  0  # atno 10763 bound_to 10752
  154.7458  135.3093  154.8650 H   0  0  0  0  0  0  0  0  0  0  0  0  # atno 10764 bound_to 10752
  153.9245  135.6851  153.4800 H   0  0  0  0  0  0  0  0  0  0  0  0  # atno 10765 bound_to 10752
  140.1460  134.4522  155.8415 H   0  0  0  0  0  0  0  0  0  0  0  0  # atno 11005 bound_to 11000
  145.7289  139.1730  143.2442 LP  0  0  0  0  0  0  0  0  0  0  0  0  # atno 17320 bound_to 7965
  146.1221  140.7295  142.9452 LP  0  0  0  0  0  0  0  0  0  0  0  0  # atno 17321 bound_to 7965
  139.9717  144.6489  150.7982 LP  0  0  0  0  0  0  0  0  0  0  0  0  # atno 17342 bound_to 10162
  140.7561  143.3060  151.2962 LP  0  0  0  0  0  0  0  0  0  0  0  0  # atno 17343 bound_to 10162
  156.0294  130.5386  150.8493 LP  0  0  0  0  0  0  0  0  0  0  0  0  # atno 17370 bound_to 10713
  157.5611  131.0946  150.9557 LP  0  0  0  0  0  0  0  0  0  0  0  0  # atno 17371 bound_to 10713
  141.2193  133.6853  156.7335 LP  0  0  0  0  0  0  0  0  0  0  0  0  # atno 17394 bound_to 11000
  140.2663  134.8427  157.3805 LP  0  0  0  0  0  0  0  0  0  0  0  0  # atno 17395 bound_to 11000

$$$$
