AV-unprocessed.smi:67|AV-procd|sdf|634|dock1
  -GOLD-   2262016523D 1   1.00000     0.00000
 Structure written by MMmdl.
 48 50  0  0  0  0  0  0  0  0  2 V2000
  144.8542  139.0633  154.0134 O   0  0  0  0  0  0  0  0  0  0  0  0
  146.2445  138.8398  154.1678 C   0  0  2  0  0  0  0  0  0  0  0  0
  146.5547  139.1027  155.6618 C   0  0  0  0  0  0  0  0  0  0  0  0
  147.9730  139.1074  156.0301 N   0  0  0  0  0  0  0  0  0  0  0  0
  148.1929  138.4414  157.3159 C   0  0  0  0  0  0  0  0  0  0  0  0
  149.6842  138.3141  157.6699 C   0  0  0  0  0  0  0  0  0  0  0  0
  150.3677  139.6980  157.6275 C   0  0  0  0  0  0  0  0  0  0  0  0
  151.7524  139.6941  157.9843 O   0  0  0  0  0  0  0  0  0  0  0  0
  152.3117  140.6062  158.8593 C   0  0  0  0  0  0  0  0  0  0  0  0
  153.2492  140.3131  159.8811 C   0  0  0  0  0  0  0  0  0  0  0  0
  153.7498  141.3368  160.7075 C   0  0  0  0  0  0  0  0  0  0  0  0
  153.3214  142.6648  160.5316 C   0  0  0  0  0  0  0  0  0  0  0  0
  152.3835  142.9755  159.5256 C   0  0  0  0  0  0  0  0  0  0  0  0
  151.9088  144.4052  159.3140 C   0  0  0  0  0  0  0  0  0  0  0  0
  150.6044  144.4216  159.0386 F   0  0  0  0  0  0  0  0  0  0  0  0
  152.1163  145.1558  160.3964 F   0  0  0  0  0  0  0  0  0  0  0  0
  152.5709  144.9404  158.2890 F   0  0  0  0  0  0  0  0  0  0  0  0
  151.8942  141.9438  158.6968 C   0  0  0  0  0  0  0  0  0  0  0  0
  150.0253  140.5004  156.3536 C   0  0  0  0  0  0  0  0  0  0  0  0
  148.5084  140.4725  156.1057 C   0  0  0  0  0  0  0  0  0  0  0  0
  146.9879  139.6792  153.1220 C   0  0  0  0  0  0  0  0  0  0  0  0
  146.8256  138.8671  151.8356 C   0  0  0  0  0  0  0  0  0  0  0  0
  146.7541  137.4529  152.2538 N   0  3  0  0  0  0  0  0  0  0  0  0
  146.5348  137.4001  153.7144 C   0  0  0  0  0  0  0  0  0  0  0  0
  144.7155  139.5706  153.2277 H   0  0  0  0  0  0  0  0  0  0  0  0
  146.0928  140.0388  155.9812 H   0  0  0  0  0  0  0  0  0  0  0  0
  146.0336  138.3285  156.2278 H   0  0  0  0  0  0  0  0  0  0  0  0
  147.6713  138.9821  158.1074 H   0  0  0  0  0  0  0  0  0  0  0  0
  147.7608  137.4402  157.2913 H   0  0  0  0  0  0  0  0  0  0  0  0
  149.7910  137.8822  158.6652 H   0  0  0  0  0  0  0  0  0  0  0  0
  150.1433  137.6043  156.9868 H   0  0  0  0  0  0  0  0  0  0  0  0
  149.9121  140.2605  158.4436 H   0  0  0  0  0  0  0  0  0  0  0  0
  153.6107  139.3161  160.0631 H   0  0  0  0  0  0  0  0  0  0  0  0
  154.4666  141.1015  161.4802 H   0  0  0  0  0  0  0  0  0  0  0  0
  153.7182  143.4388  161.1721 H   0  0  0  0  0  0  0  0  0  0  0  0
  151.1821  142.1811  157.9198 H   0  0  0  0  0  0  0  0  0  0  0  0
  150.3598  141.5318  156.4687 H   0  0  0  0  0  0  0  0  0  0  0  0
  150.5312  140.1203  155.4702 H   0  0  0  0  0  0  0  0  0  0  0  0
  148.2909  141.0269  155.1949 H   0  0  0  0  0  0  0  0  0  0  0  0
  148.0063  141.0179  156.9067 H   0  0  0  0  0  0  0  0  0  0  0  0
  146.6205  140.7026  153.0363 H   0  0  0  0  0  0  0  0  0  0  0  0
  148.0527  139.7211  153.3482 H   0  0  0  0  0  0  0  0  0  0  0  0
  145.8898  139.1288  151.3401 H   0  0  0  0  0  0  0  0  0  0  0  0
  147.6383  139.0353  151.1284 H   0  0  0  0  0  0  0  0  0  0  0  0
  145.9894  137.0005  151.7730 H   0  0  0  0  0  0  0  0  0  0  0  0
  147.4584  137.0380  154.1677 H   0  0  0  0  0  0  0  0  0  0  0  0
  145.7441  136.6968  153.9791 H   0  0  0  0  0  0  0  0  0  0  0  0
  147.6205  136.9833  152.0330 H   0  0  0  0  0  0  0  0  0  0  0  0
  1  2  1  0  0  0  0
  1 25  1  0  0  0  0
  2 24  1  0  0  0  0
  2  3  1  0  0  0  0
  2 21  1  0  0  0  0
  3  4  1  0  0  0  0
  3 26  1  0  0  0  0
  3 27  1  0  0  0  0
  4 20  1  0  0  0  0
  4  5  1  0  0  0  0
  5  6  1  0  0  0  0
  5 28  1  0  0  0  0
  5 29  1  0  0  0  0
  6  7  1  0  0  0  0
  6 30  1  0  0  0  0
  6 31  1  0  0  0  0
  7  8  1  0  0  0  0
  7 19  1  0  0  0  0
  7 32  1  0  0  0  0
  8  9  1  0  0  0  0
  9 18  1  0  0  0  0
  9 10  2  0  0  0  0
 10 11  1  0  0  0  0
 10 33  1  0  0  0  0
 11 12  2  0  0  0  0
 11 34  1  0  0  0  0
 12 13  1  0  0  0  0
 12 35  1  0  0  0  0
 13 14  1  0  0  0  0
 13 18  2  0  0  0  0
 14 15  1  0  0  0  0
 14 16  1  0  0  0  0
 14 17  1  0  0  0  0
 18 36  1  0  0  0  0
 19 20  1  0  0  0  0
 19 37  1  0  0  0  0
 19 38  1  0  0  0  0
 20 39  1  0  0  0  0
 20 40  1  0  0  0  0
 21 22  1  0  0  0  0
 21 41  1  0  0  0  0
 21 42  1  0  0  0  0
 22 23  1  0  0  0  0
 22 43  1  0  0  0  0
 22 44  1  0  0  0  0
 23 24  1  0  0  0  0
 23 45  1  0  0  0  0
 23 48  1  0  0  0  0
 24 46  1  0  0  0  0
 24 47  1  0  0  0  0
M  CHG  1  23   1
M  END
> <s_m_source_file>
AV-unprocessed.smi

> <i_m_source_file_index>
67

> <i_lp_mmshare_version>
43012

> <i_f3d_flags>
0

> <s_epik_input>
W0NIMl0xW05IXVtDSDJdW0NIMl1bQ0BAXTEoW09IXSlbQ0gyXU4yW0NIMl1bQ0gyXVtDSF0oW0NIMl1bQ0gyXTIpT2MzW2NIXVtjSF1bY0hdYyhDKEYpKEYpRilbY0hdMw==

> <s_epik_cmdline>
J2VwaWtfcHl0aG9uJywgJy1waCcsICc3LjAnLCAnLXRuJywgJzgnLCAnLW1hJywgJzIwMCcsICctbWV0YWxfYmluZGluZycsICctaW1hZScsICc8aW5maWxlLm1hZT4nLCAnLW9tYWUnLCAnPG91dGZpbGUubWFlPic=

> <r_lp_tautomer_probability>
1

> <r_epik_Ionization_Penalty>
1.18002

> <r_epik_Ionization_Penalty_Charging>
0.00399663

> <r_epik_Ionization_Penalty_Neutral>
1.17602

> <r_epik_State_Penalty>
1.25421

> <r_epik_Charging_Adjusted_Penalty>
1.25821

> <i_epik_Tot_Q>
1

> <i_epik_Tot_abs_Q>
1

> <r_epik_Metal_State_Penalty>
1.25387

> <b_epik_Metal_Only>
0

> <s_lp_Force_Field>
OPLS_2005

> <r_lp_Energy>
62.5676

> <b_lp_Chiralities_Consistent>
1

> <s_lp_Variant>
AV-unprocessed.smi:67-6

> <Gold.Version>
5.8.1

> <Gold.Id.Protein>
6NUR|6NUR_protein|mol2

> <Gold.PLP.Fitness>
51.7803

> <Gold.PLP.PLP>
-46.5380

> <Gold.PLP.part.hbond>
-1.9205

> <Gold.PLP.part.metal>
0.0000

> <Gold.PLP.part.buried>
-6.5664

> <Gold.PLP.part.nonpolar>
-38.2291

> <Gold.PLP.part.repulsive>
0.0573

> <Gold.PLP.ligand.clash>
0.0000

> <Gold.PLP.ligand.torsion>
2.2401

> <Gold.PLP.Chemscore.Hbond>
2.9760

> <Gold.PLP.Chemscore.CHOScore>
0.0000

> <Gold.PLP.Chemscore.Metal>
0.0000

> <Gold.Chemscore.Hbonds>
donor molecule, donor type, donor heavy atom, donor atom, acceptor molecule, acceptor atom, score
      L1  H     1    25       P1 10175  0.86
      L1  H    23    48       P1  7948  1.95

> <Gold.PLP.Chemscore.Internal.Correction>
0.7944

> <Gold.Rescore>
     Score         DG    S(hbond)    S(metal)    S(lipo)     H(rot)  DE(clash)    DE(int)     intcor
     16.53     -18.79       1.98        0.00     105.10       2.19       0.14       2.12       ----

> <Gold.Chemscore.Fitness>
16.5291

> <Gold.Chemscore.DG>
-18.7854

> <Gold.Chemscore.ZeroCoef>
-5.4800

> <Gold.Chemscore.Hbond>
1.9796

> <Gold.Chemscore.Metal>
0.0000

> <Gold.Chemscore.Lipo>
105.0995

> <Gold.Chemscore.Internal_Hbond>
0.0000

> <Gold.Chemscore.DEClash>
0.1378

> <Gold.Chemscore.DEInternal>
2.1185

> <Gold.Chemscore.Rot>
2.1887

> <Gold.Chemscore.Internal.Correction>
   9.000000E+99

> <Gold.Chemscore.Hbonds>
donor molecule, donor type, donor heavy atom, donor atom, acceptor molecule, acceptor atom, score
      L1  H     1    25       P1 10175  0.82
      L1  H    23    48       P1  7948  0.92

> <Gold.Chemscore.Hbond.Weighted>
-6.6119

> <Gold.Chemscore.Metal.Weighted>
-0.0000

> <Gold.Chemscore.Lipo.Weighted>
-12.2966

> <Gold.Chemscore.Internal_Hbond.Weighted>
0.0000

> <Gold.Chemscore.DEClash.Weighted>
0.1378

> <Gold.Chemscore.DEInternal.Weighted>
2.1185

> <Gold.Chemscore.Rot.Weighted>
5.6032

> <Gold.Chemscore.Internal.Correction.Weighted>
   9.000000E+99

> <Gold.Protein.RotatedTorsions>
[ 6907 6896 6895 6894 ] final  -23.62 input  -60.11 | X-H torsion
[ 7974 7965 7964 7962 ] final   30.56 input  175.53 | X-H torsion
[ 8008 7997 7996 7995 ] final  -28.95 input   59.86 | X-H torsion
[ 10167 10162 10161 10158 ] final -105.44 input  -65.29 | X-H torsion
[ 10718 10713 10712 10709 ] final  -26.15 input   66.30 | X-H torsion
[ 10763 10752 10751 10750 ] final  -93.96 input  -60.55 | X-H torsion
[ 11005 11000 10999 10996 ] final  166.70 input  -57.11 | X-H torsion

> <Gold.Protein.ActiveResidues>
 VAL166  LYS551  ARG553  GLY616  TRP617  ASP618  TYR619  PRO620  LYS621  CYS622 
 ASP623  PHE694  ASN695  SER759  ASP760  ASP761  ALA762  ILE779  LEU786  VAL792 
 PHE793  MET794  SER795  GLU796  ALA797  LYS798  CYS799  TRP800  GLU811  SER814 

> <Gold.Protein.RotatedAtoms>
  151.2013  135.0444  159.8873 H   0  0  0  0  0  0  0  0  0  0  0  0  # atno 6907 bound_to 6896
  152.5432  134.0847  159.8261 H   0  0  0  0  0  0  0  0  0  0  0  0  # atno 6908 bound_to 6896
  151.0988  133.5212  159.2643 H   0  0  0  0  0  0  0  0  0  0  0  0  # atno 6909 bound_to 6896
  146.1604  139.6772  142.9037 H   0  0  0  0  0  0  0  0  0  0  0  0  # atno 7974 bound_to 7965
  154.4310  140.1831  156.1171 H   0  0  0  0  0  0  0  0  0  0  0  0  # atno 8008 bound_to 7997
  156.0172  140.3344  155.6976 H   0  0  0  0  0  0  0  0  0  0  0  0  # atno 8009 bound_to 7997
  155.6027  140.0642  157.2719 H   0  0  0  0  0  0  0  0  0  0  0  0  # atno 8010 bound_to 7997
  140.1985  143.3836  152.1148 H   0  0  0  0  0  0  0  0  0  0  0  0  # atno 10167 bound_to 10162
  156.4549  130.4492  149.6965 H   0  0  0  0  0  0  0  0  0  0  0  0  # atno 10718 bound_to 10713
  154.7010  135.5175  153.8526 H   0  0  0  0  0  0  0  0  0  0  0  0  # atno 10763 bound_to 10752
  153.0704  135.6599  154.0270 H   0  0  0  0  0  0  0  0  0  0  0  0  # atno 10764 bound_to 10752
  154.0129  135.3000  155.3370 H   0  0  0  0  0  0  0  0  0  0  0  0  # atno 10765 bound_to 10752
  140.2692  134.7841  157.3660 H   0  0  0  0  0  0  0  0  0  0  0  0  # atno 11005 bound_to 11000
  145.4603  141.0432  143.2755 LP  0  0  0  0  0  0  0  0  0  0  0  0  # atno 17320 bound_to 7965
  144.8019  139.6124  143.7068 LP  0  0  0  0  0  0  0  0  0  0  0  0  # atno 17321 bound_to 7965
  139.5226  144.7061  151.5348 LP  0  0  0  0  0  0  0  0  0  0  0  0  # atno 17342 bound_to 10162
  140.6406  143.8896  150.6688 LP  0  0  0  0  0  0  0  0  0  0  0  0  # atno 17343 bound_to 10162
  156.3777  130.7563  151.2552 LP  0  0  0  0  0  0  0  0  0  0  0  0  # atno 17370 bound_to 10713
  157.7501  131.0305  150.4139 LP  0  0  0  0  0  0  0  0  0  0  0  0  # atno 17371 bound_to 10713
  140.1390  134.4997  155.8046 LP  0  0  0  0  0  0  0  0  0  0  0  0  # atno 17394 bound_to 11000
  141.2180  133.6818  156.7176 LP  0  0  0  0  0  0  0  0  0  0  0  0  # atno 17395 bound_to 11000

$$$$
