AV-unprocessed.smi:1025|AV-procd|sdf|4467|dock5
  -GOLD-   22720 2443D 1   1.00000     0.00000
 Structure written by MMmdl.
 51 52  0  0  0  0  0  0  0  0  1 V2000
  139.7914  146.8413  151.2281 C   0  0  0  0  0  0  0  0  0  0  0  0
  139.0493  145.5964  151.1014 N   0  0  0  0  0  0  0  0  0  0  0  0
  139.5983  144.3756  151.1857 C   0  0  0  0  0  0  0  0  0  0  0  0
  140.8005  144.1994  151.3827 O   0  0  0  0  0  0  0  0  0  0  0  0
  138.6376  143.1824  151.0213 C   0  0  2  0  0  0  0  0  0  0  0  0
  138.5513  142.3076  152.2936 C   0  0  0  0  0  0  0  0  0  0  0  0
  139.7616  141.3748  152.4857 C   0  0  0  0  0  0  0  0  0  0  0  0
  140.0075  140.5066  151.2366 C   0  0  2  0  0  0  0  0  0  0  0  0
  141.1948  139.6761  151.4134 N   0  0  0  0  0  0  0  0  0  0  0  0
  141.2762  138.3693  151.1268 C   0  0  0  0  0  0  0  0  0  0  0  0
  140.3360  137.7133  150.6803 O   0  0  0  0  0  0  0  0  0  0  0  0
  142.5070  137.8951  151.3838 N   0  0  0  0  0  0  0  0  0  0  0  0
  143.0165  136.5827  151.1887 C   0  0  0  0  0  0  0  0  0  0  0  0
  142.2433  135.4313  150.9043 C   0  0  0  0  0  0  0  0  0  0  0  0
  142.8140  134.2196  150.7343 N   0  0  0  0  0  0  0  0  0  0  0  0
  144.1422  134.1264  150.8799 C   0  0  0  0  0  0  0  0  0  0  0  0
  144.7956  132.7784  150.5274 C   0  0  0  0  0  0  0  0  0  0  0  0
  143.7948  131.6124  150.7042 C   0  0  0  0  0  0  0  0  0  0  0  0
  146.0197  132.5503  151.4333 C   0  0  0  0  0  0  0  0  0  0  0  0
  145.2368  132.7424  149.0452 C   0  0  0  0  0  0  0  0  0  0  0  0
  144.9631  135.1577  151.1169 N   0  0  0  0  0  0  0  0  0  0  0  0
  144.4064  136.3746  151.2899 C   0  0  0  0  0  0  0  0  0  0  0  0
  140.1740  141.3836  149.9832 C   0  0  0  0  0  0  0  0  0  0  0  0
  138.9655  142.3169  149.7820 C   0  0  0  0  0  0  0  0  0  0  0  0
  139.1139  147.6893  151.1286 H   0  0  0  0  0  0  0  0  0  0  0  0
  140.5529  146.9202  150.4511 H   0  0  0  0  0  0  0  0  0  0  0  0
  140.2787  146.9065  152.2019 H   0  0  0  0  0  0  0  0  0  0  0  0
  138.0551  145.6654  150.9393 H   0  0  0  0  0  0  0  0  0  0  0  0
  137.6442  143.6041  150.8586 H   0  0  0  0  0  0  0  0  0  0  0  0
  138.4308  142.9365  153.1768 H   0  0  0  0  0  0  0  0  0  0  0  0
  137.6475  141.6996  152.2391 H   0  0  0  0  0  0  0  0  0  0  0  0
  140.6531  141.9585  152.7159 H   0  0  0  0  0  0  0  0  0  0  0  0
  139.5882  140.7379  153.3538 H   0  0  0  0  0  0  0  0  0  0  0  0
  139.1408  139.8610  151.0814 H   0  0  0  0  0  0  0  0  0  0  0  0
  142.0173  140.1346  151.7772 H   0  0  0  0  0  0  0  0  0  0  0  0
  143.1778  138.5709  151.7192 H   0  0  0  0  0  0  0  0  0  0  0  0
  141.1694  135.4494  150.8110 H   0  0  0  0  0  0  0  0  0  0  0  0
  144.2394  130.6604  150.4120 H   0  0  0  0  0  0  0  0  0  0  0  0
  142.9028  131.7583  150.0936 H   0  0  0  0  0  0  0  0  0  0  0  0
  143.4724  131.5035  151.7402 H   0  0  0  0  0  0  0  0  0  0  0  0
  145.7360  132.5371  152.4862 H   0  0  0  0  0  0  0  0  0  0  0  0
  146.7611  133.3394  151.3029 H   0  0  0  0  0  0  0  0  0  0  0  0
  146.5075  131.6004  151.2125 H   0  0  0  0  0  0  0  0  0  0  0  0
  145.6598  131.7730  148.7800 H   0  0  0  0  0  0  0  0  0  0  0  0
  146.0024  133.4882  148.8283 H   0  0  0  0  0  0  0  0  0  0  0  0
  144.3957  132.9269  148.3758 H   0  0  0  0  0  0  0  0  0  0  0  0
  145.0813  137.1915  151.4996 H   0  0  0  0  0  0  0  0  0  0  0  0
  141.0911  141.9685  150.0553 H   0  0  0  0  0  0  0  0  0  0  0  0
  140.2907  140.7508  149.1024 H   0  0  0  0  0  0  0  0  0  0  0  0
  138.0922  141.7106  149.5379 H   0  0  0  0  0  0  0  0  0  0  0  0
  139.1354  142.9526  148.9120 H   0  0  0  0  0  0  0  0  0  0  0  0
  1  2  1  0  0  0  0
  1 25  1  0  0  0  0
  1 26  1  0  0  0  0
  1 27  1  0  0  0  0
  2  3  1  0  0  0  0
  2 28  1  0  0  0  0
  3  4  2  0  0  0  0
  3  5  1  0  0  0  0
  5 24  1  0  0  0  0
  5  6  1  0  0  0  0
  5 29  1  0  0  0  0
  6  7  1  0  0  0  0
  6 30  1  0  0  0  0
  6 31  1  0  0  0  0
  7  8  1  0  0  0  0
  7 32  1  0  0  0  0
  7 33  1  0  0  0  0
  8  9  1  0  0  0  0
  8 23  1  0  0  0  0
  8 34  1  0  0  0  0
  9 10  1  0  0  0  0
  9 35  1  0  0  0  0
 10 11  2  0  0  0  0
 10 12  1  0  0  0  0
 12 13  1  0  0  0  0
 12 36  1  0  0  0  0
 13 22  1  0  0  0  0
 13 14  2  0  0  0  0
 14 15  1  0  0  0  0
 14 37  1  0  0  0  0
 15 16  2  0  0  0  0
 16 17  1  0  0  0  0
 16 21  1  0  0  0  0
 17 18  1  0  0  0  0
 17 19  1  0  0  0  0
 17 20  1  0  0  0  0
 18 38  1  0  0  0  0
 18 39  1  0  0  0  0
 18 40  1  0  0  0  0
 19 41  1  0  0  0  0
 19 42  1  0  0  0  0
 19 43  1  0  0  0  0
 20 44  1  0  0  0  0
 20 45  1  0  0  0  0
 20 46  1  0  0  0  0
 21 22  2  0  0  0  0
 22 47  1  0  0  0  0
 23 24  1  0  0  0  0
 23 48  1  0  0  0  0
 23 49  1  0  0  0  0
 24 50  1  0  0  0  0
 24 51  1  0  0  0  0
M  END
> <s_m_source_file>
AV-unprocessed.smi

> <i_m_source_file_index>
1025

> <i_lp_mmshare_version>
43012

> <i_f3d_flags>
0

> <s_epik_input>
W0NIM11bTkhdQyg9TylbQ0BASF0xW0NIMl1bQ0gyXVtDQEhdKFtDSDJdW0NIMl0xKVtOSF1DKD1PKVtOSF1jMltjSF1uYyhDKFtDSDNdKShbQ0gzXSlbQ0gzXSluW2NIXTI=

> <s_epik_cmdline>
J2VwaWtfcHl0aG9uJywgJy1waCcsICc3LjAnLCAnLXRuJywgJzgnLCAnLW1hJywgJzIwMCcsICctbWV0YWxfYmluZGluZycsICctaW1hZScsICc8aW5maWxlLm1hZT4nLCAnLW9tYWUnLCAnPG91dGZpbGUubWFlPic=

> <r_lp_tautomer_probability>
1

> <r_epik_Ionization_Penalty>
2.76239e-05

> <r_epik_Ionization_Penalty_Charging>
0

> <r_epik_Ionization_Penalty_Neutral>
2.76239e-05

> <r_epik_State_Penalty>
-0

> <r_epik_Charging_Adjusted_Penalty>
0

> <i_epik_Tot_Q>
0

> <i_epik_Tot_abs_Q>
0

> <r_epik_Metal_State_Penalty>
-0

> <b_epik_Metal_Only>
0

> <s_lp_Force_Field>
OPLS_2005

> <r_lp_Energy>
4.91063

> <b_lp_Chiralities_Consistent>
1

> <s_lp_Variant>
AV-unprocessed.smi:1025-2

> <Gold.Version>
5.8.1

> <Gold.Id.Protein>
6NUR|6NUR_protein|mol2

> <Gold.PLP.Fitness>
40.8662

> <Gold.PLP.PLP>
-31.7617

> <Gold.PLP.part.hbond>
-3.0822

> <Gold.PLP.part.metal>
0.0000

> <Gold.PLP.part.buried>
-2.7147

> <Gold.PLP.part.nonpolar>
-27.6607

> <Gold.PLP.part.repulsive>
0.8109

> <Gold.PLP.ligand.clash>
0.0000

> <Gold.PLP.ligand.torsion>
1.1774

> <Gold.PLP.Chemscore.Hbond>
2.9920

> <Gold.PLP.Chemscore.CHOScore>
0.7658

> <Gold.PLP.Chemscore.Metal>
0.0000

> <Gold.Chemscore.Hbonds>
donor molecule, donor type, donor heavy atom, donor atom, acceptor molecule, acceptor atom, score
      L1  H    12    36       P1 10175  0.98
      L1  C    22    47       P1 10171  0.19

> <Gold.PLP.Chemscore.Internal.Correction>
0.1859

> <Gold.Rescore>
     Score         DG    S(hbond)    S(metal)    S(lipo)     H(rot)  DE(clash)    DE(int)     intcor
     16.61     -19.40       2.81        0.00      71.78       1.52       1.20       1.58       ----

> <Gold.Chemscore.Fitness>
16.6139

> <Gold.Chemscore.DG>
-19.3960

> <Gold.Chemscore.ZeroCoef>
-5.4800

> <Gold.Chemscore.Hbond>
2.8147

> <Gold.Chemscore.Metal>
0.0000

> <Gold.Chemscore.Lipo>
71.7847

> <Gold.Chemscore.Internal_Hbond>
0.0000

> <Gold.Chemscore.DEClash>
1.1977

> <Gold.Chemscore.DEInternal>
1.5844

> <Gold.Chemscore.Rot>
1.5171

> <Gold.Chemscore.Internal.Correction>
   9.000000E+99

> <Gold.Chemscore.Hbonds>
donor molecule, donor type, donor heavy atom, donor atom, acceptor molecule, acceptor atom, score
      L1  H    12    36       P1 10175  0.84

> <Gold.Chemscore.Hbond.Weighted>
-9.4011

> <Gold.Chemscore.Metal.Weighted>
-0.0000

> <Gold.Chemscore.Lipo.Weighted>
-8.3988

> <Gold.Chemscore.Internal_Hbond.Weighted>
0.0000

> <Gold.Chemscore.DEClash.Weighted>
1.1977

> <Gold.Chemscore.DEInternal.Weighted>
1.5844

> <Gold.Chemscore.Rot.Weighted>
3.8839

> <Gold.Chemscore.Internal.Correction.Weighted>
   9.000000E+99

> <Gold.Protein.RotatedTorsions>
[ 6907 6896 6895 6894 ] final  -10.85 input  -60.11 | X-H torsion
[ 7974 7965 7964 7962 ] final  -86.21 input  175.53 | X-H torsion
[ 8008 7997 7996 7995 ] final   91.93 input   59.86 | X-H torsion
[ 10167 10162 10161 10158 ] final -127.55 input  -65.29 | X-H torsion
[ 10718 10713 10712 10709 ] final   21.29 input   66.30 | X-H torsion
[ 10763 10752 10751 10750 ] final  -10.80 input  -60.55 | X-H torsion
[ 11005 11000 10999 10996 ] final  144.73 input  -57.11 | X-H torsion

> <Gold.Protein.ActiveResidues>
 VAL166  LYS551  ARG553  GLY616  TRP617  ASP618  TYR619  PRO620  LYS621  CYS622 
 ASP623  PHE694  ASN695  SER759  ASP760  ASP761  ALA762  ILE779  LEU786  VAL792 
 PHE793  MET794  SER795  GLU796  ALA797  LYS798  CYS799  TRP800  GLU811  SER814 

> <Gold.Protein.RotatedAtoms>
  151.3954  135.0963  159.9539 H   0  0  0  0  0  0  0  0  0  0  0  0  # atno 6907 bound_to 6896
  152.5067  133.8939  159.7418 H   0  0  0  0  0  0  0  0  0  0  0  0  # atno 6908 bound_to 6896
  150.9402  133.6609  159.2821 H   0  0  0  0  0  0  0  0  0  0  0  0  # atno 6909 bound_to 6896
  145.4830  140.9556  143.1854 H   0  0  0  0  0  0  0  0  0  0  0  0  # atno 7974 bound_to 7965
  156.0295  140.3331  155.7124 H   0  0  0  0  0  0  0  0  0  0  0  0  # atno 8008 bound_to 7997
  155.5906  140.0646  157.2777 H   0  0  0  0  0  0  0  0  0  0  0  0  # atno 8009 bound_to 7997
  154.4347  140.1828  156.1058 H   0  0  0  0  0  0  0  0  0  0  0  0  # atno 8010 bound_to 7997
  139.9596  143.5964  152.2449 H   0  0  0  0  0  0  0  0  0  0  0  0  # atno 10167 bound_to 10162
  157.1364  130.6613  149.5967 H   0  0  0  0  0  0  0  0  0  0  0  0  # atno 10718 bound_to 10713
  153.4745  135.7017  153.5974 H   0  0  0  0  0  0  0  0  0  0  0  0  # atno 10763 bound_to 10752
  153.4214  135.3824  155.2113 H   0  0  0  0  0  0  0  0  0  0  0  0  # atno 10764 bound_to 10752
  154.8724  135.3928  154.4187 H   0  0  0  0  0  0  0  0  0  0  0  0  # atno 10765 bound_to 10752
  140.0656  134.9180  157.1258 H   0  0  0  0  0  0  0  0  0  0  0  0  # atno 11005 bound_to 11000
  144.7878  139.6391  143.7126 LP  0  0  0  0  0  0  0  0  0  0  0  0  # atno 17320 bound_to 7965
  146.2330  139.5850  142.9542 LP  0  0  0  0  0  0  0  0  0  0  0  0  # atno 17321 bound_to 7965
  139.6564  144.7662  151.2047 LP  0  0  0  0  0  0  0  0  0  0  0  0  # atno 17342 bound_to 10162
  140.7557  143.6079  150.8635 LP  0  0  0  0  0  0  0  0  0  0  0  0  # atno 17343 bound_to 10162
  155.9797  130.4793  150.6732 LP  0  0  0  0  0  0  0  0  0  0  0  0  # atno 17370 bound_to 10713
  157.4347  131.0853  151.1004 LP  0  0  0  0  0  0  0  0  0  0  0  0  # atno 17371 bound_to 10713
  140.3704  134.2396  155.7178 LP  0  0  0  0  0  0  0  0  0  0  0  0  # atno 17394 bound_to 11000
  141.1991  133.8019  157.0551 LP  0  0  0  0  0  0  0  0  0  0  0  0  # atno 17395 bound_to 11000

$$$$
