AV-unprocessed.smi:241|AV-procd|sdf|1842|dock3
  -GOLD-   2262020453D 1   1.00000     0.00000
 Structure written by MMmdl.
 54 57  0  0  0  0  0  0  0  0  1 V2000
  150.3668  141.0598  155.5982 C   0  0  0  0  0  0  0  0  0  0  0  0
  148.9653  141.2721  155.5525 O   0  0  0  0  0  0  0  0  0  0  0  0
  148.2086  140.0859  155.3573 C   0  0  0  0  0  0  0  0  0  0  0  0
  146.7083  140.4079  155.2148 C   0  0  2  0  0  0  0  0  0  0  0  0
  146.0895  141.1451  156.4017 C   0  0  0  0  0  0  0  0  0  0  0  0
  144.5994  140.9029  156.1815 C   0  0  2  0  0  0  0  0  0  0  0  0
  143.8791  141.0341  157.3982 O   0  0  0  0  0  0  0  0  0  0  0  0
  142.4717  141.0271  157.2228 C   0  0  0  0  0  0  0  0  0  0  0  0
  144.5583  139.4819  155.5990 C   0  0  0  0  0  0  0  0  0  0  0  0
  145.8939  139.2036  155.0792 N   0  0  0  0  0  0  0  0  0  0  0  0
  145.9142  138.6049  153.8682 C   0  0  0  0  0  0  0  0  0  0  0  0
  146.6980  139.0988  152.8735 N   0  0  0  0  0  0  0  0  0  0  0  0
  146.7133  138.4998  151.6786 C   0  0  0  0  0  0  0  0  0  0  0  0
  146.0330  137.4243  151.2746 N   0  0  0  0  0  0  0  0  0  0  0  0
  145.2424  136.9329  152.2722 C   0  0  0  0  0  0  0  0  0  0  0  0
  145.1292  137.4566  153.5898 C   0  0  0  0  0  0  0  0  0  0  0  0
  144.2458  136.6884  154.3364 N   0  0  0  0  0  0  0  0  0  0  0  0
  143.8611  135.7567  153.5068 C   0  0  0  0  0  0  0  0  0  0  0  0
  144.3882  135.8449  152.2369 N   0  0  0  0  0  0  0  0  0  0  0  0
  144.1669  134.9411  151.1466 C   0  0  0  0  0  0  0  0  0  0  0  0
  143.7916  133.4799  151.3987 C   0  0  0  0  0  0  0  0  0  0  0  0
  144.5419  133.0739  150.1088 C   0  0  0  0  0  0  0  0  0  0  0  0
  145.3994  131.7990  150.1901 C   0  0  0  0  0  0  0  0  0  0  0  0
  146.4018  131.7672  149.1949 O   0  0  0  0  0  0  0  0  0  0  0  0
  143.7121  133.0454  148.8079 C   0  0  0  0  0  0  0  0  0  0  0  0
  143.5051  134.3404  148.2829 O   0  0  0  0  0  0  0  0  0  0  0  0
  145.3301  134.3863  150.3202 C   0  0  0  0  0  0  0  0  0  0  0  0
  146.5732  141.0262  154.3258 H   0  0  0  0  0  0  0  0  0  0  0  0
  144.2383  141.6178  155.4395 H   0  0  0  0  0  0  0  0  0  0  0  0
  150.8743  142.0096  155.7663 H   0  0  0  0  0  0  0  0  0  0  0  0
  150.7301  140.6501  154.6548 H   0  0  0  0  0  0  0  0  0  0  0  0
  150.6490  140.3821  156.4031 H   0  0  0  0  0  0  0  0  0  0  0  0
  148.5681  139.6390  154.4300 H   0  0  0  0  0  0  0  0  0  0  0  0
  148.3856  139.3447  156.1389 H   0  0  0  0  0  0  0  0  0  0  0  0
  146.4103  140.6902  157.3403 H   0  0  0  0  0  0  0  0  0  0  0  0
  146.3448  142.2047  156.4275 H   0  0  0  0  0  0  0  0  0  0  0  0
  141.9833  141.1448  158.1898 H   0  0  0  0  0  0  0  0  0  0  0  0
  142.1260  140.0890  156.7872 H   0  0  0  0  0  0  0  0  0  0  0  0
  142.1502  141.8492  156.5826 H   0  0  0  0  0  0  0  0  0  0  0  0
  144.3550  138.7556  156.3865 H   0  0  0  0  0  0  0  0  0  0  0  0
  143.7714  139.3818  154.8498 H   0  0  0  0  0  0  0  0  0  0  0  0
  147.3619  138.9472  150.9398 H   0  0  0  0  0  0  0  0  0  0  0  0
  143.1721  134.9783  153.8009 H   0  0  0  0  0  0  0  0  0  0  0  0
  143.4281  135.4217  150.5032 H   0  0  0  0  0  0  0  0  0  0  0  0
  144.2552  133.0805  152.3029 H   0  0  0  0  0  0  0  0  0  0  0  0
  142.7190  133.2846  151.3952 H   0  0  0  0  0  0  0  0  0  0  0  0
  145.8702  131.7020  151.1690 H   0  0  0  0  0  0  0  0  0  0  0  0
  144.7822  130.9097  150.0586 H   0  0  0  0  0  0  0  0  0  0  0  0
  147.2393  131.6444  149.6154 H   0  0  0  0  0  0  0  0  0  0  0  0
  144.2057  132.4546  148.0360 H   0  0  0  0  0  0  0  0  0  0  0  0
  142.7416  132.5762  148.9717 H   0  0  0  0  0  0  0  0  0  0  0  0
  144.3400  134.6834  148.0008 H   0  0  0  0  0  0  0  0  0  0  0  0
  145.5441  134.9473  149.4098 H   0  0  0  0  0  0  0  0  0  0  0  0
  146.2357  134.2508  150.9146 H   0  0  0  0  0  0  0  0  0  0  0  0
  1  2  1  0  0  0  0
  1 30  1  0  0  0  0
  1 31  1  0  0  0  0
  1 32  1  0  0  0  0
  2  3  1  0  0  0  0
  3  4  1  0  0  0  0
  3 33  1  0  0  0  0
  3 34  1  0  0  0  0
  4 28  1  0  0  0  0
  4 10  1  0  0  0  0
  4  5  1  0  0  0  0
  5  6  1  0  0  0  0
  5 35  1  0  0  0  0
  5 36  1  0  0  0  0
  6 29  1  0  0  0  0
  6  7  1  0  0  0  0
  6  9  1  0  0  0  0
  7  8  1  0  0  0  0
  8 37  1  0  0  0  0
  8 38  1  0  0  0  0
  8 39  1  0  0  0  0
  9 10  1  0  0  0  0
  9 40  1  0  0  0  0
  9 41  1  0  0  0  0
 10 11  1  0  0  0  0
 11 16  1  0  0  0  0
 11 12  2  0  0  0  0
 12 13  1  0  0  0  0
 13 14  2  0  0  0  0
 13 42  1  0  0  0  0
 14 15  1  0  0  0  0
 15 19  1  0  0  0  0
 15 16  2  0  0  0  0
 16 17  1  0  0  0  0
 17 18  2  0  0  0  0
 18 19  1  0  0  0  0
 18 43  1  0  0  0  0
 19 20  1  0  0  0  0
 20 27  1  0  0  0  0
 20 21  1  0  0  0  0
 20 44  1  0  0  0  0
 21 22  1  0  0  0  0
 21 45  1  0  0  0  0
 21 46  1  0  0  0  0
 22 23  1  0  0  0  0
 22 25  1  0  0  0  0
 22 27  1  0  0  0  0
 23 24  1  0  0  0  0
 23 47  1  0  0  0  0
 23 48  1  0  0  0  0
 24 49  1  0  0  0  0
 25 26  1  0  0  0  0
 25 50  1  0  0  0  0
 25 51  1  0  0  0  0
 26 52  1  0  0  0  0
 27 53  1  0  0  0  0
 27 54  1  0  0  0  0
M  END
> <s_m_source_file>
AV-unprocessed.smi

> <i_m_source_file_index>
241

> <i_lp_mmshare_version>
43012

> <i_f3d_flags>
0

> <s_epik_input>
W0NIM11PW0NIMl1bQ0BASF0xW0NIMl1bQ0BASF0oT1tDSDNdKVtDSDJdTjFjKG5bY0hdbjIpYyhjMjMpbltjSF1uM1tDSF0oW0NIMl00KVtDSDJdQzQoW0NIMl1bT0hdKVtDSDJdW09IXQ==

> <s_epik_cmdline>
J2VwaWtfcHl0aG9uJywgJy1waCcsICc3LjAnLCAnLXRuJywgJzgnLCAnLW1hJywgJzIwMCcsICctbWV0YWxfYmluZGluZycsICctaW1hZScsICc8aW5maWxlLm1hZT4nLCAnLW9tYWUnLCAnPG91dGZpbGUubWFlPic=

> <r_lp_tautomer_probability>
1

> <r_epik_Ionization_Penalty>
0.00568677

> <r_epik_Ionization_Penalty_Charging>
0

> <r_epik_Ionization_Penalty_Neutral>
0.00568677

> <r_epik_State_Penalty>
0.00400877

> <r_epik_Charging_Adjusted_Penalty>
0.00400877

> <i_epik_Tot_Q>
0

> <i_epik_Tot_abs_Q>
0

> <r_epik_Metal_State_Penalty>
-0

> <b_epik_Metal_Only>
0

> <s_lp_Force_Field>
OPLS_2005

> <r_lp_Energy>
58.6567

> <b_lp_Chiralities_Consistent>
1

> <s_lp_Variant>
AV-unprocessed.smi:241-3

> <Gold.Version>
5.8.1

> <Gold.Id.Protein>
6NUR|6NUR_protein|mol2

> <Gold.PLP.Fitness>
42.3286

> <Gold.PLP.PLP>
-33.0625

> <Gold.PLP.part.hbond>
-3.9800

> <Gold.PLP.part.metal>
0.0000

> <Gold.PLP.part.buried>
-2.5327

> <Gold.PLP.part.nonpolar>
-29.1434

> <Gold.PLP.part.repulsive>
2.5262

> <Gold.PLP.ligand.clash>
0.5261

> <Gold.PLP.ligand.torsion>
1.4283

> <Gold.PLP.Chemscore.Hbond>
2.9750

> <Gold.PLP.Chemscore.CHOScore>
1.0000

> <Gold.PLP.Chemscore.Metal>
0.0000

> <Gold.Chemscore.Hbonds>
donor molecule, donor type, donor heavy atom, donor atom, acceptor molecule, acceptor atom, score
      L1  H    24    49       P1 10747  1.00
      L1  H    26    52       P1  7921  1.00
      P1  H 10192 10197       L1    26  0.98
      L1  C    13    42       P1  7957  1.00

> <Gold.PLP.Chemscore.Internal.Correction>
0.7238

> <Gold.Rescore>
     Score         DG    S(hbond)    S(metal)    S(lipo)     H(rot)  DE(clash)    DE(int)     intcor
      7.72     -12.28       2.76        0.00      66.26       3.97       2.25       2.30       ----

> <Gold.Chemscore.Fitness>
7.7241

> <Gold.Chemscore.DG>
-12.2772

> <Gold.Chemscore.ZeroCoef>
-5.4800

> <Gold.Chemscore.Hbond>
2.7591

> <Gold.Chemscore.Metal>
0.0000

> <Gold.Chemscore.Lipo>
66.2571

> <Gold.Chemscore.Internal_Hbond>
0.0000

> <Gold.Chemscore.DEClash>
2.2535

> <Gold.Chemscore.DEInternal>
2.2996

> <Gold.Chemscore.Rot>
3.9727

> <Gold.Chemscore.Internal.Correction>
   9.000000E+99

> <Gold.Chemscore.Hbonds>
donor molecule, donor type, donor heavy atom, donor atom, acceptor molecule, acceptor atom, score
      L1  H    24    49       P1 10747  0.97
      L1  H    26    52       P1  7921  1.00
      P1  H 10192 10197       L1    26  0.64

> <Gold.Chemscore.Hbond.Weighted>
-9.2154

> <Gold.Chemscore.Metal.Weighted>
-0.0000

> <Gold.Chemscore.Lipo.Weighted>
-7.7521

> <Gold.Chemscore.Internal_Hbond.Weighted>
0.0000

> <Gold.Chemscore.DEClash.Weighted>
2.2535

> <Gold.Chemscore.DEInternal.Weighted>
2.2996

> <Gold.Chemscore.Rot.Weighted>
10.1702

> <Gold.Chemscore.Internal.Correction.Weighted>
   9.000000E+99

> <Gold.Protein.RotatedTorsions>
[ 6907 6896 6895 6894 ] final -158.33 input  -60.11 | X-H torsion
[ 7974 7965 7964 7962 ] final  175.86 input  175.53 | X-H torsion
[ 8008 7997 7996 7995 ] final   13.15 input   59.86 | X-H torsion
[ 10167 10162 10161 10158 ] final   86.37 input  -65.29 | X-H torsion
[ 10718 10713 10712 10709 ] final  -40.32 input   66.30 | X-H torsion
[ 10763 10752 10751 10750 ] final  -42.53 input  -60.55 | X-H torsion
[ 11005 11000 10999 10996 ] final  155.44 input  -57.11 | X-H torsion

> <Gold.Protein.ActiveResidues>
 VAL166  LYS551  ARG553  GLY616  TRP617  ASP618  TYR619  PRO620  LYS621  CYS622 
 ASP623  PHE694  ASN695  SER759  ASP760  ASP761  ALA762  ILE779  LEU786  VAL792 
 PHE793  MET794  SER795  GLU796  ALA797  LYS798  CYS799  TRP800  GLU811  SER814 

> <Gold.Protein.RotatedAtoms>
  151.3165  133.4058  159.2650 H   0  0  0  0  0  0  0  0  0  0  0  0  # atno 6907 bound_to 6896
  151.0070  134.9368  159.7996 H   0  0  0  0  0  0  0  0  0  0  0  0  # atno 6908 bound_to 6896
  152.5290  134.3130  159.9173 H   0  0  0  0  0  0  0  0  0  0  0  0  # atno 6909 bound_to 6896
  144.7194  140.0010  143.6440 H   0  0  0  0  0  0  0  0  0  0  0  0  # atno 7974 bound_to 7965
  154.8305  140.2898  155.5725 H   0  0  0  0  0  0  0  0  0  0  0  0  # atno 8008 bound_to 7997
  156.3005  140.2533  156.3160 H   0  0  0  0  0  0  0  0  0  0  0  0  # atno 8009 bound_to 7997
  154.9236  140.0385  157.2000 H   0  0  0  0  0  0  0  0  0  0  0  0  # atno 8010 bound_to 7997
  139.8882  144.6401  150.8768 H   0  0  0  0  0  0  0  0  0  0  0  0  # atno 10167 bound_to 10162
  156.2826  130.4219  149.8321 H   0  0  0  0  0  0  0  0  0  0  0  0  # atno 10718 bound_to 10713
  153.9806  135.6717  153.4750 H   0  0  0  0  0  0  0  0  0  0  0  0  # atno 10763 bound_to 10752
  153.0750  135.4953  154.8382 H   0  0  0  0  0  0  0  0  0  0  0  0  # atno 10764 bound_to 10752
  154.7167  135.3108  154.9074 H   0  0  0  0  0  0  0  0  0  0  0  0  # atno 10765 bound_to 10752
  140.1582  134.8628  157.2541 H   0  0  0  0  0  0  0  0  0  0  0  0  # atno 11005 bound_to 11000
  146.0335  139.3357  143.0740 LP  0  0  0  0  0  0  0  0  0  0  0  0  # atno 17320 bound_to 7965
  145.8423  140.9574  143.0793 LP  0  0  0  0  0  0  0  0  0  0  0  0  # atno 17321 bound_to 7965
  140.7732  143.3531  151.1975 LP  0  0  0  0  0  0  0  0  0  0  0  0  # atno 17342 bound_to 10162
  139.7134  143.9340  152.2957 LP  0  0  0  0  0  0  0  0  0  0  0  0  # atno 17343 bound_to 10162
  156.5762  130.8446  151.3370 LP  0  0  0  0  0  0  0  0  0  0  0  0  # atno 17370 bound_to 10713
  157.7319  130.9707  150.1902 LP  0  0  0  0  0  0  0  0  0  0  0  0  # atno 17371 bound_to 10713
  140.2522  134.3670  155.7438 LP  0  0  0  0  0  0  0  0  0  0  0  0  # atno 17394 bound_to 11000
  141.2206  133.7323  156.8952 LP  0  0  0  0  0  0  0  0  0  0  0  0  # atno 17395 bound_to 11000

$$$$
