AV-unprocessed.smi:437|AV-procd|sdf|2559|dock5
  -GOLD-   2262022523D 1   1.00000     0.00000
 Structure written by MMmdl.
 48 49  0  0  0  0  0  0  0  0  1 V2000
  153.4637  136.5992  163.6775 C   0  0  0  0  0  0  0  0  0  0  0  0
  153.8810  136.0911  162.3236 C   0  0  0  0  0  0  0  0  0  0  0  0
  153.6053  136.8454  161.3110 N   0  0  0  0  0  0  0  0  0  0  0  0
  153.9383  136.4715  160.0235 N   0  0  0  0  0  0  0  0  0  0  0  0
  153.5342  137.4417  158.9952 C   0  0  0  0  0  0  0  0  0  0  0  0
  152.0160  137.6746  158.9474 C   0  0  0  0  0  0  0  0  0  0  0  0
  151.2444  136.7159  158.8583 O   0  0  0  0  0  0  0  0  0  0  0  0
  151.6368  138.9666  159.0203 N   0  0  0  0  0  0  0  0  0  0  0  0
  152.4292  140.0508  159.1259 C   0  0  0  0  0  0  0  0  0  0  0  0
  153.6257  140.0990  158.8319 O   0  0  0  0  0  0  0  0  0  0  0  0
  151.7431  141.1017  159.5988 N   0  0  0  0  0  0  0  0  0  0  0  0
  152.1906  142.4928  159.5631 C   0  0  2  0  0  0  0  0  0  0  0  0
  152.1877  143.0753  160.9920 C   0  0  0  0  0  0  0  0  0  0  0  0
  152.5879  144.5576  161.0014 C   0  0  0  0  0  0  0  0  0  0  0  0
  151.6808  145.3778  160.0745 C   0  0  0  0  0  0  0  0  0  0  0  0
  151.6966  144.8120  158.6465 C   0  0  0  0  0  0  0  0  0  0  0  0
  151.2924  143.3241  158.6129 C   0  0  1  0  0  0  0  0  0  0  0  0
  151.3113  142.7913  157.1686 C   0  0  0  0  0  0  0  0  0  0  0  0
  154.5818  135.3152  159.6923 C   0  0  0  0  0  0  0  0  0  0  0  0
  154.8666  135.0258  158.5290 O   0  0  0  0  0  0  0  0  0  0  0  0
  154.8906  134.4651  160.8442 C   0  0  0  0  0  0  0  0  0  0  0  0
  155.5550  133.2391  160.5406 C   0  0  0  0  0  0  0  0  0  0  0  0
  156.0872  132.2458  160.2755 N   0  0  0  0  0  0  0  0  0  0  0  0
  154.5647  134.8192  162.1127 C   0  0  0  0  0  0  0  0  0  0  0  0
  154.8631  133.9721  163.3421 C   0  0  0  0  0  0  0  0  0  0  0  0
  154.3347  136.7746  164.3092 H   0  0  0  0  0  0  0  0  0  0  0  0
  152.8188  135.8783  164.1807 H   0  0  0  0  0  0  0  0  0  0  0  0
  152.9130  137.5386  163.6076 H   0  0  0  0  0  0  0  0  0  0  0  0
  154.0180  138.4036  159.1745 H   0  0  0  0  0  0  0  0  0  0  0  0
  153.8862  137.1174  158.0139 H   0  0  0  0  0  0  0  0  0  0  0  0
  150.6433  139.1404  158.9884 H   0  0  0  0  0  0  0  0  0  0  0  0
  150.8344  140.9320  160.0041 H   0  0  0  0  0  0  0  0  0  0  0  0
  153.2112  142.5322  159.1766 H   0  0  0  0  0  0  0  0  0  0  0  0
  151.1955  142.9680  161.4330 H   0  0  0  0  0  0  0  0  0  0  0  0
  152.8701  142.5108  161.6290 H   0  0  0  0  0  0  0  0  0  0  0  0
  152.5357  144.9510  162.0170 H   0  0  0  0  0  0  0  0  0  0  0  0
  153.6262  144.6586  160.6827 H   0  0  0  0  0  0  0  0  0  0  0  0
  150.6607  145.3723  160.4603 H   0  0  0  0  0  0  0  0  0  0  0  0
  152.0033  146.4194  160.0652 H   0  0  0  0  0  0  0  0  0  0  0  0
  151.0223  145.3954  158.0188 H   0  0  0  0  0  0  0  0  0  0  0  0
  152.6938  144.9324  158.2207 H   0  0  0  0  0  0  0  0  0  0  0  0
  150.2643  143.2555  158.9725 H   0  0  0  0  0  0  0  0  0  0  0  0
  152.3210  142.8023  156.7570 H   0  0  0  0  0  0  0  0  0  0  0  0
  150.6816  143.3997  156.5189 H   0  0  0  0  0  0  0  0  0  0  0  0
  150.9398  141.7682  157.1104 H   0  0  0  0  0  0  0  0  0  0  0  0
  155.4564  133.0904  163.1017 H   0  0  0  0  0  0  0  0  0  0  0  0
  153.9356  133.6307  163.8025 H   0  0  0  0  0  0  0  0  0  0  0  0
  155.4227  134.5468  164.0806 H   0  0  0  0  0  0  0  0  0  0  0  0
  1  2  1  0  0  0  0
  1 26  1  0  0  0  0
  1 27  1  0  0  0  0
  1 28  1  0  0  0  0
  2 24  1  0  0  0  0
  2  3  2  0  0  0  0
  3  4  1  0  0  0  0
  4  5  1  0  0  0  0
  4 19  1  0  0  0  0
  5  6  1  0  0  0  0
  5 29  1  0  0  0  0
  5 30  1  0  0  0  0
  6  7  2  0  0  0  0
  6  8  1  0  0  0  0
  8  9  1  0  0  0  0
  8 31  1  0  0  0  0
  9 10  2  0  0  0  0
  9 11  1  0  0  0  0
 11 12  1  0  0  0  0
 11 32  1  0  0  0  0
 12 17  1  0  0  0  0
 12 13  1  0  0  0  0
 12 33  1  0  0  0  0
 13 14  1  0  0  0  0
 13 34  1  0  0  0  0
 13 35  1  0  0  0  0
 14 15  1  0  0  0  0
 14 36  1  0  0  0  0
 14 37  1  0  0  0  0
 15 16  1  0  0  0  0
 15 38  1  0  0  0  0
 15 39  1  0  0  0  0
 16 17  1  0  0  0  0
 16 40  1  0  0  0  0
 16 41  1  0  0  0  0
 17 18  1  0  0  0  0
 17 42  1  0  0  0  0
 18 43  1  0  0  0  0
 18 44  1  0  0  0  0
 18 45  1  0  0  0  0
 19 20  2  0  0  0  0
 19 21  1  0  0  0  0
 21 22  1  0  0  0  0
 21 24  2  0  0  0  0
 22 23  3  0  0  0  0
 24 25  1  0  0  0  0
 25 46  1  0  0  0  0
 25 47  1  0  0  0  0
 25 48  1  0  0  0  0
M  END
> <s_m_source_file>
AV-unprocessed.smi

> <i_m_source_file_index>
437

> <i_lp_mmshare_version>
43012

> <i_f3d_flags>
0

> <s_epik_input>
TiNDYyhjMVtDSDNdKWMoPU8pbihuYzFbQ0gzXSlbQ0gyXUMoPU8pW05IXUMoPU8pW05IXVtDQEBIXTJbQ0gyXVtDSDJdW0NIMl1bQ0gyXVtDQEhdMltDSDNd

> <s_epik_cmdline>
J2VwaWtfcHl0aG9uJywgJy1waCcsICc3LjAnLCAnLXRuJywgJzgnLCAnLW1hJywgJzIwMCcsICctbWV0YWxfYmluZGluZycsICctaW1hZScsICc8aW5maWxlLm1hZT4nLCAnLW9tYWUnLCAnPG91dGZpbGUubWFlPic=

> <r_lp_tautomer_probability>
1

> <r_epik_Ionization_Penalty>
3.27035e-05

> <r_epik_Ionization_Penalty_Charging>
1.6965e-11

> <r_epik_Ionization_Penalty_Neutral>
3.27035e-05

> <r_epik_State_Penalty>
-0

> <r_epik_Charging_Adjusted_Penalty>
1.6965e-11

> <i_epik_Tot_Q>
0

> <i_epik_Tot_abs_Q>
0

> <r_epik_Metal_State_Penalty>
-0

> <b_epik_Metal_Only>
0

> <s_lp_Force_Field>
OPLS_2005

> <r_lp_Energy>
27.1353

> <b_lp_Chiralities_Consistent>
1

> <s_lp_Variant>
AV-unprocessed.smi:437-1

> <Gold.Version>
5.8.1

> <Gold.Id.Protein>
6NUR|6NUR_protein|mol2

> <Gold.PLP.Fitness>
43.8612

> <Gold.PLP.PLP>
-41.3884

> <Gold.PLP.part.hbond>
-2.0000

> <Gold.PLP.part.metal>
0.0000

> <Gold.PLP.part.buried>
-6.5184

> <Gold.PLP.part.nonpolar>
-31.9999

> <Gold.PLP.part.repulsive>
0.3049

> <Gold.PLP.ligand.clash>
3.0846

> <Gold.PLP.ligand.torsion>
0.2221

> <Gold.PLP.Chemscore.Hbond>
1.9920

> <Gold.PLP.Chemscore.CHOScore>
0.0000

> <Gold.PLP.Chemscore.Metal>
0.0000

> <Gold.Chemscore.Hbonds>
donor molecule, donor type, donor heavy atom, donor atom, acceptor molecule, acceptor atom, score
      P1  H  6896  6907       L1     7  0.94
      P1  H  7997  8010       L1    10  0.99

> <Gold.PLP.Chemscore.Internal.Correction>
0.0257

> <Gold.Rescore>
     Score         DG    S(hbond)    S(metal)    S(lipo)     H(rot)  DE(clash)    DE(int)     intcor
     18.98     -20.72       1.85        0.00     111.81       1.57       0.03       1.72       ----

> <Gold.Chemscore.Fitness>
18.9766

> <Gold.Chemscore.DG>
-20.7188

> <Gold.Chemscore.ZeroCoef>
-5.4800

> <Gold.Chemscore.Hbond>
1.8457

> <Gold.Chemscore.Metal>
0.0000

> <Gold.Chemscore.Lipo>
111.8123

> <Gold.Chemscore.Internal_Hbond>
0.0000

> <Gold.Chemscore.DEClash>
0.0263

> <Gold.Chemscore.DEInternal>
1.7160

> <Gold.Chemscore.Rot>
1.5656

> <Gold.Chemscore.Internal.Correction>
   9.000000E+99

> <Gold.Chemscore.Hbonds>
donor molecule, donor type, donor heavy atom, donor atom, acceptor molecule, acceptor atom, score
      P1  H  6896  6907       L1     7  0.91
      P1  H  7997  8010       L1    10  0.91

> <Gold.Chemscore.Hbond.Weighted>
-6.1647

> <Gold.Chemscore.Metal.Weighted>
-0.0000

> <Gold.Chemscore.Lipo.Weighted>
-13.0820

> <Gold.Chemscore.Internal_Hbond.Weighted>
0.0000

> <Gold.Chemscore.DEClash.Weighted>
0.0263

> <Gold.Chemscore.DEInternal.Weighted>
1.7160

> <Gold.Chemscore.Rot.Weighted>
4.0079

> <Gold.Chemscore.Internal.Correction.Weighted>
   9.000000E+99

> <Gold.Protein.RotatedTorsions>
[ 6907 6896 6895 6894 ] final  -14.43 input  -60.11 | X-H torsion
[ 7974 7965 7964 7962 ] final  146.57 input  175.53 | X-H torsion
[ 8008 7997 7996 7995 ] final   20.84 input   59.86 | X-H torsion
[ 10167 10162 10161 10158 ] final    7.60 input  -65.29 | X-H torsion
[ 10718 10713 10712 10709 ] final   98.69 input   66.30 | X-H torsion
[ 10763 10752 10751 10750 ] final  164.71 input  -60.55 | X-H torsion
[ 11005 11000 10999 10996 ] final -112.20 input  -57.11 | X-H torsion

> <Gold.Protein.ActiveResidues>
 VAL166  LYS551  ARG553  GLY616  TRP617  ASP618  TYR619  PRO620  LYS621  CYS622 
 ASP623  PHE694  ASN695  SER759  ASP760  ASP761  ALA762  ILE779  LEU786  VAL792 
 PHE793  MET794  SER795  GLU796  ALA797  LYS798  CYS799  TRP800  GLU811  SER814 

> <Gold.Protein.RotatedAtoms>
  151.3395  135.0860  159.9365 H   0  0  0  0  0  0  0  0  0  0  0  0  # atno 6907 bound_to 6896
  152.5215  133.9461  159.7660 H   0  0  0  0  0  0  0  0  0  0  0  0  # atno 6908 bound_to 6896
  150.9815  133.6187  159.2751 H   0  0  0  0  0  0  0  0  0  0  0  0  # atno 6909 bound_to 6896
  144.8660  139.5921  143.5908 H   0  0  0  0  0  0  0  0  0  0  0  0  # atno 7974 bound_to 7965
  154.9416  140.3054  155.5118 H   0  0  0  0  0  0  0  0  0  0  0  0  # atno 8008 bound_to 7997
  156.2995  140.2335  156.4423 H   0  0  0  0  0  0  0  0  0  0  0  0  # atno 8009 bound_to 7997
  154.8140  140.0427  157.1352 H   0  0  0  0  0  0  0  0  0  0  0  0  # atno 8010 bound_to 7997
  140.6362  143.7880  150.7363 H   0  0  0  0  0  0  0  0  0  0  0  0  # atno 10167 bound_to 10162
  157.6891  131.0647  150.4834 H   0  0  0  0  0  0  0  0  0  0  0  0  # atno 10718 bound_to 10713
  154.3131  135.2757  155.2556 H   0  0  0  0  0  0  0  0  0  0  0  0  # atno 10763 bound_to 10752
  154.4943  135.5825  153.6486 H   0  0  0  0  0  0  0  0  0  0  0  0  # atno 10764 bound_to 10752
  152.9885  135.6142  154.3309 H   0  0  0  0  0  0  0  0  0  0  0  0  # atno 10765 bound_to 10752
  141.0689  133.9412  157.2523 H   0  0  0  0  0  0  0  0  0  0  0  0  # atno 11005 bound_to 11000
  146.2896  139.7102  142.9170 LP  0  0  0  0  0  0  0  0  0  0  0  0  # atno 17320 bound_to 7965
  145.4220  141.0407  143.2958 LP  0  0  0  0  0  0  0  0  0  0  0  0  # atno 17321 bound_to 7965
  140.1502  143.4364  152.2136 LP  0  0  0  0  0  0  0  0  0  0  0  0  # atno 17342 bound_to 10162
  139.5572  144.7381  151.4258 LP  0  0  0  0  0  0  0  0  0  0  0  0  # atno 17343 bound_to 10162
  156.5164  130.4151  149.6273 LP  0  0  0  0  0  0  0  0  0  0  0  0  # atno 17370 bound_to 10713
  156.3193  130.7272  151.2181 LP  0  0  0  0  0  0  0  0  0  0  0  0  # atno 17371 bound_to 10713
  139.9504  135.0176  156.8977 LP  0  0  0  0  0  0  0  0  0  0  0  0  # atno 17394 bound_to 11000
  140.5714  134.0439  155.7432 LP  0  0  0  0  0  0  0  0  0  0  0  0  # atno 17395 bound_to 11000

$$$$
