AV-unprocessed.smi:3031|AV-procd|sdf|11548|dock4
  -GOLD-   2272016503D 1   1.00000     0.00000
 Structure written by MMmdl.
 47 48  0  0  0  0  0  0  0  0  2 V2000
  150.5531  135.7407  154.3133 C   0  0  0  0  0  0  0  0  0  0  0  0
  150.6124  137.2351  154.4446 C   0  0  0  0  0  0  0  0  0  0  0  0
  151.7613  138.0735  154.3749 C   0  0  0  0  0  0  0  0  0  0  0  0
  151.4721  139.3556  154.5243 N   0  0  0  0  0  0  0  0  0  0  0  0
  150.1318  139.3820  154.6902 N   0  0  0  0  0  0  0  0  0  0  0  0
  149.4520  140.6504  154.8809 C   0  0  0  0  0  0  0  0  0  0  0  0
  148.0162  140.6927  154.3034 C   0  0  1  0  0  0  0  0  0  0  0  0
  147.5722  142.1501  154.1164 C   0  0  0  0  0  0  0  0  0  0  0  0
  147.9147  139.9983  153.0159 N   0  0  0  0  0  0  0  0  0  0  0  0
  146.5943  140.0376  152.3809 C   0  0  0  0  0  0  0  0  0  0  0  0
  146.1435  138.6507  151.8904 C   0  0  1  0  0  0  0  0  0  0  0  0
  147.1581  138.0870  151.0830 O   0  0  0  0  0  0  0  0  0  0  0  0
  145.7657  137.6906  153.0392 C   0  0  0  0  0  0  0  0  0  0  0  0
  145.8481  136.2636  152.6393 N   0  3  0  0  0  0  0  0  0  0  0  0
  145.4673  135.3432  153.7370 C   0  0  0  0  0  0  0  0  0  0  0  0
  145.6265  133.8796  153.2919 C   0  0  0  0  0  0  0  0  0  0  0  0
  144.8438  133.6460  152.1276 O   0  0  0  0  0  0  0  0  0  0  0  0
  145.2534  134.4633  151.0383 C   0  0  0  0  0  0  0  0  0  0  0  0
  145.0797  135.9454  151.4101 C   0  0  0  0  0  0  0  0  0  0  0  0
  149.5890  138.1151  154.6563 C   0  0  0  0  0  0  0  0  0  0  0  0
  151.5191  135.2777  154.5150 H   0  0  0  0  0  0  0  0  0  0  0  0
  150.2554  135.4387  153.3090 H   0  0  0  0  0  0  0  0  0  0  0  0
  149.8363  135.3019  155.0079 H   0  0  0  0  0  0  0  0  0  0  0  0
  152.7915  137.7894  154.2186 H   0  0  0  0  0  0  0  0  0  0  0  0
  149.4209  140.8385  155.9549 H   0  0  0  0  0  0  0  0  0  0  0  0
  150.0575  141.4504  154.4507 H   0  0  0  0  0  0  0  0  0  0  0  0
  147.3289  140.2385  155.0187 H   0  0  0  0  0  0  0  0  0  0  0  0
  147.5969  142.6929  155.0615 H   0  0  0  0  0  0  0  0  0  0  0  0
  146.5517  142.2048  153.7359 H   0  0  0  0  0  0  0  0  0  0  0  0
  148.2186  142.6773  153.4135 H   0  0  0  0  0  0  0  0  0  0  0  0
  148.6039  140.3745  152.3721 H   0  0  0  0  0  0  0  0  0  0  0  0
  145.8428  140.4063  153.0738 H   0  0  0  0  0  0  0  0  0  0  0  0
  146.6029  140.7419  151.5484 H   0  0  0  0  0  0  0  0  0  0  0  0
  145.2807  138.8105  151.2450 H   0  0  0  0  0  0  0  0  0  0  0  0
  147.5886  137.4038  151.5744 H   0  0  0  0  0  0  0  0  0  0  0  0
  146.4354  137.8704  153.8817 H   0  0  0  0  0  0  0  0  0  0  0  0
  144.7592  137.9053  153.4023 H   0  0  0  0  0  0  0  0  0  0  0  0
  146.0930  135.5284  154.6109 H   0  0  0  0  0  0  0  0  0  0  0  0
  144.4349  135.5345  154.0344 H   0  0  0  0  0  0  0  0  0  0  0  0
  146.6735  133.6437  153.0949 H   0  0  0  0  0  0  0  0  0  0  0  0
  145.2924  133.2081  154.0829 H   0  0  0  0  0  0  0  0  0  0  0  0
  146.2897  134.2467  150.7738 H   0  0  0  0  0  0  0  0  0  0  0  0
  144.6450  134.2212  150.1665 H   0  0  0  0  0  0  0  0  0  0  0  0
  144.0230  136.1652  151.5715 H   0  0  0  0  0  0  0  0  0  0  0  0
  145.4101  136.5660  150.5782 H   0  0  0  0  0  0  0  0  0  0  0  0
  148.5287  137.9475  154.7767 H   0  0  0  0  0  0  0  0  0  0  0  0
  146.8218  136.0804  152.4414 H   0  0  0  0  0  0  0  0  0  0  0  0
  1  2  1  0  0  0  0
  1 21  1  0  0  0  0
  1 22  1  0  0  0  0
  1 23  1  0  0  0  0
  2 20  2  0  0  0  0
  2  3  1  0  0  0  0
  3  4  2  0  0  0  0
  3 24  1  0  0  0  0
  4  5  1  0  0  0  0
  5  6  1  0  0  0  0
  5 20  1  0  0  0  0
  6  7  1  0  0  0  0
  6 25  1  0  0  0  0
  6 26  1  0  0  0  0
  7  8  1  0  0  0  0
  7  9  1  0  0  0  0
  7 27  1  0  0  0  0
  8 28  1  0  0  0  0
  8 29  1  0  0  0  0
  8 30  1  0  0  0  0
  9 10  1  0  0  0  0
  9 31  1  0  0  0  0
 10 11  1  0  0  0  0
 10 32  1  0  0  0  0
 10 33  1  0  0  0  0
 11 12  1  0  0  0  0
 11 13  1  0  0  0  0
 11 34  1  0  0  0  0
 12 35  1  0  0  0  0
 13 14  1  0  0  0  0
 13 36  1  0  0  0  0
 13 37  1  0  0  0  0
 14 19  1  0  0  0  0
 14 15  1  0  0  0  0
 14 47  1  0  0  0  0
 15 16  1  0  0  0  0
 15 38  1  0  0  0  0
 15 39  1  0  0  0  0
 16 17  1  0  0  0  0
 16 40  1  0  0  0  0
 16 41  1  0  0  0  0
 17 18  1  0  0  0  0
 18 19  1  0  0  0  0
 18 42  1  0  0  0  0
 18 43  1  0  0  0  0
 19 44  1  0  0  0  0
 19 45  1  0  0  0  0
 20 46  1  0  0  0  0
M  CHG  1  14   1
M  END
> <s_m_source_file>
AV-unprocessed.smi

> <i_m_source_file_index>
3031

> <i_lp_mmshare_version>
43012

> <i_f3d_flags>
0

> <s_epik_input>
W0NIM11jMVtjSF1ubihbY0hdMSlbQ0gyXVtDQEhdKFtDSDNdKVtOSF1bQ0gyXVtDQEhdKFtPSF0pW0NIMl1OMltDSDJdW0NIMl1PW0NIMl1bQ0gyXTI=

> <s_epik_cmdline>
J2VwaWtfcHl0aG9uJywgJy1waCcsICc3LjAnLCAnLXRuJywgJzgnLCAnLW1hJywgJzIwMCcsICctbWV0YWxfYmluZGluZycsICctaW1hZScsICc8aW5maWxlLm1hZT4nLCAnLW9tYWUnLCAnPG91dGZpbGUubWFlPic=

> <r_epik_Ionization_Penalty>
0.467051

> <r_epik_Ionization_Penalty_Charging>
0.202493

> <r_epik_Ionization_Penalty_Neutral>
0.264558

> <r_epik_State_Penalty>
1.34287

> <r_epik_Charging_Adjusted_Penalty>
1.54537

> <i_epik_Tot_Q>
1

> <i_epik_Tot_abs_Q>
1

> <r_epik_Metal_State_Penalty>
1.34281

> <b_epik_Metal_Only>
0

> <s_lp_Force_Field>
OPLS_2005

> <r_lp_Energy>
30.2263

> <b_lp_Chiralities_Consistent>
1

> <s_lp_Variant>
AV-unprocessed.smi:3031-8

> <Gold.Version>
5.8.1

> <Gold.Id.Protein>
6NUR|6NUR_protein|mol2

> <Gold.PLP.Fitness>
52.2372

> <Gold.PLP.PLP>
-37.7490

> <Gold.PLP.part.hbond>
-5.4735

> <Gold.PLP.part.metal>
0.0000

> <Gold.PLP.part.buried>
-1.8512

> <Gold.PLP.part.nonpolar>
-31.6541

> <Gold.PLP.part.repulsive>
0.1518

> <Gold.PLP.ligand.clash>
0.0000

> <Gold.PLP.ligand.torsion>
1.2164

> <Gold.PLP.Chemscore.Hbond>
5.6058

> <Gold.PLP.Chemscore.CHOScore>
0.0000

> <Gold.PLP.Chemscore.Metal>
0.0000

> <Gold.Chemscore.Hbonds>
donor molecule, donor type, donor heavy atom, donor atom, acceptor molecule, acceptor atom, score
      L1  H     9    31       P1  7957  0.91
      L1  H    12    35       P1  7948  1.00
      L1  H    14    47       P1  7948  1.17
      P1  H  7954  7966       L1    12  0.50
      P1  H  7989  7998       L1     4  0.95

> <Gold.PLP.Chemscore.Internal.Correction>
0.1037

> <Gold.Rescore>
     Score         DG    S(hbond)    S(metal)    S(lipo)     H(rot)  DE(clash)    DE(int)     intcor
     19.57     -21.48       4.00        0.00      80.69       2.65       1.04       0.87       ----

> <Gold.Chemscore.Fitness>
19.5727

> <Gold.Chemscore.DG>
-21.4777

> <Gold.Chemscore.ZeroCoef>
-5.4800

> <Gold.Chemscore.Hbond>
3.9959

> <Gold.Chemscore.Metal>
0.0000

> <Gold.Chemscore.Lipo>
80.6912

> <Gold.Chemscore.Internal_Hbond>
0.0000

> <Gold.Chemscore.DEClash>
1.0380

> <Gold.Chemscore.DEInternal>
0.8669

> <Gold.Chemscore.Rot>
2.6521

> <Gold.Chemscore.Internal.Correction>
   9.000000E+99

> <Gold.Chemscore.Hbonds>
donor molecule, donor type, donor heavy atom, donor atom, acceptor molecule, acceptor atom, score
      L1  H     9    31       P1  7957  0.88
      L1  H    12    35       P1  7948  0.95
      L1  H    14    47       P1  7948  0.58
      P1  H  7954  7966       L1    12  0.02
      P1  H  7989  7998       L1     4  0.21

> <Gold.Chemscore.Hbond.Weighted>
-13.3462

> <Gold.Chemscore.Metal.Weighted>
-0.0000

> <Gold.Chemscore.Lipo.Weighted>
-9.4409

> <Gold.Chemscore.Internal_Hbond.Weighted>
0.0000

> <Gold.Chemscore.DEClash.Weighted>
1.0380

> <Gold.Chemscore.DEInternal.Weighted>
0.8669

> <Gold.Chemscore.Rot.Weighted>
6.7894

> <Gold.Chemscore.Internal.Correction.Weighted>
   9.000000E+99

> <Gold.Protein.RotatedTorsions>
[ 6907 6896 6895 6894 ] final -154.45 input  -60.11 | X-H torsion
[ 7974 7965 7964 7962 ] final -122.97 input  175.53 | X-H torsion
[ 8008 7997 7996 7995 ] final  157.03 input   59.86 | X-H torsion
[ 10167 10162 10161 10158 ] final    0.78 input  -65.29 | X-H torsion
[ 10718 10713 10712 10709 ] final   81.05 input   66.30 | X-H torsion
[ 10763 10752 10751 10750 ] final -100.77 input  -60.55 | X-H torsion
[ 11005 11000 10999 10996 ] final  122.66 input  -57.11 | X-H torsion

> <Gold.Protein.ActiveResidues>
 VAL166  LYS551  ARG553  GLY616  TRP617  ASP618  TYR619  PRO620  LYS621  CYS622 
 ASP623  PHE694  ASN695  SER759  ASP760  ASP761  ALA762  ILE779  LEU786  VAL792 
 PHE793  MET794  SER795  GLU796  ALA797  LYS798  CYS799  TRP800  GLU811  SER814 

> <Gold.Protein.RotatedAtoms>
  151.2576  133.4318  159.2614 H   0  0  0  0  0  0  0  0  0  0  0  0  # atno 6907 bound_to 6896
  151.0560  134.9705  159.8246 H   0  0  0  0  0  0  0  0  0  0  0  0  # atno 6908 bound_to 6896
  152.5390  134.2528  159.8958 H   0  0  0  0  0  0  0  0  0  0  0  0  # atno 6909 bound_to 6896
  145.0237  140.8010  143.4365 H   0  0  0  0  0  0  0  0  0  0  0  0  # atno 7974 bound_to 7965
  156.2388  140.1896  156.7046 H   0  0  0  0  0  0  0  0  0  0  0  0  # atno 8008 bound_to 7997
  154.6157  140.0615  156.9578 H   0  0  0  0  0  0  0  0  0  0  0  0  # atno 8009 bound_to 7997
  155.1943  140.3287  155.4356 H   0  0  0  0  0  0  0  0  0  0  0  0  # atno 8010 bound_to 7997
  140.6713  143.7040  150.7929 H   0  0  0  0  0  0  0  0  0  0  0  0  # atno 10167 bound_to 10162
  157.6823  130.9987  150.2170 H   0  0  0  0  0  0  0  0  0  0  0  0  # atno 10718 bound_to 10713
  154.7605  135.4923  153.9456 H   0  0  0  0  0  0  0  0  0  0  0  0  # atno 10763 bound_to 10752
  153.1246  135.6739  153.9286 H   0  0  0  0  0  0  0  0  0  0  0  0  # atno 10764 bound_to 10752
  153.9008  135.3110  155.3427 H   0  0  0  0  0  0  0  0  0  0  0  0  # atno 10765 bound_to 10752
  139.9278  134.9641  156.8142 H   0  0  0  0  0  0  0  0  0  0  0  0  # atno 11005 bound_to 11000
  145.1861  139.2325  143.5267 LP  0  0  0  0  0  0  0  0  0  0  0  0  # atno 17320 bound_to 7965
  146.3489  140.1647  142.8590 LP  0  0  0  0  0  0  0  0  0  0  0  0  # atno 17321 bound_to 7965
  140.0726  143.5046  152.2572 LP  0  0  0  0  0  0  0  0  0  0  0  0  # atno 17342 bound_to 10162
  139.5983  144.7574  151.3233 LP  0  0  0  0  0  0  0  0  0  0  0  0  # atno 17343 bound_to 10162
  156.2829  130.3735  149.7917 LP  0  0  0  0  0  0  0  0  0  0  0  0  # atno 17370 bound_to 10713
  156.5600  130.8379  151.3326 LP  0  0  0  0  0  0  0  0  0  0  0  0  # atno 17371 bound_to 10713
  140.6287  133.9926  155.7652 LP  0  0  0  0  0  0  0  0  0  0  0  0  # atno 17394 bound_to 11000
  141.0847  134.0008  157.3331 LP  0  0  0  0  0  0  0  0  0  0  0  0  # atno 17395 bound_to 11000

$$$$
