AV-unprocessed.smi:1433|AV-procd|sdf|5848|dock10
  -GOLD-   22720 5513D 1   1.00000     0.00000
 Structure written by MMmdl.
 45 46  0  0  0  0  0  0  0  0  2 V2000
  146.2908  136.2424  153.5236 C   0  0  0  0  0  0  0  0  0  0  0  0
  146.4778  137.3028  154.6233 C   0  0  1  0  0  0  0  0  0  0  0  0
  147.7894  137.1468  155.4148 C   0  0  0  0  0  0  0  0  0  0  0  0
  148.9741  137.5521  154.6100 N   0  3  2  0  0  0  0  0  0  0  0  0
  150.2665  137.3038  155.3299 C   0  0  1  0  0  0  0  0  0  0  0  0
  151.4459  137.9007  154.5265 C   0  0  0  0  0  0  0  0  0  0  0  0
  150.2869  137.8358  156.7913 C   0  0  0  0  0  0  0  0  0  0  0  0
  150.1714  139.2885  156.8622 N   0  0  0  0  0  0  0  0  0  0  0  0
  151.1811  140.1511  156.6679 C   0  0  0  0  0  0  0  0  0  0  0  0
  152.3448  139.8006  156.4740 O   0  0  0  0  0  0  0  0  0  0  0  0
  150.8160  141.6351  156.6665 C   0  0  0  0  0  0  0  0  0  0  0  0
  151.5381  142.3416  157.7096 N   0  0  0  0  0  0  0  0  0  0  0  0
  151.6402  143.7028  157.9094 C   0  0  0  0  0  0  0  0  0  0  0  0
  152.4074  143.8939  159.0226 C   0  0  0  0  0  0  0  0  0  0  0  0
  152.7323  142.5731  159.4405 C   0  0  0  0  0  0  0  0  0  0  0  0
  152.2082  141.6459  158.6549 N   0  0  0  0  0  0  0  0  0  0  0  0
  148.7728  138.9357  154.1012 C   0  0  0  0  0  0  0  0  0  0  0  0
  147.4545  139.0540  153.3141 C   0  0  2  0  0  0  0  0  0  0  0  0
  147.1804  140.4961  152.8727 C   0  0  0  0  0  0  0  0  0  0  0  0
  146.3647  138.6335  154.1263 O   0  0  0  0  0  0  0  0  0  0  0  0
  146.2432  135.2427  153.9559 H   0  0  0  0  0  0  0  0  0  0  0  0
  147.1074  136.2425  152.8021 H   0  0  0  0  0  0  0  0  0  0  0  0
  145.3614  136.4084  152.9783 H   0  0  0  0  0  0  0  0  0  0  0  0
  145.6523  137.1753  155.3243 H   0  0  0  0  0  0  0  0  0  0  0  0
  147.7436  137.7671  156.3115 H   0  0  0  0  0  0  0  0  0  0  0  0
  147.8702  136.1168  155.7572 H   0  0  0  0  0  0  0  0  0  0  0  0
  150.4032  136.2224  155.3823 H   0  0  0  0  0  0  0  0  0  0  0  0
  152.4055  137.7012  155.0035 H   0  0  0  0  0  0  0  0  0  0  0  0
  151.3465  138.9823  154.4293 H   0  0  0  0  0  0  0  0  0  0  0  0
  151.5244  137.4863  153.5232 H   0  0  0  0  0  0  0  0  0  0  0  0
  149.4628  137.4045  157.3606 H   0  0  0  0  0  0  0  0  0  0  0  0
  151.2075  137.5584  157.3064 H   0  0  0  0  0  0  0  0  0  0  0  0
  149.2481  139.6689  157.0163 H   0  0  0  0  0  0  0  0  0  0  0  0
  151.0432  142.0812  155.6968 H   0  0  0  0  0  0  0  0  0  0  0  0
  149.7450  141.7570  156.8344 H   0  0  0  0  0  0  0  0  0  0  0  0
  151.1618  144.4134  157.2514 H   0  0  0  0  0  0  0  0  0  0  0  0
  152.6935  144.8341  159.4703 H   0  0  0  0  0  0  0  0  0  0  0  0
  153.3277  142.2625  160.2863 H   0  0  0  0  0  0  0  0  0  0  0  0
  148.7850  139.6371  154.9372 H   0  0  0  0  0  0  0  0  0  0  0  0
  149.5755  139.2193  153.4213 H   0  0  0  0  0  0  0  0  0  0  0  0
  147.5067  138.4337  152.4190 H   0  0  0  0  0  0  0  0  0  0  0  0
  147.9825  140.8721  152.2369 H   0  0  0  0  0  0  0  0  0  0  0  0
  147.0940  141.1625  153.7314 H   0  0  0  0  0  0  0  0  0  0  0  0
  146.2508  140.5605  152.3067 H   0  0  0  0  0  0  0  0  0  0  0  0
  148.9913  136.9600  153.7919 H   0  0  0  0  0  0  0  0  0  0  0  0
  1  2  1  0  0  0  0
  1 21  1  0  0  0  0
  1 22  1  0  0  0  0
  1 23  1  0  0  0  0
  2 20  1  0  0  0  0
  2  3  1  0  0  0  0
  2 24  1  0  0  0  0
  3  4  1  0  0  0  0
  3 25  1  0  0  0  0
  3 26  1  0  0  0  0
  4  5  1  0  0  0  0
  4 17  1  0  0  0  0
  4 45  1  0  0  0  0
  5  6  1  0  0  0  0
  5  7  1  0  0  0  0
  5 27  1  0  0  0  0
  6 28  1  0  0  0  0
  6 29  1  0  0  0  0
  6 30  1  0  0  0  0
  7  8  1  0  0  0  0
  7 31  1  0  0  0  0
  7 32  1  0  0  0  0
  8  9  1  0  0  0  0
  8 33  1  0  0  0  0
  9 10  2  0  0  0  0
  9 11  1  0  0  0  0
 11 12  1  0  0  0  0
 11 34  1  0  0  0  0
 11 35  1  0  0  0  0
 12 16  1  0  0  0  0
 12 13  1  0  0  0  0
 13 14  2  0  0  0  0
 13 36  1  0  0  0  0
 14 15  1  0  0  0  0
 14 37  1  0  0  0  0
 15 16  2  0  0  0  0
 15 38  1  0  0  0  0
 17 18  1  0  0  0  0
 17 39  1  0  0  0  0
 17 40  1  0  0  0  0
 18 19  1  0  0  0  0
 18 20  1  0  0  0  0
 18 41  1  0  0  0  0
 19 42  1  0  0  0  0
 19 43  1  0  0  0  0
 19 44  1  0  0  0  0
M  CHG  1   4   1
M  END
> <s_m_source_file>
AV-unprocessed.smi

> <i_m_source_file_index>
1433

> <i_lp_mmshare_version>
43012

> <i_f3d_flags>
0

> <s_epik_input>
W0NIM11bQ0BASF0xW0NIMl1OKFtDSDJdW0NASF0oTzEpW0NIM10pW0NASF0oW0NIM10pW0NIMl1bTkhdQyg9TylbQ0gyXW4yW2NIXVtjSF1bY0hdbjI=

> <s_epik_cmdline>
J2VwaWtfcHl0aG9uJywgJy1waCcsICc3LjAnLCAnLXRuJywgJzgnLCAnLW1hJywgJzIwMCcsICctbWV0YWxfYmluZGluZycsICctaW1hZScsICc8aW5maWxlLm1hZT4nLCAnLW9tYWUnLCAnPG91dGZpbGUubWFlPic=

> <r_lp_tautomer_probability>
1

> <r_epik_Ionization_Penalty>
0.748405

> <r_epik_Ionization_Penalty_Charging>
0.748396

> <r_epik_Ionization_Penalty_Neutral>
8.54426e-06

> <r_epik_State_Penalty>
0.775162

> <r_epik_Charging_Adjusted_Penalty>
1.52356

> <i_epik_Tot_Q>
1

> <i_epik_Tot_abs_Q>
1

> <r_epik_Metal_State_Penalty>
0.775167

> <b_epik_Metal_Only>
0

> <s_lp_Force_Field>
OPLS_2005

> <r_lp_Energy>
21.4141

> <b_lp_Chiralities_Consistent>
1

> <s_lp_Variant>
AV-unprocessed.smi:1433-14

> <Gold.Version>
5.8.1

> <Gold.Id.Protein>
6NUR|6NUR_protein|mol2

> <Gold.PLP.Fitness>
43.0135

> <Gold.PLP.PLP>
-31.8174

> <Gold.PLP.part.hbond>
-2.0000

> <Gold.PLP.part.metal>
0.0000

> <Gold.PLP.part.buried>
-0.3246

> <Gold.PLP.part.nonpolar>
-29.2149

> <Gold.PLP.part.repulsive>
0.1341

> <Gold.PLP.ligand.clash>
0.0000

> <Gold.PLP.ligand.torsion>
0.4302

> <Gold.PLP.Chemscore.Hbond>
3.0000

> <Gold.PLP.Chemscore.CHOScore>
1.0000

> <Gold.PLP.Chemscore.Metal>
0.0000

> <Gold.Chemscore.Hbonds>
donor molecule, donor type, donor heavy atom, donor atom, acceptor molecule, acceptor atom, score
      L1  H     4    45       P1  7948  1.92
      P1  H  7997  8010       L1    10  1.00
      L1  C    13    36       P1  8028  0.43

> <Gold.PLP.Chemscore.Internal.Correction>
0.0565

> <Gold.Rescore>
     Score         DG    S(hbond)    S(metal)    S(lipo)     H(rot)  DE(clash)    DE(int)     intcor
     15.13     -17.09       1.99        0.00      83.14       1.87       0.04       1.92       ----

> <Gold.Chemscore.Fitness>
15.1304

> <Gold.Chemscore.DG>
-17.0902

> <Gold.Chemscore.ZeroCoef>
-5.4800

> <Gold.Chemscore.Hbond>
1.9937

> <Gold.Chemscore.Metal>
0.0000

> <Gold.Chemscore.Lipo>
83.1409

> <Gold.Chemscore.Internal_Hbond>
0.0000

> <Gold.Chemscore.DEClash>
0.0388

> <Gold.Chemscore.DEInternal>
1.9209

> <Gold.Chemscore.Rot>
1.8657

> <Gold.Chemscore.Internal.Correction>
   9.000000E+99

> <Gold.Chemscore.Hbonds>
donor molecule, donor type, donor heavy atom, donor atom, acceptor molecule, acceptor atom, score
      L1  H     4    45       P1  7948  0.90
      P1  H  7997  8010       L1    10  0.94

> <Gold.Chemscore.Hbond.Weighted>
-6.6589

> <Gold.Chemscore.Metal.Weighted>
-0.0000

> <Gold.Chemscore.Lipo.Weighted>
-9.7275

> <Gold.Chemscore.Internal_Hbond.Weighted>
0.0000

> <Gold.Chemscore.DEClash.Weighted>
0.0388

> <Gold.Chemscore.DEInternal.Weighted>
1.9209

> <Gold.Chemscore.Rot.Weighted>
4.7761

> <Gold.Chemscore.Internal.Correction.Weighted>
   9.000000E+99

> <Gold.Protein.RotatedTorsions>
[ 6907 6896 6895 6894 ] final  178.60 input  -60.11 | X-H torsion
[ 7974 7965 7964 7962 ] final    4.51 input  175.53 | X-H torsion
[ 8008 7997 7996 7995 ] final   70.40 input   59.86 | X-H torsion
[ 10167 10162 10161 10158 ] final   43.08 input  -65.29 | X-H torsion
[ 10718 10713 10712 10709 ] final  149.22 input   66.30 | X-H torsion
[ 10763 10752 10751 10750 ] final   87.64 input  -60.55 | X-H torsion
[ 11005 11000 10999 10996 ] final  -13.61 input  -57.11 | X-H torsion

> <Gold.Protein.ActiveResidues>
 VAL166  LYS551  ARG553  GLY616  TRP617  ASP618  TYR619  PRO620  LYS621  CYS622 
 ASP623  PHE694  ASN695  SER759  ASP760  ASP761  ALA762  ILE779  LEU786  VAL792 
 PHE793  MET794  SER795  GLU796  ALA797  LYS798  CYS799  TRP800  GLU811  SER814 

> <Gold.Protein.RotatedAtoms>
  151.6853  133.3311  159.3229 H   0  0  0  0  0  0  0  0  0  0  0  0  # atno 6907 bound_to 6896
  150.7804  134.6746  159.6419 H   0  0  0  0  0  0  0  0  0  0  0  0  # atno 6908 bound_to 6896
  152.3859  134.6521  160.0178 H   0  0  0  0  0  0  0  0  0  0  0  0  # atno 6909 bound_to 6896
  146.2443  140.0523  142.8374 H   0  0  0  0  0  0  0  0  0  0  0  0  # atno 7974 bound_to 7965
  155.7382  140.3491  155.5091 H   0  0  0  0  0  0  0  0  0  0  0  0  # atno 8008 bound_to 7997
  155.9119  140.1052  157.1294 H   0  0  0  0  0  0  0  0  0  0  0  0  # atno 8009 bound_to 7997
  154.4057  140.1266  156.4555 H   0  0  0  0  0  0  0  0  0  0  0  0  # atno 8010 bound_to 7997
  140.3480  144.2387  150.6148 H   0  0  0  0  0  0  0  0  0  0  0  0  # atno 10167 bound_to 10162
  157.2988  131.0867  151.1406 H   0  0  0  0  0  0  0  0  0  0  0  0  # atno 10718 bound_to 10713
  153.1688  135.4536  154.9874 H   0  0  0  0  0  0  0  0  0  0  0  0  # atno 10763 bound_to 10752
  154.7951  135.3234  154.7688 H   0  0  0  0  0  0  0  0  0  0  0  0  # atno 10764 bound_to 10752
  153.8167  135.6950  153.4887 H   0  0  0  0  0  0  0  0  0  0  0  0  # atno 10765 bound_to 10752
  140.7778  133.8387  155.9265 H   0  0  0  0  0  0  0  0  0  0  0  0  # atno 11005 bound_to 11000
  145.0973  140.9323  143.4733 LP  0  0  0  0  0  0  0  0  0  0  0  0  # atno 17320 bound_to 7965
  145.0709  139.3032  143.5832 LP  0  0  0  0  0  0  0  0  0  0  0  0  # atno 17321 bound_to 7965
  140.5246  143.2257  151.8335 LP  0  0  0  0  0  0  0  0  0  0  0  0  # atno 17342 bound_to 10162
  139.4830  144.4795  151.9325 LP  0  0  0  0  0  0  0  0  0  0  0  0  # atno 17343 bound_to 10162
  157.2773  130.6733  149.6048 LP  0  0  0  0  0  0  0  0  0  0  0  0  # atno 17370 bound_to 10713
  155.9670  130.4460  150.5525 LP  0  0  0  0  0  0  0  0  0  0  0  0  # atno 17371 bound_to 10713
  140.9511  134.1777  157.4726 LP  0  0  0  0  0  0  0  0  0  0  0  0  # atno 17394 bound_to 11000
  139.8746  134.9909  156.5527 LP  0  0  0  0  0  0  0  0  0  0  0  0  # atno 17395 bound_to 11000

$$$$
