AV-unprocessed.smi:1967|AV-procd|sdf|7954|dock9
  -GOLD-   2272010123D 1   1.00000     0.00000
 Structure written by MMmdl.
 37 38  0  0  0  0  0  0  0  0  1 V2000
  151.8151  139.7210  154.8690 O   0  0  0  0  0  0  0  0  0  0  0  0
  150.7841  139.9951  155.8817 S   0  0  0  0  0  0  0  0  0  0  0  0
  150.5279  139.0467  156.9766 O   0  0  0  0  0  0  0  0  0  0  0  0
  151.0963  141.5376  156.5805 N   0  0  0  0  0  0  0  0  0  0  0  0
  151.1639  141.6423  158.0372 C   0  0  0  0  0  0  0  0  0  0  0  0
  151.9553  142.8898  158.4611 C   0  0  0  0  0  0  0  0  0  0  0  0
  152.3420  142.8816  159.9301 C   0  0  0  0  0  0  0  0  0  0  0  0
  151.9128  143.9112  160.7952 C   0  0  0  0  0  0  0  0  0  0  0  0
  152.2921  143.8511  162.1503 C   0  0  0  0  0  0  0  0  0  0  0  0
  153.0822  142.7698  162.5858 C   0  0  0  0  0  0  0  0  0  0  0  0
  153.4583  141.7920  161.6433 C   0  0  0  0  0  0  0  0  0  0  0  0
  153.0988  141.8396  160.3424 N   0  0  0  0  0  0  0  0  0  0  0  0
  149.2909  140.3421  155.0733 N   0  0  0  0  0  0  0  0  0  0  0  0
  149.1745  141.6550  154.4019 C   0  0  0  0  0  0  0  0  0  0  0  0
  147.7171  141.9778  154.0328 C   0  0  0  0  0  0  0  0  0  0  0  0
  147.0982  140.8590  153.1914 C   0  0  0  0  0  0  0  0  0  0  0  0
  147.2103  139.5370  153.9551 C   0  0  0  0  0  0  0  0  0  0  0  0
  148.6707  139.2292  154.3262 C   0  0  0  0  0  0  0  0  0  0  0  0
  150.5214  142.2680  156.1608 H   0  0  0  0  0  0  0  0  0  0  0  0
  150.1526  141.6707  158.4442 H   0  0  0  0  0  0  0  0  0  0  0  0
  151.6441  140.7467  158.4323 H   0  0  0  0  0  0  0  0  0  0  0  0
  152.8642  142.9632  157.8624 H   0  0  0  0  0  0  0  0  0  0  0  0
  151.3777  143.7889  158.2419 H   0  0  0  0  0  0  0  0  0  0  0  0
  151.3043  144.7262  160.4311 H   0  0  0  0  0  0  0  0  0  0  0  0
  151.9820  144.6197  162.8428 H   0  0  0  0  0  0  0  0  0  0  0  0
  153.3931  142.6907  163.6170 H   0  0  0  0  0  0  0  0  0  0  0  0
  154.0640  140.9496  161.9425 H   0  0  0  0  0  0  0  0  0  0  0  0
  149.5642  142.4411  155.0477 H   0  0  0  0  0  0  0  0  0  0  0  0
  149.7972  141.6487  153.5063 H   0  0  0  0  0  0  0  0  0  0  0  0
  147.1322  142.1202  154.9426 H   0  0  0  0  0  0  0  0  0  0  0  0
  147.6738  142.9206  153.4867 H   0  0  0  0  0  0  0  0  0  0  0  0
  146.0539  141.0831  152.9723 H   0  0  0  0  0  0  0  0  0  0  0  0
  147.6136  140.7829  152.2330 H   0  0  0  0  0  0  0  0  0  0  0  0
  146.6059  139.5849  154.8621 H   0  0  0  0  0  0  0  0  0  0  0  0
  146.8014  138.7244  153.3541 H   0  0  0  0  0  0  0  0  0  0  0  0
  149.2586  139.0355  153.4280 H   0  0  0  0  0  0  0  0  0  0  0  0
  148.7044  138.3205  154.9272 H   0  0  0  0  0  0  0  0  0  0  0  0
  1  2  2  0  0  0  0
  2  3  2  0  0  0  0
  2  4  1  0  0  0  0
  2 13  1  0  0  0  0
  4  5  1  0  0  0  0
  4 19  1  0  0  0  0
  5  6  1  0  0  0  0
  5 20  1  0  0  0  0
  5 21  1  0  0  0  0
  6  7  1  0  0  0  0
  6 22  1  0  0  0  0
  6 23  1  0  0  0  0
  7 12  1  0  0  0  0
  7  8  2  0  0  0  0
  8  9  1  0  0  0  0
  8 24  1  0  0  0  0
  9 10  2  0  0  0  0
  9 25  1  0  0  0  0
 10 11  1  0  0  0  0
 10 26  1  0  0  0  0
 11 12  2  0  0  0  0
 11 27  1  0  0  0  0
 13 18  1  0  0  0  0
 13 14  1  0  0  0  0
 14 15  1  0  0  0  0
 14 28  1  0  0  0  0
 14 29  1  0  0  0  0
 15 16  1  0  0  0  0
 15 30  1  0  0  0  0
 15 31  1  0  0  0  0
 16 17  1  0  0  0  0
 16 32  1  0  0  0  0
 16 33  1  0  0  0  0
 17 18  1  0  0  0  0
 17 34  1  0  0  0  0
 17 35  1  0  0  0  0
 18 36  1  0  0  0  0
 18 37  1  0  0  0  0
M  END
> <s_m_source_file>
AV-unprocessed.smi

> <i_m_source_file_index>
1967

> <i_lp_mmshare_version>
43012

> <i_f3d_flags>
0

> <s_epik_input>
W0NIMl0xW0NIMl1bQ0gyXVtDSDJdW0NIMl1OMVMoPU8pKD1PKVtOSF1bQ0gyXVtDSDJdYzJbY0hdW2NIXVtjSF1bY0hdbjI=

> <s_epik_cmdline>
J2VwaWtfcHl0aG9uJywgJy1waCcsICc3LjAnLCAnLXRuJywgJzgnLCAnLW1hJywgJzIwMCcsICctbWV0YWxfYmluZGluZycsICctaW1hZScsICc8aW5maWxlLm1hZT4nLCAnLW9tYWUnLCAnPG91dGZpbGUubWFlPic=

> <r_epik_Ionization_Penalty>
0.0252758

> <r_epik_Ionization_Penalty_Charging>
0

> <r_epik_Ionization_Penalty_Neutral>
0.0252758

> <r_epik_State_Penalty>
0.0138562

> <r_epik_Charging_Adjusted_Penalty>
0.0138562

> <i_epik_Tot_Q>
0

> <i_epik_Tot_abs_Q>
0

> <r_epik_Metal_State_Penalty>
0.204365

> <b_epik_Metal_Only>
0

> <s_lp_Force_Field>
OPLS_2005

> <r_lp_Energy>
9.86341

> <b_lp_Chiralities_Consistent>
1

> <s_lp_Variant>
AV-unprocessed.smi:1967-1

> <Gold.Version>
5.8.1

> <Gold.Id.Protein>
6NUR|6NUR_protein|mol2

> <Gold.PLP.Fitness>
43.9559

> <Gold.PLP.PLP>
-41.5742

> <Gold.PLP.part.hbond>
-1.0000

> <Gold.PLP.part.metal>
0.0000

> <Gold.PLP.part.buried>
-3.7266

> <Gold.PLP.part.nonpolar>
-35.3302

> <Gold.PLP.part.repulsive>
0.1476

> <Gold.PLP.ligand.clash>
0.0000

> <Gold.PLP.ligand.torsion>
0.6528

> <Gold.PLP.Chemscore.Hbond>
0.9760

> <Gold.PLP.Chemscore.CHOScore>
0.0000

> <Gold.PLP.Chemscore.Metal>
0.0000

> <Gold.Chemscore.Hbonds>
donor molecule, donor type, donor heavy atom, donor atom, acceptor molecule, acceptor atom, score
      P1  H  7989  7998       L1     1  1.00

> <Gold.PLP.Chemscore.Internal.Correction>
0.7593

> <Gold.Rescore>
     Score         DG    S(hbond)    S(metal)    S(lipo)     H(rot)  DE(clash)    DE(int)     intcor
     16.25     -16.75       0.96        0.00     105.86       1.69       0.00       0.51       ----

> <Gold.Chemscore.Fitness>
16.2463

> <Gold.Chemscore.DG>
-16.7546

> <Gold.Chemscore.ZeroCoef>
-5.4800

> <Gold.Chemscore.Hbond>
0.9621

> <Gold.Chemscore.Metal>
0.0000

> <Gold.Chemscore.Lipo>
105.8577

> <Gold.Chemscore.Internal_Hbond>
0.0000

> <Gold.Chemscore.DEClash>
0.0023

> <Gold.Chemscore.DEInternal>
0.5060

> <Gold.Chemscore.Rot>
1.6891

> <Gold.Chemscore.Internal.Correction>
   9.000000E+99

> <Gold.Chemscore.Hbonds>
donor molecule, donor type, donor heavy atom, donor atom, acceptor molecule, acceptor atom, score
      P1  H  7989  7998       L1     1  0.75

> <Gold.Chemscore.Hbond.Weighted>
-3.2133

> <Gold.Chemscore.Metal.Weighted>
-0.0000

> <Gold.Chemscore.Lipo.Weighted>
-12.3853

> <Gold.Chemscore.Internal_Hbond.Weighted>
0.0000

> <Gold.Chemscore.DEClash.Weighted>
0.0023

> <Gold.Chemscore.DEInternal.Weighted>
0.5060

> <Gold.Chemscore.Rot.Weighted>
4.3241

> <Gold.Chemscore.Internal.Correction.Weighted>
   9.000000E+99

> <Gold.Protein.RotatedTorsions>
[ 6907 6896 6895 6894 ] final  -51.95 input  -60.11 | X-H torsion
[ 7974 7965 7964 7962 ] final   23.64 input  175.53 | X-H torsion
[ 8008 7997 7996 7995 ] final  -57.45 input   59.86 | X-H torsion
[ 10167 10162 10161 10158 ] final  120.08 input  -65.29 | X-H torsion
[ 10718 10713 10712 10709 ] final  149.46 input   66.30 | X-H torsion
[ 10763 10752 10751 10750 ] final  -56.45 input  -60.55 | X-H torsion
[ 11005 11000 10999 10996 ] final  168.93 input  -57.11 | X-H torsion

> <Gold.Protein.ActiveResidues>
 VAL166  LYS551  ARG553  GLY616  TRP617  ASP618  TYR619  PRO620  LYS621  CYS622 
 ASP623  PHE694  ASN695  SER759  ASP760  ASP761  ALA762  ILE779  LEU786  VAL792 
 PHE793  MET794  SER795  GLU796  ALA797  LYS798  CYS799  TRP800  GLU811  SER814 

> <Gold.Protein.RotatedAtoms>
  150.8563  134.7903  159.7047 H   0  0  0  0  0  0  0  0  0  0  0  0  # atno 6907 bound_to 6896
  152.4614  134.5173  159.9782 H   0  0  0  0  0  0  0  0  0  0  0  0  # atno 6908 bound_to 6896
  151.5285  133.3415  159.2949 H   0  0  0  0  0  0  0  0  0  0  0  0  # atno 6909 bound_to 6896
  146.1975  139.7716  142.8786 H   0  0  0  0  0  0  0  0  0  0  0  0  # atno 7974 bound_to 7965
  154.4268  140.1106  156.5799 H   0  0  0  0  0  0  0  0  0  0  0  0  # atno 8008 bound_to 7997
  155.6123  140.3494  155.4607 H   0  0  0  0  0  0  0  0  0  0  0  0  # atno 8009 bound_to 7997
  156.0089  140.1215  157.0463 H   0  0  0  0  0  0  0  0  0  0  0  0  # atno 8010 bound_to 7997
  139.6005  144.7055  151.3074 H   0  0  0  0  0  0  0  0  0  0  0  0  # atno 10167 bound_to 10162
  157.2958  131.0862  151.1427 H   0  0  0  0  0  0  0  0  0  0  0  0  # atno 10718 bound_to 10713
  154.2068  135.6401  153.5103 H   0  0  0  0  0  0  0  0  0  0  0  0  # atno 10763 bound_to 10752
  152.9999  135.5464  154.6257 H   0  0  0  0  0  0  0  0  0  0  0  0  # atno 10764 bound_to 10752
  154.5684  135.2914  155.0825 H   0  0  0  0  0  0  0  0  0  0  0  0  # atno 10765 bound_to 10752
  140.2924  134.7662  157.3850 H   0  0  0  0  0  0  0  0  0  0  0  0  # atno 11005 bound_to 11000
  145.3596  141.0323  143.3292 LP  0  0  0  0  0  0  0  0  0  0  0  0  # atno 17320 bound_to 7965
  144.8611  139.5176  143.6812 LP  0  0  0  0  0  0  0  0  0  0  0  0  # atno 17321 bound_to 7965
  140.7245  143.7041  150.7821 LP  0  0  0  0  0  0  0  0  0  0  0  0  # atno 17342 bound_to 10162
  140.0616  143.5149  152.2624 LP  0  0  0  0  0  0  0  0  0  0  0  0  # atno 17343 bound_to 10162
  157.2806  130.6748  149.6064 LP  0  0  0  0  0  0  0  0  0  0  0  0  # atno 17370 bound_to 10713
  155.9669  130.4451  150.5488 LP  0  0  0  0  0  0  0  0  0  0  0  0  # atno 17371 bound_to 10713
  140.1183  134.5254  155.8206 LP  0  0  0  0  0  0  0  0  0  0  0  0  # atno 17394 bound_to 11000
  141.2143  133.6747  156.6818 LP  0  0  0  0  0  0  0  0  0  0  0  0  # atno 17395 bound_to 11000

$$$$
