AV-unprocessed.smi:1728|AV-procd|sdf|6967|dock1
  -GOLD-   22720 8183D 1   1.00000     0.00000
 Structure written by MMmdl.
 46 47  0  0  0  0  0  0  0  0  1 V2000
  145.6658  133.3222  151.4921 C   0  0  0  0  0  0  0  0  0  0  0  0
  146.7798  133.5492  152.3486 O   0  0  0  0  0  0  0  0  0  0  0  0
  147.4380  132.4566  152.8809 C   0  0  0  0  0  0  0  0  0  0  0  0
  146.9258  131.2213  152.6511 N   0  0  0  0  0  0  0  0  0  0  0  0
  147.5685  130.1532  153.1655 C   0  0  0  0  0  0  0  0  0  0  0  0
  148.7487  130.2567  153.9237 C   0  0  0  0  0  0  0  0  0  0  0  0
  149.2828  131.5364  154.1627 C   0  0  0  0  0  0  0  0  0  0  0  0
  148.6126  132.6702  153.6404 C   0  0  0  0  0  0  0  0  0  0  0  0
  149.0621  134.0110  153.8047 N   0  0  0  0  0  0  0  0  0  0  0  0
  149.8718  134.5300  154.7434 C   0  0  0  0  0  0  0  0  0  0  0  0
  150.3854  133.9086  155.6731 O   0  0  0  0  0  0  0  0  0  0  0  0
  150.0509  135.8421  154.5497 N   0  0  0  0  0  0  0  0  0  0  0  0
  150.8879  136.6984  155.3846 C   0  0  0  0  0  0  0  0  0  0  0  0
  150.2905  138.1253  155.5466 C   0  0  0  0  0  0  0  0  0  0  0  0
  150.3152  138.7668  154.1356 C   0  0  0  0  0  0  0  0  0  0  0  0
  148.8053  137.9592  155.9491 C   0  0  0  0  0  0  0  0  0  0  0  0
  151.0711  138.9406  156.5193 N   0  0  0  0  0  0  0  0  0  0  0  0
  150.6533  140.3429  156.6282 C   0  0  0  0  0  0  0  0  0  0  0  0
  151.5782  141.1517  157.5542 C   0  0  0  0  0  0  0  0  0  0  0  0
  151.6250  140.5420  158.8384 O   0  0  0  0  0  0  0  0  0  0  0  0
  152.0817  139.1961  158.7835 C   0  0  0  0  0  0  0  0  0  0  0  0
  151.1589  138.3725  157.8698 C   0  0  0  0  0  0  0  0  0  0  0  0
  145.2658  134.2802  151.1609 H   0  0  0  0  0  0  0  0  0  0  0  0
  144.8651  132.7907  152.0083 H   0  0  0  0  0  0  0  0  0  0  0  0
  145.9550  132.7598  150.6033 H   0  0  0  0  0  0  0  0  0  0  0  0
  147.1318  129.1865  152.9627 H   0  0  0  0  0  0  0  0  0  0  0  0
  149.2359  129.3737  154.3101 H   0  0  0  0  0  0  0  0  0  0  0  0
  150.1970  131.6139  154.7289 H   0  0  0  0  0  0  0  0  0  0  0  0
  148.6792  134.6706  153.1429 H   0  0  0  0  0  0  0  0  0  0  0  0
  149.5936  136.2812  153.7638 H   0  0  0  0  0  0  0  0  0  0  0  0
  151.0074  136.2290  156.3630 H   0  0  0  0  0  0  0  0  0  0  0  0
  151.8922  136.7350  154.9608 H   0  0  0  0  0  0  0  0  0  0  0  0
  149.8970  138.0970  153.3834 H   0  0  0  0  0  0  0  0  0  0  0  0
  151.3305  139.0123  153.8218 H   0  0  0  0  0  0  0  0  0  0  0  0
  149.7243  139.6813  154.0866 H   0  0  0  0  0  0  0  0  0  0  0  0
  148.2652  137.3620  155.2135 H   0  0  0  0  0  0  0  0  0  0  0  0
  148.2869  138.9153  156.0173 H   0  0  0  0  0  0  0  0  0  0  0  0
  148.6932  137.4527  156.9075 H   0  0  0  0  0  0  0  0  0  0  0  0
  150.6556  140.8269  155.6533 H   0  0  0  0  0  0  0  0  0  0  0  0
  149.6344  140.4038  157.0105 H   0  0  0  0  0  0  0  0  0  0  0  0
  152.5842  141.2151  157.1362 H   0  0  0  0  0  0  0  0  0  0  0  0
  151.2100  142.1724  157.6585 H   0  0  0  0  0  0  0  0  0  0  0  0
  153.1101  139.1664  158.4203 H   0  0  0  0  0  0  0  0  0  0  0  0
  152.0861  138.7800  159.7910 H   0  0  0  0  0  0  0  0  0  0  0  0
  150.1689  138.3227  158.3233 H   0  0  0  0  0  0  0  0  0  0  0  0
  151.5457  137.3556  157.8411 H   0  0  0  0  0  0  0  0  0  0  0  0
  1  2  1  0  0  0  0
  1 23  1  0  0  0  0
  1 24  1  0  0  0  0
  1 25  1  0  0  0  0
  2  3  1  0  0  0  0
  3  8  1  0  0  0  0
  3  4  2  0  0  0  0
  4  5  1  0  0  0  0
  5  6  2  0  0  0  0
  5 26  1  0  0  0  0
  6  7  1  0  0  0  0
  6 27  1  0  0  0  0
  7  8  2  0  0  0  0
  7 28  1  0  0  0  0
  8  9  1  0  0  0  0
  9 10  1  0  0  0  0
  9 29  1  0  0  0  0
 10 11  2  0  0  0  0
 10 12  1  0  0  0  0
 12 13  1  0  0  0  0
 12 30  1  0  0  0  0
 13 14  1  0  0  0  0
 13 31  1  0  0  0  0
 13 32  1  0  0  0  0
 14 15  1  0  0  0  0
 14 16  1  0  0  0  0
 14 17  1  0  0  0  0
 15 33  1  0  0  0  0
 15 34  1  0  0  0  0
 15 35  1  0  0  0  0
 16 36  1  0  0  0  0
 16 37  1  0  0  0  0
 16 38  1  0  0  0  0
 17 22  1  0  0  0  0
 17 18  1  0  0  0  0
 18 19  1  0  0  0  0
 18 39  1  0  0  0  0
 18 40  1  0  0  0  0
 19 20  1  0  0  0  0
 19 41  1  0  0  0  0
 19 42  1  0  0  0  0
 20 21  1  0  0  0  0
 21 22  1  0  0  0  0
 21 43  1  0  0  0  0
 21 44  1  0  0  0  0
 22 45  1  0  0  0  0
 22 46  1  0  0  0  0
M  END
> <s_m_source_file>
AV-unprocessed.smi

> <i_m_source_file_index>
1728

> <i_lp_mmshare_version>
43012

> <i_f3d_flags>
0

> <s_epik_input>
W0NIM11PYzFuW2NIXVtjSF1bY0hdYzFbTkhdQyg9TylbTkhdW0NIMl1DKFtDSDNdKShbQ0gzXSlOMltDSDJdW0NIMl1PW0NIMl1bQ0gyXTI=

> <s_epik_cmdline>
J2VwaWtfcHl0aG9uJywgJy1waCcsICc3LjAnLCAnLXRuJywgJzgnLCAnLW1hJywgJzIwMCcsICctbWV0YWxfYmluZGluZycsICctaW1hZScsICc8aW5maWxlLm1hZT4nLCAnLW9tYWUnLCAnPG91dGZpbGUubWFlPic=

> <r_lp_tautomer_probability>
1

> <r_epik_Ionization_Penalty>
0.266086

> <r_epik_Ionization_Penalty_Charging>
0

> <r_epik_Ionization_Penalty_Neutral>
0.266086

> <r_epik_State_Penalty>
0.257924

> <r_epik_Charging_Adjusted_Penalty>
0.257924

> <i_epik_Tot_Q>
0

> <i_epik_Tot_abs_Q>
0

> <r_epik_Metal_State_Penalty>
0.257921

> <b_epik_Metal_Only>
0

> <s_lp_Force_Field>
OPLS_2005

> <r_lp_Energy>
44.4816

> <b_lp_Chiralities_Consistent>
1

> <s_lp_Variant>
AV-unprocessed.smi:1728-1

> <Gold.Version>
5.8.1

> <Gold.Id.Protein>
6NUR|6NUR_protein|mol2

> <Gold.PLP.Fitness>
35.4988

> <Gold.PLP.PLP>
-30.1785

> <Gold.PLP.part.hbond>
-2.3132

> <Gold.PLP.part.metal>
0.0000

> <Gold.PLP.part.buried>
-5.4207

> <Gold.PLP.part.nonpolar>
-23.5888

> <Gold.PLP.part.repulsive>
0.3589

> <Gold.PLP.ligand.clash>
0.0000

> <Gold.PLP.ligand.torsion>
0.3722

> <Gold.PLP.Chemscore.Hbond>
2.0000

> <Gold.PLP.Chemscore.CHOScore>
0.0000

> <Gold.PLP.Chemscore.Metal>
0.0000

> <Gold.Chemscore.Hbonds>
donor molecule, donor type, donor heavy atom, donor atom, acceptor molecule, acceptor atom, score
      L1  H     9    29       P1  7948  0.98
      L1  H    12    30       P1  7948  0.99

> <Gold.PLP.Chemscore.Internal.Correction>
0.0647

> <Gold.Rescore>
     Score         DG    S(hbond)    S(metal)    S(lipo)     H(rot)  DE(clash)    DE(int)     intcor
     11.82     -13.08       1.27        0.00      65.86       1.70       0.02       1.24       ----

> <Gold.Chemscore.Fitness>
11.8189

> <Gold.Chemscore.DG>
-13.0784

> <Gold.Chemscore.ZeroCoef>
-5.4800

> <Gold.Chemscore.Hbond>
1.2728

> <Gold.Chemscore.Metal>
0.0000

> <Gold.Chemscore.Lipo>
65.8583

> <Gold.Chemscore.Internal_Hbond>
0.0000

> <Gold.Chemscore.DEClash>
0.0174

> <Gold.Chemscore.DEInternal>
1.2421

> <Gold.Chemscore.Rot>
1.7024

> <Gold.Chemscore.Internal.Correction>
   9.000000E+99

> <Gold.Chemscore.Hbonds>
donor molecule, donor type, donor heavy atom, donor atom, acceptor molecule, acceptor atom, score
      L1  H     9    29       P1  7948  0.23
      L1  H    12    30       P1  7948  0.51

> <Gold.Chemscore.Hbond.Weighted>
-4.2512

> <Gold.Chemscore.Metal.Weighted>
-0.0000

> <Gold.Chemscore.Lipo.Weighted>
-7.7054

> <Gold.Chemscore.Internal_Hbond.Weighted>
0.0000

> <Gold.Chemscore.DEClash.Weighted>
0.0174

> <Gold.Chemscore.DEInternal.Weighted>
1.2421

> <Gold.Chemscore.Rot.Weighted>
4.3583

> <Gold.Chemscore.Internal.Correction.Weighted>
   9.000000E+99

> <Gold.Protein.RotatedTorsions>
[ 6907 6896 6895 6894 ] final    6.06 input  -60.11 | X-H torsion
[ 7974 7965 7964 7962 ] final   16.12 input  175.53 | X-H torsion
[ 8008 7997 7996 7995 ] final   32.40 input   59.86 | X-H torsion
[ 10167 10162 10161 10158 ] final  151.76 input  -65.29 | X-H torsion
[ 10718 10713 10712 10709 ] final  -32.80 input   66.30 | X-H torsion
[ 10763 10752 10751 10750 ] final  160.03 input  -60.55 | X-H torsion
[ 11005 11000 10999 10996 ] final  170.45 input  -57.11 | X-H torsion

> <Gold.Protein.ActiveResidues>
 VAL166  LYS551  ARG553  GLY616  TRP617  ASP618  TYR619  PRO620  LYS621  CYS622 
 ASP623  PHE694  ASN695  SER759  ASP760  ASP761  ALA762  ILE779  LEU786  VAL792 
 PHE793  MET794  SER795  GLU796  ALA797  LYS798  CYS799  TRP800  GLU811  SER814 

> <Gold.Protein.RotatedAtoms>
  151.6676  135.0980  160.0191 H   0  0  0  0  0  0  0  0  0  0  0  0  # atno 6907 bound_to 6896
  152.3910  133.6675  159.6246 H   0  0  0  0  0  0  0  0  0  0  0  0  # atno 6908 bound_to 6896
  150.7826  133.8871  159.3343 H   0  0  0  0  0  0  0  0  0  0  0  0  # atno 6909 bound_to 6896
  146.2259  139.8795  142.8573 H   0  0  0  0  0  0  0  0  0  0  0  0  # atno 7974 bound_to 7965
  155.1219  140.3249  155.4495 H   0  0  0  0  0  0  0  0  0  0  0  0  # atno 8008 bound_to 7997
  156.2660  140.2026  156.6289 H   0  0  0  0  0  0  0  0  0  0  0  0  # atno 8009 bound_to 7997
  154.6677  140.0540  157.0119 H   0  0  0  0  0  0  0  0  0  0  0  0  # atno 8010 bound_to 7997
  139.4838  144.5414  151.7558 H   0  0  0  0  0  0  0  0  0  0  0  0  # atno 10167 bound_to 10162
  156.3705  130.4339  149.7549 H   0  0  0  0  0  0  0  0  0  0  0  0  # atno 10718 bound_to 10713
  154.2411  135.2775  155.2853 H   0  0  0  0  0  0  0  0  0  0  0  0  # atno 10763 bound_to 10752
  154.5544  135.5665  153.6954 H   0  0  0  0  0  0  0  0  0  0  0  0  # atno 10764 bound_to 10752
  152.9999  135.6282  154.2555 H   0  0  0  0  0  0  0  0  0  0  0  0  # atno 10765 bound_to 10752
  140.3085  134.7536  157.3973 H   0  0  0  0  0  0  0  0  0  0  0  0  # atno 11005 bound_to 11000
  145.2527  141.0049  143.3872 LP  0  0  0  0  0  0  0  0  0  0  0  0  # atno 17320 bound_to 7965
  144.9362  139.4242  143.6471 LP  0  0  0  0  0  0  0  0  0  0  0  0  # atno 17321 bound_to 7965
  140.4954  144.1248  150.5959 LP  0  0  0  0  0  0  0  0  0  0  0  0  # atno 17342 bound_to 10162
  140.4123  143.2651  151.9817 LP  0  0  0  0  0  0  0  0  0  0  0  0  # atno 17343 bound_to 10162
  156.4679  130.7982  151.3001 LP  0  0  0  0  0  0  0  0  0  0  0  0  # atno 17370 bound_to 10713
  157.7483  131.0045  150.3079 LP  0  0  0  0  0  0  0  0  0  0  0  0  # atno 17371 bound_to 10713
  140.1045  134.5427  155.8322 LP  0  0  0  0  0  0  0  0  0  0  0  0  # atno 17394 bound_to 11000
  141.2113  133.6705  156.6573 LP  0  0  0  0  0  0  0  0  0  0  0  0  # atno 17395 bound_to 11000

$$$$
