AV-unprocessed.smi:759|AV-procd|sdf|3626|dock4
  -GOLD-   22720 1 23D 1   1.00000     0.00000
 Structure written by MMmdl.
 23 24  0  0  0  0  0  0  0  0  3 V2000
  152.1130  138.0307  155.9091 C   0  0  0  0  0  0  0  0  0  0  0  0
  152.8807  139.0093  155.4113 N   0  5  0  0  0  0  0  0  0  0  0  0
  152.0920  139.8719  154.7994 N   0  0  0  0  0  0  0  0  0  0  0  0
  150.8405  139.3957  154.9403 C   0  0  0  0  0  0  0  0  0  0  0  0
  149.5987  140.0756  154.3987 C   0  0  1  0  0  0  0  0  0  0  0  0
  148.3366  139.2132  154.5823 C   0  0  0  0  0  0  0  0  0  0  0  0
  147.1010  139.9499  154.0427 C   0  0  0  0  0  0  0  0  0  0  0  0
  146.9757  141.3477  154.6725 C   0  0  0  0  0  0  0  0  0  0  0  0
  148.2068  142.1364  154.4464 N   0  3  0  0  0  0  0  0  0  0  0  0
  149.4180  141.4859  154.9919 C   0  0  0  0  0  0  0  0  0  0  0  0
  150.8357  138.2451  155.6321 N   0  0  0  0  0  0  0  0  0  0  0  0
  152.5456  137.2039  156.4592 H   0  0  0  0  0  0  0  0  0  0  0  0
  149.7571  140.1925  153.3251 H   0  0  0  0  0  0  0  0  0  0  0  0
  148.4549  138.2556  154.0738 H   0  0  0  0  0  0  0  0  0  0  0  0
  148.1920  138.9890  155.6402 H   0  0  0  0  0  0  0  0  0  0  0  0
  147.1736  140.0409  152.9581 H   0  0  0  0  0  0  0  0  0  0  0  0
  146.2019  139.3669  154.2449 H   0  0  0  0  0  0  0  0  0  0  0  0
  146.1275  141.8814  154.2435 H   0  0  0  0  0  0  0  0  0  0  0  0
  146.7927  141.2664  155.7449 H   0  0  0  0  0  0  0  0  0  0  0  0
  148.3313  142.2611  153.4519 H   0  0  0  0  0  0  0  0  0  0  0  0
  149.3346  141.4358  156.0787 H   0  0  0  0  0  0  0  0  0  0  0  0
  150.2853  142.1072  154.7670 H   0  0  0  0  0  0  0  0  0  0  0  0
  148.1011  143.0430  154.8787 H   0  0  0  0  0  0  0  0  0  0  0  0
  1 11  2  0  0  0  0
  1 12  1  0  0  0  0
  1  2  1  0  0  0  0
  2  3  1  0  0  0  0
  3  4  2  0  0  0  0
  4 11  1  0  0  0  0
  4  5  1  0  0  0  0
  5 10  1  0  0  0  0
  5  6  1  0  0  0  0
  5 13  1  0  0  0  0
  6  7  1  0  0  0  0
  6 14  1  0  0  0  0
  6 15  1  0  0  0  0
  7  8  1  0  0  0  0
  7 16  1  0  0  0  0
  7 17  1  0  0  0  0
  8  9  1  0  0  0  0
  8 18  1  0  0  0  0
  8 19  1  0  0  0  0
  9 10  1  0  0  0  0
  9 20  1  0  0  0  0
  9 23  1  0  0  0  0
 10 21  1  0  0  0  0
 10 22  1  0  0  0  0
M  CHG  1   2  -1
M  CHG  1   9   1
M  END
> <s_m_source_file>
AV-unprocessed.smi

> <i_m_source_file_index>
759

> <i_lp_mmshare_version>
43012

> <i_f3d_flags>
0

> <s_epik_input>
W25IXTFbY0hdbm5jMVtDQEBIXTJbQ0gyXVtDSDJdW0NIMl1bTkhdW0NIMl0y

> <s_epik_cmdline>
J2VwaWtfcHl0aG9uJywgJy1waCcsICc3LjAnLCAnLXRuJywgJzgnLCAnLW1hJywgJzIwMCcsICctbWV0YWxfYmluZGluZycsICctaW1hZScsICc8aW5maWxlLm1hZT4nLCAnLW9tYWUnLCAnPG91dGZpbGUubWFlPic=

> <r_lp_tautomer_probability>
0.948284

> <r_epik_Ionization_Penalty>
7.12535

> <r_epik_Ionization_Penalty_Charging>
7.12535

> <r_epik_Ionization_Penalty_Neutral>
7.15677e-14

> <r_epik_State_Penalty>
3.13859

> <r_epik_Charging_Adjusted_Penalty>
10.2639

> <i_epik_Tot_Q>
0

> <i_epik_Tot_abs_Q>
2

> <r_epik_Metal_State_Penalty>
0.603007

> <b_epik_Metal_Only>
1

> <s_lp_Force_Field>
OPLS_2005

> <r_lp_Energy>
6.41651

> <b_lp_Chiralities_Consistent>
1

> <s_lp_Variant>
AV-unprocessed.smi:759-8

> <Gold.Version>
5.8.1

> <Gold.Id.Protein>
6NUR|6NUR_protein|mol2

> <Gold.PLP.Fitness>
31.7099

> <Gold.PLP.PLP>
-18.0408

> <Gold.PLP.part.hbond>
-3.0000

> <Gold.PLP.part.metal>
0.0000

> <Gold.PLP.part.buried>
-3.2739

> <Gold.PLP.part.nonpolar>
-13.2132

> <Gold.PLP.part.repulsive>
0.2868

> <Gold.PLP.ligand.clash>
0.0000

> <Gold.PLP.ligand.torsion>
0.0430

> <Gold.PLP.Chemscore.Hbond>
4.5712

> <Gold.PLP.Chemscore.CHOScore>
0.0000

> <Gold.PLP.Chemscore.Metal>
0.0000

> <Gold.Chemscore.Hbonds>
donor molecule, donor type, donor heavy atom, donor atom, acceptor molecule, acceptor atom, score
      L1  H     9    23       P1  8028  2.00
      P1  H  7989  7998       L1     3  0.57
      P1  H  7997  8009       L1     2  2.00

> <Gold.PLP.Chemscore.Internal.Correction>
0.0414

> <Gold.Rescore>
     Score         DG    S(hbond)    S(metal)    S(lipo)     H(rot)  DE(clash)    DE(int)     intcor
     12.53     -12.64       1.93        0.00      28.00       1.00       0.04       0.06       ----

> <Gold.Chemscore.Fitness>
12.5331

> <Gold.Chemscore.DG>
-12.6379

> <Gold.Chemscore.ZeroCoef>
-5.4800

> <Gold.Chemscore.Hbond>
1.9286

> <Gold.Chemscore.Metal>
0.0000

> <Gold.Chemscore.Lipo>
28.0034

> <Gold.Chemscore.Internal_Hbond>
0.0000

> <Gold.Chemscore.DEClash>
0.0402

> <Gold.Chemscore.DEInternal>
0.0646

> <Gold.Chemscore.Rot>
1.0000

> <Gold.Chemscore.Internal.Correction>
   9.000000E+99

> <Gold.Chemscore.Hbonds>
donor molecule, donor type, donor heavy atom, donor atom, acceptor molecule, acceptor atom, score
      L1  H     9    23       P1  8028  0.90
      P1  H  7989  7998       L1     3  0.06
      P1  H  7997  8009       L1     2  0.48

> <Gold.Chemscore.Hbond.Weighted>
-6.4415

> <Gold.Chemscore.Metal.Weighted>
-0.0000

> <Gold.Chemscore.Lipo.Weighted>
-3.2764

> <Gold.Chemscore.Internal_Hbond.Weighted>
0.0000

> <Gold.Chemscore.DEClash.Weighted>
0.0402

> <Gold.Chemscore.DEInternal.Weighted>
0.0646

> <Gold.Chemscore.Rot.Weighted>
2.5600

> <Gold.Chemscore.Internal.Correction.Weighted>
   9.000000E+99

> <Gold.Protein.RotatedTorsions>
[ 6907 6896 6895 6894 ] final   89.14 input  -60.11 | X-H torsion
[ 7974 7965 7964 7962 ] final -124.67 input  175.53 | X-H torsion
[ 8008 7997 7996 7995 ] final -153.70 input   59.86 | X-H torsion
[ 10167 10162 10161 10158 ] final   77.45 input  -65.29 | X-H torsion
[ 10718 10713 10712 10709 ] final  178.65 input   66.30 | X-H torsion
[ 10763 10752 10751 10750 ] final   29.48 input  -60.55 | X-H torsion
[ 11005 11000 10999 10996 ] final   12.26 input  -57.11 | X-H torsion

> <Gold.Protein.ActiveResidues>
 VAL166  LYS551  ARG553  GLY616  TRP617  ASP618  TYR619  PRO620  LYS621  CYS622 
 ASP623  PHE694  ASN695  SER759  ASP760  ASP761  ALA762  ILE779  LEU786  VAL792 
 PHE793  MET794  SER795  GLU796  ALA797  LYS798  CYS799  TRP800  GLU811  SER814 

> <Gold.Protein.RotatedAtoms>
  152.5433  134.2012  159.8712 H   0  0  0  0  0  0  0  0  0  0  0  0  # atno 6907 bound_to 6896
  151.2001  133.4609  159.2603 H   0  0  0  0  0  0  0  0  0  0  0  0  # atno 6908 bound_to 6896
  151.0998  134.9978  159.8498 H   0  0  0  0  0  0  0  0  0  0  0  0  # atno 6909 bound_to 6896
  145.0056  140.7860  143.4470 H   0  0  0  0  0  0  0  0  0  0  0  0  # atno 7974 bound_to 7965
  155.6749  140.0737  157.2506 H   0  0  0  0  0  0  0  0  0  0  0  0  # atno 8008 bound_to 7997
  154.4116  140.1692  156.1971 H   0  0  0  0  0  0  0  0  0  0  0  0  # atno 8009 bound_to 7997
  155.9585  140.3372  155.6472 H   0  0  0  0  0  0  0  0  0  0  0  0  # atno 8010 bound_to 7997
  139.9815  144.5823  150.7897 H   0  0  0  0  0  0  0  0  0  0  0  0  # atno 10167 bound_to 10162
  156.8875  130.9836  151.3054 H   0  0  0  0  0  0  0  0  0  0  0  0  # atno 10718 bound_to 10713
  153.0428  135.6488  154.0897 H   0  0  0  0  0  0  0  0  0  0  0  0  # atno 10763 bound_to 10752
  154.0600  135.2888  155.3328 H   0  0  0  0  0  0  0  0  0  0  0  0  # atno 10764 bound_to 10752
  154.6664  135.5372  153.8147 H   0  0  0  0  0  0  0  0  0  0  0  0  # atno 10765 bound_to 10752
  140.4940  134.0812  155.7778 H   0  0  0  0  0  0  0  0  0  0  0  0  # atno 11005 bound_to 11000
  145.2093  139.2212  143.5151 LP  0  0  0  0  0  0  0  0  0  0  0  0  # atno 17320 bound_to 7965
  146.3460  140.1928  142.8589 LP  0  0  0  0  0  0  0  0  0  0  0  0  # atno 17321 bound_to 7965
  140.7487  143.2927  151.3287 LP  0  0  0  0  0  0  0  0  0  0  0  0  # atno 17342 bound_to 10162
  139.6406  144.0546  152.2552 LP  0  0  0  0  0  0  0  0  0  0  0  0  # atno 17343 bound_to 10162
  157.6104  130.8578  149.8942 LP  0  0  0  0  0  0  0  0  0  0  0  0  # atno 17370 bound_to 10713
  156.0646  130.3694  150.0907 LP  0  0  0  0  0  0  0  0  0  0  0  0  # atno 17371 bound_to 10713
  141.1470  133.9038  157.2192 LP  0  0  0  0  0  0  0  0  0  0  0  0  # atno 17394 bound_to 11000
  139.9752  135.0116  156.9614 LP  0  0  0  0  0  0  0  0  0  0  0  0  # atno 17395 bound_to 11000

$$$$
