AV-unprocessed.smi:3185|AV-procd|sdf|12165|dock2
  -GOLD-   2272018 03D 1   1.00000     0.00000
 Structure written by MMmdl.
 38 39  0  0  0  0  0  0  0  0  2 V2000
  152.2186  137.5829  154.3126 N   0  0  0  0  0  0  0  0  0  0  0  0
  151.3639  138.1986  154.7898 C   0  0  0  0  0  0  0  0  0  0  0  0
  150.2778  138.9821  155.3974 C   0  0  0  0  0  0  0  0  0  0  0  0
  150.6100  140.4753  155.4933 C   0  0  0  0  0  0  0  0  0  0  0  0
  151.9030  140.7328  156.2753 C   0  0  0  0  0  0  0  0  0  0  0  0
  151.6725  140.6263  157.7299 N   0  3  0  0  0  0  0  0  0  0  0  0
  151.6470  141.9178  158.4539 C   0  0  2  0  0  0  0  0  0  0  0  0
  150.9965  142.9934  157.5631 C   0  0  0  0  0  0  0  0  0  0  0  0
  150.9904  144.3689  158.2474 C   0  0  0  0  0  0  0  0  0  0  0  0
  152.4103  144.7924  158.6506 C   0  0  0  0  0  0  0  0  0  0  0  0
  153.0686  143.7326  159.5465 C   0  0  0  0  0  0  0  0  0  0  0  0
  153.0786  142.3462  158.8683 C   0  0  1  0  0  0  0  0  0  0  0  0
  153.7240  141.3574  159.7228 N   0  0  0  0  0  0  0  0  0  0  0  0
  153.9436  141.4225  161.0834 C   0  0  0  0  0  0  0  0  0  0  0  0
  154.5797  140.2715  161.4503 C   0  0  0  0  0  0  0  0  0  0  0  0
  154.7014  139.5485  160.2314 C   0  0  0  0  0  0  0  0  0  0  0  0
  154.1888  140.1999  159.2004 N   0  0  0  0  0  0  0  0  0  0  0  0
  149.3797  138.8281  154.7985 H   0  0  0  0  0  0  0  0  0  0  0  0
  150.0829  138.5696  156.3875 H   0  0  0  0  0  0  0  0  0  0  0  0
  150.7026  140.8889  154.4881 H   0  0  0  0  0  0  0  0  0  0  0  0
  149.7806  140.9997  155.9698 H   0  0  0  0  0  0  0  0  0  0  0  0
  152.6687  140.0143  155.9800 H   0  0  0  0  0  0  0  0  0  0  0  0
  152.2830  141.7271  156.0392 H   0  0  0  0  0  0  0  0  0  0  0  0
  150.7876  140.1633  157.8804 H   0  0  0  0  0  0  0  0  0  0  0  0
  151.0335  141.8187  159.3518 H   0  0  0  0  0  0  0  0  0  0  0  0
  151.5331  143.0646  156.6158 H   0  0  0  0  0  0  0  0  0  0  0  0
  149.9739  142.7047  157.3166 H   0  0  0  0  0  0  0  0  0  0  0  0
  150.5561  145.1141  157.5801 H   0  0  0  0  0  0  0  0  0  0  0  0
  150.3524  144.3362  159.1315 H   0  0  0  0  0  0  0  0  0  0  0  0
  153.0161  144.9443  157.7563 H   0  0  0  0  0  0  0  0  0  0  0  0
  152.3798  145.7510  159.1695 H   0  0  0  0  0  0  0  0  0  0  0  0
  154.0879  144.0382  159.7857 H   0  0  0  0  0  0  0  0  0  0  0  0
  152.5322  143.6829  160.4951 H   0  0  0  0  0  0  0  0  0  0  0  0
  153.6827  142.4267  157.9627 H   0  0  0  0  0  0  0  0  0  0  0  0
  153.6338  142.2739  161.6718 H   0  0  0  0  0  0  0  0  0  0  0  0
  154.9052  139.9870  162.4402 H   0  0  0  0  0  0  0  0  0  0  0  0
  155.1437  138.5772  160.0662 H   0  0  0  0  0  0  0  0  0  0  0  0
  152.4047  140.0546  158.1261 H   0  0  0  0  0  0  0  0  0  0  0  0
  1  2  3  0  0  0  0
  2  3  1  0  0  0  0
  3  4  1  0  0  0  0
  3 18  1  0  0  0  0
  3 19  1  0  0  0  0
  4  5  1  0  0  0  0
  4 20  1  0  0  0  0
  4 21  1  0  0  0  0
  5  6  1  0  0  0  0
  5 22  1  0  0  0  0
  5 23  1  0  0  0  0
  6  7  1  0  0  0  0
  6 24  1  0  0  0  0
  6 38  1  0  0  0  0
  7 12  1  0  0  0  0
  7  8  1  0  0  0  0
  7 25  1  0  0  0  0
  8  9  1  0  0  0  0
  8 26  1  0  0  0  0
  8 27  1  0  0  0  0
  9 10  1  0  0  0  0
  9 28  1  0  0  0  0
  9 29  1  0  0  0  0
 10 11  1  0  0  0  0
 10 30  1  0  0  0  0
 10 31  1  0  0  0  0
 11 12  1  0  0  0  0
 11 32  1  0  0  0  0
 11 33  1  0  0  0  0
 12 13  1  0  0  0  0
 12 34  1  0  0  0  0
 13 17  1  0  0  0  0
 13 14  1  0  0  0  0
 14 15  2  0  0  0  0
 14 35  1  0  0  0  0
 15 16  1  0  0  0  0
 15 36  1  0  0  0  0
 16 17  2  0  0  0  0
 16 37  1  0  0  0  0
M  CHG  1   6   1
M  END
> <s_m_source_file>
AV-unprocessed.smi

> <i_m_source_file_index>
3185

> <i_lp_mmshare_version>
43012

> <i_f3d_flags>
0

> <s_epik_input>
TiNDW0NIMl1bQ0gyXVtDSDJdW05IXVtDQEBIXTFbQ0gyXVtDSDJdW0NIMl1bQ0gyXVtDQEhdMW4yW2NIXVtjSF1bY0hdbjI=

> <s_epik_cmdline>
J2VwaWtfcHl0aG9uJywgJy1waCcsICc3LjAnLCAnLXRuJywgJzgnLCAnLW1hJywgJzIwMCcsICctbWV0YWxfYmluZGluZycsICctaW1hZScsICc8aW5maWxlLm1hZT4nLCAnLW9tYWUnLCAnPG91dGZpbGUubWFlPic=

> <r_lp_tautomer_probability>
1

> <r_epik_Ionization_Penalty>
0.0143465

> <r_epik_Ionization_Penalty_Charging>
0.0143338

> <r_epik_Ionization_Penalty_Neutral>
1.27047e-05

> <r_epik_State_Penalty>
0.0112058

> <r_epik_Charging_Adjusted_Penalty>
0.0255397

> <i_epik_Tot_Q>
1

> <i_epik_Tot_abs_Q>
1

> <r_epik_Metal_State_Penalty>
0.0112253

> <b_epik_Metal_Only>
0

> <s_lp_Force_Field>
OPLS_2005

> <r_lp_Energy>
16.2212

> <b_lp_Chiralities_Consistent>
1

> <s_lp_Variant>
AV-unprocessed.smi:3185-1

> <Gold.Version>
5.8.1

> <Gold.Id.Protein>
6NUR|6NUR_protein|mol2

> <Gold.PLP.Fitness>
41.7991

> <Gold.PLP.PLP>
-39.0681

> <Gold.PLP.part.hbond>
-2.0000

> <Gold.PLP.part.metal>
0.0000

> <Gold.PLP.part.buried>
-3.8047

> <Gold.PLP.part.nonpolar>
-31.9940

> <Gold.PLP.part.repulsive>
0.2017

> <Gold.PLP.ligand.clash>
0.0000

> <Gold.PLP.ligand.torsion>
1.1411

> <Gold.PLP.Chemscore.Hbond>
1.6515

> <Gold.PLP.Chemscore.CHOScore>
0.0000

> <Gold.PLP.Chemscore.Metal>
0.0000

> <Gold.Chemscore.Hbonds>
donor molecule, donor type, donor heavy atom, donor atom, acceptor molecule, acceptor atom, score
      P1  H  7997  8008       L1    17  0.87
      P1  H 10752 10765       L1     1  0.78

> <Gold.PLP.Chemscore.Internal.Correction>
0.0586

> <Gold.Rescore>
     Score         DG    S(hbond)    S(metal)    S(lipo)     H(rot)  DE(clash)    DE(int)     intcor
     16.93     -19.59       1.75        0.00     111.69       1.88       0.38       2.28       ----

> <Gold.Chemscore.Fitness>
16.9282

> <Gold.Chemscore.DG>
-19.5864

> <Gold.Chemscore.ZeroCoef>
-5.4800

> <Gold.Chemscore.Hbond>
1.7496

> <Gold.Chemscore.Metal>
0.0000

> <Gold.Chemscore.Lipo>
111.6911

> <Gold.Chemscore.Internal_Hbond>
0.0000

> <Gold.Chemscore.DEClash>
0.3765

> <Gold.Chemscore.DEInternal>
2.2818

> <Gold.Chemscore.Rot>
1.8769

> <Gold.Chemscore.Internal.Correction>
   9.000000E+99

> <Gold.Chemscore.Hbonds>
donor molecule, donor type, donor heavy atom, donor atom, acceptor molecule, acceptor atom, score
      P1  H  7997  8008       L1    17  0.79
      P1  H 10752 10765       L1     1  0.72

> <Gold.Chemscore.Hbond.Weighted>
-5.8435

> <Gold.Chemscore.Metal.Weighted>
-0.0000

> <Gold.Chemscore.Lipo.Weighted>
-13.0679

> <Gold.Chemscore.Internal_Hbond.Weighted>
0.0000

> <Gold.Chemscore.DEClash.Weighted>
0.3765

> <Gold.Chemscore.DEInternal.Weighted>
2.2818

> <Gold.Chemscore.Rot.Weighted>
4.8049

> <Gold.Chemscore.Internal.Correction.Weighted>
   9.000000E+99

> <Gold.Protein.RotatedTorsions>
[ 6907 6896 6895 6894 ] final   91.39 input  -60.11 | X-H torsion
[ 7974 7965 7964 7962 ] final -158.10 input  175.53 | X-H torsion
[ 8008 7997 7996 7995 ] final -111.21 input   59.86 | X-H torsion
[ 10167 10162 10161 10158 ] final   -9.97 input  -65.29 | X-H torsion
[ 10718 10713 10712 10709 ] final   80.48 input   66.30 | X-H torsion
[ 10763 10752 10751 10750 ] final  158.44 input  -60.55 | X-H torsion
[ 11005 11000 10999 10996 ] final   38.12 input  -57.11 | X-H torsion

> <Gold.Protein.ActiveResidues>
 VAL166  LYS551  ARG553  GLY616  TRP617  ASP618  TYR619  PRO620  LYS621  CYS622 
 ASP623  PHE694  ASN695  SER759  ASP760  ASP761  ALA762  ILE779  LEU786  VAL792 
 PHE793  MET794  SER795  GLU796  ALA797  LYS798  CYS799  TRP800  GLU811  SER814 

> <Gold.Protein.RotatedAtoms>
  152.5449  134.1665  159.8578 H   0  0  0  0  0  0  0  0  0  0  0  0  # atno 6907 bound_to 6896
  151.1679  133.4796  159.2601 H   0  0  0  0  0  0  0  0  0  0  0  0  # atno 6908 bound_to 6896
  151.1306  135.0139  159.8635 H   0  0  0  0  0  0  0  0  0  0  0  0  # atno 6909 bound_to 6896
  144.7520  140.3875  143.6041 H   0  0  0  0  0  0  0  0  0  0  0  0  # atno 7974 bound_to 7965
  154.9863  140.0395  157.2300 H   0  0  0  0  0  0  0  0  0  0  0  0  # atno 8008 bound_to 7997
  154.7668  140.2794  155.6147 H   0  0  0  0  0  0  0  0  0  0  0  0  # atno 8009 bound_to 7997
  156.2914  140.2618  156.2461 H   0  0  0  0  0  0  0  0  0  0  0  0  # atno 8010 bound_to 7997
  140.7101  143.5799  150.9003 H   0  0  0  0  0  0  0  0  0  0  0  0  # atno 10167 bound_to 10162
  157.6807  130.9961  150.2086 H   0  0  0  0  0  0  0  0  0  0  0  0  # atno 10718 bound_to 10713
  154.2161  135.2784  155.2941 H   0  0  0  0  0  0  0  0  0  0  0  0  # atno 10763 bound_to 10752
  154.5739  135.5610  153.7124 H   0  0  0  0  0  0  0  0  0  0  0  0  # atno 10764 bound_to 10752
  153.0052  135.6328  154.2301 H   0  0  0  0  0  0  0  0  0  0  0  0  # atno 10765 bound_to 10752
  140.2157  134.3701  155.8028 H   0  0  0  0  0  0  0  0  0  0  0  0  # atno 11005 bound_to 11000
  145.6912  139.1639  143.2646 LP  0  0  0  0  0  0  0  0  0  0  0  0  # atno 17320 bound_to 7965
  146.1481  140.6963  142.9335 LP  0  0  0  0  0  0  0  0  0  0  0  0  # atno 17321 bound_to 7965
  139.9525  143.6255  152.3025 LP  0  0  0  0  0  0  0  0  0  0  0  0  # atno 17342 bound_to 10162
  139.6779  144.7657  151.1662 LP  0  0  0  0  0  0  0  0  0  0  0  0  # atno 17343 bound_to 10162
  156.2762  130.3728  149.7982 LP  0  0  0  0  0  0  0  0  0  0  0  0  # atno 17370 bound_to 10713
  156.5684  130.8414  151.3349 LP  0  0  0  0  0  0  0  0  0  0  0  0  # atno 17371 bound_to 10713
  141.2225  133.7167  156.8493 LP  0  0  0  0  0  0  0  0  0  0  0  0  # atno 17394 bound_to 11000
  140.1903  134.8970  157.3052 LP  0  0  0  0  0  0  0  0  0  0  0  0  # atno 17395 bound_to 11000

$$$$
