AV-unprocessed.smi:1050|AV-procd|sdf|4612|dock1
  -GOLD-   22720 3113D 1   1.00000     0.00000
 Structure written by MMmdl.
 48 49  0  0  0  0  0  0  0  0  1 V2000
  150.6601  144.6354  160.4306 C   0  0  0  0  0  0  0  0  0  0  0  0
  149.6470  144.2444  159.5100 O   0  0  0  0  0  0  0  0  0  0  0  0
  149.9406  143.2513  158.5981 C   0  0  0  0  0  0  0  0  0  0  0  0
  151.2823  142.8673  158.4246 C   0  0  0  0  0  0  0  0  0  0  0  0
  151.5824  141.8549  157.4956 C   0  0  0  0  0  0  0  0  0  0  0  0
  150.5297  141.2440  156.7717 C   0  0  0  0  0  0  0  0  0  0  0  0
  150.7467  140.2393  155.7844 N   0  0  0  0  0  0  0  0  0  0  0  0
  151.7962  139.4117  155.6296 C   0  0  0  0  0  0  0  0  0  0  0  0
  152.7923  139.4010  156.3525 O   0  0  0  0  0  0  0  0  0  0  0  0
  151.6905  138.4200  154.4584 C   0  0  2  0  0  0  0  0  0  0  0  0
  150.5228  137.4400  154.6504 C   0  0  0  0  0  0  0  0  0  0  0  0
  152.8856  137.6514  154.3461 O   0  0  0  0  0  0  0  0  0  0  0  0
  154.0712  138.4014  154.1129 C   0  0  0  0  0  0  0  0  0  0  0  0
  149.2074  141.7074  157.0037 C   0  0  0  0  0  0  0  0  0  0  0  0
  148.1196  141.1421  156.3101 N   0  0  0  0  0  0  0  0  0  0  0  0
  147.7743  139.7591  156.6449 C   0  0  0  0  0  0  0  0  0  0  0  0
  146.4481  139.3582  155.9737 C   0  0  0  0  0  0  0  0  0  0  0  0
  146.5658  139.5890  154.5278 N   0  0  0  0  0  0  0  0  0  0  0  0
  146.6100  138.6245  153.5782 C   0  0  0  0  0  0  0  0  0  0  0  0
  146.8165  139.0243  152.1156 C   0  0  0  0  0  0  0  0  0  0  0  0
  146.4893  137.4278  153.8397 O   0  0  0  0  0  0  0  0  0  0  0  0
  146.7832  141.0114  154.2324 C   0  0  0  0  0  0  0  0  0  0  0  0
  148.1055  141.4635  154.8826 C   0  0  0  0  0  0  0  0  0  0  0  0
  148.9287  142.6847  157.8990 N   0  0  0  0  0  0  0  0  0  0  0  0
  150.2760  145.4252  161.0760 H   0  0  0  0  0  0  0  0  0  0  0  0
  151.5380  145.0273  159.9147 H   0  0  0  0  0  0  0  0  0  0  0  0
  150.9618  143.8036  161.0691 H   0  0  0  0  0  0  0  0  0  0  0  0
  152.0695  143.3453  158.9888 H   0  0  0  0  0  0  0  0  0  0  0  0
  152.6152  141.5827  157.3467 H   0  0  0  0  0  0  0  0  0  0  0  0
  149.9692  140.0802  155.1599 H   0  0  0  0  0  0  0  0  0  0  0  0
  151.5230  138.9663  153.5279 H   0  0  0  0  0  0  0  0  0  0  0  0
  149.5753  137.9694  154.7579 H   0  0  0  0  0  0  0  0  0  0  0  0
  150.6613  136.8158  155.5342 H   0  0  0  0  0  0  0  0  0  0  0  0
  150.4321  136.7751  153.7912 H   0  0  0  0  0  0  0  0  0  0  0  0
  154.9070  137.7177  153.9658 H   0  0  0  0  0  0  0  0  0  0  0  0
  154.3210  139.0487  154.9541 H   0  0  0  0  0  0  0  0  0  0  0  0
  153.9796  139.0136  153.2149 H   0  0  0  0  0  0  0  0  0  0  0  0
  148.5697  139.0892  156.3147 H   0  0  0  0  0  0  0  0  0  0  0  0
  147.6913  139.6543  157.7273 H   0  0  0  0  0  0  0  0  0  0  0  0
  146.1968  138.3320  156.2371 H   0  0  0  0  0  0  0  0  0  0  0  0
  145.6329  139.9683  156.3660 H   0  0  0  0  0  0  0  0  0  0  0  0
  146.0236  139.6943  151.7813 H   0  0  0  0  0  0  0  0  0  0  0  0
  146.8017  138.1450  151.4706 H   0  0  0  0  0  0  0  0  0  0  0  0
  147.7793  139.5182  151.9828 H   0  0  0  0  0  0  0  0  0  0  0  0
  146.8068  141.2248  153.1631 H   0  0  0  0  0  0  0  0  0  0  0  0
  145.9510  141.5916  154.6339 H   0  0  0  0  0  0  0  0  0  0  0  0
  148.2430  142.5338  154.7285 H   0  0  0  0  0  0  0  0  0  0  0  0
  148.9472  140.9652  154.3996 H   0  0  0  0  0  0  0  0  0  0  0  0
  1  2  1  0  0  0  0
  1 25  1  0  0  0  0
  1 26  1  0  0  0  0
  1 27  1  0  0  0  0
  2  3  1  0  0  0  0
  3 24  1  0  0  0  0
  3  4  2  0  0  0  0
  4  5  1  0  0  0  0
  4 28  1  0  0  0  0
  5  6  2  0  0  0  0
  5 29  1  0  0  0  0
  6  7  1  0  0  0  0
  6 14  1  0  0  0  0
  7  8  1  0  0  0  0
  7 30  1  0  0  0  0
  8  9  2  0  0  0  0
  8 10  1  0  0  0  0
 10 11  1  0  0  0  0
 10 12  1  0  0  0  0
 10 31  1  0  0  0  0
 11 32  1  0  0  0  0
 11 33  1  0  0  0  0
 11 34  1  0  0  0  0
 12 13  1  0  0  0  0
 13 35  1  0  0  0  0
 13 36  1  0  0  0  0
 13 37  1  0  0  0  0
 14 15  1  0  0  0  0
 14 24  2  0  0  0  0
 15 23  1  0  0  0  0
 15 16  1  0  0  0  0
 16 17  1  0  0  0  0
 16 38  1  0  0  0  0
 16 39  1  0  0  0  0
 17 18  1  0  0  0  0
 17 40  1  0  0  0  0
 17 41  1  0  0  0  0
 18 19  1  0  0  0  0
 18 22  1  0  0  0  0
 19 20  1  0  0  0  0
 19 21  2  0  0  0  0
 20 42  1  0  0  0  0
 20 43  1  0  0  0  0
 20 44  1  0  0  0  0
 22 23  1  0  0  0  0
 22 45  1  0  0  0  0
 22 46  1  0  0  0  0
 23 47  1  0  0  0  0
 23 48  1  0  0  0  0
M  END
> <s_m_source_file>
AV-unprocessed.smi

> <i_m_source_file_index>
1050

> <i_lp_mmshare_version>
43012

> <i_f3d_flags>
0

> <s_epik_input>
W0NIM11PYzFbY0hdW2NIXWMoW05IXUMoPU8pW0NASF0oW0NIM10pT1tDSDNdKWMobjEpTjJbQ0gyXVtDSDJdTihDKD1PKVtDSDNdKVtDSDJdW0NIMl0y

> <s_epik_cmdline>
J2VwaWtfcHl0aG9uJywgJy1waCcsICc3LjAnLCAnLXRuJywgJzgnLCAnLW1hJywgJzIwMCcsICctbWV0YWxfYmluZGluZycsICctaW1hZScsICc8aW5maWxlLm1hZT4nLCAnLW9tYWUnLCAnPG91dGZpbGUubWFlPic=

> <r_lp_tautomer_probability>
1

> <r_epik_Ionization_Penalty>
0.000150604

> <r_epik_Ionization_Penalty_Charging>
0

> <r_epik_Ionization_Penalty_Neutral>
0.000150604

> <r_epik_State_Penalty>
-0

> <r_epik_Charging_Adjusted_Penalty>
0

> <i_epik_Tot_Q>
0

> <i_epik_Tot_abs_Q>
0

> <r_epik_Metal_State_Penalty>
-0

> <b_epik_Metal_Only>
0

> <s_lp_Force_Field>
OPLS_2005

> <r_lp_Energy>
41.1233

> <b_lp_Chiralities_Consistent>
1

> <s_lp_Variant>
AV-unprocessed.smi:1050-1

> <Gold.Version>
5.8.1

> <Gold.Id.Protein>
6NUR|6NUR_protein|mol2

> <Gold.PLP.Fitness>
35.8849

> <Gold.PLP.PLP>
-32.3673

> <Gold.PLP.part.hbond>
-2.0000

> <Gold.PLP.part.metal>
0.0000

> <Gold.PLP.part.buried>
-6.1804

> <Gold.PLP.part.nonpolar>
-26.1709

> <Gold.PLP.part.repulsive>
1.6442

> <Gold.PLP.ligand.clash>
0.1643

> <Gold.PLP.ligand.torsion>
0.4309

> <Gold.PLP.Chemscore.Hbond>
1.4000

> <Gold.PLP.Chemscore.CHOScore>
0.0000

> <Gold.PLP.Chemscore.Metal>
0.0000

> <Gold.Chemscore.Hbonds>
donor molecule, donor type, donor heavy atom, donor atom, acceptor molecule, acceptor atom, score
      P1  H  7997  8010       L1     9  1.00
      P1  H 10752 10763       L1    12  0.40

> <Gold.PLP.Chemscore.Internal.Correction>
0.3437

> <Gold.Rescore>
     Score         DG    S(hbond)    S(metal)    S(lipo)     H(rot)  DE(clash)    DE(int)     intcor
     10.86     -14.61       1.29        0.00      78.67       1.71       0.36       3.38       ----

> <Gold.Chemscore.Fitness>
10.8638

> <Gold.Chemscore.DG>
-14.6064

> <Gold.Chemscore.ZeroCoef>
-5.4800

> <Gold.Chemscore.Hbond>
1.2878

> <Gold.Chemscore.Metal>
0.0000

> <Gold.Chemscore.Lipo>
78.6696

> <Gold.Chemscore.Internal_Hbond>
0.0000

> <Gold.Chemscore.DEClash>
0.3598

> <Gold.Chemscore.DEInternal>
3.3829

> <Gold.Chemscore.Rot>
1.7106

> <Gold.Chemscore.Internal.Correction>
   9.000000E+99

> <Gold.Chemscore.Hbonds>
donor molecule, donor type, donor heavy atom, donor atom, acceptor molecule, acceptor atom, score
      P1  H  7997  8010       L1     9  1.00
      P1  H 10752 10763       L1    12  0.38

> <Gold.Chemscore.Hbond.Weighted>
-4.3011

> <Gold.Chemscore.Metal.Weighted>
-0.0000

> <Gold.Chemscore.Lipo.Weighted>
-9.2043

> <Gold.Chemscore.Internal_Hbond.Weighted>
0.0000

> <Gold.Chemscore.DEClash.Weighted>
0.3598

> <Gold.Chemscore.DEInternal.Weighted>
3.3829

> <Gold.Chemscore.Rot.Weighted>
4.3790

> <Gold.Chemscore.Internal.Correction.Weighted>
   9.000000E+99

> <Gold.Protein.RotatedTorsions>
[ 6907 6896 6895 6894 ] final  163.14 input  -60.11 | X-H torsion
[ 7974 7965 7964 7962 ] final -166.49 input  175.53 | X-H torsion
[ 8008 7997 7996 7995 ] final   65.87 input   59.86 | X-H torsion
[ 10167 10162 10161 10158 ] final  -43.79 input  -65.29 | X-H torsion
[ 10718 10713 10712 10709 ] final -155.25 input   66.30 | X-H torsion
[ 10763 10752 10751 10750 ] final   38.65 input  -60.55 | X-H torsion
[ 11005 11000 10999 10996 ] final  149.90 input  -57.11 | X-H torsion

> <Gold.Protein.ActiveResidues>
 VAL166  LYS551  ARG553  GLY616  TRP617  ASP618  TYR619  PRO620  LYS621  CYS622 
 ASP623  PHE694  ASN695  SER759  ASP760  ASP761  ALA762  ILE779  LEU786  VAL792 
 PHE793  MET794  SER795  GLU796  ALA797  LYS798  CYS799  TRP800  GLU811  SER814 

> <Gold.Protein.RotatedAtoms>
  151.9297  133.3608  159.3926 H   0  0  0  0  0  0  0  0  0  0  0  0  # atno 6907 bound_to 6896
  150.7019  134.4550  159.5363 H   0  0  0  0  0  0  0  0  0  0  0  0  # atno 6908 bound_to 6896
  152.2188  134.8432  160.0539 H   0  0  0  0  0  0  0  0  0  0  0  0  # atno 6909 bound_to 6896
  144.7244  140.2658  143.6258 H   0  0  0  0  0  0  0  0  0  0  0  0  # atno 7974 bound_to 7965
  155.6685  140.3497  155.4809 H   0  0  0  0  0  0  0  0  0  0  0  0  # atno 8008 bound_to 7997
  155.9708  140.1155  157.0837 H   0  0  0  0  0  0  0  0  0  0  0  0  # atno 8009 bound_to 7997
  154.4166  140.1157  156.5290 H   0  0  0  0  0  0  0  0  0  0  0  0  # atno 8010 bound_to 7997
  140.6921  143.2964  151.3403 H   0  0  0  0  0  0  0  0  0  0  0  0  # atno 10167 bound_to 10162
  156.5103  130.8432  151.2644 H   0  0  0  0  0  0  0  0  0  0  0  0  # atno 10718 bound_to 10713
  152.9993  135.6243  154.2339 H   0  0  0  0  0  0  0  0  0  0  0  0  # atno 10763 bound_to 10752
  154.2081  135.2801  155.2969 H   0  0  0  0  0  0  0  0  0  0  0  0  # atno 10764 bound_to 10752
  154.5629  135.5700  153.7083 H   0  0  0  0  0  0  0  0  0  0  0  0  # atno 10765 bound_to 10752
  140.1084  134.8939  157.1900 H   0  0  0  0  0  0  0  0  0  0  0  0  # atno 11005 bound_to 11000
  145.8091  139.1996  143.2003 LP  0  0  0  0  0  0  0  0  0  0  0  0  # atno 17320 bound_to 7965
  146.0611  140.7969  142.9734 LP  0  0  0  0  0  0  0  0  0  0  0  0  # atno 17321 bound_to 7965
  139.6334  144.0676  152.2495 LP  0  0  0  0  0  0  0  0  0  0  0  0  # atno 17342 bound_to 10162
  140.0159  144.6189  150.7608 LP  0  0  0  0  0  0  0  0  0  0  0  0  # atno 17343 bound_to 10162
  157.7451  130.9952  150.2734 LP  0  0  0  0  0  0  0  0  0  0  0  0  # atno 17370 bound_to 10713
  156.3246  130.3791  149.7544 LP  0  0  0  0  0  0  0  0  0  0  0  0  # atno 17371 bound_to 10713
  140.3124  134.3009  155.7264 LP  0  0  0  0  0  0  0  0  0  0  0  0  # atno 17394 bound_to 11000
  141.2124  133.7658  156.9795 LP  0  0  0  0  0  0  0  0  0  0  0  0  # atno 17395 bound_to 11000

$$$$
