AV-unprocessed.smi:748|AV-procd|sdf|3583|dock1
  -GOLD-   22720 0573D 1   1.00000     0.00000
 Structure written by MMmdl.
 50 51  0  0  0  0  0  0  0  0  1 V2000
  154.1413  131.2351  156.4219 C   0  0  0  0  0  0  0  0  0  0  0  0
  152.9172  130.3719  156.0788 C   0  0  0  0  0  0  0  0  0  0  0  0
  153.2264  129.3685  154.9597 C   0  0  0  0  0  0  0  0  0  0  0  0
  151.7960  131.2170  155.6776 N   0  0  0  0  0  0  0  0  0  0  0  0
  151.2890  132.2321  156.3948 C   0  0  0  0  0  0  0  0  0  0  0  0
  151.7216  132.5609  157.5001 O   0  0  0  0  0  0  0  0  0  0  0  0
  150.1152  132.9826  155.7584 C   0  0  0  0  0  0  0  0  0  0  0  0
  149.5353  134.0862  156.6650 C   0  0  0  0  0  0  0  0  0  0  0  0
  150.1816  135.3701  156.4205 N   0  0  0  0  0  0  0  0  0  0  0  0
  150.3694  136.3266  157.3441 C   0  0  0  0  0  0  0  0  0  0  0  0
  150.0250  136.2119  158.5210 O   0  0  0  0  0  0  0  0  0  0  0  0
  151.1049  137.5481  156.8721 C   0  0  0  0  0  0  0  0  0  0  0  0
  151.4243  137.7371  155.5093 C   0  0  0  0  0  0  0  0  0  0  0  0
  152.1040  138.9110  155.1369 C   0  0  0  0  0  0  0  0  0  0  0  0
  152.4586  139.8719  156.0144 N   0  0  0  0  0  0  0  0  0  0  0  0
  152.1419  139.7135  157.3230 C   0  0  0  0  0  0  0  0  0  0  0  0
  152.5076  140.7319  158.2294 N   0  0  0  0  0  0  0  0  0  0  0  0
  152.8306  140.2846  159.5815 C   0  0  0  0  0  0  0  0  0  0  0  0
  153.5003  141.4197  160.3741 C   0  0  0  0  0  0  0  0  0  0  0  0
  152.6722  142.5780  160.3524 O   0  0  0  0  0  0  0  0  0  0  0  0
  152.4644  143.0644  159.0293 C   0  0  2  0  0  0  0  0  0  0  0  0
  151.6470  144.3576  159.1127 C   0  0  0  0  0  0  0  0  0  0  0  0
  151.7495  141.9808  158.2000 C   0  0  0  0  0  0  0  0  0  0  0  0
  151.4654  138.5609  157.7877 C   0  0  0  0  0  0  0  0  0  0  0  0
  154.9825  130.6146  156.7319 H   0  0  0  0  0  0  0  0  0  0  0  0
  153.9242  131.9235  157.2393 H   0  0  0  0  0  0  0  0  0  0  0  0
  154.4630  131.8274  155.5646 H   0  0  0  0  0  0  0  0  0  0  0  0
  152.6354  129.8013  156.9655 H   0  0  0  0  0  0  0  0  0  0  0  0
  154.0442  128.7057  155.2436 H   0  0  0  0  0  0  0  0  0  0  0  0
  153.5142  129.8754  154.0381 H   0  0  0  0  0  0  0  0  0  0  0  0
  152.3593  128.7443  154.7409 H   0  0  0  0  0  0  0  0  0  0  0  0
  151.3768  131.0174  154.7809 H   0  0  0  0  0  0  0  0  0  0  0  0
  150.4540  133.4194  154.8179 H   0  0  0  0  0  0  0  0  0  0  0  0
  149.3379  132.2603  155.5064 H   0  0  0  0  0  0  0  0  0  0  0  0
  148.4685  134.2084  156.4743 H   0  0  0  0  0  0  0  0  0  0  0  0
  149.6334  133.8148  157.7179 H   0  0  0  0  0  0  0  0  0  0  0  0
  150.5178  135.5439  155.4844 H   0  0  0  0  0  0  0  0  0  0  0  0
  151.1590  137.0083  154.7572 H   0  0  0  0  0  0  0  0  0  0  0  0
  152.3678  139.0854  154.1042 H   0  0  0  0  0  0  0  0  0  0  0  0
  151.9098  139.9765  160.0786 H   0  0  0  0  0  0  0  0  0  0  0  0
  153.4910  139.4187  159.5748 H   0  0  0  0  0  0  0  0  0  0  0  0
  153.6545  141.1135  161.4088 H   0  0  0  0  0  0  0  0  0  0  0  0
  154.4832  141.6540  159.9622 H   0  0  0  0  0  0  0  0  0  0  0  0
  153.4312  143.2944  158.5774 H   0  0  0  0  0  0  0  0  0  0  0  0
  151.4747  144.7765  158.1209 H   0  0  0  0  0  0  0  0  0  0  0  0
  152.1678  145.1101  159.7051 H   0  0  0  0  0  0  0  0  0  0  0  0
  150.6758  144.1819  159.5761 H   0  0  0  0  0  0  0  0  0  0  0  0
  151.6368  142.3270  157.1716 H   0  0  0  0  0  0  0  0  0  0  0  0
  150.7489  141.8027  158.5965 H   0  0  0  0  0  0  0  0  0  0  0  0
  151.2383  138.4422  158.8372 H   0  0  0  0  0  0  0  0  0  0  0  0
  1  2  1  0  0  0  0
  1 25  1  0  0  0  0
  1 26  1  0  0  0  0
  1 27  1  0  0  0  0
  2  3  1  0  0  0  0
  2  4  1  0  0  0  0
  2 28  1  0  0  0  0
  3 29  1  0  0  0  0
  3 30  1  0  0  0  0
  3 31  1  0  0  0  0
  4  5  1  0  0  0  0
  4 32  1  0  0  0  0
  5  6  2  0  0  0  0
  5  7  1  0  0  0  0
  7  8  1  0  0  0  0
  7 33  1  0  0  0  0
  7 34  1  0  0  0  0
  8  9  1  0  0  0  0
  8 35  1  0  0  0  0
  8 36  1  0  0  0  0
  9 10  1  0  0  0  0
  9 37  1  0  0  0  0
 10 11  2  0  0  0  0
 10 12  1  0  0  0  0
 12 24  1  0  0  0  0
 12 13  2  0  0  0  0
 13 14  1  0  0  0  0
 13 38  1  0  0  0  0
 14 15  2  0  0  0  0
 14 39  1  0  0  0  0
 15 16  1  0  0  0  0
 16 17  1  0  0  0  0
 16 24  2  0  0  0  0
 17 23  1  0  0  0  0
 17 18  1  0  0  0  0
 18 19  1  0  0  0  0
 18 40  1  0  0  0  0
 18 41  1  0  0  0  0
 19 20  1  0  0  0  0
 19 42  1  0  0  0  0
 19 43  1  0  0  0  0
 20 21  1  0  0  0  0
 21 22  1  0  0  0  0
 21 23  1  0  0  0  0
 21 44  1  0  0  0  0
 22 45  1  0  0  0  0
 22 46  1  0  0  0  0
 22 47  1  0  0  0  0
 23 48  1  0  0  0  0
 23 49  1  0  0  0  0
 24 50  1  0  0  0  0
M  END
> <s_m_source_file>
AV-unprocessed.smi

> <i_m_source_file_index>
748

> <i_lp_mmshare_version>
43012

> <i_f3d_flags>
0

> <s_epik_input>
W0NIM11bQ0hdKFtDSDNdKVtOSF1DKD1PKVtDSDJdW0NIMl1bTkhdQyg9TyljMVtjSF1bY0hdbmMoW2NIXTEpTjJbQ0gyXVtDSDJdT1tDQEBIXShbQ0gzXSlbQ0gyXTI=

> <s_epik_cmdline>
J2VwaWtfcHl0aG9uJywgJy1waCcsICc3LjAnLCAnLXRuJywgJzgnLCAnLW1hJywgJzIwMCcsICctbWV0YWxfYmluZGluZycsICctaW1hZScsICc8aW5maWxlLm1hZT4nLCAnLW9tYWUnLCAnPG91dGZpbGUubWFlPic=

> <r_lp_tautomer_probability>
1

> <r_epik_Ionization_Penalty>
1.38678e-05

> <r_epik_Ionization_Penalty_Charging>
0

> <r_epik_Ionization_Penalty_Neutral>
1.38678e-05

> <r_epik_State_Penalty>
-0

> <r_epik_Charging_Adjusted_Penalty>
0

> <i_epik_Tot_Q>
0

> <i_epik_Tot_abs_Q>
0

> <r_epik_Metal_State_Penalty>
-0

> <b_epik_Metal_Only>
0

> <s_lp_Force_Field>
OPLS_2005

> <r_lp_Energy>
15.3694

> <b_lp_Chiralities_Consistent>
1

> <s_lp_Variant>
AV-unprocessed.smi:748-2

> <Gold.Version>
5.8.1

> <Gold.Id.Protein>
6NUR|6NUR_protein|mol2

> <Gold.PLP.Fitness>
46.4373

> <Gold.PLP.PLP>
-38.8881

> <Gold.PLP.part.hbond>
-3.4740

> <Gold.PLP.part.metal>
0.0000

> <Gold.PLP.part.buried>
-4.4166

> <Gold.PLP.part.nonpolar>
-30.1947

> <Gold.PLP.part.repulsive>
0.1162

> <Gold.PLP.ligand.clash>
0.0000

> <Gold.PLP.ligand.torsion>
0.9547

> <Gold.PLP.Chemscore.Hbond>
3.0000

> <Gold.PLP.Chemscore.CHOScore>
0.0000

> <Gold.PLP.Chemscore.Metal>
0.0000

> <Gold.Chemscore.Hbonds>
donor molecule, donor type, donor heavy atom, donor atom, acceptor molecule, acceptor atom, score
      P1  H  6896  6907       L1    11  1.00
      P1  H  6896  6909       L1     6  1.00
      P1  H  7997  8009       L1    15  0.96

> <Gold.PLP.Chemscore.Internal.Correction>
0.4586

> <Gold.Rescore>
     Score         DG    S(hbond)    S(metal)    S(lipo)     H(rot)  DE(clash)    DE(int)     intcor
     19.76     -20.73       2.62        0.00      96.37       1.87       0.00       0.98       ----

> <Gold.Chemscore.Fitness>
19.7555

> <Gold.Chemscore.DG>
-20.7347

> <Gold.Chemscore.ZeroCoef>
-5.4800

> <Gold.Chemscore.Hbond>
2.6242

> <Gold.Chemscore.Metal>
0.0000

> <Gold.Chemscore.Lipo>
96.3671

> <Gold.Chemscore.Internal_Hbond>
0.0000

> <Gold.Chemscore.DEClash>
0.0009

> <Gold.Chemscore.DEInternal>
0.9783

> <Gold.Chemscore.Rot>
1.8692

> <Gold.Chemscore.Internal.Correction>
   9.000000E+99

> <Gold.Chemscore.Hbonds>
donor molecule, donor type, donor heavy atom, donor atom, acceptor molecule, acceptor atom, score
      P1  H  6896  6907       L1    11  0.92
      P1  H  6896  6909       L1     6  0.96
      P1  H  7997  8009       L1    15  0.42

> <Gold.Chemscore.Hbond.Weighted>
-8.7649

> <Gold.Chemscore.Metal.Weighted>
-0.0000

> <Gold.Chemscore.Lipo.Weighted>
-11.2750

> <Gold.Chemscore.Internal_Hbond.Weighted>
0.0000

> <Gold.Chemscore.DEClash.Weighted>
0.0009

> <Gold.Chemscore.DEInternal.Weighted>
0.9783

> <Gold.Chemscore.Rot.Weighted>
4.7852

> <Gold.Chemscore.Internal.Correction.Weighted>
   9.000000E+99

> <Gold.Protein.RotatedTorsions>
[ 6907 6896 6895 6894 ] final  -60.23 input  -60.11 | X-H torsion
[ 7974 7965 7964 7962 ] final  -79.14 input  175.53 | X-H torsion
[ 8008 7997 7996 7995 ] final -136.89 input   59.86 | X-H torsion
[ 10167 10162 10161 10158 ] final -131.76 input  -65.29 | X-H torsion
[ 10718 10713 10712 10709 ] final -105.74 input   66.30 | X-H torsion
[ 10763 10752 10751 10750 ] final   39.76 input  -60.55 | X-H torsion
[ 11005 11000 10999 10996 ] final -162.17 input  -57.11 | X-H torsion

> <Gold.Protein.ActiveResidues>
 VAL166  LYS551  ARG553  GLY616  TRP617  ASP618  TYR619  PRO620  LYS621  CYS622 
 ASP623  PHE694  ASN695  SER759  ASP760  ASP761  ALA762  ILE779  LEU786  VAL792 
 PHE793  MET794  SER795  GLU796  ALA797  LYS798  CYS799  TRP800  GLU811  SER814 

> <Gold.Protein.RotatedAtoms>
  150.7872  134.6865  159.6472 H   0  0  0  0  0  0  0  0  0  0  0  0  # atno 6907 bound_to 6896
  152.3970  134.6346  160.0094 H   0  0  0  0  0  0  0  0  0  0  0  0  # atno 6908 bound_to 6896
  151.6629  133.3279  159.3214 H   0  0  0  0  0  0  0  0  0  0  0  0  # atno 6909 bound_to 6896
  145.5772  140.9455  143.1364 H   0  0  0  0  0  0  0  0  0  0  0  0  # atno 7974 bound_to 7965
  155.4027  140.0507  157.3036 H   0  0  0  0  0  0  0  0  0  0  0  0  # atno 8008 bound_to 7997
  154.4983  140.2147  155.9360 H   0  0  0  0  0  0  0  0  0  0  0  0  # atno 8009 bound_to 7997
  156.1434  140.3150  155.8537 H   0  0  0  0  0  0  0  0  0  0  0  0  # atno 8010 bound_to 7997
  139.9156  143.6442  152.2565 H   0  0  0  0  0  0  0  0  0  0  0  0  # atno 10167 bound_to 10162
  156.0359  130.5578  150.7581 H   0  0  0  0  0  0  0  0  0  0  0  0  # atno 10718 bound_to 10713
  152.9957  135.6211  154.2516 H   0  0  0  0  0  0  0  0  0  0  0  0  # atno 10763 bound_to 10752
  154.2255  135.2794  155.2911 H   0  0  0  0  0  0  0  0  0  0  0  0  # atno 10764 bound_to 10752
  154.5493  135.5738  153.6966 H   0  0  0  0  0  0  0  0  0  0  0  0  # atno 10765 bound_to 10752
  140.6123  134.4837  157.5216 H   0  0  0  0  0  0  0  0  0  0  0  0  # atno 11005 bound_to 11000
  144.7411  139.7448  143.7310 LP  0  0  0  0  0  0  0  0  0  0  0  0  # atno 17320 bound_to 7965
  146.1742  139.4906  142.9908 LP  0  0  0  0  0  0  0  0  0  0  0  0  # atno 17321 bound_to 7965
  139.6905  144.7647  151.1447 LP  0  0  0  0  0  0  0  0  0  0  0  0  # atno 17342 bound_to 10162
  140.7675  143.5596  150.9114 LP  0  0  0  0  0  0  0  0  0  0  0  0  # atno 17343 bound_to 10162
  157.5108  131.0925  151.0200 LP  0  0  0  0  0  0  0  0  0  0  0  0  # atno 17370 bound_to 10713
  157.0556  130.5805  149.5377 LP  0  0  0  0  0  0  0  0  0  0  0  0  # atno 17371 bound_to 10713
  139.9187  134.8193  156.1281 LP  0  0  0  0  0  0  0  0  0  0  0  0  # atno 17394 bound_to 11000
  141.0800  133.6758  156.2316 LP  0  0  0  0  0  0  0  0  0  0  0  0  # atno 17395 bound_to 11000

$$$$
