AV-unprocessed.smi:2021|AV-procd|sdf|8186|dock9
  -GOLD-   2272010443D 1   1.00000     0.00000
 Structure written by MMmdl.
 40 41  0  0  0  0  0  0  0  0  2 V2000
  153.0810  142.4976  159.5663 C   0  0  0  0  0  0  0  0  0  0  0  0
  152.1410  143.2055  158.5755 C   0  0  0  0  0  0  0  0  0  0  0  0
  151.8262  144.6239  159.0760 C   0  0  0  0  0  0  0  0  0  0  0  0
  150.8418  142.4001  158.3398 C   0  0  0  0  0  0  0  0  0  0  0  0
  151.0156  141.0930  157.7049 N   0  0  0  0  0  0  0  0  0  0  0  0
  151.4073  141.2420  156.3078 C   0  0  0  0  0  0  0  0  0  0  0  0
  151.5976  139.8827  155.6157 C   0  0  0  0  0  0  0  0  0  0  0  0
  150.3981  139.1253  155.7280 O   0  0  0  0  0  0  0  0  0  0  0  0
  150.0069  138.9001  157.0806 C   0  0  2  0  0  0  0  0  0  0  0  0
  148.7156  138.0698  157.0873 C   0  0  0  0  0  0  0  0  0  0  0  0
  148.1564  137.9926  158.4307 N   0  0  0  0  0  0  0  0  0  0  0  0
  148.4150  137.0232  159.3178 C   0  0  0  0  0  0  0  0  0  0  0  0
  149.1830  136.1062  159.0175 O   0  0  0  0  0  0  0  0  0  0  0  0
  147.7699  137.1755  160.4970 N   0  5  0  0  0  0  0  0  0  0  0  0
  147.2591  136.1045  161.1265 C   0  0  0  0  0  0  0  0  0  0  0  0
  146.7407  135.0593  160.4615 N   0  0  0  0  0  0  0  0  0  0  0  0
  146.2630  134.0609  161.2997 N   0  0  0  0  0  0  0  0  0  0  0  0
  146.4263  134.3846  162.5822 C   0  0  0  0  0  0  0  0  0  0  0  0
  147.1748  135.9388  162.8827 S   0  0  0  0  0  0  0  0  0  0  0  0
  149.8150  140.2633  157.7753 C   0  0  0  0  0  0  0  0  0  0  0  0
  152.6197  142.4042  160.5500 H   0  0  0  0  0  0  0  0  0  0  0  0
  154.0106  143.0538  159.6892 H   0  0  0  0  0  0  0  0  0  0  0  0
  153.3445  141.4951  159.2319 H   0  0  0  0  0  0  0  0  0  0  0  0
  152.6653  143.3173  157.6254 H   0  0  0  0  0  0  0  0  0  0  0  0
  151.2909  144.6002  160.0256 H   0  0  0  0  0  0  0  0  0  0  0  0
  151.2099  145.1655  158.3580 H   0  0  0  0  0  0  0  0  0  0  0  0
  152.7391  145.2015  159.2226 H   0  0  0  0  0  0  0  0  0  0  0  0
  150.2923  142.2915  159.2762 H   0  0  0  0  0  0  0  0  0  0  0  0
  150.1906  142.9949  157.6975 H   0  0  0  0  0  0  0  0  0  0  0  0
  150.6503  141.8153  155.7705 H   0  0  0  0  0  0  0  0  0  0  0  0
  152.3349  141.8116  156.2411 H   0  0  0  0  0  0  0  0  0  0  0  0
  151.8331  140.0234  154.5608 H   0  0  0  0  0  0  0  0  0  0  0  0
  152.4285  139.3331  156.0608 H   0  0  0  0  0  0  0  0  0  0  0  0
  150.7934  138.3428  157.5933 H   0  0  0  0  0  0  0  0  0  0  0  0
  147.9780  138.5265  156.4256 H   0  0  0  0  0  0  0  0  0  0  0  0
  148.9095  137.0645  156.7099 H   0  0  0  0  0  0  0  0  0  0  0  0
  147.5267  138.7306  158.7101 H   0  0  0  0  0  0  0  0  0  0  0  0
  146.1006  133.7057  163.3560 H   0  0  0  0  0  0  0  0  0  0  0  0
  149.5479  140.0830  158.8160 H   0  0  0  0  0  0  0  0  0  0  0  0
  148.9747  140.7902  157.3206 H   0  0  0  0  0  0  0  0  0  0  0  0
  1  2  1  0  0  0  0
  1 21  1  0  0  0  0
  1 22  1  0  0  0  0
  1 23  1  0  0  0  0
  2  3  1  0  0  0  0
  2  4  1  0  0  0  0
  2 24  1  0  0  0  0
  3 25  1  0  0  0  0
  3 26  1  0  0  0  0
  3 27  1  0  0  0  0
  4  5  1  0  0  0  0
  4 28  1  0  0  0  0
  4 29  1  0  0  0  0
  5 20  1  0  0  0  0
  5  6  1  0  0  0  0
  6  7  1  0  0  0  0
  6 30  1  0  0  0  0
  6 31  1  0  0  0  0
  7  8  1  0  0  0  0
  7 32  1  0  0  0  0
  7 33  1  0  0  0  0
  8  9  1  0  0  0  0
  9 10  1  0  0  0  0
  9 20  1  0  0  0  0
  9 34  1  0  0  0  0
 10 11  1  0  0  0  0
 10 35  1  0  0  0  0
 10 36  1  0  0  0  0
 11 12  1  0  0  0  0
 11 37  1  0  0  0  0
 12 13  2  0  0  0  0
 12 14  1  0  0  0  0
 14 15  1  0  0  0  0
 15 19  1  0  0  0  0
 15 16  2  0  0  0  0
 16 17  1  0  0  0  0
 17 18  2  0  0  0  0
 18 19  1  0  0  0  0
 18 38  1  0  0  0  0
 20 39  1  0  0  0  0
 20 40  1  0  0  0  0
M  CHG  1  14  -1
M  END
> <s_m_source_file>
AV-unprocessed.smi

> <i_m_source_file_index>
2021

> <i_lp_mmshare_version>
43012

> <i_f3d_flags>
0

> <s_epik_input>
W0NIM11bQ0hdKFtDSDNdKVtDSDJdTjFbQ0gyXVtDSDJdT1tDQEhdKFtDSDJdMSlbQ0gyXVtOSF1DKD1PKVtOSF1jMm5uW2NIXXMy

> <s_epik_cmdline>
J2VwaWtfcHl0aG9uJywgJy1waCcsICc3LjAnLCAnLXRuJywgJzgnLCAnLW1hJywgJzIwMCcsICctbWV0YWxfYmluZGluZycsICctaW1hZScsICc8aW5maWxlLm1hZT4nLCAnLW9tYWUnLCAnPG91dGZpbGUubWFlPic=

> <r_lp_tautomer_probability>
1

> <r_epik_Ionization_Penalty>
4.44864

> <r_epik_Ionization_Penalty_Charging>
3.27383

> <r_epik_Ionization_Penalty_Neutral>
1.17482

> <r_epik_State_Penalty>
4.44168

> <r_epik_Charging_Adjusted_Penalty>
7.7155

> <i_epik_Tot_Q>
-1

> <i_epik_Tot_abs_Q>
1

> <r_epik_Metal_State_Penalty>
1.66628

> <b_epik_Metal_Only>
1

> <s_lp_Force_Field>
OPLS_2005

> <r_lp_Energy>
22.4741

> <b_lp_Chiralities_Consistent>
1

> <s_lp_Variant>
AV-unprocessed.smi:2021-12

> <Gold.Version>
5.8.1

> <Gold.Id.Protein>
6NUR|6NUR_protein|mol2

> <Gold.PLP.Fitness>
48.3137

> <Gold.PLP.PLP>
-37.4464

> <Gold.PLP.part.hbond>
-3.0000

> <Gold.PLP.part.metal>
0.0000

> <Gold.PLP.part.buried>
-4.9040

> <Gold.PLP.part.nonpolar>
-30.3609

> <Gold.PLP.part.repulsive>
0.1863

> <Gold.PLP.ligand.clash>
0.0000

> <Gold.PLP.ligand.torsion>
0.8478

> <Gold.PLP.Chemscore.Hbond>
4.1680

> <Gold.PLP.Chemscore.CHOScore>
0.0000

> <Gold.PLP.Chemscore.Metal>
0.0000

> <Gold.Chemscore.Hbonds>
donor molecule, donor type, donor heavy atom, donor atom, acceptor molecule, acceptor atom, score
      P1  H  6896  6908       L1    13  0.67
      P1  H  6931  6943       L1    14  0.98
      P1  H  6934  6947       L1    14  1.76

> <Gold.PLP.Chemscore.Internal.Correction>
0.0589

> <Gold.Rescore>
     Score         DG    S(hbond)    S(metal)    S(lipo)     H(rot)  DE(clash)    DE(int)     intcor
     17.27     -18.20       2.22        0.00      84.84       1.81       0.04       0.90       ----

> <Gold.Chemscore.Fitness>
17.2688

> <Gold.Chemscore.DG>
-18.2017

> <Gold.Chemscore.ZeroCoef>
-5.4800

> <Gold.Chemscore.Hbond>
2.2207

> <Gold.Chemscore.Metal>
0.0000

> <Gold.Chemscore.Lipo>
84.8448

> <Gold.Chemscore.Internal_Hbond>
0.0000

> <Gold.Chemscore.DEClash>
0.0359

> <Gold.Chemscore.DEInternal>
0.8971

> <Gold.Chemscore.Rot>
1.8056

> <Gold.Chemscore.Internal.Correction>
   9.000000E+99

> <Gold.Chemscore.Hbonds>
donor molecule, donor type, donor heavy atom, donor atom, acceptor molecule, acceptor atom, score
      P1  H  6896  6908       L1    13  0.67
      P1  H  6931  6943       L1    14  0.26
      P1  H  6934  6947       L1    14  0.75

> <Gold.Chemscore.Hbond.Weighted>
-7.4173

> <Gold.Chemscore.Metal.Weighted>
-0.0000

> <Gold.Chemscore.Lipo.Weighted>
-9.9268

> <Gold.Chemscore.Internal_Hbond.Weighted>
0.0000

> <Gold.Chemscore.DEClash.Weighted>
0.0359

> <Gold.Chemscore.DEInternal.Weighted>
0.8971

> <Gold.Chemscore.Rot.Weighted>
4.6224

> <Gold.Chemscore.Internal.Correction.Weighted>
   9.000000E+99

> <Gold.Protein.RotatedTorsions>
[ 6907 6896 6895 6894 ] final -176.50 input  -60.11 | X-H torsion
[ 7974 7965 7964 7962 ] final   62.90 input  175.53 | X-H torsion
[ 8008 7997 7996 7995 ] final   -8.67 input   59.86 | X-H torsion
[ 10167 10162 10161 10158 ] final -158.42 input  -65.29 | X-H torsion
[ 10718 10713 10712 10709 ] final   48.53 input   66.30 | X-H torsion
[ 10763 10752 10751 10750 ] final   80.32 input  -60.55 | X-H torsion
[ 11005 11000 10999 10996 ] final  141.61 input  -57.11 | X-H torsion

> <Gold.Protein.ActiveResidues>
 VAL166  LYS551  ARG553  GLY616  TRP617  ASP618  TYR619  PRO620  LYS621  CYS622 
 ASP623  PHE694  ASN695  SER759  ASP760  ASP761  ALA762  ILE779  LEU786  VAL792 
 PHE793  MET794  SER795  GLU796  ALA797  LYS798  CYS799  TRP800  GLU811  SER814 

> <Gold.Protein.RotatedAtoms>
  151.6058  133.3352  159.3056 H   0  0  0  0  0  0  0  0  0  0  0  0  # atno 6907 bound_to 6896
  150.8183  134.7381  159.6761 H   0  0  0  0  0  0  0  0  0  0  0  0  # atno 6908 bound_to 6896
  152.4278  134.5841  160.0007 H   0  0  0  0  0  0  0  0  0  0  0  0  # atno 6909 bound_to 6896
  145.8680  139.3359  143.0779 H   0  0  0  0  0  0  0  0  0  0  0  0  # atno 7974 bound_to 7965
  154.5719  140.2375  155.8179 H   0  0  0  0  0  0  0  0  0  0  0  0  # atno 8008 bound_to 7997
  156.2113  140.3025  155.9697 H   0  0  0  0  0  0  0  0  0  0  0  0  # atno 8009 bound_to 7997
  155.2697  140.0418  157.2996 H   0  0  0  0  0  0  0  0  0  0  0  0  # atno 8010 bound_to 7997
  139.6693  143.9773  152.2274 H   0  0  0  0  0  0  0  0  0  0  0  0  # atno 10167 bound_to 10162
  157.4696  130.8247  149.7973 H   0  0  0  0  0  0  0  0  0  0  0  0  # atno 10718 bound_to 10713
  153.1024  135.4807  154.8890 H   0  0  0  0  0  0  0  0  0  0  0  0  # atno 10763 bound_to 10752
  154.7393  135.3078  154.8759 H   0  0  0  0  0  0  0  0  0  0  0  0  # atno 10764 bound_to 10752
  153.9371  135.6838  153.4798 H   0  0  0  0  0  0  0  0  0  0  0  0  # atno 10765 bound_to 10752
  140.0414  134.9302  157.0851 H   0  0  0  0  0  0  0  0  0  0  0  0  # atno 11005 bound_to 11000
  145.9170  140.9141  143.0425 LP  0  0  0  0  0  0  0  0  0  0  0  0  # atno 17320 bound_to 7965
  144.6726  140.1237  143.7448 LP  0  0  0  0  0  0  0  0  0  0  0  0  # atno 17321 bound_to 7965
  139.9533  144.6606  150.8150 LP  0  0  0  0  0  0  0  0  0  0  0  0  # atno 17342 bound_to 10162
  140.7612  143.3168  151.2714 LP  0  0  0  0  0  0  0  0  0  0  0  0  # atno 17343 bound_to 10162
  156.0067  130.3852  150.2407 LP  0  0  0  0  0  0  0  0  0  0  0  0  # atno 17370 bound_to 10713
  157.0589  131.0084  151.3229 LP  0  0  0  0  0  0  0  0  0  0  0  0  # atno 17371 bound_to 10713
  140.4062  134.2029  155.7163 LP  0  0  0  0  0  0  0  0  0  0  0  0  # atno 17394 bound_to 11000
  141.1885  133.8258  157.0992 LP  0  0  0  0  0  0  0  0  0  0  0  0  # atno 17395 bound_to 11000

$$$$
