AV-unprocessed.smi:21|AV-procd|sdf|136|dock2
  -GOLD-   2262015333D 1   1.00000     0.00000
 Structure written by MMmdl.
 62 65  0  0  0  0  0  0  0  0  2 V2000
  145.9840  130.3601  151.9822 C   0  0  0  0  0  0  0  0  0  0  0  0
  145.5240  131.7006  152.0530 O   0  0  0  0  0  0  0  0  0  0  0  0
  146.5623  132.6509  152.2384 C   0  0  2  0  0  0  0  0  0  0  0  0
  147.2658  132.5201  153.5842 C   0  0  0  0  0  0  0  0  0  0  0  0
  147.8664  133.9142  153.8302 C   0  0  2  0  0  0  0  0  0  0  0  0
  148.0791  134.2538  155.3301 C   0  0  0  0  0  0  0  0  0  0  0  0
  149.1714  135.1995  155.5697 N   0  0  0  0  0  0  0  0  0  0  0  0
  150.5336  134.7371  155.3181 C   0  0  0  0  0  0  0  0  0  0  0  0
  148.9889  136.1625  156.5134 C   0  0  0  0  0  0  0  0  0  0  0  0
  147.9571  136.0384  157.3912 N   0  0  0  0  0  0  0  0  0  0  0  0
  147.7100  136.9948  158.2897 C   0  0  0  0  0  0  0  0  0  0  0  0
  148.3556  138.1456  158.4783 N   0  0  0  0  0  0  0  0  0  0  0  0
  149.4032  138.2734  157.6156 C   0  0  0  0  0  0  0  0  0  0  0  0
  149.7974  137.3321  156.6218 C   0  0  0  0  0  0  0  0  0  0  0  0
  150.9299  137.7967  155.9625 N   0  0  0  0  0  0  0  0  0  0  0  0
  151.1806  138.9482  156.5215 C   0  0  0  0  0  0  0  0  0  0  0  0
  150.2887  139.3310  157.4971 N   0  0  0  0  0  0  0  0  0  0  0  0
  150.3201  140.5652  158.2635 C   0  0  0  0  0  0  0  0  0  0  0  0
  151.2430  141.6718  157.6781 C   0  0  1  0  0  0  0  0  0  0  0  0
  150.8336  141.9535  156.2124 C   0  0  0  0  0  0  0  0  0  0  0  0
  149.4867  142.3712  156.1258 O   0  0  0  0  0  0  0  0  0  0  0  0
  151.2484  142.9909  158.5064 C   0  0  1  0  0  0  0  0  0  0  0  0
  152.0167  142.9754  159.8201 C   0  0  0  0  0  0  0  0  0  0  0  0
  152.2241  144.4587  160.0874 C   0  0  0  0  0  0  0  0  0  0  0  0
  152.4854  145.0160  158.8100 O   0  0  0  0  0  0  0  0  0  0  0  0
  151.9352  144.1738  157.8011 C   0  0  0  0  0  0  0  0  0  0  0  0
  146.9933  134.8594  153.0704 N   0  3  2  0  0  0  0  0  0  0  0  0
  146.4002  136.0020  153.8045 C   0  0  0  0  0  0  0  0  0  0  0  0
  145.9909  134.0625  152.3275 C   0  0  0  0  0  0  0  0  0  0  0  0
  147.2870  132.6026  151.4234 H   0  0  0  0  0  0  0  0  0  0  0  0
  148.8327  133.9578  153.3263 H   0  0  0  0  0  0  0  0  0  0  0  0
  145.1411  129.6963  151.7899 H   0  0  0  0  0  0  0  0  0  0  0  0
  146.4459  130.0447  152.9182 H   0  0  0  0  0  0  0  0  0  0  0  0
  146.7046  130.2310  151.1737 H   0  0  0  0  0  0  0  0  0  0  0  0
  146.5292  132.2864  154.3546 H   0  0  0  0  0  0  0  0  0  0  0  0
  148.0180  131.7309  153.5870 H   0  0  0  0  0  0  0  0  0  0  0  0
  147.1795  134.7214  155.7301 H   0  0  0  0  0  0  0  0  0  0  0  0
  148.2126  133.3419  155.9073 H   0  0  0  0  0  0  0  0  0  0  0  0
  151.2060  135.5814  155.1602 H   0  0  0  0  0  0  0  0  0  0  0  0
  150.5697  134.1145  154.4237 H   0  0  0  0  0  0  0  0  0  0  0  0
  150.9075  134.1480  156.1562 H   0  0  0  0  0  0  0  0  0  0  0  0
  146.8690  136.8171  158.9439 H   0  0  0  0  0  0  0  0  0  0  0  0
  152.0140  139.5650  156.2176 H   0  0  0  0  0  0  0  0  0  0  0  0
  149.2899  140.9167  158.3219 H   0  0  0  0  0  0  0  0  0  0  0  0
  150.6192  140.3357  159.2869 H   0  0  0  0  0  0  0  0  0  0  0  0
  152.2667  141.2973  157.6550 H   0  0  0  0  0  0  0  0  0  0  0  0
  151.4772  142.7146  155.7697 H   0  0  0  0  0  0  0  0  0  0  0  0
  150.9239  141.0626  155.5924 H   0  0  0  0  0  0  0  0  0  0  0  0
  149.4692  143.2832  155.8777 H   0  0  0  0  0  0  0  0  0  0  0  0
  150.2178  143.2756  158.7246 H   0  0  0  0  0  0  0  0  0  0  0  0
  151.4734  142.5046  160.6371 H   0  0  0  0  0  0  0  0  0  0  0  0
  152.9781  142.4730  159.7028 H   0  0  0  0  0  0  0  0  0  0  0  0
  151.3125  144.9053  160.4873 H   0  0  0  0  0  0  0  0  0  0  0  0
  153.0342  144.6557  160.7883 H   0  0  0  0  0  0  0  0  0  0  0  0
  152.7565  143.8321  157.1695 H   0  0  0  0  0  0  0  0  0  0  0  0
  151.2405  144.7332  157.1738 H   0  0  0  0  0  0  0  0  0  0  0  0
  145.7525  135.6651  154.6147 H   0  0  0  0  0  0  0  0  0  0  0  0
  145.7990  136.6085  153.1263 H   0  0  0  0  0  0  0  0  0  0  0  0
  147.1737  136.6508  154.2154 H   0  0  0  0  0  0  0  0  0  0  0  0
  145.7787  134.4920  151.3481 H   0  0  0  0  0  0  0  0  0  0  0  0
  145.0560  134.0385  152.8910 H   0  0  0  0  0  0  0  0  0  0  0  0
  147.5965  135.2653  152.3689 H   0  0  0  0  0  0  0  0  0  0  0  0
  1  2  1  0  0  0  0
  1 32  1  0  0  0  0
  1 33  1  0  0  0  0
  1 34  1  0  0  0  0
  2  3  1  0  0  0  0
  3 30  1  0  0  0  0
  3 29  1  0  0  0  0
  3  4  1  0  0  0  0
  4  5  1  0  0  0  0
  4 35  1  0  0  0  0
  4 36  1  0  0  0  0
  5 31  1  0  0  0  0
  5  6  1  0  0  0  0
  5 27  1  0  0  0  0
  6  7  1  0  0  0  0
  6 37  1  0  0  0  0
  6 38  1  0  0  0  0
  7  8  1  0  0  0  0
  7  9  1  0  0  0  0
  8 39  1  0  0  0  0
  8 40  1  0  0  0  0
  8 41  1  0  0  0  0
  9 14  1  0  0  0  0
  9 10  2  0  0  0  0
 10 11  1  0  0  0  0
 11 12  2  0  0  0  0
 11 42  1  0  0  0  0
 12 13  1  0  0  0  0
 13 17  1  0  0  0  0
 13 14  2  0  0  0  0
 14 15  1  0  0  0  0
 15 16  2  0  0  0  0
 16 17  1  0  0  0  0
 16 43  1  0  0  0  0
 17 18  1  0  0  0  0
 18 19  1  0  0  0  0
 18 44  1  0  0  0  0
 18 45  1  0  0  0  0
 19 20  1  0  0  0  0
 19 22  1  0  0  0  0
 19 46  1  0  0  0  0
 20 21  1  0  0  0  0
 20 47  1  0  0  0  0
 20 48  1  0  0  0  0
 21 49  1  0  0  0  0
 22 26  1  0  0  0  0
 22 23  1  0  0  0  0
 22 50  1  0  0  0  0
 23 24  1  0  0  0  0
 23 51  1  0  0  0  0
 23 52  1  0  0  0  0
 24 25  1  0  0  0  0
 24 53  1  0  0  0  0
 24 54  1  0  0  0  0
 25 26  1  0  0  0  0
 26 55  1  0  0  0  0
 26 56  1  0  0  0  0
 27 28  1  0  0  0  0
 27 29  1  0  0  0  0
 27 62  1  0  0  0  0
 28 57  1  0  0  0  0
 28 58  1  0  0  0  0
 28 59  1  0  0  0  0
 29 60  1  0  0  0  0
 29 61  1  0  0  0  0
M  CHG  1  27   1
M  END
> <s_m_source_file>
AV-unprocessed.smi

> <i_m_source_file_index>
21

> <i_lp_mmshare_version>
43012

> <i_f3d_flags>
0

> <s_epik_input>
W0NIM11PW0NASF0xW0NIMl1bQ0BIXShOKFtDSDNdKVtDSDJdMSlbQ0gyXU4oW0NIM10pYyhuW2NIXW4yKWMoYzIzKW5bY0hdbjNbQ0gyXVtDQEhdKFtDSDJdW09IXSlbQ0BASF00W0NIMl1bQ0gyXU9bQ0gyXTQ=

> <s_epik_cmdline>
J2VwaWtfcHl0aG9uJywgJy1waCcsICc3LjAnLCAnLXRuJywgJzgnLCAnLW1hJywgJzIwMCcsICctbWV0YWxfYmluZGluZycsICctaW1hZScsICc8aW5maWxlLm1hZT4nLCAnLW9tYWUnLCAnPG91dGZpbGUubWFlPic=

> <r_lp_tautomer_probability>
1

> <r_epik_Ionization_Penalty>
0.0157465

> <r_epik_Ionization_Penalty_Charging>
0.015354

> <r_epik_Ionization_Penalty_Neutral>
0.000392529

> <r_epik_State_Penalty>
0.0120612

> <r_epik_Charging_Adjusted_Penalty>
0.0274152

> <i_epik_Tot_Q>
1

> <i_epik_Tot_abs_Q>
1

> <r_epik_Metal_State_Penalty>
0.0121253

> <b_epik_Metal_Only>
0

> <s_lp_Force_Field>
OPLS_2005

> <r_lp_Energy>
61.1925

> <b_lp_Chiralities_Consistent>
1

> <s_lp_Variant>
AV-unprocessed.smi:21-16

> <Gold.Version>
5.8.1

> <Gold.Id.Protein>
6NUR|6NUR_protein|mol2

> <Gold.PLP.Fitness>
47.8788

> <Gold.PLP.PLP>
-40.4101

> <Gold.PLP.part.hbond>
-2.0245

> <Gold.PLP.part.metal>
0.0000

> <Gold.PLP.part.buried>
-6.7986

> <Gold.PLP.part.nonpolar>
-31.8549

> <Gold.PLP.part.repulsive>
0.2014

> <Gold.PLP.ligand.clash>
0.0000

> <Gold.PLP.ligand.torsion>
1.3130

> <Gold.PLP.Chemscore.Hbond>
3.0000

> <Gold.PLP.Chemscore.CHOScore>
0.0000

> <Gold.PLP.Chemscore.Metal>
0.0000

> <Gold.Chemscore.Hbonds>
donor molecule, donor type, donor heavy atom, donor atom, acceptor molecule, acceptor atom, score
      L1  H    21    49       P1  8028  1.00
      L1  H    27    62       P1  7948  2.00

> <Gold.PLP.Chemscore.Internal.Correction>
1.0946

> <Gold.Rescore>
     Score         DG    S(hbond)    S(metal)    S(lipo)     H(rot)  DE(clash)    DE(int)     intcor
     15.18     -16.50       1.98        0.00     104.98       3.08       0.02       1.29       ----

> <Gold.Chemscore.Fitness>
15.1820

> <Gold.Chemscore.DG>
-16.4955

> <Gold.Chemscore.ZeroCoef>
-5.4800

> <Gold.Chemscore.Hbond>
1.9780

> <Gold.Chemscore.Metal>
0.0000

> <Gold.Chemscore.Lipo>
104.9849

> <Gold.Chemscore.Internal_Hbond>
0.0000

> <Gold.Chemscore.DEClash>
0.0185

> <Gold.Chemscore.DEInternal>
1.2950

> <Gold.Chemscore.Rot>
3.0758

> <Gold.Chemscore.Internal.Correction>
   9.000000E+99

> <Gold.Chemscore.Hbonds>
donor molecule, donor type, donor heavy atom, donor atom, acceptor molecule, acceptor atom, score
      L1  H    21    49       P1  8028  0.96
      L1  H    27    62       P1  7948  0.97

> <Gold.Chemscore.Hbond.Weighted>
-6.6064

> <Gold.Chemscore.Metal.Weighted>
-0.0000

> <Gold.Chemscore.Lipo.Weighted>
-12.2832

> <Gold.Chemscore.Internal_Hbond.Weighted>
0.0000

> <Gold.Chemscore.DEClash.Weighted>
0.0185

> <Gold.Chemscore.DEInternal.Weighted>
1.2950

> <Gold.Chemscore.Rot.Weighted>
7.8741

> <Gold.Chemscore.Internal.Correction.Weighted>
   9.000000E+99

> <Gold.Protein.RotatedTorsions>
[ 6907 6896 6895 6894 ] final  113.63 input  -60.11 | X-H torsion
[ 7974 7965 7964 7962 ] final   51.07 input  175.53 | X-H torsion
[ 8008 7997 7996 7995 ] final  -65.77 input   59.86 | X-H torsion
[ 10167 10162 10161 10158 ] final   32.53 input  -65.29 | X-H torsion
[ 10718 10713 10712 10709 ] final    1.16 input   66.30 | X-H torsion
[ 10763 10752 10751 10750 ] final  119.54 input  -60.55 | X-H torsion
[ 11005 11000 10999 10996 ] final   43.83 input  -57.11 | X-H torsion

> <Gold.Protein.ActiveResidues>
 VAL166  LYS551  ARG553  GLY616  TRP617  ASP618  TYR619  PRO620  LYS621  CYS622 
 ASP623  PHE694  ASN695  SER759  ASP760  ASP761  ALA762  ILE779  LEU786  VAL792 
 PHE793  MET794  SER795  GLU796  ALA797  LYS798  CYS799  TRP800  GLU811  SER814 

> <Gold.Protein.RotatedAtoms>
  152.4850  133.8349  159.7122 H   0  0  0  0  0  0  0  0  0  0  0  0  # atno 6907 bound_to 6896
  150.8929  133.7210  159.2906 H   0  0  0  0  0  0  0  0  0  0  0  0  # atno 6908 bound_to 6896
  151.4677  135.1047  159.9795 H   0  0  0  0  0  0  0  0  0  0  0  0  # atno 6909 bound_to 6896
  145.9949  139.4378  143.0050 H   0  0  0  0  0  0  0  0  0  0  0  0  # atno 7974 bound_to 7965
  154.4692  140.0926  156.7101 H   0  0  0  0  0  0  0  0  0  0  0  0  # atno 8008 bound_to 7997
  155.4771  140.3466  155.4316 H   0  0  0  0  0  0  0  0  0  0  0  0  # atno 8009 bound_to 7997
  156.1010  140.1422  156.9456 H   0  0  0  0  0  0  0  0  0  0  0  0  # atno 8010 bound_to 7997
  140.4490  144.1077  150.6188 H   0  0  0  0  0  0  0  0  0  0  0  0  # atno 10167 bound_to 10162
  156.8440  130.5531  149.5675 H   0  0  0  0  0  0  0  0  0  0  0  0  # atno 10718 bound_to 10713
  153.5847  135.3477  155.2888 H   0  0  0  0  0  0  0  0  0  0  0  0  # atno 10763 bound_to 10752
  154.8662  135.4190  154.2582 H   0  0  0  0  0  0  0  0  0  0  0  0  # atno 10764 bound_to 10752
  153.3376  135.7048  153.6965 H   0  0  0  0  0  0  0  0  0  0  0  0  # atno 10765 bound_to 10752
  140.1608  134.4343  155.8319 H   0  0  0  0  0  0  0  0  0  0  0  0  # atno 11005 bound_to 11000
  145.7574  140.9949  143.1218 LP  0  0  0  0  0  0  0  0  0  0  0  0  # atno 17320 bound_to 7965
  144.6900  139.9288  143.7471 LP  0  0  0  0  0  0  0  0  0  0  0  0  # atno 17321 bound_to 7965
  140.4230  143.2603  151.9692 LP  0  0  0  0  0  0  0  0  0  0  0  0  # atno 17342 bound_to 10162
  139.4795  144.5814  151.7927 LP  0  0  0  0  0  0  0  0  0  0  0  0  # atno 17343 bound_to 10162
  156.0864  130.5862  150.9656 LP  0  0  0  0  0  0  0  0  0  0  0  0  # atno 17370 bound_to 10713
  157.6340  131.0918  150.8386 LP  0  0  0  0  0  0  0  0  0  0  0  0  # atno 17371 bound_to 10713
  141.2209  133.6912  156.7591 LP  0  0  0  0  0  0  0  0  0  0  0  0  # atno 17394 bound_to 11000
  140.2492  134.8554  157.3650 LP  0  0  0  0  0  0  0  0  0  0  0  0  # atno 17395 bound_to 11000

$$$$
