AV-unprocessed.smi:3040|AV-procd|sdf|11595|dock8
  -GOLD-   2272016573D 1   1.00000     0.00000
 Structure written by MMmdl.
 39 40  0  0  0  0  0  0  0  0  1 V2000
  152.5045  143.1847  162.1358 C   0  0  0  0  0  0  0  0  0  0  0  0
  152.2036  143.5363  160.7470 N   0  0  0  0  0  0  0  0  0  0  0  0
  153.1711  143.0390  159.7615 C   0  0  0  0  0  0  0  0  0  0  0  0
  153.1234  143.8062  158.4335 C   0  0  0  0  0  0  0  0  0  0  0  0
  151.6861  143.9404  157.9096 C   0  0  1  0  0  0  0  0  0  0  0  0
  151.1332  142.6066  157.3793 C   0  0  0  0  0  0  0  0  0  0  0  0
  151.5970  141.5374  157.7775 O   0  0  0  0  0  0  0  0  0  0  0  0
  150.1553  142.6872  156.4622 N   0  0  0  0  0  0  0  0  0  0  0  0
  149.5820  141.5565  155.7344 C   0  0  0  0  0  0  0  0  0  0  0  0
  148.0455  141.6459  155.6420 C   0  0  0  0  0  0  0  0  0  0  0  0
  147.4383  140.5312  154.8301 C   0  0  0  0  0  0  0  0  0  0  0  0
  146.6707  139.4254  155.2951 C   0  0  0  0  0  0  0  0  0  0  0  0
  146.3176  138.5993  154.3237 N   0  0  0  0  0  0  0  0  0  0  0  0
  146.8426  139.1476  153.2093 N   0  0  0  0  0  0  0  0  0  0  0  0
  146.6601  138.4874  151.9346 C   0  0  0  0  0  0  0  0  0  0  0  0
  147.5147  140.3189  153.4824 C   0  0  0  0  0  0  0  0  0  0  0  0
  150.7654  144.5828  158.9731 C   0  0  0  0  0  0  0  0  0  0  0  0
  151.0778  144.2261  160.4400 C   0  0  0  0  0  0  0  0  0  0  0  0
  150.2825  144.6018  161.3018 O   0  0  0  0  0  0  0  0  0  0  0  0
  151.6451  142.7149  162.6168 H   0  0  0  0  0  0  0  0  0  0  0  0
  152.7691  144.0772  162.7040 H   0  0  0  0  0  0  0  0  0  0  0  0
  153.3358  142.4824  162.2108 H   0  0  0  0  0  0  0  0  0  0  0  0
  154.1827  143.0996  160.1650 H   0  0  0  0  0  0  0  0  0  0  0  0
  152.9710  141.9804  159.5936 H   0  0  0  0  0  0  0  0  0  0  0  0
  153.5437  144.8023  158.5788 H   0  0  0  0  0  0  0  0  0  0  0  0
  153.7604  143.3157  157.6966 H   0  0  0  0  0  0  0  0  0  0  0  0
  151.7136  144.6233  157.0587 H   0  0  0  0  0  0  0  0  0  0  0  0
  149.8276  143.6063  156.2025 H   0  0  0  0  0  0  0  0  0  0  0  0
  150.0099  141.4861  154.7329 H   0  0  0  0  0  0  0  0  0  0  0  0
  149.8657  140.6377  156.2480 H   0  0  0  0  0  0  0  0  0  0  0  0
  147.6320  141.6507  156.6509 H   0  0  0  0  0  0  0  0  0  0  0  0
  147.7767  142.6125  155.2146 H   0  0  0  0  0  0  0  0  0  0  0  0
  146.3750  139.1926  156.3073 H   0  0  0  0  0  0  0  0  0  0  0  0
  147.2832  138.9619  151.1760 H   0  0  0  0  0  0  0  0  0  0  0  0
  145.6151  138.5562  151.6314 H   0  0  0  0  0  0  0  0  0  0  0  0
  146.9426  137.4371  152.0168 H   0  0  0  0  0  0  0  0  0  0  0  0
  148.0027  140.8901  152.7064 H   0  0  0  0  0  0  0  0  0  0  0  0
  150.8479  145.6673  158.8923 H   0  0  0  0  0  0  0  0  0  0  0  0
  149.7175  144.3544  158.7702 H   0  0  0  0  0  0  0  0  0  0  0  0
  1  2  1  0  0  0  0
  1 20  1  0  0  0  0
  1 21  1  0  0  0  0
  1 22  1  0  0  0  0
  2 18  1  0  0  0  0
  2  3  1  0  0  0  0
  3  4  1  0  0  0  0
  3 23  1  0  0  0  0
  3 24  1  0  0  0  0
  4  5  1  0  0  0  0
  4 25  1  0  0  0  0
  4 26  1  0  0  0  0
  5  6  1  0  0  0  0
  5 17  1  0  0  0  0
  5 27  1  0  0  0  0
  6  7  2  0  0  0  0
  6  8  1  0  0  0  0
  8  9  1  0  0  0  0
  8 28  1  0  0  0  0
  9 10  1  0  0  0  0
  9 29  1  0  0  0  0
  9 30  1  0  0  0  0
 10 11  1  0  0  0  0
 10 31  1  0  0  0  0
 10 32  1  0  0  0  0
 11 16  2  0  0  0  0
 11 12  1  0  0  0  0
 12 13  2  0  0  0  0
 12 33  1  0  0  0  0
 13 14  1  0  0  0  0
 14 15  1  0  0  0  0
 14 16  1  0  0  0  0
 15 34  1  0  0  0  0
 15 35  1  0  0  0  0
 15 36  1  0  0  0  0
 16 37  1  0  0  0  0
 17 18  1  0  0  0  0
 17 38  1  0  0  0  0
 17 39  1  0  0  0  0
 18 19  2  0  0  0  0
M  END
> <s_m_source_file>
AV-unprocessed.smi

> <i_m_source_file_index>
3040

> <i_lp_mmshare_version>
43012

> <i_f3d_flags>
0

> <s_epik_input>
W0NIM11OMVtDSDJdW0NIMl1bQ0BIXShbQ0gyXUMxPU8pQyg9TylbTkhdW0NIMl1bQ0gyXWMyW2NIXW5uKFtDSDNdKVtjSF0y

> <s_epik_cmdline>
J2VwaWtfcHl0aG9uJywgJy1waCcsICc3LjAnLCAnLXRuJywgJzgnLCAnLW1hJywgJzIwMCcsICctbWV0YWxfYmluZGluZycsICctaW1hZScsICc8aW5maWxlLm1hZT4nLCAnLW9tYWUnLCAnPG91dGZpbGUubWFlPic=

> <r_lp_tautomer_probability>
1

> <r_epik_Ionization_Penalty>
0.000456436

> <r_epik_Ionization_Penalty_Charging>
0

> <r_epik_Ionization_Penalty_Neutral>
0.000456436

> <r_epik_State_Penalty>
-0

> <r_epik_Charging_Adjusted_Penalty>
0

> <i_epik_Tot_Q>
0

> <i_epik_Tot_abs_Q>
0

> <r_epik_Metal_State_Penalty>
-0

> <b_epik_Metal_Only>
0

> <s_lp_Force_Field>
OPLS_2005

> <r_lp_Energy>
8.58968

> <b_lp_Chiralities_Consistent>
1

> <s_lp_Variant>
AV-unprocessed.smi:3040-1

> <Gold.Version>
5.8.1

> <Gold.Id.Protein>
6NUR|6NUR_protein|mol2

> <Gold.PLP.Fitness>
42.7935

> <Gold.PLP.PLP>
-39.1352

> <Gold.PLP.part.hbond>
-1.6246

> <Gold.PLP.part.metal>
0.0000

> <Gold.PLP.part.buried>
-0.9666

> <Gold.PLP.part.nonpolar>
-38.7422

> <Gold.PLP.part.repulsive>
1.8565

> <Gold.PLP.ligand.clash>
0.0000

> <Gold.PLP.ligand.torsion>
0.8151

> <Gold.PLP.Chemscore.Hbond>
0.9913

> <Gold.PLP.Chemscore.CHOScore>
0.7575

> <Gold.PLP.Chemscore.Metal>
0.0000

> <Gold.Chemscore.Hbonds>
donor molecule, donor type, donor heavy atom, donor atom, acceptor molecule, acceptor atom, score
      L1  H     8    28       P1  8028  1.00
      L1  C    16    37       P1  7957  0.93

> <Gold.PLP.Chemscore.Internal.Correction>
0.0423

> <Gold.Rescore>
     Score         DG    S(hbond)    S(metal)    S(lipo)     H(rot)  DE(clash)    DE(int)     intcor
     12.40     -15.75       0.98        0.00      95.98       1.65       1.73       1.62       ----

> <Gold.Chemscore.Fitness>
12.3961

> <Gold.Chemscore.DG>
-15.7466

> <Gold.Chemscore.ZeroCoef>
-5.4800

> <Gold.Chemscore.Hbond>
0.9790

> <Gold.Chemscore.Metal>
0.0000

> <Gold.Chemscore.Lipo>
95.9819

> <Gold.Chemscore.Internal_Hbond>
0.0000

> <Gold.Chemscore.DEClash>
1.7261

> <Gold.Chemscore.DEInternal>
1.6244

> <Gold.Chemscore.Rot>
1.6536

> <Gold.Chemscore.Internal.Correction>
   9.000000E+99

> <Gold.Chemscore.Hbonds>
donor molecule, donor type, donor heavy atom, donor atom, acceptor molecule, acceptor atom, score
      L1  H     8    28       P1  8028  0.95

> <Gold.Chemscore.Hbond.Weighted>
-3.2698

> <Gold.Chemscore.Metal.Weighted>
-0.0000

> <Gold.Chemscore.Lipo.Weighted>
-11.2299

> <Gold.Chemscore.Internal_Hbond.Weighted>
0.0000

> <Gold.Chemscore.DEClash.Weighted>
1.7261

> <Gold.Chemscore.DEInternal.Weighted>
1.6244

> <Gold.Chemscore.Rot.Weighted>
4.2332

> <Gold.Chemscore.Internal.Correction.Weighted>
   9.000000E+99

> <Gold.Protein.RotatedTorsions>
[ 6907 6896 6895 6894 ] final  -14.47 input  -60.11 | X-H torsion
[ 7974 7965 7964 7962 ] final  167.34 input  175.53 | X-H torsion
[ 8008 7997 7996 7995 ] final   96.82 input   59.86 | X-H torsion
[ 10167 10162 10161 10158 ] final  -25.96 input  -65.29 | X-H torsion
[ 10718 10713 10712 10709 ] final -172.70 input   66.30 | X-H torsion
[ 10763 10752 10751 10750 ] final  -43.87 input  -60.55 | X-H torsion
[ 11005 11000 10999 10996 ] final   35.50 input  -57.11 | X-H torsion

> <Gold.Protein.ActiveResidues>
 VAL166  LYS551  ARG553  GLY616  TRP617  ASP618  TYR619  PRO620  LYS621  CYS622 
 ASP623  PHE694  ASN695  SER759  ASP760  ASP761  ALA762  ILE779  LEU786  VAL792 
 PHE793  MET794  SER795  GLU796  ALA797  LYS798  CYS799  TRP800  GLU811  SER814 

> <Gold.Protein.RotatedAtoms>
  151.3388  135.0859  159.9363 H   0  0  0  0  0  0  0  0  0  0  0  0  # atno 6907 bound_to 6896
  152.5216  133.9468  159.7663 H   0  0  0  0  0  0  0  0  0  0  0  0  # atno 6908 bound_to 6896
  150.9821  133.6182  159.2751 H   0  0  0  0  0  0  0  0  0  0  0  0  # atno 6909 bound_to 6896
  144.7428  139.8747  143.6391 H   0  0  0  0  0  0  0  0  0  0  0  0  # atno 7974 bound_to 7965
  156.0837  140.3267  155.7726 H   0  0  0  0  0  0  0  0  0  0  0  0  # atno 8008 bound_to 7997
  155.5111  140.0577  157.2940 H   0  0  0  0  0  0  0  0  0  0  0  0  # atno 8009 bound_to 7997
  154.4597  140.1960  156.0297 H   0  0  0  0  0  0  0  0  0  0  0  0  # atno 8010 bound_to 7997
  140.7285  143.4220  151.0937 H   0  0  0  0  0  0  0  0  0  0  0  0  # atno 10167 bound_to 10162
  156.7595  130.9408  151.3117 H   0  0  0  0  0  0  0  0  0  0  0  0  # atno 10718 bound_to 10713
  154.0027  135.6691  153.4760 H   0  0  0  0  0  0  0  0  0  0  0  0  # atno 10763 bound_to 10752
  153.0655  135.5003  154.8187 H   0  0  0  0  0  0  0  0  0  0  0  0  # atno 10764 bound_to 10752
  154.7043  135.3085  154.9257 H   0  0  0  0  0  0  0  0  0  0  0  0  # atno 10765 bound_to 10752
  140.2421  134.3403  155.7922 H   0  0  0  0  0  0  0  0  0  0  0  0  # atno 11005 bound_to 11000
  146.1255  139.4280  143.0202 LP  0  0  0  0  0  0  0  0  0  0  0  0  # atno 17320 bound_to 7965
  145.7242  141.0065  143.1386 LP  0  0  0  0  0  0  0  0  0  0  0  0  # atno 17321 bound_to 7965
  139.7866  143.8278  152.3146 LP  0  0  0  0  0  0  0  0  0  0  0  0  # atno 17342 bound_to 10162
  139.8248  144.7280  150.9526 LP  0  0  0  0  0  0  0  0  0  0  0  0  # atno 17343 bound_to 10162
  157.6741  130.9078  150.0109 LP  0  0  0  0  0  0  0  0  0  0  0  0  # atno 17370 bound_to 10713
  156.1348  130.3643  149.9674 LP  0  0  0  0  0  0  0  0  0  0  0  0  # atno 17371 bound_to 10713
  141.2209  133.7304  156.8901 LP  0  0  0  0  0  0  0  0  0  0  0  0  # atno 17394 bound_to 11000
  140.1643  134.9144  157.2754 LP  0  0  0  0  0  0  0  0  0  0  0  0  # atno 17395 bound_to 11000

$$$$
