AV-unprocessed.smi:1645|AV-procd|sdf|6619|dock8
  -GOLD-   22720 7313D 1   1.00000     0.00000
 Structure written by MMmdl.
 55 58  0  0  0  0  0  0  0  0  4 V2000
  146.9248  136.2013  155.9267 O   0  0  0  0  0  0  0  0  0  0  0  0
  147.4342  135.9432  154.8299 C   0  0  0  0  0  0  0  0  0  0  0  0
  148.5369  136.5963  154.4234 N   0  0  0  0  0  0  0  0  0  0  0  0
  149.2421  137.6387  155.0804 C   0  0  0  0  0  0  0  0  0  0  0  0
  150.3634  138.1929  154.4281 C   0  0  0  0  0  0  0  0  0  0  0  0
  151.0796  139.2409  155.0413 C   0  0  0  0  0  0  0  0  0  0  0  0
  150.6524  139.7286  156.2978 C   0  0  0  0  0  0  0  0  0  0  0  0
  151.3010  140.7638  156.9833 N   0  0  0  0  0  0  0  0  0  0  0  0
  151.8875  140.3214  158.2458 C   0  0  0  0  0  0  0  0  0  0  0  0
  152.7403  141.4368  158.8751 C   0  0  0  0  0  0  0  0  0  0  0  0
  151.9265  142.7323  159.0259 C   0  0  0  0  0  0  0  0  0  0  0  0
  151.3168  143.1352  157.6737 C   0  0  0  0  0  0  0  0  0  0  0  0
  150.4954  141.9790  157.0779 C   0  0  0  0  0  0  0  0  0  0  0  0
  149.5605  139.1873  156.8800 N   0  3  0  0  0  0  0  0  0  0  0  0
  148.8488  138.1810  156.3275 C   0  0  0  0  0  0  0  0  0  0  0  0
  147.0272  135.0118  153.9261 N   0  5  0  0  0  0  0  0  0  0  0  0
  145.6707  134.4634  153.8504 C   0  0  1  0  0  0  0  0  0  0  0  0
  144.6252  135.5332  153.5097 C   0  0  0  0  0  0  0  0  0  0  0  0
  143.5018  134.7616  152.7934 C   0  0  0  0  0  0  0  0  0  0  0  0
  144.0075  133.3819  152.6068 N   0  3  1  0  0  0  0  0  0  0  0  0
  143.4590  132.6175  151.4572 C   0  0  0  0  0  0  0  0  0  0  0  0
  144.1253  132.9927  150.1240 C   0  0  0  0  0  0  0  0  0  0  0  0
  145.6488  132.8759  150.2314 C   0  0  0  0  0  0  0  0  0  0  0  0
  146.1512  133.7799  151.3623 C   0  0  0  0  0  0  0  0  0  0  0  0
  145.4835  133.4236  152.7254 C   0  0  1  0  0  0  0  0  0  0  0  0
  148.9529  136.2555  153.5690 H   0  0  0  0  0  0  0  0  0  0  0  0
  150.6800  137.8130  153.4675 H   0  0  0  0  0  0  0  0  0  0  0  0
  151.9432  139.6626  154.5483 H   0  0  0  0  0  0  0  0  0  0  0  0
  151.0933  140.0301  158.9344 H   0  0  0  0  0  0  0  0  0  0  0  0
  152.5031  139.4371  158.0754 H   0  0  0  0  0  0  0  0  0  0  0  0
  153.1183  141.1158  159.8463 H   0  0  0  0  0  0  0  0  0  0  0  0
  153.6136  141.6256  158.2493 H   0  0  0  0  0  0  0  0  0  0  0  0
  151.1311  142.5836  159.7573 H   0  0  0  0  0  0  0  0  0  0  0  0
  152.5583  143.5337  159.4098 H   0  0  0  0  0  0  0  0  0  0  0  0
  150.6883  144.0181  157.7929 H   0  0  0  0  0  0  0  0  0  0  0  0
  152.1133  143.4124  156.9817 H   0  0  0  0  0  0  0  0  0  0  0  0
  150.1303  142.2555  156.0878 H   0  0  0  0  0  0  0  0  0  0  0  0
  149.6200  141.7914  157.7012 H   0  0  0  0  0  0  0  0  0  0  0  0
  147.9905  137.8589  156.8986 H   0  0  0  0  0  0  0  0  0  0  0  0
  145.3705  133.9991  154.7918 H   0  0  0  0  0  0  0  0  0  0  0  0
  144.2692  136.0521  154.4002 H   0  0  0  0  0  0  0  0  0  0  0  0
  145.0383  136.2852  152.8352 H   0  0  0  0  0  0  0  0  0  0  0  0
  142.5827  134.7394  153.3802 H   0  0  0  0  0  0  0  0  0  0  0  0
  143.2727  135.2326  151.8364 H   0  0  0  0  0  0  0  0  0  0  0  0
  143.6256  131.5577  151.6535 H   0  0  0  0  0  0  0  0  0  0  0  0
  142.3788  132.7560  151.4031 H   0  0  0  0  0  0  0  0  0  0  0  0
  143.7570  132.3421  149.3303 H   0  0  0  0  0  0  0  0  0  0  0  0
  143.8517  134.0094  149.8402 H   0  0  0  0  0  0  0  0  0  0  0  0
  145.9348  131.8411  150.4243 H   0  0  0  0  0  0  0  0  0  0  0  0
  146.1148  133.1609  149.2877 H   0  0  0  0  0  0  0  0  0  0  0  0
  147.2359  133.6848  151.4355 H   0  0  0  0  0  0  0  0  0  0  0  0
  145.9571  134.8158  151.0755 H   0  0  0  0  0  0  0  0  0  0  0  0
  145.8411  132.4450  153.0490 H   0  0  0  0  0  0  0  0  0  0  0  0
  143.7014  132.8931  153.4358 H   0  0  0  0  0  0  0  0  0  0  0  0
  149.2564  139.5566  157.7811 H   0  0  0  0  0  0  0  0  0  0  0  0
  1  2  2  0  0  0  0
  2  3  1  0  0  0  0
  2 16  1  0  0  0  0
  3  4  1  0  0  0  0
  3 26  1  0  0  0  0
  4 15  1  0  0  0  0
  4  5  2  0  0  0  0
  5  6  1  0  0  0  0
  5 27  1  0  0  0  0
  6  7  2  0  0  0  0
  6 28  1  0  0  0  0
  7  8  1  0  0  0  0
  7 14  1  0  0  0  0
  8 13  1  0  0  0  0
  8  9  1  0  0  0  0
  9 10  1  0  0  0  0
  9 29  1  0  0  0  0
  9 30  1  0  0  0  0
 10 11  1  0  0  0  0
 10 31  1  0  0  0  0
 10 32  1  0  0  0  0
 11 12  1  0  0  0  0
 11 33  1  0  0  0  0
 11 34  1  0  0  0  0
 12 13  1  0  0  0  0
 12 35  1  0  0  0  0
 12 36  1  0  0  0  0
 13 37  1  0  0  0  0
 13 38  1  0  0  0  0
 14 15  2  0  0  0  0
 14 55  1  0  0  0  0
 15 39  1  0  0  0  0
 16 17  1  0  0  0  0
 17 25  1  0  0  0  0
 17 18  1  0  0  0  0
 17 40  1  0  0  0  0
 18 19  1  0  0  0  0
 18 41  1  0  0  0  0
 18 42  1  0  0  0  0
 19 20  1  0  0  0  0
 19 43  1  0  0  0  0
 19 44  1  0  0  0  0
 20 25  1  0  0  0  0
 20 21  1  0  0  0  0
 20 54  1  0  0  0  0
 21 22  1  0  0  0  0
 21 45  1  0  0  0  0
 21 46  1  0  0  0  0
 22 23  1  0  0  0  0
 22 47  1  0  0  0  0
 22 48  1  0  0  0  0
 23 24  1  0  0  0  0
 23 49  1  0  0  0  0
 23 50  1  0  0  0  0
 24 25  1  0  0  0  0
 24 51  1  0  0  0  0
 24 52  1  0  0  0  0
 25 53  1  0  0  0  0
M  CHG  1  14   1
M  CHG  1  16  -1
M  CHG  1  20   1
M  END
> <s_m_source_file>
AV-unprocessed.smi

> <i_m_source_file_index>
1645

> <i_lp_mmshare_version>
43012

> <i_f3d_flags>
0

> <s_epik_input>
W0NIMl0xW0NIMl1bQ0gyXVtDSDJdW0NASF0oTjEyKVtDQEBIXShbQ0gyXVtDSDJdMilbTkhdQyg9TylbTkhdYzNbY0hdW2NIXWMobltjSF0zKU40W0NIMl1bQ0gyXVtDSDJdW0NIMl1bQ0gyXTQ=

> <s_epik_cmdline>
J2VwaWtfcHl0aG9uJywgJy1waCcsICc3LjAnLCAnLXRuJywgJzgnLCAnLW1hJywgJzIwMCcsICctbWV0YWxfYmluZGluZycsICctaW1hZScsICc8aW5maWxlLm1hZT4nLCAnLW9tYWUnLCAnPG91dGZpbGUubWFlPic=

> <r_lp_tautomer_probability>
0.999994

> <r_epik_Ionization_Penalty>
8.55589

> <r_epik_Ionization_Penalty_Charging>
8.55589

> <r_epik_Ionization_Penalty_Neutral>
3.8092e-06

> <r_epik_State_Penalty>
8.15703

> <r_epik_Charging_Adjusted_Penalty>
16.7129

> <i_epik_Tot_Q>
1

> <i_epik_Tot_abs_Q>
3

> <r_epik_Metal_State_Penalty>
4.13781

> <b_epik_Metal_Only>
1

> <s_lp_Force_Field>
OPLS_2005

> <r_lp_Energy>
57.4093

> <b_lp_Chiralities_Consistent>
1

> <s_lp_Variant>
AV-unprocessed.smi:1645-20

> <Gold.Version>
5.8.1

> <Gold.Id.Protein>
6NUR|6NUR_protein|mol2

> <Gold.PLP.Fitness>
44.5142

> <Gold.PLP.PLP>
-36.1662

> <Gold.PLP.part.hbond>
-1.9387

> <Gold.PLP.part.metal>
0.0000

> <Gold.PLP.part.buried>
-6.6361

> <Gold.PLP.part.nonpolar>
-29.5881

> <Gold.PLP.part.repulsive>
0.6731

> <Gold.PLP.ligand.clash>
0.0000

> <Gold.PLP.ligand.torsion>
0.1817

> <Gold.PLP.Chemscore.Hbond>
2.8525

> <Gold.PLP.Chemscore.CHOScore>
0.0000

> <Gold.PLP.Chemscore.Metal>
0.0000

> <Gold.Chemscore.Hbonds>
donor molecule, donor type, donor heavy atom, donor atom, acceptor molecule, acceptor atom, score
      L1  H     3    26       P1  7948  0.99
      L1  H    20    54       P1 10957  1.98

> <Gold.PLP.Chemscore.Internal.Correction>
0.1538

> <Gold.Rescore>
     Score         DG    S(hbond)    S(metal)    S(lipo)     H(rot)  DE(clash)    DE(int)     intcor
     19.48     -21.10       1.90        0.00     104.94       1.17       0.01       1.61       ----

> <Gold.Chemscore.Fitness>
19.4789

> <Gold.Chemscore.DG>
-21.1015

> <Gold.Chemscore.ZeroCoef>
-5.4800

> <Gold.Chemscore.Hbond>
1.9002

> <Gold.Chemscore.Metal>
0.0000

> <Gold.Chemscore.Lipo>
104.9402

> <Gold.Chemscore.Internal_Hbond>
0.0000

> <Gold.Chemscore.DEClash>
0.0112

> <Gold.Chemscore.DEInternal>
1.6114

> <Gold.Chemscore.Rot>
1.1731

> <Gold.Chemscore.Internal.Correction>
   9.000000E+99

> <Gold.Chemscore.Hbonds>
donor molecule, donor type, donor heavy atom, donor atom, acceptor molecule, acceptor atom, score
      L1  H     3    26       P1  7948  0.94
      L1  H    20    54       P1 10957  0.69

> <Gold.Chemscore.Hbond.Weighted>
-6.3467

> <Gold.Chemscore.Metal.Weighted>
-0.0000

> <Gold.Chemscore.Lipo.Weighted>
-12.2780

> <Gold.Chemscore.Internal_Hbond.Weighted>
0.0000

> <Gold.Chemscore.DEClash.Weighted>
0.0112

> <Gold.Chemscore.DEInternal.Weighted>
1.6114

> <Gold.Chemscore.Rot.Weighted>
3.0032

> <Gold.Chemscore.Internal.Correction.Weighted>
   9.000000E+99

> <Gold.Protein.RotatedTorsions>
[ 6907 6896 6895 6894 ] final    6.52 input  -60.11 | X-H torsion
[ 7974 7965 7964 7962 ] final -115.87 input  175.53 | X-H torsion
[ 8008 7997 7996 7995 ] final  126.71 input   59.86 | X-H torsion
[ 10167 10162 10161 10158 ] final  -84.82 input  -65.29 | X-H torsion
[ 10718 10713 10712 10709 ] final -123.11 input   66.30 | X-H torsion
[ 10763 10752 10751 10750 ] final  100.24 input  -60.55 | X-H torsion
[ 11005 11000 10999 10996 ] final -175.46 input  -57.11 | X-H torsion

> <Gold.Protein.ActiveResidues>
 VAL166  LYS551  ARG553  GLY616  TRP617  ASP618  TYR619  PRO620  LYS621  CYS622 
 ASP623  PHE694  ASN695  SER759  ASP760  ASP761  ALA762  ILE779  LEU786  VAL792 
 PHE793  MET794  SER795  GLU796  ALA797  LYS798  CYS799  TRP800  GLU811  SER814 

> <Gold.Protein.RotatedAtoms>
  151.6751  135.0970  160.0205 H   0  0  0  0  0  0  0  0  0  0  0  0  # atno 6907 bound_to 6896
  152.3869  133.6619  159.6214 H   0  0  0  0  0  0  0  0  0  0  0  0  # atno 6908 bound_to 6896
  150.7792  133.8937  159.3362 H   0  0  0  0  0  0  0  0  0  0  0  0  # atno 6909 bound_to 6896
  145.1033  140.8566  143.3913 H   0  0  0  0  0  0  0  0  0  0  0  0  # atno 7974 bound_to 7965
  156.2871  140.2686  156.2155 H   0  0  0  0  0  0  0  0  0  0  0  0  # atno 8008 bound_to 7997
  155.0221  140.0386  157.2459 H   0  0  0  0  0  0  0  0  0  0  0  0  # atno 8009 bound_to 7997
  154.7427  140.2728  155.6364 H   0  0  0  0  0  0  0  0  0  0  0  0  # atno 8010 bound_to 7997
  140.4096  143.2628  151.9035 H   0  0  0  0  0  0  0  0  0  0  0  0  # atno 10167 bound_to 10162
  156.1474  130.6510  150.9863 H   0  0  0  0  0  0  0  0  0  0  0  0  # atno 10718 bound_to 10713
  153.3115  135.4085  155.1340 H   0  0  0  0  0  0  0  0  0  0  0  0  # atno 10763 bound_to 10752
  154.8577  135.3565  154.5717 H   0  0  0  0  0  0  0  0  0  0  0  0  # atno 10764 bound_to 10752
  153.6146  135.7066  153.5392 H   0  0  0  0  0  0  0  0  0  0  0  0  # atno 10765 bound_to 10752
  140.4631  134.6236  157.4851 H   0  0  0  0  0  0  0  0  0  0  0  0  # atno 11005 bound_to 11000
  145.0930  139.2876  143.5725 LP  0  0  0  0  0  0  0  0  0  0  0  0  # atno 17320 bound_to 7965
  146.3529  140.0473  142.8638 LP  0  0  0  0  0  0  0  0  0  0  0  0  # atno 17321 bound_to 7965
  139.4783  144.5551  151.8326 LP  0  0  0  0  0  0  0  0  0  0  0  0  # atno 17342 bound_to 10162
  140.4652  144.1665  150.5911 LP  0  0  0  0  0  0  0  0  0  0  0  0  # atno 17343 bound_to 10162
  157.6628  131.0877  150.7798 LP  0  0  0  0  0  0  0  0  0  0  0  0  # atno 17370 bound_to 10713
  156.7868  130.4877  149.5391 LP  0  0  0  0  0  0  0  0  0  0  0  0  # atno 17371 bound_to 10713
  139.9933  134.6951  155.9653 LP  0  0  0  0  0  0  0  0  0  0  0  0  # atno 17394 bound_to 11000
  141.1612  133.6539  156.4325 LP  0  0  0  0  0  0  0  0  0  0  0  0  # atno 17395 bound_to 11000

$$$$
