AV-unprocessed.smi:2067|AV-procd|sdf|8426|dock7
  -GOLD-   2272011123D 1   1.00000     0.00000
 Structure written by MMmdl.
 47 48  0  0  0  0  0  0  0  0  1 V2000
  151.2038  138.6737  154.3192 C   0  0  0  0  0  0  0  0  0  0  0  0
  150.0704  139.6942  154.5061 C   0  0  1  0  0  0  0  0  0  0  0  0
  148.7645  139.1765  153.8711 C   0  0  0  0  0  0  0  0  0  0  0  0
  147.6183  140.1864  154.0264 C   0  0  0  0  0  0  0  0  0  0  0  0
  147.3961  140.5429  155.5023 C   0  0  0  0  0  0  0  0  0  0  0  0
  148.6893  141.0644  156.1468 C   0  0  0  0  0  0  0  0  0  0  0  0
  149.8495  140.0544  155.9942 C   0  0  2  0  0  0  0  0  0  0  0  0
  151.0686  140.5940  156.4935 O   0  0  0  0  0  0  0  0  0  0  0  0
  151.1554  140.6910  157.9084 C   0  0  0  0  0  0  0  0  0  0  0  0
  152.4303  141.4644  158.2611 C   0  0  0  0  0  0  0  0  0  0  0  0
  152.3222  142.0818  159.5743 N   0  0  0  0  0  0  0  0  0  0  0  0
  153.1160  141.7779  160.6749 C   0  0  0  0  0  0  0  0  0  0  0  0
  154.1047  140.8437  160.6026 C   0  0  0  0  0  0  0  0  0  0  0  0
  154.4381  140.1480  159.3997 C   0  0  0  0  0  0  0  0  0  0  0  0
  154.6908  139.5665  158.4304 N   0  0  0  0  0  0  0  0  0  0  0  0
  154.9413  140.5058  161.7531 C   0  0  0  0  0  0  0  0  0  0  0  0
  155.8368  139.6593  161.7149 O   0  0  0  0  0  0  0  0  0  0  0  0
  154.6444  141.2316  162.9276 N   0  0  0  0  0  0  0  0  0  0  0  0
  155.4049  140.9719  164.1336 C   0  0  0  0  0  0  0  0  0  0  0  0
  153.6395  142.2131  163.0226 C   0  0  0  0  0  0  0  0  0  0  0  0
  153.4342  142.8149  164.0817 O   0  0  0  0  0  0  0  0  0  0  0  0
  152.8713  142.4728  161.8626 N   0  0  0  0  0  0  0  0  0  0  0  0
  151.8326  143.4665  162.0403 C   0  0  0  0  0  0  0  0  0  0  0  0
  150.9985  137.7481  154.8575 H   0  0  0  0  0  0  0  0  0  0  0  0
  152.1527  139.0689  154.6806 H   0  0  0  0  0  0  0  0  0  0  0  0
  151.3393  138.4239  153.2668 H   0  0  0  0  0  0  0  0  0  0  0  0
  150.3597  140.6042  153.9779 H   0  0  0  0  0  0  0  0  0  0  0  0
  148.9214  138.9667  152.8123 H   0  0  0  0  0  0  0  0  0  0  0  0
  148.4796  138.2305  154.3336 H   0  0  0  0  0  0  0  0  0  0  0  0
  147.8466  141.0905  153.4605 H   0  0  0  0  0  0  0  0  0  0  0  0
  146.7018  139.7775  153.6002 H   0  0  0  0  0  0  0  0  0  0  0  0
  146.6087  141.2922  155.5896 H   0  0  0  0  0  0  0  0  0  0  0  0
  147.0471  139.6625  156.0434 H   0  0  0  0  0  0  0  0  0  0  0  0
  148.9680  142.0136  155.6871 H   0  0  0  0  0  0  0  0  0  0  0  0
  148.4957  141.2741  157.1986 H   0  0  0  0  0  0  0  0  0  0  0  0
  149.6123  139.1410  156.5430 H   0  0  0  0  0  0  0  0  0  0  0  0
  150.2863  141.2312  158.2842 H   0  0  0  0  0  0  0  0  0  0  0  0
  151.1635  139.7082  158.3834 H   0  0  0  0  0  0  0  0  0  0  0  0
  153.2971  140.8117  158.1798 H   0  0  0  0  0  0  0  0  0  0  0  0
  152.5763  142.2672  157.5383 H   0  0  0  0  0  0  0  0  0  0  0  0
  151.3618  142.2851  159.8110 H   0  0  0  0  0  0  0  0  0  0  0  0
  154.6945  140.6768  164.9081 H   0  0  0  0  0  0  0  0  0  0  0  0
  155.9182  141.8986  164.3964 H   0  0  0  0  0  0  0  0  0  0  0  0
  156.1321  140.1746  163.9857 H   0  0  0  0  0  0  0  0  0  0  0  0
  151.1486  143.0909  162.8037 H   0  0  0  0  0  0  0  0  0  0  0  0
  151.2913  143.6288  161.1113 H   0  0  0  0  0  0  0  0  0  0  0  0
  152.3151  144.3953  162.3499 H   0  0  0  0  0  0  0  0  0  0  0  0
  1  2  1  0  0  0  0
  1 24  1  0  0  0  0
  1 25  1  0  0  0  0
  1 26  1  0  0  0  0
  2  7  1  0  0  0  0
  2  3  1  0  0  0  0
  2 27  1  0  0  0  0
  3  4  1  0  0  0  0
  3 28  1  0  0  0  0
  3 29  1  0  0  0  0
  4  5  1  0  0  0  0
  4 30  1  0  0  0  0
  4 31  1  0  0  0  0
  5  6  1  0  0  0  0
  5 32  1  0  0  0  0
  5 33  1  0  0  0  0
  6  7  1  0  0  0  0
  6 34  1  0  0  0  0
  6 35  1  0  0  0  0
  7  8  1  0  0  0  0
  7 36  1  0  0  0  0
  8  9  1  0  0  0  0
  9 10  1  0  0  0  0
  9 37  1  0  0  0  0
  9 38  1  0  0  0  0
 10 11  1  0  0  0  0
 10 39  1  0  0  0  0
 10 40  1  0  0  0  0
 11 12  1  0  0  0  0
 11 41  1  0  0  0  0
 12 22  1  0  0  0  0
 12 13  2  0  0  0  0
 13 14  1  0  0  0  0
 13 16  1  0  0  0  0
 14 15  3  0  0  0  0
 16 17  2  0  0  0  0
 16 18  1  0  0  0  0
 18 19  1  0  0  0  0
 18 20  1  0  0  0  0
 19 42  1  0  0  0  0
 19 43  1  0  0  0  0
 19 44  1  0  0  0  0
 20 21  2  0  0  0  0
 20 22  1  0  0  0  0
 22 23  1  0  0  0  0
 23 45  1  0  0  0  0
 23 46  1  0  0  0  0
 23 47  1  0  0  0  0
M  END
> <s_m_source_file>
AV-unprocessed.smi

> <i_m_source_file_index>
2067

> <i_lp_mmshare_version>
43012

> <i_f3d_flags>
0

> <s_epik_input>
W0NIM11bQ0BASF0xW0NIMl1bQ0gyXVtDSDJdW0NIMl1bQ0BIXTFPW0NIMl1bQ0gyXVtOSF1jMmMoQyNOKWMoPU8pbihbQ0gzXSljKD1PKW4yW0NIM10=

> <s_epik_cmdline>
J2VwaWtfcHl0aG9uJywgJy1waCcsICc3LjAnLCAnLXRuJywgJzgnLCAnLW1hJywgJzIwMCcsICctbWV0YWxfYmluZGluZycsICctaW1hZScsICc8aW5maWxlLm1hZT4nLCAnLW9tYWUnLCAnPG91dGZpbGUubWFlPic=

> <r_epik_Ionization_Penalty>
0.00056529

> <r_epik_Ionization_Penalty_Charging>
3.94678e-10

> <r_epik_Ionization_Penalty_Neutral>
0.000565289

> <r_epik_State_Penalty>
0.000354611

> <r_epik_Charging_Adjusted_Penalty>
0.000354611

> <i_epik_Tot_Q>
0

> <i_epik_Tot_abs_Q>
0

> <r_epik_Metal_State_Penalty>
-0

> <b_epik_Metal_Only>
0

> <s_lp_Force_Field>
OPLS_2005

> <r_lp_Energy>
31.2775

> <b_lp_Chiralities_Consistent>
1

> <s_lp_Variant>
AV-unprocessed.smi:2067-4

> <Gold.Version>
5.8.1

> <Gold.Id.Protein>
6NUR|6NUR_protein|mol2

> <Gold.PLP.Fitness>
45.4746

> <Gold.PLP.PLP>
-42.9377

> <Gold.PLP.part.hbond>
-1.2668

> <Gold.PLP.part.metal>
0.0000

> <Gold.PLP.part.buried>
-2.8367

> <Gold.PLP.part.nonpolar>
-37.6455

> <Gold.PLP.part.repulsive>
0.2027

> <Gold.PLP.ligand.clash>
10.7747

> <Gold.PLP.ligand.torsion>
0.2391

> <Gold.PLP.Chemscore.Hbond>
1.0000

> <Gold.PLP.Chemscore.CHOScore>
0.0000

> <Gold.PLP.Chemscore.Metal>
0.0000

> <Gold.Chemscore.Hbonds>
donor molecule, donor type, donor heavy atom, donor atom, acceptor molecule, acceptor atom, score
      P1  H  7997  8010       L1    15  0.32

> <Gold.PLP.Chemscore.Internal.Correction>
10.7898

> <Gold.Rescore>
     Score         DG    S(hbond)    S(metal)    S(lipo)     H(rot)  DE(clash)    DE(int)     intcor
     10.57     -13.88       0.96        0.00      82.73       1.76       0.31       3.00       ----

> <Gold.Chemscore.Fitness>
10.5693

> <Gold.Chemscore.DG>
-13.8778

> <Gold.Chemscore.ZeroCoef>
-5.4800

> <Gold.Chemscore.Hbond>
0.9641

> <Gold.Chemscore.Metal>
0.0000

> <Gold.Chemscore.Lipo>
82.7250

> <Gold.Chemscore.Internal_Hbond>
0.0000

> <Gold.Chemscore.DEClash>
0.3103

> <Gold.Chemscore.DEInternal>
2.9983

> <Gold.Chemscore.Rot>
1.7583

> <Gold.Chemscore.Internal.Correction>
   9.000000E+99

> <Gold.Chemscore.Hbonds>
donor molecule, donor type, donor heavy atom, donor atom, acceptor molecule, acceptor atom, score
      P1  H  7997  8010       L1    15  0.33

> <Gold.Chemscore.Hbond.Weighted>
-3.2202

> <Gold.Chemscore.Metal.Weighted>
-0.0000

> <Gold.Chemscore.Lipo.Weighted>
-9.6788

> <Gold.Chemscore.Internal_Hbond.Weighted>
0.0000

> <Gold.Chemscore.DEClash.Weighted>
0.3103

> <Gold.Chemscore.DEInternal.Weighted>
2.9983

> <Gold.Chemscore.Rot.Weighted>
4.5012

> <Gold.Chemscore.Internal.Correction.Weighted>
   9.000000E+99

> <Gold.Protein.RotatedTorsions>
[ 6907 6896 6895 6894 ] final  -45.31 input  -60.11 | X-H torsion
[ 7974 7965 7964 7962 ] final  115.59 input  175.53 | X-H torsion
[ 8008 7997 7996 7995 ] final   10.34 input   59.86 | X-H torsion
[ 10167 10162 10161 10158 ] final -115.58 input  -65.29 | X-H torsion
[ 10718 10713 10712 10709 ] final   13.12 input   66.30 | X-H torsion
[ 10763 10752 10751 10750 ] final  164.71 input  -60.55 | X-H torsion
[ 11005 11000 10999 10996 ] final  -49.47 input  -57.11 | X-H torsion

> <Gold.Protein.ActiveResidues>
 VAL166  LYS551  ARG553  GLY616  TRP617  ASP618  TYR619  PRO620  LYS621  CYS622 
 ASP623  PHE694  ASN695  SER759  ASP760  ASP761  ALA762  ILE779  LEU786  VAL792 
 PHE793  MET794  SER795  GLU796  ALA797  LYS798  CYS799  TRP800  GLU811  SER814 

> <Gold.Protein.RotatedAtoms>
  150.9233  134.8650  159.7503 H   0  0  0  0  0  0  0  0  0  0  0  0  # atno 6907 bound_to 6896
  152.5003  134.4186  159.9483 H   0  0  0  0  0  0  0  0  0  0  0  0  # atno 6908 bound_to 6896
  151.4218  133.3656  159.2792 H   0  0  0  0  0  0  0  0  0  0  0  0  # atno 6909 bound_to 6896
  145.1900  139.3005  143.4373 H   0  0  0  0  0  0  0  0  0  0  0  0  # atno 7974 bound_to 7965
  154.7921  140.2837  155.5984 H   0  0  0  0  0  0  0  0  0  0  0  0  # atno 8008 bound_to 7997
  156.2966  140.2603  156.2699 H   0  0  0  0  0  0  0  0  0  0  0  0  # atno 8009 bound_to 7997
  154.9658  140.0377  157.2201 H   0  0  0  0  0  0  0  0  0  0  0  0  # atno 8010 bound_to 7997
  140.0886  143.4721  152.1883 H   0  0  0  0  0  0  0  0  0  0  0  0  # atno 10167 bound_to 10162
  157.0201  130.6151  149.5720 H   0  0  0  0  0  0  0  0  0  0  0  0  # atno 10718 bound_to 10713
  154.3130  135.2757  155.2556 H   0  0  0  0  0  0  0  0  0  0  0  0  # atno 10763 bound_to 10752
  154.4943  135.5825  153.6486 H   0  0  0  0  0  0  0  0  0  0  0  0  # atno 10764 bound_to 10752
  152.9885  135.6142  154.3309 H   0  0  0  0  0  0  0  0  0  0  0  0  # atno 10765 bound_to 10752
  141.0761  133.6665  156.3591 H   0  0  0  0  0  0  0  0  0  0  0  0  # atno 11005 bound_to 11000
  146.3438  140.2110  142.8590 LP  0  0  0  0  0  0  0  0  0  0  0  0  # atno 17320 bound_to 7965
  145.0050  140.8665  143.5258 LP  0  0  0  0  0  0  0  0  0  0  0  0  # atno 17321 bound_to 7965
  139.5738  144.7477  151.3820 LP  0  0  0  0  0  0  0  0  0  0  0  0  # atno 17342 bound_to 10162
  140.7040  143.7559  150.7451 LP  0  0  0  0  0  0  0  0  0  0  0  0  # atno 17343 bound_to 10162
  156.0105  130.5196  150.7973 LP  0  0  0  0  0  0  0  0  0  0  0  0  # atno 17370 bound_to 10713
  157.5256  131.0934  151.0022 LP  0  0  0  0  0  0  0  0  0  0  0  0  # atno 17371 bound_to 10713
  140.5570  134.5972  157.5423 LP  0  0  0  0  0  0  0  0  0  0  0  0  # atno 17394 bound_to 11000
  139.9573  134.7512  156.0313 LP  0  0  0  0  0  0  0  0  0  0  0  0  # atno 17395 bound_to 11000

$$$$
