AV-unprocessed.smi:2741|AV-procd|sdf|10560|dock1
  -GOLD-   2272015 13D 1   1.00000     0.00000
 Structure written by MMmdl.
 39 40  0  0  0  0  0  0  0  0  1 V2000
  152.7828  139.6540  156.1066 O   0  0  0  0  0  0  0  0  0  0  0  0
  151.7168  139.3015  156.6134 C   0  0  0  0  0  0  0  0  0  0  0  0
  151.5666  139.1879  158.1374 C   0  0  0  0  0  0  0  0  0  0  0  0
  152.1873  140.3045  158.8701 N   0  0  0  0  0  0  0  0  0  0  0  0
  151.5601  141.5625  158.7740 C   0  0  0  0  0  0  0  0  0  0  0  0
  152.0378  142.6677  159.3774 C   0  0  0  0  0  0  0  0  0  0  0  0
  151.3091  144.0000  159.2936 C   0  0  0  0  0  0  0  0  0  0  0  0
  150.0178  143.8265  159.0111 F   0  0  0  0  0  0  0  0  0  0  0  0
  151.3977  144.6388  160.4592 F   0  0  0  0  0  0  0  0  0  0  0  0
  151.8428  144.7794  158.3522 F   0  0  0  0  0  0  0  0  0  0  0  0
  153.2349  142.4998  160.1774 C   0  0  0  0  0  0  0  0  0  0  0  0
  153.8434  141.3024  160.2853 C   0  0  0  0  0  0  0  0  0  0  0  0
  153.3250  140.1144  159.6033 C   0  0  0  0  0  0  0  0  0  0  0  0
  153.8780  139.0174  159.6859 O   0  0  0  0  0  0  0  0  0  0  0  0
  150.6222  139.0135  155.8932 N   0  0  0  0  0  0  0  0  0  0  0  0
  150.5390  139.0626  154.4374 C   0  0  0  0  0  0  0  0  0  0  0  0
  149.2270  139.7083  153.9517 C   0  0  2  0  0  0  0  0  0  0  0  0
  148.8517  141.0186  154.6702 C   0  0  0  0  0  0  0  0  0  0  0  0
  147.3218  141.0138  154.8225 C   0  0  0  0  0  0  0  0  0  0  0  0
  146.8316  139.7848  154.0512 C   0  0  2  0  0  0  0  0  0  0  0  0
  145.6494  139.2444  154.6022 O   0  0  0  0  0  0  0  0  0  0  0  0
  148.0019  138.8066  154.1227 C   0  0  0  0  0  0  0  0  0  0  0  0
  150.5026  139.1226  158.3694 H   0  0  0  0  0  0  0  0  0  0  0  0
  151.9890  138.2383  158.4716 H   0  0  0  0  0  0  0  0  0  0  0  0
  150.6639  141.5735  158.1708 H   0  0  0  0  0  0  0  0  0  0  0  0
  153.6554  143.3491  160.6954 H   0  0  0  0  0  0  0  0  0  0  0  0
  154.7358  141.2146  160.8875 H   0  0  0  0  0  0  0  0  0  0  0  0
  149.7868  138.7366  156.3883 H   0  0  0  0  0  0  0  0  0  0  0  0
  151.3980  139.6021  154.0348 H   0  0  0  0  0  0  0  0  0  0  0  0
  150.6147  138.0418  154.0614 H   0  0  0  0  0  0  0  0  0  0  0  0
  149.3163  139.9284  152.8865 H   0  0  0  0  0  0  0  0  0  0  0  0
  149.3165  141.0768  155.6552 H   0  0  0  0  0  0  0  0  0  0  0  0
  149.1948  141.8828  154.1004 H   0  0  0  0  0  0  0  0  0  0  0  0
  147.0700  140.9223  155.8802 H   0  0  0  0  0  0  0  0  0  0  0  0
  146.8638  141.9335  154.4573 H   0  0  0  0  0  0  0  0  0  0  0  0
  146.6486  140.0569  153.0106 H   0  0  0  0  0  0  0  0  0  0  0  0
  144.9291  139.4464  154.0248 H   0  0  0  0  0  0  0  0  0  0  0  0
  147.9454  138.0269  153.3626 H   0  0  0  0  0  0  0  0  0  0  0  0
  148.0279  138.3214  155.1001 H   0  0  0  0  0  0  0  0  0  0  0  0
  1  2  2  0  0  0  0
  2  3  1  0  0  0  0
  2 15  1  0  0  0  0
  3  4  1  0  0  0  0
  3 23  1  0  0  0  0
  3 24  1  0  0  0  0
  4 13  1  0  0  0  0
  4  5  1  0  0  0  0
  5  6  2  0  0  0  0
  5 25  1  0  0  0  0
  6  7  1  0  0  0  0
  6 11  1  0  0  0  0
  7  8  1  0  0  0  0
  7  9  1  0  0  0  0
  7 10  1  0  0  0  0
 11 12  2  0  0  0  0
 11 26  1  0  0  0  0
 12 13  1  0  0  0  0
 12 27  1  0  0  0  0
 13 14  2  0  0  0  0
 15 16  1  0  0  0  0
 15 28  1  0  0  0  0
 16 17  1  0  0  0  0
 16 29  1  0  0  0  0
 16 30  1  0  0  0  0
 17 22  1  0  0  0  0
 17 18  1  0  0  0  0
 17 31  1  0  0  0  0
 18 19  1  0  0  0  0
 18 32  1  0  0  0  0
 18 33  1  0  0  0  0
 19 20  1  0  0  0  0
 19 34  1  0  0  0  0
 19 35  1  0  0  0  0
 20 21  1  0  0  0  0
 20 22  1  0  0  0  0
 20 36  1  0  0  0  0
 21 37  1  0  0  0  0
 22 38  1  0  0  0  0
 22 39  1  0  0  0  0
M  END
> <s_m_source_file>
AV-unprocessed.smi

> <i_m_source_file_index>
2741

> <i_lp_mmshare_version>
43012

> <i_f3d_flags>
0

> <s_epik_input>
W09IXVtDQEBIXShbQ0gyXTEpW0NIMl1bQ0gyXVtDQEhdMVtDSDJdW05IXUMoPU8pW0NIMl1uMltjSF1jKEMoRikoRilGKVtjSF1bY0hdYzI9Tw==

> <s_epik_cmdline>
J2VwaWtfcHl0aG9uJywgJy1waCcsICc3LjAnLCAnLXRuJywgJzgnLCAnLW1hJywgJzIwMCcsICctbWV0YWxfYmluZGluZycsICctaW1hZScsICc8aW5maWxlLm1hZT4nLCAnLW9tYWUnLCAnPG91dGZpbGUubWFlPic=

> <r_lp_tautomer_probability>
1

> <r_epik_Ionization_Penalty>
1.17551e-06

> <r_epik_Ionization_Penalty_Charging>
1.78841e-08

> <r_epik_Ionization_Penalty_Neutral>
1.15762e-06

> <r_epik_State_Penalty>
-0

> <r_epik_Charging_Adjusted_Penalty>
1.78841e-08

> <i_epik_Tot_Q>
0

> <i_epik_Tot_abs_Q>
0

> <r_epik_Metal_State_Penalty>
-0

> <b_epik_Metal_Only>
0

> <s_lp_Force_Field>
OPLS_2005

> <r_lp_Energy>
33.0279

> <b_lp_Chiralities_Consistent>
1

> <s_lp_Variant>
AV-unprocessed.smi:2741-3

> <Gold.Version>
5.8.1

> <Gold.Id.Protein>
6NUR|6NUR_protein|mol2

> <Gold.PLP.Fitness>
54.6658

> <Gold.PLP.PLP>
-51.6717

> <Gold.PLP.part.hbond>
-2.0000

> <Gold.PLP.part.metal>
0.0000

> <Gold.PLP.part.buried>
-3.2163

> <Gold.PLP.part.nonpolar>
-46.2119

> <Gold.PLP.part.repulsive>
0.0452

> <Gold.PLP.ligand.clash>
0.0133

> <Gold.PLP.ligand.torsion>
1.5464

> <Gold.PLP.Chemscore.Hbond>
2.0000

> <Gold.PLP.Chemscore.CHOScore>
0.0000

> <Gold.PLP.Chemscore.Metal>
0.0000

> <Gold.Chemscore.Hbonds>
donor molecule, donor type, donor heavy atom, donor atom, acceptor molecule, acceptor atom, score
      L1  H    21    37       P1 10175  0.49
      P1  H  7997  8010       L1     1  1.00

> <Gold.PLP.Chemscore.Internal.Correction>
0.1003

> <Gold.Rescore>
     Score         DG    S(hbond)    S(metal)    S(lipo)     H(rot)  DE(clash)    DE(int)     intcor
     15.20     -17.64       2.00        0.00     101.19       2.48       1.59       0.85       ----

> <Gold.Chemscore.Fitness>
15.2012

> <Gold.Chemscore.DG>
-17.6388

> <Gold.Chemscore.ZeroCoef>
-5.4800

> <Gold.Chemscore.Hbond>
1.9970

> <Gold.Chemscore.Metal>
0.0000

> <Gold.Chemscore.Lipo>
101.1923

> <Gold.Chemscore.Internal_Hbond>
0.0000

> <Gold.Chemscore.DEClash>
1.5918

> <Gold.Chemscore.DEInternal>
0.8458

> <Gold.Chemscore.Rot>
2.4807

> <Gold.Chemscore.Internal.Correction>
   9.000000E+99

> <Gold.Chemscore.Hbonds>
donor molecule, donor type, donor heavy atom, donor atom, acceptor molecule, acceptor atom, score
      L1  H    21    37       P1 10175  0.48
      P1  H  7997  8010       L1     1  1.00

> <Gold.Chemscore.Hbond.Weighted>
-6.6699

> <Gold.Chemscore.Metal.Weighted>
-0.0000

> <Gold.Chemscore.Lipo.Weighted>
-11.8395

> <Gold.Chemscore.Internal_Hbond.Weighted>
0.0000

> <Gold.Chemscore.DEClash.Weighted>
1.5918

> <Gold.Chemscore.DEInternal.Weighted>
0.8458

> <Gold.Chemscore.Rot.Weighted>
6.3507

> <Gold.Chemscore.Internal.Correction.Weighted>
   9.000000E+99

> <Gold.Protein.RotatedTorsions>
[ 6907 6896 6895 6894 ] final  167.18 input  -60.11 | X-H torsion
[ 7974 7965 7964 7962 ] final -131.22 input  175.53 | X-H torsion
[ 8008 7997 7996 7995 ] final   76.44 input   59.86 | X-H torsion
[ 10167 10162 10161 10158 ] final  -84.31 input  -65.29 | X-H torsion
[ 10718 10713 10712 10709 ] final   29.12 input   66.30 | X-H torsion
[ 10763 10752 10751 10750 ] final    2.29 input  -60.55 | X-H torsion
[ 11005 11000 10999 10996 ] final   12.76 input  -57.11 | X-H torsion

> <Gold.Protein.ActiveResidues>
 VAL166  LYS551  ARG553  GLY616  TRP617  ASP618  TYR619  PRO620  LYS621  CYS622 
 ASP623  PHE694  ASN695  SER759  ASP760  ASP761  ALA762  ILE779  LEU786  VAL792 
 PHE793  MET794  SER795  GLU796  ALA797  LYS798  CYS799  TRP800  GLU811  SER814 

> <Gold.Protein.RotatedAtoms>
  151.8673  133.3468  159.3722 H   0  0  0  0  0  0  0  0  0  0  0  0  # atno 6907 bound_to 6896
  150.7162  134.5147  159.5634 H   0  0  0  0  0  0  0  0  0  0  0  0  # atno 6908 bound_to 6896
  152.2673  134.7971  160.0471 H   0  0  0  0  0  0  0  0  0  0  0  0  # atno 6909 bound_to 6896
  144.9400  140.7227  143.4853 H   0  0  0  0  0  0  0  0  0  0  0  0  # atno 7974 bound_to 7965
  155.8273  140.3467  155.5551 H   0  0  0  0  0  0  0  0  0  0  0  0  # atno 8008 bound_to 7997
  155.8279  140.0922  157.1830 H   0  0  0  0  0  0  0  0  0  0  0  0  # atno 8009 bound_to 7997
  154.4004  140.1418  156.3566 H   0  0  0  0  0  0  0  0  0  0  0  0  # atno 8010 bound_to 7997
  140.4145  143.2609  151.8974 H   0  0  0  0  0  0  0  0  0  0  0  0  # atno 10167 bound_to 10162
  157.2424  130.7075  149.6365 H   0  0  0  0  0  0  0  0  0  0  0  0  # atno 10718 bound_to 10713
  153.2974  135.6953  153.7235 H   0  0  0  0  0  0  0  0  0  0  0  0  # atno 10763 bound_to 10752
  153.6162  135.3435  155.2996 H   0  0  0  0  0  0  0  0  0  0  0  0  # atno 10764 bound_to 10752
  154.8541  135.4375  154.2075 H   0  0  0  0  0  0  0  0  0  0  0  0  # atno 10765 bound_to 10752
  140.4884  134.0865  155.7766 H   0  0  0  0  0  0  0  0  0  0  0  0  # atno 11005 bound_to 11000
  145.3007  139.1851  143.4691 LP  0  0  0  0  0  0  0  0  0  0  0  0  # atno 17320 bound_to 7965
  146.3282  140.2997  142.8620 LP  0  0  0  0  0  0  0  0  0  0  0  0  # atno 17321 bound_to 7965
  139.4782  144.5503  151.8396 LP  0  0  0  0  0  0  0  0  0  0  0  0  # atno 17342 bound_to 10162
  140.4602  144.1733  150.5905 LP  0  0  0  0  0  0  0  0  0  0  0  0  # atno 17343 bound_to 10162
  155.9669  130.4454  150.5499 LP  0  0  0  0  0  0  0  0  0  0  0  0  # atno 17370 bound_to 10713
  157.3365  131.0709  151.1821 LP  0  0  0  0  0  0  0  0  0  0  0  0  # atno 17371 bound_to 10713
  141.1496  133.8992  157.2130 LP  0  0  0  0  0  0  0  0  0  0  0  0  # atno 17394 bound_to 11000
  139.9784  135.0106  156.9688 LP  0  0  0  0  0  0  0  0  0  0  0  0  # atno 17395 bound_to 11000

$$$$
