AV-unprocessed.smi:1385|AV-procd|sdf|5628|dock10
  -GOLD-   22720 5243D 1   1.00000     0.00000
 Structure written by MMmdl.
 38 39  0  0  0  0  0  0  0  0  1 V2000
  147.5306  141.8746  157.8938 C   0  0  0  0  0  0  0  0  0  0  0  0
  146.9119  140.8609  156.9933 C   0  0  0  0  0  0  0  0  0  0  0  0
  146.8791  139.5552  157.2863 N   0  0  0  0  0  0  0  0  0  0  0  0
  146.2457  138.8108  156.3006 N   0  0  0  0  0  0  0  0  0  0  0  0
  145.8177  139.5807  155.2907 C   0  0  0  0  0  0  0  0  0  0  0  0
  145.1346  139.0804  154.1508 N   0  0  0  0  0  0  0  0  0  0  0  0
  145.0852  137.8155  153.6973 C   0  0  0  0  0  0  0  0  0  0  0  0
  145.6464  136.8504  154.2165 O   0  0  0  0  0  0  0  0  0  0  0  0
  144.3388  137.7271  152.5868 N   0  0  0  0  0  0  0  0  0  0  0  0
  144.0849  136.4981  151.8407 C   0  0  0  0  0  0  0  0  0  0  0  0
  143.5358  135.3974  152.7632 C   0  0  0  0  0  0  0  0  0  0  0  0
  143.3945  134.0597  152.0153 C   0  0  0  0  0  0  0  0  0  0  0  0
  144.6864  133.6424  151.4497 N   0  0  0  0  0  0  0  0  0  0  0  0
  144.6099  132.3255  150.7746 C   0  0  0  0  0  0  0  0  0  0  0  0
  144.1463  132.3776  149.3140 C   0  0  0  0  0  0  0  0  0  0  0  0
  142.8828  132.7477  149.0899 N   0  0  0  0  0  0  0  0  0  0  0  0
  144.9168  132.0808  148.4038 O   0  0  0  0  0  0  0  0  0  0  0  0
  145.1684  134.6453  150.4941 C   0  0  0  0  0  0  0  0  0  0  0  0
  145.3835  135.9998  151.1917 C   0  0  0  0  0  0  0  0  0  0  0  0
  146.1582  141.2938  155.4638 S   0  0  0  0  0  0  0  0  0  0  0  0
  148.2458  141.4025  158.5681 H   0  0  0  0  0  0  0  0  0  0  0  0
  146.7583  142.3636  158.4876 H   0  0  0  0  0  0  0  0  0  0  0  0
  148.0527  142.6301  157.3063 H   0  0  0  0  0  0  0  0  0  0  0  0
  144.6242  139.7681  153.6165 H   0  0  0  0  0  0  0  0  0  0  0  0
  143.9159  138.5710  152.2287 H   0  0  0  0  0  0  0  0  0  0  0  0
  143.3597  136.6985  151.0493 H   0  0  0  0  0  0  0  0  0  0  0  0
  144.1982  135.2638  153.6200 H   0  0  0  0  0  0  0  0  0  0  0  0
  142.5669  135.6942  153.1667 H   0  0  0  0  0  0  0  0  0  0  0  0
  143.0191  133.3186  152.7208 H   0  0  0  0  0  0  0  0  0  0  0  0
  142.6482  134.1469  151.2236 H   0  0  0  0  0  0  0  0  0  0  0  0
  145.5829  131.8321  150.8192 H   0  0  0  0  0  0  0  0  0  0  0  0
  143.9119  131.6813  151.3113 H   0  0  0  0  0  0  0  0  0  0  0  0
  142.5325  132.7876  148.1438 H   0  0  0  0  0  0  0  0  0  0  0  0
  142.2817  132.9775  149.8678 H   0  0  0  0  0  0  0  0  0  0  0  0
  146.1152  134.3194  150.0611 H   0  0  0  0  0  0  0  0  0  0  0  0
  144.4633  134.7536  149.6677 H   0  0  0  0  0  0  0  0  0  0  0  0
  145.7450  136.7320  150.4689 H   0  0  0  0  0  0  0  0  0  0  0  0
  146.1649  135.8979  151.9465 H   0  0  0  0  0  0  0  0  0  0  0  0
  1  2  1  0  0  0  0
  1 21  1  0  0  0  0
  1 22  1  0  0  0  0
  1 23  1  0  0  0  0
  2 20  1  0  0  0  0
  2  3  2  0  0  0  0
  3  4  1  0  0  0  0
  4  5  2  0  0  0  0
  5  6  1  0  0  0  0
  5 20  1  0  0  0  0
  6  7  1  0  0  0  0
  6 24  1  0  0  0  0
  7  8  2  0  0  0  0
  7  9  1  0  0  0  0
  9 10  1  0  0  0  0
  9 25  1  0  0  0  0
 10 19  1  0  0  0  0
 10 11  1  0  0  0  0
 10 26  1  0  0  0  0
 11 12  1  0  0  0  0
 11 27  1  0  0  0  0
 11 28  1  0  0  0  0
 12 13  1  0  0  0  0
 12 29  1  0  0  0  0
 12 30  1  0  0  0  0
 13 14  1  0  0  0  0
 13 18  1  0  0  0  0
 14 15  1  0  0  0  0
 14 31  1  0  0  0  0
 14 32  1  0  0  0  0
 15 16  1  0  0  0  0
 15 17  2  0  0  0  0
 16 33  1  0  0  0  0
 16 34  1  0  0  0  0
 18 19  1  0  0  0  0
 18 35  1  0  0  0  0
 18 36  1  0  0  0  0
 19 37  1  0  0  0  0
 19 38  1  0  0  0  0
M  END
> <s_m_source_file>
AV-unprocessed.smi

> <i_m_source_file_index>
1385

> <i_lp_mmshare_version>
43012

> <i_f3d_flags>
0

> <s_epik_input>
W0NIM11jMW5uYyhzMSlbTkhdQyg9TylbTkhdW0NIXTJbQ0gyXVtDSDJdTihbQ0gyXVtDSDJdMilbQ0gyXUMoPU8pW05IMl0=

> <s_epik_cmdline>
J2VwaWtfcHl0aG9uJywgJy1waCcsICc3LjAnLCAnLXRuJywgJzgnLCAnLW1hJywgJzIwMCcsICctbWV0YWxfYmluZGluZycsICctaW1hZScsICc8aW5maWxlLm1hZT4nLCAnLW9tYWUnLCAnPG91dGZpbGUubWFlPic=

> <r_lp_tautomer_probability>
1

> <r_epik_Ionization_Penalty>
0.159363

> <r_epik_Ionization_Penalty_Charging>
0

> <r_epik_Ionization_Penalty_Neutral>
0.159363

> <r_epik_State_Penalty>
0.146692

> <r_epik_Charging_Adjusted_Penalty>
0.146692

> <i_epik_Tot_Q>
0

> <i_epik_Tot_abs_Q>
0

> <r_epik_Metal_State_Penalty>
0.501772

> <b_epik_Metal_Only>
0

> <s_lp_Force_Field>
OPLS_2005

> <r_lp_Energy>
10.053

> <b_lp_Chiralities_Consistent>
1

> <s_lp_Variant>
AV-unprocessed.smi:1385-1

> <Gold.Version>
5.8.1

> <Gold.Id.Protein>
6NUR|6NUR_protein|mol2

> <Gold.PLP.Fitness>
34.6672

> <Gold.PLP.PLP>
-28.6756

> <Gold.PLP.part.hbond>
-6.1744

> <Gold.PLP.part.metal>
0.0000

> <Gold.PLP.part.buried>
-2.3979

> <Gold.PLP.part.nonpolar>
-19.3114

> <Gold.PLP.part.repulsive>
1.1955

> <Gold.PLP.ligand.clash>
0.0000

> <Gold.PLP.ligand.torsion>
0.4277

> <Gold.PLP.Chemscore.Hbond>
2.2800

> <Gold.PLP.Chemscore.CHOScore>
0.0000

> <Gold.PLP.Chemscore.Metal>
0.0000

> <Gold.Chemscore.Hbonds>
donor molecule, donor type, donor heavy atom, donor atom, acceptor molecule, acceptor atom, score
      L1  H     6    24       P1 10175  1.00
      L1  H     9    25       P1 10175  0.96
      L1  H    16    34       P1 10186  0.32

> <Gold.PLP.Chemscore.Internal.Correction>
0.0071

> <Gold.Rescore>
     Score         DG    S(hbond)    S(metal)    S(lipo)     H(rot)  DE(clash)    DE(int)     intcor
     10.00     -13.10       2.35        0.00      42.74       2.04       0.19       2.91       ----

> <Gold.Chemscore.Fitness>
10.0019

> <Gold.Chemscore.DG>
-13.0988

> <Gold.Chemscore.ZeroCoef>
-5.4800

> <Gold.Chemscore.Hbond>
2.3480

> <Gold.Chemscore.Metal>
0.0000

> <Gold.Chemscore.Lipo>
42.7426

> <Gold.Chemscore.Internal_Hbond>
0.0000

> <Gold.Chemscore.DEClash>
0.1904

> <Gold.Chemscore.DEInternal>
2.9065

> <Gold.Chemscore.Rot>
2.0407

> <Gold.Chemscore.Internal.Correction>
   9.000000E+99

> <Gold.Chemscore.Hbonds>
donor molecule, donor type, donor heavy atom, donor atom, acceptor molecule, acceptor atom, score
      L1  H     6    24       P1 10175  0.99
      L1  H     9    25       P1 10175  0.92
      L1  H    16    34       P1 10186  0.32

> <Gold.Chemscore.Hbond.Weighted>
-7.8422

> <Gold.Chemscore.Metal.Weighted>
-0.0000

> <Gold.Chemscore.Lipo.Weighted>
-5.0009

> <Gold.Chemscore.Internal_Hbond.Weighted>
0.0000

> <Gold.Chemscore.DEClash.Weighted>
0.1904

> <Gold.Chemscore.DEInternal.Weighted>
2.9065

> <Gold.Chemscore.Rot.Weighted>
5.2243

> <Gold.Chemscore.Internal.Correction.Weighted>
   9.000000E+99

> <Gold.Protein.RotatedTorsions>
[ 6907 6896 6895 6894 ] final  -86.48 input  -60.11 | X-H torsion
[ 7974 7965 7964 7962 ] final   91.35 input  175.53 | X-H torsion
[ 8008 7997 7996 7995 ] final  171.82 input   59.86 | X-H torsion
[ 10167 10162 10161 10158 ] final  -43.72 input  -65.29 | X-H torsion
[ 10718 10713 10712 10709 ] final   83.62 input   66.30 | X-H torsion
[ 10763 10752 10751 10750 ] final  -48.42 input  -60.55 | X-H torsion
[ 11005 11000 10999 10996 ] final  -53.94 input  -57.11 | X-H torsion

> <Gold.Protein.ActiveResidues>
 VAL166  LYS551  ARG553  GLY616  TRP617  ASP618  TYR619  PRO620  LYS621  CYS622 
 ASP623  PHE694  ASN695  SER759  ASP760  ASP761  ALA762  ILE779  LEU786  VAL792 
 PHE793  MET794  SER795  GLU796  ALA797  LYS798  CYS799  TRP800  GLU811  SER814 

> <Gold.Protein.RotatedAtoms>
  150.6867  134.3043  159.4719 H   0  0  0  0  0  0  0  0  0  0  0  0  # atno 6907 bound_to 6896
  152.0936  134.9388  160.0580 H   0  0  0  0  0  0  0  0  0  0  0  0  # atno 6908 bound_to 6896
  152.0694  133.4065  159.4489 H   0  0  0  0  0  0  0  0  0  0  0  0  # atno 6909 bound_to 6896
  145.5068  139.2276  143.2746 H   0  0  0  0  0  0  0  0  0  0  0  0  # atno 7974 bound_to 7965
  156.1234  140.1502  156.9171 H   0  0  0  0  0  0  0  0  0  0  0  0  # atno 8008 bound_to 7997
  154.4853  140.0867  156.7513 H   0  0  0  0  0  0  0  0  0  0  0  0  # atno 8009 bound_to 7997
  155.4387  140.3430  155.4290 H   0  0  0  0  0  0  0  0  0  0  0  0  # atno 8010 bound_to 7997
  140.6923  143.2968  151.3392 H   0  0  0  0  0  0  0  0  0  0  0  0  # atno 10167 bound_to 10162
  157.6882  131.0099  150.2551 H   0  0  0  0  0  0  0  0  0  0  0  0  # atno 10718 bound_to 10713
  154.0775  135.6596  153.4833 H   0  0  0  0  0  0  0  0  0  0  0  0  # atno 10763 bound_to 10752
  153.0368  135.5172  154.7506 H   0  0  0  0  0  0  0  0  0  0  0  0  # atno 10764 bound_to 10752
  154.6591  135.3012  154.9857 H   0  0  0  0  0  0  0  0  0  0  0  0  # atno 10765 bound_to 10752
  141.1001  133.6619  156.4246 H   0  0  0  0  0  0  0  0  0  0  0  0  # atno 11005 bound_to 11000
  146.2191  140.5873  142.9025 LP  0  0  0  0  0  0  0  0  0  0  0  0  # atno 17320 bound_to 7965
  144.7749  140.5718  143.6645 LP  0  0  0  0  0  0  0  0  0  0  0  0  # atno 17321 bound_to 7965
  139.6340  144.0666  152.2500 LP  0  0  0  0  0  0  0  0  0  0  0  0  # atno 17342 bound_to 10162
  140.0150  144.6195  150.7615 LP  0  0  0  0  0  0  0  0  0  0  0  0  # atno 17343 bound_to 10162
  156.3140  130.3776  149.7635 LP  0  0  0  0  0  0  0  0  0  0  0  0  # atno 17370 bound_to 10713
  156.5226  130.8222  151.3209 LP  0  0  0  0  0  0  0  0  0  0  0  0  # atno 17371 bound_to 10713
  140.5043  134.6455  157.5260 LP  0  0  0  0  0  0  0  0  0  0  0  0  # atno 17394 bound_to 11000
  139.9850  134.7077  155.9791 LP  0  0  0  0  0  0  0  0  0  0  0  0  # atno 17395 bound_to 11000

$$$$
