AV-unprocessed.smi:1669|AV-procd|sdf|6688|dock2
  -GOLD-   22720 7413D 1   1.00000     0.00000
 Structure written by MMmdl.
 47 49  0  0  0  0  0  0  0  0  1 V2000
  147.0661  142.8468  157.7930 C   0  0  0  0  0  0  0  0  0  0  0  0
  147.1420  142.1864  156.4928 N   0  0  0  0  0  0  0  0  0  0  0  0
  145.7996  141.9809  155.9371 C   0  0  0  0  0  0  0  0  0  0  0  0
  145.3440  143.0839  154.9968 C   0  0  0  0  0  0  0  0  0  0  0  0
  145.9240  143.2107  153.7165 C   0  0  0  0  0  0  0  0  0  0  0  0
  145.4992  144.2326  152.8452 C   0  0  0  0  0  0  0  0  0  0  0  0
  144.4921  145.1300  153.2500 C   0  0  0  0  0  0  0  0  0  0  0  0
  143.9090  145.0045  154.5256 C   0  0  0  0  0  0  0  0  0  0  0  0
  144.3328  143.9824  155.3972 C   0  0  0  0  0  0  0  0  0  0  0  0
  147.8760  140.9260  156.6193 C   0  0  0  0  0  0  0  0  0  0  0  0
  148.9428  140.6668  155.5310 C   0  0  1  0  0  0  0  0  0  0  0  0
  148.3194  140.7782  154.2689 O   0  0  0  0  0  0  0  0  0  0  0  0
  150.1123  141.6713  155.5639 C   0  0  0  0  0  0  0  0  0  0  0  0
  151.0724  141.3885  156.6236 N   0  0  0  0  0  0  0  0  0  0  0  0
  151.7488  140.2344  156.8559 C   0  0  0  0  0  0  0  0  0  0  0  0
  151.5753  139.0282  155.9755 C   0  0  0  0  0  0  0  0  0  0  0  0
  151.8624  139.2671  154.6122 O   0  0  0  0  0  0  0  0  0  0  0  0
  152.5614  140.2471  157.9153 N   0  0  0  0  0  0  0  0  0  0  0  0
  152.4063  141.5273  158.4073 C   0  0  0  0  0  0  0  0  0  0  0  0
  153.0005  142.1606  159.5222 C   0  0  0  0  0  0  0  0  0  0  0  0
  152.6826  143.4981  159.8368 C   0  0  0  0  0  0  0  0  0  0  0  0
  151.7682  144.2196  159.0426 C   0  0  0  0  0  0  0  0  0  0  0  0
  151.1641  143.6069  157.9281 C   0  0  0  0  0  0  0  0  0  0  0  0
  151.4844  142.2710  157.6184 C   0  0  0  0  0  0  0  0  0  0  0  0
  148.0632  143.0169  158.2002 H   0  0  0  0  0  0  0  0  0  0  0  0
  146.5059  142.2439  158.5092 H   0  0  0  0  0  0  0  0  0  0  0  0
  146.5815  143.8203  157.7157 H   0  0  0  0  0  0  0  0  0  0  0  0
  145.7569  141.0572  155.3629 H   0  0  0  0  0  0  0  0  0  0  0  0
  145.0754  141.8662  156.7454 H   0  0  0  0  0  0  0  0  0  0  0  0
  146.6972  142.5253  153.4016 H   0  0  0  0  0  0  0  0  0  0  0  0
  145.9457  144.3283  151.8665 H   0  0  0  0  0  0  0  0  0  0  0  0
  144.1670  145.9142  152.5822 H   0  0  0  0  0  0  0  0  0  0  0  0
  143.1364  145.6927  154.8359 H   0  0  0  0  0  0  0  0  0  0  0  0
  143.8809  143.8926  156.3743 H   0  0  0  0  0  0  0  0  0  0  0  0
  148.3734  140.8833  157.5898 H   0  0  0  0  0  0  0  0  0  0  0  0
  147.1507  140.1125  156.6320 H   0  0  0  0  0  0  0  0  0  0  0  0
  149.3498  139.6613  155.6069 H   0  0  0  0  0  0  0  0  0  0  0  0
  147.7418  140.0383  154.1573 H   0  0  0  0  0  0  0  0  0  0  0  0
  150.6362  141.6797  154.6080 H   0  0  0  0  0  0  0  0  0  0  0  0
  149.7316  142.6839  155.7021 H   0  0  0  0  0  0  0  0  0  0  0  0
  152.2273  138.2302  156.3295 H   0  0  0  0  0  0  0  0  0  0  0  0
  150.5481  138.6708  156.0437 H   0  0  0  0  0  0  0  0  0  0  0  0
  152.6543  138.8042  154.3857 H   0  0  0  0  0  0  0  0  0  0  0  0
  153.7020  141.6157  160.1364 H   0  0  0  0  0  0  0  0  0  0  0  0
  153.1421  143.9723  160.6917 H   0  0  0  0  0  0  0  0  0  0  0  0
  151.5298  145.2437  159.2901 H   0  0  0  0  0  0  0  0  0  0  0  0
  150.4603  144.1572  157.3215 H   0  0  0  0  0  0  0  0  0  0  0  0
  1  2  1  0  0  0  0
  1 25  1  0  0  0  0
  1 26  1  0  0  0  0
  1 27  1  0  0  0  0
  2  3  1  0  0  0  0
  2 10  1  0  0  0  0
  3  4  1  0  0  0  0
  3 28  1  0  0  0  0
  3 29  1  0  0  0  0
  4  9  1  0  0  0  0
  4  5  2  0  0  0  0
  5  6  1  0  0  0  0
  5 30  1  0  0  0  0
  6  7  2  0  0  0  0
  6 31  1  0  0  0  0
  7  8  1  0  0  0  0
  7 32  1  0  0  0  0
  8  9  2  0  0  0  0
  8 33  1  0  0  0  0
  9 34  1  0  0  0  0
 10 11  1  0  0  0  0
 10 35  1  0  0  0  0
 10 36  1  0  0  0  0
 11 12  1  0  0  0  0
 11 13  1  0  0  0  0
 11 37  1  0  0  0  0
 12 38  1  0  0  0  0
 13 14  1  0  0  0  0
 13 39  1  0  0  0  0
 13 40  1  0  0  0  0
 14 24  1  0  0  0  0
 14 15  1  0  0  0  0
 15 16  1  0  0  0  0
 15 18  2  0  0  0  0
 16 17  1  0  0  0  0
 16 41  1  0  0  0  0
 16 42  1  0  0  0  0
 17 43  1  0  0  0  0
 18 19  1  0  0  0  0
 19 24  2  0  0  0  0
 19 20  1  0  0  0  0
 20 21  2  0  0  0  0
 20 44  1  0  0  0  0
 21 22  1  0  0  0  0
 21 45  1  0  0  0  0
 22 23  2  0  0  0  0
 22 46  1  0  0  0  0
 23 24  1  0  0  0  0
 23 47  1  0  0  0  0
M  END
> <s_m_source_file>
AV-unprocessed.smi

> <i_m_source_file_index>
1669

> <i_lp_mmshare_version>
43012

> <i_f3d_flags>
0

> <s_epik_input>
W2NIXTFbY0hdW2NIXVtjSF1bY0hdYzFbQ0gyXU4oW0NIM10pW0NIMl1bQ0BIXShbT0hdKVtDSDJdbihjKG4yKVtDSDJdW09IXSljKGMyMylbY0hdW2NIXVtjSF1bY0hdMw==

> <s_epik_cmdline>
J2VwaWtfcHl0aG9uJywgJy1waCcsICc3LjAnLCAnLXRuJywgJzgnLCAnLW1hJywgJzIwMCcsICctbWV0YWxfYmluZGluZycsICctaW1hZScsICc8aW5maWxlLm1hZT4nLCAnLW9tYWUnLCAnPG91dGZpbGUubWFlPic=

> <r_epik_Ionization_Penalty>
1.56301

> <r_epik_Ionization_Penalty_Charging>
0

> <r_epik_Ionization_Penalty_Neutral>
1.56301

> <r_epik_State_Penalty>
1.64771

> <r_epik_Charging_Adjusted_Penalty>
1.64771

> <i_epik_Tot_Q>
0

> <i_epik_Tot_abs_Q>
0

> <r_epik_Metal_State_Penalty>
1.61258

> <b_epik_Metal_Only>
0

> <s_lp_Force_Field>
OPLS_2005

> <r_lp_Energy>
25.3744

> <b_lp_Chiralities_Consistent>
1

> <s_lp_Variant>
AV-unprocessed.smi:1669-6

> <Gold.Version>
5.8.1

> <Gold.Id.Protein>
6NUR|6NUR_protein|mol2

> <Gold.PLP.Fitness>
51.7802

> <Gold.PLP.PLP>
-48.6970

> <Gold.PLP.part.hbond>
-2.0000

> <Gold.PLP.part.metal>
0.0000

> <Gold.PLP.part.buried>
-5.8520

> <Gold.PLP.part.nonpolar>
-40.5488

> <Gold.PLP.part.repulsive>
0.1565

> <Gold.PLP.ligand.clash>
0.0000

> <Gold.PLP.ligand.torsion>
1.4187

> <Gold.PLP.Chemscore.Hbond>
1.8695

> <Gold.PLP.Chemscore.CHOScore>
0.0000

> <Gold.PLP.Chemscore.Metal>
0.0000

> <Gold.Chemscore.Hbonds>
donor molecule, donor type, donor heavy atom, donor atom, acceptor molecule, acceptor atom, score
      P1  H  7989  7998       L1    17  0.98
      P1  H  7997  8010       L1    18  0.54

> <Gold.PLP.Chemscore.Internal.Correction>
0.3121

> <Gold.Rescore>
     Score         DG    S(hbond)    S(metal)    S(lipo)     H(rot)  DE(clash)    DE(int)     intcor
     14.66     -16.15       1.06        0.00     127.83       3.06       0.09       1.40       ----

> <Gold.Chemscore.Fitness>
14.6620

> <Gold.Chemscore.DG>
-16.1519

> <Gold.Chemscore.ZeroCoef>
-5.4800

> <Gold.Chemscore.Hbond>
1.0632

> <Gold.Chemscore.Metal>
0.0000

> <Gold.Chemscore.Lipo>
127.8339

> <Gold.Chemscore.Internal_Hbond>
0.0000

> <Gold.Chemscore.DEClash>
0.0915

> <Gold.Chemscore.DEInternal>
1.3984

> <Gold.Chemscore.Rot>
3.0609

> <Gold.Chemscore.Internal.Correction>
   9.000000E+99

> <Gold.Chemscore.Hbonds>
donor molecule, donor type, donor heavy atom, donor atom, acceptor molecule, acceptor atom, score
      P1  H  7989  7998       L1    17  0.69
      P1  H  7997  8010       L1    18  0.08

> <Gold.Chemscore.Hbond.Weighted>
-3.5511

> <Gold.Chemscore.Metal.Weighted>
-0.0000

> <Gold.Chemscore.Lipo.Weighted>
-14.9566

> <Gold.Chemscore.Internal_Hbond.Weighted>
0.0000

> <Gold.Chemscore.DEClash.Weighted>
0.0915

> <Gold.Chemscore.DEInternal.Weighted>
1.3984

> <Gold.Chemscore.Rot.Weighted>
7.8358

> <Gold.Chemscore.Internal.Correction.Weighted>
   9.000000E+99

> <Gold.Protein.RotatedTorsions>
[ 6907 6896 6895 6894 ] final  -44.79 input  -60.11 | X-H torsion
[ 7974 7965 7964 7962 ] final  129.47 input  175.53 | X-H torsion
[ 8008 7997 7996 7995 ] final   48.32 input   59.86 | X-H torsion
[ 10167 10162 10161 10158 ] final   36.06 input  -65.29 | X-H torsion
[ 10718 10713 10712 10709 ] final  139.89 input   66.30 | X-H torsion
[ 10763 10752 10751 10750 ] final   19.05 input  -60.55 | X-H torsion
[ 11005 11000 10999 10996 ] final  173.51 input  -57.11 | X-H torsion

> <Gold.Protein.ActiveResidues>
 VAL166  LYS551  ARG553  GLY616  TRP617  ASP618  TYR619  PRO620  LYS621  CYS622 
 ASP623  PHE694  ASN695  SER759  ASP760  ASP761  ALA762  ILE779  LEU786  VAL792 
 PHE793  MET794  SER795  GLU796  ALA797  LYS798  CYS799  TRP800  GLU811  SER814 

> <Gold.Protein.RotatedAtoms>
  150.9290  134.8706  159.7538 H   0  0  0  0  0  0  0  0  0  0  0  0  # atno 6907 bound_to 6896
  152.5029  134.4107  159.9457 H   0  0  0  0  0  0  0  0  0  0  0  0  # atno 6908 bound_to 6896
  151.4135  133.3680  159.2782 H   0  0  0  0  0  0  0  0  0  0  0  0  # atno 6909 bound_to 6896
  145.0283  139.4069  143.5162 H   0  0  0  0  0  0  0  0  0  0  0  0  # atno 7974 bound_to 7965
  155.3837  140.3430  155.4248 H   0  0  0  0  0  0  0  0  0  0  0  0  # atno 8008 bound_to 7997
  156.1596  140.1596  156.8668 H   0  0  0  0  0  0  0  0  0  0  0  0  # atno 8009 bound_to 7997
  154.5127  140.0786  156.8003 H   0  0  0  0  0  0  0  0  0  0  0  0  # atno 8010 bound_to 7997
  140.4163  144.1522  150.6143 H   0  0  0  0  0  0  0  0  0  0  0  0  # atno 10167 bound_to 10162
  157.4093  131.1026  151.0470 H   0  0  0  0  0  0  0  0  0  0  0  0  # atno 10718 bound_to 10713
  153.1195  135.6716  153.9359 H   0  0  0  0  0  0  0  0  0  0  0  0  # atno 10763 bound_to 10752
  153.8879  135.3050  155.3448 H   0  0  0  0  0  0  0  0  0  0  0  0  # atno 10764 bound_to 10752
  154.7608  135.4989  153.9540 H   0  0  0  0  0  0  0  0  0  0  0  0  # atno 10765 bound_to 10752
  140.3412  134.7275  157.4204 H   0  0  0  0  0  0  0  0  0  0  0  0  # atno 11005 bound_to 11000
  146.3495  139.9819  142.8695 LP  0  0  0  0  0  0  0  0  0  0  0  0  # atno 17320 bound_to 7965
  145.1804  140.9764  143.4269 LP  0  0  0  0  0  0  0  0  0  0  0  0  # atno 17321 bound_to 7965
  140.4583  143.2459  151.9255 LP  0  0  0  0  0  0  0  0  0  0  0  0  # atno 17342 bound_to 10162
  139.4782  144.5494  151.8409 LP  0  0  0  0  0  0  0  0  0  0  0  0  # atno 17343 bound_to 10162
  157.1441  130.6155  149.5563 LP  0  0  0  0  0  0  0  0  0  0  0  0  # atno 17370 bound_to 10713
  155.9846  130.4871  150.6990 LP  0  0  0  0  0  0  0  0  0  0  0  0  # atno 17371 bound_to 10713
  140.0779  134.5771  155.8571 LP  0  0  0  0  0  0  0  0  0  0  0  0  # atno 17394 bound_to 11000
  141.2038  133.6634  156.6083 LP  0  0  0  0  0  0  0  0  0  0  0  0  # atno 17395 bound_to 11000

$$$$
