AV-unprocessed.smi:380|AV-procd|sdf|2460|dock10
  -GOLD-   2262022403D 1   1.00000     0.00000
 Structure written by MMmdl.
 39 40  0  0  0  0  0  0  0  0  1 V2000
  159.3757  139.8104  160.9283 C   0  0  0  0  0  0  0  0  0  0  0  0
  157.8750  139.9091  161.2536 C   0  0  0  0  0  0  0  0  0  0  0  0
  157.3742  138.6131  161.9073 C   0  0  0  0  0  0  0  0  0  0  0  0
  157.0244  140.2575  160.0127 C   0  0  0  0  0  0  0  0  0  0  0  0
  155.5982  140.3371  160.3109 N   0  0  0  0  0  0  0  0  0  0  0  0
  154.6382  139.6413  159.6842 C   0  0  0  0  0  0  0  0  0  0  0  0
  154.8671  138.8606  158.7591 O   0  0  0  0  0  0  0  0  0  0  0  0
  153.2050  139.8769  160.1843 C   0  0  0  0  0  0  0  0  0  0  0  0
  152.4313  140.8000  159.3252 N   0  0  0  0  0  0  0  0  0  0  0  0
  152.0822  140.3727  158.0186 C   0  0  0  0  0  0  0  0  0  0  0  0
  152.4138  139.2602  157.6048 O   0  0  0  0  0  0  0  0  0  0  0  0
  151.3183  141.3330  157.2257 C   0  0  0  0  0  0  0  0  0  0  0  0
  150.9098  140.9226  155.9231 C   0  0  0  0  0  0  0  0  0  0  0  0
  150.5579  140.5789  154.8755 N   0  0  0  0  0  0  0  0  0  0  0  0
  151.0145  142.5526  157.7153 C   0  0  0  0  0  0  0  0  0  0  0  0
  151.4123  142.9687  158.9671 N   0  0  0  0  0  0  0  0  0  0  0  0
  150.9616  144.2143  159.5213 C   0  0  0  0  0  0  0  0  0  0  0  0
  151.4603  145.5097  158.9182 C   0  0  0  0  0  0  0  0  0  0  0  0
  151.9204  145.0986  160.2951 C   0  0  0  0  0  0  0  0  0  0  0  0
  152.0942  142.0805  159.8274 C   0  0  0  0  0  0  0  0  0  0  0  0
  152.3872  142.4080  160.9798 O   0  0  0  0  0  0  0  0  0  0  0  0
  159.5669  139.0469  160.1737 H   0  0  0  0  0  0  0  0  0  0  0  0
  159.9528  139.5516  161.8163 H   0  0  0  0  0  0  0  0  0  0  0  0
  159.7685  140.7559  160.5539 H   0  0  0  0  0  0  0  0  0  0  0  0
  157.7498  140.7067  161.9873 H   0  0  0  0  0  0  0  0  0  0  0  0
  157.4736  137.7635  161.2310 H   0  0  0  0  0  0  0  0  0  0  0  0
  156.3234  138.6950  162.1870 H   0  0  0  0  0  0  0  0  0  0  0  0
  157.9373  138.3857  162.8129 H   0  0  0  0  0  0  0  0  0  0  0  0
  157.3364  141.2207  159.6078 H   0  0  0  0  0  0  0  0  0  0  0  0
  157.1898  139.5256  159.2200 H   0  0  0  0  0  0  0  0  0  0  0  0
  155.3229  140.9588  161.0575 H   0  0  0  0  0  0  0  0  0  0  0  0
  152.6960  138.9150  160.2680 H   0  0  0  0  0  0  0  0  0  0  0  0
  153.2583  140.2359  161.2131 H   0  0  0  0  0  0  0  0  0  0  0  0
  150.4445  143.2350  157.1011 H   0  0  0  0  0  0  0  0  0  0  0  0
  149.9294  144.2208  159.8668 H   0  0  0  0  0  0  0  0  0  0  0  0
  152.1910  145.4542  158.1133 H   0  0  0  0  0  0  0  0  0  0  0  0
  150.7550  146.3354  158.8500 H   0  0  0  0  0  0  0  0  0  0  0  0
  151.5199  145.6469  161.1451 H   0  0  0  0  0  0  0  0  0  0  0  0
  152.9544  144.7739  160.3958 H   0  0  0  0  0  0  0  0  0  0  0  0
  1  2  1  0  0  0  0
  1 22  1  0  0  0  0
  1 23  1  0  0  0  0
  1 24  1  0  0  0  0
  2  3  1  0  0  0  0
  2  4  1  0  0  0  0
  2 25  1  0  0  0  0
  3 26  1  0  0  0  0
  3 27  1  0  0  0  0
  3 28  1  0  0  0  0
  4  5  1  0  0  0  0
  4 29  1  0  0  0  0
  4 30  1  0  0  0  0
  5  6  1  0  0  0  0
  5 31  1  0  0  0  0
  6  7  2  0  0  0  0
  6  8  1  0  0  0  0
  8  9  1  0  0  0  0
  8 32  1  0  0  0  0
  8 33  1  0  0  0  0
  9 20  1  0  0  0  0
  9 10  1  0  0  0  0
 10 11  2  0  0  0  0
 10 12  1  0  0  0  0
 12 13  1  0  0  0  0
 12 15  2  0  0  0  0
 13 14  3  0  0  0  0
 15 16  1  0  0  0  0
 15 34  1  0  0  0  0
 16 17  1  0  0  0  0
 16 20  1  0  0  0  0
 17 19  1  0  0  0  0
 17 18  1  0  0  0  0
 17 35  1  0  0  0  0
 18 19  1  0  0  0  0
 18 36  1  0  0  0  0
 18 37  1  0  0  0  0
 19 38  1  0  0  0  0
 19 39  1  0  0  0  0
 20 21  2  0  0  0  0
M  END
> <s_m_source_file>
AV-unprocessed.smi

> <i_m_source_file_index>
380

> <i_lp_mmshare_version>
43012

> <i_f3d_flags>
0

> <s_epik_input>
W0NIM11bQ0hdKFtDSDNdKVtDSDJdW05IXUMoPU8pW0NIMl1uMWMoPU8pYyhDI04pW2NIXW4oYzE9TylbQ0hdMltDSDJdW0NIMl0y

> <s_epik_cmdline>
J2VwaWtfcHl0aG9uJywgJy1waCcsICc3LjAnLCAnLXRuJywgJzgnLCAnLW1hJywgJzIwMCcsICctbWV0YWxfYmluZGluZycsICctaW1hZScsICc8aW5maWxlLm1hZT4nLCAnLW9tYWUnLCAnPG91dGZpbGUubWFlPic=

> <r_lp_tautomer_probability>
1

> <r_epik_Ionization_Penalty>
1.93825e-08

> <r_epik_Ionization_Penalty_Charging>
8.0817e-11

> <r_epik_Ionization_Penalty_Neutral>
1.93017e-08

> <r_epik_State_Penalty>
-0

> <r_epik_Charging_Adjusted_Penalty>
8.0817e-11

> <i_epik_Tot_Q>
0

> <i_epik_Tot_abs_Q>
0

> <r_epik_Metal_State_Penalty>
-0

> <b_epik_Metal_Only>
0

> <s_lp_Force_Field>
OPLS_2005

> <r_lp_Energy>
29.2237

> <b_lp_Chiralities_Consistent>
1

> <s_lp_Variant>
AV-unprocessed.smi:380-1

> <Gold.Version>
5.8.1

> <Gold.Id.Protein>
6NUR|6NUR_protein|mol2

> <Gold.PLP.Fitness>
44.4380

> <Gold.PLP.PLP>
-36.7483

> <Gold.PLP.part.hbond>
-2.5929

> <Gold.PLP.part.metal>
0.0000

> <Gold.PLP.part.buried>
-3.9467

> <Gold.PLP.part.nonpolar>
-29.6466

> <Gold.PLP.part.repulsive>
0.1880

> <Gold.PLP.ligand.clash>
0.0000

> <Gold.PLP.ligand.torsion>
0.5775

> <Gold.PLP.Chemscore.Hbond>
1.9920

> <Gold.PLP.Chemscore.CHOScore>
0.8839

> <Gold.PLP.Chemscore.Metal>
0.0000

> <Gold.Chemscore.Hbonds>
donor molecule, donor type, donor heavy atom, donor atom, acceptor molecule, acceptor atom, score
      P1  H  7989  7998       L1    14  0.98
      P1  H  7997  8010       L1     7  1.00
      L1  C    15    34       P1  8028  0.87

> <Gold.PLP.Chemscore.Internal.Correction>
0.2171

> <Gold.Rescore>
     Score         DG    S(hbond)    S(metal)    S(lipo)     H(rot)  DE(clash)    DE(int)     intcor
     11.66     -14.89       1.91        0.00      69.65       1.99       0.08       3.15       ----

> <Gold.Chemscore.Fitness>
11.6615

> <Gold.Chemscore.DG>
-14.8909

> <Gold.Chemscore.ZeroCoef>
-5.4800

> <Gold.Chemscore.Hbond>
1.9053

> <Gold.Chemscore.Metal>
0.0000

> <Gold.Chemscore.Lipo>
69.6508

> <Gold.Chemscore.Internal_Hbond>
0.0000

> <Gold.Chemscore.DEClash>
0.0751

> <Gold.Chemscore.DEInternal>
3.1543

> <Gold.Chemscore.Rot>
1.9930

> <Gold.Chemscore.Internal.Correction>
   9.000000E+99

> <Gold.Chemscore.Hbonds>
donor molecule, donor type, donor heavy atom, donor atom, acceptor molecule, acceptor atom, score
      P1  H  7989  7998       L1    14  0.89
      P1  H  7997  8010       L1     7  0.40

> <Gold.Chemscore.Hbond.Weighted>
-6.3637

> <Gold.Chemscore.Metal.Weighted>
-0.0000

> <Gold.Chemscore.Lipo.Weighted>
-8.1491

> <Gold.Chemscore.Internal_Hbond.Weighted>
0.0000

> <Gold.Chemscore.DEClash.Weighted>
0.0751

> <Gold.Chemscore.DEInternal.Weighted>
3.1543

> <Gold.Chemscore.Rot.Weighted>
5.1020

> <Gold.Chemscore.Internal.Correction.Weighted>
   9.000000E+99

> <Gold.Protein.RotatedTorsions>
[ 6907 6896 6895 6894 ] final   29.06 input  -60.11 | X-H torsion
[ 7974 7965 7964 7962 ] final   46.27 input  175.53 | X-H torsion
[ 8008 7997 7996 7995 ] final    7.57 input   59.86 | X-H torsion
[ 10167 10162 10161 10158 ] final  121.18 input  -65.29 | X-H torsion
[ 10718 10713 10712 10709 ] final -149.72 input   66.30 | X-H torsion
[ 10763 10752 10751 10750 ] final  134.33 input  -60.55 | X-H torsion
[ 11005 11000 10999 10996 ] final -151.58 input  -57.11 | X-H torsion

> <Gold.Protein.ActiveResidues>
 VAL166  LYS551  ARG553  GLY616  TRP617  ASP618  TYR619  PRO620  LYS621  CYS622 
 ASP623  PHE694  ASN695  SER759  ASP760  ASP761  ALA762  ILE779  LEU786  VAL792 
 PHE793  MET794  SER795  GLU796  ALA797  LYS798  CYS799  TRP800  GLU811  SER814 

> <Gold.Protein.RotatedAtoms>
  152.0261  134.9795  160.0571 H   0  0  0  0  0  0  0  0  0  0  0  0  # atno 6907 bound_to 6896
  152.1290  133.4392  159.4720 H   0  0  0  0  0  0  0  0  0  0  0  0  # atno 6908 bound_to 6896
  150.6855  134.2362  159.4497 H   0  0  0  0  0  0  0  0  0  0  0  0  # atno 6909 bound_to 6896
  146.0405  139.4874  142.9781 H   0  0  0  0  0  0  0  0  0  0  0  0  # atno 7974 bound_to 7965
  154.7556  140.2775  155.6256 H   0  0  0  0  0  0  0  0  0  0  0  0  # atno 8008 bound_to 7997
  156.2905  140.2670  156.2248 H   0  0  0  0  0  0  0  0  0  0  0  0  # atno 8009 bound_to 7997
  155.0082  140.0372  157.2378 H   0  0  0  0  0  0  0  0  0  0  0  0  # atno 8010 bound_to 7997
  139.5935  144.7033  151.3232 H   0  0  0  0  0  0  0  0  0  0  0  0  # atno 10167 bound_to 10162
  156.4367  130.8102  151.2331 H   0  0  0  0  0  0  0  0  0  0  0  0  # atno 10718 bound_to 10713
  153.8218  135.3115  155.3411 H   0  0  0  0  0  0  0  0  0  0  0  0  # atno 10763 bound_to 10752
  154.8009  135.4727  154.0277 H   0  0  0  0  0  0  0  0  0  0  0  0  # atno 10764 bound_to 10752
  153.1688  135.6874  153.8726 H   0  0  0  0  0  0  0  0  0  0  0  0  # atno 10765 bound_to 10752
  140.7281  134.3652  157.5172 H   0  0  0  0  0  0  0  0  0  0  0  0  # atno 11005 bound_to 11000
  145.6892  141.0169  143.1564 LP  0  0  0  0  0  0  0  0  0  0  0  0  # atno 17320 bound_to 7965
  144.7072  139.8513  143.7426 LP  0  0  0  0  0  0  0  0  0  0  0  0  # atno 17321 bound_to 7965
  140.7193  143.7180  150.7717 LP  0  0  0  0  0  0  0  0  0  0  0  0  # atno 17342 bound_to 10162
  140.0741  143.5032  152.2564 LP  0  0  0  0  0  0  0  0  0  0  0  0  # atno 17343 bound_to 10162
  157.7507  131.0181  150.3612 LP  0  0  0  0  0  0  0  0  0  0  0  0  # atno 17370 bound_to 10713
  156.3961  130.3907  149.6994 LP  0  0  0  0  0  0  0  0  0  0  0  0  # atno 17371 bound_to 10713
  139.8832  134.9000  156.2778 LP  0  0  0  0  0  0  0  0  0  0  0  0  # atno 17394 bound_to 11000
  140.9945  133.7188  156.0865 LP  0  0  0  0  0  0  0  0  0  0  0  0  # atno 17395 bound_to 11000

$$$$
