AV-unprocessed.smi:2451|AV-procd|sdf|9683|dock2
  -GOLD-   2272013323D 1   1.00000     0.00000
 Structure written by MMmdl.
 37 38  0  0  0  0  0  0  0  0  2 V2000
  151.1921  145.4552  160.1407 C   0  0  0  0  0  0  0  0  0  0  0  0
  151.4212  143.9595  159.8612 C   0  0  2  0  0  0  0  0  0  0  0  0
  152.8182  143.5037  160.3531 C   0  0  0  0  0  0  0  0  0  0  0  0
  152.9893  141.9859  160.1247 C   0  0  0  0  0  0  0  0  0  0  0  0
  152.6808  141.5455  158.6712 C   0  0  0  0  0  0  0  0  0  0  0  0
  151.2840  142.0069  158.1843 C   0  0  2  0  0  0  0  0  0  0  0  0
  151.0513  141.6114  156.8019 N   0  5  0  0  0  0  0  0  0  0  0  0
  151.3739  140.0939  156.3267 S   0  0  0  0  0  0  0  0  0  0  0  0
  150.8469  139.7873  154.9863 O   0  0  0  0  0  0  0  0  0  0  0  0
  152.7705  139.7187  156.6008 O   0  0  0  0  0  0  0  0  0  0  0  0
  150.3491  139.1322  157.5257 C   0  0  0  0  0  0  0  0  0  0  0  0
  151.2215  138.2785  158.4066 C   0  0  0  0  0  0  0  0  0  0  0  0
  152.1295  138.6896  159.4223 C   0  0  0  0  0  0  0  0  0  0  0  0
  152.6411  137.5142  159.8898 C   0  0  0  0  0  0  0  0  0  0  0  0
  152.1088  136.4634  159.2167 O   0  0  0  0  0  0  0  0  0  0  0  0
  151.2066  136.9613  158.2695 N   0  0  0  0  0  0  0  0  0  0  0  0
  151.1490  143.5549  158.3711 C   0  0  2  0  0  0  0  0  0  0  0  0
  152.0033  144.3888  157.3755 C   0  0  0  0  0  0  0  0  0  0  0  0
  151.9538  146.0791  159.6734 H   0  0  0  0  0  0  0  0  0  0  0  0
  151.2232  145.6573  161.2117 H   0  0  0  0  0  0  0  0  0  0  0  0
  150.2175  145.7789  159.7748 H   0  0  0  0  0  0  0  0  0  0  0  0
  150.6850  143.4455  160.4850 H   0  0  0  0  0  0  0  0  0  0  0  0
  153.6015  144.0475  159.8245 H   0  0  0  0  0  0  0  0  0  0  0  0
  152.9429  143.7339  161.4116 H   0  0  0  0  0  0  0  0  0  0  0  0
  154.0078  141.6942  160.3826 H   0  0  0  0  0  0  0  0  0  0  0  0
  152.3440  141.4442  160.8192 H   0  0  0  0  0  0  0  0  0  0  0  0
  153.4532  141.9367  158.0081 H   0  0  0  0  0  0  0  0  0  0  0  0
  152.7573  140.4598  158.6089 H   0  0  0  0  0  0  0  0  0  0  0  0
  150.5442  141.5462  158.8406 H   0  0  0  0  0  0  0  0  0  0  0  0
  149.7865  139.8508  158.1220 H   0  0  0  0  0  0  0  0  0  0  0  0
  149.6270  138.5339  156.9710 H   0  0  0  0  0  0  0  0  0  0  0  0
  152.3588  139.6895  159.7597 H   0  0  0  0  0  0  0  0  0  0  0  0
  153.3593  137.2715  160.6589 H   0  0  0  0  0  0  0  0  0  0  0  0
  150.1079  143.8039  158.1599 H   0  0  0  0  0  0  0  0  0  0  0  0
  153.0750  144.2496  157.5213 H   0  0  0  0  0  0  0  0  0  0  0  0
  151.8014  145.4539  157.4807 H   0  0  0  0  0  0  0  0  0  0  0  0
  151.7817  144.1544  156.3330 H   0  0  0  0  0  0  0  0  0  0  0  0
  1  2  1  0  0  0  0
  1 19  1  0  0  0  0
  1 20  1  0  0  0  0
  1 21  1  0  0  0  0
  2 17  1  0  0  0  0
  2  3  1  0  0  0  0
  2 22  1  0  0  0  0
  3  4  1  0  0  0  0
  3 23  1  0  0  0  0
  3 24  1  0  0  0  0
  4  5  1  0  0  0  0
  4 25  1  0  0  0  0
  4 26  1  0  0  0  0
  5  6  1  0  0  0  0
  5 27  1  0  0  0  0
  5 28  1  0  0  0  0
  6  7  1  0  0  0  0
  6 17  1  0  0  0  0
  6 29  1  0  0  0  0
  7  8  1  0  0  0  0
  8  9  2  0  0  0  0
  8 10  2  0  0  0  0
  8 11  1  0  0  0  0
 11 12  1  0  0  0  0
 11 30  1  0  0  0  0
 11 31  1  0  0  0  0
 12 16  2  0  0  0  0
 12 13  1  0  0  0  0
 13 14  2  0  0  0  0
 13 32  1  0  0  0  0
 14 15  1  0  0  0  0
 14 33  1  0  0  0  0
 15 16  1  0  0  0  0
 17 18  1  0  0  0  0
 17 34  1  0  0  0  0
 18 35  1  0  0  0  0
 18 36  1  0  0  0  0
 18 37  1  0  0  0  0
M  CHG  1   7  -1
M  END
> <s_m_source_file>
AV-unprocessed.smi

> <i_m_source_file_index>
2451

> <i_lp_mmshare_version>
43012

> <i_f3d_flags>
0

> <s_epik_input>
W0NIM11bQ0BASF0xW0NIMl1bQ0gyXVtDSDJdW0NASF0oW0NASF0xW0NIM10pW05IXVMoPU8pKD1PKVtDSDJdYzJbY0hdW2NIXW9uMg==

> <s_epik_cmdline>
J2VwaWtfcHl0aG9uJywgJy1waCcsICc3LjAnLCAnLXRuJywgJzgnLCAnLW1hJywgJzIwMCcsICctbWV0YWxfYmluZGluZycsICctaW1hZScsICc8aW5maWxlLm1hZT4nLCAnLW9tYWUnLCAnPG91dGZpbGUubWFlPic=

> <r_lp_tautomer_probability>
1

> <r_epik_Ionization_Penalty>
5.22693

> <r_epik_Ionization_Penalty_Charging>
5.22693

> <r_epik_Ionization_Penalty_Neutral>
2.67702e-10

> <r_epik_State_Penalty>
5.22685

> <r_epik_Charging_Adjusted_Penalty>
10.4538

> <i_epik_Tot_Q>
-1

> <i_epik_Tot_abs_Q>
1

> <r_epik_Metal_State_Penalty>
1.28716

> <b_epik_Metal_Only>
1

> <s_lp_Force_Field>
OPLS_2005

> <r_lp_Energy>
15.3168

> <b_lp_Chiralities_Consistent>
1

> <s_lp_Variant>
AV-unprocessed.smi:2451-15

> <Gold.Version>
5.8.1

> <Gold.Id.Protein>
6NUR|6NUR_protein|mol2

> <Gold.PLP.Fitness>
43.8376

> <Gold.PLP.PLP>
-35.6070

> <Gold.PLP.part.hbond>
-3.0492

> <Gold.PLP.part.metal>
0.0000

> <Gold.PLP.part.buried>
-6.0403

> <Gold.PLP.part.nonpolar>
-26.7098

> <Gold.PLP.part.repulsive>
0.1045

> <Gold.PLP.ligand.clash>
0.0000

> <Gold.PLP.ligand.torsion>
0.7522

> <Gold.PLP.Chemscore.Hbond>
2.9120

> <Gold.PLP.Chemscore.CHOScore>
0.0000

> <Gold.PLP.Chemscore.Metal>
0.0000

> <Gold.Chemscore.Hbonds>
donor molecule, donor type, donor heavy atom, donor atom, acceptor molecule, acceptor atom, score
      P1  H  6896  6907       L1    15  0.93
      P1  H  7989  7998       L1     9  1.00
      P1  H  7997  8009       L1    10  1.00

> <Gold.PLP.Chemscore.Internal.Correction>
0.9990

> <Gold.Rescore>
     Score         DG    S(hbond)    S(metal)    S(lipo)     H(rot)  DE(clash)    DE(int)     intcor
     21.47     -23.91       2.89        0.00     105.79       1.40       0.31       2.14       ----

> <Gold.Chemscore.Fitness>
21.4689

> <Gold.Chemscore.DG>
-23.9144

> <Gold.Chemscore.ZeroCoef>
-5.4800

> <Gold.Chemscore.Hbond>
2.8855

> <Gold.Chemscore.Metal>
0.0000

> <Gold.Chemscore.Lipo>
105.7877

> <Gold.Chemscore.Internal_Hbond>
0.0000

> <Gold.Chemscore.DEClash>
0.3065

> <Gold.Chemscore.DEInternal>
2.1391

> <Gold.Chemscore.Rot>
1.3986

> <Gold.Chemscore.Internal.Correction>
   9.000000E+99

> <Gold.Chemscore.Hbonds>
donor molecule, donor type, donor heavy atom, donor atom, acceptor molecule, acceptor atom, score
      P1  H  6896  6907       L1    15  0.83
      P1  H  7989  7998       L1     9  0.87
      P1  H  7997  8009       L1    10  0.99

> <Gold.Chemscore.Hbond.Weighted>
-9.6376

> <Gold.Chemscore.Metal.Weighted>
-0.0000

> <Gold.Chemscore.Lipo.Weighted>
-12.3772

> <Gold.Chemscore.Internal_Hbond.Weighted>
0.0000

> <Gold.Chemscore.DEClash.Weighted>
0.3065

> <Gold.Chemscore.DEInternal.Weighted>
2.1391

> <Gold.Chemscore.Rot.Weighted>
3.5804

> <Gold.Chemscore.Internal.Correction.Weighted>
   9.000000E+99

> <Gold.Protein.RotatedTorsions>
[ 6907 6896 6895 6894 ] final    9.54 input  -60.11 | X-H torsion
[ 7974 7965 7964 7962 ] final   97.00 input  175.53 | X-H torsion
[ 8008 7997 7996 7995 ] final -165.57 input   59.86 | X-H torsion
[ 10167 10162 10161 10158 ] final  -45.59 input  -65.29 | X-H torsion
[ 10718 10713 10712 10709 ] final  -84.98 input   66.30 | X-H torsion
[ 10763 10752 10751 10750 ] final   84.23 input  -60.55 | X-H torsion
[ 11005 11000 10999 10996 ] final  -24.83 input  -57.11 | X-H torsion

> <Gold.Protein.ActiveResidues>
 VAL166  LYS551  ARG553  GLY616  TRP617  ASP618  TYR619  PRO620  LYS621  CYS622 
 ASP623  PHE694  ASN695  SER759  ASP760  ASP761  ALA762  ILE779  LEU786  VAL792 
 PHE793  MET794  SER795  GLU796  ALA797  LYS798  CYS799  TRP800  GLU811  SER814 

> <Gold.Protein.RotatedAtoms>
  151.7238  135.0889  160.0288 H   0  0  0  0  0  0  0  0  0  0  0  0  # atno 6907 bound_to 6896
  152.3585  133.6262  159.6005 H   0  0  0  0  0  0  0  0  0  0  0  0  # atno 6908 bound_to 6896
  150.7588  133.9378  159.3488 H   0  0  0  0  0  0  0  0  0  0  0  0  # atno 6909 bound_to 6896
  145.4313  139.2310  143.3142 H   0  0  0  0  0  0  0  0  0  0  0  0  # atno 7974 bound_to 7965
  155.8517  140.0964  157.1670 H   0  0  0  0  0  0  0  0  0  0  0  0  # atno 8008 bound_to 7997
  154.3986  140.1382  156.3914 H   0  0  0  0  0  0  0  0  0  0  0  0  # atno 8009 bound_to 7997
  155.7954  140.3454  155.5375 H   0  0  0  0  0  0  0  0  0  0  0  0  # atno 8010 bound_to 7997
  140.6852  143.2872  151.3661 H   0  0  0  0  0  0  0  0  0  0  0  0  # atno 10167 bound_to 10162
  156.0001  130.4716  150.4493 H   0  0  0  0  0  0  0  0  0  0  0  0  # atno 10718 bound_to 10713
  153.1363  135.4662  154.9427 H   0  0  0  0  0  0  0  0  0  0  0  0  # atno 10763 bound_to 10752
  154.7709  135.3158  154.8194 H   0  0  0  0  0  0  0  0  0  0  0  0  # atno 10764 bound_to 10752
  153.8726  135.6902  153.4827 H   0  0  0  0  0  0  0  0  0  0  0  0  # atno 10765 bound_to 10752
  140.8882  133.7607  156.0387 H   0  0  0  0  0  0  0  0  0  0  0  0  # atno 11005 bound_to 11000
  146.2605  140.5050  142.8855 LP  0  0  0  0  0  0  0  0  0  0  0  0  # atno 17320 bound_to 7965
  144.8181  140.6502  143.6371 LP  0  0  0  0  0  0  0  0  0  0  0  0  # atno 17321 bound_to 7965
  139.6204  144.0918  152.2386 LP  0  0  0  0  0  0  0  0  0  0  0  0  # atno 17342 bound_to 10162
  140.0360  144.6044  150.7449 LP  0  0  0  0  0  0  0  0  0  0  0  0  # atno 17343 bound_to 10162
  157.2527  131.0550  151.2369 LP  0  0  0  0  0  0  0  0  0  0  0  0  # atno 17370 bound_to 10713
  157.3512  130.7083  149.6442 LP  0  0  0  0  0  0  0  0  0  0  0  0  # atno 17371 bound_to 10713
  140.8379  134.3101  157.5324 LP  0  0  0  0  0  0  0  0  0  0  0  0  # atno 17394 bound_to 11000
  139.8726  134.9400  156.3757 LP  0  0  0  0  0  0  0  0  0  0  0  0  # atno 17395 bound_to 11000

$$$$
