AV-unprocessed.smi:753|AV-procd|sdf|3601|dock10
  -GOLD-   22720 0593D 1   1.00000     0.00000
 Structure written by MMmdl.
 43 45  0  0  0  0  0  0  0  0  1 V2000
  143.6235  145.5376  155.4255 C   0  0  0  0  0  0  0  0  0  0  0  0
  144.5100  144.3603  155.0774 C   0  0  0  0  0  0  0  0  0  0  0  0
  145.0714  144.2355  153.7892 C   0  0  0  0  0  0  0  0  0  0  0  0
  145.8863  143.1199  153.5182 C   0  0  0  0  0  0  0  0  0  0  0  0
  146.1080  142.1750  154.5413 C   0  0  0  0  0  0  0  0  0  0  0  0
  146.9570  140.9400  154.2960 C   0  0  0  0  0  0  0  0  0  0  0  0
  148.4223  141.2588  153.9442 C   0  0  0  0  0  0  0  0  0  0  0  0
  149.0638  142.0972  154.9536 N   0  0  0  0  0  0  0  0  0  0  0  0
  150.2031  141.8057  155.6051 C   0  0  0  0  0  0  0  0  0  0  0  0
  150.8433  140.7711  155.4280 O   0  0  0  0  0  0  0  0  0  0  0  0
  150.6076  142.7483  156.4738 N   0  0  0  0  0  0  0  0  0  0  0  0
  151.7971  142.7314  157.3291 C   0  0  2  0  0  0  0  0  0  0  0  0
  151.5187  141.9873  158.6540 C   0  0  0  0  0  0  0  0  0  0  0  0
  151.8304  143.0497  159.7241 C   0  0  2  0  0  0  0  0  0  0  0  0
  150.7350  144.1334  159.7120 C   0  0  0  0  0  0  0  0  0  0  0  0
  151.0443  144.9165  158.4222 C   0  0  0  0  0  0  0  0  0  0  0  0
  152.2357  144.1328  157.8301 C   0  0  1  0  0  0  0  0  0  0  0  0
  153.0086  143.7822  159.0970 C   0  0  0  0  0  0  0  0  0  0  0  0
  145.5030  142.3962  155.7965 C   0  0  0  0  0  0  0  0  0  0  0  0
  144.7212  143.4636  156.0661 N   0  0  0  0  0  0  0  0  0  0  0  0
  143.2591  146.0336  154.5254 H   0  0  0  0  0  0  0  0  0  0  0  0
  144.1789  146.2654  156.0171 H   0  0  0  0  0  0  0  0  0  0  0  0
  142.7584  145.2118  156.0041 H   0  0  0  0  0  0  0  0  0  0  0  0
  144.8815  144.9738  153.0240 H   0  0  0  0  0  0  0  0  0  0  0  0
  146.3245  142.9897  152.5397 H   0  0  0  0  0  0  0  0  0  0  0  0
  146.9231  140.3013  155.1797 H   0  0  0  0  0  0  0  0  0  0  0  0
  146.5051  140.3626  153.4887 H   0  0  0  0  0  0  0  0  0  0  0  0
  148.9883  140.3303  153.8670 H   0  0  0  0  0  0  0  0  0  0  0  0
  148.4786  141.7290  152.9610 H   0  0  0  0  0  0  0  0  0  0  0  0
  148.6117  142.9739  155.1681 H   0  0  0  0  0  0  0  0  0  0  0  0
  150.0340  143.5770  156.5370 H   0  0  0  0  0  0  0  0  0  0  0  0
  152.6220  142.2377  156.8111 H   0  0  0  0  0  0  0  0  0  0  0  0
  150.4965  141.6142  158.7363 H   0  0  0  0  0  0  0  0  0  0  0  0
  152.1880  141.1320  158.7559 H   0  0  0  0  0  0  0  0  0  0  0  0
  152.0201  142.6304  160.7124 H   0  0  0  0  0  0  0  0  0  0  0  0
  149.7323  143.7042  159.7067 H   0  0  0  0  0  0  0  0  0  0  0  0
  150.8165  144.7836  160.5839 H   0  0  0  0  0  0  0  0  0  0  0  0
  150.1865  144.9823  157.7531 H   0  0  0  0  0  0  0  0  0  0  0  0
  151.3438  145.9373  158.6631 H   0  0  0  0  0  0  0  0  0  0  0  0
  152.8058  144.7016  157.0949 H   0  0  0  0  0  0  0  0  0  0  0  0
  153.3286  144.6564  159.6670 H   0  0  0  0  0  0  0  0  0  0  0  0
  153.8713  143.1390  158.9143 H   0  0  0  0  0  0  0  0  0  0  0  0
  145.6431  141.6931  156.6044 H   0  0  0  0  0  0  0  0  0  0  0  0
  1  2  1  0  0  0  0
  1 21  1  0  0  0  0
  1 22  1  0  0  0  0
  1 23  1  0  0  0  0
  2 20  1  0  0  0  0
  2  3  2  0  0  0  0
  3  4  1  0  0  0  0
  3 24  1  0  0  0  0
  4  5  2  0  0  0  0
  4 25  1  0  0  0  0
  5  6  1  0  0  0  0
  5 19  1  0  0  0  0
  6  7  1  0  0  0  0
  6 26  1  0  0  0  0
  6 27  1  0  0  0  0
  7  8  1  0  0  0  0
  7 28  1  0  0  0  0
  7 29  1  0  0  0  0
  8  9  1  0  0  0  0
  8 30  1  0  0  0  0
  9 10  2  0  0  0  0
  9 11  1  0  0  0  0
 11 12  1  0  0  0  0
 11 31  1  0  0  0  0
 12 17  1  0  0  0  0
 12 13  1  0  0  0  0
 12 32  1  0  0  0  0
 13 14  1  0  0  0  0
 13 33  1  0  0  0  0
 13 34  1  0  0  0  0
 14 18  1  0  0  0  0
 14 15  1  0  0  0  0
 14 35  1  0  0  0  0
 15 16  1  0  0  0  0
 15 36  1  0  0  0  0
 15 37  1  0  0  0  0
 16 17  1  0  0  0  0
 16 38  1  0  0  0  0
 16 39  1  0  0  0  0
 17 18  1  0  0  0  0
 17 40  1  0  0  0  0
 18 41  1  0  0  0  0
 18 42  1  0  0  0  0
 19 20  2  0  0  0  0
 19 43  1  0  0  0  0
M  END
> <s_m_source_file>
AV-unprocessed.smi

> <i_m_source_file_index>
753

> <i_lp_mmshare_version>
43012

> <i_f3d_flags>
0

> <s_epik_input>
W0NIM11jMVtjSF1bY0hdYyhbY0hdbjEpW0NIMl1bQ0gyXVtOSF1DKD1PKVtOSF1bQ0BIXShbQ0gyXVtDQEBIXTIzKVtDQEBIXShbQ0gyXTMpW0NIMl1bQ0gyXTI=

> <s_epik_cmdline>
J2VwaWtfcHl0aG9uJywgJy1waCcsICc3LjAnLCAnLXRuJywgJzgnLCAnLW1hJywgJzIwMCcsICctbWV0YWxfYmluZGluZycsICctaW1hZScsICc8aW5maWxlLm1hZT4nLCAnLW9tYWUnLCAnPG91dGZpbGUubWFlPic=

> <r_epik_Ionization_Penalty>
0.0569047

> <r_epik_Ionization_Penalty_Charging>
0

> <r_epik_Ionization_Penalty_Neutral>
0.0569047

> <r_epik_State_Penalty>
0.0490541

> <r_epik_Charging_Adjusted_Penalty>
0.0490541

> <i_epik_Tot_Q>
0

> <i_epik_Tot_abs_Q>
0

> <r_epik_Metal_State_Penalty>
0.0447357

> <b_epik_Metal_Only>
0

> <s_lp_Force_Field>
OPLS_2005

> <r_lp_Energy>
52.9013

> <b_lp_Chiralities_Consistent>
1

> <s_lp_Variant>
AV-unprocessed.smi:753-3

> <Gold.Version>
5.8.1

> <Gold.Id.Protein>
6NUR|6NUR_protein|mol2

> <Gold.PLP.Fitness>
51.0384

> <Gold.PLP.PLP>
-43.8917

> <Gold.PLP.part.hbond>
-3.0000

> <Gold.PLP.part.metal>
0.0000

> <Gold.PLP.part.buried>
-7.2435

> <Gold.PLP.part.nonpolar>
-32.6813

> <Gold.PLP.part.repulsive>
0.4591

> <Gold.PLP.ligand.clash>
0.0000

> <Gold.PLP.ligand.torsion>
0.3431

> <Gold.PLP.Chemscore.Hbond>
2.6046

> <Gold.PLP.Chemscore.CHOScore>
0.0000

> <Gold.PLP.Chemscore.Metal>
0.0000

> <Gold.Chemscore.Hbonds>
donor molecule, donor type, donor heavy atom, donor atom, acceptor molecule, acceptor atom, score
      L1  H     8    30       P1  8028  0.91
      L1  H    11    31       P1  8028  0.94
      P1  H  7989  7998       L1    10  0.73

> <Gold.PLP.Chemscore.Internal.Correction>
0.0193

> <Gold.Rescore>
     Score         DG    S(hbond)    S(metal)    S(lipo)     H(rot)  DE(clash)    DE(int)     intcor
     21.87     -23.93       2.32        0.00     122.81       1.43       1.83       0.23       ----

> <Gold.Chemscore.Fitness>
21.8700

> <Gold.Chemscore.DG>
-23.9267

> <Gold.Chemscore.ZeroCoef>
-5.4800

> <Gold.Chemscore.Hbond>
2.3164

> <Gold.Chemscore.Metal>
0.0000

> <Gold.Chemscore.Lipo>
122.8081

> <Gold.Chemscore.Internal_Hbond>
0.0000

> <Gold.Chemscore.DEClash>
1.8262

> <Gold.Chemscore.DEInternal>
0.2305

> <Gold.Chemscore.Rot>
1.4291

> <Gold.Chemscore.Internal.Correction>
   9.000000E+99

> <Gold.Chemscore.Hbonds>
donor molecule, donor type, donor heavy atom, donor atom, acceptor molecule, acceptor atom, score
      L1  H     8    30       P1  8028  0.90
      L1  H    11    31       P1  8028  0.91
      P1  H  7989  7998       L1    10  0.38

> <Gold.Chemscore.Hbond.Weighted>
-7.7367

> <Gold.Chemscore.Metal.Weighted>
-0.0000

> <Gold.Chemscore.Lipo.Weighted>
-14.3685

> <Gold.Chemscore.Internal_Hbond.Weighted>
0.0000

> <Gold.Chemscore.DEClash.Weighted>
1.8262

> <Gold.Chemscore.DEInternal.Weighted>
0.2305

> <Gold.Chemscore.Rot.Weighted>
3.6585

> <Gold.Chemscore.Internal.Correction.Weighted>
   9.000000E+99

> <Gold.Protein.RotatedTorsions>
[ 6907 6896 6895 6894 ] final   91.33 input  -60.11 | X-H torsion
[ 7974 7965 7964 7962 ] final   65.51 input  175.53 | X-H torsion
[ 8008 7997 7996 7995 ] final -178.93 input   59.86 | X-H torsion
[ 10167 10162 10161 10158 ] final  -18.93 input  -65.29 | X-H torsion
[ 10718 10713 10712 10709 ] final   43.21 input   66.30 | X-H torsion
[ 10763 10752 10751 10750 ] final  -57.94 input  -60.55 | X-H torsion
[ 11005 11000 10999 10996 ] final  -29.14 input  -57.11 | X-H torsion

> <Gold.Protein.ActiveResidues>
 VAL166  LYS551  ARG553  GLY616  TRP617  ASP618  TYR619  PRO620  LYS621  CYS622 
 ASP623  PHE694  ASN695  SER759  ASP760  ASP761  ALA762  ILE779  LEU786  VAL792 
 PHE793  MET794  SER795  GLU796  ALA797  LYS798  CYS799  TRP800  GLU811  SER814 

> <Gold.Protein.RotatedAtoms>
  152.5449  134.1674  159.8582 H   0  0  0  0  0  0  0  0  0  0  0  0  # atno 6907 bound_to 6896
  151.1687  133.4791  159.2601 H   0  0  0  0  0  0  0  0  0  0  0  0  # atno 6908 bound_to 6896
  151.1297  135.0135  159.8632 H   0  0  0  0  0  0  0  0  0  0  0  0  # atno 6909 bound_to 6896
  145.8376  139.3176  143.0950 H   0  0  0  0  0  0  0  0  0  0  0  0  # atno 7974 bound_to 7965
  156.0245  140.1268  157.0322 H   0  0  0  0  0  0  0  0  0  0  0  0  # atno 8008 bound_to 7997
  154.4325  140.1062  156.6082 H   0  0  0  0  0  0  0  0  0  0  0  0  # atno 8009 bound_to 7997
  155.5896  140.3469  155.4565 H   0  0  0  0  0  0  0  0  0  0  0  0  # atno 8010 bound_to 7997
  140.7263  143.4868  151.0044 H   0  0  0  0  0  0  0  0  0  0  0  0  # atno 10167 bound_to 10162
  157.4134  130.7927  149.7451 H   0  0  0  0  0  0  0  0  0  0  0  0  # atno 10718 bound_to 10713
  154.2303  135.6362  153.5173 H   0  0  0  0  0  0  0  0  0  0  0  0  # atno 10763 bound_to 10752
  152.9950  135.5518  154.6019 H   0  0  0  0  0  0  0  0  0  0  0  0  # atno 10764 bound_to 10752
  154.5501  135.2901  155.0991 H   0  0  0  0  0  0  0  0  0  0  0  0  # atno 10765 bound_to 10752
  140.9270  133.7362  156.0882 H   0  0  0  0  0  0  0  0  0  0  0  0  # atno 11005 bound_to 11000
  145.9501  140.8915  143.0263 LP  0  0  0  0  0  0  0  0  0  0  0  0  # atno 17320 bound_to 7965
  144.6735  140.1668  143.7418 LP  0  0  0  0  0  0  0  0  0  0  0  0  # atno 17321 bound_to 7965
  139.8570  143.7364  152.3175 LP  0  0  0  0  0  0  0  0  0  0  0  0  # atno 17342 bound_to 10162
  139.7566  144.7519  151.0427 LP  0  0  0  0  0  0  0  0  0  0  0  0  # atno 17343 bound_to 10162
  155.9858  130.3980  150.3245 LP  0  0  0  0  0  0  0  0  0  0  0  0  # atno 17370 bound_to 10713
  157.1386  131.0290  151.2938 LP  0  0  0  0  0  0  0  0  0  0  0  0  # atno 17371 bound_to 10713
  140.7913  134.3614  157.5464 LP  0  0  0  0  0  0  0  0  0  0  0  0  # atno 17394 bound_to 11000
  139.8787  134.9142  156.3101 LP  0  0  0  0  0  0  0  0  0  0  0  0  # atno 17395 bound_to 11000

$$$$
