AV-unprocessed.smi:2129|AV-procd|sdf|8684|dock2
  -GOLD-   2272011433D 1   1.00000     0.00000
 Structure written by MMmdl.
 33 33  0  0  0  0  0  0  0  0  2 V2000
  153.3813  142.3120  159.9071 C   0  0  0  0  0  0  0  0  0  0  0  0
  151.9393  142.8215  160.0810 C   0  0  0  0  0  0  0  0  0  0  0  0
  151.4347  143.8078  158.9912 C   0  0  0  0  0  0  0  0  0  0  0  0
  149.9985  144.2680  159.3253 C   0  0  0  0  0  0  0  0  0  0  0  0
  152.3377  145.0561  158.9461 C   0  0  0  0  0  0  0  0  0  0  0  0
  151.4732  143.2033  157.6533 N   0  0  0  0  0  0  0  0  0  0  0  0
  151.0943  141.9672  157.2832 C   0  0  0  0  0  0  0  0  0  0  0  0
  150.6054  141.1392  158.0523 O   0  0  0  0  0  0  0  0  0  0  0  0
  151.2839  141.6266  155.7995 C   0  0  0  0  0  0  0  0  0  0  0  0
  151.3263  140.1763  155.5541 N   0  0  0  0  0  0  0  0  0  0  0  0
  150.5197  139.6611  154.5241 C   0  0  0  0  0  0  0  0  0  0  0  0
  150.4929  138.3465  154.2331 C   0  0  0  0  0  0  0  0  0  0  0  0
  151.3298  137.4483  155.0191 C   0  0  0  0  0  0  0  0  0  0  0  0
  151.3210  136.2454  154.7649 O   0  0  0  0  0  0  0  0  0  0  0  0
  152.0919  137.9957  156.0106 N   0  5  0  0  0  0  0  0  0  0  0  0
  152.1083  139.3348  156.2960 C   0  0  0  0  0  0  0  0  0  0  0  0
  152.8039  139.8081  157.1955 O   0  0  0  0  0  0  0  0  0  0  0  0
  153.6399  141.6211  160.7093 H   0  0  0  0  0  0  0  0  0  0  0  0
  154.1050  143.1259  159.9350 H   0  0  0  0  0  0  0  0  0  0  0  0
  153.5119  141.7765  158.9665 H   0  0  0  0  0  0  0  0  0  0  0  0
  151.2786  141.9553  160.1270 H   0  0  0  0  0  0  0  0  0  0  0  0
  151.8545  143.2959  161.0595 H   0  0  0  0  0  0  0  0  0  0  0  0
  149.9700  144.8080  160.2724 H   0  0  0  0  0  0  0  0  0  0  0  0
  149.3084  143.4294  159.4168 H   0  0  0  0  0  0  0  0  0  0  0  0
  149.6046  144.9346  158.5571 H   0  0  0  0  0  0  0  0  0  0  0  0
  152.3898  145.5442  159.9198 H   0  0  0  0  0  0  0  0  0  0  0  0
  151.9619  145.7908  158.2328 H   0  0  0  0  0  0  0  0  0  0  0  0
  153.3568  144.8118  158.6459 H   0  0  0  0  0  0  0  0  0  0  0  0
  151.8591  143.7871  156.9256 H   0  0  0  0  0  0  0  0  0  0  0  0
  150.4692  142.0872  155.2398 H   0  0  0  0  0  0  0  0  0  0  0  0
  152.1939  142.0952  155.4195 H   0  0  0  0  0  0  0  0  0  0  0  0
  149.9259  140.3918  153.9950 H   0  0  0  0  0  0  0  0  0  0  0  0
  149.8660  137.9663  153.4402 H   0  0  0  0  0  0  0  0  0  0  0  0
  1  2  1  0  0  0  0
  1 18  1  0  0  0  0
  1 19  1  0  0  0  0
  1 20  1  0  0  0  0
  2  3  1  0  0  0  0
  2 21  1  0  0  0  0
  2 22  1  0  0  0  0
  3  4  1  0  0  0  0
  3  5  1  0  0  0  0
  3  6  1  0  0  0  0
  4 23  1  0  0  0  0
  4 24  1  0  0  0  0
  4 25  1  0  0  0  0
  5 26  1  0  0  0  0
  5 27  1  0  0  0  0
  5 28  1  0  0  0  0
  6  7  1  0  0  0  0
  6 29  1  0  0  0  0
  7  8  2  0  0  0  0
  7  9  1  0  0  0  0
  9 10  1  0  0  0  0
  9 30  1  0  0  0  0
  9 31  1  0  0  0  0
 10 16  1  0  0  0  0
 10 11  1  0  0  0  0
 11 12  2  0  0  0  0
 11 32  1  0  0  0  0
 12 13  1  0  0  0  0
 12 33  1  0  0  0  0
 13 14  2  0  0  0  0
 13 15  1  0  0  0  0
 15 16  1  0  0  0  0
 16 17  2  0  0  0  0
M  CHG  1  15  -1
M  END
> <s_m_source_file>
AV-unprocessed.smi

> <i_m_source_file_index>
2129

> <i_lp_mmshare_version>
43012

> <i_f3d_flags>
0

> <s_epik_input>
W0NIM11bQ0gyXUMoW0NIM10pKFtDSDNdKVtOSF1DKD1PKVtDSDJdbjFbY0hdW2NIXWMoPU8pW25IXWMxPU8=

> <s_epik_cmdline>
J2VwaWtfcHl0aG9uJywgJy1waCcsICc3LjAnLCAnLXRuJywgJzgnLCAnLW1hJywgJzIwMCcsICctbWV0YWxfYmluZGluZycsICctaW1hZScsICc8aW5maWxlLm1hZT4nLCAnLW9tYWUnLCAnPG91dGZpbGUubWFlPic=

> <r_lp_tautomer_probability>
0.999537

> <r_epik_Ionization_Penalty>
3.14534

> <r_epik_Ionization_Penalty_Charging>
2.92803e-08

> <r_epik_Ionization_Penalty_Neutral>
3.14534

> <r_epik_State_Penalty>
3.14446

> <r_epik_Charging_Adjusted_Penalty>
3.14446

> <i_epik_Tot_Q>
-1

> <i_epik_Tot_abs_Q>
1

> <r_epik_Metal_State_Penalty>
0.465837

> <b_epik_Metal_Only>
1

> <s_lp_Force_Field>
OPLS_2005

> <r_lp_Energy>
14.5296

> <b_lp_Chiralities_Consistent>
1

> <s_lp_Variant>
AV-unprocessed.smi:2129-2

> <Gold.Version>
5.8.1

> <Gold.Id.Protein>
6NUR|6NUR_protein|mol2

> <Gold.PLP.Fitness>
41.4626

> <Gold.PLP.PLP>
-36.9442

> <Gold.PLP.part.hbond>
-2.0000

> <Gold.PLP.part.metal>
0.0000

> <Gold.PLP.part.buried>
-3.5177

> <Gold.PLP.part.nonpolar>
-30.2997

> <Gold.PLP.part.repulsive>
0.1672

> <Gold.PLP.ligand.clash>
0.0000

> <Gold.PLP.ligand.torsion>
0.7691

> <Gold.PLP.Chemscore.Hbond>
2.0000

> <Gold.PLP.Chemscore.CHOScore>
0.0000

> <Gold.PLP.Chemscore.Metal>
0.0000

> <Gold.Chemscore.Hbonds>
donor molecule, donor type, donor heavy atom, donor atom, acceptor molecule, acceptor atom, score
      P1  H  7997  8008       L1    17  1.00
      P1  H 10752 10764       L1    14  1.00
      L1  C    11    32       P1  7957  0.11

> <Gold.PLP.Chemscore.Internal.Correction>
0.0566

> <Gold.Rescore>
     Score         DG    S(hbond)    S(metal)    S(lipo)     H(rot)  DE(clash)    DE(int)     intcor
      9.96     -15.67       1.88        0.00      75.02       1.90       0.18       5.53       ----

> <Gold.Chemscore.Fitness>
9.9600

> <Gold.Chemscore.DG>
-15.6671

> <Gold.Chemscore.ZeroCoef>
-5.4800

> <Gold.Chemscore.Hbond>
1.8808

> <Gold.Chemscore.Metal>
0.0000

> <Gold.Chemscore.Lipo>
75.0185

> <Gold.Chemscore.Internal_Hbond>
0.0000

> <Gold.Chemscore.DEClash>
0.1790

> <Gold.Chemscore.DEInternal>
5.5282

> <Gold.Chemscore.Rot>
1.9031

> <Gold.Chemscore.Internal.Correction>
   9.000000E+99

> <Gold.Chemscore.Hbonds>
donor molecule, donor type, donor heavy atom, donor atom, acceptor molecule, acceptor atom, score
      P1  H  7997  8008       L1    17  0.65
      P1  H 10752 10764       L1    14  0.85

> <Gold.Chemscore.Hbond.Weighted>
-6.2819

> <Gold.Chemscore.Metal.Weighted>
-0.0000

> <Gold.Chemscore.Lipo.Weighted>
-8.7772

> <Gold.Chemscore.Internal_Hbond.Weighted>
0.0000

> <Gold.Chemscore.DEClash.Weighted>
0.1790

> <Gold.Chemscore.DEInternal.Weighted>
5.5282

> <Gold.Chemscore.Rot.Weighted>
4.8720

> <Gold.Chemscore.Internal.Correction.Weighted>
   9.000000E+99

> <Gold.Protein.RotatedTorsions>
[ 6907 6896 6895 6894 ] final    8.35 input  -60.11 | X-H torsion
[ 7974 7965 7964 7962 ] final  -66.39 input  175.53 | X-H torsion
[ 8008 7997 7996 7995 ] final  -55.64 input   59.86 | X-H torsion
[ 10167 10162 10161 10158 ] final  141.41 input  -65.29 | X-H torsion
[ 10718 10713 10712 10709 ] final   95.31 input   66.30 | X-H torsion
[ 10763 10752 10751 10750 ] final  -70.80 input  -60.55 | X-H torsion
[ 11005 11000 10999 10996 ] final -100.23 input  -57.11 | X-H torsion

> <Gold.Protein.ActiveResidues>
 VAL166  LYS551  ARG553  GLY616  TRP617  ASP618  TYR619  PRO620  LYS621  CYS622 
 ASP623  PHE694  ASN695  SER759  ASP760  ASP761  ALA762  ILE779  LEU786  VAL792 
 PHE793  MET794  SER795  GLU796  ALA797  LYS798  CYS799  TRP800  GLU811  SER814 

> <Gold.Protein.RotatedAtoms>
  151.7047  135.0924  160.0256 H   0  0  0  0  0  0  0  0  0  0  0  0  # atno 6907 bound_to 6896
  152.3699  133.6401  159.6087 H   0  0  0  0  0  0  0  0  0  0  0  0  # atno 6908 bound_to 6896
  150.7665  133.9204  159.3437 H   0  0  0  0  0  0  0  0  0  0  0  0  # atno 6909 bound_to 6896
  145.7424  140.8947  143.0523 H   0  0  0  0  0  0  0  0  0  0  0  0  # atno 7974 bound_to 7965
  154.4202  140.1148  156.5509 H   0  0  0  0  0  0  0  0  0  0  0  0  # atno 8008 bound_to 7997
  155.6411  140.3496  155.4696 H   0  0  0  0  0  0  0  0  0  0  0  0  # atno 8009 bound_to 7997
  155.9870  140.1172  157.0663 H   0  0  0  0  0  0  0  0  0  0  0  0  # atno 8010 bound_to 7997
  139.5021  144.6173  151.6134 H   0  0  0  0  0  0  0  0  0  0  0  0  # atno 10167 bound_to 10162
  157.6940  131.0541  150.4319 H   0  0  0  0  0  0  0  0  0  0  0  0  # atno 10718 bound_to 10713
  154.4227  135.5983  153.6020 H   0  0  0  0  0  0  0  0  0  0  0  0  # atno 10763 bound_to 10752
  152.9794  135.5956  154.3935 H   0  0  0  0  0  0  0  0  0  0  0  0  # atno 10764 bound_to 10752
  154.3763  135.2841  155.2216 H   0  0  0  0  0  0  0  0  0  0  0  0  # atno 10765 bound_to 10752
  141.1279  133.8383  157.1075 H   0  0  0  0  0  0  0  0  0  0  0  0  # atno 11005 bound_to 11000
  144.6868  139.9478  143.7477 LP  0  0  0  0  0  0  0  0  0  0  0  0  # atno 17320 bound_to 7965
  146.0435  139.3444  143.0683 LP  0  0  0  0  0  0  0  0  0  0  0  0  # atno 17321 bound_to 7965
  140.5864  143.9856  150.6298 LP  0  0  0  0  0  0  0  0  0  0  0  0  # atno 17342 bound_to 10162
  140.3022  143.3253  152.0961 LP  0  0  0  0  0  0  0  0  0  0  0  0  # atno 17343 bound_to 10162
  156.4685  130.4047  149.6532 LP  0  0  0  0  0  0  0  0  0  0  0  0  # atno 17370 bound_to 10713
  156.3622  130.7487  151.2460 LP  0  0  0  0  0  0  0  0  0  0  0  0  # atno 17371 bound_to 10713
  140.0295  134.9908  157.0753 LP  0  0  0  0  0  0  0  0  0  0  0  0  # atno 17394 bound_to 11000
  140.4308  134.1783  155.7168 LP  0  0  0  0  0  0  0  0  0  0  0  0  # atno 17395 bound_to 11000

$$$$
