AV-unprocessed.smi:3110|AV-procd|sdf|11830|dock2
  -GOLD-   2272017203D 1   1.00000     0.00000
 Structure written by MMmdl.
 33 34  0  0  0  0  0  0  0  0  1 V2000
  154.4625  140.0070  158.9788 O   0  0  0  0  0  0  0  0  0  0  0  0
  153.9954  140.7115  159.8735 C   0  0  0  0  0  0  0  0  0  0  0  0
  152.7650  141.5821  159.6053 C   0  0  0  0  0  0  0  0  0  0  0  0
  153.0741  143.0907  159.7030 C   0  0  2  0  0  0  0  0  0  0  0  0
  152.6640  143.6763  161.0297 C   0  0  0  0  0  0  0  0  0  0  0  0
  151.9549  144.7958  160.9015 C   0  0  0  0  0  0  0  0  0  0  0  0
  151.7471  145.1819  159.4637 C   0  0  0  0  0  0  0  0  0  0  0  0
  152.3276  143.9863  158.6775 C   0  0  0  0  0  0  0  0  0  0  0  0
  154.5148  140.7759  161.1095 N   0  0  0  0  0  0  0  0  0  0  0  0
  155.7304  140.0971  161.5491 C   0  0  0  0  0  0  0  0  0  0  0  0
  155.6861  138.5877  161.2453 C   0  0  0  0  0  0  0  0  0  0  0  0
  155.3624  137.7900  162.4139 N   0  0  0  0  0  0  0  0  0  0  0  0
  154.4301  136.7636  162.4968 C   0  0  0  0  0  0  0  0  0  0  0  0
  154.4593  136.3102  163.7961 C   0  0  0  0  0  0  0  0  0  0  0  0
  155.4012  137.0334  164.5239 N   0  0  0  0  0  0  0  0  0  0  0  0
  155.8953  137.8902  163.6394 C   0  0  0  0  0  0  0  0  0  0  0  0
  152.3753  141.3411  158.6152 H   0  0  0  0  0  0  0  0  0  0  0  0
  151.9774  141.3204  160.3139 H   0  0  0  0  0  0  0  0  0  0  0  0
  154.1499  143.2481  159.6089 H   0  0  0  0  0  0  0  0  0  0  0  0
  152.9465  143.2255  161.9696 H   0  0  0  0  0  0  0  0  0  0  0  0
  151.5748  145.3904  161.7188 H   0  0  0  0  0  0  0  0  0  0  0  0
  150.6894  145.3357  159.2487 H   0  0  0  0  0  0  0  0  0  0  0  0
  152.2863  146.1051  159.2503 H   0  0  0  0  0  0  0  0  0  0  0  0
  152.9848  144.3109  157.8700 H   0  0  0  0  0  0  0  0  0  0  0  0
  151.5041  143.4379  158.2182 H   0  0  0  0  0  0  0  0  0  0  0  0
  154.0582  141.3735  161.7833 H   0  0  0  0  0  0  0  0  0  0  0  0
  156.5678  140.5457  161.0144 H   0  0  0  0  0  0  0  0  0  0  0  0
  155.9211  140.2718  162.6095 H   0  0  0  0  0  0  0  0  0  0  0  0
  154.9579  138.3763  160.4612 H   0  0  0  0  0  0  0  0  0  0  0  0
  156.6550  138.2579  160.8687 H   0  0  0  0  0  0  0  0  0  0  0  0
  153.8336  136.4555  161.6509 H   0  0  0  0  0  0  0  0  0  0  0  0
  153.8791  135.5257  164.2591 H   0  0  0  0  0  0  0  0  0  0  0  0
  156.6595  138.6116  163.8898 H   0  0  0  0  0  0  0  0  0  0  0  0
  1  2  2  0  0  0  0
  2  3  1  0  0  0  0
  2  9  1  0  0  0  0
  3  4  1  0  0  0  0
  3 17  1  0  0  0  0
  3 18  1  0  0  0  0
  4  8  1  0  0  0  0
  4  5  1  0  0  0  0
  4 19  1  0  0  0  0
  5  6  2  0  0  0  0
  5 20  1  0  0  0  0
  6  7  1  0  0  0  0
  6 21  1  0  0  0  0
  7  8  1  0  0  0  0
  7 22  1  0  0  0  0
  7 23  1  0  0  0  0
  8 24  1  0  0  0  0
  8 25  1  0  0  0  0
  9 10  1  0  0  0  0
  9 26  1  0  0  0  0
 10 11  1  0  0  0  0
 10 27  1  0  0  0  0
 10 28  1  0  0  0  0
 11 12  1  0  0  0  0
 11 29  1  0  0  0  0
 11 30  1  0  0  0  0
 12 16  1  0  0  0  0
 12 13  1  0  0  0  0
 13 14  2  0  0  0  0
 13 31  1  0  0  0  0
 14 15  1  0  0  0  0
 14 32  1  0  0  0  0
 15 16  2  0  0  0  0
 16 33  1  0  0  0  0
M  END
> <s_m_source_file>
AV-unprocessed.smi

> <i_m_source_file_index>
3110

> <i_lp_mmshare_version>
43012

> <i_f3d_flags>
0

> <s_epik_input>
W0NIMl0xW0NIMl1bQ0hdPVtDSF1bQ0BIXTFbQ0gyXUMoPU8pW05IXVtDSDJdW0NIMl1uMltjSF1bY0hdbltjSF0y

> <s_epik_cmdline>
J2VwaWtfcHl0aG9uJywgJy1waCcsICc3LjAnLCAnLXRuJywgJzgnLCAnLW1hJywgJzIwMCcsICctbWV0YWxfYmluZGluZycsICctaW1hZScsICc8aW5maWxlLm1hZT4nLCAnLW9tYWUnLCAnPG91dGZpbGUubWFlPic=

> <r_lp_tautomer_probability>
1

> <r_epik_Ionization_Penalty>
0.593629

> <r_epik_Ionization_Penalty_Charging>
0.593629

> <r_epik_Ionization_Penalty_Neutral>
1.57355e-08

> <r_epik_State_Penalty>
0.607413

> <r_epik_Charging_Adjusted_Penalty>
1.20104

> <i_epik_Tot_Q>
0

> <i_epik_Tot_abs_Q>
0

> <r_epik_Metal_State_Penalty>
0.299385

> <b_epik_Metal_Only>
0

> <s_lp_Force_Field>
OPLS_2005

> <r_lp_Energy>
17.6057

> <b_lp_Chiralities_Consistent>
1

> <s_lp_Variant>
AV-unprocessed.smi:3110-3

> <Gold.Version>
5.8.1

> <Gold.Id.Protein>
6NUR|6NUR_protein|mol2

> <Gold.PLP.Fitness>
43.3461

> <Gold.PLP.PLP>
-42.3318

> <Gold.PLP.part.hbond>
-1.0000

> <Gold.PLP.part.metal>
0.0000

> <Gold.PLP.part.buried>
-3.7465

> <Gold.PLP.part.nonpolar>
-37.0345

> <Gold.PLP.part.repulsive>
0.0999

> <Gold.PLP.ligand.clash>
0.0000

> <Gold.PLP.ligand.torsion>
1.0148

> <Gold.PLP.Chemscore.Hbond>
0.9920

> <Gold.PLP.Chemscore.CHOScore>
0.0000

> <Gold.PLP.Chemscore.Metal>
0.0000

> <Gold.Chemscore.Hbonds>
donor molecule, donor type, donor heavy atom, donor atom, acceptor molecule, acceptor atom, score
      P1  H  7997  8009       L1     1  0.94

> <Gold.PLP.Chemscore.Internal.Correction>
0.0679

> <Gold.Rescore>
     Score         DG    S(hbond)    S(metal)    S(lipo)     H(rot)  DE(clash)    DE(int)     intcor
     14.74     -15.21       0.98        0.00      99.10       2.01       0.03       0.44       ----

> <Gold.Chemscore.Fitness>
14.7444

> <Gold.Chemscore.DG>
-15.2117

> <Gold.Chemscore.ZeroCoef>
-5.4800

> <Gold.Chemscore.Hbond>
0.9833

> <Gold.Chemscore.Metal>
0.0000

> <Gold.Chemscore.Lipo>
99.1026

> <Gold.Chemscore.Internal_Hbond>
0.0000

> <Gold.Chemscore.DEClash>
0.0310

> <Gold.Chemscore.DEInternal>
0.4363

> <Gold.Chemscore.Rot>
2.0108

> <Gold.Chemscore.Internal.Correction>
   9.000000E+99

> <Gold.Chemscore.Hbonds>
donor molecule, donor type, donor heavy atom, donor atom, acceptor molecule, acceptor atom, score
      P1  H  7997  8009       L1     1  0.91

> <Gold.Chemscore.Hbond.Weighted>
-3.2844

> <Gold.Chemscore.Metal.Weighted>
-0.0000

> <Gold.Chemscore.Lipo.Weighted>
-11.5950

> <Gold.Chemscore.Internal_Hbond.Weighted>
0.0000

> <Gold.Chemscore.DEClash.Weighted>
0.0310

> <Gold.Chemscore.DEInternal.Weighted>
0.4363

> <Gold.Chemscore.Rot.Weighted>
5.1477

> <Gold.Chemscore.Internal.Correction.Weighted>
   9.000000E+99

> <Gold.Protein.RotatedTorsions>
[ 6907 6896 6895 6894 ] final   29.78 input  -60.11 | X-H torsion
[ 7974 7965 7964 7962 ] final -121.60 input  175.53 | X-H torsion
[ 8008 7997 7996 7995 ] final  113.02 input   59.86 | X-H torsion
[ 10167 10162 10161 10158 ] final   75.65 input  -65.29 | X-H torsion
[ 10718 10713 10712 10709 ] final  -94.31 input   66.30 | X-H torsion
[ 10763 10752 10751 10750 ] final -136.21 input  -60.55 | X-H torsion
[ 11005 11000 10999 10996 ] final  -35.59 input  -57.11 | X-H torsion

> <Gold.Protein.ActiveResidues>
 VAL166  LYS551  ARG553  GLY616  TRP617  ASP618  TYR619  PRO620  LYS621  CYS622 
 ASP623  PHE694  ASN695  SER759  ASP760  ASP761  ALA762  ILE779  LEU786  VAL792 
 PHE793  MET794  SER795  GLU796  ALA797  LYS798  CYS799  TRP800  GLU811  SER814 

> <Gold.Protein.RotatedAtoms>
  152.0365  134.9737  160.0573 H   0  0  0  0  0  0  0  0  0  0  0  0  # atno 6907 bound_to 6896
  152.1193  133.4339  159.4676 H   0  0  0  0  0  0  0  0  0  0  0  0  # atno 6908 bound_to 6896
  150.6848  134.2473  159.4540 H   0  0  0  0  0  0  0  0  0  0  0  0  # atno 6909 bound_to 6896
  145.0385  140.8125  143.4280 H   0  0  0  0  0  0  0  0  0  0  0  0  # atno 7974 bound_to 7965
  156.2231  140.2988  156.0000 H   0  0  0  0  0  0  0  0  0  0  0  0  # atno 8008 bound_to 7997
  155.2429  140.0423  157.2994 H   0  0  0  0  0  0  0  0  0  0  0  0  # atno 8009 bound_to 7997
  154.5872  140.2391  155.7979 H   0  0  0  0  0  0  0  0  0  0  0  0  # atno 8010 bound_to 7997
  140.0007  144.5688  150.7740 H   0  0  0  0  0  0  0  0  0  0  0  0  # atno 10167 bound_to 10162
  156.0025  130.5062  150.5908 H   0  0  0  0  0  0  0  0  0  0  0  0  # atno 10718 bound_to 10713
  154.8688  135.3679  154.5024 H   0  0  0  0  0  0  0  0  0  0  0  0  # atno 10763 bound_to 10752
  153.5664  135.7022  153.5529 H   0  0  0  0  0  0  0  0  0  0  0  0  # atno 10764 bound_to 10752
  153.3581  135.4054  155.1661 H   0  0  0  0  0  0  0  0  0  0  0  0  # atno 10765 bound_to 10752
  140.9808  133.7057  156.1681 H   0  0  0  0  0  0  0  0  0  0  0  0  # atno 11005 bound_to 11000
  145.1678  139.2421  143.5358 LP  0  0  0  0  0  0  0  0  0  0  0  0  # atno 17320 bound_to 7965
  146.3507  140.1421  142.8594 LP  0  0  0  0  0  0  0  0  0  0  0  0  # atno 17321 bound_to 7965
  140.7420  143.2826  151.3556 LP  0  0  0  0  0  0  0  0  0  0  0  0  # atno 17342 bound_to 10162
  139.6274  144.0787  152.2446 LP  0  0  0  0  0  0  0  0  0  0  0  0  # atno 17343 bound_to 10162
  157.3773  131.0775  151.1507 LP  0  0  0  0  0  0  0  0  0  0  0  0  # atno 17370 bound_to 10713
  157.2241  130.6495  149.5823 LP  0  0  0  0  0  0  0  0  0  0  0  0  # atno 17371 bound_to 10713
  140.7189  134.4380  157.5576 LP  0  0  0  0  0  0  0  0  0  0  0  0  # atno 17394 bound_to 11000
  139.8949  134.8694  156.2154 LP  0  0  0  0  0  0  0  0  0  0  0  0  # atno 17395 bound_to 11000

$$$$
