AV-unprocessed.smi:1916|AV-procd|sdf|7764|dock7
  -GOLD-   22720 9503D 1   1.00000     0.00000
 Structure written by MMmdl.
 45 47  0  0  0  0  0  0  0  0  1 V2000
  150.2137  135.8328  156.5067 O   0  0  0  0  0  0  0  0  0  0  0  0
  149.4297  136.6857  156.0889 C   0  0  0  0  0  0  0  0  0  0  0  0
  148.2374  136.9318  156.6547 N   0  0  0  0  0  0  0  0  0  0  0  0
  147.7347  136.3015  157.8736 C   0  0  0  0  0  0  0  0  0  0  0  0
  148.6103  136.6216  159.1029 C   0  0  0  0  0  0  0  0  0  0  0  0
  148.0020  136.1788  160.4240 C   0  0  0  0  0  0  0  0  0  0  0  0
  147.8508  134.8078  160.7266 C   0  0  0  0  0  0  0  0  0  0  0  0
  147.2439  134.4526  161.9467 C   0  0  0  0  0  0  0  0  0  0  0  0
  146.8157  135.4756  162.8142 C   0  0  0  0  0  0  0  0  0  0  0  0
  147.0207  136.8142  162.4242 C   0  0  0  0  0  0  0  0  0  0  0  0
  147.6035  137.1660  161.2577 N   0  0  0  0  0  0  0  0  0  0  0  0
  149.8144  137.5673  154.8906 C   0  0  2  0  0  0  0  0  0  0  0  0
  151.3237  137.5156  154.5941 C   0  0  0  0  0  0  0  0  0  0  0  0
  151.8255  138.8839  155.0260 C   0  0  0  0  0  0  0  0  0  0  0  0
  153.0232  139.1588  155.0839 O   0  0  0  0  0  0  0  0  0  0  0  0
  150.8116  139.7024  155.3414 N   0  0  0  0  0  0  0  0  0  0  0  0
  150.9697  141.0614  155.8865 C   0  0  0  0  0  0  0  0  0  0  0  0
  151.8408  141.1699  157.1549 C   0  0  0  0  0  0  0  0  0  0  0  0
  151.3034  142.3973  157.8840 C   0  0  0  0  0  0  0  0  0  0  0  0
  149.7950  142.3163  157.6650 C   0  0  0  0  0  0  0  0  0  0  0  0
  149.6201  141.7122  156.2661 C   0  0  0  0  0  0  0  0  0  0  0  0
  149.5172  139.0553  155.1647 C   0  0  0  0  0  0  0  0  0  0  0  0
  147.6574  137.6477  156.2414 H   0  0  0  0  0  0  0  0  0  0  0  0
  146.7199  136.6597  158.0467 H   0  0  0  0  0  0  0  0  0  0  0  0
  147.6542  135.2209  157.7427 H   0  0  0  0  0  0  0  0  0  0  0  0
  149.5867  136.1497  158.9869 H   0  0  0  0  0  0  0  0  0  0  0  0
  148.7996  137.6948  159.1463 H   0  0  0  0  0  0  0  0  0  0  0  0
  148.1767  134.0454  160.0346 H   0  0  0  0  0  0  0  0  0  0  0  0
  147.1026  133.4145  162.2089 H   0  0  0  0  0  0  0  0  0  0  0  0
  146.3422  135.2405  163.7560 H   0  0  0  0  0  0  0  0  0  0  0  0
  146.7068  137.6242  163.0659 H   0  0  0  0  0  0  0  0  0  0  0  0
  149.2561  137.2366  154.0131 H   0  0  0  0  0  0  0  0  0  0  0  0
  151.8518  136.7236  155.1276 H   0  0  0  0  0  0  0  0  0  0  0  0
  151.5098  137.3835  153.5277 H   0  0  0  0  0  0  0  0  0  0  0  0
  151.4373  141.6775  155.1161 H   0  0  0  0  0  0  0  0  0  0  0  0
  151.7029  140.3125  157.8138 H   0  0  0  0  0  0  0  0  0  0  0  0
  152.9045  141.2473  156.9276 H   0  0  0  0  0  0  0  0  0  0  0  0
  151.5744  142.4114  158.9401 H   0  0  0  0  0  0  0  0  0  0  0  0
  151.6977  143.3039  157.4233 H   0  0  0  0  0  0  0  0  0  0  0  0
  149.3563  141.6480  158.4074 H   0  0  0  0  0  0  0  0  0  0  0  0
  149.3065  143.2859  157.7656 H   0  0  0  0  0  0  0  0  0  0  0  0
  149.3647  142.4864  155.5416 H   0  0  0  0  0  0  0  0  0  0  0  0
  148.7971  140.9959  156.2707 H   0  0  0  0  0  0  0  0  0  0  0  0
  149.0018  139.5047  154.3148 H   0  0  0  0  0  0  0  0  0  0  0  0
  148.8883  139.1931  156.0451 H   0  0  0  0  0  0  0  0  0  0  0  0
  1  2  2  0  0  0  0
  2  3  1  0  0  0  0
  2 12  1  0  0  0  0
  3  4  1  0  0  0  0
  3 23  1  0  0  0  0
  4  5  1  0  0  0  0
  4 24  1  0  0  0  0
  4 25  1  0  0  0  0
  5  6  1  0  0  0  0
  5 26  1  0  0  0  0
  5 27  1  0  0  0  0
  6 11  1  0  0  0  0
  6  7  2  0  0  0  0
  7  8  1  0  0  0  0
  7 28  1  0  0  0  0
  8  9  2  0  0  0  0
  8 29  1  0  0  0  0
  9 10  1  0  0  0  0
  9 30  1  0  0  0  0
 10 11  2  0  0  0  0
 10 31  1  0  0  0  0
 12 22  1  0  0  0  0
 12 13  1  0  0  0  0
 12 32  1  0  0  0  0
 13 14  1  0  0  0  0
 13 33  1  0  0  0  0
 13 34  1  0  0  0  0
 14 15  2  0  0  0  0
 14 16  1  0  0  0  0
 16 17  1  0  0  0  0
 16 22  1  0  0  0  0
 17 21  1  0  0  0  0
 17 18  1  0  0  0  0
 17 35  1  0  0  0  0
 18 19  1  0  0  0  0
 18 36  1  0  0  0  0
 18 37  1  0  0  0  0
 19 20  1  0  0  0  0
 19 38  1  0  0  0  0
 19 39  1  0  0  0  0
 20 21  1  0  0  0  0
 20 40  1  0  0  0  0
 20 41  1  0  0  0  0
 21 42  1  0  0  0  0
 21 43  1  0  0  0  0
 22 44  1  0  0  0  0
 22 45  1  0  0  0  0
M  END
> <s_m_source_file>
AV-unprocessed.smi

> <i_m_source_file_index>
1916

> <i_lp_mmshare_version>
43012

> <i_f3d_flags>
0

> <s_epik_input>
W0NIMl0xW0NIMl1bQ0gyXVtDSDJdW0NIXTFOKFtDSDJdMilDKD1PKVtDSDJdW0NASF0yQyg9TylbTkhdW0NIMl1bQ0gyXWMzW2NIXVtjSF1bY0hdW2NIXW4z

> <s_epik_cmdline>
J2VwaWtfcHl0aG9uJywgJy1waCcsICc3LjAnLCAnLXRuJywgJzgnLCAnLW1hJywgJzIwMCcsICctbWV0YWxfYmluZGluZycsICctaW1hZScsICc8aW5maWxlLm1hZT4nLCAnLW9tYWUnLCAnPG91dGZpbGUubWFlPic=

> <r_epik_Ionization_Penalty>
0.0252359

> <r_epik_Ionization_Penalty_Charging>
0

> <r_epik_Ionization_Penalty_Neutral>
0.0252359

> <r_epik_State_Penalty>
0.020532

> <r_epik_Charging_Adjusted_Penalty>
0.020532

> <i_epik_Tot_Q>
0

> <i_epik_Tot_abs_Q>
0

> <r_epik_Metal_State_Penalty>
0.0196901

> <b_epik_Metal_Only>
0

> <s_lp_Force_Field>
OPLS_2005

> <r_lp_Energy>
33.617

> <b_lp_Chiralities_Consistent>
1

> <s_lp_Variant>
AV-unprocessed.smi:1916-1

> <Gold.Version>
5.8.1

> <Gold.Id.Protein>
6NUR|6NUR_protein|mol2

> <Gold.PLP.Fitness>
49.2127

> <Gold.PLP.PLP>
-41.5567

> <Gold.PLP.part.hbond>
-3.0000

> <Gold.PLP.part.metal>
0.0000

> <Gold.PLP.part.buried>
-5.3885

> <Gold.PLP.part.nonpolar>
-32.8135

> <Gold.PLP.part.repulsive>
0.0096

> <Gold.PLP.ligand.clash>
0.0000

> <Gold.PLP.ligand.torsion>
0.5018

> <Gold.PLP.Chemscore.Hbond>
2.8640

> <Gold.PLP.Chemscore.CHOScore>
0.0000

> <Gold.PLP.Chemscore.Metal>
0.0000

> <Gold.Chemscore.Hbonds>
donor molecule, donor type, donor heavy atom, donor atom, acceptor molecule, acceptor atom, score
      P1  H  6931  6943       L1    11  0.94
      P1  H  6934  6947       L1    11  0.88
      P1  H  7997  8010       L1    15  1.00

> <Gold.PLP.Chemscore.Internal.Correction>
0.0677

> <Gold.Rescore>
     Score         DG    S(hbond)    S(metal)    S(lipo)     H(rot)  DE(clash)    DE(int)     intcor
     19.49     -20.03       2.30        0.00      93.82       1.61       0.05       0.48       ----

> <Gold.Chemscore.Fitness>
19.4945

> <Gold.Chemscore.DG>
-20.0276

> <Gold.Chemscore.ZeroCoef>
-5.4800

> <Gold.Chemscore.Hbond>
2.3039

> <Gold.Chemscore.Metal>
0.0000

> <Gold.Chemscore.Lipo>
93.8195

> <Gold.Chemscore.Internal_Hbond>
0.0000

> <Gold.Chemscore.DEClash>
0.0516

> <Gold.Chemscore.DEInternal>
0.4814

> <Gold.Chemscore.Rot>
1.6110

> <Gold.Chemscore.Internal.Correction>
   9.000000E+99

> <Gold.Chemscore.Hbonds>
donor molecule, donor type, donor heavy atom, donor atom, acceptor molecule, acceptor atom, score
      P1  H  6931  6943       L1    11  0.20
      P1  H  6934  6947       L1    11  0.52
      P1  H  7997  8010       L1    15  0.94

> <Gold.Chemscore.Hbond.Weighted>
-7.6950

> <Gold.Chemscore.Metal.Weighted>
-0.0000

> <Gold.Chemscore.Lipo.Weighted>
-10.9769

> <Gold.Chemscore.Internal_Hbond.Weighted>
0.0000

> <Gold.Chemscore.DEClash.Weighted>
0.0516

> <Gold.Chemscore.DEInternal.Weighted>
0.4814

> <Gold.Chemscore.Rot.Weighted>
4.1243

> <Gold.Chemscore.Internal.Correction.Weighted>
   9.000000E+99

> <Gold.Protein.RotatedTorsions>
[ 6907 6896 6895 6894 ] final -161.22 input  -60.11 | X-H torsion
[ 7974 7965 7964 7962 ] final  -81.98 input  175.53 | X-H torsion
[ 8008 7997 7996 7995 ] final  118.70 input   59.86 | X-H torsion
[ 10167 10162 10161 10158 ] final  126.92 input  -65.29 | X-H torsion
[ 10718 10713 10712 10709 ] final -166.91 input   66.30 | X-H torsion
[ 10763 10752 10751 10750 ] final  -41.67 input  -60.55 | X-H torsion
[ 11005 11000 10999 10996 ] final   -5.00 input  -57.11 | X-H torsion

> <Gold.Protein.ActiveResidues>
 VAL166  LYS551  ARG553  GLY616  TRP617  ASP618  TYR619  PRO620  LYS621  CYS622 
 ASP623  PHE694  ASN695  SER759  ASP760  ASP761  ALA762  ILE779  LEU786  VAL792 
 PHE793  MET794  SER795  GLU796  ALA797  LYS798  CYS799  TRP800  GLU811  SER814 

> <Gold.Protein.RotatedAtoms>
  151.3613  133.3888  159.2689 H   0  0  0  0  0  0  0  0  0  0  0  0  # atno 6907 bound_to 6896
  150.9723  134.9095  159.7806 H   0  0  0  0  0  0  0  0  0  0  0  0  # atno 6908 bound_to 6896
  152.5189  134.3575  159.9325 H   0  0  0  0  0  0  0  0  0  0  0  0  # atno 6909 bound_to 6896
  145.5394  140.9511  143.1559 H   0  0  0  0  0  0  0  0  0  0  0  0  # atno 7974 bound_to 7965
  156.2559  140.2869  156.0875 H   0  0  0  0  0  0  0  0  0  0  0  0  # atno 8008 bound_to 7997
  155.1499  140.0397  157.2836 H   0  0  0  0  0  0  0  0  0  0  0  0  # atno 8009 bound_to 7997
  154.6468  140.2535  155.7265 H   0  0  0  0  0  0  0  0  0  0  0  0  # atno 8010 bound_to 7997
  139.5606  144.6879  151.4055 H   0  0  0  0  0  0  0  0  0  0  0  0  # atno 10167 bound_to 10162
  156.6747  130.9098  151.3048 H   0  0  0  0  0  0  0  0  0  0  0  0  # atno 10718 bound_to 10713
  153.9663  135.6733  153.4746 H   0  0  0  0  0  0  0  0  0  0  0  0  # atno 10763 bound_to 10752
  153.0814  135.4921  154.8507 H   0  0  0  0  0  0  0  0  0  0  0  0  # atno 10764 bound_to 10752
  154.7244  135.3124  154.8955 H   0  0  0  0  0  0  0  0  0  0  0  0  # atno 10765 bound_to 10752
  140.6864  133.9109  155.8589 H   0  0  0  0  0  0  0  0  0  0  0  0  # atno 11005 bound_to 11000
  144.7585  139.7016  143.7244 LP  0  0  0  0  0  0  0  0  0  0  0  0  # atno 17320 bound_to 7965
  146.1991  139.5275  142.9755 LP  0  0  0  0  0  0  0  0  0  0  0  0  # atno 17321 bound_to 7965
  140.6885  143.7918  150.7220 LP  0  0  0  0  0  0  0  0  0  0  0  0  # atno 17342 bound_to 10162
  140.1393  143.4455  152.2204 LP  0  0  0  0  0  0  0  0  0  0  0  0  # atno 17343 bound_to 10162
  157.7065  130.9391  150.0947 LP  0  0  0  0  0  0  0  0  0  0  0  0  # atno 17370 bound_to 10713
  156.1912  130.3655  149.8907 LP  0  0  0  0  0  0  0  0  0  0  0  0  # atno 17371 bound_to 10713
  141.0276  134.0801  157.4050 LP  0  0  0  0  0  0  0  0  0  0  0  0  # atno 17394 bound_to 11000
  139.8936  135.0131  156.6908 LP  0  0  0  0  0  0  0  0  0  0  0  0  # atno 17395 bound_to 11000

$$$$
