AV-unprocessed.smi:1229|AV-procd|sdf|5150|dock9
  -GOLD-   22720 4223D 1   1.00000     0.00000
 Structure written by MMmdl.
 46 47  0  0  0  0  0  0  0  0  2 V2000
  151.7894  138.1854  154.3883 C   0  0  0  0  0  0  0  0  0  0  0  0
  151.1952  139.4676  154.9484 C   0  0  0  0  0  0  0  0  0  0  0  0
  151.9785  140.2772  155.7983 C   0  0  0  0  0  0  0  0  0  0  0  0
  151.4281  141.4624  156.3152 C   0  0  0  0  0  0  0  0  0  0  0  0
  150.1084  141.7891  155.9591 C   0  0  0  0  0  0  0  0  0  0  0  0
  149.3524  141.0211  155.1481 N   0  0  0  0  0  0  0  0  0  0  0  0
  149.8693  139.8741  154.6395 C   0  0  0  0  0  0  0  0  0  0  0  0
  149.1300  139.0142  153.7786 N   0  0  0  0  0  0  0  0  0  0  0  0
  147.8388  139.1040  153.4139 C   0  0  0  0  0  0  0  0  0  0  0  0
  147.0534  139.9824  153.7720 O   0  0  0  0  0  0  0  0  0  0  0  0
  147.4922  138.0965  152.5989 N   0  0  0  0  0  0  0  0  0  0  0  0
  146.1637  137.9054  152.0243 C   0  0  0  0  0  0  0  0  0  0  0  0
  146.1645  136.8400  150.9083 C   0  0  2  0  0  0  0  0  0  0  0  0
  146.0326  137.5041  149.6667 O   0  0  0  0  0  0  0  0  0  0  0  0
  144.9738  135.8700  151.0478 C   0  0  0  0  0  0  0  0  0  0  0  0
  145.2412  134.5508  150.4194 N   0  3  0  0  0  0  0  0  0  0  0  0
  144.0421  133.6731  150.4122 C   0  0  0  0  0  0  0  0  0  0  0  0
  144.3061  132.3787  149.6238 C   0  0  0  0  0  0  0  0  0  0  0  0
  145.5265  131.6330  150.1791 C   0  0  0  0  0  0  0  0  0  0  0  0
  146.7420  132.5686  150.2128 C   0  0  0  0  0  0  0  0  0  0  0  0
  146.4240  133.8544  150.9941 C   0  0  0  0  0  0  0  0  0  0  0  0
  152.8200  138.0487  154.7167 H   0  0  0  0  0  0  0  0  0  0  0  0
  151.7855  138.2062  153.2981 H   0  0  0  0  0  0  0  0  0  0  0  0
  151.2140  137.3212  154.7217 H   0  0  0  0  0  0  0  0  0  0  0  0
  152.9901  139.9966  156.0529 H   0  0  0  0  0  0  0  0  0  0  0  0
  152.0021  142.1037  156.9678 H   0  0  0  0  0  0  0  0  0  0  0  0
  149.6470  142.6906  156.3344 H   0  0  0  0  0  0  0  0  0  0  0  0
  149.6487  138.2362  153.3992 H   0  0  0  0  0  0  0  0  0  0  0  0
  148.1977  137.4178  152.3518 H   0  0  0  0  0  0  0  0  0  0  0  0
  145.4867  137.6069  152.8268 H   0  0  0  0  0  0  0  0  0  0  0  0
  145.7866  138.8599  151.6545 H   0  0  0  0  0  0  0  0  0  0  0  0
  147.1037  136.2884  150.9196 H   0  0  0  0  0  0  0  0  0  0  0  0
  145.1259  137.7469  149.5513 H   0  0  0  0  0  0  0  0  0  0  0  0
  144.7217  135.7171  152.0984 H   0  0  0  0  0  0  0  0  0  0  0  0
  144.0962  136.3317  150.5916 H   0  0  0  0  0  0  0  0  0  0  0  0
  143.7533  133.4395  151.4382 H   0  0  0  0  0  0  0  0  0  0  0  0
  143.2022  134.1998  149.9574 H   0  0  0  0  0  0  0  0  0  0  0  0
  143.4274  131.7340  149.6597 H   0  0  0  0  0  0  0  0  0  0  0  0
  144.4708  132.6187  148.5726 H   0  0  0  0  0  0  0  0  0  0  0  0
  145.3118  131.2702  151.1851 H   0  0  0  0  0  0  0  0  0  0  0  0
  145.7424  130.7551  149.5696 H   0  0  0  0  0  0  0  0  0  0  0  0
  147.5925  132.0579  150.6652 H   0  0  0  0  0  0  0  0  0  0  0  0
  147.0394  132.8228  149.1945 H   0  0  0  0  0  0  0  0  0  0  0  0
  147.2984  134.5036  150.9745 H   0  0  0  0  0  0  0  0  0  0  0  0
  146.2337  133.6168  152.0421 H   0  0  0  0  0  0  0  0  0  0  0  0
  145.4522  134.7428  149.4503 H   0  0  0  0  0  0  0  0  0  0  0  0
  1  2  1  0  0  0  0
  1 22  1  0  0  0  0
  1 23  1  0  0  0  0
  1 24  1  0  0  0  0
  2  7  1  0  0  0  0
  2  3  2  0  0  0  0
  3  4  1  0  0  0  0
  3 25  1  0  0  0  0
  4  5  2  0  0  0  0
  4 26  1  0  0  0  0
  5  6  1  0  0  0  0
  5 27  1  0  0  0  0
  6  7  2  0  0  0  0
  7  8  1  0  0  0  0
  8  9  1  0  0  0  0
  8 28  1  0  0  0  0
  9 10  2  0  0  0  0
  9 11  1  0  0  0  0
 11 12  1  0  0  0  0
 11 29  1  0  0  0  0
 12 13  1  0  0  0  0
 12 30  1  0  0  0  0
 12 31  1  0  0  0  0
 13 14  1  0  0  0  0
 13 15  1  0  0  0  0
 13 32  1  0  0  0  0
 14 33  1  0  0  0  0
 15 16  1  0  0  0  0
 15 34  1  0  0  0  0
 15 35  1  0  0  0  0
 16 21  1  0  0  0  0
 16 17  1  0  0  0  0
 16 46  1  0  0  0  0
 17 18  1  0  0  0  0
 17 36  1  0  0  0  0
 17 37  1  0  0  0  0
 18 19  1  0  0  0  0
 18 38  1  0  0  0  0
 18 39  1  0  0  0  0
 19 20  1  0  0  0  0
 19 40  1  0  0  0  0
 19 41  1  0  0  0  0
 20 21  1  0  0  0  0
 20 42  1  0  0  0  0
 20 43  1  0  0  0  0
 21 44  1  0  0  0  0
 21 45  1  0  0  0  0
M  CHG  1  16   1
M  END
> <s_m_source_file>
AV-unprocessed.smi

> <i_m_source_file_index>
1229

> <i_lp_mmshare_version>
43012

> <i_f3d_flags>
0

> <s_epik_input>
W0NIM11jMVtjSF1bY0hdW2NIXW5jMVtOSF1DKD1PKVtOSF1bQ0gyXVtDQEhdKFtPSF0pW0NIMl1OMltDSDJdW0NIMl1bQ0gyXVtDSDJdW0NIMl0y

> <s_epik_cmdline>
J2VwaWtfcHl0aG9uJywgJy1waCcsICc3LjAnLCAnLXRuJywgJzgnLCAnLW1hJywgJzIwMCcsICctbWV0YWxfYmluZGluZycsICctaW1hZScsICc8aW5maWxlLm1hZT4nLCAnLW9tYWUnLCAnPG91dGZpbGUubWFlPic=

> <r_epik_Ionization_Penalty>
0.00511007

> <r_epik_Ionization_Penalty_Charging>
0.00506051

> <r_epik_Ionization_Penalty_Neutral>
4.95577e-05

> <r_epik_State_Penalty>
0.00368188

> <r_epik_Charging_Adjusted_Penalty>
0.0087424

> <i_epik_Tot_Q>
1

> <i_epik_Tot_abs_Q>
1

> <r_epik_Metal_State_Penalty>
-0

> <b_epik_Metal_Only>
0

> <s_lp_Force_Field>
OPLS_2005

> <r_lp_Energy>
20.9384

> <b_lp_Chiralities_Consistent>
1

> <s_lp_Variant>
AV-unprocessed.smi:1229-1

> <Gold.Version>
5.8.1

> <Gold.Id.Protein>
6NUR|6NUR_protein|mol2

> <Gold.PLP.Fitness>
51.2258

> <Gold.PLP.PLP>
-41.1045

> <Gold.PLP.part.hbond>
-4.7758

> <Gold.PLP.part.metal>
0.0000

> <Gold.PLP.part.buried>
1.5728

> <Gold.PLP.part.nonpolar>
-38.4995

> <Gold.PLP.part.repulsive>
0.4298

> <Gold.PLP.ligand.clash>
0.0000

> <Gold.PLP.ligand.torsion>
1.0259

> <Gold.PLP.Chemscore.Hbond>
3.0374

> <Gold.PLP.Chemscore.CHOScore>
1.0000

> <Gold.PLP.Chemscore.Metal>
0.0000

> <Gold.Chemscore.Hbonds>
donor molecule, donor type, donor heavy atom, donor atom, acceptor molecule, acceptor atom, score
      L1  H    11    29       P1  7948  0.86
      L1  H    14    33       P1 10171  0.93
      L1  H    16    46       P1  7921  1.00
      P1  H  7954  7966       L1    14  0.08
      L1  C     5    27       P1  8028  1.00

> <Gold.PLP.Chemscore.Internal.Correction>
0.0609

> <Gold.Rescore>
     Score         DG    S(hbond)    S(metal)    S(lipo)     H(rot)  DE(clash)    DE(int)     intcor
     16.92     -20.91       2.94        0.00      98.61       2.31       1.66       2.34       ----

> <Gold.Chemscore.Fitness>
16.9165

> <Gold.Chemscore.DG>
-20.9095

> <Gold.Chemscore.ZeroCoef>
-5.4800

> <Gold.Chemscore.Hbond>
2.9355

> <Gold.Chemscore.Metal>
0.0000

> <Gold.Chemscore.Lipo>
98.6090

> <Gold.Chemscore.Internal_Hbond>
0.0000

> <Gold.Chemscore.DEClash>
1.6575

> <Gold.Chemscore.DEInternal>
2.3355

> <Gold.Chemscore.Rot>
2.3095

> <Gold.Chemscore.Internal.Correction>
   9.000000E+99

> <Gold.Chemscore.Hbonds>
donor molecule, donor type, donor heavy atom, donor atom, acceptor molecule, acceptor atom, score
      L1  H    11    29       P1  7948  0.84
      L1  H    14    33       P1 10171  0.87
      L1  H    16    46       P1  7921  0.98

> <Gold.Chemscore.Hbond.Weighted>
-9.8047

> <Gold.Chemscore.Metal.Weighted>
-0.0000

> <Gold.Chemscore.Lipo.Weighted>
-11.5373

> <Gold.Chemscore.Internal_Hbond.Weighted>
0.0000

> <Gold.Chemscore.DEClash.Weighted>
1.6575

> <Gold.Chemscore.DEInternal.Weighted>
2.3355

> <Gold.Chemscore.Rot.Weighted>
5.9124

> <Gold.Chemscore.Internal.Correction.Weighted>
   9.000000E+99

> <Gold.Protein.RotatedTorsions>
[ 6907 6896 6895 6894 ] final   39.34 input  -60.11 | X-H torsion
[ 7974 7965 7964 7962 ] final   76.18 input  175.53 | X-H torsion
[ 8008 7997 7996 7995 ] final  -22.60 input   59.86 | X-H torsion
[ 10167 10162 10161 10158 ] final  155.68 input  -65.29 | X-H torsion
[ 10718 10713 10712 10709 ] final  123.69 input   66.30 | X-H torsion
[ 10763 10752 10751 10750 ] final  136.30 input  -60.55 | X-H torsion
[ 11005 11000 10999 10996 ] final   99.13 input  -57.11 | X-H torsion

> <Gold.Protein.ActiveResidues>
 VAL166  LYS551  ARG553  GLY616  TRP617  ASP618  TYR619  PRO620  LYS621  CYS622 
 ASP623  PHE694  ASN695  SER759  ASP760  ASP761  ALA762  ILE779  LEU786  VAL792 
 PHE793  MET794  SER795  GLU796  ALA797  LYS798  CYS799  TRP800  GLU811  SER814 

> <Gold.Protein.RotatedAtoms>
  152.1682  134.8856  160.0536 H   0  0  0  0  0  0  0  0  0  0  0  0  # atno 6907 bound_to 6896
  151.9826  133.3758  159.4121 H   0  0  0  0  0  0  0  0  0  0  0  0  # atno 6908 bound_to 6896
  150.6898  134.3945  159.5135 H   0  0  0  0  0  0  0  0  0  0  0  0  # atno 6909 bound_to 6896
  145.7061  139.2599  143.1677 H   0  0  0  0  0  0  0  0  0  0  0  0  # atno 7974 bound_to 7965
  154.4634  140.2003  156.0183 H   0  0  0  0  0  0  0  0  0  0  0  0  # atno 8008 bound_to 7997
  156.0882  140.3262  155.7753 H   0  0  0  0  0  0  0  0  0  0  0  0  # atno 8009 bound_to 7997
  155.4999  140.0553  157.2931 H   0  0  0  0  0  0  0  0  0  0  0  0  # atno 8010 bound_to 7997
  139.4821  144.5076  151.8073 H   0  0  0  0  0  0  0  0  0  0  0  0  # atno 10167 bound_to 10162
  157.5644  131.1087  150.8480 H   0  0  0  0  0  0  0  0  0  0  0  0  # atno 10718 bound_to 10713
  153.8543  135.3075  155.3434 H   0  0  0  0  0  0  0  0  0  0  0  0  # atno 10763 bound_to 10752
  154.7877  135.4800  153.9986 H   0  0  0  0  0  0  0  0  0  0  0  0  # atno 10764 bound_to 10752
  153.1499  135.6841  153.8991 H   0  0  0  0  0  0  0  0  0  0  0  0  # atno 10765 bound_to 10752
  139.8771  134.9081  156.4559 H   0  0  0  0  0  0  0  0  0  0  0  0  # atno 11005 bound_to 11000
  146.0754  140.7822  142.9667 LP  0  0  0  0  0  0  0  0  0  0  0  0  # atno 17320 bound_to 7965
  144.6955  140.3407  143.7199 LP  0  0  0  0  0  0  0  0  0  0  0  0  # atno 17321 bound_to 7965
  140.4576  144.1767  150.5903 LP  0  0  0  0  0  0  0  0  0  0  0  0  # atno 17342 bound_to 10162
  140.4519  143.2483  151.9337 LP  0  0  0  0  0  0  0  0  0  0  0  0  # atno 17343 bound_to 10162
  156.8969  130.5232  149.5284 LP  0  0  0  0  0  0  0  0  0  0  0  0  # atno 17370 bound_to 10713
  156.0694  130.5730  150.9353 LP  0  0  0  0  0  0  0  0  0  0  0  0  # atno 17371 bound_to 10713
  140.8898  133.7856  155.9559 LP  0  0  0  0  0  0  0  0  0  0  0  0  # atno 17394 bound_to 11000
  140.8765  134.2663  157.5165 LP  0  0  0  0  0  0  0  0  0  0  0  0  # atno 17395 bound_to 11000

$$$$
