AV-unprocessed.smi:1844|AV-procd|sdf|7510|dock9
  -GOLD-   22720 9213D 1   1.00000     0.00000
 Structure written by MMmdl.
 45 46  0  0  0  0  0  0  0  0  1 V2000
  149.8560  142.0941  155.6941 C   0  0  0  0  0  0  0  0  0  0  0  0
  149.8193  140.6945  156.0903 N   0  0  0  0  0  0  0  0  0  0  0  0
  150.3777  139.6911  155.3933 C   0  0  0  0  0  0  0  0  0  0  0  0
  150.9781  139.8939  154.3364 O   0  0  0  0  0  0  0  0  0  0  0  0
  150.2022  138.3729  156.0084 C   0  0  0  0  0  0  0  0  0  0  0  0
  151.1800  137.3016  155.8881 C   0  0  0  0  0  0  0  0  0  0  0  0
  150.9683  136.1103  156.4811 C   0  0  0  0  0  0  0  0  0  0  0  0
  149.7576  135.8409  157.2622 C   0  0  0  0  0  0  0  0  0  0  0  0
  149.5601  134.7548  157.8079 O   0  0  0  0  0  0  0  0  0  0  0  0
  148.8624  136.8714  157.3451 N   0  0  0  0  0  0  0  0  0  0  0  0
  147.6083  136.7199  158.1023 C   0  0  0  0  0  0  0  0  0  0  0  0
  147.7852  136.8906  159.6177 C   0  0  0  0  0  0  0  0  0  0  0  0
  148.8646  137.2472  160.0922 O   0  0  0  0  0  0  0  0  0  0  0  0
  146.6940  136.6489  160.3606 N   0  0  0  0  0  0  0  0  0  0  0  0
  146.6006  136.7402  161.8193 C   0  0  2  0  0  0  0  0  0  0  0  0
  147.7102  135.8878  162.4677 C   0  0  0  0  0  0  0  0  0  0  0  0
  147.4661  134.3792  162.2883 C   0  0  0  0  0  0  0  0  0  0  0  0
  146.0802  133.9740  162.8115 C   0  0  0  0  0  0  0  0  0  0  0  0
  144.9676  134.8027  162.1495 C   0  0  0  0  0  0  0  0  0  0  0  0
  145.2009  136.3167  162.3343 C   0  0  2  0  0  0  0  0  0  0  0  0
  144.0570  137.1437  161.7227 C   0  0  0  0  0  0  0  0  0  0  0  0
  149.0913  138.1165  156.7269 C   0  0  0  0  0  0  0  0  0  0  0  0
  149.3451  142.7041  156.4389 H   0  0  0  0  0  0  0  0  0  0  0  0
  149.3577  142.2389  154.7349 H   0  0  0  0  0  0  0  0  0  0  0  0
  150.8842  142.4481  155.6102 H   0  0  0  0  0  0  0  0  0  0  0  0
  149.3387  140.4706  156.9496 H   0  0  0  0  0  0  0  0  0  0  0  0
  152.0930  137.4340  155.3265 H   0  0  0  0  0  0  0  0  0  0  0  0
  151.7090  135.3310  156.3788 H   0  0  0  0  0  0  0  0  0  0  0  0
  146.8667  137.4450  157.7645 H   0  0  0  0  0  0  0  0  0  0  0  0
  147.1637  135.7439  157.8986 H   0  0  0  0  0  0  0  0  0  0  0  0
  145.8521  136.3726  159.8762 H   0  0  0  0  0  0  0  0  0  0  0  0
  146.7717  137.7735  162.1259 H   0  0  0  0  0  0  0  0  0  0  0  0
  148.6838  136.1601  162.0581 H   0  0  0  0  0  0  0  0  0  0  0  0
  147.7575  136.1149  163.5335 H   0  0  0  0  0  0  0  0  0  0  0  0
  147.5516  134.1126  161.2342 H   0  0  0  0  0  0  0  0  0  0  0  0
  148.2392  133.8148  162.8104 H   0  0  0  0  0  0  0  0  0  0  0  0
  145.9106  132.9122  162.6309 H   0  0  0  0  0  0  0  0  0  0  0  0
  146.0440  134.1126  163.8927 H   0  0  0  0  0  0  0  0  0  0  0  0
  144.9143  134.5604  161.0874 H   0  0  0  0  0  0  0  0  0  0  0  0
  144.0044  134.5198  162.5758 H   0  0  0  0  0  0  0  0  0  0  0  0
  145.1860  136.5136  163.4073 H   0  0  0  0  0  0  0  0  0  0  0  0
  143.9504  136.9581  160.6536 H   0  0  0  0  0  0  0  0  0  0  0  0
  144.2289  138.2116  161.8603 H   0  0  0  0  0  0  0  0  0  0  0  0
  143.1045  136.9001  162.1940 H   0  0  0  0  0  0  0  0  0  0  0  0
  148.3060  138.8426  156.8849 H   0  0  0  0  0  0  0  0  0  0  0  0
  1  2  1  0  0  0  0
  1 23  1  0  0  0  0
  1 24  1  0  0  0  0
  1 25  1  0  0  0  0
  2  3  1  0  0  0  0
  2 26  1  0  0  0  0
  3  4  2  0  0  0  0
  3  5  1  0  0  0  0
  5 22  2  0  0  0  0
  5  6  1  0  0  0  0
  6  7  2  0  0  0  0
  6 27  1  0  0  0  0
  7  8  1  0  0  0  0
  7 28  1  0  0  0  0
  8  9  2  0  0  0  0
  8 10  1  0  0  0  0
 10 11  1  0  0  0  0
 10 22  1  0  0  0  0
 11 12  1  0  0  0  0
 11 29  1  0  0  0  0
 11 30  1  0  0  0  0
 12 13  2  0  0  0  0
 12 14  1  0  0  0  0
 14 15  1  0  0  0  0
 14 31  1  0  0  0  0
 15 20  1  0  0  0  0
 15 16  1  0  0  0  0
 15 32  1  0  0  0  0
 16 17  1  0  0  0  0
 16 33  1  0  0  0  0
 16 34  1  0  0  0  0
 17 18  1  0  0  0  0
 17 35  1  0  0  0  0
 17 36  1  0  0  0  0
 18 19  1  0  0  0  0
 18 37  1  0  0  0  0
 18 38  1  0  0  0  0
 19 20  1  0  0  0  0
 19 39  1  0  0  0  0
 19 40  1  0  0  0  0
 20 21  1  0  0  0  0
 20 41  1  0  0  0  0
 21 42  1  0  0  0  0
 21 43  1  0  0  0  0
 21 44  1  0  0  0  0
 22 45  1  0  0  0  0
M  END
> <s_m_source_file>
AV-unprocessed.smi

> <i_m_source_file_index>
1844

> <i_lp_mmshare_version>
43012

> <i_f3d_flags>
0

> <s_epik_input>
W0NIM11bTkhdQyg9TyljMVtjSF1bY0hdYyg9TyluKFtjSF0xKVtDSDJdQyg9TylbTkhdW0NAQEhdMltDSDJdW0NIMl1bQ0gyXVtDSDJdW0NASF0yW0NIM10=

> <s_epik_cmdline>
J2VwaWtfcHl0aG9uJywgJy1waCcsICc3LjAnLCAnLXRuJywgJzgnLCAnLW1hJywgJzIwMCcsICctbWV0YWxfYmluZGluZycsICctaW1hZScsICc8aW5maWxlLm1hZT4nLCAnLW9tYWUnLCAnPG91dGZpbGUubWFlPic=

> <r_lp_tautomer_probability>
1

> <r_epik_Ionization_Penalty>
3.66612e-07

> <r_epik_Ionization_Penalty_Charging>
5.18929e-08

> <r_epik_Ionization_Penalty_Neutral>
3.14719e-07

> <r_epik_State_Penalty>
-0

> <r_epik_Charging_Adjusted_Penalty>
5.18929e-08

> <i_epik_Tot_Q>
0

> <i_epik_Tot_abs_Q>
0

> <r_epik_Metal_State_Penalty>
-0

> <b_epik_Metal_Only>
0

> <s_lp_Force_Field>
OPLS_2005

> <r_lp_Energy>
22.5965

> <b_lp_Chiralities_Consistent>
1

> <s_lp_Variant>
AV-unprocessed.smi:1844-3

> <Gold.Version>
5.8.1

> <Gold.Id.Protein>
6NUR|6NUR_protein|mol2

> <Gold.PLP.Fitness>
39.5042

> <Gold.PLP.PLP>
-33.2464

> <Gold.PLP.part.hbond>
-3.0169

> <Gold.PLP.part.metal>
0.0000

> <Gold.PLP.part.buried>
-6.3543

> <Gold.PLP.part.nonpolar>
-24.8053

> <Gold.PLP.part.repulsive>
0.2660

> <Gold.PLP.ligand.clash>
0.0000

> <Gold.PLP.ligand.torsion>
0.7646

> <Gold.PLP.Chemscore.Hbond>
2.5920

> <Gold.PLP.Chemscore.CHOScore>
0.0000

> <Gold.PLP.Chemscore.Metal>
0.0000

> <Gold.Chemscore.Hbonds>
donor molecule, donor type, donor heavy atom, donor atom, acceptor molecule, acceptor atom, score
      P1  H  6896  6909       L1     9  0.96
      P1  H  6931  6943       L1    13  0.46
      P1  H  7989  7998       L1     4  0.78

> <Gold.PLP.Chemscore.Internal.Correction>
0.0111

> <Gold.Rescore>
     Score         DG    S(hbond)    S(metal)    S(lipo)     H(rot)  DE(clash)    DE(int)     intcor
     15.89     -18.78       2.57        0.00      72.94       1.49       0.10       2.79       ----

> <Gold.Chemscore.Fitness>
15.8908

> <Gold.Chemscore.DG>
-18.7832

> <Gold.Chemscore.ZeroCoef>
-5.4800

> <Gold.Chemscore.Hbond>
2.5719

> <Gold.Chemscore.Metal>
0.0000

> <Gold.Chemscore.Lipo>
72.9364

> <Gold.Chemscore.Internal_Hbond>
0.0000

> <Gold.Chemscore.DEClash>
0.1036

> <Gold.Chemscore.DEInternal>
2.7888

> <Gold.Chemscore.Rot>
1.4923

> <Gold.Chemscore.Internal.Correction>
   9.000000E+99

> <Gold.Chemscore.Hbonds>
donor molecule, donor type, donor heavy atom, donor atom, acceptor molecule, acceptor atom, score
      P1  H  6896  6909       L1     9  0.86
      P1  H  6931  6943       L1    13  0.44
      P1  H  7989  7998       L1     4  0.77

> <Gold.Chemscore.Hbond.Weighted>
-8.5900

> <Gold.Chemscore.Metal.Weighted>
-0.0000

> <Gold.Chemscore.Lipo.Weighted>
-8.5336

> <Gold.Chemscore.Internal_Hbond.Weighted>
0.0000

> <Gold.Chemscore.DEClash.Weighted>
0.1036

> <Gold.Chemscore.DEInternal.Weighted>
2.7888

> <Gold.Chemscore.Rot.Weighted>
3.8204

> <Gold.Chemscore.Internal.Correction.Weighted>
   9.000000E+99

> <Gold.Protein.RotatedTorsions>
[ 6907 6896 6895 6894 ] final   12.80 input  -60.11 | X-H torsion
[ 7974 7965 7964 7962 ] final    3.09 input  175.53 | X-H torsion
[ 8008 7997 7996 7995 ] final  -62.60 input   59.86 | X-H torsion
[ 10167 10162 10161 10158 ] final   92.78 input  -65.29 | X-H torsion
[ 10718 10713 10712 10709 ] final -151.07 input   66.30 | X-H torsion
[ 10763 10752 10751 10750 ] final   -4.87 input  -60.55 | X-H torsion
[ 11005 11000 10999 10996 ] final  -75.83 input  -57.11 | X-H torsion

> <Gold.Protein.ActiveResidues>
 VAL166  LYS551  ARG553  GLY616  TRP617  ASP618  TYR619  PRO620  LYS621  CYS622 
 ASP623  PHE694  ASN695  SER759  ASP760  ASP761  ALA762  ILE779  LEU786  VAL792 
 PHE793  MET794  SER795  GLU796  ALA797  LYS798  CYS799  TRP800  GLU811  SER814 

> <Gold.Protein.RotatedAtoms>
  151.7762  135.0773  160.0366 H   0  0  0  0  0  0  0  0  0  0  0  0  # atno 6907 bound_to 6896
  152.3254  133.5895  159.5782 H   0  0  0  0  0  0  0  0  0  0  0  0  # atno 6908 bound_to 6896
  150.7393  133.9864  159.3634 H   0  0  0  0  0  0  0  0  0  0  0  0  # atno 6909 bound_to 6896
  146.2445  140.0738  142.8361 H   0  0  0  0  0  0  0  0  0  0  0  0  # atno 7974 bound_to 7965
  154.4509  140.0992  156.6613 H   0  0  0  0  0  0  0  0  0  0  0  0  # atno 8008 bound_to 7997
  155.5290  140.3481  155.4404 H   0  0  0  0  0  0  0  0  0  0  0  0  # atno 8009 bound_to 7997
  156.0678  140.1342  156.9854 H   0  0  0  0  0  0  0  0  0  0  0  0  # atno 8010 bound_to 7997
  139.8243  144.6717  150.9479 H   0  0  0  0  0  0  0  0  0  0  0  0  # atno 10167 bound_to 10162
  156.4544  130.8183  151.2414 H   0  0  0  0  0  0  0  0  0  0  0  0  # atno 10718 bound_to 10713
  153.3907  135.7002  153.6497 H   0  0  0  0  0  0  0  0  0  0  0  0  # atno 10763 bound_to 10752
  153.5070  135.3640  155.2568 H   0  0  0  0  0  0  0  0  0  0  0  0  # atno 10764 bound_to 10752
  154.8702  135.4125  154.3224 H   0  0  0  0  0  0  0  0  0  0  0  0  # atno 10765 bound_to 10752
  141.1649  133.6961  156.7576 H   0  0  0  0  0  0  0  0  0  0  0  0  # atno 11005 bound_to 11000
  145.0793  140.9210  143.4835 LP  0  0  0  0  0  0  0  0  0  0  0  0  # atno 17320 bound_to 7965
  145.0887  139.2906  143.5746 LP  0  0  0  0  0  0  0  0  0  0  0  0  # atno 17321 bound_to 7965
  140.7811  143.4061  151.1068 LP  0  0  0  0  0  0  0  0  0  0  0  0  # atno 17342 bound_to 10162
  139.7720  143.8481  152.3122 LP  0  0  0  0  0  0  0  0  0  0  0  0  # atno 17343 bound_to 10162
  157.7501  131.0127  150.3397 LP  0  0  0  0  0  0  0  0  0  0  0  0  # atno 17370 bound_to 10713
  156.3782  130.3875  149.7122 LP  0  0  0  0  0  0  0  0  0  0  0  0  # atno 17371 bound_to 10713
  140.2558  134.8505  157.3711 LP  0  0  0  0  0  0  0  0  0  0  0  0  # atno 17394 bound_to 11000
  140.1659  134.4670  155.7863 LP  0  0  0  0  0  0  0  0  0  0  0  0  # atno 17395 bound_to 11000

$$$$
