AV-unprocessed.smi:2090|AV-procd|sdf|8534|dock4
  -GOLD-   2272011253D 1   1.00000     0.00000
 Structure written by MMmdl.
 41 42  0  0  0  0  0  0  0  0  3 V2000
  152.6445  140.3603  158.9270 C   0  0  0  0  0  0  0  0  0  0  0  0
  152.2557  140.2639  157.4910 C   0  0  0  0  0  0  0  0  0  0  0  0
  151.1006  140.5525  156.8214 C   0  0  0  0  0  0  0  0  0  0  0  0
  151.4195  140.2372  155.4722 C   0  0  0  0  0  0  0  0  0  0  0  0
  150.5918  140.3449  154.4211 N   0  5  0  0  0  0  0  0  0  0  0  0
  149.2639  140.1406  154.5773 C   0  0  0  0  0  0  0  0  0  0  0  0
  148.6321  140.1974  155.6349 O   0  0  0  0  0  0  0  0  0  0  0  0
  148.6257  139.8503  153.4360 N   0  0  0  0  0  0  0  0  0  0  0  0
  147.1989  139.5836  153.3198 C   0  0  0  0  0  0  0  0  0  0  0  0
  146.8660  139.0463  151.9195 C   0  0  0  0  0  0  0  0  0  0  0  0
  146.5697  137.5920  151.9334 N   0  3  2  0  0  0  0  0  0  0  0  0
  146.1072  137.0985  150.6106 C   0  0  0  0  0  0  0  0  0  0  0  0
  145.9435  135.5691  150.6132 C   0  0  0  0  0  0  0  0  0  0  0  0
  144.9795  135.1117  151.7204 C   0  0  1  0  0  0  0  0  0  0  0  0
  144.8350  133.5836  151.7527 C   0  0  0  0  0  0  0  0  0  0  0  0
  145.4608  135.6673  153.0713 C   0  0  0  0  0  0  0  0  0  0  0  0
  145.6343  137.1948  153.0190 C   0  0  0  0  0  0  0  0  0  0  0  0
  152.6532  139.7798  155.3379 N   0  0  0  0  0  0  0  0  0  0  0  0
  153.1991  139.8017  156.6269 O   0  0  0  0  0  0  0  0  0  0  0  0
  151.8820  139.9116  159.5635 H   0  0  0  0  0  0  0  0  0  0  0  0
  152.7640  141.4023  159.2240 H   0  0  0  0  0  0  0  0  0  0  0  0
  153.5864  139.8446  159.1151 H   0  0  0  0  0  0  0  0  0  0  0  0
  150.1760  140.9327  157.2292 H   0  0  0  0  0  0  0  0  0  0  0  0
  149.1759  139.8165  152.5900 H   0  0  0  0  0  0  0  0  0  0  0  0
  146.8995  138.8563  154.0764 H   0  0  0  0  0  0  0  0  0  0  0  0
  146.6602  140.5082  153.5274 H   0  0  0  0  0  0  0  0  0  0  0  0
  146.0297  139.5920  151.4794 H   0  0  0  0  0  0  0  0  0  0  0  0
  147.7276  139.2325  151.2761 H   0  0  0  0  0  0  0  0  0  0  0  0
  145.1627  137.5794  150.3512 H   0  0  0  0  0  0  0  0  0  0  0  0
  146.8275  137.3768  149.8402 H   0  0  0  0  0  0  0  0  0  0  0  0
  145.5788  135.2379  149.6402 H   0  0  0  0  0  0  0  0  0  0  0  0
  146.9184  135.0995  150.7529 H   0  0  0  0  0  0  0  0  0  0  0  0
  143.9952  135.5335  151.5105 H   0  0  0  0  0  0  0  0  0  0  0  0
  145.7906  133.0976  151.9517 H   0  0  0  0  0  0  0  0  0  0  0  0
  144.4609  133.2046  150.8011 H   0  0  0  0  0  0  0  0  0  0  0  0
  144.1353  133.2722  152.5289 H   0  0  0  0  0  0  0  0  0  0  0  0
  144.7500  135.4073  153.8566 H   0  0  0  0  0  0  0  0  0  0  0  0
  146.4089  135.2032  153.3473 H   0  0  0  0  0  0  0  0  0  0  0  0
  146.0034  137.5392  153.9844 H   0  0  0  0  0  0  0  0  0  0  0  0
  144.6676  137.6760  152.8621 H   0  0  0  0  0  0  0  0  0  0  0  0
  147.4477  137.1268  152.1150 H   0  0  0  0  0  0  0  0  0  0  0  0
  1  2  1  0  0  0  0
  1 20  1  0  0  0  0
  1 21  1  0  0  0  0
  1 22  1  0  0  0  0
  2 19  1  0  0  0  0
  2  3  2  0  0  0  0
  3  4  1  0  0  0  0
  3 23  1  0  0  0  0
  4  5  1  0  0  0  0
  4 18  2  0  0  0  0
  5  6  1  0  0  0  0
  6  7  2  0  0  0  0
  6  8  1  0  0  0  0
  8  9  1  0  0  0  0
  8 24  1  0  0  0  0
  9 10  1  0  0  0  0
  9 25  1  0  0  0  0
  9 26  1  0  0  0  0
 10 11  1  0  0  0  0
 10 27  1  0  0  0  0
 10 28  1  0  0  0  0
 11 17  1  0  0  0  0
 11 12  1  0  0  0  0
 11 41  1  0  0  0  0
 12 13  1  0  0  0  0
 12 29  1  0  0  0  0
 12 30  1  0  0  0  0
 13 14  1  0  0  0  0
 13 31  1  0  0  0  0
 13 32  1  0  0  0  0
 14 15  1  0  0  0  0
 14 16  1  0  0  0  0
 14 33  1  0  0  0  0
 15 34  1  0  0  0  0
 15 35  1  0  0  0  0
 15 36  1  0  0  0  0
 16 17  1  0  0  0  0
 16 37  1  0  0  0  0
 16 38  1  0  0  0  0
 17 39  1  0  0  0  0
 17 40  1  0  0  0  0
 18 19  1  0  0  0  0
M  CHG  1   5  -1
M  CHG  1  11   1
M  END
> <s_m_source_file>
AV-unprocessed.smi

> <i_m_source_file_index>
2090

> <i_lp_mmshare_version>
43012

> <i_f3d_flags>
0

> <s_epik_input>
W0NIM11jMVtjSF1jKG5vMSlbTkhdQyg9TylbTkhdW0NIMl1bQ0gyXU4yW0NIMl1bQ0gyXVtDSF0oW0NIM10pW0NIMl1bQ0gyXTI=

> <s_epik_cmdline>
J2VwaWtfcHl0aG9uJywgJy1waCcsICc3LjAnLCAnLXRuJywgJzgnLCAnLW1hJywgJzIwMCcsICctbWV0YWxfYmluZGluZycsICctaW1hZScsICc8aW5maWxlLm1hZT4nLCAnLW9tYWUnLCAnPG91dGZpbGUubWFlPic=

> <r_epik_Ionization_Penalty>
6.22503

> <r_epik_Ionization_Penalty_Charging>
6.22494

> <r_epik_Ionization_Penalty_Neutral>
9.3589e-05

> <r_epik_State_Penalty>
6.22491

> <r_epik_Charging_Adjusted_Penalty>
12.4498

> <i_epik_Tot_Q>
0

> <i_epik_Tot_abs_Q>
2

> <r_epik_Metal_State_Penalty>
2.16853

> <b_epik_Metal_Only>
1

> <s_lp_Force_Field>
OPLS_2005

> <r_lp_Energy>
5.4778

> <b_lp_Chiralities_Consistent>
1

> <s_lp_Variant>
AV-unprocessed.smi:2090-3

> <Gold.Version>
5.8.1

> <Gold.Id.Protein>
6NUR|6NUR_protein|mol2

> <Gold.PLP.Fitness>
46.6045

> <Gold.PLP.PLP>
-33.0559

> <Gold.PLP.part.hbond>
-4.7790

> <Gold.PLP.part.metal>
0.0000

> <Gold.PLP.part.buried>
-0.2885

> <Gold.PLP.part.nonpolar>
-28.6689

> <Gold.PLP.part.repulsive>
0.3202

> <Gold.PLP.ligand.clash>
0.0000

> <Gold.PLP.ligand.torsion>
0.7442

> <Gold.PLP.Chemscore.Hbond>
5.0000

> <Gold.PLP.Chemscore.CHOScore>
0.0000

> <Gold.PLP.Chemscore.Metal>
0.0000

> <Gold.Chemscore.Hbonds>
donor molecule, donor type, donor heavy atom, donor atom, acceptor molecule, acceptor atom, score
      L1  H     8    24       P1  7957  0.94
      L1  H    11    41       P1  7948  2.00
      P1  H  7989  7998       L1     5  0.66
      P1  H  7997  8008       L1    19  0.35

> <Gold.PLP.Chemscore.Internal.Correction>
0.0369

> <Gold.Rescore>
     Score         DG    S(hbond)    S(metal)    S(lipo)     H(rot)  DE(clash)    DE(int)     intcor
     14.99     -19.78       2.94        0.00      71.88       1.54       2.67       2.11       ----

> <Gold.Chemscore.Fitness>
14.9939

> <Gold.Chemscore.DG>
-19.7751

> <Gold.Chemscore.ZeroCoef>
-5.4800

> <Gold.Chemscore.Hbond>
2.9432

> <Gold.Chemscore.Metal>
0.0000

> <Gold.Chemscore.Lipo>
71.8761

> <Gold.Chemscore.Internal_Hbond>
0.0000

> <Gold.Chemscore.DEClash>
2.6737

> <Gold.Chemscore.DEInternal>
2.1076

> <Gold.Chemscore.Rot>
1.5409

> <Gold.Chemscore.Internal.Correction>
   9.000000E+99

> <Gold.Chemscore.Hbonds>
donor molecule, donor type, donor heavy atom, donor atom, acceptor molecule, acceptor atom, score
      L1  H     8    24       P1  7957  0.90
      L1  H    11    41       P1  7948  1.00
      P1  H  7989  7998       L1     5  0.08
      P1  H  7997  8008       L1    19  0.33

> <Gold.Chemscore.Hbond.Weighted>
-9.8302

> <Gold.Chemscore.Metal.Weighted>
-0.0000

> <Gold.Chemscore.Lipo.Weighted>
-8.4095

> <Gold.Chemscore.Internal_Hbond.Weighted>
0.0000

> <Gold.Chemscore.DEClash.Weighted>
2.6737

> <Gold.Chemscore.DEInternal.Weighted>
2.1076

> <Gold.Chemscore.Rot.Weighted>
3.9446

> <Gold.Chemscore.Internal.Correction.Weighted>
   9.000000E+99

> <Gold.Protein.RotatedTorsions>
[ 6907 6896 6895 6894 ] final   91.13 input  -60.11 | X-H torsion
[ 7974 7965 7964 7962 ] final -121.90 input  175.53 | X-H torsion
[ 8008 7997 7996 7995 ] final  -71.51 input   59.86 | X-H torsion
[ 10167 10162 10161 10158 ] final   45.43 input  -65.29 | X-H torsion
[ 10718 10713 10712 10709 ] final   -5.16 input   66.30 | X-H torsion
[ 10763 10752 10751 10750 ] final   70.22 input  -60.55 | X-H torsion
[ 11005 11000 10999 10996 ] final   80.21 input  -57.11 | X-H torsion

> <Gold.Protein.ActiveResidues>
 VAL166  LYS551  ARG553  GLY616  TRP617  ASP618  TYR619  PRO620  LYS621  CYS622 
 ASP623  PHE694  ASN695  SER759  ASP760  ASP761  ALA762  ILE779  LEU786  VAL792 
 PHE793  MET794  SER795  GLU796  ALA797  LYS798  CYS799  TRP800  GLU811  SER814 

> <Gold.Protein.RotatedAtoms>
  152.5448  134.1705  159.8594 H   0  0  0  0  0  0  0  0  0  0  0  0  # atno 6907 bound_to 6896
  151.1715  133.4774  159.2601 H   0  0  0  0  0  0  0  0  0  0  0  0  # atno 6908 bound_to 6896
  151.1270  135.0121  159.8620 H   0  0  0  0  0  0  0  0  0  0  0  0  # atno 6909 bound_to 6896
  145.0353  140.8101  143.4299 H   0  0  0  0  0  0  0  0  0  0  0  0  # atno 7974 bound_to 7965
  154.5093  140.0814  156.7958 H   0  0  0  0  0  0  0  0  0  0  0  0  # atno 8008 bound_to 7997
  155.3821  140.3428  155.4229 H   0  0  0  0  0  0  0  0  0  0  0  0  # atno 8009 bound_to 7997
  156.1554  140.1571  156.8689 H   0  0  0  0  0  0  0  0  0  0  0  0  # atno 8010 bound_to 7997
  140.3242  144.2668  150.6178 H   0  0  0  0  0  0  0  0  0  0  0  0  # atno 10167 bound_to 10162
  156.7506  130.5238  149.5805 H   0  0  0  0  0  0  0  0  0  0  0  0  # atno 10718 bound_to 10713
  153.0330  135.5182  154.7408 H   0  0  0  0  0  0  0  0  0  0  0  0  # atno 10763 bound_to 10752
  154.6408  135.2912  155.0108 H   0  0  0  0  0  0  0  0  0  0  0  0  # atno 10764 bound_to 10752
  154.1026  135.6634  153.4923 H   0  0  0  0  0  0  0  0  0  0  0  0  # atno 10765 bound_to 10752
  139.9143  134.7902  156.1879 H   0  0  0  0  0  0  0  0  0  0  0  0  # atno 11005 bound_to 11000
  145.1717  139.2400  143.5338 LP  0  0  0  0  0  0  0  0  0  0  0  0  # atno 17320 bound_to 7965
  146.3503  140.1470  142.8593 LP  0  0  0  0  0  0  0  0  0  0  0  0  # atno 17321 bound_to 7965
  140.5456  143.2215  151.8013 LP  0  0  0  0  0  0  0  0  0  0  0  0  # atno 17342 bound_to 10162
  139.4868  144.4544  151.9616 LP  0  0  0  0  0  0  0  0  0  0  0  0  # atno 17343 bound_to 10162
  156.1404  130.6240  151.0458 LP  0  0  0  0  0  0  0  0  0  0  0  0  # atno 17370 bound_to 10713
  157.6778  131.0846  150.7448 LP  0  0  0  0  0  0  0  0  0  0  0  0  # atno 17371 bound_to 10713
  141.0602  133.6845  156.1937 LP  0  0  0  0  0  0  0  0  0  0  0  0  # atno 17394 bound_to 11000
  140.6673  134.4904  157.5586 LP  0  0  0  0  0  0  0  0  0  0  0  0  # atno 17395 bound_to 11000

$$$$
