AV-unprocessed.smi:1606|AV-procd|sdf|6461|dock2
  -GOLD-   22720 7113D 1   1.00000     0.00000
 Structure written by MMmdl.
 35 36  0  0  0  0  0  0  0  0  1 V2000
  153.4208  139.1494  158.2255 O   0  0  0  0  0  0  0  0  0  0  0  0
  152.4035  139.8290  158.3656 C   0  0  0  0  0  0  0  0  0  0  0  0
  152.1898  140.6210  159.4273 N   0  0  0  0  0  0  0  0  0  0  0  0
  153.1359  140.8348  160.5178 C   0  0  0  0  0  0  0  0  0  0  0  0
  153.5969  142.3021  160.6394 C   0  0  0  0  0  0  0  0  0  0  0  0
  152.6960  143.2913  159.9170 C   0  0  0  0  0  0  0  0  0  0  0  0
  152.0214  144.3013  160.6352 C   0  0  0  0  0  0  0  0  0  0  0  0
  151.1861  145.1861  159.9258 C   0  0  0  0  0  0  0  0  0  0  0  0
  151.0559  145.0264  158.5329 C   0  0  0  0  0  0  0  0  0  0  0  0
  151.7709  143.9854  157.9080 C   0  0  0  0  0  0  0  0  0  0  0  0
  152.5750  143.1331  158.5788 N   0  0  0  0  0  0  0  0  0  0  0  0
  151.3061  139.8152  157.2940 C   0  0  0  0  0  0  0  0  0  0  0  0
  151.6699  138.8880  156.1205 C   0  0  0  0  0  0  0  0  0  0  0  0
  150.6004  138.9698  155.0192 C   0  0  0  0  0  0  0  0  0  0  0  0
  150.4531  140.3168  154.5820 O   0  0  0  0  0  0  0  0  0  0  0  0
  150.0121  141.1922  155.6146 C   0  0  0  0  0  0  0  0  0  0  0  0
  151.0482  141.2311  156.7495 C   0  0  0  0  0  0  0  0  0  0  0  0
  151.3272  141.1447  159.4621 H   0  0  0  0  0  0  0  0  0  0  0  0
  152.6437  140.5329  161.4425 H   0  0  0  0  0  0  0  0  0  0  0  0
  153.9976  140.1761  160.4001 H   0  0  0  0  0  0  0  0  0  0  0  0
  153.6530  142.5790  161.6927 H   0  0  0  0  0  0  0  0  0  0  0  0
  154.6121  142.4032  160.2524 H   0  0  0  0  0  0  0  0  0  0  0  0
  152.1378  144.3953  161.7049 H   0  0  0  0  0  0  0  0  0  0  0  0
  150.6534  145.9715  160.4412 H   0  0  0  0  0  0  0  0  0  0  0  0
  150.4233  145.6856  157.9570 H   0  0  0  0  0  0  0  0  0  0  0  0
  151.6948  143.8321  156.8418 H   0  0  0  0  0  0  0  0  0  0  0  0
  150.3825  139.4477  157.7453 H   0  0  0  0  0  0  0  0  0  0  0  0
  152.6364  139.1679  155.6981 H   0  0  0  0  0  0  0  0  0  0  0  0
  151.7668  137.8582  156.4664 H   0  0  0  0  0  0  0  0  0  0  0  0
  150.8923  138.3543  154.1683 H   0  0  0  0  0  0  0  0  0  0  0  0
  149.6435  138.5859  155.3765 H   0  0  0  0  0  0  0  0  0  0  0  0
  149.8778  142.1899  155.1967 H   0  0  0  0  0  0  0  0  0  0  0  0
  149.0384  140.8702  155.9871 H   0  0  0  0  0  0  0  0  0  0  0  0
  150.6966  141.8861  157.5479 H   0  0  0  0  0  0  0  0  0  0  0  0
  151.9743  141.6680  156.3731 H   0  0  0  0  0  0  0  0  0  0  0  0
  1  2  2  0  0  0  0
  2  3  1  0  0  0  0
  2 12  1  0  0  0  0
  3  4  1  0  0  0  0
  3 18  1  0  0  0  0
  4  5  1  0  0  0  0
  4 19  1  0  0  0  0
  4 20  1  0  0  0  0
  5  6  1  0  0  0  0
  5 21  1  0  0  0  0
  5 22  1  0  0  0  0
  6 11  1  0  0  0  0
  6  7  2  0  0  0  0
  7  8  1  0  0  0  0
  7 23  1  0  0  0  0
  8  9  2  0  0  0  0
  8 24  1  0  0  0  0
  9 10  1  0  0  0  0
  9 25  1  0  0  0  0
 10 11  2  0  0  0  0
 10 26  1  0  0  0  0
 12 17  1  0  0  0  0
 12 13  1  0  0  0  0
 12 27  1  0  0  0  0
 13 14  1  0  0  0  0
 13 28  1  0  0  0  0
 13 29  1  0  0  0  0
 14 15  1  0  0  0  0
 14 30  1  0  0  0  0
 14 31  1  0  0  0  0
 15 16  1  0  0  0  0
 16 17  1  0  0  0  0
 16 32  1  0  0  0  0
 16 33  1  0  0  0  0
 17 34  1  0  0  0  0
 17 35  1  0  0  0  0
M  END
> <s_m_source_file>
AV-unprocessed.smi

> <i_m_source_file_index>
1606

> <i_lp_mmshare_version>
43012

> <i_f3d_flags>
0

> <s_epik_input>
W0NIMl0xW0NIMl1PW0NIMl1bQ0gyXVtDSF0xQyg9TylbTkhdW0NIMl1bQ0gyXWMyW2NIXVtjSF1bY0hdW2NIXW4y

> <s_epik_cmdline>
J2VwaWtfcHl0aG9uJywgJy1waCcsICc3LjAnLCAnLXRuJywgJzgnLCAnLW1hJywgJzIwMCcsICctbWV0YWxfYmluZGluZycsICctaW1hZScsICc8aW5maWxlLm1hZT4nLCAnLW9tYWUnLCAnPG91dGZpbGUubWFlPic=

> <r_epik_Ionization_Penalty>
0.0277532

> <r_epik_Ionization_Penalty_Charging>
0

> <r_epik_Ionization_Penalty_Neutral>
0.0277532

> <r_epik_State_Penalty>
0.022734

> <r_epik_Charging_Adjusted_Penalty>
0.022734

> <i_epik_Tot_Q>
0

> <i_epik_Tot_abs_Q>
0

> <r_epik_Metal_State_Penalty>
0.0217131

> <b_epik_Metal_Only>
0

> <s_lp_Force_Field>
OPLS_2005

> <r_lp_Energy>
8.37046

> <b_lp_Chiralities_Consistent>
1

> <s_lp_Variant>
AV-unprocessed.smi:1606-1

> <Gold.Version>
5.8.1

> <Gold.Id.Protein>
6NUR|6NUR_protein|mol2

> <Gold.PLP.Fitness>
47.4529

> <Gold.PLP.PLP>
-42.2068

> <Gold.PLP.part.hbond>
-1.8817

> <Gold.PLP.part.metal>
0.0000

> <Gold.PLP.part.buried>
-5.6054

> <Gold.PLP.part.nonpolar>
-34.9998

> <Gold.PLP.part.repulsive>
0.2515

> <Gold.PLP.ligand.clash>
0.0000

> <Gold.PLP.ligand.torsion>
0.3113

> <Gold.PLP.Chemscore.Hbond>
1.9520

> <Gold.PLP.Chemscore.CHOScore>
0.0000

> <Gold.PLP.Chemscore.Metal>
0.0000

> <Gold.Chemscore.Hbonds>
donor molecule, donor type, donor heavy atom, donor atom, acceptor molecule, acceptor atom, score
      P1  H  7989  7998       L1    15  1.00
      P1  H  7997  8008       L1     1  1.00

> <Gold.PLP.Chemscore.Internal.Correction>
0.0128

> <Gold.Rescore>
     Score         DG    S(hbond)    S(metal)    S(lipo)     H(rot)  DE(clash)    DE(int)     intcor
     18.32     -20.42       1.71        0.00     110.97       1.47       0.04       2.06       ----

> <Gold.Chemscore.Fitness>
18.3198

> <Gold.Chemscore.DG>
-20.4160

> <Gold.Chemscore.ZeroCoef>
-5.4800

> <Gold.Chemscore.Hbond>
1.7094

> <Gold.Chemscore.Metal>
0.0000

> <Gold.Chemscore.Lipo>
110.9685

> <Gold.Chemscore.Internal_Hbond>
0.0000

> <Gold.Chemscore.DEClash>
0.0363

> <Gold.Chemscore.DEInternal>
2.0599

> <Gold.Chemscore.Rot>
1.4674

> <Gold.Chemscore.Internal.Correction>
   9.000000E+99

> <Gold.Chemscore.Hbonds>
donor molecule, donor type, donor heavy atom, donor atom, acceptor molecule, acceptor atom, score
      P1  H  7989  7998       L1    15  0.87
      P1  H  7997  8008       L1     1  0.85

> <Gold.Chemscore.Hbond.Weighted>
-5.7094

> <Gold.Chemscore.Metal.Weighted>
-0.0000

> <Gold.Chemscore.Lipo.Weighted>
-12.9833

> <Gold.Chemscore.Internal_Hbond.Weighted>
0.0000

> <Gold.Chemscore.DEClash.Weighted>
0.0363

> <Gold.Chemscore.DEInternal.Weighted>
2.0599

> <Gold.Chemscore.Rot.Weighted>
3.7567

> <Gold.Chemscore.Internal.Correction.Weighted>
   9.000000E+99

> <Gold.Protein.RotatedTorsions>
[ 6907 6896 6895 6894 ] final  109.28 input  -60.11 | X-H torsion
[ 7974 7965 7964 7962 ] final  102.68 input  175.53 | X-H torsion
[ 8008 7997 7996 7995 ] final -110.27 input   59.86 | X-H torsion
[ 10167 10162 10161 10158 ] final -165.58 input  -65.29 | X-H torsion
[ 10718 10713 10712 10709 ] final   32.49 input   66.30 | X-H torsion
[ 10763 10752 10751 10750 ] final   88.60 input  -60.55 | X-H torsion
[ 11005 11000 10999 10996 ] final  -32.39 input  -57.11 | X-H torsion

> <Gold.Protein.ActiveResidues>
 VAL166  LYS551  ARG553  GLY616  TRP617  ASP618  TYR619  PRO620  LYS621  CYS622 
 ASP623  PHE694  ASN695  SER759  ASP760  ASP761  ALA762  ILE779  LEU786  VAL792 
 PHE793  MET794  SER795  GLU796  ALA797  LYS798  CYS799  TRP800  GLU811  SER814 

> <Gold.Protein.RotatedAtoms>
  152.5074  133.8967  159.7420 H   0  0  0  0  0  0  0  0  0  0  0  0  # atno 6907 bound_to 6896
  150.9392  133.6667  159.2801 H   0  0  0  0  0  0  0  0  0  0  0  0  # atno 6908 bound_to 6896
  151.3984  135.0972  159.9601 H   0  0  0  0  0  0  0  0  0  0  0  0  # atno 6909 bound_to 6896
  145.3559  139.2428  143.3533 H   0  0  0  0  0  0  0  0  0  0  0  0  # atno 7974 bound_to 7965
  154.9720  140.0397  157.2239 H   0  0  0  0  0  0  0  0  0  0  0  0  # atno 8008 bound_to 7997
  154.7792  140.2816  155.6054 H   0  0  0  0  0  0  0  0  0  0  0  0  # atno 8009 bound_to 7997
  156.2933  140.2595  156.2614 H   0  0  0  0  0  0  0  0  0  0  0  0  # atno 8010 bound_to 7997
  139.6172  144.0696  152.1899 H   0  0  0  0  0  0  0  0  0  0  0  0  # atno 10167 bound_to 10162
  157.2858  130.7278  149.6582 H   0  0  0  0  0  0  0  0  0  0  0  0  # atno 10718 bound_to 10713
  153.1785  135.4501  154.9997 H   0  0  0  0  0  0  0  0  0  0  0  0  # atno 10763 bound_to 10752
  154.8014  135.3257  154.7542 H   0  0  0  0  0  0  0  0  0  0  0  0  # atno 10764 bound_to 10752
  153.8009  135.6962  153.4911 H   0  0  0  0  0  0  0  0  0  0  0  0  # atno 10765 bound_to 10752
  140.9548  133.7199  156.1276 H   0  0  0  0  0  0  0  0  0  0  0  0  # atno 11005 bound_to 11000
  146.2948  140.4184  142.8726 LP  0  0  0  0  0  0  0  0  0  0  0  0  # atno 17320 bound_to 7965
  144.8682  140.7236  143.6063 LP  0  0  0  0  0  0  0  0  0  0  0  0  # atno 17321 bound_to 7965
  140.0329  144.6067  150.7473 LP  0  0  0  0  0  0  0  0  0  0  0  0  # atno 17342 bound_to 10162
  140.7359  143.2746  151.3781 LP  0  0  0  0  0  0  0  0  0  0  0  0  # atno 17343 bound_to 10162
  155.9665  130.4324  150.4961 LP  0  0  0  0  0  0  0  0  0  0  0  0  # atno 17370 bound_to 10713
  157.2914  131.0627  151.2131 LP  0  0  0  0  0  0  0  0  0  0  0  0  # atno 17371 bound_to 10713
  140.7552  134.4001  157.5535 LP  0  0  0  0  0  0  0  0  0  0  0  0  # atno 17394 bound_to 11000
  139.8858  134.8925  156.2618 LP  0  0  0  0  0  0  0  0  0  0  0  0  # atno 17395 bound_to 11000

$$$$
