AV-unprocessed.smi:1475|AV-procd|sdf|5978|dock4
  -GOLD-   22720 6 73D 1   1.00000     0.00000
 Structure written by MMmdl.
 50 51  0  0  0  0  0  0  0  0  2 V2000
  151.4143  144.6518  157.9864 C   0  0  0  0  0  0  0  0  0  0  0  0
  151.8276  143.2995  158.4875 C   0  0  0  0  0  0  0  0  0  0  0  0
  152.8049  142.9864  159.4731 C   0  0  0  0  0  0  0  0  0  0  0  0
  152.7864  141.6221  159.5456 C   0  0  0  0  0  0  0  0  0  0  0  0
  153.5890  140.6932  160.3963 C   0  0  0  0  0  0  0  0  0  0  0  0
  151.8360  141.1849  158.6398 N   0  0  0  0  0  0  0  0  0  0  0  0
  151.4158  139.8269  158.3331 C   0  0  0  0  0  0  0  0  0  0  0  0
  151.5715  139.5288  156.8413 C   0  0  0  0  0  0  0  0  0  0  0  0
  152.4345  140.1086  156.1824 O   0  0  0  0  0  0  0  0  0  0  0  0
  150.7323  138.6197  156.3211 N   0  0  0  0  0  0  0  0  0  0  0  0
  150.7384  138.1702  154.9344 C   0  0  0  0  0  0  0  0  0  0  0  0
  151.2953  136.7384  154.7995 C   0  0  0  0  0  0  0  0  0  0  0  0
  150.2253  135.7226  154.6336 N   0  3  1  0  0  0  0  0  0  0  0  0
  150.7772  134.3544  154.4560 C   0  0  0  0  0  0  0  0  0  0  0  0
  149.6701  133.3372  154.1168 C   0  0  1  0  0  0  0  0  0  0  0  0
  150.2420  131.9228  153.9438 C   0  0  0  0  0  0  0  0  0  0  0  0
  148.5696  133.3660  155.1926 C   0  0  0  0  0  0  0  0  0  0  0  0
  148.0390  134.7921  155.4275 C   0  0  2  0  0  0  0  0  0  0  0  0
  147.1349  135.2911  154.2863 C   0  0  0  0  0  0  0  0  0  0  0  0
  149.2037  135.7601  155.7147 C   0  0  0  0  0  0  0  0  0  0  0  0
  151.2497  142.2168  157.9934 N   0  0  0  0  0  0  0  0  0  0  0  0
  151.9963  145.4423  158.4604 H   0  0  0  0  0  0  0  0  0  0  0  0
  150.3618  144.8434  158.1960 H   0  0  0  0  0  0  0  0  0  0  0  0
  151.5610  144.7332  156.9092 H   0  0  0  0  0  0  0  0  0  0  0  0
  153.4268  143.6621  160.0414 H   0  0  0  0  0  0  0  0  0  0  0  0
  154.2488  141.2483  161.0631 H   0  0  0  0  0  0  0  0  0  0  0  0
  154.2079  140.0399  159.7811 H   0  0  0  0  0  0  0  0  0  0  0  0
  152.9412  140.0691  161.0118 H   0  0  0  0  0  0  0  0  0  0  0  0
  152.0037  139.1231  158.9251 H   0  0  0  0  0  0  0  0  0  0  0  0
  150.3753  139.6962  158.6316 H   0  0  0  0  0  0  0  0  0  0  0  0
  150.0618  138.1875  156.9411 H   0  0  0  0  0  0  0  0  0  0  0  0
  149.7256  138.2481  154.5389 H   0  0  0  0  0  0  0  0  0  0  0  0
  151.3516  138.8631  154.3578 H   0  0  0  0  0  0  0  0  0  0  0  0
  151.9504  136.7147  153.9274 H   0  0  0  0  0  0  0  0  0  0  0  0
  151.9154  136.4721  155.6568 H   0  0  0  0  0  0  0  0  0  0  0  0
  151.5134  134.3601  153.6510 H   0  0  0  0  0  0  0  0  0  0  0  0
  151.3043  134.0558  155.3641 H   0  0  0  0  0  0  0  0  0  0  0  0
  149.2273  133.6246  153.1624 H   0  0  0  0  0  0  0  0  0  0  0  0
  150.7089  131.5679  154.8633 H   0  0  0  0  0  0  0  0  0  0  0  0
  150.9954  131.8957  153.1562 H   0  0  0  0  0  0  0  0  0  0  0  0
  149.4588  131.2136  153.6741 H   0  0  0  0  0  0  0  0  0  0  0  0
  147.7508  132.6997  154.9179 H   0  0  0  0  0  0  0  0  0  0  0  0
  148.9738  132.9799  156.1297 H   0  0  0  0  0  0  0  0  0  0  0  0
  147.4135  134.7603  156.3205 H   0  0  0  0  0  0  0  0  0  0  0  0
  147.6788  135.3921  153.3472 H   0  0  0  0  0  0  0  0  0  0  0  0
  146.7088  136.2662  154.5244 H   0  0  0  0  0  0  0  0  0  0  0  0
  146.3045  134.6052  154.1159 H   0  0  0  0  0  0  0  0  0  0  0  0
  149.6781  135.4962  156.6614 H   0  0  0  0  0  0  0  0  0  0  0  0
  148.8063  136.7663  155.8407 H   0  0  0  0  0  0  0  0  0  0  0  0
  149.7496  135.9485  153.7718 H   0  0  0  0  0  0  0  0  0  0  0  0
  1  2  1  0  0  0  0
  1 22  1  0  0  0  0
  1 23  1  0  0  0  0
  1 24  1  0  0  0  0
  2 21  2  0  0  0  0
  2  3  1  0  0  0  0
  3  4  2  0  0  0  0
  3 25  1  0  0  0  0
  4  5  1  0  0  0  0
  4  6  1  0  0  0  0
  5 26  1  0  0  0  0
  5 27  1  0  0  0  0
  5 28  1  0  0  0  0
  6  7  1  0  0  0  0
  6 21  1  0  0  0  0
  7  8  1  0  0  0  0
  7 29  1  0  0  0  0
  7 30  1  0  0  0  0
  8  9  2  0  0  0  0
  8 10  1  0  0  0  0
 10 11  1  0  0  0  0
 10 31  1  0  0  0  0
 11 12  1  0  0  0  0
 11 32  1  0  0  0  0
 11 33  1  0  0  0  0
 12 13  1  0  0  0  0
 12 34  1  0  0  0  0
 12 35  1  0  0  0  0
 13 20  1  0  0  0  0
 13 14  1  0  0  0  0
 13 50  1  0  0  0  0
 14 15  1  0  0  0  0
 14 36  1  0  0  0  0
 14 37  1  0  0  0  0
 15 16  1  0  0  0  0
 15 17  1  0  0  0  0
 15 38  1  0  0  0  0
 16 39  1  0  0  0  0
 16 40  1  0  0  0  0
 16 41  1  0  0  0  0
 17 18  1  0  0  0  0
 17 42  1  0  0  0  0
 17 43  1  0  0  0  0
 18 19  1  0  0  0  0
 18 20  1  0  0  0  0
 18 44  1  0  0  0  0
 19 45  1  0  0  0  0
 19 46  1  0  0  0  0
 19 47  1  0  0  0  0
 20 48  1  0  0  0  0
 20 49  1  0  0  0  0
M  CHG  1  13   1
M  END
> <s_m_source_file>
AV-unprocessed.smi

> <i_m_source_file_index>
1475

> <i_lp_mmshare_version>
43012

> <i_f3d_flags>
0

> <s_epik_input>
W0NIM11jMVtjSF1jKFtDSDNdKW4objEpW0NIMl1DKD1PKVtOSF1bQ0gyXVtDSDJdTjJbQ0gyXVtDQEBIXShbQ0gzXSlbQ0gyXVtDQEBIXShbQ0gzXSlbQ0gyXTI=

> <s_epik_cmdline>
J2VwaWtfcHl0aG9uJywgJy1waCcsICc3LjAnLCAnLXRuJywgJzgnLCAnLW1hJywgJzIwMCcsICctbWV0YWxfYmluZGluZycsICctaW1hZScsICc8aW5maWxlLm1hZT4nLCAnLW9tYWUnLCAnPG91dGZpbGUubWFlPic=

> <r_lp_tautomer_probability>
1

> <r_epik_Ionization_Penalty>
0.00206431

> <r_epik_Ionization_Penalty_Charging>
0.00187095

> <r_epik_Ionization_Penalty_Neutral>
0.000193364

> <r_epik_State_Penalty>
-0

> <r_epik_Charging_Adjusted_Penalty>
0.00187095

> <i_epik_Tot_Q>
1

> <i_epik_Tot_abs_Q>
1

> <r_epik_Metal_State_Penalty>
-0

> <b_epik_Metal_Only>
0

> <s_lp_Force_Field>
OPLS_2005

> <r_lp_Energy>
16.2356

> <b_lp_Chiralities_Consistent>
1

> <s_lp_Variant>
AV-unprocessed.smi:1475-3

> <Gold.Version>
5.8.1

> <Gold.Id.Protein>
6NUR|6NUR_protein|mol2

> <Gold.PLP.Fitness>
45.2704

> <Gold.PLP.PLP>
-37.7621

> <Gold.PLP.part.hbond>
-2.0000

> <Gold.PLP.part.metal>
0.0000

> <Gold.PLP.part.buried>
-3.6934

> <Gold.PLP.part.nonpolar>
-32.1074

> <Gold.PLP.part.repulsive>
0.0818

> <Gold.PLP.ligand.clash>
0.0000

> <Gold.PLP.ligand.torsion>
0.7595

> <Gold.PLP.Chemscore.Hbond>
3.0000

> <Gold.PLP.Chemscore.CHOScore>
0.0000

> <Gold.PLP.Chemscore.Metal>
0.0000

> <Gold.Chemscore.Hbonds>
donor molecule, donor type, donor heavy atom, donor atom, acceptor molecule, acceptor atom, score
      L1  H    13    50       P1  7948  1.82
      P1  H  7997  8009       L1     9  1.00

> <Gold.PLP.Chemscore.Internal.Correction>
0.0273

> <Gold.Rescore>
     Score         DG    S(hbond)    S(metal)    S(lipo)     H(rot)  DE(clash)    DE(int)     intcor
     18.27     -19.08       1.89        0.00      98.12       1.64       0.01       0.81       ----

> <Gold.Chemscore.Fitness>
18.2671

> <Gold.Chemscore.DG>
-19.0847

> <Gold.Chemscore.ZeroCoef>
-5.4800

> <Gold.Chemscore.Hbond>
1.8930

> <Gold.Chemscore.Metal>
0.0000

> <Gold.Chemscore.Lipo>
98.1207

> <Gold.Chemscore.Internal_Hbond>
0.0000

> <Gold.Chemscore.DEClash>
0.0098

> <Gold.Chemscore.DEInternal>
0.8077

> <Gold.Chemscore.Rot>
1.6399

> <Gold.Chemscore.Internal.Correction>
   9.000000E+99

> <Gold.Chemscore.Hbonds>
donor molecule, donor type, donor heavy atom, donor atom, acceptor molecule, acceptor atom, score
      L1  H    13    50       P1  7948  0.19
      P1  H  7997  8009       L1     9  0.99

> <Gold.Chemscore.Hbond.Weighted>
-6.3227

> <Gold.Chemscore.Metal.Weighted>
-0.0000

> <Gold.Chemscore.Lipo.Weighted>
-11.4801

> <Gold.Chemscore.Internal_Hbond.Weighted>
0.0000

> <Gold.Chemscore.DEClash.Weighted>
0.0098

> <Gold.Chemscore.DEInternal.Weighted>
0.8077

> <Gold.Chemscore.Rot.Weighted>
4.1982

> <Gold.Chemscore.Internal.Correction.Weighted>
   9.000000E+99

> <Gold.Protein.RotatedTorsions>
[ 6907 6896 6895 6894 ] final -135.90 input  -60.11 | X-H torsion
[ 7974 7965 7964 7962 ] final -122.51 input  175.53 | X-H torsion
[ 8008 7997 7996 7995 ] final -163.35 input   59.86 | X-H torsion
[ 10167 10162 10161 10158 ] final  -54.38 input  -65.29 | X-H torsion
[ 10718 10713 10712 10709 ] final  -54.84 input   66.30 | X-H torsion
[ 10763 10752 10751 10750 ] final   81.97 input  -60.55 | X-H torsion
[ 11005 11000 10999 10996 ] final  -98.76 input  -57.11 | X-H torsion

> <Gold.Protein.ActiveResidues>
 VAL166  LYS551  ARG553  GLY616  TRP617  ASP618  TYR619  PRO620  LYS621  CYS622 
 ASP623  PHE694  ASN695  SER759  ASP760  ASP761  ALA762  ILE779  LEU786  VAL792 
 PHE793  MET794  SER795  GLU796  ALA797  LYS798  CYS799  TRP800  GLU811  SER814 

> <Gold.Protein.RotatedAtoms>
  151.0035  133.6033  159.2691 H   0  0  0  0  0  0  0  0  0  0  0  0  # atno 6907 bound_to 6896
  151.3210  135.0817  159.9315 H   0  0  0  0  0  0  0  0  0  0  0  0  # atno 6908 bound_to 6896
  152.5280  133.9683  159.7804 H   0  0  0  0  0  0  0  0  0  0  0  0  # atno 6909 bound_to 6896
  145.0287  140.8049  143.4337 H   0  0  0  0  0  0  0  0  0  0  0  0  # atno 7974 bound_to 7965
  155.8200  140.0918  157.1854 H   0  0  0  0  0  0  0  0  0  0  0  0  # atno 8008 bound_to 7997
  154.3979  140.1438  156.3549 H   0  0  0  0  0  0  0  0  0  0  0  0  # atno 8009 bound_to 7997
  155.8276  140.3444  155.5555 H   0  0  0  0  0  0  0  0  0  0  0  0  # atno 8010 bound_to 7997
  140.6434  143.2520  151.4928 H   0  0  0  0  0  0  0  0  0  0  0  0  # atno 10167 bound_to 10162
  156.1417  130.4154  150.0091 H   0  0  0  0  0  0  0  0  0  0  0  0  # atno 10718 bound_to 10713
  153.1162  135.4745  154.9120 H   0  0  0  0  0  0  0  0  0  0  0  0  # atno 10763 bound_to 10752
  154.7531  135.3111  154.8523 H   0  0  0  0  0  0  0  0  0  0  0  0  # atno 10764 bound_to 10752
  153.9099  135.6866  153.4805 H   0  0  0  0  0  0  0  0  0  0  0  0  # atno 10765 bound_to 10752
  141.1333  133.8270  157.0882 H   0  0  0  0  0  0  0  0  0  0  0  0  # atno 11005 bound_to 11000
  145.1799  139.2357  143.5298 LP  0  0  0  0  0  0  0  0  0  0  0  0  # atno 17320 bound_to 7965
  146.3495  140.1570  142.8591 LP  0  0  0  0  0  0  0  0  0  0  0  0  # atno 17321 bound_to 7965
  139.5643  144.2080  152.1741 LP  0  0  0  0  0  0  0  0  0  0  0  0  # atno 17342 bound_to 10162
  140.1357  144.5248  150.6775 LP  0  0  0  0  0  0  0  0  0  0  0  0  # atno 17343 bound_to 10162
  156.7974  130.9278  151.3646 LP  0  0  0  0  0  0  0  0  0  0  0  0  # atno 17370 bound_to 10713
  157.6582  130.8943  149.9773 LP  0  0  0  0  0  0  0  0  0  0  0  0  # atno 17371 bound_to 10713
  140.0409  134.9855  157.0959 LP  0  0  0  0  0  0  0  0  0  0  0  0  # atno 17394 bound_to 11000
  140.4137  134.1954  155.7163 LP  0  0  0  0  0  0  0  0  0  0  0  0  # atno 17395 bound_to 11000

$$$$
