AV-unprocessed.smi:408|AV-procd|sdf|2503|dock1
  -GOLD-   2262022453D 1   1.00000     0.00000
 Structure written by MMmdl.
 41 42  0  0  0  0  0  0  0  0  1 V2000
  151.7560  145.5158  159.6710 C   0  0  0  0  0  0  0  0  0  0  0  0
  151.6616  144.0700  159.1555 C   0  0  0  0  0  0  0  0  0  0  0  0
  153.0424  143.3972  159.1943 C   0  0  0  0  0  0  0  0  0  0  0  0
  151.0549  143.9851  157.7400 C   0  0  0  0  0  0  0  0  0  0  0  0
  150.9940  142.5573  157.1650 C   0  0  0  0  0  0  0  0  0  0  0  0
  150.0257  142.4602  156.0787 N   0  0  0  0  0  0  0  0  0  0  0  0
  149.9358  141.4377  155.2138 C   0  0  0  0  0  0  0  0  0  0  0  0
  150.6758  140.4536  155.2569 O   0  0  0  0  0  0  0  0  0  0  0  0
  148.8572  141.5589  154.1308 C   0  0  0  0  0  0  0  0  0  0  0  0
  147.5480  142.0143  154.7106 C   0  0  0  0  0  0  0  0  0  0  0  0
  146.9440  141.5513  155.8546 C   0  0  0  0  0  0  0  0  0  0  0  0
  145.4288  142.3559  156.1653 S   0  0  0  0  0  0  0  0  0  0  0  0
  145.6662  143.2919  154.6976 C   0  0  0  0  0  0  0  0  0  0  0  0
  144.7217  144.2642  154.2692 N   0  0  0  0  0  0  0  0  0  0  0  0
  143.7251  144.8755  154.9430 C   0  0  0  0  0  0  0  0  0  0  0  0
  143.5386  144.6203  156.1316 O   0  0  0  0  0  0  0  0  0  0  0  0
  142.8731  145.8743  154.2260 C   0  0  0  0  0  0  0  0  0  0  0  0
  142.9511  147.3174  154.6878 C   0  0  0  0  0  0  0  0  0  0  0  0
  141.7260  146.4980  154.9957 C   0  0  0  0  0  0  0  0  0  0  0  0
  146.8183  143.0237  154.0752 N   0  0  0  0  0  0  0  0  0  0  0  0
  152.3518  146.1372  159.0019 H   0  0  0  0  0  0  0  0  0  0  0  0
  152.2214  145.5501  160.6565 H   0  0  0  0  0  0  0  0  0  0  0  0
  150.7721  145.9742  159.7665 H   0  0  0  0  0  0  0  0  0  0  0  0
  151.0134  143.5143  159.8347 H   0  0  0  0  0  0  0  0  0  0  0  0
  153.7459  143.8974  158.5278 H   0  0  0  0  0  0  0  0  0  0  0  0
  152.9805  142.3522  158.8892 H   0  0  0  0  0  0  0  0  0  0  0  0
  153.4637  143.4191  160.1998 H   0  0  0  0  0  0  0  0  0  0  0  0
  150.0560  144.4238  157.7410 H   0  0  0  0  0  0  0  0  0  0  0  0
  151.6529  144.6037  157.0693 H   0  0  0  0  0  0  0  0  0  0  0  0
  151.9789  142.2399  156.8180 H   0  0  0  0  0  0  0  0  0  0  0  0
  150.6921  141.8487  157.9354 H   0  0  0  0  0  0  0  0  0  0  0  0
  149.3824  143.2312  155.9718 H   0  0  0  0  0  0  0  0  0  0  0  0
  149.1874  142.2534  153.3567 H   0  0  0  0  0  0  0  0  0  0  0  0
  148.7459  140.5885  153.6458 H   0  0  0  0  0  0  0  0  0  0  0  0
  147.2973  140.7869  156.5302 H   0  0  0  0  0  0  0  0  0  0  0  0
  144.8409  144.5746  153.3159 H   0  0  0  0  0  0  0  0  0  0  0  0
  142.7688  145.7349  153.1517 H   0  0  0  0  0  0  0  0  0  0  0  0
  143.6027  147.5674  155.5233 H   0  0  0  0  0  0  0  0  0  0  0  0
  142.8704  148.0860  153.9219 H   0  0  0  0  0  0  0  0  0  0  0  0
  140.8143  146.7017  154.4377 H   0  0  0  0  0  0  0  0  0  0  0  0
  141.5745  146.1903  156.0290 H   0  0  0  0  0  0  0  0  0  0  0  0
  1  2  1  0  0  0  0
  1 21  1  0  0  0  0
  1 22  1  0  0  0  0
  1 23  1  0  0  0  0
  2  3  1  0  0  0  0
  2  4  1  0  0  0  0
  2 24  1  0  0  0  0
  3 25  1  0  0  0  0
  3 26  1  0  0  0  0
  3 27  1  0  0  0  0
  4  5  1  0  0  0  0
  4 28  1  0  0  0  0
  4 29  1  0  0  0  0
  5  6  1  0  0  0  0
  5 30  1  0  0  0  0
  5 31  1  0  0  0  0
  6  7  1  0  0  0  0
  6 32  1  0  0  0  0
  7  8  2  0  0  0  0
  7  9  1  0  0  0  0
  9 10  1  0  0  0  0
  9 33  1  0  0  0  0
  9 34  1  0  0  0  0
 10 20  1  0  0  0  0
 10 11  2  0  0  0  0
 11 12  1  0  0  0  0
 11 35  1  0  0  0  0
 12 13  1  0  0  0  0
 13 14  1  0  0  0  0
 13 20  2  0  0  0  0
 14 15  1  0  0  0  0
 14 36  1  0  0  0  0
 15 16  2  0  0  0  0
 15 17  1  0  0  0  0
 17 19  1  0  0  0  0
 17 18  1  0  0  0  0
 17 37  1  0  0  0  0
 18 19  1  0  0  0  0
 18 38  1  0  0  0  0
 18 39  1  0  0  0  0
 19 40  1  0  0  0  0
 19 41  1  0  0  0  0
M  END
> <s_m_source_file>
AV-unprocessed.smi

> <i_m_source_file_index>
408

> <i_lp_mmshare_version>
43012

> <i_f3d_flags>
0

> <s_epik_input>
W0NIM11bQ0hdKFtDSDNdKVtDSDJdW0NIMl1bTkhdQyg9TylbQ0gyXWMxW2NIXXNjKG4xKVtOSF1DKD1PKVtDSF0yW0NIMl1bQ0gyXTI=

> <s_epik_cmdline>
J2VwaWtfcHl0aG9uJywgJy1waCcsICc3LjAnLCAnLXRuJywgJzgnLCAnLW1hJywgJzIwMCcsICctbWV0YWxfYmluZGluZycsICctaW1hZScsICc8aW5maWxlLm1hZT4nLCAnLW9tYWUnLCAnPG91dGZpbGUubWFlPic=

> <r_lp_tautomer_probability>
1

> <r_epik_Ionization_Penalty>
0.000153743

> <r_epik_Ionization_Penalty_Charging>
0

> <r_epik_Ionization_Penalty_Neutral>
0.000153743

> <r_epik_State_Penalty>
-0

> <r_epik_Charging_Adjusted_Penalty>
0

> <i_epik_Tot_Q>
0

> <i_epik_Tot_abs_Q>
0

> <r_epik_Metal_State_Penalty>
0.0946566

> <b_epik_Metal_Only>
0

> <s_lp_Force_Field>
OPLS_2005

> <r_lp_Energy>
15.0159

> <b_lp_Chiralities_Consistent>
1

> <s_lp_Variant>
AV-unprocessed.smi:408-1

> <Gold.Version>
5.8.1

> <Gold.Id.Protein>
6NUR|6NUR_protein|mol2

> <Gold.PLP.Fitness>
45.8489

> <Gold.PLP.PLP>
-41.3736

> <Gold.PLP.part.hbond>
-2.0957

> <Gold.PLP.part.metal>
0.0000

> <Gold.PLP.part.buried>
-1.6493

> <Gold.PLP.part.nonpolar>
-37.6731

> <Gold.PLP.part.repulsive>
0.7780

> <Gold.PLP.ligand.clash>
0.0000

> <Gold.PLP.ligand.torsion>
0.6516

> <Gold.PLP.Chemscore.Hbond>
1.8500

> <Gold.PLP.Chemscore.CHOScore>
0.0000

> <Gold.PLP.Chemscore.Metal>
0.0000

> <Gold.Chemscore.Hbonds>
donor molecule, donor type, donor heavy atom, donor atom, acceptor molecule, acceptor atom, score
      L1  H     6    32       P1  8028  1.00
      P1  H  7989  7998       L1     8  0.73

> <Gold.PLP.Chemscore.Internal.Correction>
0.2286

> <Gold.Rescore>
     Score         DG    S(hbond)    S(metal)    S(lipo)     H(rot)  DE(clash)    DE(int)     intcor
     13.56     -15.49       1.00        0.00     100.40       1.99       0.09       1.84       ----

> <Gold.Chemscore.Fitness>
13.5632

> <Gold.Chemscore.DG>
-15.4880

> <Gold.Chemscore.ZeroCoef>
-5.4800

> <Gold.Chemscore.Hbond>
1.0047

> <Gold.Chemscore.Metal>
0.0000

> <Gold.Chemscore.Lipo>
100.3962

> <Gold.Chemscore.Internal_Hbond>
0.0000

> <Gold.Chemscore.DEClash>
0.0897

> <Gold.Chemscore.DEInternal>
1.8352

> <Gold.Chemscore.Rot>
1.9899

> <Gold.Chemscore.Internal.Correction>
   9.000000E+99

> <Gold.Chemscore.Hbonds>
donor molecule, donor type, donor heavy atom, donor atom, acceptor molecule, acceptor atom, score
      L1  H     6    32       P1  8028  0.98
      P1  H  7989  7998       L1     8  0.08

> <Gold.Chemscore.Hbond.Weighted>
-3.3558

> <Gold.Chemscore.Metal.Weighted>
-0.0000

> <Gold.Chemscore.Lipo.Weighted>
-11.7464

> <Gold.Chemscore.Internal_Hbond.Weighted>
0.0000

> <Gold.Chemscore.DEClash.Weighted>
0.0897

> <Gold.Chemscore.DEInternal.Weighted>
1.8352

> <Gold.Chemscore.Rot.Weighted>
5.0941

> <Gold.Chemscore.Internal.Correction.Weighted>
   9.000000E+99

> <Gold.Protein.RotatedTorsions>
[ 6907 6896 6895 6894 ] final -168.53 input  -60.11 | X-H torsion
[ 7974 7965 7964 7962 ] final  -52.85 input  175.53 | X-H torsion
[ 8008 7997 7996 7995 ] final  162.20 input   59.86 | X-H torsion
[ 10167 10162 10161 10158 ] final -148.01 input  -65.29 | X-H torsion
[ 10718 10713 10712 10709 ] final  -54.82 input   66.30 | X-H torsion
[ 10763 10752 10751 10750 ] final   15.49 input  -60.55 | X-H torsion
[ 11005 11000 10999 10996 ] final  -35.94 input  -57.11 | X-H torsion

> <Gold.Protein.ActiveResidues>
 VAL166  LYS551  ARG553  GLY616  TRP617  ASP618  TYR619  PRO620  LYS621  CYS622 
 ASP623  PHE694  ASN695  SER759  ASP760  ASP761  ALA762  ILE779  LEU786  VAL792 
 PHE793  MET794  SER795  GLU796  ALA797  LYS798  CYS799  TRP800  GLU811  SER814 

> <Gold.Protein.RotatedAtoms>
  151.4771  133.3555  159.2832 H   0  0  0  0  0  0  0  0  0  0  0  0  # atno 6907 bound_to 6896
  150.8922  134.8329  159.7312 H   0  0  0  0  0  0  0  0  0  0  0  0  # atno 6908 bound_to 6896
  152.4830  134.4682  159.9679 H   0  0  0  0  0  0  0  0  0  0  0  0  # atno 6909 bound_to 6896
  145.9034  140.7976  142.9732 H   0  0  0  0  0  0  0  0  0  0  0  0  # atno 7974 bound_to 7965
  156.2048  140.1757  156.7822 H   0  0  0  0  0  0  0  0  0  0  0  0  # atno 8008 bound_to 7997
  154.5641  140.0694  156.8894 H   0  0  0  0  0  0  0  0  0  0  0  0  # atno 8009 bound_to 7997
  155.2794  140.3348  155.4262 H   0  0  0  0  0  0  0  0  0  0  0  0  # atno 8010 bound_to 7997
  139.7570  143.8434  152.2599 H   0  0  0  0  0  0  0  0  0  0  0  0  # atno 10167 bound_to 10162
  156.1419  130.4154  150.0089 H   0  0  0  0  0  0  0  0  0  0  0  0  # atno 10718 bound_to 10713
  153.1520  135.6780  153.8867 H   0  0  0  0  0  0  0  0  0  0  0  0  # atno 10763 bound_to 10752
  153.8290  135.3120  155.3418 H   0  0  0  0  0  0  0  0  0  0  0  0  # atno 10764 bound_to 10752
  154.7870  135.4857  154.0054 H   0  0  0  0  0  0  0  0  0  0  0  0  # atno 10765 bound_to 10752
  140.9835  133.7043  156.1725 H   0  0  0  0  0  0  0  0  0  0  0  0  # atno 11005 bound_to 11000
  144.6737  140.1712  143.7414 LP  0  0  0  0  0  0  0  0  0  0  0  0  # atno 17320 bound_to 7965
  145.8763  139.2299  143.1631 LP  0  0  0  0  0  0  0  0  0  0  0  0  # atno 17321 bound_to 7965
  139.8428  144.7201  150.9309 LP  0  0  0  0  0  0  0  0  0  0  0  0  # atno 17342 bound_to 10162
  140.7803  143.3968  151.1217 LP  0  0  0  0  0  0  0  0  0  0  0  0  # atno 17343 bound_to 10162
  156.7972  130.9277  151.3646 LP  0  0  0  0  0  0  0  0  0  0  0  0  # atno 17370 bound_to 10713
  157.6583  130.8943  149.9775 LP  0  0  0  0  0  0  0  0  0  0  0  0  # atno 17371 bound_to 10713
  140.7150  134.4421  157.5579 LP  0  0  0  0  0  0  0  0  0  0  0  0  # atno 17394 bound_to 11000
  139.8960  134.8669  156.2105 LP  0  0  0  0  0  0  0  0  0  0  0  0  # atno 17395 bound_to 11000

$$$$
