AV-unprocessed.smi:2337|AV-procd|sdf|9333|dock9
  -GOLD-   2272012553D 1   1.00000     0.00000
 Structure written by MMmdl.
 45 46  0  0  0  0  0  0  0  0  1 V2000
  153.4452  142.2033  159.6018 C   0  0  0  0  0  0  0  0  0  0  0  0
  152.5891  142.9765  160.4326 O   0  0  0  0  0  0  0  0  0  0  0  0
  151.6947  143.8616  159.7572 C   0  0  0  0  0  0  0  0  0  0  0  0
  150.7614  144.5881  160.7355 C   0  0  0  0  0  0  0  0  0  0  0  0
  149.5594  145.0499  160.0542 N   0  0  0  0  0  0  0  0  0  0  0  0
  148.3115  144.8487  160.4960 C   0  0  0  0  0  0  0  0  0  0  0  0
  148.0503  144.2402  161.5342 O   0  0  0  0  0  0  0  0  0  0  0  0
  147.4074  145.3975  159.6665 N   0  0  0  0  0  0  0  0  0  0  0  0
  145.9922  145.3741  159.7761 C   0  0  0  0  0  0  0  0  0  0  0  0
  145.3249  146.4876  159.2276 C   0  0  0  0  0  0  0  0  0  0  0  0
  143.9224  146.5295  159.2965 C   0  0  0  0  0  0  0  0  0  0  0  0
  143.2611  145.4440  159.9144 C   0  0  0  0  0  0  0  0  0  0  0  0
  141.7303  145.3571  160.0509 C   0  0  0  0  0  0  0  0  0  0  0  0
  141.3364  143.9953  160.6598 C   0  0  0  0  0  0  0  0  0  0  0  0
  141.0748  145.5199  158.6639 C   0  0  0  0  0  0  0  0  0  0  0  0
  141.1558  146.4593  160.9695 C   0  0  0  0  0  0  0  0  0  0  0  0
  143.9590  144.3991  160.4229 N   0  0  0  0  0  0  0  0  0  0  0  0
  145.2932  144.3664  160.3559 N   0  0  0  0  0  0  0  0  0  0  0  0
  152.5219  144.7236  158.7846 C   0  0  0  0  0  0  0  0  0  0  0  0
  151.4718  144.4471  157.7069 C   0  0  0  0  0  0  0  0  0  0  0  0
  151.0873  143.1996  158.5039 C   0  0  0  0  0  0  0  0  0  0  0  0
  154.1424  141.6466  160.2276 H   0  0  0  0  0  0  0  0  0  0  0  0
  154.0322  142.8271  158.9277 H   0  0  0  0  0  0  0  0  0  0  0  0
  152.8885  141.4761  159.0114 H   0  0  0  0  0  0  0  0  0  0  0  0
  150.4754  143.9177  161.5476 H   0  0  0  0  0  0  0  0  0  0  0  0
  151.2601  145.4348  161.2076 H   0  0  0  0  0  0  0  0  0  0  0  0
  149.6919  145.5620  159.1942 H   0  0  0  0  0  0  0  0  0  0  0  0
  147.7734  145.8829  158.8610 H   0  0  0  0  0  0  0  0  0  0  0  0
  145.8724  147.2945  158.7626 H   0  0  0  0  0  0  0  0  0  0  0  0
  143.3968  147.3748  158.8806 H   0  0  0  0  0  0  0  0  0  0  0  0
  140.2561  143.9131  160.7847 H   0  0  0  0  0  0  0  0  0  0  0  0
  141.7926  143.8541  161.6404 H   0  0  0  0  0  0  0  0  0  0  0  0
  141.6496  143.1624  160.0291 H   0  0  0  0  0  0  0  0  0  0  0  0
  141.3800  144.7302  157.9765 H   0  0  0  0  0  0  0  0  0  0  0  0
  141.3452  146.4736  158.2090 H   0  0  0  0  0  0  0  0  0  0  0  0
  139.9870  145.4838  158.7309 H   0  0  0  0  0  0  0  0  0  0  0  0
  140.0713  146.3783  161.0534 H   0  0  0  0  0  0  0  0  0  0  0  0
  141.3706  147.4573  160.5855 H   0  0  0  0  0  0  0  0  0  0  0  0
  141.5591  146.3920  161.9808 H   0  0  0  0  0  0  0  0  0  0  0  0
  152.6144  145.7739  159.0634 H   0  0  0  0  0  0  0  0  0  0  0  0
  153.4932  144.2887  158.5421 H   0  0  0  0  0  0  0  0  0  0  0  0
  150.6796  145.1970  157.6829 H   0  0  0  0  0  0  0  0  0  0  0  0
  151.8758  144.2496  156.7136 H   0  0  0  0  0  0  0  0  0  0  0  0
  151.6327  142.3136  158.1735 H   0  0  0  0  0  0  0  0  0  0  0  0
  150.0146  143.0118  158.5597 H   0  0  0  0  0  0  0  0  0  0  0  0
  1  2  1  0  0  0  0
  1 22  1  0  0  0  0
  1 23  1  0  0  0  0
  1 24  1  0  0  0  0
  2  3  1  0  0  0  0
  3 21  1  0  0  0  0
  3  4  1  0  0  0  0
  3 19  1  0  0  0  0
  4  5  1  0  0  0  0
  4 25  1  0  0  0  0
  4 26  1  0  0  0  0
  5  6  1  0  0  0  0
  5 27  1  0  0  0  0
  6  7  2  0  0  0  0
  6  8  1  0  0  0  0
  8  9  1  0  0  0  0
  8 28  1  0  0  0  0
  9 18  1  0  0  0  0
  9 10  2  0  0  0  0
 10 11  1  0  0  0  0
 10 29  1  0  0  0  0
 11 12  2  0  0  0  0
 11 30  1  0  0  0  0
 12 13  1  0  0  0  0
 12 17  1  0  0  0  0
 13 14  1  0  0  0  0
 13 15  1  0  0  0  0
 13 16  1  0  0  0  0
 14 31  1  0  0  0  0
 14 32  1  0  0  0  0
 14 33  1  0  0  0  0
 15 34  1  0  0  0  0
 15 35  1  0  0  0  0
 15 36  1  0  0  0  0
 16 37  1  0  0  0  0
 16 38  1  0  0  0  0
 16 39  1  0  0  0  0
 17 18  2  0  0  0  0
 19 20  1  0  0  0  0
 19 40  1  0  0  0  0
 19 41  1  0  0  0  0
 20 21  1  0  0  0  0
 20 42  1  0  0  0  0
 20 43  1  0  0  0  0
 21 44  1  0  0  0  0
 21 45  1  0  0  0  0
M  END
> <s_m_source_file>
AV-unprocessed.smi

> <i_m_source_file_index>
2337

> <i_lp_mmshare_version>
43012

> <i_f3d_flags>
0

> <s_epik_input>
W0NIMl0xW0NIMl1bQ0gyXUMxKE9bQ0gzXSlbQ0gyXVtOSF1DKD1PKVtOSF1jMltjSF1bY0hdYyhubjIpQyhbQ0gzXSkoW0NIM10pW0NIM10=

> <s_epik_cmdline>
J2VwaWtfcHl0aG9uJywgJy1waCcsICc3LjAnLCAnLXRuJywgJzgnLCAnLW1hJywgJzIwMCcsICctbWV0YWxfYmluZGluZycsICctaW1hZScsICc8aW5maWxlLm1hZT4nLCAnLW9tYWUnLCAnPG91dGZpbGUubWFlPic=

> <r_lp_tautomer_probability>
1

> <r_epik_Ionization_Penalty>
0.00977348

> <r_epik_Ionization_Penalty_Charging>
0

> <r_epik_Ionization_Penalty_Neutral>
0.00977348

> <r_epik_State_Penalty>
-0

> <r_epik_Charging_Adjusted_Penalty>
0

> <i_epik_Tot_Q>
0

> <i_epik_Tot_abs_Q>
0

> <r_epik_Metal_State_Penalty>
-0

> <b_epik_Metal_Only>
0

> <s_lp_Force_Field>
OPLS_2005

> <r_lp_Energy>
23.2497

> <b_lp_Chiralities_Consistent>
1

> <s_lp_Variant>
AV-unprocessed.smi:2337-1

> <Gold.Version>
5.8.1

> <Gold.Id.Protein>
6NUR|6NUR_protein|mol2

> <Gold.PLP.Fitness>
40.5782

> <Gold.PLP.PLP>
-35.9742

> <Gold.PLP.part.hbond>
-1.8988

> <Gold.PLP.part.metal>
0.0000

> <Gold.PLP.part.buried>
-5.5112

> <Gold.PLP.part.nonpolar>
-29.4948

> <Gold.PLP.part.repulsive>
0.6993

> <Gold.PLP.ligand.clash>
0.0000

> <Gold.PLP.ligand.torsion>
0.8379

> <Gold.PLP.Chemscore.Hbond>
2.0000

> <Gold.PLP.Chemscore.CHOScore>
0.0000

> <Gold.PLP.Chemscore.Metal>
0.0000

> <Gold.Chemscore.Hbonds>
donor molecule, donor type, donor heavy atom, donor atom, acceptor molecule, acceptor atom, score
      L1  H     8    28       P1  8029  0.96
      P1  H  6933  6944       L1     7  1.00

> <Gold.PLP.Chemscore.Internal.Correction>
0.2798

> <Gold.Rescore>
     Score         DG    S(hbond)    S(metal)    S(lipo)     H(rot)  DE(clash)    DE(int)     intcor
     17.39     -19.56       1.86        0.00     101.47       1.56       0.20       1.97       ----

> <Gold.Chemscore.Fitness>
17.3869

> <Gold.Chemscore.DG>
-19.5622

> <Gold.Chemscore.ZeroCoef>
-5.4800

> <Gold.Chemscore.Hbond>
1.8572

> <Gold.Chemscore.Metal>
0.0000

> <Gold.Chemscore.Lipo>
101.4731

> <Gold.Chemscore.Internal_Hbond>
0.0000

> <Gold.Chemscore.DEClash>
0.2041

> <Gold.Chemscore.DEInternal>
1.9712

> <Gold.Chemscore.Rot>
1.5599

> <Gold.Chemscore.Internal.Correction>
   9.000000E+99

> <Gold.Chemscore.Hbonds>
donor molecule, donor type, donor heavy atom, donor atom, acceptor molecule, acceptor atom, score
      L1  H     8    28       P1  8029  0.90
      P1  H  6933  6944       L1     7  0.83

> <Gold.Chemscore.Hbond.Weighted>
-6.2032

> <Gold.Chemscore.Metal.Weighted>
-0.0000

> <Gold.Chemscore.Lipo.Weighted>
-11.8724

> <Gold.Chemscore.Internal_Hbond.Weighted>
0.0000

> <Gold.Chemscore.DEClash.Weighted>
0.2041

> <Gold.Chemscore.DEInternal.Weighted>
1.9712

> <Gold.Chemscore.Rot.Weighted>
3.9933

> <Gold.Chemscore.Internal.Correction.Weighted>
   9.000000E+99

> <Gold.Protein.RotatedTorsions>
[ 6907 6896 6895 6894 ] final -172.02 input  -60.11 | X-H torsion
[ 7974 7965 7964 7962 ] final  -51.27 input  175.53 | X-H torsion
[ 8008 7997 7996 7995 ] final   36.70 input   59.86 | X-H torsion
[ 10167 10162 10161 10158 ] final  150.83 input  -65.29 | X-H torsion
[ 10718 10713 10712 10709 ] final  142.95 input   66.30 | X-H torsion
[ 10763 10752 10751 10750 ] final  102.41 input  -60.55 | X-H torsion
[ 11005 11000 10999 10996 ] final  -38.60 input  -57.11 | X-H torsion

> <Gold.Protein.ActiveResidues>
 VAL166  LYS551  ARG553  GLY616  TRP617  ASP618  TYR619  PRO620  LYS621  CYS622 
 ASP623  PHE694  ASN695  SER759  ASP760  ASP761  ALA762  ILE779  LEU786  VAL792 
 PHE793  MET794  SER795  GLU796  ALA797  LYS798  CYS799  TRP800  GLU811  SER814 

> <Gold.Protein.RotatedAtoms>
  151.5332  133.3445  159.2921 H   0  0  0  0  0  0  0  0  0  0  0  0  # atno 6907 bound_to 6896
  150.8581  134.7928  159.7072 H   0  0  0  0  0  0  0  0  0  0  0  0  # atno 6908 bound_to 6896
  152.4608  134.5196  159.9830 H   0  0  0  0  0  0  0  0  0  0  0  0  # atno 6909 bound_to 6896
  145.9208  140.7835  142.9648 H   0  0  0  0  0  0  0  0  0  0  0  0  # atno 7974 bound_to 7965
  155.1917  140.3308  155.4357 H   0  0  0  0  0  0  0  0  0  0  0  0  # atno 8008 bound_to 7997
  156.2440  140.1909  156.6960 H   0  0  0  0  0  0  0  0  0  0  0  0  # atno 8009 bound_to 7997
  154.6201  140.0596  156.9590 H   0  0  0  0  0  0  0  0  0  0  0  0  # atno 8010 bound_to 7997
  139.4846  144.5490  151.7434 H   0  0  0  0  0  0  0  0  0  0  0  0  # atno 10167 bound_to 10162
  157.3746  131.0983  151.0796 H   0  0  0  0  0  0  0  0  0  0  0  0  # atno 10718 bound_to 10713
  153.3393  135.4011  155.1559 H   0  0  0  0  0  0  0  0  0  0  0  0  # atno 10763 bound_to 10752
  154.8640  135.3629  154.5367 H   0  0  0  0  0  0  0  0  0  0  0  0  # atno 10764 bound_to 10752
  153.5811  135.7076  153.5522 H   0  0  0  0  0  0  0  0  0  0  0  0  # atno 10765 bound_to 10752
  141.0039  133.6941  156.2075 H   0  0  0  0  0  0  0  0  0  0  0  0  # atno 11005 bound_to 11000
  144.6753  140.1972  143.7391 LP  0  0  0  0  0  0  0  0  0  0  0  0  # atno 17320 bound_to 7965
  145.8553  139.2195  143.1748 LP  0  0  0  0  0  0  0  0  0  0  0  0  # atno 17321 bound_to 7965
  140.5041  144.1124  150.5978 LP  0  0  0  0  0  0  0  0  0  0  0  0  # atno 17342 bound_to 10162
  140.4028  143.2695  151.9927 LP  0  0  0  0  0  0  0  0  0  0  0  0  # atno 17343 bound_to 10162
  157.1888  130.6342  149.5697 LP  0  0  0  0  0  0  0  0  0  0  0  0  # atno 17370 bound_to 10713
  155.9762  130.4729  150.6515 LP  0  0  0  0  0  0  0  0  0  0  0  0  # atno 17371 bound_to 10713
  140.6844  134.4733  157.5589 LP  0  0  0  0  0  0  0  0  0  0  0  0  # atno 17394 bound_to 11000
  139.9053  134.8463  156.1730 LP  0  0  0  0  0  0  0  0  0  0  0  0  # atno 17395 bound_to 11000

$$$$
