AV-unprocessed.smi:3061|AV-procd|sdf|11679|dock5
  -GOLD-   2272017 83D 1   1.00000     0.00000
 Structure written by MMmdl.
 35 36  0  0  0  0  0  0  0  0  1 V2000
  147.9646  140.3586  156.6670 C   0  0  0  0  0  0  0  0  0  0  0  0
  148.7012  141.2179  155.6281 C   0  0  2  0  0  0  0  0  0  0  0  0
  148.9617  140.4335  154.3277 C   0  0  0  0  0  0  0  0  0  0  0  0
  150.0974  139.5363  154.4426 N   0  0  0  0  0  0  0  0  0  0  0  0
  150.1924  138.2235  154.2260 C   0  0  0  0  0  0  0  0  0  0  0  0
  151.4033  137.7310  154.4462 N   0  0  0  0  0  0  0  0  0  0  0  0
  152.0507  138.8755  154.8181 C   0  0  0  0  0  0  0  0  0  0  0  0
  151.3128  139.9856  154.8335 N   0  0  0  0  0  0  0  0  0  0  0  0
  149.9657  141.6951  156.1845 N   0  0  0  0  0  0  0  0  0  0  0  0
  150.1044  142.3843  157.3271 C   0  0  0  0  0  0  0  0  0  0  0  0
  149.1596  142.6753  158.0614 O   0  0  0  0  0  0  0  0  0  0  0  0
  151.5327  142.8159  157.6938 C   0  0  2  0  0  0  0  0  0  0  0  0
  151.9621  142.2495  159.0627 C   0  0  0  0  0  0  0  0  0  0  0  0
  152.1002  143.4791  159.9448 C   0  0  0  0  0  0  0  0  0  0  0  0
  152.3562  143.4144  161.1463 O   0  0  0  0  0  0  0  0  0  0  0  0
  151.9018  144.5972  159.2414 N   0  0  0  0  0  0  0  0  0  0  0  0
  151.9571  145.9545  159.7668 C   0  0  0  0  0  0  0  0  0  0  0  0
  151.6665  144.3490  157.8293 C   0  0  0  0  0  0  0  0  0  0  0  0
  147.0108  140.0038  156.2757 H   0  0  0  0  0  0  0  0  0  0  0  0
  147.7548  140.9278  157.5735 H   0  0  0  0  0  0  0  0  0  0  0  0
  148.5533  139.4855  156.9503 H   0  0  0  0  0  0  0  0  0  0  0  0
  148.0661  142.0723  155.3854 H   0  0  0  0  0  0  0  0  0  0  0  0
  148.0831  139.8512  154.0464 H   0  0  0  0  0  0  0  0  0  0  0  0
  149.1554  141.1222  153.5039 H   0  0  0  0  0  0  0  0  0  0  0  0
  149.3583  137.6156  153.9075 H   0  0  0  0  0  0  0  0  0  0  0  0
  153.0968  138.8908  155.0861 H   0  0  0  0  0  0  0  0  0  0  0  0
  150.7993  141.4974  155.6505 H   0  0  0  0  0  0  0  0  0  0  0  0
  152.2192  142.4629  156.9221 H   0  0  0  0  0  0  0  0  0  0  0  0
  151.2428  141.5518  159.4950 H   0  0  0  0  0  0  0  0  0  0  0  0
  152.9240  141.7409  158.9935 H   0  0  0  0  0  0  0  0  0  0  0  0
  152.9690  146.1953  160.0943 H   0  0  0  0  0  0  0  0  0  0  0  0
  151.2841  146.0656  160.6180 H   0  0  0  0  0  0  0  0  0  0  0  0
  151.6641  146.6811  159.0085 H   0  0  0  0  0  0  0  0  0  0  0  0
  152.5151  144.7165  157.2509 H   0  0  0  0  0  0  0  0  0  0  0  0
  150.7798  144.8878  157.4898 H   0  0  0  0  0  0  0  0  0  0  0  0
  1  2  1  0  0  0  0
  1 19  1  0  0  0  0
  1 20  1  0  0  0  0
  1 21  1  0  0  0  0
  2  3  1  0  0  0  0
  2  9  1  0  0  0  0
  2 22  1  0  0  0  0
  3  4  1  0  0  0  0
  3 23  1  0  0  0  0
  3 24  1  0  0  0  0
  4  8  1  0  0  0  0
  4  5  1  0  0  0  0
  5  6  2  0  0  0  0
  5 25  1  0  0  0  0
  6  7  1  0  0  0  0
  7  8  2  0  0  0  0
  7 26  1  0  0  0  0
  9 10  1  0  0  0  0
  9 27  1  0  0  0  0
 10 11  2  0  0  0  0
 10 12  1  0  0  0  0
 12 18  1  0  0  0  0
 12 13  1  0  0  0  0
 12 28  1  0  0  0  0
 13 14  1  0  0  0  0
 13 29  1  0  0  0  0
 13 30  1  0  0  0  0
 14 15  2  0  0  0  0
 14 16  1  0  0  0  0
 16 17  1  0  0  0  0
 16 18  1  0  0  0  0
 17 31  1  0  0  0  0
 17 32  1  0  0  0  0
 17 33  1  0  0  0  0
 18 34  1  0  0  0  0
 18 35  1  0  0  0  0
M  END
> <s_m_source_file>
AV-unprocessed.smi

> <i_m_source_file_index>
3061

> <i_lp_mmshare_version>
43012

> <i_f3d_flags>
0

> <s_epik_input>
bjFbY0hdbltjSF1uMVtDSDJdW0NAQEhdKFtDSDNdKVtOSF1DKD1PKVtDQEBIXTJbQ0gyXUMoPU8pTihbQ0gzXSlbQ0gyXTI=

> <s_epik_cmdline>
J2VwaWtfcHl0aG9uJywgJy1waCcsICc3LjAnLCAnLXRuJywgJzgnLCAnLW1hJywgJzIwMCcsICctbWV0YWxfYmluZGluZycsICctaW1hZScsICc8aW5maWxlLm1hZT4nLCAnLW9tYWUnLCAnPG91dGZpbGUubWFlPic=

> <r_lp_tautomer_probability>
1

> <r_epik_Ionization_Penalty>
4.97611e-05

> <r_epik_Ionization_Penalty_Charging>
0

> <r_epik_Ionization_Penalty_Neutral>
4.97611e-05

> <r_epik_State_Penalty>
-0

> <r_epik_Charging_Adjusted_Penalty>
0

> <i_epik_Tot_Q>
0

> <i_epik_Tot_abs_Q>
0

> <r_epik_Metal_State_Penalty>
-0

> <b_epik_Metal_Only>
0

> <s_lp_Force_Field>
OPLS_2005

> <r_lp_Energy>
14.0738

> <b_lp_Chiralities_Consistent>
1

> <s_lp_Variant>
AV-unprocessed.smi:3061-1

> <Gold.Version>
5.8.1

> <Gold.Id.Protein>
6NUR|6NUR_protein|mol2

> <Gold.PLP.Fitness>
44.5406

> <Gold.PLP.PLP>
-39.2149

> <Gold.PLP.part.hbond>
-1.0881

> <Gold.PLP.part.metal>
0.0000

> <Gold.PLP.part.buried>
-4.4590

> <Gold.PLP.part.nonpolar>
-33.6109

> <Gold.PLP.part.repulsive>
0.5726

> <Gold.PLP.ligand.clash>
0.0000

> <Gold.PLP.ligand.torsion>
0.1973

> <Gold.PLP.Chemscore.Hbond>
0.9000

> <Gold.PLP.Chemscore.CHOScore>
1.0000

> <Gold.PLP.Chemscore.Metal>
0.0000

> <Gold.Chemscore.Hbonds>
donor molecule, donor type, donor heavy atom, donor atom, acceptor molecule, acceptor atom, score
      P1  H  7989  7998       L1     8  0.85
      L1  C     5    25       P1  7948  1.00

> <Gold.PLP.Chemscore.Internal.Correction>
0.0204

> <Gold.Rescore>
     Score         DG    S(hbond)    S(metal)    S(lipo)     H(rot)  DE(clash)    DE(int)     intcor
      7.63      -9.16       0.94        0.00      57.60       2.42       0.21       1.31       ----

> <Gold.Chemscore.Fitness>
7.6317

> <Gold.Chemscore.DG>
-9.1586

> <Gold.Chemscore.ZeroCoef>
-5.4800

> <Gold.Chemscore.Hbond>
0.9383

> <Gold.Chemscore.Metal>
0.0000

> <Gold.Chemscore.Lipo>
57.5998

> <Gold.Chemscore.Internal_Hbond>
0.0000

> <Gold.Chemscore.DEClash>
0.2147

> <Gold.Chemscore.DEInternal>
1.3122

> <Gold.Chemscore.Rot>
2.4197

> <Gold.Chemscore.Internal.Correction>
   9.000000E+99

> <Gold.Chemscore.Hbonds>
donor molecule, donor type, donor heavy atom, donor atom, acceptor molecule, acceptor atom, score
      P1  H  7989  7998       L1     8  0.10

> <Gold.Chemscore.Hbond.Weighted>
-3.1339

> <Gold.Chemscore.Metal.Weighted>
-0.0000

> <Gold.Chemscore.Lipo.Weighted>
-6.7392

> <Gold.Chemscore.Internal_Hbond.Weighted>
0.0000

> <Gold.Chemscore.DEClash.Weighted>
0.2147

> <Gold.Chemscore.DEInternal.Weighted>
1.3122

> <Gold.Chemscore.Rot.Weighted>
6.1945

> <Gold.Chemscore.Internal.Correction.Weighted>
   9.000000E+99

> <Gold.Protein.RotatedTorsions>
[ 6907 6896 6895 6894 ] final   91.99 input  -60.11 | X-H torsion
[ 7974 7965 7964 7962 ] final   43.21 input  175.53 | X-H torsion
[ 8008 7997 7996 7995 ] final  -99.86 input   59.86 | X-H torsion
[ 10167 10162 10161 10158 ] final  -62.13 input  -65.29 | X-H torsion
[ 10718 10713 10712 10709 ] final   -9.00 input   66.30 | X-H torsion
[ 10763 10752 10751 10750 ] final   95.61 input  -60.55 | X-H torsion
[ 11005 11000 10999 10996 ] final  -40.16 input  -57.11 | X-H torsion

> <Gold.Protein.ActiveResidues>
 VAL166  LYS551  ARG553  GLY616  TRP617  ASP618  TYR619  PRO620  LYS621  CYS622 
 ASP623  PHE694  ASN695  SER759  ASP760  ASP761  ALA762  ILE779  LEU786  VAL792 
 PHE793  MET794  SER795  GLU796  ALA797  LYS798  CYS799  TRP800  GLU811  SER814 

> <Gold.Protein.RotatedAtoms>
  152.5452  134.1571  159.8542 H   0  0  0  0  0  0  0  0  0  0  0  0  # atno 6907 bound_to 6896
  151.1593  133.4848  159.2602 H   0  0  0  0  0  0  0  0  0  0  0  0  # atno 6908 bound_to 6896
  151.1390  135.0180  159.8672 H   0  0  0  0  0  0  0  0  0  0  0  0  # atno 6909 bound_to 6896
  146.0675  139.5212  142.9619 H   0  0  0  0  0  0  0  0  0  0  0  0  # atno 7974 bound_to 7965
  154.8206  140.0445  157.1408 H   0  0  0  0  0  0  0  0  0  0  0  0  # atno 8008 bound_to 7997
  154.9264  140.3034  155.5170 H   0  0  0  0  0  0  0  0  0  0  0  0  # atno 8009 bound_to 7997
  156.2980  140.2331  156.4319 H   0  0  0  0  0  0  0  0  0  0  0  0  # atno 8010 bound_to 7997
  140.5959  143.2351  151.6036 H   0  0  0  0  0  0  0  0  0  0  0  0  # atno 10167 bound_to 10162
  156.6944  130.5074  149.5934 H   0  0  0  0  0  0  0  0  0  0  0  0  # atno 10718 bound_to 10713
  153.2552  135.4248  155.0838 H   0  0  0  0  0  0  0  0  0  0  0  0  # atno 10763 bound_to 10752
  154.8398  135.3435  154.6456 H   0  0  0  0  0  0  0  0  0  0  0  0  # atno 10764 bound_to 10752
  153.6876  135.7035  153.5156 H   0  0  0  0  0  0  0  0  0  0  0  0  # atno 10765 bound_to 10752
  141.0155  133.6887  156.2284 H   0  0  0  0  0  0  0  0  0  0  0  0  # atno 11005 bound_to 11000
  145.6451  141.0275  143.1790 LP  0  0  0  0  0  0  0  0  0  0  0  0  # atno 17320 bound_to 7965
  144.7211  139.8027  143.7381 LP  0  0  0  0  0  0  0  0  0  0  0  0  # atno 17321 bound_to 7965
  139.5258  144.3064  152.1030 LP  0  0  0  0  0  0  0  0  0  0  0  0  # atno 17342 bound_to 10162
  140.2236  144.4441  150.6331 LP  0  0  0  0  0  0  0  0  0  0  0  0  # atno 17343 bound_to 10162
  156.1774  130.6477  151.0911 LP  0  0  0  0  0  0  0  0  0  0  0  0  # atno 17370 bound_to 10713
  157.6997  131.0781  150.6859 LP  0  0  0  0  0  0  0  0  0  0  0  0  # atno 17371 bound_to 10713
  140.6662  134.4916  157.5585 LP  0  0  0  0  0  0  0  0  0  0  0  0  # atno 17394 bound_to 11000
  139.9114  134.8336  156.1514 LP  0  0  0  0  0  0  0  0  0  0  0  0  # atno 17395 bound_to 11000

$$$$
