AV-unprocessed.smi:2939|AV-procd|sdf|11261|dock6
  -GOLD-   2272016153D 1   1.00000     0.00000
 Structure written by MMmdl.
 30 31  0  0  0  0  0  0  0  0  2 V2000
  149.6449  137.5089  154.7746 O   0  0  0  0  0  0  0  0  0  0  0  0
  150.8746  137.2998  154.8614 C   0  0  0  0  0  0  0  0  0  0  0  0
  151.4136  136.1816  155.0120 O   0  5  0  0  0  0  0  0  0  0  0  0
  151.8001  138.5170  154.7739 C   0  0  0  0  0  0  0  0  0  0  0  0
  151.3724  139.6124  155.6331 N   0  0  0  0  0  0  0  0  0  0  0  0
  150.2766  140.4019  155.1982 C   0  0  0  0  0  0  0  0  0  0  0  0
  149.6074  140.1107  154.2060 O   0  0  0  0  0  0  0  0  0  0  0  0
  150.0039  141.5778  156.0162 C   0  0  0  0  0  0  0  0  0  0  0  0
  150.7689  141.8702  157.0892 C   0  0  0  0  0  0  0  0  0  0  0  0
  151.8442  141.0957  157.4777 N   0  0  0  0  0  0  0  0  0  0  0  0
  152.6558  141.4319  158.6206 C   0  0  0  0  0  0  0  0  0  0  0  0
  152.4122  142.8104  159.2236 C   0  0  0  0  0  0  0  0  0  0  0  0
  152.1427  142.9220  160.6038 C   0  0  0  0  0  0  0  0  0  0  0  0
  151.9092  144.1843  161.1836 C   0  0  0  0  0  0  0  0  0  0  0  0
  151.9385  145.3431  160.3843 C   0  0  0  0  0  0  0  0  0  0  0  0
  152.1998  145.2384  159.0049 C   0  0  0  0  0  0  0  0  0  0  0  0
  152.4337  143.9763  158.4249 C   0  0  0  0  0  0  0  0  0  0  0  0
  152.1885  139.9360  156.7451 C   0  0  0  0  0  0  0  0  0  0  0  0
  153.1555  139.2408  157.0702 O   0  0  0  0  0  0  0  0  0  0  0  0
  152.8247  138.2494  155.0374 H   0  0  0  0  0  0  0  0  0  0  0  0
  151.8643  138.8858  153.7489 H   0  0  0  0  0  0  0  0  0  0  0  0
  149.1796  142.2250  155.7554 H   0  0  0  0  0  0  0  0  0  0  0  0
  150.5300  142.7542  157.6625 H   0  0  0  0  0  0  0  0  0  0  0  0
  152.4495  140.6695  159.3728 H   0  0  0  0  0  0  0  0  0  0  0  0
  153.6957  141.2979  158.3153 H   0  0  0  0  0  0  0  0  0  0  0  0
  152.1184  142.0380  161.2242 H   0  0  0  0  0  0  0  0  0  0  0  0
  151.7073  144.2632  162.2417 H   0  0  0  0  0  0  0  0  0  0  0  0
  151.7594  146.3110  160.8287 H   0  0  0  0  0  0  0  0  0  0  0  0
  152.2204  146.1262  158.3905 H   0  0  0  0  0  0  0  0  0  0  0  0
  152.6299  143.9117  157.3650 H   0  0  0  0  0  0  0  0  0  0  0  0
  1  2  2  0  0  0  0
  2  3  1  0  0  0  0
  2  4  1  0  0  0  0
  4  5  1  0  0  0  0
  4 20  1  0  0  0  0
  4 21  1  0  0  0  0
  5 18  1  0  0  0  0
  5  6  1  0  0  0  0
  6  7  2  0  0  0  0
  6  8  1  0  0  0  0
  8  9  2  0  0  0  0
  8 22  1  0  0  0  0
  9 10  1  0  0  0  0
  9 23  1  0  0  0  0
 10 11  1  0  0  0  0
 10 18  1  0  0  0  0
 11 12  1  0  0  0  0
 11 24  1  0  0  0  0
 11 25  1  0  0  0  0
 12 17  1  0  0  0  0
 12 13  2  0  0  0  0
 13 14  1  0  0  0  0
 13 26  1  0  0  0  0
 14 15  2  0  0  0  0
 14 27  1  0  0  0  0
 15 16  1  0  0  0  0
 15 28  1  0  0  0  0
 16 17  2  0  0  0  0
 16 29  1  0  0  0  0
 17 30  1  0  0  0  0
 18 19  2  0  0  0  0
M  CHG  1   3  -1
M  END
> <s_m_source_file>
AV-unprocessed.smi

> <i_m_source_file_index>
2939

> <i_lp_mmshare_version>
43012

> <i_f3d_flags>
0

> <s_epik_input>
Tz1DKFtPSF0pW0NIMl1uMWMoPU8pW2NIXVtjSF1uKGMxPU8pW0NIMl1jMltjSF1bY0hdW2NIXVtjSF1bY0hdMg==

> <s_epik_cmdline>
J2VwaWtfcHl0aG9uJywgJy1waCcsICc3LjAnLCAnLXRuJywgJzgnLCAnLW1hJywgJzIwMCcsICctbWV0YWxfYmluZGluZycsICctaW1hZScsICc8aW5maWxlLm1hZT4nLCAnLW9tYWUnLCAnPG91dGZpbGUubWFlPic=

> <r_lp_tautomer_probability>
1

> <r_epik_Ionization_Penalty>
0.00125818

> <r_epik_Ionization_Penalty_Charging>
0.00125818

> <r_epik_Ionization_Penalty_Neutral>
0

> <r_epik_State_Penalty>
0.000832915

> <r_epik_Charging_Adjusted_Penalty>
0.00209109

> <i_epik_Tot_Q>
-1

> <i_epik_Tot_abs_Q>
1

> <r_epik_Metal_State_Penalty>
-0

> <b_epik_Metal_Only>
0

> <s_lp_Force_Field>
OPLS_2005

> <r_lp_Energy>
10.7616

> <b_lp_Chiralities_Consistent>
1

> <s_lp_Variant>
AV-unprocessed.smi:2939-1

> <Gold.Version>
5.8.1

> <Gold.Id.Protein>
6NUR|6NUR_protein|mol2

> <Gold.PLP.Fitness>
55.2108

> <Gold.PLP.PLP>
-47.0829

> <Gold.PLP.part.hbond>
-2.8969

> <Gold.PLP.part.metal>
0.0000

> <Gold.PLP.part.buried>
-4.4168

> <Gold.PLP.part.nonpolar>
-40.7250

> <Gold.PLP.part.repulsive>
1.3153

> <Gold.PLP.ligand.clash>
0.0487

> <Gold.PLP.ligand.torsion>
0.4337

> <Gold.PLP.Chemscore.Hbond>
3.0000

> <Gold.PLP.Chemscore.CHOScore>
0.0000

> <Gold.PLP.Chemscore.Metal>
0.0000

> <Gold.Chemscore.Hbonds>
donor molecule, donor type, donor heavy atom, donor atom, acceptor molecule, acceptor atom, score
      P1  H  7997  8009       L1    19  1.00
      P1  H 10752 10763       L1     3  1.98

> <Gold.PLP.Chemscore.Internal.Correction>
0.0439

> <Gold.Rescore>
     Score         DG    S(hbond)    S(metal)    S(lipo)     H(rot)  DE(clash)    DE(int)     intcor
     17.80     -18.37       1.83        0.00     104.49       2.13       0.07       0.50       ----

> <Gold.Chemscore.Fitness>
17.7992

> <Gold.Chemscore.DG>
-18.3706

> <Gold.Chemscore.ZeroCoef>
-5.4800

> <Gold.Chemscore.Hbond>
1.8304

> <Gold.Chemscore.Metal>
0.0000

> <Gold.Chemscore.Lipo>
104.4870

> <Gold.Chemscore.Internal_Hbond>
0.0000

> <Gold.Chemscore.DEClash>
0.0726

> <Gold.Chemscore.DEInternal>
0.4988

> <Gold.Chemscore.Rot>
2.1282

> <Gold.Chemscore.Internal.Correction>
   9.000000E+99

> <Gold.Chemscore.Hbonds>
donor molecule, donor type, donor heavy atom, donor atom, acceptor molecule, acceptor atom, score
      P1  H  7997  8009       L1    19  0.62
      P1  H 10752 10763       L1     3  0.94

> <Gold.Chemscore.Hbond.Weighted>
-6.1136

> <Gold.Chemscore.Metal.Weighted>
-0.0000

> <Gold.Chemscore.Lipo.Weighted>
-12.2250

> <Gold.Chemscore.Internal_Hbond.Weighted>
0.0000

> <Gold.Chemscore.DEClash.Weighted>
0.0726

> <Gold.Chemscore.DEInternal.Weighted>
0.4988

> <Gold.Chemscore.Rot.Weighted>
5.4481

> <Gold.Chemscore.Internal.Correction.Weighted>
   9.000000E+99

> <Gold.Protein.RotatedTorsions>
[ 6907 6896 6895 6894 ] final   20.67 input  -60.11 | X-H torsion
[ 7974 7965 7964 7962 ] final  156.74 input  175.53 | X-H torsion
[ 8008 7997 7996 7995 ] final  169.78 input   59.86 | X-H torsion
[ 10167 10162 10161 10158 ] final  -20.80 input  -65.29 | X-H torsion
[ 10718 10713 10712 10709 ] final  154.46 input   66.30 | X-H torsion
[ 10763 10752 10751 10750 ] final   39.81 input  -60.55 | X-H torsion
[ 11005 11000 10999 10996 ] final    8.39 input  -57.11 | X-H torsion

> <Gold.Protein.ActiveResidues>
 VAL166  LYS551  ARG553  GLY616  TRP617  ASP618  TYR619  PRO620  LYS621  CYS622 
 ASP623  PHE694  ASN695  SER759  ASP760  ASP761  ALA762  ILE779  LEU786  VAL792 
 PHE793  MET794  SER795  GLU796  ALA797  LYS798  CYS799  TRP800  GLU811  SER814 

> <Gold.Protein.RotatedAtoms>
  151.9000  135.0382  160.0505 H   0  0  0  0  0  0  0  0  0  0  0  0  # atno 6907 bound_to 6896
  152.2366  133.5096  159.5254 H   0  0  0  0  0  0  0  0  0  0  0  0  # atno 6908 bound_to 6896
  150.7041  134.1062  159.4026 H   0  0  0  0  0  0  0  0  0  0  0  0  # atno 6909 bound_to 6896
  144.7945  139.7245  143.6207 H   0  0  0  0  0  0  0  0  0  0  0  0  # atno 7974 bound_to 7965
  156.1426  140.1555  156.8896 H   0  0  0  0  0  0  0  0  0  0  0  0  # atno 8008 bound_to 7997
  154.5001  140.0827  156.7817 H   0  0  0  0  0  0  0  0  0  0  0  0  # atno 8009 bound_to 7997
  155.4049  140.3416  155.4262 H   0  0  0  0  0  0  0  0  0  0  0  0  # atno 8010 bound_to 7997
  140.7278  143.4688  151.0276 H   0  0  0  0  0  0  0  0  0  0  0  0  # atno 10167 bound_to 10162
  157.2314  131.0740  151.1851 H   0  0  0  0  0  0  0  0  0  0  0  0  # atno 10718 bound_to 10713
  152.9955  135.6209  154.2525 H   0  0  0  0  0  0  0  0  0  0  0  0  # atno 10763 bound_to 10752
  154.2263  135.2794  155.2908 H   0  0  0  0  0  0  0  0  0  0  0  0  # atno 10764 bound_to 10752
  154.5486  135.5740  153.6960 H   0  0  0  0  0  0  0  0  0  0  0  0  # atno 10765 bound_to 10752
  140.5376  134.0406  155.7893 H   0  0  0  0  0  0  0  0  0  0  0  0  # atno 11005 bound_to 11000
  146.2208  139.5633  142.9619 LP  0  0  0  0  0  0  0  0  0  0  0  0  # atno 17320 bound_to 7965
  145.5709  141.0394  143.2175 LP  0  0  0  0  0  0  0  0  0  0  0  0  # atno 17321 bound_to 7965
  139.8378  143.7604  152.3180 LP  0  0  0  0  0  0  0  0  0  0  0  0  # atno 17342 bound_to 10162
  139.7742  144.7466  151.0181 LP  0  0  0  0  0  0  0  0  0  0  0  0  # atno 17343 bound_to 10162
  157.3474  130.7065  149.6419 LP  0  0  0  0  0  0  0  0  0  0  0  0  # atno 17370 bound_to 10713
  155.9675  130.4262  150.4689 LP  0  0  0  0  0  0  0  0  0  0  0  0  # atno 17371 bound_to 10713
  141.1246  133.9405  157.2662 LP  0  0  0  0  0  0  0  0  0  0  0  0  # atno 17394 bound_to 11000
  139.9521  135.0173  156.9024 LP  0  0  0  0  0  0  0  0  0  0  0  0  # atno 17395 bound_to 11000

$$$$
