AV-unprocessed.smi:2409|AV-procd|sdf|9523|dock3
  -GOLD-   2272013153D 1   1.00000     0.00000
 Structure written by MMmdl.
 35 36  0  0  0  0  0  0  0  0  1 V2000
  147.7089  140.8310  154.1968 C   0  0  0  0  0  0  0  0  0  0  0  0
  148.1746  139.8025  155.0536 O   0  0  0  0  0  0  0  0  0  0  0  0
  149.5189  139.6773  155.0637 C   0  0  0  0  0  0  0  0  0  0  0  0
  150.3431  138.6276  154.7663 C   0  0  0  0  0  0  0  0  0  0  0  0
  150.0275  137.3130  154.3394 N   0  0  0  0  0  0  0  0  0  0  0  0
  150.3325  136.1562  154.9560 C   0  0  0  0  0  0  0  0  0  0  0  0
  150.9334  136.0781  156.0253 O   0  0  0  0  0  0  0  0  0  0  0  0
  149.9187  135.0531  154.3073 N   0  0  0  0  0  0  0  0  0  0  0  0
  150.0858  133.6836  154.6969 C   0  0  1  0  0  0  0  0  0  0  0  0
  148.8839  132.9862  155.2963 C   0  0  0  0  0  0  0  0  0  0  0  0
  149.3570  132.6031  153.9190 C   0  0  1  0  0  0  0  0  0  0  0  0
  148.5155  132.9177  152.6977 C   0  0  0  0  0  0  0  0  0  0  0  0
  151.6614  139.1414  154.9098 C   0  0  0  0  0  0  0  0  0  0  0  0
  152.9779  138.4563  154.6813 C   0  0  0  0  0  0  0  0  0  0  0  0
  151.6415  140.4062  155.3157 N   0  0  0  0  0  0  0  0  0  0  0  0
  150.3302  140.7342  155.4191 N   0  0  0  0  0  0  0  0  0  0  0  0
  149.9549  142.0708  155.8320 C   0  0  0  0  0  0  0  0  0  0  0  0
  146.6213  140.8819  154.2452 H   0  0  0  0  0  0  0  0  0  0  0  0
  147.9902  140.6491  153.1589 H   0  0  0  0  0  0  0  0  0  0  0  0
  148.1056  141.8011  154.4999 H   0  0  0  0  0  0  0  0  0  0  0  0
  149.6080  137.2360  153.4246 H   0  0  0  0  0  0  0  0  0  0  0  0
  149.3961  135.2042  153.4565 H   0  0  0  0  0  0  0  0  0  0  0  0
  151.0399  133.3995  155.1384 H   0  0  0  0  0  0  0  0  0  0  0  0
  149.0650  132.2779  156.1023 H   0  0  0  0  0  0  0  0  0  0  0  0
  147.9560  133.5498  155.3753 H   0  0  0  0  0  0  0  0  0  0  0  0
  149.8834  131.6536  153.8417 H   0  0  0  0  0  0  0  0  0  0  0  0
  147.9311  133.8264  152.8444 H   0  0  0  0  0  0  0  0  0  0  0  0
  147.8276  132.0960  152.4984 H   0  0  0  0  0  0  0  0  0  0  0  0
  149.1574  133.0530  151.8270 H   0  0  0  0  0  0  0  0  0  0  0  0
  152.8495  137.3833  154.5395 H   0  0  0  0  0  0  0  0  0  0  0  0
  153.6481  138.5980  155.5296 H   0  0  0  0  0  0  0  0  0  0  0  0
  153.4738  138.8506  153.7944 H   0  0  0  0  0  0  0  0  0  0  0  0
  149.0033  142.0423  156.3633 H   0  0  0  0  0  0  0  0  0  0  0  0
  149.8533  142.7087  154.9538 H   0  0  0  0  0  0  0  0  0  0  0  0
  150.7139  142.4899  156.4939 H   0  0  0  0  0  0  0  0  0  0  0  0
  1  2  1  0  0  0  0
  1 18  1  0  0  0  0
  1 19  1  0  0  0  0
  1 20  1  0  0  0  0
  2  3  1  0  0  0  0
  3 16  1  0  0  0  0
  3  4  2  0  0  0  0
  4  5  1  0  0  0  0
  4 13  1  0  0  0  0
  5  6  1  0  0  0  0
  5 21  1  0  0  0  0
  6  7  2  0  0  0  0
  6  8  1  0  0  0  0
  8  9  1  0  0  0  0
  8 22  1  0  0  0  0
  9 11  1  0  0  0  0
  9 10  1  0  0  0  0
  9 23  1  0  0  0  0
 10 11  1  0  0  0  0
 10 24  1  0  0  0  0
 10 25  1  0  0  0  0
 11 12  1  0  0  0  0
 11 26  1  0  0  0  0
 12 27  1  0  0  0  0
 12 28  1  0  0  0  0
 12 29  1  0  0  0  0
 13 14  1  0  0  0  0
 13 15  2  0  0  0  0
 14 30  1  0  0  0  0
 14 31  1  0  0  0  0
 14 32  1  0  0  0  0
 15 16  1  0  0  0  0
 16 17  1  0  0  0  0
 17 33  1  0  0  0  0
 17 34  1  0  0  0  0
 17 35  1  0  0  0  0
M  END
> <s_m_source_file>
AV-unprocessed.smi

> <i_m_source_file_index>
2409

> <i_lp_mmshare_version>
43012

> <i_f3d_flags>
0

> <s_epik_input>
W0NIM11uMW5jKFtDSDNdKWMoYzFPW0NIM10pW05IXUMoPU8pW05IXVtDQEBIXTJbQ0gyXVtDQEhdMltDSDNd

> <s_epik_cmdline>
J2VwaWtfcHl0aG9uJywgJy1waCcsICc3LjAnLCAnLXRuJywgJzgnLCAnLW1hJywgJzIwMCcsICctbWV0YWxfYmluZGluZycsICctaW1hZScsICc8aW5maWxlLm1hZT4nLCAnLW9tYWUnLCAnPG91dGZpbGUubWFlPic=

> <r_lp_tautomer_probability>
1

> <r_epik_Ionization_Penalty>
0.000417804

> <r_epik_Ionization_Penalty_Charging>
0

> <r_epik_Ionization_Penalty_Neutral>
0.000417804

> <r_epik_State_Penalty>
-0

> <r_epik_Charging_Adjusted_Penalty>
0

> <i_epik_Tot_Q>
0

> <i_epik_Tot_abs_Q>
0

> <r_epik_Metal_State_Penalty>
-0

> <b_epik_Metal_Only>
0

> <s_lp_Force_Field>
OPLS_2005

> <r_lp_Energy>
35.5407

> <b_lp_Chiralities_Consistent>
1

> <s_lp_Variant>
AV-unprocessed.smi:2409-2

> <Gold.Version>
5.8.1

> <Gold.Id.Protein>
6NUR|6NUR_protein|mol2

> <Gold.PLP.Fitness>
35.5967

> <Gold.PLP.PLP>
-30.3725

> <Gold.PLP.part.hbond>
-3.0649

> <Gold.PLP.part.metal>
0.0000

> <Gold.PLP.part.buried>
-0.3622

> <Gold.PLP.part.nonpolar>
-27.6302

> <Gold.PLP.part.repulsive>
0.1781

> <Gold.PLP.ligand.clash>
0.0000

> <Gold.PLP.ligand.torsion>
0.7398

> <Gold.PLP.Chemscore.Hbond>
2.2210

> <Gold.PLP.Chemscore.CHOScore>
0.0000

> <Gold.PLP.Chemscore.Metal>
0.0000

> <Gold.Chemscore.Hbonds>
donor molecule, donor type, donor heavy atom, donor atom, acceptor molecule, acceptor atom, score
      L1  H     5    21       P1  7948  1.00
      L1  H     8    22       P1  7948  0.75
      P1  H  7989  7998       L1    15  0.16

> <Gold.PLP.Chemscore.Internal.Correction>
0.0410

> <Gold.Rescore>
     Score         DG    S(hbond)    S(metal)    S(lipo)     H(rot)  DE(clash)    DE(int)     intcor
     13.35     -14.21       1.47        0.00      59.44       1.23       0.11       0.75       ----

> <Gold.Chemscore.Fitness>
13.3512

> <Gold.Chemscore.DG>
-14.2073

> <Gold.Chemscore.ZeroCoef>
-5.4800

> <Gold.Chemscore.Hbond>
1.4729

> <Gold.Chemscore.Metal>
0.0000

> <Gold.Chemscore.Lipo>
59.4403

> <Gold.Chemscore.Internal_Hbond>
0.0000

> <Gold.Chemscore.DEClash>
0.1106

> <Gold.Chemscore.DEInternal>
0.7454

> <Gold.Chemscore.Rot>
1.2292

> <Gold.Chemscore.Internal.Correction>
   9.000000E+99

> <Gold.Chemscore.Hbonds>
donor molecule, donor type, donor heavy atom, donor atom, acceptor molecule, acceptor atom, score
      L1  H     5    21       P1  7948  0.80
      L1  H     8    22       P1  7948  0.09

> <Gold.Chemscore.Hbond.Weighted>
-4.9194

> <Gold.Chemscore.Metal.Weighted>
-0.0000

> <Gold.Chemscore.Lipo.Weighted>
-6.9545

> <Gold.Chemscore.Internal_Hbond.Weighted>
0.0000

> <Gold.Chemscore.DEClash.Weighted>
0.1106

> <Gold.Chemscore.DEInternal.Weighted>
0.7454

> <Gold.Chemscore.Rot.Weighted>
3.1467

> <Gold.Chemscore.Internal.Correction.Weighted>
   9.000000E+99

> <Gold.Protein.RotatedTorsions>
[ 6907 6896 6895 6894 ] final   -8.63 input  -60.11 | X-H torsion
[ 7974 7965 7964 7962 ] final   70.39 input  175.53 | X-H torsion
[ 8008 7997 7996 7995 ] final  166.95 input   59.86 | X-H torsion
[ 10167 10162 10161 10158 ] final   36.07 input  -65.29 | X-H torsion
[ 10718 10713 10712 10709 ] final   92.85 input   66.30 | X-H torsion
[ 10763 10752 10751 10750 ] final -158.06 input  -60.55 | X-H torsion
[ 11005 11000 10999 10996 ] final  -71.21 input  -57.11 | X-H torsion

> <Gold.Protein.ActiveResidues>
 VAL166  LYS551  ARG553  GLY616  TRP617  ASP618  TYR619  PRO620  LYS621  CYS622 
 ASP623  PHE694  ASN695  SER759  ASP760  ASP761  ALA762  ILE779  LEU786  VAL792 
 PHE793  MET794  SER795  GLU796  ALA797  LYS798  CYS799  TRP800  GLU811  SER814 

> <Gold.Protein.RotatedAtoms>
  151.4306  135.1009  159.9640 H   0  0  0  0  0  0  0  0  0  0  0  0  # atno 6907 bound_to 6896
  152.4957  133.8621  159.7266 H   0  0  0  0  0  0  0  0  0  0  0  0  # atno 6908 bound_to 6896
  150.9157  133.6883  159.2871 H   0  0  0  0  0  0  0  0  0  0  0  0  # atno 6909 bound_to 6896
  145.7787  139.2877  143.1278 H   0  0  0  0  0  0  0  0  0  0  0  0  # atno 7974 bound_to 7965
  156.1675  140.1630  156.8505 H   0  0  0  0  0  0  0  0  0  0  0  0  # atno 8008 bound_to 7997
  154.5223  140.0775  156.8228 H   0  0  0  0  0  0  0  0  0  0  0  0  # atno 8009 bound_to 7997
  155.3581  140.3393  155.4242 H   0  0  0  0  0  0  0  0  0  0  0  0  # atno 8010 bound_to 7997
  140.4162  144.1523  150.6143 H   0  0  0  0  0  0  0  0  0  0  0  0  # atno 10167 bound_to 10162
  157.6957  131.0458  150.3944 H   0  0  0  0  0  0  0  0  0  0  0  0  # atno 10718 bound_to 10713
  154.7587  135.3112  154.8420 H   0  0  0  0  0  0  0  0  0  0  0  0  # atno 10763 bound_to 10752
  153.9187  135.6798  153.4752 H   0  0  0  0  0  0  0  0  0  0  0  0  # atno 10764 bound_to 10752
  153.1186  135.4833  154.9088 H   0  0  0  0  0  0  0  0  0  0  0  0  # atno 10765 bound_to 10752
  141.1588  133.6811  156.6872 H   0  0  0  0  0  0  0  0  0  0  0  0  # atno 11005 bound_to 11000
  146.0096  140.8447  142.9977 LP  0  0  0  0  0  0  0  0  0  0  0  0  # atno 17320 bound_to 7965
  144.6800  140.2470  143.7336 LP  0  0  0  0  0  0  0  0  0  0  0  0  # atno 17321 bound_to 7965
  140.4583  143.2459  151.9254 LP  0  0  0  0  0  0  0  0  0  0  0  0  # atno 17342 bound_to 10162
  139.4782  144.5493  151.8410 LP  0  0  0  0  0  0  0  0  0  0  0  0  # atno 17343 bound_to 10162
  156.4344  130.3978  149.6738 LP  0  0  0  0  0  0  0  0  0  0  0  0  # atno 17370 bound_to 10713
  156.3944  130.7643  151.2647 LP  0  0  0  0  0  0  0  0  0  0  0  0  # atno 17371 bound_to 10713
  140.3058  134.8126  157.4135 LP  0  0  0  0  0  0  0  0  0  0  0  0  # atno 17394 bound_to 11000
  140.1222  134.5205  155.8174 LP  0  0  0  0  0  0  0  0  0  0  0  0  # atno 17395 bound_to 11000

$$$$
