AV-unprocessed.smi:2349|AV-procd|sdf|9371|dock8
  -GOLD-   2272012593D 1   1.00000     0.00000
 Structure written by MMmdl.
 52 53  0  0  0  0  0  0  0  0  1 V2000
  153.8150  143.0789  161.6212 C   0  0  0  0  0  0  0  0  0  0  0  0
  152.9982  143.1093  160.3464 C   0  0  0  0  0  0  0  0  0  0  0  0
  151.8899  143.9728  160.2170 C   0  0  0  0  0  0  0  0  0  0  0  0
  151.1664  143.9587  159.0091 C   0  0  0  0  0  0  0  0  0  0  0  0
  151.5753  143.0844  157.9815 C   0  0  0  0  0  0  0  0  0  0  0  0
  150.8361  143.0437  156.6549 C   0  0  0  0  0  0  0  0  0  0  0  0
  151.0834  141.7500  155.8605 C   0  0  0  0  0  0  0  0  0  0  0  0
  149.8746  140.9406  155.7782 N   0  0  0  0  0  0  0  0  0  0  0  0
  149.1874  140.6839  154.6548 C   0  0  0  0  0  0  0  0  0  0  0  0
  149.5248  141.1449  153.5634 O   0  0  0  0  0  0  0  0  0  0  0  0
  148.1081  139.8783  154.8248 N   0  0  0  0  0  0  0  0  0  0  0  0
  147.5469  139.4279  156.1097 C   0  0  0  0  0  0  0  0  0  0  0  0
  146.2264  140.1770  156.3596 C   0  0  0  0  0  0  0  0  0  0  0  0
  145.2236  139.9516  155.2052 C   0  0  0  0  0  0  0  0  0  0  0  0
  143.9375  140.7837  155.4249 C   0  0  0  0  0  0  0  0  0  0  0  0
  143.1878  140.4961  156.7420 C   0  0  0  0  0  0  0  0  0  0  0  0
  143.7205  139.7836  157.5949 O   0  0  0  0  0  0  0  0  0  0  0  0
  141.9632  141.0420  156.9285 N   0  0  0  0  0  0  0  0  0  0  0  0
  141.1913  140.7574  158.1404 C   0  0  0  0  0  0  0  0  0  0  0  0
  141.3379  141.9641  155.9769 C   0  0  0  0  0  0  0  0  0  0  0  0
  145.8981  140.2350  153.8391 C   0  0  0  0  0  0  0  0  0  0  0  0
  147.2399  139.4911  153.7072 C   0  0  0  0  0  0  0  0  0  0  0  0
  152.6954  142.2578  158.2148 C   0  0  0  0  0  0  0  0  0  0  0  0
  153.3973  142.2670  159.3679 N   0  0  0  0  0  0  0  0  0  0  0  0
  153.5243  143.8846  162.2959 H   0  0  0  0  0  0  0  0  0  0  0  0
  154.8764  143.1904  161.3982 H   0  0  0  0  0  0  0  0  0  0  0  0
  153.6697  142.1308  162.1394 H   0  0  0  0  0  0  0  0  0  0  0  0
  151.5997  144.6320  161.0219 H   0  0  0  0  0  0  0  0  0  0  0  0
  150.3156  144.6102  158.8734 H   0  0  0  0  0  0  0  0  0  0  0  0
  149.7676  143.1584  156.8429 H   0  0  0  0  0  0  0  0  0  0  0  0
  151.1324  143.9061  156.0566 H   0  0  0  0  0  0  0  0  0  0  0  0
  151.4465  141.9914  154.8604 H   0  0  0  0  0  0  0  0  0  0  0  0
  151.8599  141.1594  156.3488 H   0  0  0  0  0  0  0  0  0  0  0  0
  149.5439  140.5280  156.6383 H   0  0  0  0  0  0  0  0  0  0  0  0
  147.3609  138.3539  156.0621 H   0  0  0  0  0  0  0  0  0  0  0  0
  148.2158  139.5623  156.9598 H   0  0  0  0  0  0  0  0  0  0  0  0
  145.7902  139.8453  157.3025 H   0  0  0  0  0  0  0  0  0  0  0  0
  146.4314  141.2428  156.4719 H   0  0  0  0  0  0  0  0  0  0  0  0
  144.9578  138.8934  155.2288 H   0  0  0  0  0  0  0  0  0  0  0  0
  144.1894  141.8447  155.4227 H   0  0  0  0  0  0  0  0  0  0  0  0
  143.2746  140.6195  154.5750 H   0  0  0  0  0  0  0  0  0  0  0  0
  141.2266  139.6968  158.3945 H   0  0  0  0  0  0  0  0  0  0  0  0
  140.1383  141.0186  158.0305 H   0  0  0  0  0  0  0  0  0  0  0  0
  141.5917  141.3227  158.9830 H   0  0  0  0  0  0  0  0  0  0  0  0
  142.0410  142.7267  155.6393 H   0  0  0  0  0  0  0  0  0  0  0  0
  140.4915  142.4946  156.4138 H   0  0  0  0  0  0  0  0  0  0  0  0
  140.9727  141.4198  155.1052 H   0  0  0  0  0  0  0  0  0  0  0  0
  145.2443  139.9421  153.0179 H   0  0  0  0  0  0  0  0  0  0  0  0
  146.0686  141.3068  153.7277 H   0  0  0  0  0  0  0  0  0  0  0  0
  147.6854  139.7007  152.7338 H   0  0  0  0  0  0  0  0  0  0  0  0
  147.0757  138.4128  153.7300 H   0  0  0  0  0  0  0  0  0  0  0  0
  153.0462  141.5782  157.4520 H   0  0  0  0  0  0  0  0  0  0  0  0
  1  2  1  0  0  0  0
  1 25  1  0  0  0  0
  1 26  1  0  0  0  0
  1 27  1  0  0  0  0
  2 24  1  0  0  0  0
  2  3  2  0  0  0  0
  3  4  1  0  0  0  0
  3 28  1  0  0  0  0
  4  5  2  0  0  0  0
  4 29  1  0  0  0  0
  5  6  1  0  0  0  0
  5 23  1  0  0  0  0
  6  7  1  0  0  0  0
  6 30  1  0  0  0  0
  6 31  1  0  0  0  0
  7  8  1  0  0  0  0
  7 32  1  0  0  0  0
  7 33  1  0  0  0  0
  8  9  1  0  0  0  0
  8 34  1  0  0  0  0
  9 10  2  0  0  0  0
  9 11  1  0  0  0  0
 11 22  1  0  0  0  0
 11 12  1  0  0  0  0
 12 13  1  0  0  0  0
 12 35  1  0  0  0  0
 12 36  1  0  0  0  0
 13 14  1  0  0  0  0
 13 37  1  0  0  0  0
 13 38  1  0  0  0  0
 14 15  1  0  0  0  0
 14 21  1  0  0  0  0
 14 39  1  0  0  0  0
 15 16  1  0  0  0  0
 15 40  1  0  0  0  0
 15 41  1  0  0  0  0
 16 17  2  0  0  0  0
 16 18  1  0  0  0  0
 18 19  1  0  0  0  0
 18 20  1  0  0  0  0
 19 42  1  0  0  0  0
 19 43  1  0  0  0  0
 19 44  1  0  0  0  0
 20 45  1  0  0  0  0
 20 46  1  0  0  0  0
 20 47  1  0  0  0  0
 21 22  1  0  0  0  0
 21 48  1  0  0  0  0
 21 49  1  0  0  0  0
 22 50  1  0  0  0  0
 22 51  1  0  0  0  0
 23 24  2  0  0  0  0
 23 52  1  0  0  0  0
M  END
> <s_m_source_file>
AV-unprocessed.smi

> <i_m_source_file_index>
2349

> <i_lp_mmshare_version>
43012

> <i_f3d_flags>
0

> <s_epik_input>
W0NIM11jMVtjSF1bY0hdYyhbY0hdbjEpW0NIMl1bQ0gyXVtOSF1DKD1PKU4yW0NIMl1bQ0gyXVtDSF0oW0NIMl1bQ0gyXTIpW0NIMl1DKD1PKU4oW0NIM10pW0NIM10=

> <s_epik_cmdline>
J2VwaWtfcHl0aG9uJywgJy1waCcsICc3LjAnLCAnLXRuJywgJzgnLCAnLW1hJywgJzIwMCcsICctbWV0YWxfYmluZGluZycsICctaW1hZScsICc8aW5maWxlLm1hZT4nLCAnLW9tYWUnLCAnPG91dGZpbGUubWFlPic=

> <r_epik_Ionization_Penalty>
0.0570544

> <r_epik_Ionization_Penalty_Charging>
0

> <r_epik_Ionization_Penalty_Neutral>
0.0570544

> <r_epik_State_Penalty>
0.0491874

> <r_epik_Charging_Adjusted_Penalty>
0.0491874

> <i_epik_Tot_Q>
0

> <i_epik_Tot_abs_Q>
0

> <r_epik_Metal_State_Penalty>
0.0448474

> <b_epik_Metal_Only>
0

> <s_lp_Force_Field>
OPLS_2005

> <r_lp_Energy>
37.0132

> <b_lp_Chiralities_Consistent>
1

> <s_lp_Variant>
AV-unprocessed.smi:2349-1

> <Gold.Version>
5.8.1

> <Gold.Id.Protein>
6NUR|6NUR_protein|mol2

> <Gold.PLP.Fitness>
51.4102

> <Gold.PLP.PLP>
-50.0820

> <Gold.PLP.part.hbond>
-1.7292

> <Gold.PLP.part.metal>
0.0000

> <Gold.PLP.part.buried>
-5.1943

> <Gold.PLP.part.nonpolar>
-42.6200

> <Gold.PLP.part.repulsive>
0.2968

> <Gold.PLP.ligand.clash>
0.0000

> <Gold.PLP.ligand.torsion>
0.7678

> <Gold.PLP.Chemscore.Hbond>
0.9176

> <Gold.PLP.Chemscore.CHOScore>
0.0000

> <Gold.PLP.Chemscore.Metal>
0.0000

> <Gold.Chemscore.Hbonds>
donor molecule, donor type, donor heavy atom, donor atom, acceptor molecule, acceptor atom, score
      P1  H  7989  7998       L1    10  0.19
      P1  H  8011  8017       L1    10  0.99

> <Gold.PLP.Chemscore.Internal.Correction>
0.1109

> <Gold.Rescore>
     Score         DG    S(hbond)    S(metal)    S(lipo)     H(rot)  DE(clash)    DE(int)     intcor
     16.78     -19.62       0.92        0.00     130.85       1.66       0.81       2.03       ----

> <Gold.Chemscore.Fitness>
16.7795

> <Gold.Chemscore.DG>
-19.6177

> <Gold.Chemscore.ZeroCoef>
-5.4800

> <Gold.Chemscore.Hbond>
0.9224

> <Gold.Chemscore.Metal>
0.0000

> <Gold.Chemscore.Lipo>
130.8513

> <Gold.Chemscore.Internal_Hbond>
0.0000

> <Gold.Chemscore.DEClash>
0.8118

> <Gold.Chemscore.DEInternal>
2.0264

> <Gold.Chemscore.Rot>
1.6612

> <Gold.Chemscore.Internal.Correction>
   9.000000E+99

> <Gold.Chemscore.Hbonds>
donor molecule, donor type, donor heavy atom, donor atom, acceptor molecule, acceptor atom, score
      P1  H  7989  7998       L1    10  0.10
      P1  H  8011  8017       L1    10  0.94

> <Gold.Chemscore.Hbond.Weighted>
-3.0809

> <Gold.Chemscore.Metal.Weighted>
-0.0000

> <Gold.Chemscore.Lipo.Weighted>
-15.3096

> <Gold.Chemscore.Internal_Hbond.Weighted>
0.0000

> <Gold.Chemscore.DEClash.Weighted>
0.8118

> <Gold.Chemscore.DEInternal.Weighted>
2.0264

> <Gold.Chemscore.Rot.Weighted>
4.2528

> <Gold.Chemscore.Internal.Correction.Weighted>
   9.000000E+99

> <Gold.Protein.RotatedTorsions>
[ 6907 6896 6895 6894 ] final   59.99 input  -60.11 | X-H torsion
[ 7974 7965 7964 7962 ] final -111.27 input  175.53 | X-H torsion
[ 8008 7997 7996 7995 ] final  140.57 input   59.86 | X-H torsion
[ 10167 10162 10161 10158 ] final -133.61 input  -65.29 | X-H torsion
[ 10718 10713 10712 10709 ] final  -87.33 input   66.30 | X-H torsion
[ 10763 10752 10751 10750 ] final  169.46 input  -60.55 | X-H torsion
[ 11005 11000 10999 10996 ] final   40.37 input  -57.11 | X-H torsion

> <Gold.Protein.ActiveResidues>
 VAL166  LYS551  ARG553  GLY616  TRP617  ASP618  TYR619  PRO620  LYS621  CYS622 
 ASP623  PHE694  ASN695  SER759  ASP760  ASP761  ALA762  ILE779  LEU786  VAL792 
 PHE793  MET794  SER795  GLU796  ALA797  LYS798  CYS799  TRP800  GLU811  SER814 

> <Gold.Protein.RotatedAtoms>
  152.3964  134.6359  160.0087 H   0  0  0  0  0  0  0  0  0  0  0  0  # atno 6907 bound_to 6896
  151.6577  133.3312  159.3174 H   0  0  0  0  0  0  0  0  0  0  0  0  # atno 6908 bound_to 6896
  150.7871  134.6908  159.6540 H   0  0  0  0  0  0  0  0  0  0  0  0  # atno 6909 bound_to 6896
  145.1581  140.8864  143.3607 H   0  0  0  0  0  0  0  0  0  0  0  0  # atno 7974 bound_to 7965
  156.2977  140.2338  156.4423 H   0  0  0  0  0  0  0  0  0  0  0  0  # atno 8008 bound_to 7997
  154.8175  140.0439  157.1407 H   0  0  0  0  0  0  0  0  0  0  0  0  # atno 8009 bound_to 7997
  154.9353  140.3022  155.5151 H   0  0  0  0  0  0  0  0  0  0  0  0  # atno 8010 bound_to 7997
  139.8965  143.6659  152.2603 H   0  0  0  0  0  0  0  0  0  0  0  0  # atno 10167 bound_to 10162
  155.9986  130.4796  150.4850 H   0  0  0  0  0  0  0  0  0  0  0  0  # atno 10718 bound_to 10713
  154.3835  135.2753  155.2197 H   0  0  0  0  0  0  0  0  0  0  0  0  # atno 10763 bound_to 10752
  154.4294  135.5981  153.6063 H   0  0  0  0  0  0  0  0  0  0  0  0  # atno 10764 bound_to 10752
  152.9834  135.5992  154.4080 H   0  0  0  0  0  0  0  0  0  0  0  0  # atno 10765 bound_to 10752
  140.1937  134.3955  155.8133 H   0  0  0  0  0  0  0  0  0  0  0  0  # atno 11005 bound_to 11000
  145.0360  139.3300  143.6001 LP  0  0  0  0  0  0  0  0  0  0  0  0  # atno 17320 bound_to 7965
  146.3486  139.9715  142.8706 LP  0  0  0  0  0  0  0  0  0  0  0  0  # atno 17321 bound_to 7965
  139.7063  144.7627  151.1187 LP  0  0  0  0  0  0  0  0  0  0  0  0  # atno 17342 bound_to 10162
  140.7716  143.5390  150.9335 LP  0  0  0  0  0  0  0  0  0  0  0  0  # atno 17343 bound_to 10162
  157.2852  131.0615  151.2171 LP  0  0  0  0  0  0  0  0  0  0  0  0  # atno 17370 bound_to 10713
  157.3204  130.6934  149.6265 LP  0  0  0  0  0  0  0  0  0  0  0  0  # atno 17371 bound_to 10713
  141.2227  133.7059  156.8139 LP  0  0  0  0  0  0  0  0  0  0  0  0  # atno 17394 bound_to 11000
  140.2131  134.8813  157.3296 LP  0  0  0  0  0  0  0  0  0  0  0  0  # atno 17395 bound_to 11000

$$$$
