AV-unprocessed.smi:1819|AV-procd|sdf|7382|dock6
  -GOLD-   22720 9 53D 1   1.00000     0.00000
 Structure written by MMmdl.
 29 29  0  0  0  0  0  0  0  0  1 V2000
  154.9455  138.9849  158.8555 O   0  0  0  0  0  0  0  0  0  0  0  0
  154.4996  138.0237  159.4837 C   0  0  0  0  0  0  0  0  0  0  0  0
  153.1313  137.4217  159.1325 C   0  0  0  0  0  0  0  0  0  0  0  0
  152.5314  138.0228  157.9324 N   0  0  0  0  0  0  0  0  0  0  0  0
  152.2591  139.3830  157.8910 C   0  0  0  0  0  0  0  0  0  0  0  0
  151.7181  140.0027  156.8154 C   0  0  0  0  0  0  0  0  0  0  0  0
  151.3871  139.2434  155.6143 C   0  0  0  0  0  0  0  0  0  0  0  0
  150.8929  139.7131  154.5918 O   0  0  0  0  0  0  0  0  0  0  0  0
  151.6783  137.8790  155.6940 N   0  0  0  0  0  0  0  0  0  0  0  0
  152.2376  137.2343  156.7985 C   0  0  0  0  0  0  0  0  0  0  0  0
  152.4585  136.0244  156.7619 O   0  0  0  0  0  0  0  0  0  0  0  0
  155.1485  137.4576  160.5110 N   0  0  0  0  0  0  0  0  0  0  0  0
  156.4520  137.8873  160.9969 C   0  0  0  0  0  0  0  0  0  0  0  0
  156.9895  136.9038  162.0420 C   0  0  0  0  0  0  0  0  0  0  0  0
  155.7616  135.6324  162.4484 S   0  0  0  0  0  0  0  0  0  0  0  0
  154.6575  136.5830  163.5277 C   0  0  0  0  0  0  0  0  0  0  0  0
  153.9974  135.7564  164.3370 F   0  0  0  0  0  0  0  0  0  0  0  0
  155.3607  137.4366  164.2705 F   0  0  0  0  0  0  0  0  0  0  0  0
  153.7737  137.2636  162.7995 F   0  0  0  0  0  0  0  0  0  0  0  0
  151.4687  137.3128  154.8846 H   0  0  0  0  0  0  0  0  0  0  0  0
  153.2221  136.3409  159.0049 H   0  0  0  0  0  0  0  0  0  0  0  0
  152.4727  137.5551  159.9921 H   0  0  0  0  0  0  0  0  0  0  0  0
  152.4922  139.9861  158.7570 H   0  0  0  0  0  0  0  0  0  0  0  0
  151.5302  141.0663  156.8434 H   0  0  0  0  0  0  0  0  0  0  0  0
  154.7146  136.6758  160.9805 H   0  0  0  0  0  0  0  0  0  0  0  0
  157.1472  137.9579  160.1586 H   0  0  0  0  0  0  0  0  0  0  0  0
  156.3649  138.8848  161.4304 H   0  0  0  0  0  0  0  0  0  0  0  0
  157.8915  136.4155  161.6718 H   0  0  0  0  0  0  0  0  0  0  0  0
  157.2606  137.4351  162.9547 H   0  0  0  0  0  0  0  0  0  0  0  0
  1  2  2  0  0  0  0
  2  3  1  0  0  0  0
  2 12  1  0  0  0  0
  3  4  1  0  0  0  0
  3 21  1  0  0  0  0
  3 22  1  0  0  0  0
  4 10  1  0  0  0  0
  4  5  1  0  0  0  0
  5  6  2  0  0  0  0
  5 23  1  0  0  0  0
  6  7  1  0  0  0  0
  6 24  1  0  0  0  0
  7  8  2  0  0  0  0
  7  9  1  0  0  0  0
  9 20  1  0  0  0  0
  9 10  1  0  0  0  0
 10 11  2  0  0  0  0
 12 13  1  0  0  0  0
 12 25  1  0  0  0  0
 13 14  1  0  0  0  0
 13 26  1  0  0  0  0
 13 27  1  0  0  0  0
 14 15  1  0  0  0  0
 14 28  1  0  0  0  0
 14 29  1  0  0  0  0
 15 16  1  0  0  0  0
 16 17  1  0  0  0  0
 16 18  1  0  0  0  0
 16 19  1  0  0  0  0
M  END
> <s_m_source_file>
AV-unprocessed.smi

> <i_m_source_file_index>
1819

> <i_lp_mmshare_version>
43012

> <i_f3d_flags>
0

> <s_epik_input>
RkMoRikoRilTW0NIMl1bQ0gyXVtOSF1DKD1PKVtDSDJdbjFbY0hdW2NIXWMoPU8pW25IXWMxPU8=

> <s_epik_cmdline>
J2VwaWtfcHl0aG9uJywgJy1waCcsICc3LjAnLCAnLXRuJywgJzgnLCAnLW1hJywgJzIwMCcsICctbWV0YWxfYmluZGluZycsICctaW1hZScsICc8aW5maWxlLm1hZT4nLCAnLW9tYWUnLCAnPG91dGZpbGUubWFlPic=

> <r_lp_tautomer_probability>
0.999537

> <r_epik_Ionization_Penalty>
0.00347617

> <r_epik_Ionization_Penalty_Charging>
0.00347613

> <r_epik_Ionization_Penalty_Neutral>
4.33222e-08

> <r_epik_State_Penalty>
0.00246522

> <r_epik_Charging_Adjusted_Penalty>
0.00594136

> <i_epik_Tot_Q>
0

> <i_epik_Tot_abs_Q>
0

> <r_epik_Metal_State_Penalty>
0.367629

> <b_epik_Metal_Only>
0

> <s_lp_Force_Field>
OPLS_2005

> <r_lp_Energy>
-0.213216

> <b_lp_Chiralities_Consistent>
1

> <s_lp_Variant>
AV-unprocessed.smi:1819-1

> <Gold.Version>
5.8.1

> <Gold.Id.Protein>
6NUR|6NUR_protein|mol2

> <Gold.PLP.Fitness>
32.2764

> <Gold.PLP.PLP>
-25.6280

> <Gold.PLP.part.hbond>
-3.0000

> <Gold.PLP.part.metal>
0.0000

> <Gold.PLP.part.buried>
-4.3996

> <Gold.PLP.part.nonpolar>
-18.8216

> <Gold.PLP.part.repulsive>
0.2075

> <Gold.PLP.ligand.clash>
0.6733

> <Gold.PLP.ligand.torsion>
0.8780

> <Gold.PLP.Chemscore.Hbond>
3.0000

> <Gold.PLP.Chemscore.CHOScore>
0.0000

> <Gold.PLP.Chemscore.Metal>
0.0000

> <Gold.Chemscore.Hbonds>
donor molecule, donor type, donor heavy atom, donor atom, acceptor molecule, acceptor atom, score
      P1  H  7989  7998       L1     8  1.00
      P1  H  7997  8008       L1     1  1.00
      P1  H 10752 10765       L1    11  1.00

> <Gold.PLP.Chemscore.Internal.Correction>
0.0778

> <Gold.Rescore>
     Score         DG    S(hbond)    S(metal)    S(lipo)     H(rot)  DE(clash)    DE(int)     intcor
      9.26     -11.71       2.99        0.00      32.23       2.93       0.01       2.44       ----

> <Gold.Chemscore.Fitness>
9.2626

> <Gold.Chemscore.DG>
-11.7144

> <Gold.Chemscore.ZeroCoef>
-5.4800

> <Gold.Chemscore.Hbond>
2.9859

> <Gold.Chemscore.Metal>
0.0000

> <Gold.Chemscore.Lipo>
32.2264

> <Gold.Chemscore.Internal_Hbond>
0.0000

> <Gold.Chemscore.DEClash>
0.0140

> <Gold.Chemscore.DEInternal>
2.4377

> <Gold.Chemscore.Rot>
2.9332

> <Gold.Chemscore.Internal.Correction>
   9.000000E+99

> <Gold.Chemscore.Hbonds>
donor molecule, donor type, donor heavy atom, donor atom, acceptor molecule, acceptor atom, score
      P1  H  7989  7998       L1     8  1.00
      P1  H  7997  8008       L1     1  1.00
      P1  H 10752 10765       L1    11  0.91

> <Gold.Chemscore.Hbond.Weighted>
-9.9727

> <Gold.Chemscore.Metal.Weighted>
-0.0000

> <Gold.Chemscore.Lipo.Weighted>
-3.7705

> <Gold.Chemscore.Internal_Hbond.Weighted>
0.0000

> <Gold.Chemscore.DEClash.Weighted>
0.0140

> <Gold.Chemscore.DEInternal.Weighted>
2.4377

> <Gold.Chemscore.Rot.Weighted>
7.5089

> <Gold.Chemscore.Internal.Correction.Weighted>
   9.000000E+99

> <Gold.Protein.RotatedTorsions>
[ 6907 6896 6895 6894 ] final  123.13 input  -60.11 | X-H torsion
[ 7974 7965 7964 7962 ] final   32.87 input  175.53 | X-H torsion
[ 8008 7997 7996 7995 ] final -127.28 input   59.86 | X-H torsion
[ 10167 10162 10161 10158 ] final -110.70 input  -65.29 | X-H torsion
[ 10718 10713 10712 10709 ] final  106.67 input   66.30 | X-H torsion
[ 10763 10752 10751 10750 ] final -138.54 input  -60.55 | X-H torsion
[ 11005 11000 10999 10996 ] final  -50.22 input  -57.11 | X-H torsion

> <Gold.Protein.ActiveResidues>
 VAL166  LYS551  ARG553  GLY616  TRP617  ASP618  TYR619  PRO620  LYS621  CYS622 
 ASP623  PHE694  ASN695  SER759  ASP760  ASP761  ALA762  ILE779  LEU786  VAL792 
 PHE793  MET794  SER795  GLU796  ALA797  LYS798  CYS799  TRP800  GLU811  SER814 

> <Gold.Protein.RotatedAtoms>
  152.4187  133.7080  159.6461 H   0  0  0  0  0  0  0  0  0  0  0  0  # atno 6907 bound_to 6896
  150.8063  133.8493  159.3210 H   0  0  0  0  0  0  0  0  0  0  0  0  # atno 6908 bound_to 6896
  151.6216  135.1033  160.0154 H   0  0  0  0  0  0  0  0  0  0  0  0  # atno 6909 bound_to 6896
  146.1458  139.6470  142.9132 H   0  0  0  0  0  0  0  0  0  0  0  0  # atno 7974 bound_to 7965
  155.2435  140.0429  157.2978 H   0  0  0  0  0  0  0  0  0  0  0  0  # atno 8008 bound_to 7997
  154.5813  140.2401  155.8019 H   0  0  0  0  0  0  0  0  0  0  0  0  # atno 8009 bound_to 7997
  156.2195  140.2974  155.9926 H   0  0  0  0  0  0  0  0  0  0  0  0  # atno 8010 bound_to 7997
  140.1416  143.4274  152.1558 H   0  0  0  0  0  0  0  0  0  0  0  0  # atno 10167 bound_to 10162
  157.6659  131.0856  150.6041 H   0  0  0  0  0  0  0  0  0  0  0  0  # atno 10718 bound_to 10713
  154.8634  135.3609  154.5402 H   0  0  0  0  0  0  0  0  0  0  0  0  # atno 10763 bound_to 10752
  153.6024  135.7012  153.5384 H   0  0  0  0  0  0  0  0  0  0  0  0  # atno 10764 bound_to 10752
  153.3280  135.4132  155.1433 H   0  0  0  0  0  0  0  0  0  0  0  0  # atno 10765 bound_to 10752
  141.0803  133.6655  156.3699 H   0  0  0  0  0  0  0  0  0  0  0  0  # atno 11005 bound_to 11000
  145.4940  141.0438  143.2577 LP  0  0  0  0  0  0  0  0  0  0  0  0  # atno 17320 bound_to 7965
  144.7845  139.6456  143.7140 LP  0  0  0  0  0  0  0  0  0  0  0  0  # atno 17321 bound_to 7965
  139.5469  144.7306  151.4555 LP  0  0  0  0  0  0  0  0  0  0  0  0  # atno 17342 bound_to 10162
  140.6757  143.8195  150.7055 LP  0  0  0  0  0  0  0  0  0  0  0  0  # atno 17343 bound_to 10162
  156.6342  130.4440  149.5775 LP  0  0  0  0  0  0  0  0  0  0  0  0  # atno 17370 bound_to 10713
  156.2258  130.6765  151.1414 LP  0  0  0  0  0  0  0  0  0  0  0  0  # atno 17371 bound_to 10713
  140.5482  134.6053  157.5400 LP  0  0  0  0  0  0  0  0  0  0  0  0  # atno 17394 bound_to 11000
  139.9617  134.7441  156.0223 LP  0  0  0  0  0  0  0  0  0  0  0  0  # atno 17395 bound_to 11000

$$$$
