AV-unprocessed.smi:1088|AV-procd|sdf|4731|dock1
  -GOLD-   22720 3263D 1   1.00000     0.00000
 Structure written by MMmdl.
 48 49  0  0  0  0  0  0  0  0  2 V2000
  145.7470  137.2931  157.7427 C   0  0  0  0  0  0  0  0  0  0  0  0
  146.4093  137.5964  156.5273 O   0  0  0  0  0  0  0  0  0  0  0  0
  147.6730  136.9619  156.4239 C   0  0  0  0  0  0  0  0  0  0  0  0
  148.2253  137.1818  155.0082 C   0  0  0  0  0  0  0  0  0  0  0  0
  147.3527  136.5884  153.9659 N   0  3  1  0  0  0  0  0  0  0  0  0
  147.0678  135.1478  154.1349 C   0  0  0  0  0  0  0  0  0  0  0  0
  145.7732  134.9096  153.3691 C   0  0  0  0  0  0  0  0  0  0  0  0
  144.9867  136.1893  153.6268 C   0  0  0  0  0  0  0  0  0  0  0  0
  146.0565  137.2890  153.7838 C   0  0  2  0  0  0  0  0  0  0  0  0
  146.1369  138.2527  152.5807 C   0  0  0  0  0  0  0  0  0  0  0  0
  147.1566  139.2797  152.7620 N   0  0  0  0  0  0  0  0  0  0  0  0
  147.3775  139.9475  153.9039 C   0  0  0  0  0  0  0  0  0  0  0  0
  146.7597  139.7245  154.9458 O   0  0  0  0  0  0  0  0  0  0  0  0
  148.4692  141.0239  153.8613 C   0  0  0  0  0  0  0  0  0  0  0  0
  149.5348  140.7794  154.8412 N   0  0  0  0  0  0  0  0  0  0  0  0
  149.7523  141.6870  155.8620 C   0  0  0  0  0  0  0  0  0  0  0  0
  150.7132  141.5370  156.7996 C   0  0  0  0  0  0  0  0  0  0  0  0
  151.6005  140.3801  156.7847 C   0  0  0  0  0  0  0  0  0  0  0  0
  152.4751  140.1947  157.6316 O   0  0  0  0  0  0  0  0  0  0  0  0
  151.3670  139.4756  155.7209 N   0  0  0  0  0  0  0  0  0  0  0  0
  152.1884  138.2863  155.6284 C   0  0  0  0  0  0  0  0  0  0  0  0
  150.3498  139.6298  154.7531 C   0  0  0  0  0  0  0  0  0  0  0  0
  150.1675  138.7978  153.8602 O   0  0  0  0  0  0  0  0  0  0  0  0
  144.7831  137.8012  157.7708 H   0  0  0  0  0  0  0  0  0  0  0  0
  146.3289  137.6277  158.6025 H   0  0  0  0  0  0  0  0  0  0  0  0
  145.5655  136.2218  157.8375 H   0  0  0  0  0  0  0  0  0  0  0  0
  148.3617  137.3437  157.1787 H   0  0  0  0  0  0  0  0  0  0  0  0
  147.5580  135.8921  156.6055 H   0  0  0  0  0  0  0  0  0  0  0  0
  148.3530  138.2478  154.8142 H   0  0  0  0  0  0  0  0  0  0  0  0
  149.2179  136.7330  154.9439 H   0  0  0  0  0  0  0  0  0  0  0  0
  147.8859  134.5277  153.7670 H   0  0  0  0  0  0  0  0  0  0  0  0
  146.9155  134.9187  155.1911 H   0  0  0  0  0  0  0  0  0  0  0  0
  145.9842  134.8117  152.3034 H   0  0  0  0  0  0  0  0  0  0  0  0
  145.2454  134.0125  153.6939 H   0  0  0  0  0  0  0  0  0  0  0  0
  144.2599  136.3897  152.8390 H   0  0  0  0  0  0  0  0  0  0  0  0
  144.4303  136.0901  154.5600 H   0  0  0  0  0  0  0  0  0  0  0  0
  145.8245  137.8570  154.6871 H   0  0  0  0  0  0  0  0  0  0  0  0
  146.3389  137.6996  151.6617 H   0  0  0  0  0  0  0  0  0  0  0  0
  145.1771  138.7497  152.4357 H   0  0  0  0  0  0  0  0  0  0  0  0
  147.7164  139.5184  151.9558 H   0  0  0  0  0  0  0  0  0  0  0  0
  148.8834  141.0479  152.8525 H   0  0  0  0  0  0  0  0  0  0  0  0
  148.0337  142.0114  154.0262 H   0  0  0  0  0  0  0  0  0  0  0  0
  149.1230  142.5635  155.9154 H   0  0  0  0  0  0  0  0  0  0  0  0
  150.8269  142.2831  157.5725 H   0  0  0  0  0  0  0  0  0  0  0  0
  152.4399  138.1195  154.5796 H   0  0  0  0  0  0  0  0  0  0  0  0
  151.5992  137.4627  156.0341 H   0  0  0  0  0  0  0  0  0  0  0  0
  153.1168  138.4168  156.1842 H   0  0  0  0  0  0  0  0  0  0  0  0
  147.8378  136.6796  153.0845 H   0  0  0  0  0  0  0  0  0  0  0  0
  1  2  1  0  0  0  0
  1 24  1  0  0  0  0
  1 25  1  0  0  0  0
  1 26  1  0  0  0  0
  2  3  1  0  0  0  0
  3  4  1  0  0  0  0
  3 27  1  0  0  0  0
  3 28  1  0  0  0  0
  4  5  1  0  0  0  0
  4 29  1  0  0  0  0
  4 30  1  0  0  0  0
  5  9  1  0  0  0  0
  5  6  1  0  0  0  0
  5 48  1  0  0  0  0
  6  7  1  0  0  0  0
  6 31  1  0  0  0  0
  6 32  1  0  0  0  0
  7  8  1  0  0  0  0
  7 33  1  0  0  0  0
  7 34  1  0  0  0  0
  8  9  1  0  0  0  0
  8 35  1  0  0  0  0
  8 36  1  0  0  0  0
  9 10  1  0  0  0  0
  9 37  1  0  0  0  0
 10 11  1  0  0  0  0
 10 38  1  0  0  0  0
 10 39  1  0  0  0  0
 11 12  1  0  0  0  0
 11 40  1  0  0  0  0
 12 13  2  0  0  0  0
 12 14  1  0  0  0  0
 14 15  1  0  0  0  0
 14 41  1  0  0  0  0
 14 42  1  0  0  0  0
 15 22  1  0  0  0  0
 15 16  1  0  0  0  0
 16 17  2  0  0  0  0
 16 43  1  0  0  0  0
 17 18  1  0  0  0  0
 17 44  1  0  0  0  0
 18 19  2  0  0  0  0
 18 20  1  0  0  0  0
 20 21  1  0  0  0  0
 20 22  1  0  0  0  0
 21 45  1  0  0  0  0
 21 46  1  0  0  0  0
 21 47  1  0  0  0  0
 22 23  2  0  0  0  0
M  CHG  1   5   1
M  END
> <s_m_source_file>
AV-unprocessed.smi

> <i_m_source_file_index>
1088

> <i_lp_mmshare_version>
43012

> <i_f3d_flags>
0

> <s_epik_input>
W0NIM11PW0NIMl1bQ0gyXU4xW0NIMl1bQ0gyXVtDSDJdW0NASF0xW0NIMl1bTkhdQyg9TylbQ0gyXW4yW2NIXVtjSF1jKD1PKW4oW0NIM10pYzI9Tw==

> <s_epik_cmdline>
J2VwaWtfcHl0aG9uJywgJy1waCcsICc3LjAnLCAnLXRuJywgJzgnLCAnLW1hJywgJzIwMCcsICctbWV0YWxfYmluZGluZycsICctaW1hZScsICc8aW5maWxlLm1hZT4nLCAnLW9tYWUnLCAnPG91dGZpbGUubWFlPic=

> <r_lp_tautomer_probability>
1

> <r_epik_Ionization_Penalty>
0.0127388

> <r_epik_Ionization_Penalty_Charging>
0.0127387

> <r_epik_Ionization_Penalty_Neutral>
8.26414e-08

> <r_epik_State_Penalty>
0.00987716

> <r_epik_Charging_Adjusted_Penalty>
0.0226159

> <i_epik_Tot_Q>
1

> <i_epik_Tot_abs_Q>
1

> <r_epik_Metal_State_Penalty>
0.00987836

> <b_epik_Metal_Only>
0

> <s_lp_Force_Field>
OPLS_2005

> <r_lp_Energy>
36.9775

> <b_lp_Chiralities_Consistent>
1

> <s_lp_Variant>
AV-unprocessed.smi:1088-4

> <Gold.Version>
5.8.1

> <Gold.Id.Protein>
6NUR|6NUR_protein|mol2

> <Gold.PLP.Fitness>
43.0561

> <Gold.PLP.PLP>
-28.1229

> <Gold.PLP.part.hbond>
-3.0000

> <Gold.PLP.part.metal>
0.0000

> <Gold.PLP.part.buried>
1.6246

> <Gold.PLP.part.nonpolar>
-25.8172

> <Gold.PLP.part.repulsive>
0.9036

> <Gold.PLP.ligand.clash>
0.0000

> <Gold.PLP.ligand.torsion>
0.1814

> <Gold.PLP.Chemscore.Hbond>
4.0000

> <Gold.PLP.Chemscore.CHOScore>
1.0000

> <Gold.PLP.Chemscore.Metal>
0.0000

> <Gold.Chemscore.Hbonds>
donor molecule, donor type, donor heavy atom, donor atom, acceptor molecule, acceptor atom, score
      L1  H     5    48       P1  7948  2.00
      L1  H    11    40       P1  7957  0.86
      P1  H  7997  8010       L1    19  0.75
      L1  C    16    43       P1  8028  1.00

> <Gold.PLP.Chemscore.Internal.Correction>
0.2961

> <Gold.Rescore>
     Score         DG    S(hbond)    S(metal)    S(lipo)     H(rot)  DE(clash)    DE(int)     intcor
      8.25     -13.05       2.63        0.00      46.00       2.57       1.25       3.56       ----

> <Gold.Chemscore.Fitness>
8.2515

> <Gold.Chemscore.DG>
-13.0529

> <Gold.Chemscore.ZeroCoef>
-5.4800

> <Gold.Chemscore.Hbond>
2.6251

> <Gold.Chemscore.Metal>
0.0000

> <Gold.Chemscore.Lipo>
46.0019

> <Gold.Chemscore.Internal_Hbond>
0.0000

> <Gold.Chemscore.DEClash>
1.2456

> <Gold.Chemscore.DEInternal>
3.5558

> <Gold.Chemscore.Rot>
2.5692

> <Gold.Chemscore.Internal.Correction>
   9.000000E+99

> <Gold.Chemscore.Hbonds>
donor molecule, donor type, donor heavy atom, donor atom, acceptor molecule, acceptor atom, score
      L1  H     5    48       P1  7948  0.98
      L1  H    11    40       P1  7957  0.79
      P1  H  7997  8010       L1    19  0.61

> <Gold.Chemscore.Hbond.Weighted>
-8.7679

> <Gold.Chemscore.Metal.Weighted>
-0.0000

> <Gold.Chemscore.Lipo.Weighted>
-5.3822

> <Gold.Chemscore.Internal_Hbond.Weighted>
0.0000

> <Gold.Chemscore.DEClash.Weighted>
1.2456

> <Gold.Chemscore.DEInternal.Weighted>
3.5558

> <Gold.Chemscore.Rot.Weighted>
6.5772

> <Gold.Chemscore.Internal.Correction.Weighted>
   9.000000E+99

> <Gold.Protein.RotatedTorsions>
[ 6907 6896 6895 6894 ] final -174.09 input  -60.11 | X-H torsion
[ 7974 7965 7964 7962 ] final -178.19 input  175.53 | X-H torsion
[ 8008 7997 7996 7995 ] final   51.52 input   59.86 | X-H torsion
[ 10167 10162 10161 10158 ] final   96.37 input  -65.29 | X-H torsion
[ 10718 10713 10712 10709 ] final  -12.01 input   66.30 | X-H torsion
[ 10763 10752 10751 10750 ] final -107.79 input  -60.55 | X-H torsion
[ 11005 11000 10999 10996 ] final  151.22 input  -57.11 | X-H torsion

> <Gold.Protein.ActiveResidues>
 VAL166  LYS551  ARG553  GLY616  TRP617  ASP618  TYR619  PRO620  LYS621  CYS622 
 ASP623  PHE694  ASN695  SER759  ASP760  ASP761  ALA762  ILE779  LEU786  VAL792 
 PHE793  MET794  SER795  GLU796  ALA797  LYS798  CYS799  TRP800  GLU811  SER814 

> <Gold.Protein.RotatedAtoms>
  151.5667  133.3395  159.2981 H   0  0  0  0  0  0  0  0  0  0  0  0  # atno 6907 bound_to 6896
  150.8391  134.7679  159.6929 H   0  0  0  0  0  0  0  0  0  0  0  0  # atno 6908 bound_to 6896
  152.4462  134.5497  159.9914 H   0  0  0  0  0  0  0  0  0  0  0  0  # atno 6909 bound_to 6896
  144.7130  140.0906  143.6421 H   0  0  0  0  0  0  0  0  0  0  0  0  # atno 7974 bound_to 7965
  155.4366  140.3453  155.4285 H   0  0  0  0  0  0  0  0  0  0  0  0  # atno 8008 bound_to 7997
  156.1304  140.1512  156.9104 H   0  0  0  0  0  0  0  0  0  0  0  0  # atno 8009 bound_to 7997
  154.4890  140.0846  156.7532 H   0  0  0  0  0  0  0  0  0  0  0  0  # atno 8010 bound_to 7997
  139.7901  144.6855  150.9904 H   0  0  0  0  0  0  0  0  0  0  0  0  # atno 10167 bound_to 10162
  156.6507  130.4954  149.6063 H   0  0  0  0  0  0  0  0  0  0  0  0  # atno 10718 bound_to 10713
  154.8097  135.4662  154.0483 H   0  0  0  0  0  0  0  0  0  0  0  0  # atno 10763 bound_to 10752
  153.1924  135.6857  153.8342 H   0  0  0  0  0  0  0  0  0  0  0  0  # atno 10764 bound_to 10752
  153.7855  135.3250  155.3349 H   0  0  0  0  0  0  0  0  0  0  0  0  # atno 10765 bound_to 10752
  140.1199  134.8870  157.2058 H   0  0  0  0  0  0  0  0  0  0  0  0  # atno 11005 bound_to 11000
  145.9623  139.2810  143.1148 LP  0  0  0  0  0  0  0  0  0  0  0  0  # atno 17320 bound_to 7965
  145.9207  140.9117  143.0406 LP  0  0  0  0  0  0  0  0  0  0  0  0  # atno 17321 bound_to 7965
  140.7820  143.4390  151.0580 LP  0  0  0  0  0  0  0  0  0  0  0  0  # atno 17342 bound_to 10162
  139.8067  143.8008  152.3168 LP  0  0  0  0  0  0  0  0  0  0  0  0  # atno 17343 bound_to 10162
  156.2086  130.6665  151.1246 LP  0  0  0  0  0  0  0  0  0  0  0  0  # atno 17370 bound_to 10713
  157.7142  131.0719  150.6390 LP  0  0  0  0  0  0  0  0  0  0  0  0  # atno 17371 bound_to 10713
  140.2978  134.3166  155.7297 LP  0  0  0  0  0  0  0  0  0  0  0  0  # atno 17394 bound_to 11000
  141.2149  133.7573  156.9597 LP  0  0  0  0  0  0  0  0  0  0  0  0  # atno 17395 bound_to 11000

$$$$
