AV-unprocessed.smi:2302|AV-procd|sdf|9237|dock4
  -GOLD-   2272012453D 1   1.00000     0.00000
 Structure written by MMmdl.
 40 41  0  0  0  0  0  0  0  0  2 V2000
  153.4923  141.3581  160.4107 C   0  0  0  0  0  0  0  0  0  0  0  0
  152.7336  142.4972  159.7628 C   0  0  0  0  0  0  0  0  0  0  0  0
  152.7905  143.7998  160.2956 C   0  0  0  0  0  0  0  0  0  0  0  0
  152.0604  144.8129  159.6490 C   0  0  0  0  0  0  0  0  0  0  0  0
  151.3067  144.4837  158.5059 C   0  0  0  0  0  0  0  0  0  0  0  0
  151.3012  143.1508  158.0370 C   0  0  0  0  0  0  0  0  0  0  0  0
  150.5096  142.9216  156.8800 N   0  0  0  0  0  0  0  0  0  0  0  0
  150.4709  141.8231  156.1055 C   0  0  0  0  0  0  0  0  0  0  0  0
  151.1405  140.8039  156.2778 O   0  0  0  0  0  0  0  0  0  0  0  0
  149.5991  141.9665  155.0969 N   0  0  0  0  0  0  0  0  0  0  0  0
  149.3139  140.9481  154.0915 C   0  0  0  0  0  0  0  0  0  0  0  0
  148.1061  140.0761  154.4791 C   0  0  1  0  0  0  0  0  0  0  0  0
  146.7911  140.6259  153.8859 C   0  0  0  0  0  0  0  0  0  0  0  0
  145.6461  139.7290  154.1743 N   0  3  2  0  0  0  0  0  0  0  0  0
  145.1240  139.8514  155.5554 C   0  0  0  0  0  0  0  0  0  0  0  0
  145.9446  138.3345  153.7708 C   0  0  0  0  0  0  0  0  0  0  0  0
  147.2887  137.8582  154.3523 C   0  0  0  0  0  0  0  0  0  0  0  0
  148.3202  138.7614  153.9732 O   0  0  0  0  0  0  0  0  0  0  0  0
  152.0107  142.1812  158.6667 N   0  0  0  0  0  0  0  0  0  0  0  0
  154.2657  141.7327  161.0820 H   0  0  0  0  0  0  0  0  0  0  0  0
  153.9737  140.7364  159.6550 H   0  0  0  0  0  0  0  0  0  0  0  0
  152.8109  140.7325  160.9877 H   0  0  0  0  0  0  0  0  0  0  0  0
  153.3765  144.0190  161.1764 H   0  0  0  0  0  0  0  0  0  0  0  0
  152.0767  145.8257  160.0237 H   0  0  0  0  0  0  0  0  0  0  0  0
  150.7387  145.2500  157.9986 H   0  0  0  0  0  0  0  0  0  0  0  0
  149.8980  143.6799  156.6164 H   0  0  0  0  0  0  0  0  0  0  0  0
  149.0905  142.8357  155.0232 H   0  0  0  0  0  0  0  0  0  0  0  0
  149.1383  141.4313  153.1288 H   0  0  0  0  0  0  0  0  0  0  0  0
  150.2014  140.3270  153.9674 H   0  0  0  0  0  0  0  0  0  0  0  0
  148.0277  140.0378  155.5666 H   0  0  0  0  0  0  0  0  0  0  0  0
  146.5849  141.6291  154.2613 H   0  0  0  0  0  0  0  0  0  0  0  0
  146.8890  140.7149  152.8031 H   0  0  0  0  0  0  0  0  0  0  0  0
  145.8550  139.5317  156.2981 H   0  0  0  0  0  0  0  0  0  0  0  0
  144.2280  139.2428  155.6792 H   0  0  0  0  0  0  0  0  0  0  0  0
  144.8515  140.8851  155.7709 H   0  0  0  0  0  0  0  0  0  0  0  0
  145.1336  137.6691  154.0693 H   0  0  0  0  0  0  0  0  0  0  0  0
  145.9908  138.2972  152.6816 H   0  0  0  0  0  0  0  0  0  0  0  0
  147.2444  137.7705  155.4386 H   0  0  0  0  0  0  0  0  0  0  0  0
  147.5315  136.8676  153.9671 H   0  0  0  0  0  0  0  0  0  0  0  0
  144.8895  140.0388  153.5807 H   0  0  0  0  0  0  0  0  0  0  0  0
  1  2  1  0  0  0  0
  1 20  1  0  0  0  0
  1 21  1  0  0  0  0
  1 22  1  0  0  0  0
  2 19  1  0  0  0  0
  2  3  2  0  0  0  0
  3  4  1  0  0  0  0
  3 23  1  0  0  0  0
  4  5  2  0  0  0  0
  4 24  1  0  0  0  0
  5  6  1  0  0  0  0
  5 25  1  0  0  0  0
  6  7  1  0  0  0  0
  6 19  2  0  0  0  0
  7  8  1  0  0  0  0
  7 26  1  0  0  0  0
  8  9  2  0  0  0  0
  8 10  1  0  0  0  0
 10 11  1  0  0  0  0
 10 27  1  0  0  0  0
 11 12  1  0  0  0  0
 11 28  1  0  0  0  0
 11 29  1  0  0  0  0
 12 18  1  0  0  0  0
 12 13  1  0  0  0  0
 12 30  1  0  0  0  0
 13 14  1  0  0  0  0
 13 31  1  0  0  0  0
 13 32  1  0  0  0  0
 14 15  1  0  0  0  0
 14 16  1  0  0  0  0
 14 40  1  0  0  0  0
 15 33  1  0  0  0  0
 15 34  1  0  0  0  0
 15 35  1  0  0  0  0
 16 17  1  0  0  0  0
 16 36  1  0  0  0  0
 16 37  1  0  0  0  0
 17 18  1  0  0  0  0
 17 38  1  0  0  0  0
 17 39  1  0  0  0  0
M  CHG  1  14   1
M  END
> <s_m_source_file>
AV-unprocessed.smi

> <i_m_source_file_index>
2302

> <i_lp_mmshare_version>
43012

> <i_f3d_flags>
0

> <s_epik_input>
W0NIM11jMVtjSF1bY0hdW2NIXWMobjEpW05IXUMoPU8pW05IXVtDSDJdW0NAQEhdMltDSDJdTihbQ0gzXSlbQ0gyXVtDSDJdTzI=

> <s_epik_cmdline>
J2VwaWtfcHl0aG9uJywgJy1waCcsICc3LjAnLCAnLXRuJywgJzgnLCAnLW1hJywgJzIwMCcsICctbWV0YWxfYmluZGluZycsICctaW1hZScsICc8aW5maWxlLm1hZT4nLCAnLW9tYWUnLCAnPG91dGZpbGUubWFlPic=

> <r_epik_Ionization_Penalty>
0.204647

> <r_epik_Ionization_Penalty_Charging>
0.204578

> <r_epik_Ionization_Penalty_Neutral>
6.91954e-05

> <r_epik_State_Penalty>
0.194513

> <r_epik_Charging_Adjusted_Penalty>
0.399091

> <i_epik_Tot_Q>
1

> <i_epik_Tot_abs_Q>
1

> <r_epik_Metal_State_Penalty>
0.194515

> <b_epik_Metal_Only>
0

> <s_lp_Force_Field>
OPLS_2005

> <r_lp_Energy>
17.5871

> <b_lp_Chiralities_Consistent>
1

> <s_lp_Variant>
AV-unprocessed.smi:2302-2

> <Gold.Version>
5.8.1

> <Gold.Id.Protein>
6NUR|6NUR_protein|mol2

> <Gold.PLP.Fitness>
45.8967

> <Gold.PLP.PLP>
-35.1908

> <Gold.PLP.part.hbond>
-3.0000

> <Gold.PLP.part.metal>
0.0000

> <Gold.PLP.part.buried>
-3.8095

> <Gold.PLP.part.nonpolar>
-28.4658

> <Gold.PLP.part.repulsive>
0.4335

> <Gold.PLP.ligand.clash>
0.0000

> <Gold.PLP.ligand.torsion>
0.6367

> <Gold.PLP.Chemscore.Hbond>
3.9920

> <Gold.PLP.Chemscore.CHOScore>
0.0000

> <Gold.PLP.Chemscore.Metal>
0.0000

> <Gold.Chemscore.Hbonds>
donor molecule, donor type, donor heavy atom, donor atom, acceptor molecule, acceptor atom, score
      L1  H     7    26       P1  8028  1.00
      L1  H    10    27       P1  8028  0.96
      L1  H    14    40       P1 10175  2.00

> <Gold.PLP.Chemscore.Internal.Correction>
0.0032

> <Gold.Rescore>
     Score         DG    S(hbond)    S(metal)    S(lipo)     H(rot)  DE(clash)    DE(int)     intcor
     19.83     -21.82       2.95        0.00      83.46       1.27       0.03       1.96       ----

> <Gold.Chemscore.Fitness>
19.8297

> <Gold.Chemscore.DG>
-21.8231

> <Gold.Chemscore.ZeroCoef>
-5.4800

> <Gold.Chemscore.Hbond>
2.9455

> <Gold.Chemscore.Metal>
0.0000

> <Gold.Chemscore.Lipo>
83.4650

> <Gold.Chemscore.Internal_Hbond>
0.0000

> <Gold.Chemscore.DEClash>
0.0309

> <Gold.Chemscore.DEInternal>
1.9625

> <Gold.Chemscore.Rot>
1.2736

> <Gold.Chemscore.Internal.Correction>
   9.000000E+99

> <Gold.Chemscore.Hbonds>
donor molecule, donor type, donor heavy atom, donor atom, acceptor molecule, acceptor atom, score
      L1  H     7    26       P1  8028  1.00
      L1  H    10    27       P1  8028  0.90
      L1  H    14    40       P1 10175  1.00

> <Gold.Chemscore.Hbond.Weighted>
-9.8380

> <Gold.Chemscore.Metal.Weighted>
-0.0000

> <Gold.Chemscore.Lipo.Weighted>
-9.7654

> <Gold.Chemscore.Internal_Hbond.Weighted>
0.0000

> <Gold.Chemscore.DEClash.Weighted>
0.0309

> <Gold.Chemscore.DEInternal.Weighted>
1.9625

> <Gold.Chemscore.Rot.Weighted>
3.2603

> <Gold.Chemscore.Internal.Correction.Weighted>
   9.000000E+99

> <Gold.Protein.RotatedTorsions>
[ 6907 6896 6895 6894 ] final  161.54 input  -60.11 | X-H torsion
[ 7974 7965 7964 7962 ] final   29.74 input  175.53 | X-H torsion
[ 8008 7997 7996 7995 ] final  -56.23 input   59.86 | X-H torsion
[ 10167 10162 10161 10158 ] final -122.47 input  -65.29 | X-H torsion
[ 10718 10713 10712 10709 ] final -175.51 input   66.30 | X-H torsion
[ 10763 10752 10751 10750 ] final  104.04 input  -60.55 | X-H torsion
[ 11005 11000 10999 10996 ] final   97.67 input  -57.11 | X-H torsion

> <Gold.Protein.ActiveResidues>
 VAL166  LYS551  ARG553  GLY616  TRP617  ASP618  TYR619  PRO620  LYS621  CYS622 
 ASP623  PHE694  ASN695  SER759  ASP760  ASP761  ALA762  ILE779  LEU786  VAL792 
 PHE793  MET794  SER795  GLU796  ALA797  LYS798  CYS799  TRP800  GLU811  SER814 

> <Gold.Protein.RotatedAtoms>
  151.9540  133.3674  159.4010 H   0  0  0  0  0  0  0  0  0  0  0  0  # atno 6907 bound_to 6896
  150.6976  134.4310  159.5258 H   0  0  0  0  0  0  0  0  0  0  0  0  # atno 6908 bound_to 6896
  152.1988  134.8606  160.0561 H   0  0  0  0  0  0  0  0  0  0  0  0  # atno 6909 bound_to 6896
  146.1654  139.6882  142.9005 H   0  0  0  0  0  0  0  0  0  0  0  0  # atno 7974 bound_to 7965
  154.4223  140.1134  156.5604 H   0  0  0  0  0  0  0  0  0  0  0  0  # atno 8008 bound_to 7997
  155.6317  140.3495  155.4666 H   0  0  0  0  0  0  0  0  0  0  0  0  # atno 8009 bound_to 7997
  155.9942  140.1186  157.0599 H   0  0  0  0  0  0  0  0  0  0  0  0  # atno 8010 bound_to 7997
  140.0139  143.5414  152.2251 H   0  0  0  0  0  0  0  0  0  0  0  0  # atno 10167 bound_to 10162
  156.8009  130.9552  151.3118 H   0  0  0  0  0  0  0  0  0  0  0  0  # atno 10718 bound_to 10713
  153.3606  135.3956  155.1715 H   0  0  0  0  0  0  0  0  0  0  0  0  # atno 10763 bound_to 10752
  154.8678  135.3678  154.5104 H   0  0  0  0  0  0  0  0  0  0  0  0  # atno 10764 bound_to 10752
  153.5563  135.7082  153.5628 H   0  0  0  0  0  0  0  0  0  0  0  0  # atno 10765 bound_to 10752
  139.8775  134.9012  156.4342 H   0  0  0  0  0  0  0  0  0  0  0  0  # atno 11005 bound_to 11000
  145.4482  141.0427  143.2819 LP  0  0  0  0  0  0  0  0  0  0  0  0  # atno 17320 bound_to 7965
  144.8085  139.6007  143.7040 LP  0  0  0  0  0  0  0  0  0  0  0  0  # atno 17321 bound_to 7965
  139.6186  144.7624  151.2790 LP  0  0  0  0  0  0  0  0  0  0  0  0  # atno 17342 bound_to 10162
  140.7370  143.6690  150.8098 LP  0  0  0  0  0  0  0  0  0  0  0  0  # atno 17343 bound_to 10162
  157.6554  130.8920  149.9718 LP  0  0  0  0  0  0  0  0  0  0  0  0  # atno 17370 bound_to 10713
  156.1102  130.3650  150.0063 LP  0  0  0  0  0  0  0  0  0  0  0  0  # atno 17371 bound_to 10713
  140.9045  133.7756  155.9719 LP  0  0  0  0  0  0  0  0  0  0  0  0  # atno 17394 bound_to 11000
  140.8614  134.2835  157.5232 LP  0  0  0  0  0  0  0  0  0  0  0  0  # atno 17395 bound_to 11000

$$$$
