AV-unprocessed.smi:1239|AV-procd|sdf|5193|dock6
  -GOLD-   22720 4273D 1   1.00000     0.00000
 Structure written by MMmdl.
 48 49  0  0  0  0  0  0  0  0  4 V2000
  150.8060  134.6929  156.0286 C   0  0  0  0  0  0  0  0  0  0  0  0
  150.1503  135.2999  154.7623 C   0  0  2  0  0  0  0  0  0  0  0  0
  149.7045  136.7807  154.9211 C   0  0  0  0  0  0  0  0  0  0  0  0
  150.8471  137.6919  154.8367 N   0  5  0  0  0  0  0  0  0  0  0  0
  150.7984  139.0295  155.0780 C   0  0  0  0  0  0  0  0  0  0  0  0
  150.4693  139.9241  154.2909 O   0  0  0  0  0  0  0  0  0  0  0  0
  151.1976  139.3306  156.3265 N   0  0  0  0  0  0  0  0  0  0  0  0
  151.2533  140.5930  156.9762 C   0  0  0  0  0  0  0  0  0  0  0  0
  151.9772  140.6781  158.1828 C   0  0  0  0  0  0  0  0  0  0  0  0
  152.0412  141.9028  158.8783 C   0  0  0  0  0  0  0  0  0  0  0  0
  151.3685  143.0396  158.3664 C   0  0  0  0  0  0  0  0  0  0  0  0
  151.3824  144.2986  159.0050 N   0  0  0  0  0  0  0  0  0  0  0  0
  152.0190  144.4413  160.3097 C   0  0  0  0  0  0  0  0  0  0  0  0
  150.8427  145.4647  158.3181 C   0  0  0  0  0  0  0  0  0  0  0  0
  150.6745  142.9047  157.2099 N   0  3  0  0  0  0  0  0  0  0  0  0
  150.5878  141.7517  156.5119 C   0  0  0  0  0  0  0  0  0  0  0  0
  149.0236  134.4684  154.2356 N   0  3  0  0  0  0  0  0  0  0  0  0
  149.3807  133.0420  154.0342 C   0  0  0  0  0  0  0  0  0  0  0  0
  148.2380  132.3037  153.3161 C   0  0  0  0  0  0  0  0  0  0  0  0
  147.0327  132.4380  154.0595 O   0  0  0  0  0  0  0  0  0  0  0  0
  146.6366  133.7979  154.1931 C   0  0  0  0  0  0  0  0  0  0  0  0
  147.7227  134.5748  154.9538 C   0  0  0  0  0  0  0  0  0  0  0  0
  151.7200  135.2216  156.3054 H   0  0  0  0  0  0  0  0  0  0  0  0
  151.0912  133.6548  155.8577 H   0  0  0  0  0  0  0  0  0  0  0  0
  150.1458  134.7132  156.8974 H   0  0  0  0  0  0  0  0  0  0  0  0
  150.9178  135.3016  153.9869 H   0  0  0  0  0  0  0  0  0  0  0  0
  148.9568  137.0071  154.1591 H   0  0  0  0  0  0  0  0  0  0  0  0
  149.1821  136.8925  155.8711 H   0  0  0  0  0  0  0  0  0  0  0  0
  151.5424  138.5495  156.8653 H   0  0  0  0  0  0  0  0  0  0  0  0
  152.4865  139.8097  158.5753 H   0  0  0  0  0  0  0  0  0  0  0  0
  152.6061  141.9469  159.7973 H   0  0  0  0  0  0  0  0  0  0  0  0
  153.0763  144.1800  160.2508 H   0  0  0  0  0  0  0  0  0  0  0  0
  151.5409  143.7906  161.0425 H   0  0  0  0  0  0  0  0  0  0  0  0
  151.9473  145.4654  160.6769 H   0  0  0  0  0  0  0  0  0  0  0  0
  149.7834  145.3253  158.1003 H   0  0  0  0  0  0  0  0  0  0  0  0
  151.3727  145.6363  157.3807 H   0  0  0  0  0  0  0  0  0  0  0  0
  150.9410  146.3641  158.9265 H   0  0  0  0  0  0  0  0  0  0  0  0
  149.9779  141.8037  155.6227 H   0  0  0  0  0  0  0  0  0  0  0  0
  150.2898  132.9615  153.4372 H   0  0  0  0  0  0  0  0  0  0  0  0
  149.5851  132.5735  154.9979 H   0  0  0  0  0  0  0  0  0  0  0  0
  148.0994  132.6919  152.3059 H   0  0  0  0  0  0  0  0  0  0  0  0
  148.4775  131.2448  153.2194 H   0  0  0  0  0  0  0  0  0  0  0  0
  146.4564  134.2382  153.2110 H   0  0  0  0  0  0  0  0  0  0  0  0
  145.6937  133.8385  154.7387 H   0  0  0  0  0  0  0  0  0  0  0  0
  147.8125  134.1687  155.9620 H   0  0  0  0  0  0  0  0  0  0  0  0
  147.4204  135.6176  155.0530 H   0  0  0  0  0  0  0  0  0  0  0  0
  150.1828  143.7206  156.8455 H   0  0  0  0  0  0  0  0  0  0  0  0
  148.8582  134.8302  153.3068 H   0  0  0  0  0  0  0  0  0  0  0  0
  1  2  1  0  0  0  0
  1 23  1  0  0  0  0
  1 24  1  0  0  0  0
  1 25  1  0  0  0  0
  2  3  1  0  0  0  0
  2 17  1  0  0  0  0
  2 26  1  0  0  0  0
  3  4  1  0  0  0  0
  3 27  1  0  0  0  0
  3 28  1  0  0  0  0
  4  5  1  0  0  0  0
  5  6  2  0  0  0  0
  5  7  1  0  0  0  0
  7  8  1  0  0  0  0
  7 29  1  0  0  0  0
  8 16  1  0  0  0  0
  8  9  2  0  0  0  0
  9 10  1  0  0  0  0
  9 30  1  0  0  0  0
 10 11  2  0  0  0  0
 10 31  1  0  0  0  0
 11 12  1  0  0  0  0
 11 15  1  0  0  0  0
 12 13  1  0  0  0  0
 12 14  1  0  0  0  0
 13 32  1  0  0  0  0
 13 33  1  0  0  0  0
 13 34  1  0  0  0  0
 14 35  1  0  0  0  0
 14 36  1  0  0  0  0
 14 37  1  0  0  0  0
 15 16  2  0  0  0  0
 15 47  1  0  0  0  0
 16 38  1  0  0  0  0
 17 22  1  0  0  0  0
 17 18  1  0  0  0  0
 17 48  1  0  0  0  0
 18 19  1  0  0  0  0
 18 39  1  0  0  0  0
 18 40  1  0  0  0  0
 19 20  1  0  0  0  0
 19 41  1  0  0  0  0
 19 42  1  0  0  0  0
 20 21  1  0  0  0  0
 21 22  1  0  0  0  0
 21 43  1  0  0  0  0
 21 44  1  0  0  0  0
 22 45  1  0  0  0  0
 22 46  1  0  0  0  0
M  CHG  1   4  -1
M  CHG  1  15   1
M  CHG  1  17   1
M  END
> <s_m_source_file>
AV-unprocessed.smi

> <i_m_source_file_index>
1239

> <i_lp_mmshare_version>
43012

> <i_f3d_flags>
0

> <s_epik_input>
W0NIMl0xW0NIMl1PW0NIMl1bQ0gyXU4xW0NASF0oW0NIM10pW0NIMl1bTkhdQyg9TylbTkhdYzJbY0hdW2NIXWMoTihbQ0gzXSlbQ0gzXSluW2NIXTI=

> <s_epik_cmdline>
J2VwaWtfcHl0aG9uJywgJy1waCcsICc3LjAnLCAnLXRuJywgJzgnLCAnLW1hJywgJzIwMCcsICctbWV0YWxfYmluZGluZycsICctaW1hZScsICc8aW5maWxlLm1hZT4nLCAnLW9tYWUnLCAnPG91dGZpbGUubWFlPic=

> <r_lp_tautomer_probability>
0.999994

> <r_epik_Ionization_Penalty>
7.43905

> <r_epik_Ionization_Penalty_Charging>
7.43905

> <r_epik_Ionization_Penalty_Neutral>
3.43851e-06

> <r_epik_State_Penalty>
7.63789

> <r_epik_Charging_Adjusted_Penalty>
15.0769

> <i_epik_Tot_Q>
1

> <i_epik_Tot_abs_Q>
3

> <r_epik_Metal_State_Penalty>
3.83826

> <b_epik_Metal_Only>
1

> <s_lp_Force_Field>
OPLS_2005

> <r_lp_Energy>
24.2949

> <b_lp_Chiralities_Consistent>
1

> <s_lp_Variant>
AV-unprocessed.smi:1239-9

> <Gold.Version>
5.8.1

> <Gold.Id.Protein>
6NUR|6NUR_protein|mol2

> <Gold.PLP.Fitness>
48.2016

> <Gold.PLP.PLP>
-35.4451

> <Gold.PLP.part.hbond>
-3.0000

> <Gold.PLP.part.metal>
0.0000

> <Gold.PLP.part.buried>
-3.4436

> <Gold.PLP.part.nonpolar>
-29.4644

> <Gold.PLP.part.repulsive>
0.4616

> <Gold.PLP.ligand.clash>
0.0000

> <Gold.PLP.ligand.torsion>
1.1721

> <Gold.PLP.Chemscore.Hbond>
4.9500

> <Gold.PLP.Chemscore.CHOScore>
0.0000

> <Gold.PLP.Chemscore.Metal>
0.0000

> <Gold.Chemscore.Hbonds>
donor molecule, donor type, donor heavy atom, donor atom, acceptor molecule, acceptor atom, score
      L1  H    15    47       P1  8028  2.00
      L1  H    17    48       P1  7948  2.00
      P1  H  7989  7998       L1     6  1.00

> <Gold.PLP.Chemscore.Internal.Correction>
0.2508

> <Gold.Rescore>
     Score         DG    S(hbond)    S(metal)    S(lipo)     H(rot)  DE(clash)    DE(int)     intcor
     16.78     -19.29       2.39        0.00      82.33       1.48       0.09       2.42       ----

> <Gold.Chemscore.Fitness>
16.7841

> <Gold.Chemscore.DG>
-19.2929

> <Gold.Chemscore.ZeroCoef>
-5.4800

> <Gold.Chemscore.Hbond>
2.3881

> <Gold.Chemscore.Metal>
0.0000

> <Gold.Chemscore.Lipo>
82.3338

> <Gold.Chemscore.Internal_Hbond>
0.0000

> <Gold.Chemscore.DEClash>
0.0913

> <Gold.Chemscore.DEInternal>
2.4174

> <Gold.Chemscore.Rot>
1.4830

> <Gold.Chemscore.Internal.Correction>
   9.000000E+99

> <Gold.Chemscore.Hbonds>
donor molecule, donor type, donor heavy atom, donor atom, acceptor molecule, acceptor atom, score
      L1  H    15    47       P1  8028  0.94
      L1  H    17    48       P1  7948  0.29
      P1  H  7989  7998       L1     6  0.99

> <Gold.Chemscore.Hbond.Weighted>
-7.9763

> <Gold.Chemscore.Metal.Weighted>
-0.0000

> <Gold.Chemscore.Lipo.Weighted>
-9.6331

> <Gold.Chemscore.Internal_Hbond.Weighted>
0.0000

> <Gold.Chemscore.DEClash.Weighted>
0.0913

> <Gold.Chemscore.DEInternal.Weighted>
2.4174

> <Gold.Chemscore.Rot.Weighted>
3.7964

> <Gold.Chemscore.Internal.Correction.Weighted>
   9.000000E+99

> <Gold.Protein.RotatedTorsions>
[ 6907 6896 6895 6894 ] final   16.90 input  -60.11 | X-H torsion
[ 7974 7965 7964 7962 ] final  -17.02 input  175.53 | X-H torsion
[ 8008 7997 7996 7995 ] final  -45.60 input   59.86 | X-H torsion
[ 10167 10162 10161 10158 ] final  -20.37 input  -65.29 | X-H torsion
[ 10718 10713 10712 10709 ] final  140.47 input   66.30 | X-H torsion
[ 10763 10752 10751 10750 ] final  103.54 input  -60.55 | X-H torsion
[ 11005 11000 10999 10996 ] final -151.42 input  -57.11 | X-H torsion

> <Gold.Protein.ActiveResidues>
 VAL166  LYS551  ARG553  GLY616  TRP617  ASP618  TYR619  PRO620  LYS621  CYS622 
 ASP623  PHE694  ASN695  SER759  ASP760  ASP761  ALA762  ILE779  LEU786  VAL792 
 PHE793  MET794  SER795  GLU796  ALA797  LYS798  CYS799  TRP800  GLU811  SER814 

> <Gold.Protein.RotatedAtoms>
  151.8412  135.0589  160.0447 H   0  0  0  0  0  0  0  0  0  0  0  0  # atno 6907 bound_to 6896
  152.2808  133.5464  159.5505 H   0  0  0  0  0  0  0  0  0  0  0  0  # atno 6908 bound_to 6896
  150.7188  134.0483  159.3832 H   0  0  0  0  0  0  0  0  0  0  0  0  # atno 6909 bound_to 6896
  146.1961  140.3719  142.8440 H   0  0  0  0  0  0  0  0  0  0  0  0  # atno 7974 bound_to 7965
  154.4002  140.1393  156.3873 H   0  0  0  0  0  0  0  0  0  0  0  0  # atno 8008 bound_to 7997
  155.7947  140.3478  155.5348 H   0  0  0  0  0  0  0  0  0  0  0  0  # atno 8009 bound_to 7997
  155.8544  140.0946  157.1644 H   0  0  0  0  0  0  0  0  0  0  0  0  # atno 8010 bound_to 7997
  140.7275  143.4728  151.0223 H   0  0  0  0  0  0  0  0  0  0  0  0  # atno 10167 bound_to 10162
  157.4029  131.1019  151.0533 H   0  0  0  0  0  0  0  0  0  0  0  0  # atno 10718 bound_to 10713
  153.3540  135.3973  155.1668 H   0  0  0  0  0  0  0  0  0  0  0  0  # atno 10763 bound_to 10752
  154.8667  135.3663  154.5185 H   0  0  0  0  0  0  0  0  0  0  0  0  # atno 10764 bound_to 10752
  153.5639  135.7080  153.5595 H   0  0  0  0  0  0  0  0  0  0  0  0  # atno 10765 bound_to 10752
  140.7298  134.3634  157.5169 H   0  0  0  0  0  0  0  0  0  0  0  0  # atno 11005 bound_to 11000
  144.8583  140.7102  143.6124 LP  0  0  0  0  0  0  0  0  0  0  0  0  # atno 17320 bound_to 7965
  145.3640  139.1675  143.4368 LP  0  0  0  0  0  0  0  0  0  0  0  0  # atno 17321 bound_to 7965
  139.8422  143.7549  152.3180 LP  0  0  0  0  0  0  0  0  0  0  0  0  # atno 17342 bound_to 10162
  139.7702  144.7479  151.0236 LP  0  0  0  0  0  0  0  0  0  0  0  0  # atno 17343 bound_to 10162
  157.1526  130.6191  149.5587 LP  0  0  0  0  0  0  0  0  0  0  0  0  # atno 17370 bound_to 10713
  155.9828  130.4844  150.6901 LP  0  0  0  0  0  0  0  0  0  0  0  0  # atno 17371 bound_to 10713
  139.8829  134.9010  156.2802 LP  0  0  0  0  0  0  0  0  0  0  0  0  # atno 17394 bound_to 11000
  140.9931  133.7196  156.0844 LP  0  0  0  0  0  0  0  0  0  0  0  0  # atno 17395 bound_to 11000

$$$$
