AV-unprocessed.smi:830|AV-procd|sdf|3872|dock3
  -GOLD-   22720 1323D 1   1.00000     0.00000
 Structure written by MMmdl.
 53 55  0  0  0  0  0  0  0  0  2 V2000
  152.6135  137.7665  154.2239 C   0  0  0  0  0  0  0  0  0  0  0  0
  151.2594  137.7173  154.9511 C   0  0  2  0  0  0  0  0  0  0  0  0
  150.4107  136.6714  154.3829 N   0  0  0  0  0  0  0  0  0  0  0  0
  150.4543  135.3698  154.6993 C   0  0  0  0  0  0  0  0  0  0  0  0
  151.2444  134.8909  155.5123 O   0  0  0  0  0  0  0  0  0  0  0  0
  149.5434  134.6718  154.0007 N   0  0  0  0  0  0  0  0  0  0  0  0
  149.3001  133.2689  154.0225 C   0  0  0  0  0  0  0  0  0  0  0  0
  150.0980  132.3935  154.8039 C   0  0  0  0  0  0  0  0  0  0  0  0
  149.8467  131.0088  154.7868 C   0  0  0  0  0  0  0  0  0  0  0  0
  148.7972  130.5181  153.9918 C   0  0  0  0  0  0  0  0  0  0  0  0
  148.0430  131.3776  153.2765 N   0  3  0  0  0  0  0  0  0  0  0  0
  148.2249  132.7219  153.2627 C   0  0  0  0  0  0  0  0  0  0  0  0
  147.3437  133.4966  152.4736 N   0  0  0  0  0  0  0  0  0  0  0  0
  146.5413  132.8695  151.4297 C   0  0  0  0  0  0  0  0  0  0  0  0
  145.4964  133.9157  151.0515 C   0  0  0  0  0  0  0  0  0  0  0  0
  145.2164  134.5959  152.3881 C   0  0  0  0  0  0  0  0  0  0  0  0
  146.5718  134.5636  153.1029 C   0  0  0  0  0  0  0  0  0  0  0  0
  150.5317  139.0664  154.9724 C   0  0  0  0  0  0  0  0  0  0  0  0
  150.1649  139.5978  153.9231 O   0  0  0  0  0  0  0  0  0  0  0  0
  150.3419  139.6189  156.1803 N   0  0  0  0  0  0  0  0  0  0  0  0
  149.6829  140.8990  156.4240 C   0  0  0  0  0  0  0  0  0  0  0  0
  150.5689  142.0630  155.9436 C   0  0  0  0  0  0  0  0  0  0  0  0
  151.0904  142.7441  157.2091 C   0  0  0  0  0  0  0  0  0  0  0  0
  149.9726  142.5412  158.2272 C   0  0  0  0  0  0  0  0  0  0  0  0
  149.4391  141.1389  157.9287 C   0  0  0  0  0  0  0  0  0  0  0  0
  153.2607  138.5361  154.6458 H   0  0  0  0  0  0  0  0  0  0  0  0
  152.4863  137.9848  153.1629 H   0  0  0  0  0  0  0  0  0  0  0  0
  153.1423  136.8165  154.3068 H   0  0  0  0  0  0  0  0  0  0  0  0
  151.4531  137.4595  155.9944 H   0  0  0  0  0  0  0  0  0  0  0  0
  149.7281  136.9749  153.7035 H   0  0  0  0  0  0  0  0  0  0  0  0
  149.0332  135.1905  153.3010 H   0  0  0  0  0  0  0  0  0  0  0  0
  150.9000  132.7634  155.4244 H   0  0  0  0  0  0  0  0  0  0  0  0
  150.4521  130.3342  155.3743 H   0  0  0  0  0  0  0  0  0  0  0  0
  148.5334  129.4734  153.9132 H   0  0  0  0  0  0  0  0  0  0  0  0
  147.1532  132.5804  150.5747 H   0  0  0  0  0  0  0  0  0  0  0  0
  146.0437  131.9787  151.8148 H   0  0  0  0  0  0  0  0  0  0  0  0
  145.9227  134.6344  150.3501 H   0  0  0  0  0  0  0  0  0  0  0  0
  144.6056  133.4825  150.5957 H   0  0  0  0  0  0  0  0  0  0  0  0
  144.8198  135.6056  152.2783 H   0  0  0  0  0  0  0  0  0  0  0  0
  144.4896  134.0087  152.9513 H   0  0  0  0  0  0  0  0  0  0  0  0
  146.4507  134.4078  154.1757 H   0  0  0  0  0  0  0  0  0  0  0  0
  147.0933  135.5091  152.9520 H   0  0  0  0  0  0  0  0  0  0  0  0
  150.6791  139.1183  156.9897 H   0  0  0  0  0  0  0  0  0  0  0  0
  148.7376  140.9292  155.8787 H   0  0  0  0  0  0  0  0  0  0  0  0
  151.3782  141.7495  155.2826 H   0  0  0  0  0  0  0  0  0  0  0  0
  149.9567  142.7716  155.3837 H   0  0  0  0  0  0  0  0  0  0  0  0
  151.9958  142.2415  157.5518 H   0  0  0  0  0  0  0  0  0  0  0  0
  151.3307  143.7959  157.0517 H   0  0  0  0  0  0  0  0  0  0  0  0
  150.3157  142.6496  159.2564 H   0  0  0  0  0  0  0  0  0  0  0  0
  149.1856  143.2773  158.0587 H   0  0  0  0  0  0  0  0  0  0  0  0
  148.3864  141.0388  158.1948 H   0  0  0  0  0  0  0  0  0  0  0  0
  149.9923  140.4146  158.5290 H   0  0  0  0  0  0  0  0  0  0  0  0
  147.2822  130.9918  152.7174 H   0  0  0  0  0  0  0  0  0  0  0  0
  1  2  1  0  0  0  0
  1 26  1  0  0  0  0
  1 27  1  0  0  0  0
  1 28  1  0  0  0  0
  2  3  1  0  0  0  0
  2 18  1  0  0  0  0
  2 29  1  0  0  0  0
  3  4  1  0  0  0  0
  3 30  1  0  0  0  0
  4  5  2  0  0  0  0
  4  6  1  0  0  0  0
  6  7  1  0  0  0  0
  6 31  1  0  0  0  0
  7 12  1  0  0  0  0
  7  8  2  0  0  0  0
  8  9  1  0  0  0  0
  8 32  1  0  0  0  0
  9 10  2  0  0  0  0
  9 33  1  0  0  0  0
 10 11  1  0  0  0  0
 10 34  1  0  0  0  0
 11 12  2  0  0  0  0
 11 53  1  0  0  0  0
 12 13  1  0  0  0  0
 13 17  1  0  0  0  0
 13 14  1  0  0  0  0
 14 15  1  0  0  0  0
 14 35  1  0  0  0  0
 14 36  1  0  0  0  0
 15 16  1  0  0  0  0
 15 37  1  0  0  0  0
 15 38  1  0  0  0  0
 16 17  1  0  0  0  0
 16 39  1  0  0  0  0
 16 40  1  0  0  0  0
 17 41  1  0  0  0  0
 17 42  1  0  0  0  0
 18 19  2  0  0  0  0
 18 20  1  0  0  0  0
 20 21  1  0  0  0  0
 20 43  1  0  0  0  0
 21 25  1  0  0  0  0
 21 22  1  0  0  0  0
 21 44  1  0  0  0  0
 22 23  1  0  0  0  0
 22 45  1  0  0  0  0
 22 46  1  0  0  0  0
 23 24  1  0  0  0  0
 23 47  1  0  0  0  0
 23 48  1  0  0  0  0
 24 25  1  0  0  0  0
 24 49  1  0  0  0  0
 24 50  1  0  0  0  0
 25 51  1  0  0  0  0
 25 52  1  0  0  0  0
M  CHG  1  11   1
M  END
> <s_m_source_file>
AV-unprocessed.smi

> <i_m_source_file_index>
830

> <i_lp_mmshare_version>
43012

> <i_f3d_flags>
0

> <s_epik_input>
W0NIMl0xW0NIMl1bQ0gyXVtDSDJdW0NIXTFbTkhdQyg9TylbQ0BIXShbQ0gzXSlbTkhdQyg9TylbTkhdYzJbY0hdW2NIXVtjSF1uYzJOM1tDSDJdW0NIMl1bQ0gyXVtDSDJdMw==

> <s_epik_cmdline>
J2VwaWtfcHl0aG9uJywgJy1waCcsICc3LjAnLCAnLXRuJywgJzgnLCAnLW1hJywgJzIwMCcsICctbWV0YWxfYmluZGluZycsICctaW1hZScsICc8aW5maWxlLm1hZT4nLCAnLW9tYWUnLCAnPG91dGZpbGUubWFlPic=

> <r_lp_tautomer_probability>
0.999994

> <r_epik_Ionization_Penalty>
1.21091

> <r_epik_Ionization_Penalty_Charging>
1.21089

> <r_epik_Ionization_Penalty_Neutral>
1.88713e-05

> <r_epik_State_Penalty>
1.27732

> <r_epik_Charging_Adjusted_Penalty>
2.48821

> <i_epik_Tot_Q>
1

> <i_epik_Tot_abs_Q>
1

> <r_epik_Metal_State_Penalty>
1.3505

> <b_epik_Metal_Only>
0

> <s_lp_Force_Field>
OPLS_2005

> <r_lp_Energy>
52.1076

> <b_lp_Chiralities_Consistent>
1

> <s_lp_Variant>
AV-unprocessed.smi:830-3

> <Gold.Version>
5.8.1

> <Gold.Id.Protein>
6NUR|6NUR_protein|mol2

> <Gold.PLP.Fitness>
46.7932

> <Gold.PLP.PLP>
-37.4823

> <Gold.PLP.part.hbond>
-5.7512

> <Gold.PLP.part.metal>
0.0000

> <Gold.PLP.part.buried>
0.0303

> <Gold.PLP.part.nonpolar>
-33.6986

> <Gold.PLP.part.repulsive>
2.0763

> <Gold.PLP.ligand.clash>
0.0000

> <Gold.PLP.ligand.torsion>
0.7123

> <Gold.PLP.Chemscore.Hbond>
3.4214

> <Gold.PLP.Chemscore.CHOScore>
0.0000

> <Gold.PLP.Chemscore.Metal>
0.0000

> <Gold.Chemscore.Hbonds>
donor molecule, donor type, donor heavy atom, donor atom, acceptor molecule, acceptor atom, score
      L1  H     3    30       P1  7948  0.58
      L1  H     6    31       P1  7948  1.00
      P1  H  7989  7998       L1    19  1.00
      P1  H 10752 10764       L1     5  0.83

> <Gold.PLP.Chemscore.Internal.Correction>
0.4712

> <Gold.Rescore>
     Score         DG    S(hbond)    S(metal)    S(lipo)     H(rot)  DE(clash)    DE(int)     intcor
     14.52     -17.44       1.89        0.00      84.68       1.67       0.87       2.05       ----

> <Gold.Chemscore.Fitness>
14.5244

> <Gold.Chemscore.DG>
-17.4392

> <Gold.Chemscore.ZeroCoef>
-5.4800

> <Gold.Chemscore.Hbond>
1.8925

> <Gold.Chemscore.Metal>
0.0000

> <Gold.Chemscore.Lipo>
84.6778

> <Gold.Chemscore.Internal_Hbond>
0.0000

> <Gold.Chemscore.DEClash>
0.8685

> <Gold.Chemscore.DEInternal>
2.0462

> <Gold.Chemscore.Rot>
1.6676

> <Gold.Chemscore.Internal.Correction>
   9.000000E+99

> <Gold.Chemscore.Hbonds>
donor molecule, donor type, donor heavy atom, donor atom, acceptor molecule, acceptor atom, score
      L1  H     3    30       P1  7948  0.40
      L1  H     6    31       P1  7948  0.33
      P1  H  7989  7998       L1    19  0.46
      P1  H 10752 10764       L1     5  0.41

> <Gold.Chemscore.Hbond.Weighted>
-6.3210

> <Gold.Chemscore.Metal.Weighted>
-0.0000

> <Gold.Chemscore.Lipo.Weighted>
-9.9073

> <Gold.Chemscore.Internal_Hbond.Weighted>
0.0000

> <Gold.Chemscore.DEClash.Weighted>
0.8685

> <Gold.Chemscore.DEInternal.Weighted>
2.0462

> <Gold.Chemscore.Rot.Weighted>
4.2691

> <Gold.Chemscore.Internal.Correction.Weighted>
   9.000000E+99

> <Gold.Protein.RotatedTorsions>
[ 6907 6896 6895 6894 ] final   78.38 input  -60.11 | X-H torsion
[ 7974 7965 7964 7962 ] final -132.86 input  175.53 | X-H torsion
[ 8008 7997 7996 7995 ] final   57.55 input   59.86 | X-H torsion
[ 10167 10162 10161 10158 ] final  -20.18 input  -65.29 | X-H torsion
[ 10718 10713 10712 10709 ] final  125.13 input   66.30 | X-H torsion
[ 10763 10752 10751 10750 ] final  -39.49 input  -60.55 | X-H torsion
[ 11005 11000 10999 10996 ] final   42.64 input  -57.11 | X-H torsion

> <Gold.Protein.ActiveResidues>
 VAL166  LYS551  ARG553  GLY616  TRP617  ASP618  TYR619  PRO620  LYS621  CYS622 
 ASP623  PHE694  ASN695  SER759  ASP760  ASP761  ALA762  ILE779  LEU786  VAL792 
 PHE793  MET794  SER795  GLU796  ALA797  LYS798  CYS799  TRP800  GLU811  SER814 

> <Gold.Protein.RotatedAtoms>
  152.5157  134.3674  159.9305 H   0  0  0  0  0  0  0  0  0  0  0  0  # atno 6907 bound_to 6896
  151.3627  133.3877  159.2699 H   0  0  0  0  0  0  0  0  0  0  0  0  # atno 6908 bound_to 6896
  150.9639  134.9042  159.7805 H   0  0  0  0  0  0  0  0  0  0  0  0  # atno 6909 bound_to 6896
  144.9246  140.7056  143.4944 H   0  0  0  0  0  0  0  0  0  0  0  0  # atno 7974 bound_to 7965
  155.5355  140.3483  155.4435 H   0  0  0  0  0  0  0  0  0  0  0  0  # atno 8008 bound_to 7997
  156.0688  140.1358  156.9880 H   0  0  0  0  0  0  0  0  0  0  0  0  # atno 8009 bound_to 7997
  154.4517  140.0970  156.6612 H   0  0  0  0  0  0  0  0  0  0  0  0  # atno 8010 bound_to 7997
  140.7274  143.4747  151.0198 H   0  0  0  0  0  0  0  0  0  0  0  0  # atno 10167 bound_to 10162
  157.5528  131.1093  150.8672 H   0  0  0  0  0  0  0  0  0  0  0  0  # atno 10718 bound_to 10713
  153.9303  135.6772  153.4745 H   0  0  0  0  0  0  0  0  0  0  0  0  # atno 10763 bound_to 10752
  153.0983  135.4840  154.8817 H   0  0  0  0  0  0  0  0  0  0  0  0  # atno 10764 bound_to 10752
  154.7431  135.3166  154.8649 H   0  0  0  0  0  0  0  0  0  0  0  0  # atno 10765 bound_to 10752
  140.1720  134.4210  155.8251 H   0  0  0  0  0  0  0  0  0  0  0  0  # atno 11005 bound_to 11000
  145.3240  139.1779  143.4572 LP  0  0  0  0  0  0  0  0  0  0  0  0  # atno 17320 bound_to 7965
  146.3220  140.3261  142.8637 LP  0  0  0  0  0  0  0  0  0  0  0  0  # atno 17321 bound_to 7965
  139.8442  143.7524  152.3179 LP  0  0  0  0  0  0  0  0  0  0  0  0  # atno 17342 bound_to 10162
  139.7683  144.7485  151.0262 LP  0  0  0  0  0  0  0  0  0  0  0  0  # atno 17343 bound_to 10162
  156.9192  130.5309  149.5279 LP  0  0  0  0  0  0  0  0  0  0  0  0  # atno 17370 bound_to 10713
  156.0592  130.5648  150.9157 LP  0  0  0  0  0  0  0  0  0  0  0  0  # atno 17371 bound_to 10713
  141.2218  133.6960  156.7780 LP  0  0  0  0  0  0  0  0  0  0  0  0  # atno 17394 bound_to 11000
  140.2366  134.8645  157.3531 LP  0  0  0  0  0  0  0  0  0  0  0  0  # atno 17395 bound_to 11000

$$$$
