AV-unprocessed.smi:2567|AV-procd|sdf|10087|dock5
  -GOLD-   2272014113D 1   1.00000     0.00000
 Structure written by MMmdl.
 32 33  0  0  0  0  0  0  0  0  2 V2000
  152.6500  142.6884  159.7424 C   0  0  0  0  0  0  0  0  0  0  0  0
  151.7679  143.2683  158.6238 C   0  0  0  0  0  0  0  0  0  0  0  0
  150.4369  143.7791  159.2116 C   0  0  0  0  0  0  0  0  0  0  0  0
  152.4729  144.4724  157.9677 C   0  0  0  0  0  0  0  0  0  0  0  0
  151.4962  142.1912  157.5785 C   0  0  0  0  0  0  0  0  0  0  0  0
  151.9210  140.9136  157.6314 N   0  5  0  0  0  0  0  0  0  0  0  0
  151.4073  140.2213  156.6358 N   0  0  0  0  0  0  0  0  0  0  0  0
  150.6237  141.0833  155.9716 C   0  0  0  0  0  0  0  0  0  0  0  0
  149.7777  140.7218  154.7670 C   0  0  1  0  0  0  0  0  0  0  0  0
  149.9577  139.2369  154.3908 C   0  0  0  0  0  0  0  0  0  0  0  0
  149.1290  138.8911  153.2357 N   0  0  0  0  0  0  0  0  0  0  0  0
  147.7276  139.2329  153.4685 C   0  0  0  0  0  0  0  0  0  0  0  0
  147.5989  140.7151  153.8584 C   0  0  0  0  0  0  0  0  0  0  0  0
  148.3945  140.9726  155.0097 O   0  0  0  0  0  0  0  0  0  0  0  0
  150.6431  142.2875  156.5608 N   0  0  0  0  0  0  0  0  0  0  0  0
  152.8600  143.4329  160.5106 H   0  0  0  0  0  0  0  0  0  0  0  0
  153.6054  142.3391  159.3496 H   0  0  0  0  0  0  0  0  0  0  0  0
  152.1648  141.8407  160.2276 H   0  0  0  0  0  0  0  0  0  0  0  0
  149.8900  142.9815  159.7152 H   0  0  0  0  0  0  0  0  0  0  0  0
  149.7877  144.1812  158.4329 H   0  0  0  0  0  0  0  0  0  0  0  0
  150.6028  144.5698  159.9439 H   0  0  0  0  0  0  0  0  0  0  0  0
  152.6557  145.2681  158.6903 H   0  0  0  0  0  0  0  0  0  0  0  0
  151.8722  144.8916  157.1598 H   0  0  0  0  0  0  0  0  0  0  0  0
  153.4383  144.1900  157.5466 H   0  0  0  0  0  0  0  0  0  0  0  0
  150.1084  141.3528  153.9395 H   0  0  0  0  0  0  0  0  0  0  0  0
  151.0055  139.0307  154.1708 H   0  0  0  0  0  0  0  0  0  0  0  0
  149.6880  138.6090  155.2413 H   0  0  0  0  0  0  0  0  0  0  0  0
  147.1383  139.0271  152.5748 H   0  0  0  0  0  0  0  0  0  0  0  0
  147.3201  138.6088  154.2648 H   0  0  0  0  0  0  0  0  0  0  0  0
  147.9002  141.3653  153.0354 H   0  0  0  0  0  0  0  0  0  0  0  0
  146.5602  140.9526  154.0878 H   0  0  0  0  0  0  0  0  0  0  0  0
  149.2100  137.8974  153.0476 H   0  0  0  0  0  0  0  0  0  0  0  0
  1  2  1  0  0  0  0
  1 16  1  0  0  0  0
  1 17  1  0  0  0  0
  1 18  1  0  0  0  0
  2  3  1  0  0  0  0
  2  4  1  0  0  0  0
  2  5  1  0  0  0  0
  3 19  1  0  0  0  0
  3 20  1  0  0  0  0
  3 21  1  0  0  0  0
  4 22  1  0  0  0  0
  4 23  1  0  0  0  0
  4 24  1  0  0  0  0
  5 15  2  0  0  0  0
  5  6  1  0  0  0  0
  6  7  1  0  0  0  0
  7  8  2  0  0  0  0
  8  9  1  0  0  0  0
  8 15  1  0  0  0  0
  9 14  1  0  0  0  0
  9 10  1  0  0  0  0
  9 25  1  0  0  0  0
 10 11  1  0  0  0  0
 10 26  1  0  0  0  0
 10 27  1  0  0  0  0
 11 12  1  0  0  0  0
 11 32  1  0  0  0  0
 12 13  1  0  0  0  0
 12 28  1  0  0  0  0
 12 29  1  0  0  0  0
 13 14  1  0  0  0  0
 13 30  1  0  0  0  0
 13 31  1  0  0  0  0
M  CHG  1   6  -1
M  END
> <s_m_source_file>
AV-unprocessed.smi

> <i_m_source_file_index>
2567

> <i_lp_mmshare_version>
43012

> <i_f3d_flags>
0

> <s_epik_input>
W0NIM11DKFtDSDNdKShbQ0gzXSljMW5bbkhdYyhuMSlbQ0BASF0yW0NIMl1bTkhdW0NIMl1bQ0gyXU8y

> <s_epik_cmdline>
J2VwaWtfcHl0aG9uJywgJy1waCcsICc3LjAnLCAnLXRuJywgJzgnLCAnLW1hJywgJzIwMCcsICctbWV0YWxfYmluZGluZycsICctaW1hZScsICc8aW5maWxlLm1hZT4nLCAnLW9tYWUnLCAnPG91dGZpbGUubWFlPic=

> <r_lp_tautomer_probability>
0.948284

> <r_epik_Ionization_Penalty>
17.5852

> <r_epik_Ionization_Penalty_Charging>
16.0119

> <r_epik_Ionization_Penalty_Neutral>
1.5733

> <r_epik_State_Penalty>
6.64574

> <r_epik_Charging_Adjusted_Penalty>
22.6576

> <i_epik_Tot_Q>
-1

> <i_epik_Tot_abs_Q>
1

> <r_epik_Metal_State_Penalty>
2.89273

> <b_epik_Metal_Only>
1

> <s_lp_Force_Field>
OPLS_2005

> <r_lp_Energy>
12.7072

> <b_lp_Chiralities_Consistent>
1

> <s_lp_Variant>
AV-unprocessed.smi:2567-12

> <Gold.Version>
5.8.1

> <Gold.Id.Protein>
6NUR|6NUR_protein|mol2

> <Gold.PLP.Fitness>
33.9179

> <Gold.PLP.PLP>
-31.0092

> <Gold.PLP.part.hbond>
-1.6823

> <Gold.PLP.part.metal>
0.0000

> <Gold.PLP.part.buried>
-3.4732

> <Gold.PLP.part.nonpolar>
-25.9525

> <Gold.PLP.part.repulsive>
0.2245

> <Gold.PLP.ligand.clash>
0.0000

> <Gold.PLP.ligand.torsion>
0.1249

> <Gold.PLP.Chemscore.Hbond>
0.9913

> <Gold.PLP.Chemscore.CHOScore>
0.0000

> <Gold.PLP.Chemscore.Metal>
0.0000

> <Gold.Chemscore.Hbonds>
donor molecule, donor type, donor heavy atom, donor atom, acceptor molecule, acceptor atom, score
      L1  H    11    32       P1  7948  1.00

> <Gold.PLP.Chemscore.Internal.Correction>
0.1847

> <Gold.Rescore>
     Score         DG    S(hbond)    S(metal)    S(lipo)     H(rot)  DE(clash)    DE(int)     intcor
     13.81     -14.09       0.97        0.00      72.84       1.23       0.16       0.12       ----

> <Gold.Chemscore.Fitness>
13.8094

> <Gold.Chemscore.DG>
-14.0899

> <Gold.Chemscore.ZeroCoef>
-5.4800

> <Gold.Chemscore.Hbond>
0.9677

> <Gold.Chemscore.Metal>
0.0000

> <Gold.Chemscore.Lipo>
72.8375

> <Gold.Chemscore.Internal_Hbond>
0.0000

> <Gold.Chemscore.DEClash>
0.1628

> <Gold.Chemscore.DEInternal>
0.1177

> <Gold.Chemscore.Rot>
1.2283

> <Gold.Chemscore.Internal.Correction>
   9.000000E+99

> <Gold.Chemscore.Hbonds>
donor molecule, donor type, donor heavy atom, donor atom, acceptor molecule, acceptor atom, score
      L1  H    11    32       P1  7948  0.88

> <Gold.Chemscore.Hbond.Weighted>
-3.2323

> <Gold.Chemscore.Metal.Weighted>
-0.0000

> <Gold.Chemscore.Lipo.Weighted>
-8.5220

> <Gold.Chemscore.Internal_Hbond.Weighted>
0.0000

> <Gold.Chemscore.DEClash.Weighted>
0.1628

> <Gold.Chemscore.DEInternal.Weighted>
0.1177

> <Gold.Chemscore.Rot.Weighted>
3.1444

> <Gold.Chemscore.Internal.Correction.Weighted>
   9.000000E+99

> <Gold.Protein.RotatedTorsions>
[ 6907 6896 6895 6894 ] final -174.30 input  -60.11 | X-H torsion
[ 7974 7965 7964 7962 ] final   35.45 input  175.53 | X-H torsion
[ 8008 7997 7996 7995 ] final -165.76 input   59.86 | X-H torsion
[ 10167 10162 10161 10158 ] final  -92.80 input  -65.29 | X-H torsion
[ 10718 10713 10712 10709 ] final  -83.70 input   66.30 | X-H torsion
[ 10763 10752 10751 10750 ] final  -25.43 input  -60.55 | X-H torsion
[ 11005 11000 10999 10996 ] final -124.98 input  -57.11 | X-H torsion

> <Gold.Protein.ActiveResidues>
 VAL166  LYS551  ARG553  GLY616  TRP617  ASP618  TYR619  PRO620  LYS621  CYS622 
 ASP623  PHE694  ASN695  SER759  ASP760  ASP761  ALA762  ILE779  LEU786  VAL792 
 PHE793  MET794  SER795  GLU796  ALA797  LYS798  CYS799  TRP800  GLU811  SER814 

> <Gold.Protein.RotatedAtoms>
  151.5702  133.3391  159.2987 H   0  0  0  0  0  0  0  0  0  0  0  0  # atno 6907 bound_to 6896
  150.8372  134.7653  159.6914 H   0  0  0  0  0  0  0  0  0  0  0  0  # atno 6908 bound_to 6896
  152.4446  134.5527  159.9923 H   0  0  0  0  0  0  0  0  0  0  0  0  # atno 6909 bound_to 6896
  146.1282  139.6141  142.9244 H   0  0  0  0  0  0  0  0  0  0  0  0  # atno 7974 bound_to 7965
  155.8543  140.0968  157.1655 H   0  0  0  0  0  0  0  0  0  0  0  0  # atno 8008 bound_to 7997
  154.3987  140.1377  156.3944 H   0  0  0  0  0  0  0  0  0  0  0  0  # atno 8009 bound_to 7997
  155.7927  140.3455  155.5360 H   0  0  0  0  0  0  0  0  0  0  0  0  # atno 8010 bound_to 7997
  140.3311  143.2994  151.9940 H   0  0  0  0  0  0  0  0  0  0  0  0  # atno 10167 bound_to 10162
  156.0015  130.4674  150.4298 H   0  0  0  0  0  0  0  0  0  0  0  0  # atno 10718 bound_to 10713
  153.6997  135.6957  153.5066 H   0  0  0  0  0  0  0  0  0  0  0  0  # atno 10763 bound_to 10752
  153.2351  135.4324  155.0637 H   0  0  0  0  0  0  0  0  0  0  0  0  # atno 10764 bound_to 10752
  154.8348  135.3494  154.6537 H   0  0  0  0  0  0  0  0  0  0  0  0  # atno 10765 bound_to 10752
  140.9798  134.0689  157.3777 H   0  0  0  0  0  0  0  0  0  0  0  0  # atno 11005 bound_to 11000
  145.5319  141.0426  143.2378 LP  0  0  0  0  0  0  0  0  0  0  0  0  # atno 17320 bound_to 7965
  144.7663  139.6837  143.7213 LP  0  0  0  0  0  0  0  0  0  0  0  0  # atno 17321 bound_to 7965
  139.4856  144.6234  151.7212 LP  0  0  0  0  0  0  0  0  0  0  0  0  # atno 17342 bound_to 10162
  140.5396  144.0601  150.6083 LP  0  0  0  0  0  0  0  0  0  0  0  0  # atno 17343 bound_to 10162
  157.2348  131.0512  151.2471 LP  0  0  0  0  0  0  0  0  0  0  0  0  # atno 17370 bound_to 10713
  157.3677  130.7164  149.6544 LP  0  0  0  0  0  0  0  0  0  0  0  0  # atno 17371 bound_to 10713
  139.8945  135.0136  156.6956 LP  0  0  0  0  0  0  0  0  0  0  0  0  # atno 17394 bound_to 11000
  140.7203  133.9146  155.8142 LP  0  0  0  0  0  0  0  0  0  0  0  0  # atno 17395 bound_to 11000

$$$$
