AV-unprocessed.smi:2648|AV-procd|sdf|10288|dock1
  -GOLD-   2272014303D 1   1.00000     0.00000
 Structure written by MMmdl.
 32 33  0  0  0  0  0  0  0  0  3 V2000
  146.5433  131.6529  153.9778 O   0  0  0  0  0  0  0  0  0  0  0  0
  147.2631  131.4092  153.0099 C   0  0  0  0  0  0  0  0  0  0  0  0
  148.4957  130.8925  153.1151 N   0  0  0  0  0  0  0  0  0  0  0  0
  149.1502  130.5477  154.3711 C   0  0  0  0  0  0  0  0  0  0  0  0
  150.1458  131.6386  154.8042 C   0  0  0  0  0  0  0  0  0  0  0  0
  151.2084  131.0812  155.6456 N   0  0  0  0  0  0  0  0  0  0  0  0
  151.6257  131.6278  156.7916 C   0  0  0  0  0  0  0  0  0  0  0  0
  151.2229  132.6601  157.3283 O   0  0  0  0  0  0  0  0  0  0  0  0
  152.7079  130.7357  157.3533 C   0  0  0  0  0  0  0  0  0  0  0  0
  152.7778  129.6783  156.3702 N   0  5  0  0  0  0  0  0  0  0  0  0
  151.8719  129.9358  155.3978 C   0  0  0  0  0  0  0  0  0  0  0  0
  151.6434  129.2463  154.4043 O   0  0  0  0  0  0  0  0  0  0  0  0
  146.9219  131.5992  151.7234 N   0  0  0  0  0  0  0  0  0  0  0  0
  145.7136  132.1348  151.2006 C   0  0  0  0  0  0  0  0  0  0  0  0
  145.5518  132.1379  149.7971 C   0  0  0  0  0  0  0  0  0  0  0  0
  144.3759  132.6735  149.2332 C   0  0  0  0  0  0  0  0  0  0  0  0
  143.4194  133.1882  150.0355 N   0  3  0  0  0  0  0  0  0  0  0  0
  143.5351  133.2214  151.3805 C   0  0  0  0  0  0  0  0  0  0  0  0
  144.6884  132.6999  152.0016 C   0  0  0  0  0  0  0  0  0  0  0  0
  149.0187  130.7183  152.2696 H   0  0  0  0  0  0  0  0  0  0  0  0
  148.3774  130.4255  155.1308 H   0  0  0  0  0  0  0  0  0  0  0  0
  149.6517  129.5823  154.2814 H   0  0  0  0  0  0  0  0  0  0  0  0
  150.5837  132.1213  153.9291 H   0  0  0  0  0  0  0  0  0  0  0  0
  149.6212  132.4293  155.3433 H   0  0  0  0  0  0  0  0  0  0  0  0
  153.6380  131.2966  157.4498 H   0  0  0  0  0  0  0  0  0  0  0  0
  152.4213  130.3833  158.3449 H   0  0  0  0  0  0  0  0  0  0  0  0
  147.5838  131.2671  151.0373 H   0  0  0  0  0  0  0  0  0  0  0  0
  146.3177  131.7280  149.1545 H   0  0  0  0  0  0  0  0  0  0  0  0
  144.1746  132.7070  148.1723 H   0  0  0  0  0  0  0  0  0  0  0  0
  142.7099  133.6669  151.9171 H   0  0  0  0  0  0  0  0  0  0  0  0
  144.7686  132.7550  153.0766 H   0  0  0  0  0  0  0  0  0  0  0  0
  142.5765  133.5727  149.6075 H   0  0  0  0  0  0  0  0  0  0  0  0
  1  2  2  0  0  0  0
  2  3  1  0  0  0  0
  2 13  1  0  0  0  0
  3  4  1  0  0  0  0
  3 20  1  0  0  0  0
  4  5  1  0  0  0  0
  4 21  1  0  0  0  0
  4 22  1  0  0  0  0
  5  6  1  0  0  0  0
  5 23  1  0  0  0  0
  5 24  1  0  0  0  0
  6 11  1  0  0  0  0
  6  7  1  0  0  0  0
  7  8  2  0  0  0  0
  7  9  1  0  0  0  0
  9 10  1  0  0  0  0
  9 25  1  0  0  0  0
  9 26  1  0  0  0  0
 10 11  1  0  0  0  0
 11 12  2  0  0  0  0
 13 14  1  0  0  0  0
 13 27  1  0  0  0  0
 14 19  1  0  0  0  0
 14 15  2  0  0  0  0
 15 16  1  0  0  0  0
 15 28  1  0  0  0  0
 16 17  2  0  0  0  0
 16 29  1  0  0  0  0
 17 18  1  0  0  0  0
 17 32  1  0  0  0  0
 18 19  2  0  0  0  0
 18 30  1  0  0  0  0
 19 31  1  0  0  0  0
M  CHG  1  10  -1
M  CHG  1  17   1
M  END
> <s_m_source_file>
AV-unprocessed.smi

> <i_m_source_file_index>
2648

> <i_lp_mmshare_version>
43012

> <i_f3d_flags>
0

> <s_epik_input>
W2NIXTFbY0hdbltjSF1bY0hdYzFbTkhdQyg9TylbTkhdW0NIMl1bQ0gyXU4yQyg9TylbQ0gyXVtOSF1DMj1P

> <s_epik_cmdline>
J2VwaWtfcHl0aG9uJywgJy1waCcsICc3LjAnLCAnLXRuJywgJzgnLCAnLW1hJywgJzIwMCcsICctbWV0YWxfYmluZGluZycsICctaW1hZScsICc8aW5maWxlLm1hZT4nLCAnLW9tYWUnLCAnPG91dGZpbGUubWFlPic=

> <r_lp_tautomer_probability>
1

> <r_epik_Ionization_Penalty>
6.85559

> <r_epik_Ionization_Penalty_Charging>
6.85558

> <r_epik_Ionization_Penalty_Neutral>
1.85947e-05

> <r_epik_State_Penalty>
6.90892

> <r_epik_Charging_Adjusted_Penalty>
13.7645

> <i_epik_Tot_Q>
0

> <i_epik_Tot_abs_Q>
2

> <r_epik_Metal_State_Penalty>
2.96744

> <b_epik_Metal_Only>
1

> <s_lp_Force_Field>
OPLS_2005

> <r_lp_Energy>
20.2927

> <b_lp_Chiralities_Consistent>
1

> <s_lp_Variant>
AV-unprocessed.smi:2648-4

> <Gold.Version>
5.8.1

> <Gold.Id.Protein>
6NUR|6NUR_protein|mol2

> <Gold.PLP.Fitness>
46.6516

> <Gold.PLP.PLP>
-32.8177

> <Gold.PLP.part.hbond>
-4.0000

> <Gold.PLP.part.metal>
0.0000

> <Gold.PLP.part.buried>
-5.6241

> <Gold.PLP.part.nonpolar>
-22.9766

> <Gold.PLP.part.repulsive>
0.3083

> <Gold.PLP.ligand.clash>
0.0000

> <Gold.PLP.ligand.torsion>
0.4760

> <Gold.PLP.Chemscore.Hbond>
4.9200

> <Gold.PLP.Chemscore.CHOScore>
0.0000

> <Gold.PLP.Chemscore.Metal>
0.0000

> <Gold.Chemscore.Hbonds>
donor molecule, donor type, donor heavy atom, donor atom, acceptor molecule, acceptor atom, score
      L1  H     3    20       P1 10747  0.93
      L1  H    13    27       P1 10747  1.00
      L1  H    17    32       P1 10186  2.00
      P1  H  6896  6909       L1     8  1.00

> <Gold.PLP.Chemscore.Internal.Correction>
0.0258

> <Gold.Rescore>
     Score         DG    S(hbond)    S(metal)    S(lipo)     H(rot)  DE(clash)    DE(int)     intcor
     16.01     -18.90       3.47        0.00      57.82       1.93       0.16       2.73       ----

> <Gold.Chemscore.Fitness>
16.0068

> <Gold.Chemscore.DG>
-18.8977

> <Gold.Chemscore.ZeroCoef>
-5.4800

> <Gold.Chemscore.Hbond>
3.4698

> <Gold.Chemscore.Metal>
0.0000

> <Gold.Chemscore.Lipo>
57.8212

> <Gold.Chemscore.Internal_Hbond>
0.0000

> <Gold.Chemscore.DEClash>
0.1596

> <Gold.Chemscore.DEInternal>
2.7313

> <Gold.Chemscore.Rot>
1.9284

> <Gold.Chemscore.Internal.Correction>
   9.000000E+99

> <Gold.Chemscore.Hbonds>
donor molecule, donor type, donor heavy atom, donor atom, acceptor molecule, acceptor atom, score
      L1  H     3    20       P1 10747  0.26
      L1  H    13    27       P1 10747  1.00
      L1  H    17    32       P1 10186  0.99
      P1  H  6896  6909       L1     8  0.93

> <Gold.Chemscore.Hbond.Weighted>
-11.5893

> <Gold.Chemscore.Metal.Weighted>
-0.0000

> <Gold.Chemscore.Lipo.Weighted>
-6.7651

> <Gold.Chemscore.Internal_Hbond.Weighted>
0.0000

> <Gold.Chemscore.DEClash.Weighted>
0.1596

> <Gold.Chemscore.DEInternal.Weighted>
2.7313

> <Gold.Chemscore.Rot.Weighted>
4.9366

> <Gold.Chemscore.Internal.Correction.Weighted>
   9.000000E+99

> <Gold.Protein.RotatedTorsions>
[ 6907 6896 6895 6894 ] final  -39.47 input  -60.11 | X-H torsion
[ 7974 7965 7964 7962 ] final  101.02 input  175.53 | X-H torsion
[ 8008 7997 7996 7995 ] final    7.78 input   59.86 | X-H torsion
[ 10167 10162 10161 10158 ] final -105.69 input  -65.29 | X-H torsion
[ 10718 10713 10712 10709 ] final  -91.20 input   66.30 | X-H torsion
[ 10763 10752 10751 10750 ] final  140.00 input  -60.55 | X-H torsion
[ 11005 11000 10999 10996 ] final   37.29 input  -57.11 | X-H torsion

> <Gold.Protein.ActiveResidues>
 VAL166  LYS551  ARG553  GLY616  TRP617  ASP618  TYR619  PRO620  LYS621  CYS622 
 ASP623  PHE694  ASN695  SER759  ASP760  ASP761  ALA762  ILE779  LEU786  VAL792 
 PHE793  MET794  SER795  GLU796  ALA797  LYS798  CYS799  TRP800  GLU811  SER814 

> <Gold.Protein.RotatedAtoms>
  150.9899  134.9236  159.7893 H   0  0  0  0  0  0  0  0  0  0  0  0  # atno 6907 bound_to 6896
  152.5248  134.3295  159.9188 H   0  0  0  0  0  0  0  0  0  0  0  0  # atno 6908 bound_to 6896
  151.3301  133.3963  159.2696 H   0  0  0  0  0  0  0  0  0  0  0  0  # atno 6909 bound_to 6896
  145.3778  139.2385  143.3420 H   0  0  0  0  0  0  0  0  0  0  0  0  # atno 7974 bound_to 7965
  154.7582  140.2779  155.6236 H   0  0  0  0  0  0  0  0  0  0  0  0  # atno 8008 bound_to 7997
  156.2910  140.2665  156.2281 H   0  0  0  0  0  0  0  0  0  0  0  0  # atno 8009 bound_to 7997
  155.0051  140.0372  157.2366 H   0  0  0  0  0  0  0  0  0  0  0  0  # atno 8010 bound_to 7997
  140.1958  143.3857  152.1170 H   0  0  0  0  0  0  0  0  0  0  0  0  # atno 10167 bound_to 10162
  155.9992  130.4939  150.5438 H   0  0  0  0  0  0  0  0  0  0  0  0  # atno 10718 bound_to 10713
  153.9154  135.3006  155.3448 H   0  0  0  0  0  0  0  0  0  0  0  0  # atno 10763 bound_to 10752
  154.7602  135.4937  153.9454 H   0  0  0  0  0  0  0  0  0  0  0  0  # atno 10764 bound_to 10752
  153.1170  135.6773  153.9503 H   0  0  0  0  0  0  0  0  0  0  0  0  # atno 10765 bound_to 10752
  140.2240  134.3606  155.7992 H   0  0  0  0  0  0  0  0  0  0  0  0  # atno 11005 bound_to 11000
  146.2856  140.4440  142.8759 LP  0  0  0  0  0  0  0  0  0  0  0  0  # atno 17320 bound_to 7965
  144.8529  140.7028  143.6156 LP  0  0  0  0  0  0  0  0  0  0  0  0  # atno 17321 bound_to 7965
  139.5237  144.7075  151.5309 LP  0  0  0  0  0  0  0  0  0  0  0  0  # atno 17342 bound_to 10162
  140.6425  143.8861  150.6705 LP  0  0  0  0  0  0  0  0  0  0  0  0  # atno 17343 bound_to 10162
  157.3370  131.0710  151.1817 LP  0  0  0  0  0  0  0  0  0  0  0  0  # atno 17370 bound_to 10713
  157.2678  130.6690  149.6005 LP  0  0  0  0  0  0  0  0  0  0  0  0  # atno 17371 bound_to 10713
  141.2221  133.7209  156.8623 LP  0  0  0  0  0  0  0  0  0  0  0  0  # atno 17394 bound_to 11000
  140.1819  134.9027  157.2959 LP  0  0  0  0  0  0  0  0  0  0  0  0  # atno 17395 bound_to 11000

$$$$
