AV-unprocessed.smi:255|AV-procd|sdf|1956|dock1
  -GOLD-   2262021 93D 1   1.00000     0.00000
 Structure written by MMmdl.
 44 47  0  0  0  0  0  0  0  0  1 V2000
  149.0056  136.3555  162.7001 O   0  0  0  0  0  0  0  0  0  0  0  0
  147.6189  136.0979  162.6499 C   0  0  0  0  0  0  0  0  0  0  0  0
  147.3687  134.6522  162.1684 C   0  0  1  0  0  0  0  0  0  0  0  0
  145.9748  134.1007  162.4713 C   0  0  0  0  0  0  0  0  0  0  0  0
  145.9211  132.8594  161.5802 C   0  0  1  0  0  0  0  0  0  0  0  0
  144.6907  132.6429  161.1157 F   0  0  0  0  0  0  0  0  0  0  0  0
  146.9297  133.1295  160.4503 C   0  0  0  0  0  0  0  0  0  0  0  0
  147.5645  134.4163  160.7366 N   0  0  0  0  0  0  0  0  0  0  0  0
  147.2257  135.4272  159.8978 C   0  0  0  0  0  0  0  0  0  0  0  0
  145.9387  135.8593  159.8134 N   0  0  0  0  0  0  0  0  0  0  0  0
  145.6239  136.8668  158.9936 C   0  0  0  0  0  0  0  0  0  0  0  0
  146.4242  137.5704  158.1897 N   0  0  0  0  0  0  0  0  0  0  0  0
  147.7169  137.1438  158.2792 C   0  0  0  0  0  0  0  0  0  0  0  0
  148.1977  136.0857  159.0997 C   0  0  0  0  0  0  0  0  0  0  0  0
  149.5668  135.9303  158.9265 N   0  0  0  0  0  0  0  0  0  0  0  0
  149.8787  136.8446  158.0487 C   0  0  0  0  0  0  0  0  0  0  0  0
  148.8311  137.6257  157.6138 N   0  0  0  0  0  0  0  0  0  0  0  0
  148.8960  138.7075  156.6436 C   0  0  0  0  0  0  0  0  0  0  0  0
  149.2898  138.2513  155.2152 C   0  0  2  0  0  0  0  0  0  0  0  0
  148.2612  137.4488  154.6677 O   0  0  0  0  0  0  0  0  0  0  0  0
  150.5967  137.4755  155.2036 C   0  0  0  0  0  0  0  0  0  0  0  0
  151.6477  138.5810  155.1290 C   0  0  0  0  0  0  0  0  0  0  0  0
  151.0205  139.6748  154.4655 O   0  0  0  0  0  0  0  0  0  0  0  0
  149.6390  139.3980  154.2577 C   0  0  0  0  0  0  0  0  0  0  0  0
  148.1003  134.0147  162.6680 H   0  0  0  0  0  0  0  0  0  0  0  0
  146.2166  131.9718  162.1404 H   0  0  0  0  0  0  0  0  0  0  0  0
  149.3536  135.9716  163.4903 H   0  0  0  0  0  0  0  0  0  0  0  0
  147.1906  136.2729  163.6376 H   0  0  0  0  0  0  0  0  0  0  0  0
  147.1655  136.8140  161.9639 H   0  0  0  0  0  0  0  0  0  0  0  0
  145.8268  133.8688  163.5262 H   0  0  0  0  0  0  0  0  0  0  0  0
  145.2096  134.8187  162.1728 H   0  0  0  0  0  0  0  0  0  0  0  0
  147.6971  132.3550  160.4350 H   0  0  0  0  0  0  0  0  0  0  0  0
  146.4469  133.1119  159.4719 H   0  0  0  0  0  0  0  0  0  0  0  0
  144.5819  137.1506  158.9814 H   0  0  0  0  0  0  0  0  0  0  0  0
  150.8907  136.9789  157.6952 H   0  0  0  0  0  0  0  0  0  0  0  0
  147.9247  139.2032  156.6307 H   0  0  0  0  0  0  0  0  0  0  0  0
  149.6081  139.4484  157.0095 H   0  0  0  0  0  0  0  0  0  0  0  0
  148.2690  137.5496  153.7282 H   0  0  0  0  0  0  0  0  0  0  0  0
  150.7248  136.8206  156.0662 H   0  0  0  0  0  0  0  0  0  0  0  0
  150.6663  136.8590  154.3057 H   0  0  0  0  0  0  0  0  0  0  0  0
  151.9408  138.9022  156.1289 H   0  0  0  0  0  0  0  0  0  0  0  0
  152.5466  138.2607  154.6019 H   0  0  0  0  0  0  0  0  0  0  0  0
  149.5281  139.0742  153.2213 H   0  0  0  0  0  0  0  0  0  0  0  0
  149.0242  140.2882  154.3825 H   0  0  0  0  0  0  0  0  0  0  0  0
  1  2  1  0  0  0  0
  1 27  1  0  0  0  0
  2  3  1  0  0  0  0
  2 28  1  0  0  0  0
  2 29  1  0  0  0  0
  3 25  1  0  0  0  0
  3  8  1  0  0  0  0
  3  4  1  0  0  0  0
  4  5  1  0  0  0  0
  4 30  1  0  0  0  0
  4 31  1  0  0  0  0
  5 26  1  0  0  0  0
  5  6  1  0  0  0  0
  5  7  1  0  0  0  0
  7  8  1  0  0  0  0
  7 32  1  0  0  0  0
  7 33  1  0  0  0  0
  8  9  1  0  0  0  0
  9 14  1  0  0  0  0
  9 10  2  0  0  0  0
 10 11  1  0  0  0  0
 11 12  2  0  0  0  0
 11 34  1  0  0  0  0
 12 13  1  0  0  0  0
 13 17  1  0  0  0  0
 13 14  2  0  0  0  0
 14 15  1  0  0  0  0
 15 16  2  0  0  0  0
 16 17  1  0  0  0  0
 16 35  1  0  0  0  0
 17 18  1  0  0  0  0
 18 19  1  0  0  0  0
 18 36  1  0  0  0  0
 18 37  1  0  0  0  0
 19 24  1  0  0  0  0
 19 20  1  0  0  0  0
 19 21  1  0  0  0  0
 20 38  1  0  0  0  0
 21 22  1  0  0  0  0
 21 39  1  0  0  0  0
 21 40  1  0  0  0  0
 22 23  1  0  0  0  0
 22 41  1  0  0  0  0
 22 42  1  0  0  0  0
 23 24  1  0  0  0  0
 24 43  1  0  0  0  0
 24 44  1  0  0  0  0
M  END
> <s_m_source_file>
AV-unprocessed.smi

> <i_m_source_file_index>
255

> <i_lp_mmshare_version>
43012

> <i_f3d_flags>
0

> <s_epik_input>
W09IXVtDSDJdW0NAQEhdMVtDSDJdW0NASF0oRilbQ0gyXU4xYyhuW2NIXW4yKWMoYzIzKW5bY0hdbjNbQ0gyXVtDQEBdNChbT0hdKVtDSDJdW0NIMl1PW0NIMl00

> <s_epik_cmdline>
J2VwaWtfcHl0aG9uJywgJy1waCcsICc3LjAnLCAnLXRuJywgJzgnLCAnLW1hJywgJzIwMCcsICctbWV0YWxfYmluZGluZycsICctaW1hZScsICc8aW5maWxlLm1hZT4nLCAnLW9tYWUnLCAnPG91dGZpbGUubWFlPic=

> <r_lp_tautomer_probability>
1

> <r_epik_Ionization_Penalty>
0.0058098

> <r_epik_Ionization_Penalty_Charging>
0

> <r_epik_Ionization_Penalty_Neutral>
0.0058098

> <r_epik_State_Penalty>
0.00411166

> <r_epik_Charging_Adjusted_Penalty>
0.00411166

> <i_epik_Tot_Q>
0

> <i_epik_Tot_abs_Q>
0

> <r_epik_Metal_State_Penalty>
-0

> <b_epik_Metal_Only>
0

> <s_lp_Force_Field>
OPLS_2005

> <r_lp_Energy>
54.0655

> <b_lp_Chiralities_Consistent>
1

> <s_lp_Variant>
AV-unprocessed.smi:255-8

> <Gold.Version>
5.8.1

> <Gold.Id.Protein>
6NUR|6NUR_protein|mol2

> <Gold.PLP.Fitness>
46.7517

> <Gold.PLP.PLP>
-35.6794

> <Gold.PLP.part.hbond>
-3.5485

> <Gold.PLP.part.metal>
0.0000

> <Gold.PLP.part.buried>
-4.7010

> <Gold.PLP.part.nonpolar>
-26.1825

> <Gold.PLP.part.repulsive>
0.0881

> <Gold.PLP.ligand.clash>
0.0000

> <Gold.PLP.ligand.torsion>
0.2319

> <Gold.PLP.Chemscore.Hbond>
3.8160

> <Gold.PLP.Chemscore.CHOScore>
0.0000

> <Gold.PLP.Chemscore.Metal>
0.0000

> <Gold.Chemscore.Hbonds>
donor molecule, donor type, donor heavy atom, donor atom, acceptor molecule, acceptor atom, score
      L1  H    20    38       P1  7948  0.09
      P1  H  6896  6908       L1    15  1.00
      P1  H  6931  6943       L1     1  0.93
      P1  H  7989  7998       L1    23  1.00

> <Gold.PLP.Chemscore.Internal.Correction>
0.0881

> <Gold.Rescore>
     Score         DG    S(hbond)    S(metal)    S(lipo)     H(rot)  DE(clash)    DE(int)     intcor
     17.08     -17.41       3.74        0.00      68.13       3.33       0.01       0.33       ----

> <Gold.Chemscore.Fitness>
17.0777

> <Gold.Chemscore.DG>
-17.4117

> <Gold.Chemscore.ZeroCoef>
-5.4800

> <Gold.Chemscore.Hbond>
3.7360

> <Gold.Chemscore.Metal>
0.0000

> <Gold.Chemscore.Lipo>
68.1317

> <Gold.Chemscore.Internal_Hbond>
0.0000

> <Gold.Chemscore.DEClash>
0.0050

> <Gold.Chemscore.DEInternal>
0.3290

> <Gold.Chemscore.Rot>
3.3273

> <Gold.Chemscore.Internal.Correction>
   9.000000E+99

> <Gold.Chemscore.Hbonds>
donor molecule, donor type, donor heavy atom, donor atom, acceptor molecule, acceptor atom, score
      L1  H    20    38       P1  7948  0.11
      P1  H  6896  6908       L1    15  1.00
      P1  H  6931  6943       L1     1  0.25
      P1  H  7989  7998       L1    23  0.90

> <Gold.Chemscore.Hbond.Weighted>
-12.4782

> <Gold.Chemscore.Metal.Weighted>
-0.0000

> <Gold.Chemscore.Lipo.Weighted>
-7.9714

> <Gold.Chemscore.Internal_Hbond.Weighted>
0.0000

> <Gold.Chemscore.DEClash.Weighted>
0.0050

> <Gold.Chemscore.DEInternal.Weighted>
0.3290

> <Gold.Chemscore.Rot.Weighted>
8.5179

> <Gold.Chemscore.Internal.Correction.Weighted>
   9.000000E+99

> <Gold.Protein.RotatedTorsions>
[ 6907 6896 6895 6894 ] final  179.79 input  -60.11 | X-H torsion
[ 7974 7965 7964 7962 ] final -156.37 input  175.53 | X-H torsion
[ 8008 7997 7996 7995 ] final  122.24 input   59.86 | X-H torsion
[ 10167 10162 10161 10158 ] final -169.95 input  -65.29 | X-H torsion
[ 10718 10713 10712 10709 ] final  -91.15 input   66.30 | X-H torsion
[ 10763 10752 10751 10750 ] final   34.79 input  -60.55 | X-H torsion
[ 11005 11000 10999 10996 ] final -112.52 input  -57.11 | X-H torsion

> <Gold.Protein.ActiveResidues>
 VAL166  LYS551  ARG553  GLY616  TRP617  ASP618  TYR619  PRO620  LYS621  CYS622 
 ASP623  PHE694  ASN695  SER759  ASP760  ASP761  ALA762  ILE779  LEU786  VAL792 
 PHE793  MET794  SER795  GLU796  ALA797  LYS798  CYS799  TRP800  GLU811  SER814 

> <Gold.Protein.RotatedAtoms>
  151.6660  133.3315  159.3184 H   0  0  0  0  0  0  0  0  0  0  0  0  # atno 6907 bound_to 6896
  150.7891  134.6903  159.6503 H   0  0  0  0  0  0  0  0  0  0  0  0  # atno 6908 bound_to 6896
  152.3967  134.6358  160.0138 H   0  0  0  0  0  0  0  0  0  0  0  0  # atno 6909 bound_to 6896
  144.7596  140.4119  143.5986 H   0  0  0  0  0  0  0  0  0  0  0  0  # atno 7974 bound_to 7965
  156.2720  140.2790  156.1436 H   0  0  0  0  0  0  0  0  0  0  0  0  # atno 8008 bound_to 7997
  155.0927  140.0389  157.2691 H   0  0  0  0  0  0  0  0  0  0  0  0  # atno 8009 bound_to 7997
  154.6877  140.2622  155.6850 H   0  0  0  0  0  0  0  0  0  0  0  0  # atno 8010 bound_to 7997
  139.5891  144.1252  152.1613 H   0  0  0  0  0  0  0  0  0  0  0  0  # atno 10167 bound_to 10162
  155.9992  130.4937  150.5431 H   0  0  0  0  0  0  0  0  0  0  0  0  # atno 10718 bound_to 10713
  153.0148  135.6351  154.1725 H   0  0  0  0  0  0  0  0  0  0  0  0  # atno 10763 bound_to 10752
  154.1464  135.2831  155.3149 H   0  0  0  0  0  0  0  0  0  0  0  0  # atno 10764 bound_to 10752
  154.6086  135.5564  153.7510 H   0  0  0  0  0  0  0  0  0  0  0  0  # atno 10765 bound_to 10752
  141.0670  133.9442  157.2559 H   0  0  0  0  0  0  0  0  0  0  0  0  # atno 11005 bound_to 11000
  145.6663  139.1590  143.2780 LP  0  0  0  0  0  0  0  0  0  0  0  0  # atno 17320 bound_to 7965
  146.1645  140.6738  142.9262 LP  0  0  0  0  0  0  0  0  0  0  0  0  # atno 17321 bound_to 7965
  140.0822  144.5691  150.7114 LP  0  0  0  0  0  0  0  0  0  0  0  0  # atno 17342 bound_to 10162
  140.7158  143.2543  151.4439 LP  0  0  0  0  0  0  0  0  0  0  0  0  # atno 17343 bound_to 10162
  157.3365  131.0709  151.1821 LP  0  0  0  0  0  0  0  0  0  0  0  0  # atno 17370 bound_to 10713
  157.2684  130.6692  149.6007 LP  0  0  0  0  0  0  0  0  0  0  0  0  # atno 17371 bound_to 10713
  139.9486  135.0179  156.8927 LP  0  0  0  0  0  0  0  0  0  0  0  0  # atno 17394 bound_to 11000
  140.5752  134.0405  155.7444 LP  0  0  0  0  0  0  0  0  0  0  0  0  # atno 17395 bound_to 11000

$$$$
