AV-unprocessed.smi:456|AV-procd|sdf|2618|dock10
  -GOLD-   2262023 23D 1   1.00000     0.00000
 Structure written by MMmdl.
 33 35  0  0  0  0  0  0  0  0  2 V2000
  146.4405  137.8732  150.8508 O   0  0  0  0  0  0  0  0  0  0  0  0
  146.0227  137.9484  152.2006 C   0  0  1  0  0  0  0  0  0  0  0  0
  146.0317  136.5392  152.8247 C   0  0  0  0  0  0  0  0  0  0  0  0
  145.2205  135.5755  152.0696 N   0  0  0  0  0  0  0  0  0  0  0  0
  144.1206  135.7755  151.2939 C   0  0  0  0  0  0  0  0  0  0  0  0
  143.7322  134.5621  150.8121 N   0  3  0  0  0  0  0  0  0  0  0  0
  144.5959  133.5728  151.2883 C   0  0  0  0  0  0  0  0  0  0  0  0
  144.6129  132.1977  151.0794 C   0  0  0  0  0  0  0  0  0  0  0  0
  145.6390  131.4707  151.7185 C   0  0  0  0  0  0  0  0  0  0  0  0
  145.7026  130.1291  151.5480 F   0  0  0  0  0  0  0  0  0  0  0  0
  146.5983  132.1133  152.5302 C   0  0  0  0  0  0  0  0  0  0  0  0
  147.5667  131.3778  153.1256 F   0  0  0  0  0  0  0  0  0  0  0  0
  146.5703  133.5086  152.7353 C   0  0  0  0  0  0  0  0  0  0  0  0
  145.5539  134.2181  152.0981 C   0  0  0  0  0  0  0  0  0  0  0  0
  146.8667  138.9165  153.0139 C   0  0  0  0  0  0  0  0  0  0  0  0
  146.8121  140.2998  152.7380 C   0  0  0  0  0  0  0  0  0  0  0  0
  147.5830  141.2054  153.4924 C   0  0  0  0  0  0  0  0  0  0  0  0
  148.4103  140.7336  154.5296 C   0  0  0  0  0  0  0  0  0  0  0  0
  148.4658  139.3553  154.8125 C   0  0  0  0  0  0  0  0  0  0  0  0
  147.6959  138.4491  154.0578 C   0  0  0  0  0  0  0  0  0  0  0  0
  145.6764  137.9351  150.2978 H   0  0  0  0  0  0  0  0  0  0  0  0
  144.9981  138.3221  152.1857 H   0  0  0  0  0  0  0  0  0  0  0  0
  147.0492  136.1480  152.8684 H   0  0  0  0  0  0  0  0  0  0  0  0
  145.6671  136.5655  153.8526 H   0  0  0  0  0  0  0  0  0  0  0  0
  143.6417  136.7245  151.0998 H   0  0  0  0  0  0  0  0  0  0  0  0
  143.8805  131.7015  150.4597 H   0  0  0  0  0  0  0  0  0  0  0  0
  147.3079  133.9910  153.3593 H   0  0  0  0  0  0  0  0  0  0  0  0
  146.1778  140.6727  151.9470 H   0  0  0  0  0  0  0  0  0  0  0  0
  147.5384  142.2627  153.2761 H   0  0  0  0  0  0  0  0  0  0  0  0
  149.0005  141.4284  155.1087 H   0  0  0  0  0  0  0  0  0  0  0  0
  149.0981  138.9929  155.6098 H   0  0  0  0  0  0  0  0  0  0  0  0
  147.7424  137.3941  154.2852 H   0  0  0  0  0  0  0  0  0  0  0  0
  142.9348  134.4232  150.2044 H   0  0  0  0  0  0  0  0  0  0  0  0
  1  2  1  0  0  0  0
  1 21  1  0  0  0  0
  2  3  1  0  0  0  0
  2 15  1  0  0  0  0
  2 22  1  0  0  0  0
  3  4  1  0  0  0  0
  3 23  1  0  0  0  0
  3 24  1  0  0  0  0
  4 14  1  0  0  0  0
  4  5  1  0  0  0  0
  5  6  2  0  0  0  0
  5 25  1  0  0  0  0
  6  7  1  0  0  0  0
  6 33  1  0  0  0  0
  7 14  2  0  0  0  0
  7  8  1  0  0  0  0
  8  9  2  0  0  0  0
  8 26  1  0  0  0  0
  9 10  1  0  0  0  0
  9 11  1  0  0  0  0
 11 12  1  0  0  0  0
 11 13  2  0  0  0  0
 13 14  1  0  0  0  0
 13 27  1  0  0  0  0
 15 20  1  0  0  0  0
 15 16  2  0  0  0  0
 16 17  1  0  0  0  0
 16 28  1  0  0  0  0
 17 18  2  0  0  0  0
 17 29  1  0  0  0  0
 18 19  1  0  0  0  0
 18 30  1  0  0  0  0
 19 20  2  0  0  0  0
 19 31  1  0  0  0  0
 20 32  1  0  0  0  0
M  CHG  1   6   1
M  END
> <s_m_source_file>
AV-unprocessed.smi

> <i_m_source_file_index>
456

> <i_lp_mmshare_version>
43012

> <i_f3d_flags>
0

> <s_epik_input>
W2NIXTFbY0hdW2NIXVtjSF1bY0hdYzFbQ0BIXShbT0hdKVtDSDJdbihbY0hdbjIpYyhjMjMpW2NIXWMoRiljKEYpW2NIXTM=

> <s_epik_cmdline>
J2VwaWtfcHl0aG9uJywgJy1waCcsICc3LjAnLCAnLXRuJywgJzgnLCAnLW1hJywgJzIwMCcsICctbWV0YWxfYmluZGluZycsICctaW1hZScsICc8aW5maWxlLm1hZT4nLCAnLW9tYWUnLCAnPG91dGZpbGUubWFlPic=

> <r_epik_Ionization_Penalty>
2.16139

> <r_epik_Ionization_Penalty_Charging>
2.16138

> <r_epik_Ionization_Penalty_Neutral>
1.34362e-06

> <r_epik_State_Penalty>
2.30198

> <r_epik_Charging_Adjusted_Penalty>
4.46337

> <i_epik_Tot_Q>
1

> <i_epik_Tot_abs_Q>
1

> <r_epik_Metal_State_Penalty>
6.38245

> <b_epik_Metal_Only>
0

> <s_lp_Force_Field>
OPLS_2005

> <r_lp_Energy>
14.9755

> <b_lp_Chiralities_Consistent>
1

> <s_lp_Variant>
AV-unprocessed.smi:456-4

> <Gold.Version>
5.8.1

> <Gold.Id.Protein>
6NUR|6NUR_protein|mol2

> <Gold.PLP.Fitness>
51.0483

> <Gold.PLP.PLP>
-37.0610

> <Gold.PLP.part.hbond>
-3.8530

> <Gold.PLP.part.metal>
0.0000

> <Gold.PLP.part.buried>
-2.9162

> <Gold.PLP.part.nonpolar>
-31.4971

> <Gold.PLP.part.repulsive>
0.0060

> <Gold.PLP.ligand.clash>
0.0000

> <Gold.PLP.ligand.torsion>
0.5160

> <Gold.PLP.Chemscore.Hbond>
4.0000

> <Gold.PLP.Chemscore.CHOScore>
1.0000

> <Gold.PLP.Chemscore.Metal>
0.0000

> <Gold.Chemscore.Hbonds>
donor molecule, donor type, donor heavy atom, donor atom, acceptor molecule, acceptor atom, score
      L1  H     1    21       P1 10171  1.00
      L1  H     6    33       P1 10186  2.00
      P1  H  7954  7966       L1     1  1.00
      L1  C     5    25       P1 10171  1.00

> <Gold.PLP.Chemscore.Internal.Correction>
0.0192

> <Gold.Rescore>
     Score         DG    S(hbond)    S(metal)    S(lipo)     H(rot)  DE(clash)    DE(int)     intcor
     18.02     -18.89       2.61        0.00      84.49       2.03       0.40       0.47       ----

> <Gold.Chemscore.Fitness>
18.0216

> <Gold.Chemscore.DG>
-18.8918

> <Gold.Chemscore.ZeroCoef>
-5.4800

> <Gold.Chemscore.Hbond>
2.6085

> <Gold.Chemscore.Metal>
0.0000

> <Gold.Chemscore.Lipo>
84.4862

> <Gold.Chemscore.Internal_Hbond>
0.0000

> <Gold.Chemscore.DEClash>
0.4023

> <Gold.Chemscore.DEInternal>
0.4679

> <Gold.Chemscore.Rot>
2.0256

> <Gold.Chemscore.Internal.Correction>
   9.000000E+99

> <Gold.Chemscore.Hbonds>
donor molecule, donor type, donor heavy atom, donor atom, acceptor molecule, acceptor atom, score
      L1  H     1    21       P1 10171  0.96
      L1  H     6    33       P1 10186  0.76
      P1  H  7954  7966       L1     1  0.85

> <Gold.Chemscore.Hbond.Weighted>
-8.7124

> <Gold.Chemscore.Metal.Weighted>
-0.0000

> <Gold.Chemscore.Lipo.Weighted>
-9.8849

> <Gold.Chemscore.Internal_Hbond.Weighted>
0.0000

> <Gold.Chemscore.DEClash.Weighted>
0.4023

> <Gold.Chemscore.DEInternal.Weighted>
0.4679

> <Gold.Chemscore.Rot.Weighted>
5.1855

> <Gold.Chemscore.Internal.Correction.Weighted>
   9.000000E+99

> <Gold.Protein.RotatedTorsions>
[ 6907 6896 6895 6894 ] final -114.14 input  -60.11 | X-H torsion
[ 7974 7965 7964 7962 ] final   30.57 input  175.53 | X-H torsion
[ 8008 7997 7996 7995 ] final  -26.29 input   59.86 | X-H torsion
[ 10167 10162 10161 10158 ] final  -16.64 input  -65.29 | X-H torsion
[ 10718 10713 10712 10709 ] final -175.26 input   66.30 | X-H torsion
[ 10763 10752 10751 10750 ] final -159.12 input  -60.55 | X-H torsion
[ 11005 11000 10999 10996 ] final   70.49 input  -57.11 | X-H torsion

> <Gold.Protein.ActiveResidues>
 VAL166  LYS551  ARG553  GLY616  TRP617  ASP618  TYR619  PRO620  LYS621  CYS622 
 ASP623  PHE694  ASN695  SER759  ASP760  ASP761  ALA762  ILE779  LEU786  VAL792 
 PHE793  MET794  SER795  GLU796  ALA797  LYS798  CYS799  TRP800  GLU811  SER814 

> <Gold.Protein.RotatedAtoms>
  150.7880  133.8843  159.3294 H   0  0  0  0  0  0  0  0  0  0  0  0  # atno 6907 bound_to 6896
  151.6688  135.0977  160.0203 H   0  0  0  0  0  0  0  0  0  0  0  0  # atno 6908 bound_to 6896
  152.3949  133.6693  159.6303 H   0  0  0  0  0  0  0  0  0  0  0  0  # atno 6909 bound_to 6896
  146.1604  139.6772  142.9037 H   0  0  0  0  0  0  0  0  0  0  0  0  # atno 7974 bound_to 7965
  154.4433  140.1903  156.0752 H   0  0  0  0  0  0  0  0  0  0  0  0  # atno 8008 bound_to 7997
  156.0481  140.3312  155.7293 H   0  0  0  0  0  0  0  0  0  0  0  0  # atno 8009 bound_to 7997
  155.5599  140.0602  157.2822 H   0  0  0  0  0  0  0  0  0  0  0  0  # atno 8010 bound_to 7997
  140.7236  143.5096  150.9766 H   0  0  0  0  0  0  0  0  0  0  0  0  # atno 10167 bound_to 10162
  156.7973  130.9539  151.3119 H   0  0  0  0  0  0  0  0  0  0  0  0  # atno 10718 bound_to 10713
  154.7501  135.3090  154.8573 H   0  0  0  0  0  0  0  0  0  0  0  0  # atno 10763 bound_to 10752
  153.9363  135.6780  153.4749 H   0  0  0  0  0  0  0  0  0  0  0  0  # atno 10764 bound_to 10752
  153.1097  135.4872  154.8941 H   0  0  0  0  0  0  0  0  0  0  0  0  # atno 10765 bound_to 10752
  139.9595  134.7086  156.0678 H   0  0  0  0  0  0  0  0  0  0  0  0  # atno 11005 bound_to 11000
  145.4603  141.0432  143.2755 LP  0  0  0  0  0  0  0  0  0  0  0  0  # atno 17320 bound_to 7965
  144.8019  139.6124  143.7068 LP  0  0  0  0  0  0  0  0  0  0  0  0  # atno 17321 bound_to 7965
  139.8809  143.7073  152.3157 LP  0  0  0  0  0  0  0  0  0  0  0  0  # atno 17342 bound_to 10162
  139.7355  144.7572  151.0734 LP  0  0  0  0  0  0  0  0  0  0  0  0  # atno 17343 bound_to 10162
  157.6571  130.8934  149.9752 LP  0  0  0  0  0  0  0  0  0  0  0  0  # atno 17370 bound_to 10713
  156.1123  130.3649  150.0028 LP  0  0  0  0  0  0  0  0  0  0  0  0  # atno 17371 bound_to 10713
  141.1270  133.6596  156.3363 LP  0  0  0  0  0  0  0  0  0  0  0  0  # atno 17394 bound_to 11000
  140.5533  134.6006  157.5414 LP  0  0  0  0  0  0  0  0  0  0  0  0  # atno 17395 bound_to 11000

$$$$
