AV-unprocessed.smi:1487|AV-procd|sdf|6010|dock7
  -GOLD-   22720 6113D 1   1.00000     0.00000
 Structure written by MMmdl.
 48 50  0  0  0  0  0  0  0  0  2 V2000
  153.7030  142.9442  163.4998 C   0  0  0  0  0  0  0  0  0  0  0  0
  153.1528  143.0521  162.0884 C   0  0  0  0  0  0  0  0  0  0  0  0
  152.2704  144.1103  161.7749 C   0  0  0  0  0  0  0  0  0  0  0  0
  151.7376  144.2476  160.4746 C   0  0  0  0  0  0  0  0  0  0  0  0
  150.8689  145.1916  159.9541 N   0  0  0  0  0  0  0  0  0  0  0  0
  150.7535  144.7841  158.6938 C   0  0  0  0  0  0  0  0  0  0  0  0
  151.4412  143.6821  158.3368 N   0  0  0  0  0  0  0  0  0  0  0  0
  151.4702  143.0528  157.0287 C   0  0  0  0  0  0  0  0  0  0  0  0
  150.5553  141.8158  156.9473 C   0  0  1  0  0  0  0  0  0  0  0  0
  149.2033  142.2291  157.0032 O   0  0  0  0  0  0  0  0  0  0  0  0
  150.7777  141.0327  155.6384 C   0  0  0  0  0  0  0  0  0  0  0  0
  150.6240  139.5656  155.8140 N   0  3  2  0  0  0  0  0  0  0  0  0
  151.2308  139.0544  157.0715 C   0  0  0  0  0  0  0  0  0  0  0  0
  150.8970  137.5689  157.2790 C   0  0  0  0  0  0  0  0  0  0  0  0
  151.3588  136.7277  156.0807 C   0  0  0  0  0  0  0  0  0  0  0  0
  150.8066  137.2955  154.7625 C   0  0  1  0  0  0  0  0  0  0  0  0
  149.4143  137.0670  154.6695 O   0  0  0  0  0  0  0  0  0  0  0  0
  151.0930  138.8039  154.6260 C   0  0  0  0  0  0  0  0  0  0  0  0
  152.1151  143.2898  159.4883 C   0  0  0  0  0  0  0  0  0  0  0  0
  152.9928  142.2329  159.7877 C   0  0  0  0  0  0  0  0  0  0  0  0
  153.5157  142.1104  161.0921 C   0  0  0  0  0  0  0  0  0  0  0  0
  154.4620  140.9653  161.4073 C   0  0  0  0  0  0  0  0  0  0  0  0
  153.2836  143.7123  164.1503 H   0  0  0  0  0  0  0  0  0  0  0  0
  154.7866  143.0639  163.4957 H   0  0  0  0  0  0  0  0  0  0  0  0
  153.4628  141.9731  163.9331 H   0  0  0  0  0  0  0  0  0  0  0  0
  151.9945  144.8285  162.5329 H   0  0  0  0  0  0  0  0  0  0  0  0
  150.1292  145.3149  157.9897 H   0  0  0  0  0  0  0  0  0  0  0  0
  151.1811  143.7922  156.2800 H   0  0  0  0  0  0  0  0  0  0  0  0
  152.5016  142.7742  156.8091 H   0  0  0  0  0  0  0  0  0  0  0  0
  150.7522  141.1817  157.8112 H   0  0  0  0  0  0  0  0  0  0  0  0
  149.1331  143.0820  156.6004 H   0  0  0  0  0  0  0  0  0  0  0  0
  150.0607  141.3933  154.8989 H   0  0  0  0  0  0  0  0  0  0  0  0
  151.7666  141.2432  155.2277 H   0  0  0  0  0  0  0  0  0  0  0  0
  152.3123  139.1959  157.0394 H   0  0  0  0  0  0  0  0  0  0  0  0
  150.8663  139.6189  157.9287 H   0  0  0  0  0  0  0  0  0  0  0  0
  151.3706  137.2049  158.1915 H   0  0  0  0  0  0  0  0  0  0  0  0
  149.8221  137.4512  157.4221 H   0  0  0  0  0  0  0  0  0  0  0  0
  152.4489  136.7318  156.0427 H   0  0  0  0  0  0  0  0  0  0  0  0
  151.0601  135.6863  156.2072 H   0  0  0  0  0  0  0  0  0  0  0  0
  151.2690  136.7691  153.9269 H   0  0  0  0  0  0  0  0  0  0  0  0
  149.1753  137.0269  153.7555 H   0  0  0  0  0  0  0  0  0  0  0  0
  150.6136  139.1848  153.7228 H   0  0  0  0  0  0  0  0  0  0  0  0
  152.1652  138.9661  154.5029 H   0  0  0  0  0  0  0  0  0  0  0  0
  153.2618  141.5231  159.0197 H   0  0  0  0  0  0  0  0  0  0  0  0
  154.6617  140.3586  160.5238 H   0  0  0  0  0  0  0  0  0  0  0  0
  154.0325  140.3152  162.1700 H   0  0  0  0  0  0  0  0  0  0  0  0
  155.4158  141.3462  161.7734 H   0  0  0  0  0  0  0  0  0  0  0  0
  149.6298  139.3935  155.8744 H   0  0  0  0  0  0  0  0  0  0  0  0
  1  2  1  0  0  0  0
  1 23  1  0  0  0  0
  1 24  1  0  0  0  0
  1 25  1  0  0  0  0
  2 21  1  0  0  0  0
  2  3  2  0  0  0  0
  3  4  1  0  0  0  0
  3 26  1  0  0  0  0
  4 19  2  0  0  0  0
  4  5  1  0  0  0  0
  5  6  2  0  0  0  0
  6  7  1  0  0  0  0
  6 27  1  0  0  0  0
  7  8  1  0  0  0  0
  7 19  1  0  0  0  0
  8  9  1  0  0  0  0
  8 28  1  0  0  0  0
  8 29  1  0  0  0  0
  9 10  1  0  0  0  0
  9 11  1  0  0  0  0
  9 30  1  0  0  0  0
 10 31  1  0  0  0  0
 11 12  1  0  0  0  0
 11 32  1  0  0  0  0
 11 33  1  0  0  0  0
 12 18  1  0  0  0  0
 12 13  1  0  0  0  0
 12 48  1  0  0  0  0
 13 14  1  0  0  0  0
 13 34  1  0  0  0  0
 13 35  1  0  0  0  0
 14 15  1  0  0  0  0
 14 36  1  0  0  0  0
 14 37  1  0  0  0  0
 15 16  1  0  0  0  0
 15 38  1  0  0  0  0
 15 39  1  0  0  0  0
 16 17  1  0  0  0  0
 16 18  1  0  0  0  0
 16 40  1  0  0  0  0
 17 41  1  0  0  0  0
 18 42  1  0  0  0  0
 18 43  1  0  0  0  0
 19 20  1  0  0  0  0
 20 21  2  0  0  0  0
 20 44  1  0  0  0  0
 21 22  1  0  0  0  0
 22 45  1  0  0  0  0
 22 46  1  0  0  0  0
 22 47  1  0  0  0  0
M  CHG  1  12   1
M  END
> <s_m_source_file>
AV-unprocessed.smi

> <i_m_source_file_index>
1487

> <i_lp_mmshare_version>
43012

> <i_f3d_flags>
0

> <s_epik_input>
W0NIM11jKFtjSF0xKWMoW0NIM10pW2NIXWMoYzEyKW4oW2NIXW4yKVtDSDJdW0NASF0oW09IXSlbQ0gyXU4zW0NIMl1bQ0gyXVtDSDJdW0NAQEhdKFtPSF0pW0NIMl0z

> <s_epik_cmdline>
J2VwaWtfcHl0aG9uJywgJy1waCcsICc3LjAnLCAnLXRuJywgJzgnLCAnLW1hJywgJzIwMCcsICctbWV0YWxfYmluZGluZycsICctaW1hZScsICc8aW5maWxlLm1hZT4nLCAnLW9tYWUnLCAnPG91dGZpbGUubWFlPic=

> <r_epik_Ionization_Penalty>
0.0940186

> <r_epik_Ionization_Penalty_Charging>
0.00679686

> <r_epik_Ionization_Penalty_Neutral>
0.0872218

> <r_epik_State_Penalty>
0.0799311

> <r_epik_Charging_Adjusted_Penalty>
0.086728

> <i_epik_Tot_Q>
1

> <i_epik_Tot_abs_Q>
1

> <r_epik_Metal_State_Penalty>
7.95545e-05

> <b_epik_Metal_Only>
0

> <s_lp_Force_Field>
OPLS_2005

> <r_lp_Energy>
21.7982

> <b_lp_Chiralities_Consistent>
1

> <s_lp_Variant>
AV-unprocessed.smi:1487-4

> <Gold.Version>
5.8.1

> <Gold.Id.Protein>
6NUR|6NUR_protein|mol2

> <Gold.PLP.Fitness>
58.6081

> <Gold.PLP.PLP>
-51.7014

> <Gold.PLP.part.hbond>
-2.0000

> <Gold.PLP.part.metal>
0.0000

> <Gold.PLP.part.buried>
-6.4943

> <Gold.PLP.part.nonpolar>
-43.7046

> <Gold.PLP.part.repulsive>
0.2442

> <Gold.PLP.ligand.clash>
0.0000

> <Gold.PLP.ligand.torsion>
0.8925

> <Gold.PLP.Chemscore.Hbond>
2.0000

> <Gold.PLP.Chemscore.CHOScore>
0.8834

> <Gold.PLP.Chemscore.Metal>
0.0000

> <Gold.Chemscore.Hbonds>
donor molecule, donor type, donor heavy atom, donor atom, acceptor molecule, acceptor atom, score
      L1  H    10    31       P1  8028  1.00
      L1  H    17    41       P1  7948  0.96
      L1  C     6    27       P1  8028  0.14
      L1  C     6    27       P1  8029  0.76

> <Gold.PLP.Chemscore.Internal.Correction>
0.0415

> <Gold.Rescore>
     Score         DG    S(hbond)    S(metal)    S(lipo)     H(rot)  DE(clash)    DE(int)     intcor
     19.18     -21.49       1.97        0.00     139.08       2.67       1.43       0.88       ----

> <Gold.Chemscore.Fitness>
19.1811

> <Gold.Chemscore.DG>
-21.4919

> <Gold.Chemscore.ZeroCoef>
-5.4800

> <Gold.Chemscore.Hbond>
1.9693

> <Gold.Chemscore.Metal>
0.0000

> <Gold.Chemscore.Lipo>
139.0838

> <Gold.Chemscore.Internal_Hbond>
0.0000

> <Gold.Chemscore.DEClash>
1.4301

> <Gold.Chemscore.DEInternal>
0.8807

> <Gold.Chemscore.Rot>
2.6712

> <Gold.Chemscore.Internal.Correction>
   9.000000E+99

> <Gold.Chemscore.Hbonds>
donor molecule, donor type, donor heavy atom, donor atom, acceptor molecule, acceptor atom, score
      L1  H    10    31       P1  8028  0.99
      L1  H    17    41       P1  7948  0.90

> <Gold.Chemscore.Hbond.Weighted>
-6.5775

> <Gold.Chemscore.Metal.Weighted>
-0.0000

> <Gold.Chemscore.Lipo.Weighted>
-16.2728

> <Gold.Chemscore.Internal_Hbond.Weighted>
0.0000

> <Gold.Chemscore.DEClash.Weighted>
1.4301

> <Gold.Chemscore.DEInternal.Weighted>
0.8807

> <Gold.Chemscore.Rot.Weighted>
6.8383

> <Gold.Chemscore.Internal.Correction.Weighted>
   9.000000E+99

> <Gold.Protein.RotatedTorsions>
[ 6907 6896 6895 6894 ] final  -79.57 input  -60.11 | X-H torsion
[ 7974 7965 7964 7962 ] final  -14.12 input  175.53 | X-H torsion
[ 8008 7997 7996 7995 ] final  -70.09 input   59.86 | X-H torsion
[ 10167 10162 10161 10158 ] final  -58.75 input  -65.29 | X-H torsion
[ 10718 10713 10712 10709 ] final  -46.54 input   66.30 | X-H torsion
[ 10763 10752 10751 10750 ] final -147.95 input  -60.55 | X-H torsion
[ 11005 11000 10999 10996 ] final   94.52 input  -57.11 | X-H torsion

> <Gold.Protein.ActiveResidues>
 VAL166  LYS551  ARG553  GLY616  TRP617  ASP618  TYR619  PRO620  LYS621  CYS622 
 ASP623  PHE694  ASN695  SER759  ASP760  ASP761  ALA762  ILE779  LEU786  VAL792 
 PHE793  MET794  SER795  GLU796  ALA797  LYS798  CYS799  TRP800  GLU811  SER814 

> <Gold.Protein.RotatedAtoms>
  150.6947  134.4102  159.5157 H   0  0  0  0  0  0  0  0  0  0  0  0  # atno 6907 bound_to 6896
  152.1861  134.8709  160.0531 H   0  0  0  0  0  0  0  0  0  0  0  0  # atno 6908 bound_to 6896
  151.9682  133.3682  159.4098 H   0  0  0  0  0  0  0  0  0  0  0  0  # atno 6909 bound_to 6896
  146.2087  140.3303  142.8398 H   0  0  0  0  0  0  0  0  0  0  0  0  # atno 7974 bound_to 7965
  154.4986  140.0841  156.7750 H   0  0  0  0  0  0  0  0  0  0  0  0  # atno 8008 bound_to 7997
  155.4056  140.3439  155.4242 H   0  0  0  0  0  0  0  0  0  0  0  0  # atno 8009 bound_to 7997
  156.1427  140.1534  156.8883 H   0  0  0  0  0  0  0  0  0  0  0  0  # atno 8010 bound_to 7997
  140.6178  143.2408  151.5555 H   0  0  0  0  0  0  0  0  0  0  0  0  # atno 10167 bound_to 10162
  156.2173  130.4164  149.9038 H   0  0  0  0  0  0  0  0  0  0  0  0  # atno 10718 bound_to 10713
  154.8259  135.3347  154.6897 H   0  0  0  0  0  0  0  0  0  0  0  0  # atno 10763 bound_to 10752
  153.7523  135.6938  153.4947 H   0  0  0  0  0  0  0  0  0  0  0  0  # atno 10764 bound_to 10752
  153.2167  135.4463  155.0393 H   0  0  0  0  0  0  0  0  0  0  0  0  # atno 10765 bound_to 10752
  139.8798  134.8849  156.3876 H   0  0  0  0  0  0  0  0  0  0  0  0  # atno 11005 bound_to 11000
  144.8857  140.7459  143.5958 LP  0  0  0  0  0  0  0  0  0  0  0  0  # atno 17320 bound_to 7965
  145.3224  139.1784  143.4581 LP  0  0  0  0  0  0  0  0  0  0  0  0  # atno 17321 bound_to 7965
  139.5413  144.2641  152.1356 LP  0  0  0  0  0  0  0  0  0  0  0  0  # atno 17342 bound_to 10162
  140.1854  144.4804  150.6506 LP  0  0  0  0  0  0  0  0  0  0  0  0  # atno 17343 bound_to 10162
  156.6696  130.8815  151.3560 LP  0  0  0  0  0  0  0  0  0  0  0  0  # atno 17370 bound_to 10713
  157.7069  130.9396  150.0961 LP  0  0  0  0  0  0  0  0  0  0  0  0  # atno 17371 bound_to 10713
  140.9355  133.7550  156.0080 LP  0  0  0  0  0  0  0  0  0  0  0  0  # atno 17394 bound_to 11000
  140.8280  134.3211  157.5359 LP  0  0  0  0  0  0  0  0  0  0  0  0  # atno 17395 bound_to 11000

$$$$
