AV-unprocessed.smi:1896|AV-procd|sdf|7682|dock6
  -GOLD-   22720 9423D 1   1.00000     0.00000
 Structure written by MMmdl.
 47 48  0  0  0  0  0  0  0  0  2 V2000
  151.3635  134.6333  156.3065 C   0  0  0  0  0  0  0  0  0  0  0  0
  151.1709  135.9751  155.6591 C   0  0  0  0  0  0  0  0  0  0  0  0
  152.2218  136.7503  155.4502 N   0  0  0  0  0  0  0  0  0  0  0  0
  151.7214  137.8617  154.8743 N   0  0  0  0  0  0  0  0  0  0  0  0
  152.6203  138.9381  154.5054 C   0  0  0  0  0  0  0  0  0  0  0  0
  150.3510  137.7882  154.7184 C   0  0  0  0  0  0  0  0  0  0  0  0
  149.5593  138.8983  154.1058 C   0  0  0  0  0  0  0  0  0  0  0  0
  149.9550  136.5767  155.2196 C   0  0  0  0  0  0  0  0  0  0  0  0
  148.5640  136.0012  155.3008 C   0  0  0  0  0  0  0  0  0  0  0  0
  148.6064  134.5138  154.9524 C   0  0  0  0  0  0  0  0  0  0  0  0
  148.5097  133.6700  155.8432 O   0  0  0  0  0  0  0  0  0  0  0  0
  148.7537  134.2067  153.6535 N   0  0  0  0  0  0  0  0  0  0  0  0
  148.8707  132.8561  153.1096 C   0  0  0  0  0  0  0  0  0  0  0  0
  147.5639  132.0311  153.2412 C   0  0  2  0  0  0  0  0  0  0  0  0
  147.8402  130.6241  153.8189 C   0  0  0  0  0  0  0  0  0  0  0  0
  146.8705  131.9457  151.9224 N   0  3  0  0  0  0  0  0  0  0  0  0
  145.5914  131.2018  151.9087 C   0  0  0  0  0  0  0  0  0  0  0  0
  144.8756  131.6686  150.6468 C   0  0  0  0  0  0  0  0  0  0  0  0
  145.2363  133.1475  150.5774 C   0  0  0  0  0  0  0  0  0  0  0  0
  146.6081  133.2486  151.2586 C   0  0  0  0  0  0  0  0  0  0  0  0
  150.9822  134.6370  157.3275 H   0  0  0  0  0  0  0  0  0  0  0  0
  152.4162  134.3510  156.3464 H   0  0  0  0  0  0  0  0  0  0  0  0
  150.8355  133.8542  155.7570 H   0  0  0  0  0  0  0  0  0  0  0  0
  152.6640  139.0216  153.4194 H   0  0  0  0  0  0  0  0  0  0  0  0
  153.6245  138.7488  154.8869 H   0  0  0  0  0  0  0  0  0  0  0  0
  152.2596  139.8790  154.9213 H   0  0  0  0  0  0  0  0  0  0  0  0
  148.4994  138.6493  154.0571 H   0  0  0  0  0  0  0  0  0  0  0  0
  149.9011  139.1044  153.0915 H   0  0  0  0  0  0  0  0  0  0  0  0
  149.6586  139.8131  154.6903 H   0  0  0  0  0  0  0  0  0  0  0  0
  148.1413  136.1204  156.2991 H   0  0  0  0  0  0  0  0  0  0  0  0
  147.8774  136.5120  154.6247 H   0  0  0  0  0  0  0  0  0  0  0  0
  148.8233  134.9704  152.9961 H   0  0  0  0  0  0  0  0  0  0  0  0
  149.1463  132.9772  152.0624 H   0  0  0  0  0  0  0  0  0  0  0  0
  149.7006  132.3209  153.5745 H   0  0  0  0  0  0  0  0  0  0  0  0
  146.8970  132.5484  153.9332 H   0  0  0  0  0  0  0  0  0  0  0  0
  148.3206  130.6765  154.7952 H   0  0  0  0  0  0  0  0  0  0  0  0
  148.4910  130.0477  153.1607 H   0  0  0  0  0  0  0  0  0  0  0  0
  146.9249  130.0528  153.9701 H   0  0  0  0  0  0  0  0  0  0  0  0
  145.7453  130.1223  151.9118 H   0  0  0  0  0  0  0  0  0  0  0  0
  144.9997  131.4673  152.7866 H   0  0  0  0  0  0  0  0  0  0  0  0
  145.2773  131.1465  149.7771 H   0  0  0  0  0  0  0  0  0  0  0  0
  143.7997  131.4937  150.6787 H   0  0  0  0  0  0  0  0  0  0  0  0
  145.2458  133.5264  149.5549 H   0  0  0  0  0  0  0  0  0  0  0  0
  144.5043  133.7298  151.1389 H   0  0  0  0  0  0  0  0  0  0  0  0
  146.5998  134.0731  151.9735 H   0  0  0  0  0  0  0  0  0  0  0  0
  147.3977  133.4458  150.5328 H   0  0  0  0  0  0  0  0  0  0  0  0
  147.4848  131.4383  151.3012 H   0  0  0  0  0  0  0  0  0  0  0  0
  1  2  1  0  0  0  0
  1 21  1  0  0  0  0
  1 22  1  0  0  0  0
  1 23  1  0  0  0  0
  2  8  1  0  0  0  0
  2  3  2  0  0  0  0
  3  4  1  0  0  0  0
  4  5  1  0  0  0  0
  4  6  1  0  0  0  0
  5 24  1  0  0  0  0
  5 25  1  0  0  0  0
  5 26  1  0  0  0  0
  6  7  1  0  0  0  0
  6  8  2  0  0  0  0
  7 27  1  0  0  0  0
  7 28  1  0  0  0  0
  7 29  1  0  0  0  0
  8  9  1  0  0  0  0
  9 10  1  0  0  0  0
  9 30  1  0  0  0  0
  9 31  1  0  0  0  0
 10 11  2  0  0  0  0
 10 12  1  0  0  0  0
 12 13  1  0  0  0  0
 12 32  1  0  0  0  0
 13 14  1  0  0  0  0
 13 33  1  0  0  0  0
 13 34  1  0  0  0  0
 14 15  1  0  0  0  0
 14 16  1  0  0  0  0
 14 35  1  0  0  0  0
 15 36  1  0  0  0  0
 15 37  1  0  0  0  0
 15 38  1  0  0  0  0
 16 20  1  0  0  0  0
 16 17  1  0  0  0  0
 16 47  1  0  0  0  0
 17 18  1  0  0  0  0
 17 39  1  0  0  0  0
 17 40  1  0  0  0  0
 18 19  1  0  0  0  0
 18 41  1  0  0  0  0
 18 42  1  0  0  0  0
 19 20  1  0  0  0  0
 19 43  1  0  0  0  0
 19 44  1  0  0  0  0
 20 45  1  0  0  0  0
 20 46  1  0  0  0  0
M  CHG  1  16   1
M  END
> <s_m_source_file>
AV-unprocessed.smi

> <i_m_source_file_index>
1896

> <i_lp_mmshare_version>
43012

> <i_f3d_flags>
0

> <s_epik_input>
W0NIM11jMW5uKFtDSDNdKWMoW0NIM10pYzFbQ0gyXUMoPU8pW05IXVtDSDJdW0NASF0oW0NIM10pTjJbQ0gyXVtDSDJdW0NIMl1bQ0gyXTI=

> <s_epik_cmdline>
J2VwaWtfcHl0aG9uJywgJy1waCcsICc3LjAnLCAnLXRuJywgJzgnLCAnLW1hJywgJzIwMCcsICctbWV0YWxfYmluZGluZycsICctaW1hZScsICc8aW5maWxlLm1hZT4nLCAnLW9tYWUnLCAnPG91dGZpbGUubWFlPic=

> <r_lp_tautomer_probability>
1

> <r_epik_Ionization_Penalty>
0.00723064

> <r_epik_Ionization_Penalty_Charging>
0.0050435

> <r_epik_Ionization_Penalty_Neutral>
0.00218714

> <r_epik_State_Penalty>
-0

> <r_epik_Charging_Adjusted_Penalty>
0.0050435

> <i_epik_Tot_Q>
1

> <i_epik_Tot_abs_Q>
1

> <r_epik_Metal_State_Penalty>
-0

> <b_epik_Metal_Only>
0

> <s_lp_Force_Field>
OPLS_2005

> <r_lp_Energy>
25.1325

> <b_lp_Chiralities_Consistent>
1

> <s_lp_Variant>
AV-unprocessed.smi:1896-1

> <Gold.Version>
5.8.1

> <Gold.Id.Protein>
6NUR|6NUR_protein|mol2

> <Gold.PLP.Fitness>
42.5517

> <Gold.PLP.PLP>
-35.8171

> <Gold.PLP.part.hbond>
-3.0000

> <Gold.PLP.part.metal>
0.0000

> <Gold.PLP.part.buried>
-3.6411

> <Gold.PLP.part.nonpolar>
-29.0397

> <Gold.PLP.part.repulsive>
0.0480

> <Gold.PLP.ligand.clash>
0.0000

> <Gold.PLP.ligand.torsion>
1.1607

> <Gold.PLP.Chemscore.Hbond>
3.0000

> <Gold.PLP.Chemscore.CHOScore>
0.0000

> <Gold.PLP.Chemscore.Metal>
0.0000

> <Gold.Chemscore.Hbonds>
donor molecule, donor type, donor heavy atom, donor atom, acceptor molecule, acceptor atom, score
      L1  H    12    32       P1  7948  1.00
      L1  H    16    47       P1 10747  1.00
      P1  H 10752 10763       L1     3  0.51

> <Gold.PLP.Chemscore.Internal.Correction>
0.0561

> <Gold.Rescore>
     Score         DG    S(hbond)    S(metal)    S(lipo)     H(rot)  DE(clash)    DE(int)     intcor
     18.19     -19.29       2.41        0.00      85.20       1.65       0.00       1.09       ----

> <Gold.Chemscore.Fitness>
18.1928

> <Gold.Chemscore.DG>
-19.2886

> <Gold.Chemscore.ZeroCoef>
-5.4800

> <Gold.Chemscore.Hbond>
2.4141

> <Gold.Chemscore.Metal>
0.0000

> <Gold.Chemscore.Lipo>
85.1975

> <Gold.Chemscore.Internal_Hbond>
0.0000

> <Gold.Chemscore.DEClash>
0.0009

> <Gold.Chemscore.DEInternal>
1.0949

> <Gold.Chemscore.Rot>
1.6495

> <Gold.Chemscore.Internal.Correction>
   9.000000E+99

> <Gold.Chemscore.Hbonds>
donor molecule, donor type, donor heavy atom, donor atom, acceptor molecule, acceptor atom, score
      L1  H    12    32       P1  7948  0.26
      L1  H    16    47       P1 10747  1.00
      P1  H 10752 10763       L1     3  0.03

> <Gold.Chemscore.Hbond.Weighted>
-8.0632

> <Gold.Chemscore.Metal.Weighted>
-0.0000

> <Gold.Chemscore.Lipo.Weighted>
-9.9681

> <Gold.Chemscore.Internal_Hbond.Weighted>
0.0000

> <Gold.Chemscore.DEClash.Weighted>
0.0009

> <Gold.Chemscore.DEInternal.Weighted>
1.0949

> <Gold.Chemscore.Rot.Weighted>
4.2227

> <Gold.Chemscore.Internal.Correction.Weighted>
   9.000000E+99

> <Gold.Protein.RotatedTorsions>
[ 6907 6896 6895 6894 ] final  -17.74 input  -60.11 | X-H torsion
[ 7974 7965 7964 7962 ] final  -93.97 input  175.53 | X-H torsion
[ 8008 7997 7996 7995 ] final  -71.24 input   59.86 | X-H torsion
[ 10167 10162 10161 10158 ] final  156.70 input  -65.29 | X-H torsion
[ 10718 10713 10712 10709 ] final  130.16 input   66.30 | X-H torsion
[ 10763 10752 10751 10750 ] final   89.50 input  -60.55 | X-H torsion
[ 11005 11000 10999 10996 ] final   34.30 input  -57.11 | X-H torsion

> <Gold.Protein.ActiveResidues>
 VAL166  LYS551  ARG553  GLY616  TRP617  ASP618  TYR619  PRO620  LYS621  CYS622 
 ASP623  PHE694  ASN695  SER759  ASP760  ASP761  ALA762  ILE779  LEU786  VAL792 
 PHE793  MET794  SER795  GLU796  ALA797  LYS798  CYS799  TRP800  GLU811  SER814 

> <Gold.Protein.RotatedAtoms>
  151.2888  135.0735  159.9196 H   0  0  0  0  0  0  0  0  0  0  0  0  # atno 6907 bound_to 6896
  152.5320  133.9954  159.7880 H   0  0  0  0  0  0  0  0  0  0  0  0  # atno 6908 bound_to 6896
  151.0220  133.5817  159.2701 H   0  0  0  0  0  0  0  0  0  0  0  0  # atno 6909 bound_to 6896
  145.3795  140.9516  143.2402 H   0  0  0  0  0  0  0  0  0  0  0  0  # atno 7974 bound_to 7965
  154.5073  140.0819  156.7919 H   0  0  0  0  0  0  0  0  0  0  0  0  # atno 8008 bound_to 7997
  155.3865  140.3430  155.4231 H   0  0  0  0  0  0  0  0  0  0  0  0  # atno 8009 bound_to 7997
  156.1531  140.1564  156.8725 H   0  0  0  0  0  0  0  0  0  0  0  0  # atno 8010 bound_to 7997
  139.4821  144.4985  151.8204 H   0  0  0  0  0  0  0  0  0  0  0  0  # atno 10167 bound_to 10162
  157.5088  131.1096  150.9323 H   0  0  0  0  0  0  0  0  0  0  0  0  # atno 10718 bound_to 10713
  153.1877  135.4468  155.0110 H   0  0  0  0  0  0  0  0  0  0  0  0  # atno 10763 bound_to 10752
  154.8071  135.3279  154.7406 H   0  0  0  0  0  0  0  0  0  0  0  0  # atno 10764 bound_to 10752
  153.7863  135.6973  153.4934 H   0  0  0  0  0  0  0  0  0  0  0  0  # atno 10765 bound_to 10752
  140.2543  134.3267  155.7879 H   0  0  0  0  0  0  0  0  0  0  0  0  # atno 11005 bound_to 11000
  144.8518  139.5310  143.6853 LP  0  0  0  0  0  0  0  0  0  0  0  0  # atno 17320 bound_to 7965
  146.2849  139.6976  142.9203 LP  0  0  0  0  0  0  0  0  0  0  0  0  # atno 17321 bound_to 7965
  140.4476  144.1900  150.5895 LP  0  0  0  0  0  0  0  0  0  0  0  0  # atno 17342 bound_to 10162
  140.4618  143.2446  151.9209 LP  0  0  0  0  0  0  0  0  0  0  0  0  # atno 17343 bound_to 10162
  156.9970  130.5585  149.5308 LP  0  0  0  0  0  0  0  0  0  0  0  0  # atno 17370 bound_to 10713
  156.0275  130.5368  150.8447 LP  0  0  0  0  0  0  0  0  0  0  0  0  # atno 17371 bound_to 10713
  141.2198  133.7372  156.9086 LP  0  0  0  0  0  0  0  0  0  0  0  0  # atno 17394 bound_to 11000
  140.1527  134.9219  157.2613 LP  0  0  0  0  0  0  0  0  0  0  0  0  # atno 17395 bound_to 11000

$$$$
