AV-unprocessed.smi:1472|AV-procd|sdf|5965|dock4
  -GOLD-   22720 6 53D 1   1.00000     0.00000
 Structure written by MMmdl.
 42 43  0  0  0  0  0  0  0  0  2 V2000
  151.1844  142.0472  157.8208 C   0  0  0  0  0  0  0  0  0  0  0  0
  151.2127  140.3071  157.2251 S   0  0  0  0  0  0  0  0  0  0  0  0
  152.6024  139.8278  157.2724 O   0  0  0  0  0  0  0  0  0  0  0  0
  150.1608  139.5634  157.9352 O   0  0  0  0  0  0  0  0  0  0  0  0
  150.7443  140.4227  155.5529 N   0  0  0  0  0  0  0  0  0  0  0  0
  150.7496  139.2165  154.7023 C   0  0  0  0  0  0  0  0  0  0  0  0
  149.3309  138.6521  154.5057 C   0  0  0  0  0  0  0  0  0  0  0  0
  148.3628  139.7235  153.9704 C   0  0  0  0  0  0  0  0  0  0  0  0
  146.9267  139.1909  153.7754 C   0  0  0  0  0  0  0  0  0  0  0  0
  146.8861  137.9425  153.0192 N   0  0  0  0  0  0  0  0  0  0  0  0
  145.8008  137.1701  152.8676 C   0  0  0  0  0  0  0  0  0  0  0  0
  144.7095  137.4278  153.3749 O   0  0  0  0  0  0  0  0  0  0  0  0
  146.0708  136.0895  152.1144 N   0  0  0  0  0  0  0  0  0  0  0  0
  145.1837  135.0646  151.6846 C   0  0  0  0  0  0  0  0  0  0  0  0
  143.9610  134.9242  152.3783 C   0  0  0  0  0  0  0  0  0  0  0  0
  143.0586  133.9089  152.0002 C   0  0  0  0  0  0  0  0  0  0  0  0
  143.3717  133.0742  150.9862 N   0  3  0  0  0  0  0  0  0  0  0  0
  144.5330  133.1601  150.3027 C   0  0  0  0  0  0  0  0  0  0  0  0
  145.4749  134.1549  150.6359 C   0  0  0  0  0  0  0  0  0  0  0  0
  148.3824  140.9268  154.9266 C   0  0  0  0  0  0  0  0  0  0  0  0
  149.8064  141.4767  155.1183 C   0  0  0  0  0  0  0  0  0  0  0  0
  151.4777  142.0682  158.8700 H   0  0  0  0  0  0  0  0  0  0  0  0
  150.1792  142.4544  157.7285 H   0  0  0  0  0  0  0  0  0  0  0  0
  151.8854  142.6488  157.2453 H   0  0  0  0  0  0  0  0  0  0  0  0
  151.1737  139.4818  153.7332 H   0  0  0  0  0  0  0  0  0  0  0  0
  151.4055  138.4566  155.1262 H   0  0  0  0  0  0  0  0  0  0  0  0
  149.3811  137.8092  153.8161 H   0  0  0  0  0  0  0  0  0  0  0  0
  148.9536  138.2515  155.4457 H   0  0  0  0  0  0  0  0  0  0  0  0
  148.7345  140.0640  153.0027 H   0  0  0  0  0  0  0  0  0  0  0  0
  146.4611  139.0126  154.7452 H   0  0  0  0  0  0  0  0  0  0  0  0
  146.3102  139.9391  153.2741 H   0  0  0  0  0  0  0  0  0  0  0  0
  147.7457  137.6529  152.5761 H   0  0  0  0  0  0  0  0  0  0  0  0
  147.0368  135.9662  151.8480 H   0  0  0  0  0  0  0  0  0  0  0  0
  143.7101  135.5900  153.1915 H   0  0  0  0  0  0  0  0  0  0  0  0
  142.1041  133.7395  152.4767 H   0  0  0  0  0  0  0  0  0  0  0  0
  144.6773  132.4309  149.5188 H   0  0  0  0  0  0  0  0  0  0  0  0
  146.4051  134.1908  150.0897 H   0  0  0  0  0  0  0  0  0  0  0  0
  147.7420  141.7191  154.5372 H   0  0  0  0  0  0  0  0  0  0  0  0
  147.9589  140.6427  155.8892 H   0  0  0  0  0  0  0  0  0  0  0  0
  149.8029  142.3007  155.8313 H   0  0  0  0  0  0  0  0  0  0  0  0
  150.1674  141.8893  154.1755 H   0  0  0  0  0  0  0  0  0  0  0  0
  142.7057  132.3450  150.7293 H   0  0  0  0  0  0  0  0  0  0  0  0
  1  2  1  0  0  0  0
  1 22  1  0  0  0  0
  1 23  1  0  0  0  0
  1 24  1  0  0  0  0
  2  3  2  0  0  0  0
  2  4  2  0  0  0  0
  2  5  1  0  0  0  0
  5 21  1  0  0  0  0
  5  6  1  0  0  0  0
  6  7  1  0  0  0  0
  6 25  1  0  0  0  0
  6 26  1  0  0  0  0
  7  8  1  0  0  0  0
  7 27  1  0  0  0  0
  7 28  1  0  0  0  0
  8  9  1  0  0  0  0
  8 20  1  0  0  0  0
  8 29  1  0  0  0  0
  9 10  1  0  0  0  0
  9 30  1  0  0  0  0
  9 31  1  0  0  0  0
 10 11  1  0  0  0  0
 10 32  1  0  0  0  0
 11 12  2  0  0  0  0
 11 13  1  0  0  0  0
 13 14  1  0  0  0  0
 13 33  1  0  0  0  0
 14 19  1  0  0  0  0
 14 15  2  0  0  0  0
 15 16  1  0  0  0  0
 15 34  1  0  0  0  0
 16 17  2  0  0  0  0
 16 35  1  0  0  0  0
 17 18  1  0  0  0  0
 17 42  1  0  0  0  0
 18 19  2  0  0  0  0
 18 36  1  0  0  0  0
 19 37  1  0  0  0  0
 20 21  1  0  0  0  0
 20 38  1  0  0  0  0
 20 39  1  0  0  0  0
 21 40  1  0  0  0  0
 21 41  1  0  0  0  0
M  CHG  1  17   1
M  END
> <s_m_source_file>
AV-unprocessed.smi

> <i_m_source_file_index>
1472

> <i_lp_mmshare_version>
43012

> <i_f3d_flags>
0

> <s_epik_input>
W0NIM11TKD1PKSg9TylOMVtDSDJdW0NIMl1bQ0hdKFtDSDJdW0NIMl0xKVtDSDJdW05IXUMoPU8pW05IXWMyW2NIXVtjSF1uW2NIXVtjSF0y

> <s_epik_cmdline>
J2VwaWtfcHl0aG9uJywgJy1waCcsICc3LjAnLCAnLXRuJywgJzgnLCAnLW1hJywgJzIwMCcsICctbWV0YWxfYmluZGluZycsICctaW1hZScsICc8aW5maWxlLm1hZT4nLCAnLW9tYWUnLCAnPG91dGZpbGUubWFlPic=

> <r_epik_Ionization_Penalty>
1.02593

> <r_epik_Ionization_Penalty_Charging>
1.02591

> <r_epik_Ionization_Penalty_Neutral>
2.05222e-05

> <r_epik_State_Penalty>
1.07662

> <r_epik_Charging_Adjusted_Penalty>
2.10252

> <i_epik_Tot_Q>
1

> <i_epik_Tot_abs_Q>
1

> <r_epik_Metal_State_Penalty>
1.17465

> <b_epik_Metal_Only>
0

> <s_lp_Force_Field>
OPLS_2005

> <r_lp_Energy>
12.5629

> <b_lp_Chiralities_Consistent>
1

> <s_lp_Variant>
AV-unprocessed.smi:1472-2

> <Gold.Version>
5.8.1

> <Gold.Id.Protein>
6NUR|6NUR_protein|mol2

> <Gold.PLP.Fitness>
42.9448

> <Gold.PLP.PLP>
-34.5911

> <Gold.PLP.part.hbond>
-3.8543

> <Gold.PLP.part.metal>
0.0000

> <Gold.PLP.part.buried>
-2.6668

> <Gold.PLP.part.nonpolar>
-28.2865

> <Gold.PLP.part.repulsive>
0.2406

> <Gold.PLP.ligand.clash>
0.0000

> <Gold.PLP.ligand.torsion>
1.3575

> <Gold.PLP.Chemscore.Hbond>
3.0000

> <Gold.PLP.Chemscore.CHOScore>
0.0000

> <Gold.PLP.Chemscore.Metal>
0.0000

> <Gold.Chemscore.Hbonds>
donor molecule, donor type, donor heavy atom, donor atom, acceptor molecule, acceptor atom, score
      L1  H    10    32       P1  7948  1.00
      L1  H    13    33       P1  7948  1.00
      P1  H  7997  8010       L1     3  1.00

> <Gold.PLP.Chemscore.Internal.Correction>
2.0688

> <Gold.Rescore>
     Score         DG    S(hbond)    S(metal)    S(lipo)     H(rot)  DE(clash)    DE(int)     intcor
     17.83     -20.72       2.96        0.00      74.36       1.30       0.14       2.75       ----

> <Gold.Chemscore.Fitness>
17.8284

> <Gold.Chemscore.DG>
-20.7226

> <Gold.Chemscore.ZeroCoef>
-5.4800

> <Gold.Chemscore.Hbond>
2.9575

> <Gold.Chemscore.Metal>
0.0000

> <Gold.Chemscore.Lipo>
74.3623

> <Gold.Chemscore.Internal_Hbond>
0.0000

> <Gold.Chemscore.DEClash>
0.1442

> <Gold.Chemscore.DEInternal>
2.7500

> <Gold.Chemscore.Rot>
1.3031

> <Gold.Chemscore.Internal.Correction>
   9.000000E+99

> <Gold.Chemscore.Hbonds>
donor molecule, donor type, donor heavy atom, donor atom, acceptor molecule, acceptor atom, score
      L1  H    10    32       P1  7948  0.94
      L1  H    13    33       P1  7948  0.99
      P1  H  7997  8010       L1     3  0.94

> <Gold.Chemscore.Hbond.Weighted>
-9.8781

> <Gold.Chemscore.Metal.Weighted>
-0.0000

> <Gold.Chemscore.Lipo.Weighted>
-8.7004

> <Gold.Chemscore.Internal_Hbond.Weighted>
0.0000

> <Gold.Chemscore.DEClash.Weighted>
0.1442

> <Gold.Chemscore.DEInternal.Weighted>
2.7500

> <Gold.Chemscore.Rot.Weighted>
3.3359

> <Gold.Chemscore.Internal.Correction.Weighted>
   9.000000E+99

> <Gold.Protein.RotatedTorsions>
[ 6907 6896 6895 6894 ] final   88.95 input  -60.11 | X-H torsion
[ 7974 7965 7964 7962 ] final -122.60 input  175.53 | X-H torsion
[ 8008 7997 7996 7995 ] final   73.92 input   59.86 | X-H torsion
[ 10167 10162 10161 10158 ] final   47.21 input  -65.29 | X-H torsion
[ 10718 10713 10712 10709 ] final  -94.02 input   66.30 | X-H torsion
[ 10763 10752 10751 10750 ] final   42.10 input  -60.55 | X-H torsion
[ 11005 11000 10999 10996 ] final -118.98 input  -57.11 | X-H torsion

> <Gold.Protein.ActiveResidues>
 VAL166  LYS551  ARG553  GLY616  TRP617  ASP618  TYR619  PRO620  LYS621  CYS622 
 ASP623  PHE694  ASN695  SER759  ASP760  ASP761  ALA762  ILE779  LEU786  VAL792 
 PHE793  MET794  SER795  GLU796  ALA797  LYS798  CYS799  TRP800  GLU811  SER814 

> <Gold.Protein.RotatedAtoms>
  152.5431  134.2042  159.8723 H   0  0  0  0  0  0  0  0  0  0  0  0  # atno 6907 bound_to 6896
  151.2029  133.4594  159.2604 H   0  0  0  0  0  0  0  0  0  0  0  0  # atno 6908 bound_to 6896
  151.0972  134.9963  159.8487 H   0  0  0  0  0  0  0  0  0  0  0  0  # atno 6909 bound_to 6896
  145.0277  140.8042  143.4342 H   0  0  0  0  0  0  0  0  0  0  0  0  # atno 7974 bound_to 7965
  155.7908  140.3479  155.5348 H   0  0  0  0  0  0  0  0  0  0  0  0  # atno 8008 bound_to 7997
  155.8636  140.0975  157.1618 H   0  0  0  0  0  0  0  0  0  0  0  0  # atno 8009 bound_to 7997
  154.4013  140.1354  156.3978 H   0  0  0  0  0  0  0  0  0  0  0  0  # atno 8010 bound_to 7997
  140.3060  144.2877  150.6209 H   0  0  0  0  0  0  0  0  0  0  0  0  # atno 10167 bound_to 10162
  156.0021  130.5050  150.5863 H   0  0  0  0  0  0  0  0  0  0  0  0  # atno 10718 bound_to 10713
  152.9891  135.6142  154.2895 H   0  0  0  0  0  0  0  0  0  0  0  0  # atno 10763 bound_to 10752
  154.2621  135.2782  155.2775 H   0  0  0  0  0  0  0  0  0  0  0  0  # atno 10764 bound_to 10752
  154.5197  135.5818  153.6728 H   0  0  0  0  0  0  0  0  0  0  0  0  # atno 10765 bound_to 10752
  141.0247  134.0071  157.3231 H   0  0  0  0  0  0  0  0  0  0  0  0  # atno 11005 bound_to 11000
  145.1811  139.2351  143.5291 LP  0  0  0  0  0  0  0  0  0  0  0  0  # atno 17320 bound_to 7965
  146.3494  140.1586  142.8591 LP  0  0  0  0  0  0  0  0  0  0  0  0  # atno 17321 bound_to 7965
  140.5610  143.2192  151.7765 LP  0  0  0  0  0  0  0  0  0  0  0  0  # atno 17342 bound_to 10162
  139.4904  144.4349  151.9831 LP  0  0  0  0  0  0  0  0  0  0  0  0  # atno 17343 bound_to 10162
  157.3735  131.0769  151.1537 LP  0  0  0  0  0  0  0  0  0  0  0  0  # atno 17370 bound_to 10713
  157.2283  130.6513  149.5839 LP  0  0  0  0  0  0  0  0  0  0  0  0  # atno 17371 bound_to 10713
  139.9168  135.0197  156.7914 LP  0  0  0  0  0  0  0  0  0  0  0  0  # atno 17394 bound_to 11000
  140.6511  133.9730  155.7756 LP  0  0  0  0  0  0  0  0  0  0  0  0  # atno 17395 bound_to 11000

$$$$
