AV-unprocessed.smi:2568|AV-procd|sdf|10094|dock4
  -GOLD-   2272014113D 1   1.00000     0.00000
 Structure written by MMmdl.
 25 26  0  0  0  0  0  0  0  0  2 V2000
  148.4360  141.5415  153.8659 C   0  0  0  0  0  0  0  0  0  0  0  0
  149.4732  141.3965  154.9274 C   0  0  0  0  0  0  0  0  0  0  0  0
  150.3694  140.4078  154.9937 N   0  0  0  0  0  0  0  0  0  0  0  0
  151.1227  140.6684  156.1256 N   0  0  0  0  0  0  0  0  0  0  0  0
  150.6131  141.7912  156.6437 C   0  0  0  0  0  0  0  0  0  0  0  0
  151.1151  142.4726  157.8778 C   0  0  2  0  0  0  0  0  0  0  0  0
  151.6658  143.8825  157.5884 C   0  0  0  0  0  0  0  0  0  0  0  0
  152.2386  144.4634  158.8183 N   0  3  0  0  0  0  0  0  0  0  0  0
  153.2562  143.5740  159.4125 C   0  0  0  0  0  0  0  0  0  0  0  0
  152.6652  142.1718  159.6421 C   0  0  0  0  0  0  0  0  0  0  0  0
  152.1544  141.6586  158.4159 O   0  0  0  0  0  0  0  0  0  0  0  0
  149.5891  142.2804  155.9286 N   0  0  0  0  0  0  0  0  0  0  0  0
  149.0368  143.1080  156.1013 H   0  0  0  0  0  0  0  0  0  0  0  0
  148.4074  140.6515  153.2363 H   0  0  0  0  0  0  0  0  0  0  0  0
  148.6605  142.4047  153.2392 H   0  0  0  0  0  0  0  0  0  0  0  0
  147.4528  141.6790  154.3168 H   0  0  0  0  0  0  0  0  0  0  0  0
  150.2968  142.5309  158.5984 H   0  0  0  0  0  0  0  0  0  0  0  0
  152.4418  143.8397  156.8227 H   0  0  0  0  0  0  0  0  0  0  0  0
  150.8779  144.5354  157.2121 H   0  0  0  0  0  0  0  0  0  0  0  0
  152.6575  145.3576  158.6043 H   0  0  0  0  0  0  0  0  0  0  0  0
  154.1153  143.5151  158.7428 H   0  0  0  0  0  0  0  0  0  0  0  0
  153.6084  144.0016  160.3514 H   0  0  0  0  0  0  0  0  0  0  0  0
  153.4347  141.4957  160.0154 H   0  0  0  0  0  0  0  0  0  0  0  0
  151.8750  142.2002  160.3941 H   0  0  0  0  0  0  0  0  0  0  0  0
  151.4962  144.6000  159.4895 H   0  0  0  0  0  0  0  0  0  0  0  0
  1 14  1  0  0  0  0
  1 15  1  0  0  0  0
  1 16  1  0  0  0  0
  1  2  1  0  0  0  0
  2  3  2  0  0  0  0
  2 12  1  0  0  0  0
  3  4  1  0  0  0  0
  4  5  2  0  0  0  0
  5 12  1  0  0  0  0
  5  6  1  0  0  0  0
  6 11  1  0  0  0  0
  6  7  1  0  0  0  0
  6 17  1  0  0  0  0
  7  8  1  0  0  0  0
  7 18  1  0  0  0  0
  7 19  1  0  0  0  0
  8  9  1  0  0  0  0
  8 20  1  0  0  0  0
  8 25  1  0  0  0  0
  9 10  1  0  0  0  0
  9 21  1  0  0  0  0
  9 22  1  0  0  0  0
 10 11  1  0  0  0  0
 10 23  1  0  0  0  0
 10 24  1  0  0  0  0
 12 13  1  0  0  0  0
M  CHG  1   8   1
M  END
> <s_m_source_file>
AV-unprocessed.smi

> <i_m_source_file_index>
2568

> <i_lp_mmshare_version>
43012

> <i_f3d_flags>
0

> <s_epik_input>
W0NIM11jMW5bbkhdYyhuMSlbQ0BASF0yW0NIMl1bTkhdW0NIMl1bQ0gyXU8y

> <s_epik_cmdline>
J2VwaWtfcHl0aG9uJywgJy1waCcsICc3LjAnLCAnLXRuJywgJzgnLCAnLW1hJywgJzIwMCcsICctbWV0YWxfYmluZGluZycsICctaW1hZScsICc8aW5maWxlLm1hZT4nLCAnLW9tYWUnLCAnPG91dGZpbGUubWFlPic=

> <r_lp_tautomer_probability>
0.0517155

> <r_epik_Ionization_Penalty>
0.290065

> <r_epik_Ionization_Penalty_Charging>
0.125708

> <r_epik_Ionization_Penalty_Neutral>
0.164357

> <r_epik_State_Penalty>
2.14308

> <r_epik_Charging_Adjusted_Penalty>
2.26879

> <i_epik_Tot_Q>
1

> <i_epik_Tot_abs_Q>
1

> <r_epik_Metal_State_Penalty>
2.44434

> <b_epik_Metal_Only>
0

> <s_lp_Force_Field>
OPLS_2005

> <r_lp_Energy>
13.5699

> <b_lp_Chiralities_Consistent>
1

> <s_lp_Variant>
AV-unprocessed.smi:2568-7

> <Gold.Version>
5.8.1

> <Gold.Id.Protein>
6NUR|6NUR_protein|mol2

> <Gold.PLP.Fitness>
31.3634

> <Gold.PLP.PLP>
-26.0941

> <Gold.PLP.part.hbond>
-2.0000

> <Gold.PLP.part.metal>
0.0000

> <Gold.PLP.part.buried>
-3.8433

> <Gold.PLP.part.nonpolar>
-20.8460

> <Gold.PLP.part.repulsive>
0.2563

> <Gold.PLP.ligand.clash>
0.0000

> <Gold.PLP.ligand.torsion>
0.0178

> <Gold.PLP.Chemscore.Hbond>
1.7680

> <Gold.PLP.Chemscore.CHOScore>
0.0000

> <Gold.PLP.Chemscore.Metal>
0.0000

> <Gold.Chemscore.Hbonds>
donor molecule, donor type, donor heavy atom, donor atom, acceptor molecule, acceptor atom, score
      L1  H    12    13       P1  8028  0.85
      P1  H  7989  7998       L1     3  1.00

> <Gold.PLP.Chemscore.Internal.Correction>
0.0009

> <Gold.Rescore>
     Score         DG    S(hbond)    S(metal)    S(lipo)     H(rot)  DE(clash)    DE(int)     intcor
     12.65     -12.66       0.99        0.00      54.93       1.00       0.01       0.00       ----

> <Gold.Chemscore.Fitness>
12.6493

> <Gold.Chemscore.DG>
-12.6589

> <Gold.Chemscore.ZeroCoef>
-5.4800

> <Gold.Chemscore.Hbond>
0.9916

> <Gold.Chemscore.Metal>
0.0000

> <Gold.Chemscore.Lipo>
54.9324

> <Gold.Chemscore.Internal_Hbond>
0.0000

> <Gold.Chemscore.DEClash>
0.0068

> <Gold.Chemscore.DEInternal>
0.0029

> <Gold.Chemscore.Rot>
1.0000

> <Gold.Chemscore.Internal.Correction>
   9.000000E+99

> <Gold.Chemscore.Hbonds>
donor molecule, donor type, donor heavy atom, donor atom, acceptor molecule, acceptor atom, score
      L1  H    12    13       P1  8028  0.85
      P1  H  7989  7998       L1     3  0.13

> <Gold.Chemscore.Hbond.Weighted>
-3.3118

> <Gold.Chemscore.Metal.Weighted>
-0.0000

> <Gold.Chemscore.Lipo.Weighted>
-6.4271

> <Gold.Chemscore.Internal_Hbond.Weighted>
0.0000

> <Gold.Chemscore.DEClash.Weighted>
0.0068

> <Gold.Chemscore.DEInternal.Weighted>
0.0029

> <Gold.Chemscore.Rot.Weighted>
2.5600

> <Gold.Chemscore.Internal.Correction.Weighted>
   9.000000E+99

> <Gold.Protein.RotatedTorsions>
[ 6907 6896 6895 6894 ] final  166.21 input  -60.11 | X-H torsion
[ 7974 7965 7964 7962 ] final   80.21 input  175.53 | X-H torsion
[ 8008 7997 7996 7995 ] final  -94.67 input   59.86 | X-H torsion
[ 10167 10162 10161 10158 ] final -115.75 input  -65.29 | X-H torsion
[ 10718 10713 10712 10709 ] final  -93.58 input   66.30 | X-H torsion
[ 10763 10752 10751 10750 ] final   -9.52 input  -60.55 | X-H torsion
[ 11005 11000 10999 10996 ] final  -13.28 input  -57.11 | X-H torsion

> <Gold.Protein.ActiveResidues>
 VAL166  LYS551  ARG553  GLY616  TRP617  ASP618  TYR619  PRO620  LYS621  CYS622 
 ASP623  PHE694  ASN695  SER759  ASP760  ASP761  ALA762  ILE779  LEU786  VAL792 
 PHE793  MET794  SER795  GLU796  ALA797  LYS798  CYS799  TRP800  GLU811  SER814 

> <Gold.Protein.RotatedAtoms>
  151.8825  133.3498  159.3770 H   0  0  0  0  0  0  0  0  0  0  0  0  # atno 6907 bound_to 6896
  150.7124  134.5004  159.5568 H   0  0  0  0  0  0  0  0  0  0  0  0  # atno 6908 bound_to 6896
  152.2559  134.8085  160.0489 H   0  0  0  0  0  0  0  0  0  0  0  0  # atno 6909 bound_to 6896
  145.6541  139.2455  143.1960 H   0  0  0  0  0  0  0  0  0  0  0  0  # atno 7974 bound_to 7965
  154.7515  140.0487  157.0897 H   0  0  0  0  0  0  0  0  0  0  0  0  # atno 8008 bound_to 7997
  155.0052  140.3129  155.4832 H   0  0  0  0  0  0  0  0  0  0  0  0  # atno 8009 bound_to 7997
  156.2886  140.2194  156.5163 H   0  0  0  0  0  0  0  0  0  0  0  0  # atno 8010 bound_to 7997
  140.0867  143.4737  152.1894 H   0  0  0  0  0  0  0  0  0  0  0  0  # atno 10167 bound_to 10162
  156.0015  130.5033  150.5798 H   0  0  0  0  0  0  0  0  0  0  0  0  # atno 10718 bound_to 10713
  153.4560  135.7015  153.6079 H   0  0  0  0  0  0  0  0  0  0  0  0  # atno 10763 bound_to 10752
  153.4394  135.3784  155.2219 H   0  0  0  0  0  0  0  0  0  0  0  0  # atno 10764 bound_to 10752
  154.8728  135.3970  154.3979 H   0  0  0  0  0  0  0  0  0  0  0  0  # atno 10765 bound_to 10752
  140.7745  133.8412  155.9236 H   0  0  0  0  0  0  0  0  0  0  0  0  # atno 11005 bound_to 11000
  146.1179  140.7346  142.9472 LP  0  0  0  0  0  0  0  0  0  0  0  0  # atno 17320 bound_to 7965
  144.7112  140.4044  143.7079 LP  0  0  0  0  0  0  0  0  0  0  0  0  # atno 17321 bound_to 7965
  139.5748  144.7482  151.3794 LP  0  0  0  0  0  0  0  0  0  0  0  0  # atno 17342 bound_to 10162
  140.7050  143.7537  150.7466 LP  0  0  0  0  0  0  0  0  0  0  0  0  # atno 17343 bound_to 10162
  157.3680  131.0761  151.1581 LP  0  0  0  0  0  0  0  0  0  0  0  0  # atno 17370 bound_to 10713
  157.2344  130.6540  149.5863 LP  0  0  0  0  0  0  0  0  0  0  0  0  # atno 17371 bound_to 10713
  140.9542  134.1740  157.4704 LP  0  0  0  0  0  0  0  0  0  0  0  0  # atno 17394 bound_to 11000
  139.8751  134.9920  156.5578 LP  0  0  0  0  0  0  0  0  0  0  0  0  # atno 17395 bound_to 11000

$$$$
