AV-unprocessed.smi:1286|AV-procd|sdf|5377|dock6
  -GOLD-   22720 4523D 1   1.00000     0.00000
 Structure written by MMmdl.
 36 37  0  0  0  0  0  0  0  0  1 V2000
  151.2061  140.1268  155.5910 C   0  0  0  0  0  0  0  0  0  0  0  0
  150.1152  141.1899  155.7932 C   0  0  2  0  0  0  0  0  0  0  0  0
  149.2986  141.4119  154.5053 C   0  0  0  0  0  0  0  0  0  0  0  0
  147.8679  141.4367  154.7535 N   0  0  0  0  0  0  0  0  0  0  0  0
  146.9765  142.4651  154.5303 C   0  0  0  0  0  0  0  0  0  0  0  0
  145.7445  142.0270  154.9236 C   0  0  0  0  0  0  0  0  0  0  0  0
  145.9867  140.7002  155.3773 C   0  0  0  0  0  0  0  0  0  0  0  0
  147.2583  140.3493  155.2733 N   0  0  0  0  0  0  0  0  0  0  0  0
  150.7211  142.4482  156.2239 N   0  0  0  0  0  0  0  0  0  0  0  0
  150.8471  142.8581  157.4954 C   0  0  0  0  0  0  0  0  0  0  0  0
  150.4644  142.1980  158.4613 O   0  0  0  0  0  0  0  0  0  0  0  0
  151.5056  144.2260  157.7065 C   0  0  0  0  0  0  0  0  0  0  0  0
  152.5273  144.2518  158.8645 C   0  0  1  0  0  0  0  0  0  0  0  0
  151.9308  144.6661  160.1884 C   0  0  0  0  0  0  0  0  0  0  0  0
  152.1538  143.7782  161.1544 C   0  0  0  0  0  0  0  0  0  0  0  0
  152.9409  142.5906  160.6746 C   0  0  0  0  0  0  0  0  0  0  0  0
  153.1393  142.8595  159.1658 C   0  0  0  0  0  0  0  0  0  0  0  0
  150.7723  139.1748  155.2843 H   0  0  0  0  0  0  0  0  0  0  0  0
  151.7620  139.9505  156.5125 H   0  0  0  0  0  0  0  0  0  0  0  0
  151.9195  140.4301  154.8241 H   0  0  0  0  0  0  0  0  0  0  0  0
  149.4348  140.8324  156.5685 H   0  0  0  0  0  0  0  0  0  0  0  0
  149.5866  142.3474  154.0232 H   0  0  0  0  0  0  0  0  0  0  0  0
  149.5042  140.6169  153.7869 H   0  0  0  0  0  0  0  0  0  0  0  0
  147.2903  143.4129  154.1185 H   0  0  0  0  0  0  0  0  0  0  0  0
  144.8124  142.5712  154.8923 H   0  0  0  0  0  0  0  0  0  0  0  0
  145.2810  139.9863  155.7763 H   0  0  0  0  0  0  0  0  0  0  0  0
  151.0661  143.0578  155.4968 H   0  0  0  0  0  0  0  0  0  0  0  0
  151.9916  144.5428  156.7818 H   0  0  0  0  0  0  0  0  0  0  0  0
  150.7148  144.9513  157.9010 H   0  0  0  0  0  0  0  0  0  0  0  0
  153.3299  144.9537  158.6319 H   0  0  0  0  0  0  0  0  0  0  0  0
  151.3978  145.5972  160.3161 H   0  0  0  0  0  0  0  0  0  0  0  0
  151.8271  143.8773  162.1792 H   0  0  0  0  0  0  0  0  0  0  0  0
  153.8926  142.5347  161.2038 H   0  0  0  0  0  0  0  0  0  0  0  0
  152.3871  141.6684  160.8528 H   0  0  0  0  0  0  0  0  0  0  0  0
  152.6478  142.0790  158.5834 H   0  0  0  0  0  0  0  0  0  0  0  0
  154.1970  142.8334  158.9002 H   0  0  0  0  0  0  0  0  0  0  0  0
  1  2  1  0  0  0  0
  1 18  1  0  0  0  0
  1 19  1  0  0  0  0
  1 20  1  0  0  0  0
  2  3  1  0  0  0  0
  2  9  1  0  0  0  0
  2 21  1  0  0  0  0
  3  4  1  0  0  0  0
  3 22  1  0  0  0  0
  3 23  1  0  0  0  0
  4  8  1  0  0  0  0
  4  5  1  0  0  0  0
  5  6  2  0  0  0  0
  5 24  1  0  0  0  0
  6  7  1  0  0  0  0
  6 25  1  0  0  0  0
  7  8  2  0  0  0  0
  7 26  1  0  0  0  0
  9 10  1  0  0  0  0
  9 27  1  0  0  0  0
 10 11  2  0  0  0  0
 10 12  1  0  0  0  0
 12 13  1  0  0  0  0
 12 28  1  0  0  0  0
 12 29  1  0  0  0  0
 13 17  1  0  0  0  0
 13 14  1  0  0  0  0
 13 30  1  0  0  0  0
 14 15  2  0  0  0  0
 14 31  1  0  0  0  0
 15 16  1  0  0  0  0
 15 32  1  0  0  0  0
 16 17  1  0  0  0  0
 16 33  1  0  0  0  0
 16 34  1  0  0  0  0
 17 35  1  0  0  0  0
 17 36  1  0  0  0  0
M  END
> <s_m_source_file>
AV-unprocessed.smi

> <i_m_source_file_index>
1286

> <i_lp_mmshare_version>
43012

> <i_f3d_flags>
0

> <s_epik_input>
bjFbY0hdW2NIXVtjSF1uMVtDSDJdW0NAQEhdKFtDSDNdKVtOSF1DKD1PKVtDSDJdW0NAQEhdMltDSF09W0NIXVtDSDJdW0NIMl0y

> <s_epik_cmdline>
J2VwaWtfcHl0aG9uJywgJy1waCcsICc3LjAnLCAnLXRuJywgJzgnLCAnLW1hJywgJzIwMCcsICctbWV0YWxfYmluZGluZycsICctaW1hZScsICc8aW5maWxlLm1hZT4nLCAnLW9tYWUnLCAnPG91dGZpbGUubWFlPic=

> <r_lp_tautomer_probability>
1

> <r_epik_Ionization_Penalty>
0.000301761

> <r_epik_Ionization_Penalty_Charging>
0

> <r_epik_Ionization_Penalty_Neutral>
0.000301761

> <r_epik_State_Penalty>
-0

> <r_epik_Charging_Adjusted_Penalty>
0

> <i_epik_Tot_Q>
0

> <i_epik_Tot_abs_Q>
0

> <r_epik_Metal_State_Penalty>
-0

> <b_epik_Metal_Only>
0

> <s_lp_Force_Field>
OPLS_2005

> <r_lp_Energy>
17.4811

> <b_lp_Chiralities_Consistent>
1

> <s_lp_Variant>
AV-unprocessed.smi:1286-3

> <Gold.Version>
5.8.1

> <Gold.Id.Protein>
6NUR|6NUR_protein|mol2

> <Gold.PLP.Fitness>
42.9710

> <Gold.PLP.PLP>
-44.4970

> <Gold.PLP.part.hbond>
-1.0000

> <Gold.PLP.part.metal>
0.0000

> <Gold.PLP.part.buried>
-0.8321

> <Gold.PLP.part.nonpolar>
-43.1963

> <Gold.PLP.part.repulsive>
0.2465

> <Gold.PLP.ligand.clash>
0.0000

> <Gold.PLP.ligand.torsion>
1.6424

> <Gold.PLP.Chemscore.Hbond>
0.0000

> <Gold.PLP.Chemscore.CHOScore>
0.5795

> <Gold.PLP.Chemscore.Metal>
0.0000

> <Gold.Chemscore.Hbonds>
donor molecule, donor type, donor heavy atom, donor atom, acceptor molecule, acceptor atom, score
      L1  C     5    24       P1  8028  0.67

> <Gold.PLP.Chemscore.Internal.Correction>
0.0204

> <Gold.Rescore>
     Score         DG    S(hbond)    S(metal)    S(lipo)     H(rot)  DE(clash)    DE(int)     intcor
     13.25     -14.53       0.00        0.00     113.18       1.64       0.07       1.21       ----

> <Gold.Chemscore.Fitness>
13.2468

> <Gold.Chemscore.DG>
-14.5257

> <Gold.Chemscore.ZeroCoef>
-5.4800

> <Gold.Chemscore.Hbond>
0.0000

> <Gold.Chemscore.Metal>
0.0000

> <Gold.Chemscore.Lipo>
113.1848

> <Gold.Chemscore.Internal_Hbond>
0.0000

> <Gold.Chemscore.DEClash>
0.0693

> <Gold.Chemscore.DEInternal>
1.2096

> <Gold.Chemscore.Rot>
1.6394

> <Gold.Chemscore.Internal.Correction>
   9.000000E+99

> <Gold.Chemscore.Hbond.Weighted>
-0.0000

> <Gold.Chemscore.Metal.Weighted>
-0.0000

> <Gold.Chemscore.Lipo.Weighted>
-13.2426

> <Gold.Chemscore.Internal_Hbond.Weighted>
0.0000

> <Gold.Chemscore.DEClash.Weighted>
0.0693

> <Gold.Chemscore.DEInternal.Weighted>
1.2096

> <Gold.Chemscore.Rot.Weighted>
4.1969

> <Gold.Chemscore.Internal.Correction.Weighted>
   9.000000E+99

> <Gold.Protein.RotatedTorsions>
[ 6907 6896 6895 6894 ] final  -26.85 input  -60.11 | X-H torsion
[ 7974 7965 7964 7962 ] final -152.77 input  175.53 | X-H torsion
[ 8008 7997 7996 7995 ] final -118.96 input   59.86 | X-H torsion
[ 10167 10162 10161 10158 ] final  -61.70 input  -65.29 | X-H torsion
[ 10718 10713 10712 10709 ] final -136.85 input   66.30 | X-H torsion
[ 10763 10752 10751 10750 ] final  176.68 input  -60.55 | X-H torsion
[ 11005 11000 10999 10996 ] final  -96.23 input  -57.11 | X-H torsion

> <Gold.Protein.ActiveResidues>
 VAL166  LYS551  ARG553  GLY616  TRP617  ASP618  TYR619  PRO620  LYS621  CYS622 
 ASP623  PHE694  ASN695  SER759  ASP760  ASP761  ALA762  ILE779  LEU786  VAL792 
 PHE793  MET794  SER795  GLU796  ALA797  LYS798  CYS799  TRP800  GLU811  SER814 

> <Gold.Protein.RotatedAtoms>
  151.1552  135.0246  159.8685 H   0  0  0  0  0  0  0  0  0  0  0  0  # atno 6907 bound_to 6896
  152.5452  134.1343  159.8462 H   0  0  0  0  0  0  0  0  0  0  0  0  # atno 6908 bound_to 6896
  151.1432  133.4911  159.2629 H   0  0  0  0  0  0  0  0  0  0  0  0  # atno 6909 bound_to 6896
  144.7776  140.4617  143.5862 H   0  0  0  0  0  0  0  0  0  0  0  0  # atno 7974 bound_to 7965
  155.1080  140.0397  157.2716 H   0  0  0  0  0  0  0  0  0  0  0  0  # atno 8008 bound_to 7997
  154.6707  140.2611  155.6984 H   0  0  0  0  0  0  0  0  0  0  0  0  # atno 8009 bound_to 7997
  156.2657  140.2798  156.1215 H   0  0  0  0  0  0  0  0  0  0  0  0  # atno 8010 bound_to 7997
  140.5989  143.2357  151.5974 H   0  0  0  0  0  0  0  0  0  0  0  0  # atno 10167 bound_to 10162
  156.2816  130.7324  151.1323 H   0  0  0  0  0  0  0  0  0  0  0  0  # atno 10718 bound_to 10713
  154.4843  135.2776  155.1546 H   0  0  0  0  0  0  0  0  0  0  0  0  # atno 10763 bound_to 10752
  154.3244  135.6203  153.5526 H   0  0  0  0  0  0  0  0  0  0  0  0  # atno 10764 bound_to 10752
  152.9879  135.5750  154.5250 H   0  0  0  0  0  0  0  0  0  0  0  0  # atno 10765 bound_to 10752
  141.1418  133.8083  157.0543 H   0  0  0  0  0  0  0  0  0  0  0  0  # atno 11005 bound_to 11000
  145.6141  139.1516  143.3059 LP  0  0  0  0  0  0  0  0  0  0  0  0  # atno 17320 bound_to 7965
  146.1965  140.6255  142.9121 LP  0  0  0  0  0  0  0  0  0  0  0  0  # atno 17321 bound_to 7965
  139.5277  144.3010  152.1074 LP  0  0  0  0  0  0  0  0  0  0  0  0  # atno 17342 bound_to 10162
  140.2187  144.4489  150.6352 LP  0  0  0  0  0  0  0  0  0  0  0  0  # atno 17343 bound_to 10162
  157.7316  131.0607  150.5670 LP  0  0  0  0  0  0  0  0  0  0  0  0  # atno 17370 bound_to 10713
  156.5777  130.4296  149.5991 LP  0  0  0  0  0  0  0  0  0  0  0  0  # atno 17371 bound_to 10713
  140.0612  134.9754  157.1307 LP  0  0  0  0  0  0  0  0  0  0  0  0  # atno 17394 bound_to 11000
  140.3846  134.2250  155.7169 LP  0  0  0  0  0  0  0  0  0  0  0  0  # atno 17395 bound_to 11000

$$$$
