AV-unprocessed.smi:527|AV-procd|sdf|2823|dock2
  -GOLD-   2262023303D 1   1.00000     0.00000
 Structure written by MMmdl.
 43 44  0  0  0  0  0  0  0  0  2 V2000
  152.1621  138.0360  154.3541 C   0  0  0  0  0  0  0  0  0  0  0  0
  150.6395  138.2612  154.3621 C   0  0  2  0  0  0  0  0  0  0  0  0
  150.3348  139.7484  154.6381 C   0  0  0  0  0  0  0  0  0  0  0  0
  148.8282  140.0392  154.6491 C   0  0  0  0  0  0  0  0  0  0  0  0
  148.1064  139.1484  155.6695 C   0  0  0  0  0  0  0  0  0  0  0  0
  148.3766  137.6515  155.4145 C   0  0  1  0  0  0  0  0  0  0  0  0
  147.7217  137.2030  154.1841 N   0  0  0  0  0  0  0  0  0  0  0  0
  146.4286  136.8685  154.0658 C   0  0  0  0  0  0  0  0  0  0  0  0
  145.6280  136.9132  155.0022 O   0  0  0  0  0  0  0  0  0  0  0  0
  146.1413  136.4950  152.8041 N   0  0  0  0  0  0  0  0  0  0  0  0
  144.9721  136.0098  152.3386 C   0  0  0  0  0  0  0  0  0  0  0  0
  143.9608  135.8163  153.0157 O   0  0  0  0  0  0  0  0  0  0  0  0
  144.9306  135.7029  150.8411 C   0  0  0  0  0  0  0  0  0  0  0  0
  145.1744  134.2795  150.5885 N   0  0  0  0  0  0  0  0  0  0  0  0
  144.2812  133.3531  150.1132 C   0  0  0  0  0  0  0  0  0  0  0  0
  144.9530  132.1593  150.0497 C   0  0  0  0  0  0  0  0  0  0  0  0
  146.2260  132.4063  150.4897 N   0  3  0  0  0  0  0  0  0  0  0  0
  146.3592  133.6960  150.8161 C   0  0  0  0  0  0  0  0  0  0  0  0
  149.8976  137.3495  155.3802 C   0  0  1  0  0  0  0  0  0  0  0  0
  150.1638  135.8473  155.1537 C   0  0  0  0  0  0  0  0  0  0  0  0
  152.5909  138.1862  155.3454 H   0  0  0  0  0  0  0  0  0  0  0  0
  152.6557  138.7289  153.6722 H   0  0  0  0  0  0  0  0  0  0  0  0
  152.4211  137.0303  154.0242 H   0  0  0  0  0  0  0  0  0  0  0  0
  150.2726  138.0280  153.3615 H   0  0  0  0  0  0  0  0  0  0  0  0
  150.7643  140.0392  155.5978 H   0  0  0  0  0  0  0  0  0  0  0  0
  150.8164  140.3738  153.8856 H   0  0  0  0  0  0  0  0  0  0  0  0
  148.6556  141.0891  154.8879 H   0  0  0  0  0  0  0  0  0  0  0  0
  148.4135  139.8780  153.6535 H   0  0  0  0  0  0  0  0  0  0  0  0
  148.4473  139.4071  156.6728 H   0  0  0  0  0  0  0  0  0  0  0  0
  147.0357  139.3547  155.6544 H   0  0  0  0  0  0  0  0  0  0  0  0
  147.9483  137.0884  156.2459 H   0  0  0  0  0  0  0  0  0  0  0  0
  148.3047  137.1462  153.3622 H   0  0  0  0  0  0  0  0  0  0  0  0
  146.8851  136.5958  152.1294 H   0  0  0  0  0  0  0  0  0  0  0  0
  143.9625  135.9699  150.4138 H   0  0  0  0  0  0  0  0  0  0  0  0
  145.6903  136.2842  150.3157 H   0  0  0  0  0  0  0  0  0  0  0  0
  143.2605  133.6044  149.8628 H   0  0  0  0  0  0  0  0  0  0  0  0
  144.6291  131.1781  149.7337 H   0  0  0  0  0  0  0  0  0  0  0  0
  147.2472  134.1716  151.1941 H   0  0  0  0  0  0  0  0  0  0  0  0
  150.2863  137.5887  156.3713 H   0  0  0  0  0  0  0  0  0  0  0  0
  149.9290  135.5445  154.1330 H   0  0  0  0  0  0  0  0  0  0  0  0
  149.5605  135.2384  155.8278 H   0  0  0  0  0  0  0  0  0  0  0  0
  151.2054  135.5908  155.3454 H   0  0  0  0  0  0  0  0  0  0  0  0
  146.9616  131.7143  150.5612 H   0  0  0  0  0  0  0  0  0  0  0  0
  1  2  1  0  0  0  0
  1 21  1  0  0  0  0
  1 22  1  0  0  0  0
  1 23  1  0  0  0  0
  2 19  1  0  0  0  0
  2  3  1  0  0  0  0
  2 24  1  0  0  0  0
  3  4  1  0  0  0  0
  3 25  1  0  0  0  0
  3 26  1  0  0  0  0
  4  5  1  0  0  0  0
  4 27  1  0  0  0  0
  4 28  1  0  0  0  0
  5  6  1  0  0  0  0
  5 29  1  0  0  0  0
  5 30  1  0  0  0  0
  6  7  1  0  0  0  0
  6 19  1  0  0  0  0
  6 31  1  0  0  0  0
  7  8  1  0  0  0  0
  7 32  1  0  0  0  0
  8  9  2  0  0  0  0
  8 10  1  0  0  0  0
 10 11  1  0  0  0  0
 10 33  1  0  0  0  0
 11 12  2  0  0  0  0
 11 13  1  0  0  0  0
 13 14  1  0  0  0  0
 13 34  1  0  0  0  0
 13 35  1  0  0  0  0
 14 18  1  0  0  0  0
 14 15  1  0  0  0  0
 15 16  2  0  0  0  0
 15 36  1  0  0  0  0
 16 17  1  0  0  0  0
 16 37  1  0  0  0  0
 17 18  2  0  0  0  0
 17 43  1  0  0  0  0
 18 38  1  0  0  0  0
 19 20  1  0  0  0  0
 19 39  1  0  0  0  0
 20 40  1  0  0  0  0
 20 41  1  0  0  0  0
 20 42  1  0  0  0  0
M  CHG  1  17   1
M  END
> <s_m_source_file>
AV-unprocessed.smi

> <i_m_source_file_index>
527

> <i_lp_mmshare_version>
43012

> <i_f3d_flags>
0

> <s_epik_input>
W0NIM11bQ0BASF0xW0NIMl1bQ0gyXVtDSDJdW0NASF0oW0NASF0xW0NIM10pW05IXUMoPU8pW05IXUMoPU8pW0NIMl1uMltjSF1bY0hdbltjSF0y

> <s_epik_cmdline>
J2VwaWtfcHl0aG9uJywgJy1waCcsICc3LjAnLCAnLXRuJywgJzgnLCAnLW1hJywgJzIwMCcsICctbWV0YWxfYmluZGluZycsICctaW1hZScsICc8aW5maWxlLm1hZT4nLCAnLW9tYWUnLCAnPG91dGZpbGUubWFlPic=

> <r_lp_tautomer_probability>
1

> <r_epik_Ionization_Penalty>
0.816441

> <r_epik_Ionization_Penalty_Charging>
0

> <r_epik_Ionization_Penalty_Neutral>
0.816441

> <r_epik_State_Penalty>
0.849034

> <r_epik_Charging_Adjusted_Penalty>
0.849034

> <i_epik_Tot_Q>
1

> <i_epik_Tot_abs_Q>
1

> <r_epik_Metal_State_Penalty>
0.984327

> <b_epik_Metal_Only>
0

> <s_lp_Force_Field>
OPLS_2005

> <r_lp_Energy>
15.5075

> <b_lp_Chiralities_Consistent>
1

> <s_lp_Variant>
AV-unprocessed.smi:527-9

> <Gold.Version>
5.8.1

> <Gold.Id.Protein>
6NUR|6NUR_protein|mol2

> <Gold.PLP.Fitness>
44.0613

> <Gold.PLP.PLP>
-32.5546

> <Gold.PLP.part.hbond>
-3.0000

> <Gold.PLP.part.metal>
0.0000

> <Gold.PLP.part.buried>
-3.9801

> <Gold.PLP.part.nonpolar>
-25.2626

> <Gold.PLP.part.repulsive>
0.2025

> <Gold.PLP.ligand.clash>
0.0000

> <Gold.PLP.ligand.torsion>
0.7188

> <Gold.PLP.Chemscore.Hbond>
2.8553

> <Gold.PLP.Chemscore.CHOScore>
1.4463

> <Gold.PLP.Chemscore.Metal>
0.0000

> <Gold.Chemscore.Hbonds>
donor molecule, donor type, donor heavy atom, donor atom, acceptor molecule, acceptor atom, score
      L1  H     7    32       P1  7948  1.00
      L1  H    10    33       P1  7948  0.72
      L1  H    17    43       P1 10747  0.57
      L1  C    15    36       P1 10186  1.00
      L1  C    18    38       P1  7948  0.48

> <Gold.PLP.Chemscore.Internal.Correction>
0.0396

> <Gold.Rescore>
     Score         DG    S(hbond)    S(metal)    S(lipo)     H(rot)  DE(clash)    DE(int)     intcor
     16.18     -18.24       2.81        0.00      66.25       1.71       0.01       2.05       ----

> <Gold.Chemscore.Fitness>
16.1781

> <Gold.Chemscore.DG>
-18.2402

> <Gold.Chemscore.ZeroCoef>
-5.4800

> <Gold.Chemscore.Hbond>
2.8066

> <Gold.Chemscore.Metal>
0.0000

> <Gold.Chemscore.Lipo>
66.2525

> <Gold.Chemscore.Internal_Hbond>
0.0000

> <Gold.Chemscore.DEClash>
0.0119

> <Gold.Chemscore.DEInternal>
2.0502

> <Gold.Chemscore.Rot>
1.7052

> <Gold.Chemscore.Internal.Correction>
   9.000000E+99

> <Gold.Chemscore.Hbonds>
donor molecule, donor type, donor heavy atom, donor atom, acceptor molecule, acceptor atom, score
      L1  H     7    32       P1  7948  0.96
      L1  H    10    33       P1  7948  0.70
      L1  H    17    43       P1 10747  0.56

> <Gold.Chemscore.Hbond.Weighted>
-9.3739

> <Gold.Chemscore.Metal.Weighted>
-0.0000

> <Gold.Chemscore.Lipo.Weighted>
-7.7515

> <Gold.Chemscore.Internal_Hbond.Weighted>
0.0000

> <Gold.Chemscore.DEClash.Weighted>
0.0119

> <Gold.Chemscore.DEInternal.Weighted>
2.0502

> <Gold.Chemscore.Rot.Weighted>
4.3653

> <Gold.Chemscore.Internal.Correction.Weighted>
   9.000000E+99

> <Gold.Protein.RotatedTorsions>
[ 6907 6896 6895 6894 ] final  -86.86 input  -60.11 | X-H torsion
[ 7974 7965 7964 7962 ] final   66.44 input  175.53 | X-H torsion
[ 8008 7997 7996 7995 ] final -147.62 input   59.86 | X-H torsion
[ 10167 10162 10161 10158 ] final  173.36 input  -65.29 | X-H torsion
[ 10718 10713 10712 10709 ] final   14.77 input   66.30 | X-H torsion
[ 10763 10752 10751 10750 ] final   84.20 input  -60.55 | X-H torsion
[ 11005 11000 10999 10996 ] final -172.23 input  -57.11 | X-H torsion

> <Gold.Protein.ActiveResidues>
 VAL166  LYS551  ARG553  GLY616  TRP617  ASP618  TYR619  PRO620  LYS621  CYS622 
 ASP623  PHE694  ASN695  SER759  ASP760  ASP761  ALA762  ILE779  LEU786  VAL792 
 PHE793  MET794  SER795  GLU796  ALA797  LYS798  CYS799  TRP800  GLU811  SER814 

> <Gold.Protein.RotatedAtoms>
  150.6866  134.2986  159.4696 H   0  0  0  0  0  0  0  0  0  0  0  0  # atno 6907 bound_to 6896
  152.0884  134.9421  160.0581 H   0  0  0  0  0  0  0  0  0  0  0  0  # atno 6908 bound_to 6896
  152.0747  133.4089  159.4511 H   0  0  0  0  0  0  0  0  0  0  0  0  # atno 6909 bound_to 6896
  145.8266  139.3115  143.1012 H   0  0  0  0  0  0  0  0  0  0  0  0  # atno 7974 bound_to 7965
  155.5785  140.0641  157.2789 H   0  0  0  0  0  0  0  0  0  0  0  0  # atno 8008 bound_to 7997
  154.4339  140.1856  156.0999 H   0  0  0  0  0  0  0  0  0  0  0  0  # atno 8009 bound_to 7997
  156.0322  140.3305  155.7156 H   0  0  0  0  0  0  0  0  0  0  0  0  # atno 8010 bound_to 7997
  139.5106  144.3270  152.0148 H   0  0  0  0  0  0  0  0  0  0  0  0  # atno 10167 bound_to 10162
  157.0439  130.6242  149.5755 H   0  0  0  0  0  0  0  0  0  0  0  0  # atno 10718 bound_to 10713
  153.1360  135.4663  154.9422 H   0  0  0  0  0  0  0  0  0  0  0  0  # atno 10763 bound_to 10752
  154.7706  135.3157  154.8200 H   0  0  0  0  0  0  0  0  0  0  0  0  # atno 10764 bound_to 10752
  153.8732  135.6901  153.4826 H   0  0  0  0  0  0  0  0  0  0  0  0  # atno 10765 bound_to 10752
  140.4993  134.5909  157.4982 H   0  0  0  0  0  0  0  0  0  0  0  0  # atno 11005 bound_to 11000
  145.9617  140.8830  143.0207 LP  0  0  0  0  0  0  0  0  0  0  0  0  # atno 17320 bound_to 7965
  144.6743  140.1821  143.7405 LP  0  0  0  0  0  0  0  0  0  0  0  0  # atno 17321 bound_to 7965
  140.2710  144.3964  150.6151 LP  0  0  0  0  0  0  0  0  0  0  0  0  # atno 17342 bound_to 10162
  140.6088  143.2168  151.6927 LP  0  0  0  0  0  0  0  0  0  0  0  0  # atno 17343 bound_to 10162
  156.0029  130.5111  150.7728 LP  0  0  0  0  0  0  0  0  0  0  0  0  # atno 17370 bound_to 10713
  157.5083  131.0923  151.0229 LP  0  0  0  0  0  0  0  0  0  0  0  0  # atno 17371 bound_to 10713
  139.9723  134.7273  156.0018 LP  0  0  0  0  0  0  0  0  0  0  0  0  # atno 17394 bound_to 11000
  141.1444  133.6558  156.3823 LP  0  0  0  0  0  0  0  0  0  0  0  0  # atno 17395 bound_to 11000

$$$$
