AV-unprocessed.smi:603|AV-procd|sdf|3036|dock7
  -GOLD-   2262023553D 1   1.00000     0.00000
 Structure written by MMmdl.
 35 36  0  0  0  0  0  0  0  0  1 V2000
  149.7176  139.9610  155.0632 O   0  0  0  0  0  0  0  0  0  0  0  0
  149.2498  141.1014  155.0707 C   0  0  0  0  0  0  0  0  0  0  0  0
  148.0165  141.3993  154.2109 C   0  0  0  0  0  0  0  0  0  0  0  0
  147.3550  140.1649  153.7667 N   0  0  0  0  0  0  0  0  0  0  0  0
  147.0246  140.1565  152.4226 N   0  0  0  0  0  0  0  0  0  0  0  0
  146.4467  139.1219  151.9169 C   0  0  0  0  0  0  0  0  0  0  0  0
  146.1231  137.9564  152.7094 C   0  0  0  0  0  0  0  0  0  0  0  0
  145.3480  136.5969  151.9758 Cl  0  0  0  0  0  0  0  0  0  0  0  0
  146.4466  137.9763  154.0268 C   0  0  0  0  0  0  0  0  0  0  0  0
  146.0912  136.6190  155.0395 Cl  0  0  0  0  0  0  0  0  0  0  0  0
  147.1057  139.1390  154.6379 C   0  0  0  0  0  0  0  0  0  0  0  0
  147.4143  139.1949  155.8289 O   0  0  0  0  0  0  0  0  0  0  0  0
  149.7234  142.1479  155.7864 N   0  0  0  0  0  0  0  0  0  0  0  0
  150.7673  142.2404  156.6435 C   0  0  0  0  0  0  0  0  0  0  0  0
  151.3921  141.2356  156.9791 O   0  0  0  0  0  0  0  0  0  0  0  0
  151.0785  143.4676  157.1021 N   0  0  0  0  0  0  0  0  0  0  0  0
  152.1634  143.7770  158.0290 C   0  0  0  0  0  0  0  0  0  0  0  0
  152.1333  142.8521  159.2622 C   0  0  0  0  0  0  0  0  0  0  0  0
  151.6519  143.7192  160.4254 C   0  0  0  0  0  0  0  0  0  0  0  0
  152.1700  145.1136  160.0880 C   0  0  0  0  0  0  0  0  0  0  0  0
  152.0260  145.2140  158.5683 C   0  0  0  0  0  0  0  0  0  0  0  0
  147.3228  142.0405  154.7580 H   0  0  0  0  0  0  0  0  0  0  0  0
  148.3298  141.9891  153.3473 H   0  0  0  0  0  0  0  0  0  0  0  0
  146.1704  139.0701  150.8636 H   0  0  0  0  0  0  0  0  0  0  0  0
  149.2061  143.0069  155.6673 H   0  0  0  0  0  0  0  0  0  0  0  0
  150.5187  144.2450  156.7810 H   0  0  0  0  0  0  0  0  0  0  0  0
  153.1220  143.6715  157.5175 H   0  0  0  0  0  0  0  0  0  0  0  0
  151.5108  141.9662  159.1287 H   0  0  0  0  0  0  0  0  0  0  0  0
  153.1450  142.5019  159.4706 H   0  0  0  0  0  0  0  0  0  0  0  0
  150.5613  143.7289  160.4509 H   0  0  0  0  0  0  0  0  0  0  0  0
  152.0065  143.3602  161.3920 H   0  0  0  0  0  0  0  0  0  0  0  0
  151.6306  145.9017  160.6140 H   0  0  0  0  0  0  0  0  0  0  0  0
  153.2228  145.1891  160.3635 H   0  0  0  0  0  0  0  0  0  0  0  0
  152.7651  145.8884  158.1347 H   0  0  0  0  0  0  0  0  0  0  0  0
  151.0418  145.6224  158.3319 H   0  0  0  0  0  0  0  0  0  0  0  0
  1  2  2  0  0  0  0
  2  3  1  0  0  0  0
  2 13  1  0  0  0  0
  3  4  1  0  0  0  0
  3 22  1  0  0  0  0
  3 23  1  0  0  0  0
  4 11  1  0  0  0  0
  4  5  1  0  0  0  0
  5  6  2  0  0  0  0
  6  7  1  0  0  0  0
  6 24  1  0  0  0  0
  7  8  1  0  0  0  0
  7  9  2  0  0  0  0
  9 10  1  0  0  0  0
  9 11  1  0  0  0  0
 11 12  2  0  0  0  0
 13 14  1  0  0  0  0
 13 25  1  0  0  0  0
 14 15  2  0  0  0  0
 14 16  1  0  0  0  0
 16 17  1  0  0  0  0
 16 26  1  0  0  0  0
 17 21  1  0  0  0  0
 17 18  1  0  0  0  0
 17 27  1  0  0  0  0
 18 19  1  0  0  0  0
 18 28  1  0  0  0  0
 18 29  1  0  0  0  0
 19 20  1  0  0  0  0
 19 30  1  0  0  0  0
 19 31  1  0  0  0  0
 20 21  1  0  0  0  0
 20 32  1  0  0  0  0
 20 33  1  0  0  0  0
 21 34  1  0  0  0  0
 21 35  1  0  0  0  0
M  END
> <s_m_source_file>
AV-unprocessed.smi

> <i_m_source_file_index>
603

> <i_lp_mmshare_version>
43012

> <i_f3d_flags>
0

> <s_epik_input>
W0NIMl0xW0NIMl1bQ0gyXVtDSDJdW0NIXTFbTkhdQyg9TylbTkhdQyg9TylbQ0gyXW4ybltjSF1jKENsKWMoQ2wpYzI9Tw==

> <s_epik_cmdline>
J2VwaWtfcHl0aG9uJywgJy1waCcsICc3LjAnLCAnLXRuJywgJzgnLCAnLW1hJywgJzIwMCcsICctbWV0YWxfYmluZGluZycsICctaW1hZScsICc8aW5maWxlLm1hZT4nLCAnLW9tYWUnLCAnPG91dGZpbGUubWFlPic=

> <r_lp_tautomer_probability>
1

> <r_epik_Ionization_Penalty>
3.28905e-05

> <r_epik_Ionization_Penalty_Charging>
2.24292e-11

> <r_epik_Ionization_Penalty_Neutral>
3.28905e-05

> <r_epik_State_Penalty>
-0

> <r_epik_Charging_Adjusted_Penalty>
2.24292e-11

> <i_epik_Tot_Q>
0

> <i_epik_Tot_abs_Q>
0

> <r_epik_Metal_State_Penalty>
-0

> <b_epik_Metal_Only>
0

> <s_lp_Force_Field>
OPLS_2005

> <r_lp_Energy>
36.9935

> <b_lp_Chiralities_Consistent>
1

> <s_lp_Variant>
AV-unprocessed.smi:603-1

> <Gold.Version>
5.8.1

> <Gold.Id.Protein>
6NUR|6NUR_protein|mol2

> <Gold.PLP.Fitness>
46.7594

> <Gold.PLP.PLP>
-38.9033

> <Gold.PLP.part.hbond>
-2.0666

> <Gold.PLP.part.metal>
0.0000

> <Gold.PLP.part.buried>
-4.0403

> <Gold.PLP.part.nonpolar>
-35.7142

> <Gold.PLP.part.repulsive>
2.3955

> <Gold.PLP.ligand.clash>
0.0000

> <Gold.PLP.ligand.torsion>
0.4864

> <Gold.PLP.Chemscore.Hbond>
1.9824

> <Gold.PLP.Chemscore.CHOScore>
0.9553

> <Gold.PLP.Chemscore.Metal>
0.0000

> <Gold.Chemscore.Hbonds>
donor molecule, donor type, donor heavy atom, donor atom, acceptor molecule, acceptor atom, score
      L1  H    13    25       P1  8028  1.00
      L1  H    16    26       P1  8028  0.90
      L1  C     6    24       P1 10171  0.95

> <Gold.PLP.Chemscore.Internal.Correction>
0.0159

> <Gold.Rescore>
     Score         DG    S(hbond)    S(metal)    S(lipo)     H(rot)  DE(clash)    DE(int)     intcor
     10.96     -18.05       1.86        0.00      90.64       1.65       0.50       6.60       ----

> <Gold.Chemscore.Fitness>
10.9615

> <Gold.Chemscore.DG>
-18.0519

> <Gold.Chemscore.ZeroCoef>
-5.4800

> <Gold.Chemscore.Hbond>
1.8570

> <Gold.Chemscore.Metal>
0.0000

> <Gold.Chemscore.Lipo>
90.6352

> <Gold.Chemscore.Internal_Hbond>
0.0000

> <Gold.Chemscore.DEClash>
0.4953

> <Gold.Chemscore.DEInternal>
6.5951

> <Gold.Chemscore.Rot>
1.6543

> <Gold.Chemscore.Internal.Correction>
   9.000000E+99

> <Gold.Chemscore.Hbonds>
donor molecule, donor type, donor heavy atom, donor atom, acceptor molecule, acceptor atom, score
      L1  H    13    25       P1  8028  0.99
      L1  H    16    26       P1  8028  0.83

> <Gold.Chemscore.Hbond.Weighted>
-6.2025

> <Gold.Chemscore.Metal.Weighted>
-0.0000

> <Gold.Chemscore.Lipo.Weighted>
-10.6043

> <Gold.Chemscore.Internal_Hbond.Weighted>
0.0000

> <Gold.Chemscore.DEClash.Weighted>
0.4953

> <Gold.Chemscore.DEInternal.Weighted>
6.5951

> <Gold.Chemscore.Rot.Weighted>
4.2349

> <Gold.Chemscore.Internal.Correction.Weighted>
   9.000000E+99

> <Gold.Protein.RotatedTorsions>
[ 6907 6896 6895 6894 ] final  -96.22 input  -60.11 | X-H torsion
[ 7974 7965 7964 7962 ] final  145.61 input  175.53 | X-H torsion
[ 8008 7997 7996 7995 ] final -113.75 input   59.86 | X-H torsion
[ 10167 10162 10161 10158 ] final  -45.26 input  -65.29 | X-H torsion
[ 10718 10713 10712 10709 ] final   99.69 input   66.30 | X-H torsion
[ 10763 10752 10751 10750 ] final  117.37 input  -60.55 | X-H torsion
[ 11005 11000 10999 10996 ] final  -22.22 input  -57.11 | X-H torsion

> <Gold.Protein.ActiveResidues>
 VAL166  LYS551  ARG553  GLY616  TRP617  ASP618  TYR619  PRO620  LYS621  CYS622 
 ASP623  PHE694  ASN695  SER759  ASP760  ASP761  ALA762  ILE779  LEU786  VAL792 
 PHE793  MET794  SER795  GLU796  ALA797  LYS798  CYS799  TRP800  GLU811  SER814 

> <Gold.Protein.RotatedAtoms>
  150.6983  134.1537  159.4149 H   0  0  0  0  0  0  0  0  0  0  0  0  # atno 6907 bound_to 6896
  151.9519  135.0163  160.0552 H   0  0  0  0  0  0  0  0  0  0  0  0  # atno 6908 bound_to 6896
  152.2003  133.4801  159.5092 H   0  0  0  0  0  0  0  0  0  0  0  0  # atno 6909 bound_to 6896
  144.8738  139.5805  143.5874 H   0  0  0  0  0  0  0  0  0  0  0  0  # atno 7974 bound_to 7965
  155.0257  140.0393  157.2454 H   0  0  0  0  0  0  0  0  0  0  0  0  # atno 8008 bound_to 7997
  154.7340  140.2736  155.6408 H   0  0  0  0  0  0  0  0  0  0  0  0  # atno 8009 bound_to 7997
  156.2848  140.2678  156.2048 H   0  0  0  0  0  0  0  0  0  0  0  0  # atno 8010 bound_to 7997
  140.6865  143.2888  151.3613 H   0  0  0  0  0  0  0  0  0  0  0  0  # atno 10167 bound_to 10162
  157.6870  131.0677  150.4986 H   0  0  0  0  0  0  0  0  0  0  0  0  # atno 10718 bound_to 10713
  153.5514  135.3539  155.2761 H   0  0  0  0  0  0  0  0  0  0  0  0  # atno 10763 bound_to 10752
  154.8706  135.4114  154.2933 H   0  0  0  0  0  0  0  0  0  0  0  0  # atno 10764 bound_to 10752
  153.3660  135.7062  153.6743 H   0  0  0  0  0  0  0  0  0  0  0  0  # atno 10765 bound_to 10752
  140.8636  133.7770  156.0103 H   0  0  0  0  0  0  0  0  0  0  0  0  # atno 11005 bound_to 11000
  146.2948  139.7247  142.9134 LP  0  0  0  0  0  0  0  0  0  0  0  0  # atno 17320 bound_to 7965
  145.4081  141.0393  143.3033 LP  0  0  0  0  0  0  0  0  0  0  0  0  # atno 17321 bound_to 7965
  139.6228  144.0873  152.2407 LP  0  0  0  0  0  0  0  0  0  0  0  0  # atno 17342 bound_to 10162
  140.0323  144.6071  150.7478 LP  0  0  0  0  0  0  0  0  0  0  0  0  # atno 17343 bound_to 10162
  156.5309  130.4184  149.6202 LP  0  0  0  0  0  0  0  0  0  0  0  0  # atno 17370 bound_to 10713
  156.3070  130.7208  151.2092 LP  0  0  0  0  0  0  0  0  0  0  0  0  # atno 17371 bound_to 10713
  140.8654  134.2790  157.5215 LP  0  0  0  0  0  0  0  0  0  0  0  0  # atno 17394 bound_to 11000
  139.8708  134.9540  156.4162 LP  0  0  0  0  0  0  0  0  0  0  0  0  # atno 17395 bound_to 11000

$$$$
