AV-unprocessed.smi:1419|AV-procd|sdf|5777|dock2
  -GOLD-   22720 5423D 1   1.00000     0.00000
 Structure written by MMmdl.
 42 43  0  0  0  0  0  0  0  0  2 V2000
  152.5749  140.5413  158.5464 C   0  0  0  0  0  0  0  0  0  0  0  0
  153.3815  141.3070  159.6073 C   0  0  1  0  0  0  0  0  0  0  0  0
  152.5159  142.2804  160.4370 C   0  0  0  0  0  0  0  0  0  0  0  0
  151.9562  143.3711  159.6345 N   0  0  0  0  0  0  0  0  0  0  0  0
  152.2059  144.7140  159.7579 C   0  0  0  0  0  0  0  0  0  0  0  0
  151.4625  145.3397  158.7903 C   0  0  0  0  0  0  0  0  0  0  0  0
  150.7934  144.3530  158.1166 N   0  3  0  0  0  0  0  0  0  0  0  0
  151.0970  143.1564  158.6300 C   0  0  0  0  0  0  0  0  0  0  0  0
  154.0459  140.3503  160.4870 N   0  0  0  0  0  0  0  0  0  0  0  0
  154.9872  139.4670  160.1112 C   0  0  0  0  0  0  0  0  0  0  0  0
  155.3691  139.3750  158.9438 O   0  0  0  0  0  0  0  0  0  0  0  0
  155.4677  138.6916  161.1144 N   0  0  0  0  0  0  0  0  0  0  0  0
  156.6200  137.7820  161.0519 C   0  0  0  0  0  0  0  0  0  0  0  0
  156.1123  136.3253  161.0874 C   0  0  2  0  0  0  0  0  0  0  0  0
  155.3918  135.8826  159.8010 C   0  0  0  0  0  0  0  0  0  0  0  0
  155.2892  136.1294  162.2419 O   0  0  0  0  0  0  0  0  0  0  0  0
  154.2055  137.0500  162.3971 C   0  0  1  0  0  0  0  0  0  0  0  0
  153.4921  136.7228  163.7132 C   0  0  0  0  0  0  0  0  0  0  0  0
  154.7467  138.4929  162.3730 C   0  0  0  0  0  0  0  0  0  0  0  0
  152.1364  141.2174  157.8124 H   0  0  0  0  0  0  0  0  0  0  0  0
  151.7644  139.9703  159.0003 H   0  0  0  0  0  0  0  0  0  0  0  0
  153.2097  139.8415  158.0014 H   0  0  0  0  0  0  0  0  0  0  0  0
  154.1491  141.8794  159.0826 H   0  0  0  0  0  0  0  0  0  0  0  0
  151.6867  141.7504  160.9079 H   0  0  0  0  0  0  0  0  0  0  0  0
  153.0978  142.7321  161.2419 H   0  0  0  0  0  0  0  0  0  0  0  0
  152.8744  145.1138  160.5067 H   0  0  0  0  0  0  0  0  0  0  0  0
  151.3626  146.3852  158.5369 H   0  0  0  0  0  0  0  0  0  0  0  0
  150.7213  142.2041  158.2996 H   0  0  0  0  0  0  0  0  0  0  0  0
  153.7757  140.3623  161.4599 H   0  0  0  0  0  0  0  0  0  0  0  0
  157.2626  137.9324  160.1844 H   0  0  0  0  0  0  0  0  0  0  0  0
  157.2592  137.9673  161.9164 H   0  0  0  0  0  0  0  0  0  0  0  0
  156.9765  135.6722  161.2118 H   0  0  0  0  0  0  0  0  0  0  0  0
  156.0563  135.9595  158.9403 H   0  0  0  0  0  0  0  0  0  0  0  0
  154.5112  136.4873  159.5864 H   0  0  0  0  0  0  0  0  0  0  0  0
  155.0696  134.8439  159.8768 H   0  0  0  0  0  0  0  0  0  0  0  0
  153.4933  136.9136  161.5827 H   0  0  0  0  0  0  0  0  0  0  0  0
  152.6453  137.3895  163.8776 H   0  0  0  0  0  0  0  0  0  0  0  0
  154.1670  136.8227  164.5639 H   0  0  0  0  0  0  0  0  0  0  0  0
  153.1134  135.7005  163.7069 H   0  0  0  0  0  0  0  0  0  0  0  0
  155.4251  138.6595  163.2111 H   0  0  0  0  0  0  0  0  0  0  0  0
  153.9290  139.2027  162.5050 H   0  0  0  0  0  0  0  0  0  0  0  0
  150.1608  144.5038  157.3407 H   0  0  0  0  0  0  0  0  0  0  0  0
  1  2  1  0  0  0  0
  1 20  1  0  0  0  0
  1 21  1  0  0  0  0
  1 22  1  0  0  0  0
  2  3  1  0  0  0  0
  2  9  1  0  0  0  0
  2 23  1  0  0  0  0
  3  4  1  0  0  0  0
  3 24  1  0  0  0  0
  3 25  1  0  0  0  0
  4  8  1  0  0  0  0
  4  5  1  0  0  0  0
  5  6  2  0  0  0  0
  5 26  1  0  0  0  0
  6  7  1  0  0  0  0
  6 27  1  0  0  0  0
  7  8  2  0  0  0  0
  7 42  1  0  0  0  0
  8 28  1  0  0  0  0
  9 10  1  0  0  0  0
  9 29  1  0  0  0  0
 10 11  2  0  0  0  0
 10 12  1  0  0  0  0
 12 19  1  0  0  0  0
 12 13  1  0  0  0  0
 13 14  1  0  0  0  0
 13 30  1  0  0  0  0
 13 31  1  0  0  0  0
 14 15  1  0  0  0  0
 14 16  1  0  0  0  0
 14 32  1  0  0  0  0
 15 33  1  0  0  0  0
 15 34  1  0  0  0  0
 15 35  1  0  0  0  0
 16 17  1  0  0  0  0
 17 18  1  0  0  0  0
 17 19  1  0  0  0  0
 17 36  1  0  0  0  0
 18 37  1  0  0  0  0
 18 38  1  0  0  0  0
 18 39  1  0  0  0  0
 19 40  1  0  0  0  0
 19 41  1  0  0  0  0
M  CHG  1   7   1
M  END
> <s_m_source_file>
AV-unprocessed.smi

> <i_m_source_file_index>
1419

> <i_lp_mmshare_version>
43012

> <i_f3d_flags>
0

> <s_epik_input>
W2NIXTFuW2NIXVtjSF1uMVtDSDJdW0NAQEhdKFtDSDNdKVtOSF1DKD1PKU4yW0NIMl1bQ0BASF0oW0NIM10pT1tDQEBIXShbQ0gzXSlbQ0gyXTI=

> <s_epik_cmdline>
J2VwaWtfcHl0aG9uJywgJy1waCcsICc3LjAnLCAnLXRuJywgJzgnLCAnLW1hJywgJzIwMCcsICctbWV0YWxfYmluZGluZycsICctaW1hZScsICc8aW5maWxlLm1hZT4nLCAnLW9tYWUnLCAnPG91dGZpbGUubWFlPic=

> <r_lp_tautomer_probability>
1

> <r_epik_Ionization_Penalty>
0.253607

> <r_epik_Ionization_Penalty_Charging>
0

> <r_epik_Ionization_Penalty_Neutral>
0.253607

> <r_epik_State_Penalty>
0.245018

> <r_epik_Charging_Adjusted_Penalty>
0.245018

> <i_epik_Tot_Q>
1

> <i_epik_Tot_abs_Q>
1

> <r_epik_Metal_State_Penalty>
0.535379

> <b_epik_Metal_Only>
0

> <s_lp_Force_Field>
OPLS_2005

> <r_lp_Energy>
32.5002

> <b_lp_Chiralities_Consistent>
1

> <s_lp_Variant>
AV-unprocessed.smi:1419-4

> <Gold.Version>
5.8.1

> <Gold.Id.Protein>
6NUR|6NUR_protein|mol2

> <Gold.PLP.Fitness>
44.6786

> <Gold.PLP.PLP>
-36.3763

> <Gold.PLP.part.hbond>
-2.0000

> <Gold.PLP.part.metal>
0.0000

> <Gold.PLP.part.buried>
-4.6407

> <Gold.PLP.part.nonpolar>
-28.9465

> <Gold.PLP.part.repulsive>
0.0998

> <Gold.PLP.ligand.clash>
0.4259

> <Gold.PLP.ligand.torsion>
0.1745

> <Gold.PLP.Chemscore.Hbond>
3.0000

> <Gold.PLP.Chemscore.CHOScore>
0.0000

> <Gold.PLP.Chemscore.Metal>
0.0000

> <Gold.Chemscore.Hbonds>
donor molecule, donor type, donor heavy atom, donor atom, acceptor molecule, acceptor atom, score
      L1  H     7    42       P1  8028  1.72
      P1  H  7997  8009       L1    11  1.00

> <Gold.PLP.Chemscore.Internal.Correction>
0.0772

> <Gold.Rescore>
     Score         DG    S(hbond)    S(metal)    S(lipo)     H(rot)  DE(clash)    DE(int)     intcor
     15.33     -17.08       1.94        0.00      79.35       1.63       0.33       1.41       ----

> <Gold.Chemscore.Fitness>
15.3321

> <Gold.Chemscore.DG>
-17.0800

> <Gold.Chemscore.ZeroCoef>
-5.4800

> <Gold.Chemscore.Hbond>
1.9407

> <Gold.Chemscore.Metal>
0.0000

> <Gold.Chemscore.Lipo>
79.3487

> <Gold.Chemscore.Internal_Hbond>
0.0000

> <Gold.Chemscore.DEClash>
0.3348

> <Gold.Chemscore.DEInternal>
1.4131

> <Gold.Chemscore.Rot>
1.6273

> <Gold.Chemscore.Internal.Correction>
   9.000000E+99

> <Gold.Chemscore.Hbonds>
donor molecule, donor type, donor heavy atom, donor atom, acceptor molecule, acceptor atom, score
      L1  H     7    42       P1  8028  0.38
      P1  H  7997  8009       L1    11  1.00

> <Gold.Chemscore.Hbond.Weighted>
-6.4820

> <Gold.Chemscore.Metal.Weighted>
-0.0000

> <Gold.Chemscore.Lipo.Weighted>
-9.2838

> <Gold.Chemscore.Internal_Hbond.Weighted>
0.0000

> <Gold.Chemscore.DEClash.Weighted>
0.3348

> <Gold.Chemscore.DEInternal.Weighted>
1.4131

> <Gold.Chemscore.Rot.Weighted>
4.1658

> <Gold.Chemscore.Internal.Correction.Weighted>
   9.000000E+99

> <Gold.Protein.RotatedTorsions>
[ 6907 6896 6895 6894 ] final   83.14 input  -60.11 | X-H torsion
[ 7974 7965 7964 7962 ] final -144.22 input  175.53 | X-H torsion
[ 8008 7997 7996 7995 ] final  100.48 input   59.86 | X-H torsion
[ 10167 10162 10161 10158 ] final  170.49 input  -65.29 | X-H torsion
[ 10718 10713 10712 10709 ] final  -35.07 input   66.30 | X-H torsion
[ 10763 10752 10751 10750 ] final  170.02 input  -60.55 | X-H torsion
[ 11005 11000 10999 10996 ] final  158.50 input  -57.11 | X-H torsion

> <Gold.Protein.ActiveResidues>
 VAL166  LYS551  ARG553  GLY616  TRP617  ASP618  TYR619  PRO620  LYS621  CYS622 
 ASP623  PHE694  ASN695  SER759  ASP760  ASP761  ALA762  ILE779  LEU786  VAL792 
 PHE793  MET794  SER795  GLU796  ALA797  LYS798  CYS799  TRP800  GLU811  SER814 

> <Gold.Protein.RotatedAtoms>
  152.5319  134.2941  159.9053 H   0  0  0  0  0  0  0  0  0  0  0  0  # atno 6907 bound_to 6896
  151.2893  133.4166  159.2639 H   0  0  0  0  0  0  0  0  0  0  0  0  # atno 6908 bound_to 6896
  151.0215  134.9488  159.8119 H   0  0  0  0  0  0  0  0  0  0  0  0  # atno 6909 bound_to 6896
  144.8313  140.5737  143.5513 H   0  0  0  0  0  0  0  0  0  0  0  0  # atno 7974 bound_to 7965
  156.1207  140.3212  155.8205 H   0  0  0  0  0  0  0  0  0  0  0  0  # atno 8008 bound_to 7997
  155.4509  140.0532  157.3018 H   0  0  0  0  0  0  0  0  0  0  0  0  # atno 8009 bound_to 7997
  154.4826  140.2059  155.9743 H   0  0  0  0  0  0  0  0  0  0  0  0  # atno 8010 bound_to 7997
  139.5020  144.3590  151.9844 H   0  0  0  0  0  0  0  0  0  0  0  0  # atno 10167 bound_to 10162
  156.3431  130.4296  149.7770 H   0  0  0  0  0  0  0  0  0  0  0  0  # atno 10718 bound_to 10713
  154.3916  135.2754  155.2151 H   0  0  0  0  0  0  0  0  0  0  0  0  # atno 10763 bound_to 10752
  154.4215  135.5999  153.6016 H   0  0  0  0  0  0  0  0  0  0  0  0  # atno 10764 bound_to 10752
  152.9832  135.5973  154.4171 H   0  0  0  0  0  0  0  0  0  0  0  0  # atno 10765 bound_to 10752
  140.1871  134.8434  157.2870 H   0  0  0  0  0  0  0  0  0  0  0  0  # atno 11005 bound_to 11000
  145.4890  139.1490  143.3720 LP  0  0  0  0  0  0  0  0  0  0  0  0  # atno 17320 bound_to 7965
  146.2616  140.5027  142.8851 LP  0  0  0  0  0  0  0  0  0  0  0  0  # atno 17321 bound_to 7965
  140.3027  144.3628  150.6056 LP  0  0  0  0  0  0  0  0  0  0  0  0  # atno 17342 bound_to 10162
  140.5861  143.2170  151.7339 LP  0  0  0  0  0  0  0  0  0  0  0  0  # atno 17343 bound_to 10162
  156.4999  130.8124  151.3128 LP  0  0  0  0  0  0  0  0  0  0  0  0  # atno 17370 bound_to 10713
  157.7450  130.9948  150.2721 LP  0  0  0  0  0  0  0  0  0  0  0  0  # atno 17371 bound_to 10713
  140.2201  134.4034  155.7570 LP  0  0  0  0  0  0  0  0  0  0  0  0  # atno 17394 bound_to 11000
  141.2225  133.7161  156.8476 LP  0  0  0  0  0  0  0  0  0  0  0  0  # atno 17395 bound_to 11000

$$$$
