AV-unprocessed.smi:3111|AV-procd|sdf|11835|dock1
  -GOLD-   2272017213D 1   1.00000     0.00000
 Structure written by MMmdl.
 30 30  0  0  0  0  0  0  0  0  2 V2000
  146.6166  144.2325  159.9442 C   0  0  0  0  0  0  0  0  0  0  0  0
  146.6840  143.7732  158.5653 N   0  0  0  0  0  0  0  0  0  0  0  0
  146.0502  142.6881  158.0995 C   0  0  0  0  0  0  0  0  0  0  0  0
  145.3349  141.9726  158.8037 O   0  0  0  0  0  0  0  0  0  0  0  0
  146.2528  142.3812  156.6091 C   0  0  0  0  0  0  0  0  0  0  0  0
  147.6614  142.2775  156.2361 N   0  0  0  0  0  0  0  0  0  0  0  0
  148.3377  141.1280  156.0796 C   0  0  0  0  0  0  0  0  0  0  0  0
  147.8438  140.0207  156.2957 O   0  0  0  0  0  0  0  0  0  0  0  0
  149.7825  141.2555  155.5727 C   0  0  1  0  0  0  0  0  0  0  0  0
  150.7488  141.8041  156.6400 C   0  0  0  0  0  0  0  0  0  0  0  0
  150.2496  139.9703  155.0259 N   0  0  0  0  0  0  0  0  0  0  0  0
  151.2973  139.2121  155.4850 C   0  0  0  0  0  0  0  0  0  0  0  0
  151.3768  138.1141  154.6676 C   0  0  0  0  0  0  0  0  0  0  0  0
  150.3764  138.2456  153.7428 N   0  3  0  0  0  0  0  0  0  0  0  0
  149.6922  139.3729  153.9612 C   0  0  0  0  0  0  0  0  0  0  0  0
  147.2123  145.1375  160.0642 H   0  0  0  0  0  0  0  0  0  0  0  0
  147.0061  143.4749  160.6254 H   0  0  0  0  0  0  0  0  0  0  0  0
  145.5887  144.4613  160.2282 H   0  0  0  0  0  0  0  0  0  0  0  0
  147.2490  144.3131  157.9257 H   0  0  0  0  0  0  0  0  0  0  0  0
  145.7682  141.4317  156.3807 H   0  0  0  0  0  0  0  0  0  0  0  0
  145.7563  143.1414  156.0032 H   0  0  0  0  0  0  0  0  0  0  0  0
  148.1413  143.1430  156.0364 H   0  0  0  0  0  0  0  0  0  0  0  0
  149.7753  141.9652  154.7434 H   0  0  0  0  0  0  0  0  0  0  0  0
  150.4117  142.7709  157.0160 H   0  0  0  0  0  0  0  0  0  0  0  0
  151.7462  141.9470  156.2233 H   0  0  0  0  0  0  0  0  0  0  0  0
  150.8417  141.1313  157.4933 H   0  0  0  0  0  0  0  0  0  0  0  0
  151.8957  139.5028  156.3362 H   0  0  0  0  0  0  0  0  0  0  0  0
  152.0536  137.2721  154.6737 H   0  0  0  0  0  0  0  0  0  0  0  0
  148.8579  139.7337  153.3860 H   0  0  0  0  0  0  0  0  0  0  0  0
  150.1821  137.5883  152.9977 H   0  0  0  0  0  0  0  0  0  0  0  0
  1  2  1  0  0  0  0
  1 16  1  0  0  0  0
  1 17  1  0  0  0  0
  1 18  1  0  0  0  0
  2  3  1  0  0  0  0
  2 19  1  0  0  0  0
  3  4  2  0  0  0  0
  3  5  1  0  0  0  0
  5  6  1  0  0  0  0
  5 20  1  0  0  0  0
  5 21  1  0  0  0  0
  6  7  1  0  0  0  0
  6 22  1  0  0  0  0
  7  8  2  0  0  0  0
  7  9  1  0  0  0  0
  9 10  1  0  0  0  0
  9 11  1  0  0  0  0
  9 23  1  0  0  0  0
 10 24  1  0  0  0  0
 10 25  1  0  0  0  0
 10 26  1  0  0  0  0
 11 15  1  0  0  0  0
 11 12  1  0  0  0  0
 12 13  2  0  0  0  0
 12 27  1  0  0  0  0
 13 14  1  0  0  0  0
 13 28  1  0  0  0  0
 14 15  2  0  0  0  0
 14 30  1  0  0  0  0
 15 29  1  0  0  0  0
M  CHG  1  14   1
M  END
> <s_m_source_file>
AV-unprocessed.smi

> <i_m_source_file_index>
3111

> <i_lp_mmshare_version>
43012

> <i_f3d_flags>
0

> <s_epik_input>
W0NIM11bTkhdQyg9TylbQ0gyXVtOSF1DKD1PKVtDQEhdKFtDSDNdKW4xW2NIXVtjSF1uW2NIXTE=

> <s_epik_cmdline>
J2VwaWtfcHl0aG9uJywgJy1waCcsICc3LjAnLCAnLXRuJywgJzgnLCAnLW1hJywgJzIwMCcsICctbWV0YWxfYmluZGluZycsICctaW1hZScsICc8aW5maWxlLm1hZT4nLCAnLW9tYWUnLCAnPG91dGZpbGUubWFlPic=

> <r_lp_tautomer_probability>
1

> <r_epik_Ionization_Penalty>
0.581414

> <r_epik_Ionization_Penalty_Charging>
0

> <r_epik_Ionization_Penalty_Neutral>
0.581414

> <r_epik_State_Penalty>
0.594207

> <r_epik_Charging_Adjusted_Penalty>
0.594207

> <i_epik_Tot_Q>
1

> <i_epik_Tot_abs_Q>
1

> <r_epik_Metal_State_Penalty>
0.784638

> <b_epik_Metal_Only>
0

> <s_lp_Force_Field>
OPLS_2005

> <r_lp_Energy>
5.66591

> <b_lp_Chiralities_Consistent>
1

> <s_lp_Variant>
AV-unprocessed.smi:3111-4

> <Gold.Version>
5.8.1

> <Gold.Id.Protein>
6NUR|6NUR_protein|mol2

> <Gold.PLP.Fitness>
40.4912

> <Gold.PLP.PLP>
-25.9727

> <Gold.PLP.part.hbond>
-4.3074

> <Gold.PLP.part.metal>
0.0000

> <Gold.PLP.part.buried>
-2.3759

> <Gold.PLP.part.nonpolar>
-19.5206

> <Gold.PLP.part.repulsive>
0.1693

> <Gold.PLP.ligand.clash>
0.0000

> <Gold.PLP.ligand.torsion>
0.6344

> <Gold.PLP.Chemscore.Hbond>
5.0000

> <Gold.PLP.Chemscore.CHOScore>
0.2223

> <Gold.PLP.Chemscore.Metal>
0.0000

> <Gold.Chemscore.Hbonds>
donor molecule, donor type, donor heavy atom, donor atom, acceptor molecule, acceptor atom, score
      L1  H     2    19       P1  8029  1.00
      L1  H     6    22       P1  8028  1.00
      L1  H    14    30       P1  7948  1.24
      L1  C    15    29       P1  7957  0.55

> <Gold.PLP.Chemscore.Internal.Correction>
0.1205

> <Gold.Rescore>
     Score         DG    S(hbond)    S(metal)    S(lipo)     H(rot)  DE(clash)    DE(int)     intcor
     14.63     -15.61       3.65        0.00      33.27       2.33       0.02       0.96       ----

> <Gold.Chemscore.Fitness>
14.6255

> <Gold.Chemscore.DG>
-15.6055

> <Gold.Chemscore.ZeroCoef>
-5.4800

> <Gold.Chemscore.Hbond>
3.6529

> <Gold.Chemscore.Metal>
0.0000

> <Gold.Chemscore.Lipo>
33.2673

> <Gold.Chemscore.Internal_Hbond>
0.0000

> <Gold.Chemscore.DEClash>
0.0163

> <Gold.Chemscore.DEInternal>
0.9637

> <Gold.Chemscore.Rot>
2.3311

> <Gold.Chemscore.Internal.Correction>
   9.000000E+99

> <Gold.Chemscore.Hbonds>
donor molecule, donor type, donor heavy atom, donor atom, acceptor molecule, acceptor atom, score
      L1  H     2    19       P1  8029  0.25
      L1  H     6    22       P1  8028  0.65
      L1  H    14    30       P1  7948  0.08

> <Gold.Chemscore.Hbond.Weighted>
-12.2008

> <Gold.Chemscore.Metal.Weighted>
-0.0000

> <Gold.Chemscore.Lipo.Weighted>
-3.8923

> <Gold.Chemscore.Internal_Hbond.Weighted>
0.0000

> <Gold.Chemscore.DEClash.Weighted>
0.0163

> <Gold.Chemscore.DEInternal.Weighted>
0.9637

> <Gold.Chemscore.Rot.Weighted>
5.9676

> <Gold.Chemscore.Internal.Correction.Weighted>
   9.000000E+99

> <Gold.Protein.RotatedTorsions>
[ 6907 6896 6895 6894 ] final -173.54 input  -60.11 | X-H torsion
[ 7974 7965 7964 7962 ] final  141.48 input  175.53 | X-H torsion
[ 8008 7997 7996 7995 ] final  175.90 input   59.86 | X-H torsion
[ 10167 10162 10161 10158 ] final  -67.37 input  -65.29 | X-H torsion
[ 10718 10713 10712 10709 ] final   70.73 input   66.30 | X-H torsion
[ 10763 10752 10751 10750 ] final   19.56 input  -60.55 | X-H torsion
[ 11005 11000 10999 10996 ] final   -0.78 input  -57.11 | X-H torsion

> <Gold.Protein.ActiveResidues>
 VAL166  LYS551  ARG553  GLY616  TRP617  ASP618  TYR619  PRO620  LYS621  CYS622 
 ASP623  PHE694  ASN695  SER759  ASP760  ASP761  ALA762  ILE779  LEU786  VAL792 
 PHE793  MET794  SER795  GLU796  ALA797  LYS798  CYS799  TRP800  GLU811  SER814 

> <Gold.Protein.RotatedAtoms>
  151.5578  133.3408  159.2964 H   0  0  0  0  0  0  0  0  0  0  0  0  # atno 6907 bound_to 6896
  150.8441  134.7746  159.6967 H   0  0  0  0  0  0  0  0  0  0  0  0  # atno 6908 bound_to 6896
  152.4502  134.5417  159.9892 H   0  0  0  0  0  0  0  0  0  0  0  0  # atno 6909 bound_to 6896
  144.9092  139.5316  143.5717 H   0  0  0  0  0  0  0  0  0  0  0  0  # atno 7974 bound_to 7965
  156.0821  140.1397  156.9699 H   0  0  0  0  0  0  0  0  0  0  0  0  # atno 8008 bound_to 7997
  154.4591  140.0950  156.6892 H   0  0  0  0  0  0  0  0  0  0  0  0  # atno 8009 bound_to 7997
  155.5058  140.3452  155.4381 H   0  0  0  0  0  0  0  0  0  0  0  0  # atno 8010 bound_to 7997
  140.5588  143.2312  151.6769 H   0  0  0  0  0  0  0  0  0  0  0  0  # atno 10167 bound_to 10162
  157.6415  130.9492  150.0691 H   0  0  0  0  0  0  0  0  0  0  0  0  # atno 10718 bound_to 10713
  153.1152  135.6706  153.9430 H   0  0  0  0  0  0  0  0  0  0  0  0  # atno 10763 bound_to 10752
  153.8962  135.3041  155.3449 H   0  0  0  0  0  0  0  0  0  0  0  0  # atno 10764 bound_to 10752
  154.7569  135.5007  153.9469 H   0  0  0  0  0  0  0  0  0  0  0  0  # atno 10765 bound_to 10752
  140.6401  133.9497  155.8321 H   0  0  0  0  0  0  0  0  0  0  0  0  # atno 11005 bound_to 11000
  146.3150  139.7885  142.8991 LP  0  0  0  0  0  0  0  0  0  0  0  0  # atno 17320 bound_to 7965
  145.3483  141.0302  143.3353 LP  0  0  0  0  0  0  0  0  0  0  0  0  # atno 17321 bound_to 7965
  139.5060  144.3696  152.0483 LP  0  0  0  0  0  0  0  0  0  0  0  0  # atno 17342 bound_to 10162
  140.2821  144.3848  150.6115 LP  0  0  0  0  0  0  0  0  0  0  0  0  # atno 17343 bound_to 10162
  156.1701  130.3646  149.9178 LP  0  0  0  0  0  0  0  0  0  0  0  0  # atno 17370 bound_to 10713
  156.7155  130.8986  151.3613 LP  0  0  0  0  0  0  0  0  0  0  0  0  # atno 17371 bound_to 10713
  141.0613  134.0342  157.3654 LP  0  0  0  0  0  0  0  0  0  0  0  0  # atno 17394 bound_to 11000
  139.9083  135.0185  156.7584 LP  0  0  0  0  0  0  0  0  0  0  0  0  # atno 17395 bound_to 11000

$$$$
