AV-unprocessed.smi:676|AV-procd|sdf|3307|dock1
  -GOLD-   22720 0273D 1   1.00000     0.00000
 Structure written by MMmdl.
 42 43  0  0  0  0  0  0  0  0  1 V2000
  152.0252  139.5707  155.4823 C   0  0  0  0  0  0  0  0  0  0  0  0
  150.9343  140.2891  154.9188 O   0  0  0  0  0  0  0  0  0  0  0  0
  149.6357  139.6865  154.9969 C   0  0  1  0  0  0  0  0  0  0  0  0
  149.5764  138.4379  154.1072 C   0  0  0  0  0  0  0  0  0  0  0  0
  149.1788  139.5896  156.4657 C   0  0  0  0  0  0  0  0  0  0  0  0
  148.5896  140.9974  156.3426 C   0  0  1  0  0  0  0  0  0  0  0  0
  149.5357  142.0204  156.7862 N   0  0  0  0  0  0  0  0  0  0  0  0
  150.3313  141.9155  157.8590 C   0  0  0  0  0  0  0  0  0  0  0  0
  150.3548  140.9234  158.5882 O   0  0  0  0  0  0  0  0  0  0  0  0
  151.2590  143.1076  158.1283 C   0  0  0  0  0  0  0  0  0  0  0  0
  151.9273  143.0271  159.4372 N   0  0  0  0  0  0  0  0  0  0  0  0
  151.5999  144.0138  160.3887 C   0  0  0  0  0  0  0  0  0  0  0  0
  152.1537  144.0322  161.6113 C   0  0  0  0  0  0  0  0  0  0  0  0
  153.1089  143.0017  161.9437 C   0  0  0  0  0  0  0  0  0  0  0  0
  153.4322  142.0559  161.0395 C   0  0  0  0  0  0  0  0  0  0  0  0
  152.8337  142.0353  159.6996 C   0  0  0  0  0  0  0  0  0  0  0  0
  153.1276  141.1781  158.8657 O   0  0  0  0  0  0  0  0  0  0  0  0
  148.5595  140.8048  154.8043 C   0  0  0  0  0  0  0  0  0  0  0  0
  148.9416  142.0012  153.9169 C   0  0  0  0  0  0  0  0  0  0  0  0
  147.1940  140.3333  154.2816 C   0  0  0  0  0  0  0  0  0  0  0  0
  152.9053  140.2133  155.4916 H   0  0  0  0  0  0  0  0  0  0  0  0
  152.2766  138.6911  154.8898 H   0  0  0  0  0  0  0  0  0  0  0  0
  151.8345  139.2591  156.5087 H   0  0  0  0  0  0  0  0  0  0  0  0
  148.5737  138.0141  154.0674 H   0  0  0  0  0  0  0  0  0  0  0  0
  150.2238  137.6427  154.4756 H   0  0  0  0  0  0  0  0  0  0  0  0
  149.8752  138.6667  153.0841 H   0  0  0  0  0  0  0  0  0  0  0  0
  148.4079  138.8319  156.6141 H   0  0  0  0  0  0  0  0  0  0  0  0
  149.9662  139.4862  157.2120 H   0  0  0  0  0  0  0  0  0  0  0  0
  147.5964  141.0901  156.7858 H   0  0  0  0  0  0  0  0  0  0  0  0
  149.5885  142.8627  156.2314 H   0  0  0  0  0  0  0  0  0  0  0  0
  151.9948  143.1518  157.3244 H   0  0  0  0  0  0  0  0  0  0  0  0
  150.6964  144.0403  158.0502 H   0  0  0  0  0  0  0  0  0  0  0  0
  150.8832  144.7518  160.0585 H   0  0  0  0  0  0  0  0  0  0  0  0
  151.8947  144.7998  162.3256 H   0  0  0  0  0  0  0  0  0  0  0  0
  153.5664  142.9891  162.9220 H   0  0  0  0  0  0  0  0  0  0  0  0
  154.1486  141.2926  161.3056 H   0  0  0  0  0  0  0  0  0  0  0  0
  148.2051  142.8022  153.9904 H   0  0  0  0  0  0  0  0  0  0  0  0
  149.0083  141.7120  152.8677 H   0  0  0  0  0  0  0  0  0  0  0  0
  149.9046  142.4357  154.1840 H   0  0  0  0  0  0  0  0  0  0  0  0
  146.4447  141.1218  154.3586 H   0  0  0  0  0  0  0  0  0  0  0  0
  146.8129  139.4817  154.8459 H   0  0  0  0  0  0  0  0  0  0  0  0
  147.2439  140.0318  153.2349 H   0  0  0  0  0  0  0  0  0  0  0  0
  1  2  1  0  0  0  0
  1 21  1  0  0  0  0
  1 22  1  0  0  0  0
  1 23  1  0  0  0  0
  2  3  1  0  0  0  0
  3 18  1  0  0  0  0
  3  4  1  0  0  0  0
  3  5  1  0  0  0  0
  4 24  1  0  0  0  0
  4 25  1  0  0  0  0
  4 26  1  0  0  0  0
  5  6  1  0  0  0  0
  5 27  1  0  0  0  0
  5 28  1  0  0  0  0
  6  7  1  0  0  0  0
  6 18  1  0  0  0  0
  6 29  1  0  0  0  0
  7  8  1  0  0  0  0
  7 30  1  0  0  0  0
  8  9  2  0  0  0  0
  8 10  1  0  0  0  0
 10 11  1  0  0  0  0
 10 31  1  0  0  0  0
 10 32  1  0  0  0  0
 11 16  1  0  0  0  0
 11 12  1  0  0  0  0
 12 13  2  0  0  0  0
 12 33  1  0  0  0  0
 13 14  1  0  0  0  0
 13 34  1  0  0  0  0
 14 15  2  0  0  0  0
 14 35  1  0  0  0  0
 15 16  1  0  0  0  0
 15 36  1  0  0  0  0
 16 17  2  0  0  0  0
 18 19  1  0  0  0  0
 18 20  1  0  0  0  0
 19 37  1  0  0  0  0
 19 38  1  0  0  0  0
 19 39  1  0  0  0  0
 20 40  1  0  0  0  0
 20 41  1  0  0  0  0
 20 42  1  0  0  0  0
M  END
> <s_m_source_file>
AV-unprocessed.smi

> <i_m_source_file_index>
676

> <i_lp_mmshare_version>
43012

> <i_f3d_flags>
0

> <s_epik_input>
W0NIM11PW0NAQF0xKFtDSDNdKVtDSDJdW0NASF0oQzEoW0NIM10pW0NIM10pW05IXUMoPU8pW0NIMl1uMltjSF1bY0hdW2NIXVtjSF1jMj1P

> <s_epik_cmdline>
J2VwaWtfcHl0aG9uJywgJy1waCcsICc3LjAnLCAnLXRuJywgJzgnLCAnLW1hJywgJzIwMCcsICctbWV0YWxfYmluZGluZycsICctaW1hZScsICc8aW5maWxlLm1hZT4nLCAnLW9tYWUnLCAnPG91dGZpbGUubWFlPic=

> <r_lp_tautomer_probability>
1

> <r_epik_Ionization_Penalty>
4.09771e-07

> <r_epik_Ionization_Penalty_Charging>
3.90712e-07

> <r_epik_Ionization_Penalty_Neutral>
1.90591e-08

> <r_epik_State_Penalty>
-0

> <r_epik_Charging_Adjusted_Penalty>
3.90712e-07

> <i_epik_Tot_Q>
0

> <i_epik_Tot_abs_Q>
0

> <r_epik_Metal_State_Penalty>
-0

> <b_epik_Metal_Only>
0

> <s_lp_Force_Field>
OPLS_2005

> <r_lp_Energy>
33.6273

> <b_lp_Chiralities_Consistent>
1

> <s_lp_Variant>
AV-unprocessed.smi:676-1

> <Gold.Version>
5.8.1

> <Gold.Id.Protein>
6NUR|6NUR_protein|mol2

> <Gold.PLP.Fitness>
43.4271

> <Gold.PLP.PLP>
-38.0864

> <Gold.PLP.part.hbond>
-2.0000

> <Gold.PLP.part.metal>
0.0000

> <Gold.PLP.part.buried>
-0.3074

> <Gold.PLP.part.nonpolar>
-34.4059

> <Gold.PLP.part.repulsive>
0.0653

> <Gold.PLP.ligand.clash>
0.0000

> <Gold.PLP.ligand.torsion>
0.5141

> <Gold.PLP.Chemscore.Hbond>
1.9913

> <Gold.PLP.Chemscore.CHOScore>
0.0000

> <Gold.PLP.Chemscore.Metal>
0.0000

> <Gold.Chemscore.Hbonds>
donor molecule, donor type, donor heavy atom, donor atom, acceptor molecule, acceptor atom, score
      L1  H     7    30       P1  8028  0.91
      P1  H  7989  7998       L1     2  1.00

> <Gold.PLP.Chemscore.Internal.Correction>
0.3951

> <Gold.Rescore>
     Score         DG    S(hbond)    S(metal)    S(lipo)     H(rot)  DE(clash)    DE(int)     intcor
     12.80     -18.07       1.62        0.00      96.68       1.62       3.16       2.11       ----

> <Gold.Chemscore.Fitness>
12.8007

> <Gold.Chemscore.DG>
-18.0727

> <Gold.Chemscore.ZeroCoef>
-5.4800

> <Gold.Chemscore.Hbond>
1.6233

> <Gold.Chemscore.Metal>
0.0000

> <Gold.Chemscore.Lipo>
96.6815

> <Gold.Chemscore.Internal_Hbond>
0.0000

> <Gold.Chemscore.DEClash>
3.1634

> <Gold.Chemscore.DEInternal>
2.1086

> <Gold.Chemscore.Rot>
1.6175

> <Gold.Chemscore.Internal.Correction>
   9.000000E+99

> <Gold.Chemscore.Hbonds>
donor molecule, donor type, donor heavy atom, donor atom, acceptor molecule, acceptor atom, score
      L1  H     7    30       P1  8028  0.84
      P1  H  7989  7998       L1     2  0.30

> <Gold.Chemscore.Hbond.Weighted>
-5.4217

> <Gold.Chemscore.Metal.Weighted>
-0.0000

> <Gold.Chemscore.Lipo.Weighted>
-11.3117

> <Gold.Chemscore.Internal_Hbond.Weighted>
0.0000

> <Gold.Chemscore.DEClash.Weighted>
3.1634

> <Gold.Chemscore.DEInternal.Weighted>
2.1086

> <Gold.Chemscore.Rot.Weighted>
4.1408

> <Gold.Chemscore.Internal.Correction.Weighted>
   9.000000E+99

> <Gold.Protein.RotatedTorsions>
[ 6907 6896 6895 6894 ] final   27.71 input  -60.11 | X-H torsion
[ 7974 7965 7964 7962 ] final   77.11 input  175.53 | X-H torsion
[ 8008 7997 7996 7995 ] final  153.42 input   59.86 | X-H torsion
[ 10167 10162 10161 10158 ] final   32.81 input  -65.29 | X-H torsion
[ 10718 10713 10712 10709 ] final -123.46 input   66.30 | X-H torsion
[ 10763 10752 10751 10750 ] final  156.23 input  -60.55 | X-H torsion
[ 11005 11000 10999 10996 ] final   92.84 input  -57.11 | X-H torsion

> <Gold.Protein.ActiveResidues>
 VAL166  LYS551  ARG553  GLY616  TRP617  ASP618  TYR619  PRO620  LYS621  CYS622 
 ASP623  PHE694  ASN695  SER759  ASP760  ASP761  ALA762  ILE779  LEU786  VAL792 
 PHE793  MET794  SER795  GLU796  ALA797  LYS798  CYS799  TRP800  GLU811  SER814 

> <Gold.Protein.RotatedAtoms>
  152.0063  134.9901  160.0566 H   0  0  0  0  0  0  0  0  0  0  0  0  # atno 6907 bound_to 6896
  152.1472  133.4495  159.4804 H   0  0  0  0  0  0  0  0  0  0  0  0  # atno 6908 bound_to 6896
  150.6871  134.2152  159.4418 H   0  0  0  0  0  0  0  0  0  0  0  0  # atno 6909 bound_to 6896
  145.6942  139.2562  143.1742 H   0  0  0  0  0  0  0  0  0  0  0  0  # atno 7974 bound_to 7965
  156.2582  140.1994  156.6488 H   0  0  0  0  0  0  0  0  0  0  0  0  # atno 8008 bound_to 7997
  154.6553  140.0567  157.0026 H   0  0  0  0  0  0  0  0  0  0  0  0  # atno 8009 bound_to 7997
  155.1357  140.3238  155.4466 H   0  0  0  0  0  0  0  0  0  0  0  0  # atno 8010 bound_to 7997
  140.4465  144.1111  150.6183 H   0  0  0  0  0  0  0  0  0  0  0  0  # atno 10167 bound_to 10162
  156.1504  130.6530  150.9904 H   0  0  0  0  0  0  0  0  0  0  0  0  # atno 10718 bound_to 10713
  154.1809  135.2799  155.3052 H   0  0  0  0  0  0  0  0  0  0  0  0  # atno 10763 bound_to 10752
  154.6003  135.5532  153.7371 H   0  0  0  0  0  0  0  0  0  0  0  0  # atno 10764 bound_to 10752
  153.0138  135.6390  154.1949 H   0  0  0  0  0  0  0  0  0  0  0  0  # atno 10765 bound_to 10752
  139.8818  134.8756  156.3631 H   0  0  0  0  0  0  0  0  0  0  0  0  # atno 11005 bound_to 11000
  146.0855  140.7716  142.9621 LP  0  0  0  0  0  0  0  0  0  0  0  0  # atno 17320 bound_to 7965
  144.6987  140.3555  143.7174 LP  0  0  0  0  0  0  0  0  0  0  0  0  # atno 17321 bound_to 7965
  140.4257  143.2591  151.9659 LP  0  0  0  0  0  0  0  0  0  0  0  0  # atno 17342 bound_to 10162
  139.4793  144.5790  151.7964 LP  0  0  0  0  0  0  0  0  0  0  0  0  # atno 17343 bound_to 10162
  157.6652  131.0873  150.7746 LP  0  0  0  0  0  0  0  0  0  0  0  0  # atno 17370 bound_to 10713
  156.7814  130.4860  149.5400 LP  0  0  0  0  0  0  0  0  0  0  0  0  # atno 17371 bound_to 10713
  140.9516  133.7447  156.0279 LP  0  0  0  0  0  0  0  0  0  0  0  0  # atno 17394 bound_to 11000
  140.8099  134.3412  157.5415 LP  0  0  0  0  0  0  0  0  0  0  0  0  # atno 17395 bound_to 11000

$$$$
