AV-unprocessed.smi:1992|AV-procd|sdf|8069|dock7
  -GOLD-   2272010273D 1   1.00000     0.00000
 Structure written by MMmdl.
 46 47  0  0  0  0  0  0  0  0  2 V2000
  152.4995  140.2185  159.0882 C   0  0  0  0  0  0  0  0  0  0  0  0
  152.8309  139.9670  157.7269 O   0  0  0  0  0  0  0  0  0  0  0  0
  151.9383  139.2493  156.9575 C   0  0  0  0  0  0  0  0  0  0  0  0
  152.2456  139.0248  155.6010 C   0  0  0  0  0  0  0  0  0  0  0  0
  151.3369  138.2951  154.8120 C   0  0  0  0  0  0  0  0  0  0  0  0
  150.1555  137.8016  155.4008 C   0  0  0  0  0  0  0  0  0  0  0  0
  149.2478  137.0851  154.5754 N   0  0  0  0  0  0  0  0  0  0  0  0
  148.0723  136.5289  154.9143 C   0  0  0  0  0  0  0  0  0  0  0  0
  147.5846  136.5262  156.0439 O   0  0  0  0  0  0  0  0  0  0  0  0
  147.4936  135.9421  153.8574 N   0  0  0  0  0  0  0  0  0  0  0  0
  146.2120  135.2372  153.8724 C   0  0  0  0  0  0  0  0  0  0  0  0
  145.8239  134.6237  152.4893 C   0  0  0  0  0  0  0  0  0  0  0  0
  147.0323  133.9599  151.8796 N   0  3  0  0  0  0  0  0  0  0  0  0
  146.7843  133.3460  150.5500 C   0  0  0  0  0  0  0  0  0  0  0  0
  147.7935  133.0305  152.7522 C   0  0  0  0  0  0  0  0  0  0  0  0
  144.6023  133.6827  152.6565 C   0  0  0  0  0  0  0  0  0  0  0  0
  143.3859  134.6044  152.7929 C   0  0  0  0  0  0  0  0  0  0  0  0
  143.7601  135.8932  152.0479 C   0  0  0  0  0  0  0  0  0  0  0  0
  145.2139  135.7162  151.5850 C   0  0  0  0  0  0  0  0  0  0  0  0
  149.9318  138.0893  156.7696 C   0  0  0  0  0  0  0  0  0  0  0  0
  150.7981  138.7913  157.5308 N   0  0  0  0  0  0  0  0  0  0  0  0
  153.2990  140.7947  159.5537 H   0  0  0  0  0  0  0  0  0  0  0  0
  152.3909  139.2897  159.6503 H   0  0  0  0  0  0  0  0  0  0  0  0
  151.5800  140.7994  159.1744 H   0  0  0  0  0  0  0  0  0  0  0  0
  153.1602  139.4078  155.1731 H   0  0  0  0  0  0  0  0  0  0  0  0
  151.5499  138.1150  153.7684 H   0  0  0  0  0  0  0  0  0  0  0  0
  149.5558  136.9347  153.6260 H   0  0  0  0  0  0  0  0  0  0  0  0
  147.9643  136.0098  152.9668 H   0  0  0  0  0  0  0  0  0  0  0  0
  146.2034  134.4854  154.6625 H   0  0  0  0  0  0  0  0  0  0  0  0
  145.4616  135.9619  154.1866 H   0  0  0  0  0  0  0  0  0  0  0  0
  146.1375  132.4717  150.6292 H   0  0  0  0  0  0  0  0  0  0  0  0
  147.7231  133.0225  150.0992 H   0  0  0  0  0  0  0  0  0  0  0  0
  146.3294  134.0467  149.8518 H   0  0  0  0  0  0  0  0  0  0  0  0
  147.1571  132.2423  153.1550 H   0  0  0  0  0  0  0  0  0  0  0  0
  148.2696  133.5607  153.5767 H   0  0  0  0  0  0  0  0  0  0  0  0
  148.6008  132.5524  152.1963 H   0  0  0  0  0  0  0  0  0  0  0  0
  144.4180  133.0875  151.7638 H   0  0  0  0  0  0  0  0  0  0  0  0
  144.6953  132.9828  153.4857 H   0  0  0  0  0  0  0  0  0  0  0  0
  142.4843  134.1442  152.3871 H   0  0  0  0  0  0  0  0  0  0  0  0
  143.1914  134.8220  153.8438 H   0  0  0  0  0  0  0  0  0  0  0  0
  143.0982  136.0784  151.2011 H   0  0  0  0  0  0  0  0  0  0  0  0
  143.6737  136.7481  152.7196 H   0  0  0  0  0  0  0  0  0  0  0  0
  145.7667  136.6557  151.6153 H   0  0  0  0  0  0  0  0  0  0  0  0
  145.2061  135.3863  150.5456 H   0  0  0  0  0  0  0  0  0  0  0  0
  149.0344  137.7778  157.2807 H   0  0  0  0  0  0  0  0  0  0  0  0
  147.6759  134.7184  151.7053 H   0  0  0  0  0  0  0  0  0  0  0  0
  1  2  1  0  0  0  0
  1 22  1  0  0  0  0
  1 23  1  0  0  0  0
  1 24  1  0  0  0  0
  2  3  1  0  0  0  0
  3 21  1  0  0  0  0
  3  4  2  0  0  0  0
  4  5  1  0  0  0  0
  4 25  1  0  0  0  0
  5  6  2  0  0  0  0
  5 26  1  0  0  0  0
  6  7  1  0  0  0  0
  6 20  1  0  0  0  0
  7  8  1  0  0  0  0
  7 27  1  0  0  0  0
  8  9  2  0  0  0  0
  8 10  1  0  0  0  0
 10 11  1  0  0  0  0
 10 28  1  0  0  0  0
 11 12  1  0  0  0  0
 11 29  1  0  0  0  0
 11 30  1  0  0  0  0
 12 19  1  0  0  0  0
 12 13  1  0  0  0  0
 12 16  1  0  0  0  0
 13 14  1  0  0  0  0
 13 15  1  0  0  0  0
 13 46  1  0  0  0  0
 14 31  1  0  0  0  0
 14 32  1  0  0  0  0
 14 33  1  0  0  0  0
 15 34  1  0  0  0  0
 15 35  1  0  0  0  0
 15 36  1  0  0  0  0
 16 17  1  0  0  0  0
 16 37  1  0  0  0  0
 16 38  1  0  0  0  0
 17 18  1  0  0  0  0
 17 39  1  0  0  0  0
 17 40  1  0  0  0  0
 18 19  1  0  0  0  0
 18 41  1  0  0  0  0
 18 42  1  0  0  0  0
 19 43  1  0  0  0  0
 19 44  1  0  0  0  0
 20 21  2  0  0  0  0
 20 45  1  0  0  0  0
M  CHG  1  13   1
M  END
> <s_m_source_file>
AV-unprocessed.smi

> <i_m_source_file_index>
1992

> <i_lp_mmshare_version>
43012

> <i_f3d_flags>
0

> <s_epik_input>
W0NIM11PYzFbY0hdW2NIXWMoW2NIXW4xKVtOSF1DKD1PKVtOSF1bQ0gyXUMyKE4oW0NIM10pW0NIM10pW0NIMl1bQ0gyXVtDSDJdW0NIMl0y

> <s_epik_cmdline>
J2VwaWtfcHl0aG9uJywgJy1waCcsICc3LjAnLCAnLXRuJywgJzgnLCAnLW1hJywgJzIwMCcsICctbWV0YWxfYmluZGluZycsICctaW1hZScsICc8aW5maWxlLm1hZT4nLCAnLW9tYWUnLCAnPG91dGZpbGUubWFlPic=

> <r_lp_tautomer_probability>
1

> <r_epik_Ionization_Penalty>
0.00219675

> <r_epik_Ionization_Penalty_Charging>
0.00211816

> <r_epik_Ionization_Penalty_Neutral>
7.85887e-05

> <r_epik_State_Penalty>
0.00145254

> <r_epik_Charging_Adjusted_Penalty>
0.0035707

> <i_epik_Tot_Q>
1

> <i_epik_Tot_abs_Q>
1

> <r_epik_Metal_State_Penalty>
-0

> <b_epik_Metal_Only>
0

> <s_lp_Force_Field>
OPLS_2005

> <r_lp_Energy>
46.5796

> <b_lp_Chiralities_Consistent>
1

> <s_lp_Variant>
AV-unprocessed.smi:1992-1

> <Gold.Version>
5.8.1

> <Gold.Id.Protein>
6NUR|6NUR_protein|mol2

> <Gold.PLP.Fitness>
42.6899

> <Gold.PLP.PLP>
-28.6553

> <Gold.PLP.part.hbond>
-3.8904

> <Gold.PLP.part.metal>
0.0000

> <Gold.PLP.part.buried>
-3.8151

> <Gold.PLP.part.nonpolar>
-21.0271

> <Gold.PLP.part.repulsive>
0.0652

> <Gold.PLP.ligand.clash>
0.0000

> <Gold.PLP.ligand.torsion>
0.2986

> <Gold.PLP.Chemscore.Hbond>
4.8225

> <Gold.PLP.Chemscore.CHOScore>
0.0000

> <Gold.PLP.Chemscore.Metal>
0.0000

> <Gold.Chemscore.Hbonds>
donor molecule, donor type, donor heavy atom, donor atom, acceptor molecule, acceptor atom, score
      L1  H     7    27       P1  7948  0.88
      L1  H    10    28       P1  7948  0.91
      L1  H    13    46       P1  7948  2.00
      P1  H  7997  8008       L1     2  1.00

> <Gold.PLP.Chemscore.Internal.Correction>
0.1643

> <Gold.Rescore>
     Score         DG    S(hbond)    S(metal)    S(lipo)     H(rot)  DE(clash)    DE(int)     intcor
     19.11     -20.78       3.71        0.00      62.37       1.71       0.09       1.57       ----

> <Gold.Chemscore.Fitness>
19.1136

> <Gold.Chemscore.DG>
-20.7762

> <Gold.Chemscore.ZeroCoef>
-5.4800

> <Gold.Chemscore.Hbond>
3.7070

> <Gold.Chemscore.Metal>
0.0000

> <Gold.Chemscore.Lipo>
62.3745

> <Gold.Chemscore.Internal_Hbond>
0.0000

> <Gold.Chemscore.DEClash>
0.0939

> <Gold.Chemscore.DEInternal>
1.5688

> <Gold.Chemscore.Rot>
1.7122

> <Gold.Chemscore.Internal.Correction>
   9.000000E+99

> <Gold.Chemscore.Hbonds>
donor molecule, donor type, donor heavy atom, donor atom, acceptor molecule, acceptor atom, score
      L1  H     7    27       P1  7948  0.70
      L1  H    10    28       P1  7948  0.87
      L1  H    13    46       P1  7948  0.34
      P1  H  7997  8008       L1     2  0.53

> <Gold.Chemscore.Hbond.Weighted>
-12.3815

> <Gold.Chemscore.Metal.Weighted>
-0.0000

> <Gold.Chemscore.Lipo.Weighted>
-7.2978

> <Gold.Chemscore.Internal_Hbond.Weighted>
0.0000

> <Gold.Chemscore.DEClash.Weighted>
0.0939

> <Gold.Chemscore.DEInternal.Weighted>
1.5688

> <Gold.Chemscore.Rot.Weighted>
4.3831

> <Gold.Chemscore.Internal.Correction.Weighted>
   9.000000E+99

> <Gold.Protein.RotatedTorsions>
[ 6907 6896 6895 6894 ] final  155.42 input  -60.11 | X-H torsion
[ 7974 7965 7964 7962 ] final   47.89 input  175.53 | X-H torsion
[ 8008 7997 7996 7995 ] final  -63.14 input   59.86 | X-H torsion
[ 10167 10162 10161 10158 ] final   48.75 input  -65.29 | X-H torsion
[ 10718 10713 10712 10709 ] final -166.49 input   66.30 | X-H torsion
[ 10763 10752 10751 10750 ] final -131.19 input  -60.55 | X-H torsion
[ 11005 11000 10999 10996 ] final -106.32 input  -57.11 | X-H torsion

> <Gold.Protein.ActiveResidues>
 VAL166  LYS551  ARG553  GLY616  TRP617  ASP618  TYR619  PRO620  LYS621  CYS622 
 ASP623  PHE694  ASN695  SER759  ASP760  ASP761  ALA762  ILE779  LEU786  VAL792 
 PHE793  MET794  SER795  GLU796  ALA797  LYS798  CYS799  TRP800  GLU811  SER814 

> <Gold.Protein.RotatedAtoms>
  152.0445  133.3991  159.4350 H   0  0  0  0  0  0  0  0  0  0  0  0  # atno 6907 bound_to 6896
  150.6873  134.3378  159.4864 H   0  0  0  0  0  0  0  0  0  0  0  0  # atno 6908 bound_to 6896
  152.1180  134.9226  160.0615 H   0  0  0  0  0  0  0  0  0  0  0  0  # atno 6909 bound_to 6896
  146.0255  139.4701  142.9870 H   0  0  0  0  0  0  0  0  0  0  0  0  # atno 7974 bound_to 7965
  154.4538  140.0981  156.6696 H   0  0  0  0  0  0  0  0  0  0  0  0  # atno 8008 bound_to 7997
  155.5202  140.3478  155.4387 H   0  0  0  0  0  0  0  0  0  0  0  0  # atno 8009 bound_to 7997
  156.0736  140.1355  156.9788 H   0  0  0  0  0  0  0  0  0  0  0  0  # atno 8010 bound_to 7997
  140.2900  144.3057  150.6243 H   0  0  0  0  0  0  0  0  0  0  0  0  # atno 10167 bound_to 10162
  156.6687  130.9075  151.3040 H   0  0  0  0  0  0  0  0  0  0  0  0  # atno 10718 bound_to 10713
  154.8752  135.3838  154.4206 H   0  0  0  0  0  0  0  0  0  0  0  0  # atno 10763 bound_to 10752
  153.4910  135.7030  153.5889 H   0  0  0  0  0  0  0  0  0  0  0  0  # atno 10764 bound_to 10752
  153.4263  135.3889  155.2109 H   0  0  0  0  0  0  0  0  0  0  0  0  # atno 10765 bound_to 10752
  141.1010  133.8884  157.1842 H   0  0  0  0  0  0  0  0  0  0  0  0  # atno 11005 bound_to 11000
  145.7125  141.0101  143.1446 LP  0  0  0  0  0  0  0  0  0  0  0  0  # atno 17320 bound_to 7965
  144.7008  139.8774  143.7445 LP  0  0  0  0  0  0  0  0  0  0  0  0  # atno 17321 bound_to 7965
  140.5740  143.2178  151.7548 LP  0  0  0  0  0  0  0  0  0  0  0  0  # atno 17342 bound_to 10162
  139.4940  144.4176  152.0013 LP  0  0  0  0  0  0  0  0  0  0  0  0  # atno 17343 bound_to 10162
  157.7085  130.9412  150.1009 LP  0  0  0  0  0  0  0  0  0  0  0  0  # atno 17370 bound_to 10713
  156.1955  130.3657  149.8854 LP  0  0  0  0  0  0  0  0  0  0  0  0  # atno 17371 bound_to 10713
  139.9862  135.0081  156.9867 LP  0  0  0  0  0  0  0  0  0  0  0  0  # atno 17394 bound_to 11000
  140.5021  134.1086  155.7252 LP  0  0  0  0  0  0  0  0  0  0  0  0  # atno 17395 bound_to 11000

$$$$
