AV-unprocessed.smi:49|AV-procd|sdf|471|dock2
  -GOLD-   2262016333D 1   1.00000     0.00000
 Structure written by MMmdl.
 27 28  0  0  0  0  0  0  0  0  1 V2000
  152.3883  144.0359  159.1755 C   0  0  0  0  0  0  0  0  0  0  0  0
  151.3955  144.0783  158.0088 C   0  0  0  0  0  0  0  0  0  0  0  0
  151.2907  142.7697  157.2968 C   0  0  0  0  0  0  0  0  0  0  0  0
  151.8877  141.6436  157.6722 N   0  0  0  0  0  0  0  0  0  0  0  0
  151.4291  140.7902  156.7071 C   0  0  0  0  0  0  0  0  0  0  0  0
  151.8603  139.3561  156.6429 C   0  0  2  0  0  0  0  0  0  0  0  0
  152.5030  139.0054  155.2867 C   0  0  0  0  0  0  0  0  0  0  0  0
  151.5337  138.0082  154.6580 C   0  0  1  0  0  0  0  0  0  0  0  0
  152.1714  137.0879  153.7984 O   0  0  0  0  0  0  0  0  0  0  0  0
  150.9186  137.3340  155.8772 C   0  0  0  0  0  0  0  0  0  0  0  0
  150.7540  138.4116  156.8414 N   0  0  0  0  0  0  0  0  0  0  0  0
  150.6285  141.3302  155.7864 N   0  0  0  0  0  0  0  0  0  0  0  0
  150.5453  142.6114  156.2015 N   0  0  0  0  0  0  0  0  0  0  0  0
  152.6058  139.1953  157.4227 H   0  0  0  0  0  0  0  0  0  0  0  0
  150.7604  138.5441  154.1050 H   0  0  0  0  0  0  0  0  0  0  0  0
  149.9969  143.3119  155.7235 H   0  0  0  0  0  0  0  0  0  0  0  0
  152.4428  145.0036  159.6744 H   0  0  0  0  0  0  0  0  0  0  0  0
  153.3911  143.7819  158.8303 H   0  0  0  0  0  0  0  0  0  0  0  0
  152.0912  143.2942  159.9174 H   0  0  0  0  0  0  0  0  0  0  0  0
  150.4081  144.3672  158.3708 H   0  0  0  0  0  0  0  0  0  0  0  0
  151.6996  144.8421  157.2921 H   0  0  0  0  0  0  0  0  0  0  0  0
  152.6812  139.8718  154.6480 H   0  0  0  0  0  0  0  0  0  0  0  0
  153.4679  138.5287  155.4653 H   0  0  0  0  0  0  0  0  0  0  0  0
  151.6404  136.9845  153.0234 H   0  0  0  0  0  0  0  0  0  0  0  0
  149.9740  136.8376  155.6537 H   0  0  0  0  0  0  0  0  0  0  0  0
  151.6053  136.5859  156.2765 H   0  0  0  0  0  0  0  0  0  0  0  0
  150.7974  138.0222  157.7774 H   0  0  0  0  0  0  0  0  0  0  0  0
  1  2  1  0  0  0  0
  1 17  1  0  0  0  0
  1 18  1  0  0  0  0
  1 19  1  0  0  0  0
  2  3  1  0  0  0  0
  2 20  1  0  0  0  0
  2 21  1  0  0  0  0
  3 13  1  0  0  0  0
  3  4  2  0  0  0  0
  4  5  1  0  0  0  0
  5  6  1  0  0  0  0
  5 12  2  0  0  0  0
  6 14  1  0  0  0  0
  6 11  1  0  0  0  0
  6  7  1  0  0  0  0
  7  8  1  0  0  0  0
  7 22  1  0  0  0  0
  7 23  1  0  0  0  0
  8 15  1  0  0  0  0
  8  9  1  0  0  0  0
  8 10  1  0  0  0  0
  9 24  1  0  0  0  0
 10 11  1  0  0  0  0
 10 25  1  0  0  0  0
 10 26  1  0  0  0  0
 11 27  1  0  0  0  0
 12 13  1  0  0  0  0
 13 16  1  0  0  0  0
M  END
> <s_m_source_file>
AV-unprocessed.smi

> <i_m_source_file_index>
49

> <i_lp_mmshare_version>
43012

> <i_f3d_flags>
0

> <s_epik_input>
W0NIM11bQ0gyXWMxbmMobltuSF0xKVtDQEBIXTJbQ0gyXVtDQEBIXShbT0hdKVtDSDJdW05IXTI=

> <s_epik_cmdline>
J2VwaWtfcHl0aG9uJywgJy1waCcsICc3LjAnLCAnLXRuJywgJzgnLCAnLW1hJywgJzIwMCcsICctbWV0YWxfYmluZGluZycsICctaW1hZScsICc8aW5maWxlLm1hZT4nLCAnLW9tYWUnLCAnPG91dGZpbGUubWFlPic=

> <r_lp_tautomer_probability>
0.948284

> <r_epik_Ionization_Penalty>
1.6657

> <r_epik_Ionization_Penalty_Charging>
0

> <r_epik_Ionization_Penalty_Neutral>
1.6657

> <r_epik_State_Penalty>
2.01417

> <r_epik_Charging_Adjusted_Penalty>
2.01417

> <i_epik_Tot_Q>
0

> <i_epik_Tot_abs_Q>
0

> <r_epik_Metal_State_Penalty>
2.28256

> <b_epik_Metal_Only>
0

> <s_lp_Force_Field>
OPLS_2005

> <r_lp_Energy>
18.5163

> <b_lp_Chiralities_Consistent>
1

> <s_lp_Variant>
AV-unprocessed.smi:49-9

> <Gold.Version>
5.8.1

> <Gold.Id.Protein>
6NUR|6NUR_protein|mol2

> <Gold.PLP.Fitness>
34.8806

> <Gold.PLP.PLP>
-26.0390

> <Gold.PLP.part.hbond>
-3.2544

> <Gold.PLP.part.metal>
0.0000

> <Gold.PLP.part.buried>
-3.2072

> <Gold.PLP.part.nonpolar>
-19.5076

> <Gold.PLP.part.repulsive>
0.1841

> <Gold.PLP.ligand.clash>
0.0000

> <Gold.PLP.ligand.torsion>
0.0743

> <Gold.PLP.Chemscore.Hbond>
2.9920

> <Gold.PLP.Chemscore.CHOScore>
0.0000

> <Gold.PLP.Chemscore.Metal>
0.0000

> <Gold.Chemscore.Hbonds>
donor molecule, donor type, donor heavy atom, donor atom, acceptor molecule, acceptor atom, score
      L1  H     9    24       P1  7949  0.99
      L1  H    13    16       P1  8028  1.00
      P1  H 10752 10763       L1     9  0.99

> <Gold.PLP.Chemscore.Internal.Correction>
0.0142

> <Gold.Rescore>
     Score         DG    S(hbond)    S(metal)    S(lipo)     H(rot)  DE(clash)    DE(int)     intcor
     15.93     -16.00       2.78        0.00      51.12       1.86       0.00       0.06       ----

> <Gold.Chemscore.Fitness>
15.9319

> <Gold.Chemscore.DG>
-15.9988

> <Gold.Chemscore.ZeroCoef>
-5.4800

> <Gold.Chemscore.Hbond>
2.7809

> <Gold.Chemscore.Metal>
0.0000

> <Gold.Chemscore.Lipo>
51.1218

> <Gold.Chemscore.Internal_Hbond>
0.0000

> <Gold.Chemscore.DEClash>
0.0048

> <Gold.Chemscore.DEInternal>
0.0621

> <Gold.Chemscore.Rot>
1.8558

> <Gold.Chemscore.Internal.Correction>
   9.000000E+99

> <Gold.Chemscore.Hbonds>
donor molecule, donor type, donor heavy atom, donor atom, acceptor molecule, acceptor atom, score
      L1  H     9    24       P1  7949  0.90
      L1  H    13    16       P1  8028  0.98
      P1  H 10752 10763       L1     9  0.74

> <Gold.Chemscore.Hbond.Weighted>
-9.2882

> <Gold.Chemscore.Metal.Weighted>
-0.0000

> <Gold.Chemscore.Lipo.Weighted>
-5.9813

> <Gold.Chemscore.Internal_Hbond.Weighted>
0.0000

> <Gold.Chemscore.DEClash.Weighted>
0.0048

> <Gold.Chemscore.DEInternal.Weighted>
0.0621

> <Gold.Chemscore.Rot.Weighted>
4.7507

> <Gold.Chemscore.Internal.Correction.Weighted>
   9.000000E+99

> <Gold.Protein.RotatedTorsions>
[ 6907 6896 6895 6894 ] final   58.71 input  -60.11 | X-H torsion
[ 7974 7965 7964 7962 ] final  -34.74 input  175.53 | X-H torsion
[ 8008 7997 7996 7995 ] final   28.00 input   59.86 | X-H torsion
[ 10167 10162 10161 10158 ] final  -34.30 input  -65.29 | X-H torsion
[ 10718 10713 10712 10709 ] final -137.21 input   66.30 | X-H torsion
[ 10763 10752 10751 10750 ] final   32.92 input  -60.55 | X-H torsion
[ 11005 11000 10999 10996 ] final  167.85 input  -57.11 | X-H torsion

> <Gold.Protein.ActiveResidues>
 VAL166  LYS551  ARG553  GLY616  TRP617  ASP618  TYR619  PRO620  LYS621  CYS622 
 ASP623  PHE694  ASN695  SER759  ASP760  ASP761  ALA762  ILE779  LEU786  VAL792 
 PHE793  MET794  SER795  GLU796  ALA797  LYS798  CYS799  TRP800  GLU811  SER814 

> <Gold.Protein.RotatedAtoms>
  152.3849  134.6533  160.0129 H   0  0  0  0  0  0  0  0  0  0  0  0  # atno 6907 bound_to 6896
  151.6784  133.3307  159.3221 H   0  0  0  0  0  0  0  0  0  0  0  0  # atno 6908 bound_to 6896
  150.7777  134.6738  159.6451 H   0  0  0  0  0  0  0  0  0  0  0  0  # atno 6909 bound_to 6896
  146.0804  140.6075  142.8911 H   0  0  0  0  0  0  0  0  0  0  0  0  # atno 7974 bound_to 7965
  155.0518  140.3180  155.4689 H   0  0  0  0  0  0  0  0  0  0  0  0  # atno 8008 bound_to 7997
  156.2833  140.2144  156.5588 H   0  0  0  0  0  0  0  0  0  0  0  0  # atno 8009 bound_to 7997
  154.7204  140.0490  157.0622 H   0  0  0  0  0  0  0  0  0  0  0  0  # atno 8010 bound_to 7997
  140.7188  143.3558  151.2062 H   0  0  0  0  0  0  0  0  0  0  0  0  # atno 10167 bound_to 10162
  156.2856  130.7345  151.1356 H   0  0  0  0  0  0  0  0  0  0  0  0  # atno 10718 bound_to 10713
  153.0237  135.6400  154.1431 H   0  0  0  0  0  0  0  0  0  0  0  0  # atno 10763 bound_to 10752
  154.1162  135.2849  155.3220 H   0  0  0  0  0  0  0  0  0  0  0  0  # atno 10764 bound_to 10752
  154.6296  135.5497  153.7728 H   0  0  0  0  0  0  0  0  0  0  0  0  # atno 10765 bound_to 10752
  140.2811  134.7750  157.3758 H   0  0  0  0  0  0  0  0  0  0  0  0  # atno 11005 bound_to 11000
  144.7290  140.4612  143.6952 LP  0  0  0  0  0  0  0  0  0  0  0  0  # atno 17320 bound_to 7965
  145.6228  139.1526  143.3013 LP  0  0  0  0  0  0  0  0  0  0  0  0  # atno 17321 bound_to 7965
  139.7099  143.9394  152.2943 LP  0  0  0  0  0  0  0  0  0  0  0  0  # atno 17342 bound_to 10162
  139.9115  144.6853  150.8557 LP  0  0  0  0  0  0  0  0  0  0  0  0  # atno 17343 bound_to 10162
  157.7327  131.0597  150.5613 LP  0  0  0  0  0  0  0  0  0  0  0  0  # atno 17370 bound_to 10713
  156.5723  130.4283  149.6014 LP  0  0  0  0  0  0  0  0  0  0  0  0  # atno 17371 bound_to 10713
  140.1283  134.5129  155.8126 LP  0  0  0  0  0  0  0  0  0  0  0  0  # atno 17394 bound_to 11000
  141.2162  133.6780  156.6992 LP  0  0  0  0  0  0  0  0  0  0  0  0  # atno 17395 bound_to 11000

$$$$
