AV-unprocessed.smi:2478|AV-procd|sdf|9763|dock10
  -GOLD-   2272013403D 1   1.00000     0.00000
 Structure written by MMmdl.
 42 43  0  0  0  0  0  0  0  0  1 V2000
  147.4514  137.1197  162.9557 C   0  0  0  0  0  0  0  0  0  0  0  0
  147.1341  135.9719  161.9832 C   0  0  2  0  0  0  0  0  0  0  0  0
  147.1869  134.6129  162.7108 C   0  0  0  0  0  0  0  0  0  0  0  0
  146.8814  133.4448  161.7613 C   0  0  0  0  0  0  0  0  0  0  0  0
  147.8349  133.4497  160.5589 C   0  0  0  0  0  0  0  0  0  0  0  0
  147.7809  134.7939  159.8187 C   0  0  0  0  0  0  0  0  0  0  0  0
  148.0834  135.9770  160.7632 C   0  0  1  0  0  0  0  0  0  0  0  0
  147.8905  137.1998  160.0624 O   0  0  0  0  0  0  0  0  0  0  0  0
  148.6502  137.3170  158.8683 C   0  0  0  0  0  0  0  0  0  0  0  0
  147.8606  138.1592  157.8682 C   0  0  0  0  0  0  0  0  0  0  0  0
  146.6626  138.3637  158.0638 O   0  0  0  0  0  0  0  0  0  0  0  0
  148.5587  138.6303  156.8182 N   0  0  0  0  0  0  0  0  0  0  0  0
  148.0946  139.4115  155.7243 C   0  0  0  0  0  0  0  0  0  0  0  0
  146.7901  139.4677  155.3561 N   0  0  0  0  0  0  0  0  0  0  0  0
  146.4320  140.2238  154.2989 C   0  0  0  0  0  0  0  0  0  0  0  0
  147.3527  140.9665  153.5407 C   0  0  0  0  0  0  0  0  0  0  0  0
  148.7076  140.9187  153.9110 C   0  0  0  0  0  0  0  0  0  0  0  0
  149.0933  140.1378  155.0273 C   0  0  0  0  0  0  0  0  0  0  0  0
  150.4061  140.0348  155.4347 O   0  0  0  0  0  0  0  0  0  0  0  0
  151.0808  138.8755  155.2122 C   0  0  0  0  0  0  0  0  0  0  0  0
  151.0627  138.5825  153.8896 F   0  0  0  0  0  0  0  0  0  0  0  0
  152.3773  139.0032  155.5868 F   0  0  0  0  0  0  0  0  0  0  0  0
  148.4654  137.0376  163.3485 H   0  0  0  0  0  0  0  0  0  0  0  0
  146.7655  137.1167  163.8031 H   0  0  0  0  0  0  0  0  0  0  0  0
  147.3616  138.0908  162.4680 H   0  0  0  0  0  0  0  0  0  0  0  0
  146.1153  136.1168  161.6202 H   0  0  0  0  0  0  0  0  0  0  0  0
  148.1736  134.4699  163.1538 H   0  0  0  0  0  0  0  0  0  0  0  0
  146.4753  134.6046  163.5371 H   0  0  0  0  0  0  0  0  0  0  0  0
  146.9634  132.4983  162.2962 H   0  0  0  0  0  0  0  0  0  0  0  0
  145.8502  133.5152  161.4125 H   0  0  0  0  0  0  0  0  0  0  0  0
  148.8540  133.2579  160.8976 H   0  0  0  0  0  0  0  0  0  0  0  0
  147.5771  132.6394  159.8763 H   0  0  0  0  0  0  0  0  0  0  0  0
  148.4868  134.7735  158.9887 H   0  0  0  0  0  0  0  0  0  0  0  0
  146.7920  134.9242  159.3772 H   0  0  0  0  0  0  0  0  0  0  0  0
  149.1112  135.9055  161.1252 H   0  0  0  0  0  0  0  0  0  0  0  0
  149.6150  137.7809  159.0821 H   0  0  0  0  0  0  0  0  0  0  0  0
  148.8416  136.3406  158.4233 H   0  0  0  0  0  0  0  0  0  0  0  0
  149.5408  138.3978  156.7956 H   0  0  0  0  0  0  0  0  0  0  0  0
  145.3817  140.2323  154.0479 H   0  0  0  0  0  0  0  0  0  0  0  0
  147.0288  141.5547  152.6949 H   0  0  0  0  0  0  0  0  0  0  0  0
  149.4342  141.4733  153.3361 H   0  0  0  0  0  0  0  0  0  0  0  0
  150.6306  138.0377  155.7453 H   0  0  0  0  0  0  0  0  0  0  0  0
  1  2  1  0  0  0  0
  1 23  1  0  0  0  0
  1 24  1  0  0  0  0
  1 25  1  0  0  0  0
  2  7  1  0  0  0  0
  2  3  1  0  0  0  0
  2 26  1  0  0  0  0
  3  4  1  0  0  0  0
  3 27  1  0  0  0  0
  3 28  1  0  0  0  0
  4  5  1  0  0  0  0
  4 29  1  0  0  0  0
  4 30  1  0  0  0  0
  5  6  1  0  0  0  0
  5 31  1  0  0  0  0
  5 32  1  0  0  0  0
  6  7  1  0  0  0  0
  6 33  1  0  0  0  0
  6 34  1  0  0  0  0
  7  8  1  0  0  0  0
  7 35  1  0  0  0  0
  8  9  1  0  0  0  0
  9 10  1  0  0  0  0
  9 36  1  0  0  0  0
  9 37  1  0  0  0  0
 10 11  2  0  0  0  0
 10 12  1  0  0  0  0
 12 13  1  0  0  0  0
 12 38  1  0  0  0  0
 13 18  1  0  0  0  0
 13 14  2  0  0  0  0
 14 15  1  0  0  0  0
 15 16  2  0  0  0  0
 15 39  1  0  0  0  0
 16 17  1  0  0  0  0
 16 40  1  0  0  0  0
 17 18  2  0  0  0  0
 17 41  1  0  0  0  0
 18 19  1  0  0  0  0
 19 20  1  0  0  0  0
 20 21  1  0  0  0  0
 20 22  1  0  0  0  0
 20 42  1  0  0  0  0
M  END
> <s_m_source_file>
AV-unprocessed.smi

> <i_m_source_file_index>
2478

> <i_lp_mmshare_version>
43012

> <i_f3d_flags>
0

> <s_epik_input>
W0NIM11bQ0BASF0xW0NIMl1bQ0gyXVtDSDJdW0NIMl1bQ0BIXTFPW0NIMl1DKD1PKVtOSF1jMm5bY0hdW2NIXVtjSF1jMk9bQ0hdKEYpRg==

> <s_epik_cmdline>
J2VwaWtfcHl0aG9uJywgJy1waCcsICc3LjAnLCAnLXRuJywgJzgnLCAnLW1hJywgJzIwMCcsICctbWV0YWxfYmluZGluZycsICctaW1hZScsICc8aW5maWxlLm1hZT4nLCAnLW9tYWUnLCAnPG91dGZpbGUubWFlPic=

> <r_lp_tautomer_probability>
1

> <r_epik_Ionization_Penalty>
6.06012e-05

> <r_epik_Ionization_Penalty_Charging>
0

> <r_epik_Ionization_Penalty_Neutral>
6.06012e-05

> <r_epik_State_Penalty>
-0

> <r_epik_Charging_Adjusted_Penalty>
0

> <i_epik_Tot_Q>
0

> <i_epik_Tot_abs_Q>
0

> <r_epik_Metal_State_Penalty>
-0

> <b_epik_Metal_Only>
0

> <s_lp_Force_Field>
OPLS_2005

> <r_lp_Energy>
14.0723

> <b_lp_Chiralities_Consistent>
1

> <s_lp_Variant>
AV-unprocessed.smi:2478-1

> <Gold.Version>
5.8.1

> <Gold.Id.Protein>
6NUR|6NUR_protein|mol2

> <Gold.PLP.Fitness>
43.8597

> <Gold.PLP.PLP>
-39.6006

> <Gold.PLP.part.hbond>
-2.4875

> <Gold.PLP.part.metal>
0.0000

> <Gold.PLP.part.buried>
-2.3006

> <Gold.PLP.part.nonpolar>
-34.3474

> <Gold.PLP.part.repulsive>
0.0844

> <Gold.PLP.ligand.clash>
0.0000

> <Gold.PLP.ligand.torsion>
0.6359

> <Gold.PLP.Chemscore.Hbond>
0.8756

> <Gold.PLP.Chemscore.CHOScore>
0.9411

> <Gold.PLP.Chemscore.Metal>
0.0000

> <Gold.Chemscore.Hbonds>
donor molecule, donor type, donor heavy atom, donor atom, acceptor molecule, acceptor atom, score
      P1  H  6931  6943       L1     8  0.02
      P1  H  6934  6947       L1     8  0.59
      L1  C    15    39       P1 10175  1.00

> <Gold.PLP.Chemscore.Internal.Correction>
0.0809

> <Gold.Rescore>
     Score         DG    S(hbond)    S(metal)    S(lipo)     H(rot)  DE(clash)    DE(int)     intcor
     11.62     -13.81       0.73        0.00      90.84       1.85       0.17       2.02       ----

> <Gold.Chemscore.Fitness>
11.6240

> <Gold.Chemscore.DG>
-13.8076

> <Gold.Chemscore.ZeroCoef>
-5.4800

> <Gold.Chemscore.Hbond>
0.7276

> <Gold.Chemscore.Metal>
0.0000

> <Gold.Chemscore.Lipo>
90.8433

> <Gold.Chemscore.Internal_Hbond>
0.0000

> <Gold.Chemscore.DEClash>
0.1686

> <Gold.Chemscore.DEInternal>
2.0150

> <Gold.Chemscore.Rot>
1.8481

> <Gold.Chemscore.Internal.Correction>
   9.000000E+99

> <Gold.Chemscore.Hbonds>
donor molecule, donor type, donor heavy atom, donor atom, acceptor molecule, acceptor atom, score
      P1  H  6934  6947       L1     8  0.54

> <Gold.Chemscore.Hbond.Weighted>
-2.4300

> <Gold.Chemscore.Metal.Weighted>
-0.0000

> <Gold.Chemscore.Lipo.Weighted>
-10.6287

> <Gold.Chemscore.Internal_Hbond.Weighted>
0.0000

> <Gold.Chemscore.DEClash.Weighted>
0.1686

> <Gold.Chemscore.DEInternal.Weighted>
2.0150

> <Gold.Chemscore.Rot.Weighted>
4.7311

> <Gold.Chemscore.Internal.Correction.Weighted>
   9.000000E+99

> <Gold.Protein.RotatedTorsions>
[ 6907 6896 6895 6894 ] final  -28.34 input  -60.11 | X-H torsion
[ 7974 7965 7964 7962 ] final  -67.12 input  175.53 | X-H torsion
[ 8008 7997 7996 7995 ] final -134.42 input   59.86 | X-H torsion
[ 10167 10162 10161 10158 ] final  -78.11 input  -65.29 | X-H torsion
[ 10718 10713 10712 10709 ] final -173.25 input   66.30 | X-H torsion
[ 10763 10752 10751 10750 ] final   57.30 input  -60.55 | X-H torsion
[ 11005 11000 10999 10996 ] final -143.04 input  -57.11 | X-H torsion

> <Gold.Protein.ActiveResidues>
 VAL166  LYS551  ARG553  GLY616  TRP617  ASP618  TYR619  PRO620  LYS621  CYS622 
 ASP623  PHE694  ASN695  SER759  ASP760  ASP761  ALA762  ILE779  LEU786  VAL792 
 PHE793  MET794  SER795  GLU796  ALA797  LYS798  CYS799  TRP800  GLU811  SER814 

> <Gold.Protein.RotatedAtoms>
  151.1344  135.0147  159.8596 H   0  0  0  0  0  0  0  0  0  0  0  0  # atno 6907 bound_to 6896
  152.5451  134.1572  159.8553 H   0  0  0  0  0  0  0  0  0  0  0  0  # atno 6908 bound_to 6896
  151.1642  133.4780  159.2627 H   0  0  0  0  0  0  0  0  0  0  0  0  # atno 6909 bound_to 6896
  145.7331  140.8988  143.0569 H   0  0  0  0  0  0  0  0  0  0  0  0  # atno 7974 bound_to 7965
  155.3617  140.0483  157.3046 H   0  0  0  0  0  0  0  0  0  0  0  0  # atno 8008 bound_to 7997
  154.5174  140.2213  155.9003 H   0  0  0  0  0  0  0  0  0  0  0  0  # atno 8009 bound_to 7997
  156.1652  140.3108  155.8882 H   0  0  0  0  0  0  0  0  0  0  0  0  # atno 8010 bound_to 7997
  140.4711  143.2426  151.8203 H   0  0  0  0  0  0  0  0  0  0  0  0  # atno 10167 bound_to 10162
  156.7675  130.9436  151.3119 H   0  0  0  0  0  0  0  0  0  0  0  0  # atno 10718 bound_to 10713
  152.9847  135.5646  154.5368 H   0  0  0  0  0  0  0  0  0  0  0  0  # atno 10763 bound_to 10752
  154.4830  135.2789  155.1558 H   0  0  0  0  0  0  0  0  0  0  0  0  # atno 10764 bound_to 10752
  154.3059  135.6298  153.5498 H   0  0  0  0  0  0  0  0  0  0  0  0  # atno 10765 bound_to 10752
  140.8165  134.2682  157.4919 H   0  0  0  0  0  0  0  0  0  0  0  0  # atno 11005 bound_to 11000
  144.6888  139.9358  143.7473 LP  0  0  0  0  0  0  0  0  0  0  0  0  # atno 17320 bound_to 7965
  146.0518  139.3519  143.0634 LP  0  0  0  0  0  0  0  0  0  0  0  0  # atno 17321 bound_to 7965
  139.4818  144.4890  151.9209 LP  0  0  0  0  0  0  0  0  0  0  0  0  # atno 17342 bound_to 10162
  140.3976  144.2535  150.5895 LP  0  0  0  0  0  0  0  0  0  0  0  0  # atno 17343 bound_to 10162
  157.6706  130.9048  150.0032 LP  0  0  0  0  0  0  0  0  0  0  0  0  # atno 17370 bound_to 10713
  156.1299  130.3643  149.9749 LP  0  0  0  0  0  0  0  0  0  0  0  0  # atno 17371 bound_to 10713
  139.8711  134.9512  156.4077 LP  0  0  0  0  0  0  0  0  0  0  0  0  # atno 17394 bound_to 11000
  140.9144  133.7689  155.9830 LP  0  0  0  0  0  0  0  0  0  0  0  0  # atno 17395 bound_to 11000

$$$$
