AV-unprocessed.smi:90|AV-procd|sdf|831|dock2
  -GOLD-   2262017253D 1   1.00000     0.00000
 Structure written by MMmdl.
 64 67  0  0  0  0  0  0  0  0  2 V2000
  149.5184  140.5786  155.6495 C   0  0  0  0  0  0  0  0  0  0  0  0
  150.2734  140.4695  156.8947 N   0  0  0  0  0  0  0  0  0  0  0  0
  151.3243  141.4379  157.2003 C   0  0  0  0  0  0  0  0  0  0  0  0
  151.4520  141.7229  158.7090 C   0  0  0  0  0  0  0  0  0  0  0  0
  152.5220  142.7950  159.0518 C   0  0  2  0  0  0  0  0  0  0  0  0
  153.1205  142.6433  160.4702 C   0  0  0  0  0  0  0  0  0  0  0  0
  152.1112  143.0243  161.5652 C   0  0  0  0  0  0  0  0  0  0  0  0
  151.5741  144.4410  161.3192 C   0  0  0  0  0  0  0  0  0  0  0  0
  151.0156  144.5909  159.8940 C   0  0  0  0  0  0  0  0  0  0  0  0
  152.0309  144.1957  158.8843 N   0  3  2  0  0  0  0  0  0  0  0  0
  151.6426  144.5554  157.5014 C   0  0  0  0  0  0  0  0  0  0  0  0
  150.3072  139.2375  157.4660 C   0  0  0  0  0  0  0  0  0  0  0  0
  151.5204  138.7577  157.8455 N   0  0  0  0  0  0  0  0  0  0  0  0
  151.6257  137.5522  158.4107 C   0  0  0  0  0  0  0  0  0  0  0  0
  150.6600  136.6774  158.6933 N   0  0  0  0  0  0  0  0  0  0  0  0
  149.4355  137.1548  158.3311 C   0  0  0  0  0  0  0  0  0  0  0  0
  149.1695  138.4105  157.7114 C   0  0  0  0  0  0  0  0  0  0  0  0
  147.8014  138.5423  157.4978 N   0  0  0  0  0  0  0  0  0  0  0  0
  147.2940  137.4290  157.9493 C   0  0  0  0  0  0  0  0  0  0  0  0
  148.2015  136.5456  158.4878 N   0  0  0  0  0  0  0  0  0  0  0  0
  147.9083  135.2406  159.0662 C   0  0  0  0  0  0  0  0  0  0  0  0
  147.0721  135.2766  160.3810 C   0  0  0  0  0  0  0  0  0  0  0  0
  145.6453  135.8333  160.1086 C   0  0  0  0  0  0  0  0  0  0  0  0
  144.9258  135.0364  159.1894 O   0  0  0  0  0  0  0  0  0  0  0  0
  146.9645  133.8503  160.9795 C   0  0  0  0  0  0  0  0  0  0  0  0
  146.4491  133.8377  162.4310 C   0  0  0  0  0  0  0  0  0  0  0  0
  147.2646  134.6655  163.2492 O   0  0  0  0  0  0  0  0  0  0  0  0
  147.2520  136.0261  162.8383 C   0  0  0  0  0  0  0  0  0  0  0  0
  147.8299  136.1453  161.4173 C   0  0  0  0  0  0  0  0  0  0  0  0
  149.4411  139.6173  155.1395 H   0  0  0  0  0  0  0  0  0  0  0  0
  149.9979  141.2725  154.9594 H   0  0  0  0  0  0  0  0  0  0  0  0
  148.5105  140.9404  155.8531 H   0  0  0  0  0  0  0  0  0  0  0  0
  152.2757  141.0470  156.8438 H   0  0  0  0  0  0  0  0  0  0  0  0
  151.1275  142.3609  156.6538 H   0  0  0  0  0  0  0  0  0  0  0  0
  150.4813  142.0561  159.0707 H   0  0  0  0  0  0  0  0  0  0  0  0
  151.6594  140.7896  159.2316 H   0  0  0  0  0  0  0  0  0  0  0  0
  153.3426  142.6683  158.3439 H   0  0  0  0  0  0  0  0  0  0  0  0
  153.4973  141.6356  160.6395 H   0  0  0  0  0  0  0  0  0  0  0  0
  153.9911  143.2950  160.5563 H   0  0  0  0  0  0  0  0  0  0  0  0
  151.2870  142.3108  161.5847 H   0  0  0  0  0  0  0  0  0  0  0  0
  152.5857  142.9711  162.5455 H   0  0  0  0  0  0  0  0  0  0  0  0
  150.8015  144.6801  162.0508 H   0  0  0  0  0  0  0  0  0  0  0  0
  152.3769  145.1635  161.4716 H   0  0  0  0  0  0  0  0  0  0  0  0
  150.1102  143.9958  159.7717 H   0  0  0  0  0  0  0  0  0  0  0  0
  150.7282  145.6303  159.7304 H   0  0  0  0  0  0  0  0  0  0  0  0
  150.6921  144.1039  157.2172 H   0  0  0  0  0  0  0  0  0  0  0  0
  152.4045  144.2411  156.7875 H   0  0  0  0  0  0  0  0  0  0  0  0
  151.5337  145.6367  157.4127 H   0  0  0  0  0  0  0  0  0  0  0  0
  152.6267  137.2451  158.6759 H   0  0  0  0  0  0  0  0  0  0  0  0
  146.2337  137.2255  157.9122 H   0  0  0  0  0  0  0  0  0  0  0  0
  147.3840  134.6587  158.3068 H   0  0  0  0  0  0  0  0  0  0  0  0
  148.8525  134.7201  159.2300 H   0  0  0  0  0  0  0  0  0  0  0  0
  145.0711  135.8984  161.0330 H   0  0  0  0  0  0  0  0  0  0  0  0
  145.6772  136.8442  159.7059 H   0  0  0  0  0  0  0  0  0  0  0  0
  144.0215  135.3106  159.1968 H   0  0  0  0  0  0  0  0  0  0  0  0
  146.3169  133.2229  160.3665 H   0  0  0  0  0  0  0  0  0  0  0  0
  147.9475  133.3779  160.9668 H   0  0  0  0  0  0  0  0  0  0  0  0
  145.4084  134.1565  162.4919 H   0  0  0  0  0  0  0  0  0  0  0  0
  146.4834  132.8218  162.8247 H   0  0  0  0  0  0  0  0  0  0  0  0
  146.2418  136.4323  162.8977 H   0  0  0  0  0  0  0  0  0  0  0  0
  147.8609  136.6032  163.5343 H   0  0  0  0  0  0  0  0  0  0  0  0
  148.8749  135.8346  161.4550 H   0  0  0  0  0  0  0  0  0  0  0  0
  147.8455  137.1915  161.1105 H   0  0  0  0  0  0  0  0  0  0  0  0
  152.8357  144.7732  159.0823 H   0  0  0  0  0  0  0  0  0  0  0  0
  1  2  1  0  0  0  0
  1 30  1  0  0  0  0
  1 31  1  0  0  0  0
  1 32  1  0  0  0  0
  2  3  1  0  0  0  0
  2 12  1  0  0  0  0
  3  4  1  0  0  0  0
  3 33  1  0  0  0  0
  3 34  1  0  0  0  0
  4  5  1  0  0  0  0
  4 35  1  0  0  0  0
  4 36  1  0  0  0  0
  5 10  1  0  0  0  0
  5  6  1  0  0  0  0
  5 37  1  0  0  0  0
  6  7  1  0  0  0  0
  6 38  1  0  0  0  0
  6 39  1  0  0  0  0
  7  8  1  0  0  0  0
  7 40  1  0  0  0  0
  7 41  1  0  0  0  0
  8  9  1  0  0  0  0
  8 42  1  0  0  0  0
  8 43  1  0  0  0  0
  9 10  1  0  0  0  0
  9 44  1  0  0  0  0
  9 45  1  0  0  0  0
 10 11  1  0  0  0  0
 10 64  1  0  0  0  0
 11 46  1  0  0  0  0
 11 47  1  0  0  0  0
 11 48  1  0  0  0  0
 12 17  1  0  0  0  0
 12 13  2  0  0  0  0
 13 14  1  0  0  0  0
 14 15  2  0  0  0  0
 14 49  1  0  0  0  0
 15 16  1  0  0  0  0
 16 20  1  0  0  0  0
 16 17  2  0  0  0  0
 17 18  1  0  0  0  0
 18 19  2  0  0  0  0
 19 20  1  0  0  0  0
 19 50  1  0  0  0  0
 20 21  1  0  0  0  0
 21 22  1  0  0  0  0
 21 51  1  0  0  0  0
 21 52  1  0  0  0  0
 22 29  1  0  0  0  0
 22 23  1  0  0  0  0
 22 25  1  0  0  0  0
 23 24  1  0  0  0  0
 23 53  1  0  0  0  0
 23 54  1  0  0  0  0
 24 55  1  0  0  0  0
 25 26  1  0  0  0  0
 25 56  1  0  0  0  0
 25 57  1  0  0  0  0
 26 27  1  0  0  0  0
 26 58  1  0  0  0  0
 26 59  1  0  0  0  0
 27 28  1  0  0  0  0
 28 29  1  0  0  0  0
 28 60  1  0  0  0  0
 28 61  1  0  0  0  0
 29 62  1  0  0  0  0
 29 63  1  0  0  0  0
M  CHG  1  10   1
M  END
> <s_m_source_file>
AV-unprocessed.smi

> <i_m_source_file_index>
90

> <i_lp_mmshare_version>
43012

> <i_f3d_flags>
0

> <s_epik_input>
W0NIM11OMVtDSDJdW0NIMl1bQ0gyXVtDSDJdW0NASF0xW0NIMl1bQ0gyXU4oW0NIM10pYyhuW2NIXW4yKWMoYzIzKW5bY0hdbjNbQ0gyXUM0KFtDSDJdW09IXSlbQ0gyXVtDSDJdT1tDSDJdW0NIMl00

> <s_epik_cmdline>
J2VwaWtfcHl0aG9uJywgJy1waCcsICc3LjAnLCAnLXRuJywgJzgnLCAnLW1hJywgJzIwMCcsICctbWV0YWxfYmluZGluZycsICctaW1hZScsICc8aW5maWxlLm1hZT4nLCAnLW9tYWUnLCAnPG91dGZpbGUubWFlPic=

> <r_lp_tautomer_probability>
1

> <r_epik_Ionization_Penalty>
0.00234895

> <r_epik_Ionization_Penalty_Charging>
0.00106647

> <r_epik_Ionization_Penalty_Neutral>
0.00128248

> <r_epik_State_Penalty>
-0

> <r_epik_Charging_Adjusted_Penalty>
0.00106647

> <i_epik_Tot_Q>
1

> <i_epik_Tot_abs_Q>
1

> <r_epik_Metal_State_Penalty>
-0

> <b_epik_Metal_Only>
0

> <s_lp_Force_Field>
OPLS_2005

> <r_lp_Energy>
45.3808

> <b_lp_Chiralities_Consistent>
1

> <s_lp_Variant>
AV-unprocessed.smi:90-3

> <Gold.Version>
5.8.1

> <Gold.Id.Protein>
6NUR|6NUR_protein|mol2

> <Gold.PLP.Fitness>
57.7924

> <Gold.PLP.PLP>
-56.8667

> <Gold.PLP.part.hbond>
-2.4666

> <Gold.PLP.part.metal>
0.0000

> <Gold.PLP.part.buried>
-9.2899

> <Gold.PLP.part.nonpolar>
-45.4593

> <Gold.PLP.part.repulsive>
0.0316

> <Gold.PLP.ligand.clash>
0.0000

> <Gold.PLP.ligand.torsion>
1.0769

> <Gold.PLP.Chemscore.Hbond>
0.8000

> <Gold.PLP.Chemscore.CHOScore>
0.0000

> <Gold.PLP.Chemscore.Metal>
0.0000

> <Gold.Chemscore.Hbonds>
donor molecule, donor type, donor heavy atom, donor atom, acceptor molecule, acceptor atom, score
      P1  H  6896  6908       L1    15  0.65

> <Gold.PLP.Chemscore.Internal.Correction>
0.6795

> <Gold.Rescore>
     Score         DG    S(hbond)    S(metal)    S(lipo)     H(rot)  DE(clash)    DE(int)     intcor
     16.28     -17.35       0.84        0.00     137.27       2.73       0.05       1.02       ----

> <Gold.Chemscore.Fitness>
16.2780

> <Gold.Chemscore.DG>
-17.3502

> <Gold.Chemscore.ZeroCoef>
-5.4800

> <Gold.Chemscore.Hbond>
0.8416

> <Gold.Chemscore.Metal>
0.0000

> <Gold.Chemscore.Lipo>
137.2680

> <Gold.Chemscore.Internal_Hbond>
0.0000

> <Gold.Chemscore.DEClash>
0.0534

> <Gold.Chemscore.DEInternal>
1.0189

> <Gold.Chemscore.Rot>
2.7347

> <Gold.Chemscore.Internal.Correction>
   9.000000E+99

> <Gold.Chemscore.Hbonds>
donor molecule, donor type, donor heavy atom, donor atom, acceptor molecule, acceptor atom, score
      P1  H  6896  6908       L1    15  0.61

> <Gold.Chemscore.Hbond.Weighted>
-2.8108

> <Gold.Chemscore.Metal.Weighted>
-0.0000

> <Gold.Chemscore.Lipo.Weighted>
-16.0604

> <Gold.Chemscore.Internal_Hbond.Weighted>
0.0000

> <Gold.Chemscore.DEClash.Weighted>
0.0534

> <Gold.Chemscore.DEInternal.Weighted>
1.0189

> <Gold.Chemscore.Rot.Weighted>
7.0009

> <Gold.Chemscore.Internal.Correction.Weighted>
   9.000000E+99

> <Gold.Protein.RotatedTorsions>
[ 6907 6896 6895 6894 ] final -175.12 input  -60.11 | X-H torsion
[ 7974 7965 7964 7962 ] final  115.89 input  175.53 | X-H torsion
[ 8008 7997 7996 7995 ] final  -49.17 input   59.86 | X-H torsion
[ 10167 10162 10161 10158 ] final -113.33 input  -65.29 | X-H torsion
[ 10718 10713 10712 10709 ] final   44.81 input   66.30 | X-H torsion
[ 10763 10752 10751 10750 ] final   -5.24 input  -60.55 | X-H torsion
[ 11005 11000 10999 10996 ] final -139.73 input  -57.11 | X-H torsion

> <Gold.Protein.ActiveResidues>
 VAL166  LYS551  ARG553  GLY616  TRP617  ASP618  TYR619  PRO620  LYS621  CYS622 
 ASP623  PHE694  ASN695  SER759  ASP760  ASP761  ALA762  ILE779  LEU786  VAL792 
 PHE793  MET794  SER795  GLU796  ALA797  LYS798  CYS799  TRP800  GLU811  SER814 

> <Gold.Protein.RotatedAtoms>
  151.5834  133.3375  159.3012 H   0  0  0  0  0  0  0  0  0  0  0  0  # atno 6907 bound_to 6896
  150.8300  134.7553  159.6857 H   0  0  0  0  0  0  0  0  0  0  0  0  # atno 6908 bound_to 6896
  152.4385  134.5644  159.9955 H   0  0  0  0  0  0  0  0  0  0  0  0  # atno 6909 bound_to 6896
  145.1864  139.3023  143.4391 H   0  0  0  0  0  0  0  0  0  0  0  0  # atno 7974 bound_to 7965
  154.4040  140.1303  156.4459 H   0  0  0  0  0  0  0  0  0  0  0  0  # atno 8008 bound_to 7997
  155.7414  140.3490  155.5086 H   0  0  0  0  0  0  0  0  0  0  0  0  # atno 8009 bound_to 7997
  155.9036  140.1023  157.1322 H   0  0  0  0  0  0  0  0  0  0  0  0  # atno 8010 bound_to 7997
  140.1130  143.4511  152.1740 H   0  0  0  0  0  0  0  0  0  0  0  0  # atno 10167 bound_to 10162
  157.4308  130.8024  149.7602 H   0  0  0  0  0  0  0  0  0  0  0  0  # atno 10718 bound_to 10713
  153.3958  135.7003  153.6461 H   0  0  0  0  0  0  0  0  0  0  0  0  # atno 10763 bound_to 10752
  153.5015  135.3651  155.2542 H   0  0  0  0  0  0  0  0  0  0  0  0  # atno 10764 bound_to 10752
  154.8706  135.4113  154.3284 H   0  0  0  0  0  0  0  0  0  0  0  0  # atno 10765 bound_to 10752
  140.8492  134.2307  157.4769 H   0  0  0  0  0  0  0  0  0  0  0  0  # atno 11005 bound_to 11000
  146.3444  140.2061  142.8589 LP  0  0  0  0  0  0  0  0  0  0  0  0  # atno 17320 bound_to 7965
  145.0085  140.8693  143.5238 LP  0  0  0  0  0  0  0  0  0  0  0  0  # atno 17321 bound_to 7965
  139.5609  144.7405  151.4158 LP  0  0  0  0  0  0  0  0  0  0  0  0  # atno 17342 bound_to 10162
  140.6915  143.7850  150.7262 LP  0  0  0  0  0  0  0  0  0  0  0  0  # atno 17343 bound_to 10162
  155.9913  130.3939  150.2992 LP  0  0  0  0  0  0  0  0  0  0  0  0  # atno 17370 bound_to 10713
  157.1149  131.0231  151.3033 LP  0  0  0  0  0  0  0  0  0  0  0  0  # atno 17371 bound_to 10713
  139.8704  134.9674  156.4597 LP  0  0  0  0  0  0  0  0  0  0  0  0  # atno 17394 bound_to 11000
  140.8809  133.7918  155.9466 LP  0  0  0  0  0  0  0  0  0  0  0  0  # atno 17395 bound_to 11000

$$$$
