AV-unprocessed.smi:1224|AV-procd|sdf|5132|dock6
  -GOLD-   22720 4193D 1   1.00000     0.00000
 Structure written by MMmdl.
 43 45  0  0  0  0  0  0  0  0  1 V2000
  152.6940  143.2425  161.8170 C   0  0  0  0  0  0  0  0  0  0  0  0
  152.1938  142.8736  160.4314 C   0  0  0  0  0  0  0  0  0  0  0  0
  152.3438  141.5434  159.9782 C   0  0  0  0  0  0  0  0  0  0  0  0
  151.8915  141.1595  158.6967 C   0  0  0  0  0  0  0  0  0  0  0  0
  151.9347  139.9317  158.0582 N   0  0  0  0  0  0  0  0  0  0  0  0
  151.3589  140.2153  156.8933 C   0  0  0  0  0  0  0  0  0  0  0  0
  150.9482  141.4837  156.7013 N   0  0  0  0  0  0  0  0  0  0  0  0
  150.3004  142.0284  155.5213 C   0  0  0  0  0  0  0  0  0  0  0  0
  149.3154  141.0341  154.8778 C   0  0  2  0  0  0  0  0  0  0  0  0
  150.0436  140.1105  154.0923 O   0  0  0  0  0  0  0  0  0  0  0  0
  148.2987  141.7462  153.9708 C   0  0  0  0  0  0  0  0  0  0  0  0
  147.2226  142.3474  154.7529 N   0  0  0  0  0  0  0  0  0  0  0  0
  145.9614  142.4346  154.0260 C   0  0  0  0  0  0  0  0  0  0  0  0
  145.0567  143.4682  154.6080 C   0  0  0  0  0  0  0  0  0  0  0  0
  144.6187  143.5657  155.9044 C   0  0  0  0  0  0  0  0  0  0  0  0
  143.7625  144.6843  156.1249 C   0  0  0  0  0  0  0  0  0  0  0  0
  143.5578  145.4271  154.9925 C   0  0  0  0  0  0  0  0  0  0  0  0
  144.4165  144.7641  153.6290 S   0  0  0  0  0  0  0  0  0  0  0  0
  151.2806  142.1509  157.8746 C   0  0  0  0  0  0  0  0  0  0  0  0
  151.1250  143.4773  158.3141 C   0  0  0  0  0  0  0  0  0  0  0  0
  151.5823  143.8438  159.5972 C   0  0  0  0  0  0  0  0  0  0  0  0
  151.4080  145.2782  160.0636 C   0  0  0  0  0  0  0  0  0  0  0  0
  153.1401  142.3847  162.3210 H   0  0  0  0  0  0  0  0  0  0  0  0
  151.8726  143.6041  162.4358 H   0  0  0  0  0  0  0  0  0  0  0  0
  153.4519  144.0235  161.7543 H   0  0  0  0  0  0  0  0  0  0  0  0
  152.8086  140.8036  160.6132 H   0  0  0  0  0  0  0  0  0  0  0  0
  151.2252  139.4572  156.1353 H   0  0  0  0  0  0  0  0  0  0  0  0
  149.7785  142.9401  155.8142 H   0  0  0  0  0  0  0  0  0  0  0  0
  151.0679  142.3252  154.8048 H   0  0  0  0  0  0  0  0  0  0  0  0
  148.7931  140.4913  155.6676 H   0  0  0  0  0  0  0  0  0  0  0  0
  149.5989  140.0104  153.2642 H   0  0  0  0  0  0  0  0  0  0  0  0
  148.8111  142.5341  153.4171 H   0  0  0  0  0  0  0  0  0  0  0  0
  147.9003  141.0559  153.2256 H   0  0  0  0  0  0  0  0  0  0  0  0
  147.5048  143.2773  155.0463 H   0  0  0  0  0  0  0  0  0  0  0  0
  146.1523  142.6627  152.9766 H   0  0  0  0  0  0  0  0  0  0  0  0
  145.4559  141.4685  154.0431 H   0  0  0  0  0  0  0  0  0  0  0  0
  144.8829  142.8794  156.6952 H   0  0  0  0  0  0  0  0  0  0  0  0
  143.3340  144.9022  157.0919 H   0  0  0  0  0  0  0  0  0  0  0  0
  142.9588  146.3183  154.8764 H   0  0  0  0  0  0  0  0  0  0  0  0
  150.6562  144.2051  157.6684 H   0  0  0  0  0  0  0  0  0  0  0  0
  150.9392  145.8925  159.2944 H   0  0  0  0  0  0  0  0  0  0  0  0
  152.3739  145.7231  160.3039 H   0  0  0  0  0  0  0  0  0  0  0  0
  150.7778  145.3157  160.9524 H   0  0  0  0  0  0  0  0  0  0  0  0
  1  2  1  0  0  0  0
  1 23  1  0  0  0  0
  1 24  1  0  0  0  0
  1 25  1  0  0  0  0
  2 21  1  0  0  0  0
  2  3  2  0  0  0  0
  3  4  1  0  0  0  0
  3 26  1  0  0  0  0
  4 19  2  0  0  0  0
  4  5  1  0  0  0  0
  5  6  2  0  0  0  0
  6  7  1  0  0  0  0
  6 27  1  0  0  0  0
  7  8  1  0  0  0  0
  7 19  1  0  0  0  0
  8  9  1  0  0  0  0
  8 28  1  0  0  0  0
  8 29  1  0  0  0  0
  9 10  1  0  0  0  0
  9 11  1  0  0  0  0
  9 30  1  0  0  0  0
 10 31  1  0  0  0  0
 11 12  1  0  0  0  0
 11 32  1  0  0  0  0
 11 33  1  0  0  0  0
 12 13  1  0  0  0  0
 12 34  1  0  0  0  0
 13 14  1  0  0  0  0
 13 35  1  0  0  0  0
 13 36  1  0  0  0  0
 14 18  1  0  0  0  0
 14 15  2  0  0  0  0
 15 16  1  0  0  0  0
 15 37  1  0  0  0  0
 16 17  2  0  0  0  0
 16 38  1  0  0  0  0
 17 18  1  0  0  0  0
 17 39  1  0  0  0  0
 19 20  1  0  0  0  0
 20 21  2  0  0  0  0
 20 40  1  0  0  0  0
 21 22  1  0  0  0  0
 22 41  1  0  0  0  0
 22 42  1  0  0  0  0
 22 43  1  0  0  0  0
M  END
> <s_m_source_file>
AV-unprocessed.smi

> <i_m_source_file_index>
1224

> <i_lp_mmshare_version>
43012

> <i_f3d_flags>
0

> <s_epik_input>
W0NIM11jKFtjSF0xKWMoW0NIM10pW2NIXWMoYzEyKW4oW2NIXW4yKVtDSDJdW0NASF0oW09IXSlbQ0gyXVtOSF1bQ0gyXWMzW2NIXVtjSF1bY0hdczM=

> <s_epik_cmdline>
J2VwaWtfcHl0aG9uJywgJy1waCcsICc3LjAnLCAnLXRuJywgJzgnLCAnLW1hJywgJzIwMCcsICctbWV0YWxfYmluZGluZycsICctaW1hZScsICc8aW5maWxlLm1hZT4nLCAnLW9tYWUnLCAnPG91dGZpbGUubWFlPic=

> <r_epik_Ionization_Penalty>
1.55566

> <r_epik_Ionization_Penalty_Charging>
0

> <r_epik_Ionization_Penalty_Neutral>
1.55566

> <r_epik_State_Penalty>
1.63945

> <r_epik_Charging_Adjusted_Penalty>
1.63945

> <i_epik_Tot_Q>
0

> <i_epik_Tot_abs_Q>
0

> <r_epik_Metal_State_Penalty>
1.52326

> <b_epik_Metal_Only>
0

> <s_lp_Force_Field>
OPLS_2005

> <r_lp_Energy>
13.7285

> <b_lp_Chiralities_Consistent>
1

> <s_lp_Variant>
AV-unprocessed.smi:1224-5

> <Gold.Version>
5.8.1

> <Gold.Id.Protein>
6NUR|6NUR_protein|mol2

> <Gold.PLP.Fitness>
60.8874

> <Gold.PLP.PLP>
-54.0255

> <Gold.PLP.part.hbond>
-3.0000

> <Gold.PLP.part.metal>
0.0000

> <Gold.PLP.part.buried>
-4.5461

> <Gold.PLP.part.nonpolar>
-45.4485

> <Gold.PLP.part.repulsive>
0.0000

> <Gold.PLP.ligand.clash>
0.0000

> <Gold.PLP.ligand.torsion>
0.9977

> <Gold.PLP.Chemscore.Hbond>
2.9188

> <Gold.PLP.Chemscore.CHOScore>
0.0000

> <Gold.PLP.Chemscore.Metal>
0.0000

> <Gold.Chemscore.Hbonds>
donor molecule, donor type, donor heavy atom, donor atom, acceptor molecule, acceptor atom, score
      L1  H    10    31       P1  7957  0.81
      L1  H    12    34       P1  8028  0.96
      P1  H  7989  7998       L1    10  0.84

> <Gold.PLP.Chemscore.Internal.Correction>
0.1011

> <Gold.Rescore>
     Score         DG    S(hbond)    S(metal)    S(lipo)     H(rot)  DE(clash)    DE(int)     intcor
     18.41     -21.21       1.46        0.00     143.60       2.32       1.67       1.13       ----

> <Gold.Chemscore.Fitness>
18.4053

> <Gold.Chemscore.DG>
-21.2093

> <Gold.Chemscore.ZeroCoef>
-5.4800

> <Gold.Chemscore.Hbond>
1.4552

> <Gold.Chemscore.Metal>
0.0000

> <Gold.Chemscore.Lipo>
143.6018

> <Gold.Chemscore.Internal_Hbond>
0.0000

> <Gold.Chemscore.DEClash>
1.6743

> <Gold.Chemscore.DEInternal>
1.1297

> <Gold.Chemscore.Rot>
2.3173

> <Gold.Chemscore.Internal.Correction>
   9.000000E+99

> <Gold.Chemscore.Hbonds>
donor molecule, donor type, donor heavy atom, donor atom, acceptor molecule, acceptor atom, score
      L1  H    10    31       P1  7957  0.76
      L1  H    12    34       P1  8028  0.23
      P1  H  7989  7998       L1    10  0.13

> <Gold.Chemscore.Hbond.Weighted>
-4.8603

> <Gold.Chemscore.Metal.Weighted>
-0.0000

> <Gold.Chemscore.Lipo.Weighted>
-16.8014

> <Gold.Chemscore.Internal_Hbond.Weighted>
0.0000

> <Gold.Chemscore.DEClash.Weighted>
1.6743

> <Gold.Chemscore.DEInternal.Weighted>
1.1297

> <Gold.Chemscore.Rot.Weighted>
5.9324

> <Gold.Chemscore.Internal.Correction.Weighted>
   9.000000E+99

> <Gold.Protein.RotatedTorsions>
[ 6907 6896 6895 6894 ] final  -76.72 input  -60.11 | X-H torsion
[ 7974 7965 7964 7962 ] final  -53.01 input  175.53 | X-H torsion
[ 8008 7997 7996 7995 ] final   77.75 input   59.86 | X-H torsion
[ 10167 10162 10161 10158 ] final  149.06 input  -65.29 | X-H torsion
[ 10718 10713 10712 10709 ] final   60.87 input   66.30 | X-H torsion
[ 10763 10752 10751 10750 ] final  168.35 input  -60.55 | X-H torsion
[ 11005 11000 10999 10996 ] final  126.74 input  -57.11 | X-H torsion

> <Gold.Protein.ActiveResidues>
 VAL166  LYS551  ARG553  GLY616  TRP617  ASP618  TYR619  PRO620  LYS621  CYS622 
 ASP623  PHE694  ASN695  SER759  ASP760  ASP761  ALA762  ILE779  LEU786  VAL792 
 PHE793  MET794  SER795  GLU796  ALA797  LYS798  CYS799  TRP800  GLU811  SER814 

> <Gold.Protein.RotatedAtoms>
  150.7019  134.4530  159.5344 H   0  0  0  0  0  0  0  0  0  0  0  0  # atno 6907 bound_to 6896
  152.2219  134.8402  160.0494 H   0  0  0  0  0  0  0  0  0  0  0  0  # atno 6908 bound_to 6896
  151.9249  133.3560  159.3947 H   0  0  0  0  0  0  0  0  0  0  0  0  # atno 6909 bound_to 6896
  145.9015  140.7990  142.9740 H   0  0  0  0  0  0  0  0  0  0  0  0  # atno 7974 bound_to 7965
  155.8461  140.3460  155.5663 H   0  0  0  0  0  0  0  0  0  0  0  0  # atno 8008 bound_to 7997
  155.8089  140.0896  157.1935 H   0  0  0  0  0  0  0  0  0  0  0  0  # atno 8009 bound_to 7997
  154.4006  140.1451  156.3350 H   0  0  0  0  0  0  0  0  0  0  0  0  # atno 8010 bound_to 7997
  139.4866  144.5631  151.7194 H   0  0  0  0  0  0  0  0  0  0  0  0  # atno 10167 bound_to 10162
  157.5785  130.8963  149.9390 H   0  0  0  0  0  0  0  0  0  0  0  0  # atno 10718 bound_to 10713
  154.3672  135.2753  155.2286 H   0  0  0  0  0  0  0  0  0  0  0  0  # atno 10763 bound_to 10752
  154.4449  135.5945  153.6157 H   0  0  0  0  0  0  0  0  0  0  0  0  # atno 10764 bound_to 10752
  152.9840  135.6028  154.3899 H   0  0  0  0  0  0  0  0  0  0  0  0  # atno 10765 bound_to 10752
  139.9472  134.9628  156.8752 H   0  0  0  0  0  0  0  0  0  0  0  0  # atno 11005 bound_to 11000
  144.6736  140.1685  143.7416 LP  0  0  0  0  0  0  0  0  0  0  0  0  # atno 17320 bound_to 7965
  145.8784  139.2310  143.1619 LP  0  0  0  0  0  0  0  0  0  0  0  0  # atno 17321 bound_to 7965
  140.5205  144.0887  150.6021 LP  0  0  0  0  0  0  0  0  0  0  0  0  # atno 17342 bound_to 10162
  140.3843  143.2786  152.0134 LP  0  0  0  0  0  0  0  0  0  0  0  0  # atno 17343 bound_to 10162
  156.0830  130.3671  150.0542 LP  0  0  0  0  0  0  0  0  0  0  0  0  # atno 17370 bound_to 10713
  156.8684  130.9516  151.3611 LP  0  0  0  0  0  0  0  0  0  0  0  0  # atno 17371 bound_to 10713
  140.5807  134.0355  155.7463 LP  0  0  0  0  0  0  0  0  0  0  0  0  # atno 17394 bound_to 11000
  141.1125  133.9593  157.2884 LP  0  0  0  0  0  0  0  0  0  0  0  0  # atno 17395 bound_to 11000

$$$$
