AV-unprocessed.smi:51|AV-procd|sdf|502|dock1
  -GOLD-   2262016373D 1   1.00000     0.00000
 Structure written by MMmdl.
 25 26  0  0  0  0  0  0  0  0  2 V2000
  152.4969  139.8167  156.7893 O   0  0  0  0  0  0  0  0  0  0  0  0
  151.6814  140.1696  155.9099 C   0  0  0  0  0  0  0  0  0  0  0  0
  151.3749  139.5028  154.8961 O   0  5  0  0  0  0  0  0  0  0  0  0
  150.9974  141.5286  156.1067 C   0  0  1  0  0  0  0  0  0  0  0  0
  149.7961  141.7414  155.1647 C   0  0  0  0  0  0  0  0  0  0  0  0
  148.5823  141.4928  156.0580 C   0  0  2  0  0  0  0  0  0  0  0  0
  147.4303  142.1746  155.6084 O   0  0  0  0  0  0  0  0  0  0  0  0
  149.0659  141.9964  157.4160 C   0  0  0  0  0  0  0  0  0  0  0  0
  150.4707  141.6196  157.4696 N   0  0  0  0  0  0  0  0  0  0  0  0
  151.2472  142.3276  158.3977 C   0  0  0  0  0  0  0  0  0  0  0  0
  151.4909  143.7025  158.1986 C   0  0  0  0  0  0  0  0  0  0  0  0
  152.2849  144.3473  159.1677 C   0  0  0  0  0  0  0  0  0  0  0  0
  152.7933  143.6831  160.2281 N   0  0  0  0  0  0  0  0  0  0  0  0
  152.5028  142.3827  160.3161 C   0  0  0  0  0  0  0  0  0  0  0  0
  151.7649  141.6691  159.4626 N   0  0  0  0  0  0  0  0  0  0  0  0
  151.7384  142.3062  155.9157 H   0  0  0  0  0  0  0  0  0  0  0  0
  149.8003  142.7747  154.8146 H   0  0  0  0  0  0  0  0  0  0  0  0
  149.8039  141.0997  154.2820 H   0  0  0  0  0  0  0  0  0  0  0  0
  148.3759  140.4226  156.1111 H   0  0  0  0  0  0  0  0  0  0  0  0
  147.6693  143.0682  155.4163 H   0  0  0  0  0  0  0  0  0  0  0  0
  148.9587  143.0806  157.4882 H   0  0  0  0  0  0  0  0  0  0  0  0
  148.5056  141.5455  158.2357 H   0  0  0  0  0  0  0  0  0  0  0  0
  151.0837  144.2358  157.3520 H   0  0  0  0  0  0  0  0  0  0  0  0
  152.5139  145.3997  159.0908 H   0  0  0  0  0  0  0  0  0  0  0  0
  152.9103  141.8519  161.1637 H   0  0  0  0  0  0  0  0  0  0  0  0
  1  2  2  0  0  0  0
  2  3  1  0  0  0  0
  2  4  1  0  0  0  0
  4  9  1  0  0  0  0
  4  5  1  0  0  0  0
  4 16  1  0  0  0  0
  5  6  1  0  0  0  0
  5 17  1  0  0  0  0
  5 18  1  0  0  0  0
  6  7  1  0  0  0  0
  6  8  1  0  0  0  0
  6 19  1  0  0  0  0
  7 20  1  0  0  0  0
  8  9  1  0  0  0  0
  8 21  1  0  0  0  0
  8 22  1  0  0  0  0
  9 10  1  0  0  0  0
 10 15  1  0  0  0  0
 10 11  2  0  0  0  0
 11 12  1  0  0  0  0
 11 23  1  0  0  0  0
 12 13  2  0  0  0  0
 12 24  1  0  0  0  0
 13 14  1  0  0  0  0
 14 15  2  0  0  0  0
 14 25  1  0  0  0  0
M  CHG  1   3  -1
M  END
> <s_m_source_file>
AV-unprocessed.smi

> <i_m_source_file_index>
51

> <i_lp_mmshare_version>
43012

> <i_f3d_flags>
0

> <s_epik_input>
Tz1DKFtPSF0pW0NAQEhdMVtDSDJdW0NAQEhdKFtPSF0pW0NIMl1OMWMyW2NIXVtjSF1uW2NIXW4y

> <s_epik_cmdline>
J2VwaWtfcHl0aG9uJywgJy1waCcsICc3LjAnLCAnLXRuJywgJzgnLCAnLW1hJywgJzIwMCcsICctbWV0YWxfYmluZGluZycsICctaW1hZScsICc8aW5maWxlLm1hZT4nLCAnLW9tYWUnLCAnPG91dGZpbGUubWFlPic=

> <r_lp_tautomer_probability>
1

> <r_epik_Ionization_Penalty>
0.225251

> <r_epik_Ionization_Penalty_Charging>
0.000248217

> <r_epik_Ionization_Penalty_Neutral>
0.225002

> <r_epik_State_Penalty>
0.21284

> <r_epik_Charging_Adjusted_Penalty>
0.213088

> <i_epik_Tot_Q>
-1

> <i_epik_Tot_abs_Q>
1

> <r_epik_Metal_State_Penalty>
0.154111

> <b_epik_Metal_Only>
0

> <s_lp_Force_Field>
OPLS_2005

> <r_lp_Energy>
17.6831

> <b_lp_Chiralities_Consistent>
1

> <s_lp_Variant>
AV-unprocessed.smi:51-4

> <Gold.Version>
5.8.1

> <Gold.Id.Protein>
6NUR|6NUR_protein|mol2

> <Gold.PLP.Fitness>
40.2655

> <Gold.PLP.PLP>
-28.8034

> <Gold.PLP.part.hbond>
-3.0000

> <Gold.PLP.part.metal>
0.0000

> <Gold.PLP.part.buried>
-3.2592

> <Gold.PLP.part.nonpolar>
-21.8874

> <Gold.PLP.part.repulsive>
0.1136

> <Gold.PLP.ligand.clash>
0.0000

> <Gold.PLP.ligand.torsion>
0.3099

> <Gold.PLP.Chemscore.Hbond>
3.9913

> <Gold.PLP.Chemscore.CHOScore>
0.0000

> <Gold.PLP.Chemscore.Metal>
0.0000

> <Gold.Chemscore.Hbonds>
donor molecule, donor type, donor heavy atom, donor atom, acceptor molecule, acceptor atom, score
      L1  H     7    20       P1  8028  0.99
      P1  H  7989  7998       L1     3  1.00
      P1  H  7997  8009       L1     1  2.00

> <Gold.PLP.Chemscore.Internal.Correction>
0.1082

> <Gold.Rescore>
     Score         DG    S(hbond)    S(metal)    S(lipo)     H(rot)  DE(clash)    DE(int)     intcor
     11.77     -12.34       2.01        0.00      50.14       2.23       0.26       0.31       ----

> <Gold.Chemscore.Fitness>
11.7722

> <Gold.Chemscore.DG>
-12.3438

> <Gold.Chemscore.ZeroCoef>
-5.4800

> <Gold.Chemscore.Hbond>
2.0068

> <Gold.Chemscore.Metal>
0.0000

> <Gold.Chemscore.Lipo>
50.1362

> <Gold.Chemscore.Internal_Hbond>
0.0000

> <Gold.Chemscore.DEClash>
0.2620

> <Gold.Chemscore.DEInternal>
0.3096

> <Gold.Chemscore.Rot>
2.2285

> <Gold.Chemscore.Internal.Correction>
   9.000000E+99

> <Gold.Chemscore.Hbonds>
donor molecule, donor type, donor heavy atom, donor atom, acceptor molecule, acceptor atom, score
      L1  H     7    20       P1  8028  0.40
      P1  H  7989  7998       L1     3  0.25
      P1  H  7997  8009       L1     1  0.90

> <Gold.Chemscore.Hbond.Weighted>
-6.7028

> <Gold.Chemscore.Metal.Weighted>
-0.0000

> <Gold.Chemscore.Lipo.Weighted>
-5.8659

> <Gold.Chemscore.Internal_Hbond.Weighted>
0.0000

> <Gold.Chemscore.DEClash.Weighted>
0.2620

> <Gold.Chemscore.DEInternal.Weighted>
0.3096

> <Gold.Chemscore.Rot.Weighted>
5.7050

> <Gold.Chemscore.Internal.Correction.Weighted>
   9.000000E+99

> <Gold.Protein.RotatedTorsions>
[ 6907 6896 6895 6894 ] final   11.16 input  -60.11 | X-H torsion
[ 7974 7965 7964 7962 ] final  122.03 input  175.53 | X-H torsion
[ 8008 7997 7996 7995 ] final -162.87 input   59.86 | X-H torsion
[ 10167 10162 10161 10158 ] final  -11.19 input  -65.29 | X-H torsion
[ 10718 10713 10712 10709 ] final  -37.23 input   66.30 | X-H torsion
[ 10763 10752 10751 10750 ] final -176.76 input  -60.55 | X-H torsion
[ 11005 11000 10999 10996 ] final   24.59 input  -57.11 | X-H torsion

> <Gold.Protein.ActiveResidues>
 VAL166  LYS551  ARG553  GLY616  TRP617  ASP618  TYR619  PRO620  LYS621  CYS622 
 ASP623  PHE694  ASN695  SER759  ASP760  ASP761  ALA762  ILE779  LEU786  VAL792 
 PHE793  MET794  SER795  GLU796  ALA797  LYS798  CYS799  TRP800  GLU811  SER814 

> <Gold.Protein.RotatedAtoms>
  151.7498  135.0835  160.0328 H   0  0  0  0  0  0  0  0  0  0  0  0  # atno 6907 bound_to 6896
  152.3424  133.6078  159.5894 H   0  0  0  0  0  0  0  0  0  0  0  0  # atno 6908 bound_to 6896
  150.7487  133.9618  159.3559 H   0  0  0  0  0  0  0  0  0  0  0  0  # atno 6909 bound_to 6896
  145.1123  139.3444  143.4757 H   0  0  0  0  0  0  0  0  0  0  0  0  # atno 7974 bound_to 7965
  155.8131  140.0908  157.1892 H   0  0  0  0  0  0  0  0  0  0  0  0  # atno 8008 bound_to 7997
  154.3979  140.1451  156.3470 H   0  0  0  0  0  0  0  0  0  0  0  0  # atno 8009 bound_to 7997
  155.8344  140.3441  155.5595 H   0  0  0  0  0  0  0  0  0  0  0  0  # atno 8010 bound_to 7997
  140.7132  143.5666  150.9137 H   0  0  0  0  0  0  0  0  0  0  0  0  # atno 10167 bound_to 10162
  156.3177  130.4261  149.7990 H   0  0  0  0  0  0  0  0  0  0  0  0  # atno 10718 bound_to 10713
  154.5684  135.2826  155.0851 H   0  0  0  0  0  0  0  0  0  0  0  0  # atno 10763 bound_to 10752
  154.2233  135.6387  153.5155 H   0  0  0  0  0  0  0  0  0  0  0  0  # atno 10764 bound_to 10752
  153.0050  135.5519  154.6300 H   0  0  0  0  0  0  0  0  0  0  0  0  # atno 10765 bound_to 10752
  140.3571  134.2166  155.7675 H   0  0  0  0  0  0  0  0  0  0  0  0  # atno 11005 bound_to 11000
  146.3525  140.1047  142.8606 LP  0  0  0  0  0  0  0  0  0  0  0  0  # atno 17320 bound_to 7965
  145.0833  140.9236  143.4812 LP  0  0  0  0  0  0  0  0  0  0  0  0  # atno 17321 bound_to 7965
  139.9392  143.6402  152.3058 LP  0  0  0  0  0  0  0  0  0  0  0  0  # atno 17342 bound_to 10162
  139.6880  144.7649  151.1489 LP  0  0  0  0  0  0  0  0  0  0  0  0  # atno 17343 bound_to 10162
  156.5310  130.8257  151.3237 LP  0  0  0  0  0  0  0  0  0  0  0  0  # atno 17370 bound_to 10713
  157.7405  130.9851  150.2382 LP  0  0  0  0  0  0  0  0  0  0  0  0  # atno 17371 bound_to 10713
  141.1995  133.8009  157.0532 LP  0  0  0  0  0  0  0  0  0  0  0  0  # atno 17394 bound_to 11000
  140.0656  134.9730  157.1381 LP  0  0  0  0  0  0  0  0  0  0  0  0  # atno 17395 bound_to 11000

$$$$
