AV-unprocessed.smi:1451|AV-procd|sdf|5901|dock7
  -GOLD-   22720 5583D 1   1.00000     0.00000
 Structure written by MMmdl.
 47 48  0  0  0  0  0  0  0  0  2 V2000
  146.7764  133.3931  150.8589 C   0  0  0  0  0  0  0  0  0  0  0  0
  145.6964  133.5781  151.9395 C   0  0  2  0  0  0  0  0  0  0  0  0
  144.5548  134.5086  151.4906 C   0  0  0  0  0  0  0  0  0  0  0  0
  145.0039  135.9765  151.4809 C   0  0  0  0  0  0  0  0  0  0  0  0
  145.6068  136.3782  152.8361 C   0  0  0  0  0  0  0  0  0  0  0  0
  146.7288  135.4795  153.2120 N   0  3  1  0  0  0  0  0  0  0  0  0
  147.4273  135.9382  154.4394 C   0  0  0  0  0  0  0  0  0  0  0  0
  146.5389  135.8448  155.6910 C   0  0  0  0  0  0  0  0  0  0  0  0
  147.3126  136.1472  156.8876 N   0  0  0  0  0  0  0  0  0  0  0  0
  146.8122  136.1721  158.1311 C   0  0  0  0  0  0  0  0  0  0  0  0
  145.6355  135.9159  158.3886 O   0  0  0  0  0  0  0  0  0  0  0  0
  147.8005  136.5196  159.2529 C   0  0  0  0  0  0  0  0  0  0  0  0
  147.6212  135.6851  160.4528 N   0  0  0  0  0  0  0  0  0  0  0  0
  147.6867  134.2880  160.2829 C   0  0  0  0  0  0  0  0  0  0  0  0
  147.5224  133.4180  161.2979 C   0  0  0  0  0  0  0  0  0  0  0  0
  147.6493  131.9164  161.0929 C   0  0  0  0  0  0  0  0  0  0  0  0
  148.6505  131.4156  161.8171 F   0  0  0  0  0  0  0  0  0  0  0  0
  146.5230  131.3115  161.4670 F   0  0  0  0  0  0  0  0  0  0  0  0
  147.8725  131.6230  159.8112 F   0  0  0  0  0  0  0  0  0  0  0  0
  147.3028  133.9922  162.6111 C   0  0  0  0  0  0  0  0  0  0  0  0
  147.2444  135.3260  162.7921 C   0  0  0  0  0  0  0  0  0  0  0  0
  147.4009  136.2587  161.6739 C   0  0  0  0  0  0  0  0  0  0  0  0
  147.3381  137.4793  161.8241 O   0  0  0  0  0  0  0  0  0  0  0  0
  146.2898  134.0585  153.2801 C   0  0  0  0  0  0  0  0  0  0  0  0
  147.2911  134.3265  150.6317 H   0  0  0  0  0  0  0  0  0  0  0  0
  146.3421  133.0200  149.9310 H   0  0  0  0  0  0  0  0  0  0  0  0
  147.5296  132.6726  151.1791 H   0  0  0  0  0  0  0  0  0  0  0  0
  145.2622  132.5919  152.1095 H   0  0  0  0  0  0  0  0  0  0  0  0
  144.1863  134.2176  150.5062 H   0  0  0  0  0  0  0  0  0  0  0  0
  143.7129  134.3996  152.1758 H   0  0  0  0  0  0  0  0  0  0  0  0
  145.7362  136.1382  150.6893 H   0  0  0  0  0  0  0  0  0  0  0  0
  144.1558  136.6210  151.2473 H   0  0  0  0  0  0  0  0  0  0  0  0
  145.9607  137.4081  152.7743 H   0  0  0  0  0  0  0  0  0  0  0  0
  144.8414  136.3515  153.6135 H   0  0  0  0  0  0  0  0  0  0  0  0
  148.3074  135.3151  154.6057 H   0  0  0  0  0  0  0  0  0  0  0  0
  147.7929  136.9566  154.2974 H   0  0  0  0  0  0  0  0  0  0  0  0
  145.7005  136.5383  155.6210 H   0  0  0  0  0  0  0  0  0  0  0  0
  146.1203  134.8418  155.7845 H   0  0  0  0  0  0  0  0  0  0  0  0
  148.2921  136.3602  156.7645 H   0  0  0  0  0  0  0  0  0  0  0  0
  148.8112  136.4154  158.8563 H   0  0  0  0  0  0  0  0  0  0  0  0
  147.7055  137.5751  159.5161 H   0  0  0  0  0  0  0  0  0  0  0  0
  147.8752  133.9662  159.2690 H   0  0  0  0  0  0  0  0  0  0  0  0
  147.1774  133.3421  163.4643 H   0  0  0  0  0  0  0  0  0  0  0  0
  147.0763  135.7186  163.7843 H   0  0  0  0  0  0  0  0  0  0  0  0
  145.5439  133.9555  154.0700 H   0  0  0  0  0  0  0  0  0  0  0  0
  147.1195  133.4088  153.5556 H   0  0  0  0  0  0  0  0  0  0  0  0
  147.4013  135.5432  152.4610 H   0  0  0  0  0  0  0  0  0  0  0  0
  1  2  1  0  0  0  0
  1 25  1  0  0  0  0
  1 26  1  0  0  0  0
  1 27  1  0  0  0  0
  2 24  1  0  0  0  0
  2  3  1  0  0  0  0
  2 28  1  0  0  0  0
  3  4  1  0  0  0  0
  3 29  1  0  0  0  0
  3 30  1  0  0  0  0
  4  5  1  0  0  0  0
  4 31  1  0  0  0  0
  4 32  1  0  0  0  0
  5  6  1  0  0  0  0
  5 33  1  0  0  0  0
  5 34  1  0  0  0  0
  6  7  1  0  0  0  0
  6 24  1  0  0  0  0
  6 47  1  0  0  0  0
  7  8  1  0  0  0  0
  7 35  1  0  0  0  0
  7 36  1  0  0  0  0
  8  9  1  0  0  0  0
  8 37  1  0  0  0  0
  8 38  1  0  0  0  0
  9 10  1  0  0  0  0
  9 39  1  0  0  0  0
 10 11  2  0  0  0  0
 10 12  1  0  0  0  0
 12 13  1  0  0  0  0
 12 40  1  0  0  0  0
 12 41  1  0  0  0  0
 13 22  1  0  0  0  0
 13 14  1  0  0  0  0
 14 15  2  0  0  0  0
 14 42  1  0  0  0  0
 15 16  1  0  0  0  0
 15 20  1  0  0  0  0
 16 17  1  0  0  0  0
 16 18  1  0  0  0  0
 16 19  1  0  0  0  0
 20 21  2  0  0  0  0
 20 43  1  0  0  0  0
 21 22  1  0  0  0  0
 21 44  1  0  0  0  0
 22 23  2  0  0  0  0
 24 45  1  0  0  0  0
 24 46  1  0  0  0  0
M  CHG  1   6   1
M  END
> <s_m_source_file>
AV-unprocessed.smi

> <i_m_source_file_index>
1451

> <i_lp_mmshare_version>
43012

> <i_f3d_flags>
0

> <s_epik_input>
W0NIM11bQ0BASF0xW0NIMl1bQ0gyXVtDSDJdTihbQ0gyXTEpW0NIMl1bQ0gyXVtOSF1DKD1PKVtDSDJdbjJbY0hdYyhDKEYpKEYpRilbY0hdW2NIXWMyPU8=

> <s_epik_cmdline>
J2VwaWtfcHl0aG9uJywgJy1waCcsICc3LjAnLCAnLXRuJywgJzgnLCAnLW1hJywgJzIwMCcsICctbWV0YWxfYmluZGluZycsICctaW1hZScsICc8aW5maWxlLm1hZT4nLCAnLW9tYWUnLCAnPG91dGZpbGUubWFlPic=

> <r_lp_tautomer_probability>
1

> <r_epik_Ionization_Penalty>
0.00192452

> <r_epik_Ionization_Penalty_Charging>
0.00192444

> <r_epik_Ionization_Penalty_Neutral>
8.16761e-08

> <r_epik_State_Penalty>
0.00131115

> <r_epik_Charging_Adjusted_Penalty>
0.00323559

> <i_epik_Tot_Q>
1

> <i_epik_Tot_abs_Q>
1

> <r_epik_Metal_State_Penalty>
-0

> <b_epik_Metal_Only>
0

> <s_lp_Force_Field>
OPLS_2005

> <r_lp_Energy>
31.5843

> <b_lp_Chiralities_Consistent>
1

> <s_lp_Variant>
AV-unprocessed.smi:1451-3

> <Gold.Version>
5.8.1

> <Gold.Id.Protein>
6NUR|6NUR_protein|mol2

> <Gold.PLP.Fitness>
46.3290

> <Gold.PLP.PLP>
-37.5094

> <Gold.PLP.part.hbond>
-3.0000

> <Gold.PLP.part.metal>
0.0000

> <Gold.PLP.part.buried>
-3.0025

> <Gold.PLP.part.nonpolar>
-31.1714

> <Gold.PLP.part.repulsive>
0.0000

> <Gold.PLP.ligand.clash>
1.3435

> <Gold.PLP.ligand.torsion>
0.3213

> <Gold.PLP.Chemscore.Hbond>
3.5680

> <Gold.PLP.Chemscore.CHOScore>
0.0000

> <Gold.PLP.Chemscore.Metal>
0.0000

> <Gold.Chemscore.Hbonds>
donor molecule, donor type, donor heavy atom, donor atom, acceptor molecule, acceptor atom, score
      L1  H     6    47       P1  7948  1.98
      P1  H  6931  6943       L1    23  0.75
      P1  H  6934  6947       L1    23  0.74

> <Gold.PLP.Chemscore.Internal.Correction>
0.1017

> <Gold.Rescore>
     Score         DG    S(hbond)    S(metal)    S(lipo)     H(rot)  DE(clash)    DE(int)     intcor
     16.27     -16.81       2.54        0.00      69.85       2.08       0.14       0.40       ----

> <Gold.Chemscore.Fitness>
16.2741

> <Gold.Chemscore.DG>
-16.8118

> <Gold.Chemscore.ZeroCoef>
-5.4800

> <Gold.Chemscore.Hbond>
2.5372

> <Gold.Chemscore.Metal>
0.0000

> <Gold.Chemscore.Lipo>
69.8519

> <Gold.Chemscore.Internal_Hbond>
0.0000

> <Gold.Chemscore.DEClash>
0.1417

> <Gold.Chemscore.DEInternal>
0.3960

> <Gold.Chemscore.Rot>
2.0762

> <Gold.Chemscore.Internal.Correction>
   9.000000E+99

> <Gold.Chemscore.Hbonds>
donor molecule, donor type, donor heavy atom, donor atom, acceptor molecule, acceptor atom, score
      L1  H     6    47       P1  7948  0.93
      P1  H  6931  6943       L1    23  0.65
      P1  H  6934  6947       L1    23  0.72

> <Gold.Chemscore.Hbond.Weighted>
-8.4742

> <Gold.Chemscore.Metal.Weighted>
-0.0000

> <Gold.Chemscore.Lipo.Weighted>
-8.1727

> <Gold.Chemscore.Internal_Hbond.Weighted>
0.0000

> <Gold.Chemscore.DEClash.Weighted>
0.1417

> <Gold.Chemscore.DEInternal.Weighted>
0.3960

> <Gold.Chemscore.Rot.Weighted>
5.3150

> <Gold.Chemscore.Internal.Correction.Weighted>
   9.000000E+99

> <Gold.Protein.RotatedTorsions>
[ 6907 6896 6895 6894 ] final  -16.11 input  -60.11 | X-H torsion
[ 7974 7965 7964 7962 ] final   30.37 input  175.53 | X-H torsion
[ 8008 7997 7996 7995 ] final   56.05 input   59.86 | X-H torsion
[ 10167 10162 10161 10158 ] final   22.65 input  -65.29 | X-H torsion
[ 10718 10713 10712 10709 ] final -153.02 input   66.30 | X-H torsion
[ 10763 10752 10751 10750 ] final   -5.34 input  -60.55 | X-H torsion
[ 11005 11000 10999 10996 ] final  102.52 input  -57.11 | X-H torsion

> <Gold.Protein.ActiveResidues>
 VAL166  LYS551  ARG553  GLY616  TRP617  ASP618  TYR619  PRO620  LYS621  CYS622 
 ASP623  PHE694  ASN695  SER759  ASP760  ASP761  ALA762  ILE779  LEU786  VAL792 
 PHE793  MET794  SER795  GLU796  ALA797  LYS798  CYS799  TRP800  GLU811  SER814 

> <Gold.Protein.RotatedAtoms>
  151.3136  135.0800  159.9280 H   0  0  0  0  0  0  0  0  0  0  0  0  # atno 6907 bound_to 6896
  152.5272  133.9710  159.7772 H   0  0  0  0  0  0  0  0  0  0  0  0  # atno 6908 bound_to 6896
  151.0018  133.5997  159.2724 H   0  0  0  0  0  0  0  0  0  0  0  0  # atno 6909 bound_to 6896
  146.1616  139.6798  142.9030 H   0  0  0  0  0  0  0  0  0  0  0  0  # atno 7974 bound_to 7965
  155.5111  140.3477  155.4389 H   0  0  0  0  0  0  0  0  0  0  0  0  # atno 8008 bound_to 7997
  156.0848  140.1396  156.9694 H   0  0  0  0  0  0  0  0  0  0  0  0  # atno 8009 bound_to 7997
  154.4600  140.0938  156.6844 H   0  0  0  0  0  0  0  0  0  0  0  0  # atno 8010 bound_to 7997
  140.5332  143.9806  150.6477 H   0  0  0  0  0  0  0  0  0  0  0  0  # atno 10167 bound_to 10162
  156.4802  130.8299  151.2526 H   0  0  0  0  0  0  0  0  0  0  0  0  # atno 10718 bound_to 10713
  153.3972  135.7004  153.6452 H   0  0  0  0  0  0  0  0  0  0  0  0  # atno 10763 bound_to 10752
  153.5000  135.3654  155.2535 H   0  0  0  0  0  0  0  0  0  0  0  0  # atno 10764 bound_to 10752
  154.8707  135.4109  154.3300 H   0  0  0  0  0  0  0  0  0  0  0  0  # atno 10765 bound_to 10752
  139.8778  134.9227  156.5070 H   0  0  0  0  0  0  0  0  0  0  0  0  # atno 11005 bound_to 11000
  145.4574  141.0431  143.2770 LP  0  0  0  0  0  0  0  0  0  0  0  0  # atno 17320 bound_to 7965
  144.8034  139.6096  143.7061 LP  0  0  0  0  0  0  0  0  0  0  0  0  # atno 17321 bound_to 7965
  140.3187  143.3151  152.0806 LP  0  0  0  0  0  0  0  0  0  0  0  0  # atno 17342 bound_to 10162
  139.4961  144.6588  151.6511 LP  0  0  0  0  0  0  0  0  0  0  0  0  # atno 17343 bound_to 10162
  157.7484  131.0047  150.3087 LP  0  0  0  0  0  0  0  0  0  0  0  0  # atno 17370 bound_to 10713
  156.3529  130.3834  149.7314 LP  0  0  0  0  0  0  0  0  0  0  0  0  # atno 17371 bound_to 10713
  140.8548  133.8104  155.9205 LP  0  0  0  0  0  0  0  0  0  0  0  0  # atno 17394 bound_to 11000
  140.9108  134.2262  157.4986 LP  0  0  0  0  0  0  0  0  0  0  0  0  # atno 17395 bound_to 11000

$$$$
