AV-unprocessed.smi:4|AV-procd|sdf|33|dock4
  -GOLD-   2262015143D 1   1.00000     0.00000
 Structure written by MMmdl.
 44 45  0  0  0  0  0  0  0  0  2 V2000
  149.5053  136.8820  159.5478 C   0  0  0  0  0  0  0  0  0  0  0  0
  148.9610  137.1717  158.1245 C   0  0  0  0  0  0  0  0  0  0  0  0
  148.6633  135.7805  157.5074 C   0  0  0  0  0  0  0  0  0  0  0  0
  147.6500  137.9718  158.3389 C   0  0  0  0  0  0  0  0  0  0  0  0
  149.9198  137.9298  157.2928 N   0  0  0  0  0  0  0  0  0  0  0  0
  149.7123  139.2428  156.8628 C   0  0  0  0  0  0  0  0  0  0  0  0
  150.5872  139.9585  156.1108 C   0  0  0  0  0  0  0  0  0  0  0  0
  150.2772  141.3811  155.6578 C   0  0  0  0  0  0  0  0  0  0  0  0
  150.0618  142.2932  156.8026 N   0  3  0  0  0  0  0  0  0  0  0  0
  151.2712  142.6319  157.5840 C   0  0  0  0  0  0  0  0  0  0  0  0
  151.5402  144.1406  157.5774 C   0  0  0  0  0  0  0  0  0  0  0  0
  151.3512  144.5747  156.2459 O   0  0  0  0  0  0  0  0  0  0  0  0
  150.7768  144.9796  158.6187 C   0  0  0  0  0  0  0  0  0  0  0  0
  152.0196  144.9551  159.5087 C   0  0  0  0  0  0  0  0  0  0  0  0
  152.8313  144.6450  158.2508 C   0  0  0  0  0  0  0  0  0  0  0  0
  151.8380  139.3354  155.6775 C   0  0  0  0  0  0  0  0  0  0  0  0
  152.7043  139.8736  154.9903 O   0  0  0  0  0  0  0  0  0  0  0  0
  152.0202  138.0259  156.1147 N   0  0  0  0  0  0  0  0  0  0  0  0
  151.1322  137.2938  156.8994 C   0  0  0  0  0  0  0  0  0  0  0  0
  151.4446  136.1446  157.2055 O   0  0  0  0  0  0  0  0  0  0  0  0
  152.8748  137.5632  155.8391 H   0  0  0  0  0  0  0  0  0  0  0  0
  148.7826  136.3205  160.1417 H   0  0  0  0  0  0  0  0  0  0  0  0
  149.7111  137.7988  160.1020 H   0  0  0  0  0  0  0  0  0  0  0  0
  150.4148  136.2802  159.5231 H   0  0  0  0  0  0  0  0  0  0  0  0
  149.5855  135.2350  157.3043 H   0  0  0  0  0  0  0  0  0  0  0  0
  148.0976  135.8275  156.5788 H   0  0  0  0  0  0  0  0  0  0  0  0
  148.0688  135.1683  158.1865 H   0  0  0  0  0  0  0  0  0  0  0  0
  147.0020  137.4776  159.0636 H   0  0  0  0  0  0  0  0  0  0  0  0
  147.0539  138.0819  157.4349 H   0  0  0  0  0  0  0  0  0  0  0  0
  147.8568  138.9722  158.7207 H   0  0  0  0  0  0  0  0  0  0  0  0
  148.8101  139.7706  157.1246 H   0  0  0  0  0  0  0  0  0  0  0  0
  151.0554  141.7736  155.0017 H   0  0  0  0  0  0  0  0  0  0  0  0
  149.3621  141.3674  155.0651 H   0  0  0  0  0  0  0  0  0  0  0  0
  149.6805  143.1568  156.4436 H   0  0  0  0  0  0  0  0  0  0  0  0
  151.1586  142.2771  158.6089 H   0  0  0  0  0  0  0  0  0  0  0  0
  152.1195  142.0922  157.1612 H   0  0  0  0  0  0  0  0  0  0  0  0
  150.4494  144.8483  156.1685 H   0  0  0  0  0  0  0  0  0  0  0  0
  150.5312  145.9835  158.2669 H   0  0  0  0  0  0  0  0  0  0  0  0
  149.9058  144.4882  159.0537 H   0  0  0  0  0  0  0  0  0  0  0  0
  152.2596  145.9063  159.9845 H   0  0  0  0  0  0  0  0  0  0  0  0
  152.0129  144.1317  160.2245 H   0  0  0  0  0  0  0  0  0  0  0  0
  153.6038  143.8891  158.3948 H   0  0  0  0  0  0  0  0  0  0  0  0
  153.2376  145.5425  157.7808 H   0  0  0  0  0  0  0  0  0  0  0  0
  149.3830  141.8818  157.4274 H   0  0  0  0  0  0  0  0  0  0  0  0
  1  2  1  0  0  0  0
  1 22  1  0  0  0  0
  1 23  1  0  0  0  0
  1 24  1  0  0  0  0
  2  3  1  0  0  0  0
  2  4  1  0  0  0  0
  2  5  1  0  0  0  0
  3 25  1  0  0  0  0
  3 26  1  0  0  0  0
  3 27  1  0  0  0  0
  4 28  1  0  0  0  0
  4 29  1  0  0  0  0
  4 30  1  0  0  0  0
  5 19  1  0  0  0  0
  5  6  1  0  0  0  0
  6  7  2  0  0  0  0
  6 31  1  0  0  0  0
  7  8  1  0  0  0  0
  7 16  1  0  0  0  0
  8  9  1  0  0  0  0
  8 32  1  0  0  0  0
  8 33  1  0  0  0  0
  9 10  1  0  0  0  0
  9 34  1  0  0  0  0
  9 44  1  0  0  0  0
 10 11  1  0  0  0  0
 10 35  1  0  0  0  0
 10 36  1  0  0  0  0
 11 15  1  0  0  0  0
 11 12  1  0  0  0  0
 11 13  1  0  0  0  0
 12 37  1  0  0  0  0
 13 14  1  0  0  0  0
 13 38  1  0  0  0  0
 13 39  1  0  0  0  0
 14 15  1  0  0  0  0
 14 40  1  0  0  0  0
 14 41  1  0  0  0  0
 15 42  1  0  0  0  0
 15 43  1  0  0  0  0
 16 17  2  0  0  0  0
 16 18  1  0  0  0  0
 18 21  1  0  0  0  0
 18 19  1  0  0  0  0
 19 20  2  0  0  0  0
M  CHG  1   9   1
M  END
> <s_m_source_file>
AV-unprocessed.smi

> <i_m_source_file_index>
4

> <i_lp_mmshare_version>
43012

> <i_f3d_flags>
0

> <s_epik_input>
W0NIM11DKFtDSDNdKShbQ0gzXSluMVtjSF1jKGMoPU8pW25IXWMxPU8pW0NIMl1bTkhdW0NIMl1DMihbT0hdKVtDSDJdW0NIMl1bQ0gyXTI=

> <s_epik_cmdline>
J2VwaWtfcHl0aG9uJywgJy1waCcsICc3LjAnLCAnLXRuJywgJzgnLCAnLW1hJywgJzIwMCcsICctbWV0YWxfYmluZGluZycsICctaW1hZScsICc8aW5maWxlLm1hZT4nLCAnLW9tYWUnLCAnPG91dGZpbGUubWFlPic=

> <r_lp_tautomer_probability>
0.999537

> <r_epik_Ionization_Penalty>
0.0188443

> <r_epik_Ionization_Penalty_Charging>
0.0188443

> <r_epik_Ionization_Penalty_Neutral>
1.97485e-08

> <r_epik_State_Penalty>
0.0134361

> <r_epik_Charging_Adjusted_Penalty>
0.0322804

> <i_epik_Tot_Q>
1

> <i_epik_Tot_abs_Q>
1

> <r_epik_Metal_State_Penalty>
0.855907

> <b_epik_Metal_Only>
0

> <s_lp_Force_Field>
OPLS_2005

> <r_lp_Energy>
23.9463

> <b_lp_Chiralities_Consistent>
1

> <s_lp_Variant>
AV-unprocessed.smi:4-1

> <Gold.Version>
5.8.1

> <Gold.Id.Protein>
6NUR|6NUR_protein|mol2

> <Gold.PLP.Fitness>
45.8010

> <Gold.PLP.PLP>
-33.7383

> <Gold.PLP.part.hbond>
-4.0000

> <Gold.PLP.part.metal>
0.0000

> <Gold.PLP.part.buried>
-3.0019

> <Gold.PLP.part.nonpolar>
-27.6950

> <Gold.PLP.part.repulsive>
0.1721

> <Gold.PLP.ligand.clash>
0.0000

> <Gold.PLP.ligand.torsion>
0.7710

> <Gold.PLP.Chemscore.Hbond>
4.4826

> <Gold.PLP.Chemscore.CHOScore>
0.0000

> <Gold.PLP.Chemscore.Metal>
0.0000

> <Gold.Chemscore.Hbonds>
donor molecule, donor type, donor heavy atom, donor atom, acceptor molecule, acceptor atom, score
      L1  H     9    34       P1  8028  2.00
      L1  H    12    37       P1  8028  1.00
      P1  H  7989  7998       L1    17  0.47
      P1  H  7997  8009       L1    17  1.00

> <Gold.PLP.Chemscore.Internal.Correction>
0.1569

> <Gold.Rescore>
     Score         DG    S(hbond)    S(metal)    S(lipo)     H(rot)  DE(clash)    DE(int)     intcor
     17.30     -19.94       3.18        0.00      88.01       2.53       0.61       2.03       ----

> <Gold.Chemscore.Fitness>
17.2978

> <Gold.Chemscore.DG>
-19.9354

> <Gold.Chemscore.ZeroCoef>
-5.4800

> <Gold.Chemscore.Hbond>
3.1843

> <Gold.Chemscore.Metal>
0.0000

> <Gold.Chemscore.Lipo>
88.0054

> <Gold.Chemscore.Internal_Hbond>
0.0000

> <Gold.Chemscore.DEClash>
0.6072

> <Gold.Chemscore.DEInternal>
2.0305

> <Gold.Chemscore.Rot>
2.5300

> <Gold.Chemscore.Internal.Correction>
   9.000000E+99

> <Gold.Chemscore.Hbonds>
donor molecule, donor type, donor heavy atom, donor atom, acceptor molecule, acceptor atom, score
      L1  H     9    34       P1  8028  1.00
      L1  H    12    37       P1  8028  0.94
      P1  H  7989  7998       L1    17  0.24
      P1  H  7997  8009       L1    17  0.93

> <Gold.Chemscore.Hbond.Weighted>
-10.6356

> <Gold.Chemscore.Metal.Weighted>
-0.0000

> <Gold.Chemscore.Lipo.Weighted>
-10.2966

> <Gold.Chemscore.Internal_Hbond.Weighted>
0.0000

> <Gold.Chemscore.DEClash.Weighted>
0.6072

> <Gold.Chemscore.DEInternal.Weighted>
2.0305

> <Gold.Chemscore.Rot.Weighted>
6.4768

> <Gold.Chemscore.Internal.Correction.Weighted>
   9.000000E+99

> <Gold.Protein.RotatedTorsions>
[ 6907 6896 6895 6894 ] final  164.84 input  -60.11 | X-H torsion
[ 7974 7965 7964 7962 ] final    5.00 input  175.53 | X-H torsion
[ 8008 7997 7996 7995 ] final -128.73 input   59.86 | X-H torsion
[ 10167 10162 10161 10158 ] final   12.13 input  -65.29 | X-H torsion
[ 10718 10713 10712 10709 ] final  -81.70 input   66.30 | X-H torsion
[ 10763 10752 10751 10750 ] final   -1.24 input  -60.55 | X-H torsion
[ 11005 11000 10999 10996 ] final  -63.85 input  -57.11 | X-H torsion

> <Gold.Protein.ActiveResidues>
 VAL166  LYS551  ARG553  GLY616  TRP617  ASP618  TYR619  PRO620  LYS621  CYS622 
 ASP623  PHE694  ASN695  SER759  ASP760  ASP761  ALA762  ILE779  LEU786  VAL792 
 PHE793  MET794  SER795  GLU796  ALA797  LYS798  CYS799  TRP800  GLU811  SER814 

> <Gold.Protein.RotatedAtoms>
  151.9037  133.3544  159.3839 H   0  0  0  0  0  0  0  0  0  0  0  0  # atno 6907 bound_to 6896
  150.7074  134.4802  159.5476 H   0  0  0  0  0  0  0  0  0  0  0  0  # atno 6908 bound_to 6896
  152.2395  134.8242  160.0513 H   0  0  0  0  0  0  0  0  0  0  0  0  # atno 6909 bound_to 6896
  146.2442  140.0450  142.8379 H   0  0  0  0  0  0  0  0  0  0  0  0  # atno 7974 bound_to 7965
  155.2676  140.0438  157.3004 H   0  0  0  0  0  0  0  0  0  0  0  0  # atno 8008 bound_to 7997
  154.5673  140.2363  155.8213 H   0  0  0  0  0  0  0  0  0  0  0  0  # atno 8009 bound_to 7997
  156.2095  140.3003  155.9708 H   0  0  0  0  0  0  0  0  0  0  0  0  # atno 8010 bound_to 7997
  140.6088  143.8452  150.7042 H   0  0  0  0  0  0  0  0  0  0  0  0  # atno 10167 bound_to 10162
  156.0045  130.4612  150.3993 H   0  0  0  0  0  0  0  0  0  0  0  0  # atno 10718 bound_to 10713
  153.3423  135.6981  153.6856 H   0  0  0  0  0  0  0  0  0  0  0  0  # atno 10763 bound_to 10752
  153.5616  135.3534  155.2802 H   0  0  0  0  0  0  0  0  0  0  0  0  # atno 10764 bound_to 10752
  154.8639  135.4251  154.2639 H   0  0  0  0  0  0  0  0  0  0  0  0  # atno 10765 bound_to 10752
  141.1406  133.6657  156.5744 H   0  0  0  0  0  0  0  0  0  0  0  0  # atno 11005 bound_to 11000
  145.1035  140.9361  143.4698 LP  0  0  0  0  0  0  0  0  0  0  0  0  # atno 17320 bound_to 7965
  145.0648  139.3077  143.5862 LP  0  0  0  0  0  0  0  0  0  0  0  0  # atno 17321 bound_to 7965
  140.2015  143.3955  152.1787 LP  0  0  0  0  0  0  0  0  0  0  0  0  # atno 17342 bound_to 10162
  139.5345  144.7195  151.4941 LP  0  0  0  0  0  0  0  0  0  0  0  0  # atno 17343 bound_to 10162
  157.2062  131.0450  151.2624 LP  0  0  0  0  0  0  0  0  0  0  0  0  # atno 17370 bound_to 10713
  157.3930  130.7292  149.6711 LP  0  0  0  0  0  0  0  0  0  0  0  0  # atno 17371 bound_to 10713
  140.3887  134.7459  157.4708 LP  0  0  0  0  0  0  0  0  0  0  0  0  # atno 17394 bound_to 11000
  140.0582  134.6033  155.8780 LP  0  0  0  0  0  0  0  0  0  0  0  0  # atno 17395 bound_to 11000

$$$$
