AV-unprocessed.smi:2168|AV-procd|sdf|8818|dock3
  -GOLD-   2272012 03D 1   1.00000     0.00000
 Structure written by MMmdl.
 46 47  0  0  0  0  0  0  0  0  1 V2000
  148.2308  133.1229  153.3477 C   0  0  0  0  0  0  0  0  0  0  0  0
  149.3551  133.7293  154.2005 C   0  0  0  0  0  0  0  0  0  0  0  0
  149.3797  133.1714  155.5648 N   0  0  0  0  0  0  0  0  0  0  0  0
  149.4606  131.6994  155.6409 C   0  0  0  0  0  0  0  0  0  0  0  0
  150.2109  131.1238  154.4316 C   0  0  0  0  0  0  0  0  0  0  0  0
  150.1708  134.1049  156.7966 S   0  0  0  0  0  0  0  0  0  0  0  0
  149.3700  134.0381  158.0287 O   0  0  0  0  0  0  0  0  0  0  0  0
  151.6026  133.7677  156.8121 O   0  0  0  0  0  0  0  0  0  0  0  0
  150.0016  135.6811  156.1254 N   0  0  0  0  0  0  0  0  0  0  0  0
  151.1509  136.3902  155.5731 C   0  0  0  0  0  0  0  0  0  0  0  0
  151.3156  137.7648  156.1879 C   0  0  0  0  0  0  0  0  0  0  0  0
  150.2923  138.3296  156.9729 C   0  0  0  0  0  0  0  0  0  0  0  0
  150.4773  139.6185  157.5082 C   0  0  0  0  0  0  0  0  0  0  0  0
  151.6825  140.3118  157.2411 C   0  0  0  0  0  0  0  0  0  0  0  0
  151.8857  141.6099  157.7592 N   0  0  0  0  0  0  0  0  0  0  0  0
  152.0754  141.6928  159.2057 C   0  0  0  0  0  0  0  0  0  0  0  0
  152.5872  143.0888  159.6009 C   0  0  0  0  0  0  0  0  0  0  0  0
  151.7028  144.0862  159.1018 O   0  0  0  0  0  0  0  0  0  0  0  0
  151.6237  144.0588  157.6808 C   0  0  0  0  0  0  0  0  0  0  0  0
  151.0735  142.6990  157.2191 C   0  0  0  0  0  0  0  0  0  0  0  0
  152.6682  139.7568  156.4920 N   0  0  0  0  0  0  0  0  0  0  0  0
  152.4858  138.5212  155.9802 C   0  0  0  0  0  0  0  0  0  0  0  0
  148.1876  133.6060  152.3715 H   0  0  0  0  0  0  0  0  0  0  0  0
  147.2601  133.2567  153.8259 H   0  0  0  0  0  0  0  0  0  0  0  0
  148.3778  132.0569  153.1746 H   0  0  0  0  0  0  0  0  0  0  0  0
  150.3258  133.5761  153.7278 H   0  0  0  0  0  0  0  0  0  0  0  0
  149.2053  134.8075  154.2537 H   0  0  0  0  0  0  0  0  0  0  0  0
  149.9484  131.3908  156.5661 H   0  0  0  0  0  0  0  0  0  0  0  0
  148.4544  131.2813  155.6817 H   0  0  0  0  0  0  0  0  0  0  0  0
  150.2697  130.0373  154.4974 H   0  0  0  0  0  0  0  0  0  0  0  0
  151.2299  131.5061  154.3767 H   0  0  0  0  0  0  0  0  0  0  0  0
  149.7138  131.3683  153.4933 H   0  0  0  0  0  0  0  0  0  0  0  0
  149.0965  135.8860  155.7032 H   0  0  0  0  0  0  0  0  0  0  0  0
  152.0512  135.7980  155.7391 H   0  0  0  0  0  0  0  0  0  0  0  0
  151.0272  136.4857  154.4936 H   0  0  0  0  0  0  0  0  0  0  0  0
  149.3783  137.7857  157.1617 H   0  0  0  0  0  0  0  0  0  0  0  0
  149.7022  140.0512  158.1225 H   0  0  0  0  0  0  0  0  0  0  0  0
  151.1221  141.4929  159.6966 H   0  0  0  0  0  0  0  0  0  0  0  0
  152.7796  140.9446  159.5661 H   0  0  0  0  0  0  0  0  0  0  0  0
  152.6422  143.1748  160.6862 H   0  0  0  0  0  0  0  0  0  0  0  0
  153.5950  143.2560  159.2172 H   0  0  0  0  0  0  0  0  0  0  0  0
  150.9679  144.8623  157.3460 H   0  0  0  0  0  0  0  0  0  0  0  0
  152.6070  144.2480  157.2471 H   0  0  0  0  0  0  0  0  0  0  0  0
  151.0696  142.6635  156.1289 H   0  0  0  0  0  0  0  0  0  0  0  0
  150.0418  142.5811  157.5539 H   0  0  0  0  0  0  0  0  0  0  0  0
  153.2960  138.1302  155.3824 H   0  0  0  0  0  0  0  0  0  0  0  0
  1  2  1  0  0  0  0
  1 23  1  0  0  0  0
  1 24  1  0  0  0  0
  1 25  1  0  0  0  0
  2  3  1  0  0  0  0
  2 26  1  0  0  0  0
  2 27  1  0  0  0  0
  3  4  1  0  0  0  0
  3  6  1  0  0  0  0
  4  5  1  0  0  0  0
  4 28  1  0  0  0  0
  4 29  1  0  0  0  0
  5 30  1  0  0  0  0
  5 31  1  0  0  0  0
  5 32  1  0  0  0  0
  6  7  2  0  0  0  0
  6  8  2  0  0  0  0
  6  9  1  0  0  0  0
  9 10  1  0  0  0  0
  9 33  1  0  0  0  0
 10 11  1  0  0  0  0
 10 34  1  0  0  0  0
 10 35  1  0  0  0  0
 11 22  1  0  0  0  0
 11 12  2  0  0  0  0
 12 13  1  0  0  0  0
 12 36  1  0  0  0  0
 13 14  2  0  0  0  0
 13 37  1  0  0  0  0
 14 15  1  0  0  0  0
 14 21  1  0  0  0  0
 15 20  1  0  0  0  0
 15 16  1  0  0  0  0
 16 17  1  0  0  0  0
 16 38  1  0  0  0  0
 16 39  1  0  0  0  0
 17 18  1  0  0  0  0
 17 40  1  0  0  0  0
 17 41  1  0  0  0  0
 18 19  1  0  0  0  0
 19 20  1  0  0  0  0
 19 42  1  0  0  0  0
 19 43  1  0  0  0  0
 20 44  1  0  0  0  0
 20 45  1  0  0  0  0
 21 22  2  0  0  0  0
 22 46  1  0  0  0  0
M  END
> <s_m_source_file>
AV-unprocessed.smi

> <i_m_source_file_index>
2168

> <i_lp_mmshare_version>
43012

> <i_f3d_flags>
0

> <s_epik_input>
W0NIM11bQ0gyXU4oW0NIMl1bQ0gzXSlTKD1PKSg9TylbTkhdW0NIMl1jMVtjSF1bY0hdYyhuW2NIXTEpTjJbQ0gyXVtDSDJdT1tDSDJdW0NIMl0y

> <s_epik_cmdline>
J2VwaWtfcHl0aG9uJywgJy1waCcsICc3LjAnLCAnLXRuJywgJzgnLCAnLW1hJywgJzIwMCcsICctbWV0YWxfYmluZGluZycsICctaW1hZScsICc8aW5maWxlLm1hZT4nLCAnLW9tYWUnLCAnPG91dGZpbGUubWFlPic=

> <r_lp_tautomer_probability>
1

> <r_epik_Ionization_Penalty>
0.0173889

> <r_epik_Ionization_Penalty_Charging>
0

> <r_epik_Ionization_Penalty_Neutral>
0.0173889

> <r_epik_State_Penalty>
0.0135122

> <r_epik_Charging_Adjusted_Penalty>
0.0135122

> <i_epik_Tot_Q>
0

> <i_epik_Tot_abs_Q>
0

> <r_epik_Metal_State_Penalty>
0.283451

> <b_epik_Metal_Only>
0

> <s_lp_Force_Field>
OPLS_2005

> <r_lp_Energy>
21.8709

> <b_lp_Chiralities_Consistent>
1

> <s_lp_Variant>
AV-unprocessed.smi:2168-1

> <Gold.Version>
5.8.1

> <Gold.Id.Protein>
6NUR|6NUR_protein|mol2

> <Gold.PLP.Fitness>
39.9621

> <Gold.PLP.PLP>
-34.8003

> <Gold.PLP.part.hbond>
-2.6718

> <Gold.PLP.part.metal>
0.0000

> <Gold.PLP.part.buried>
-4.1431

> <Gold.PLP.part.nonpolar>
-27.7891

> <Gold.PLP.part.repulsive>
0.1148

> <Gold.PLP.ligand.clash>
0.0000

> <Gold.PLP.ligand.torsion>
2.4181

> <Gold.PLP.Chemscore.Hbond>
2.0000

> <Gold.PLP.Chemscore.CHOScore>
0.0000

> <Gold.PLP.Chemscore.Metal>
0.0000

> <Gold.Chemscore.Hbonds>
donor molecule, donor type, donor heavy atom, donor atom, acceptor molecule, acceptor atom, score
      P1  H  6896  6907       L1     7  1.00
      P1  H  7997  8009       L1    21  1.00

> <Gold.PLP.Chemscore.Internal.Correction>
3.9979

> <Gold.Rescore>
     Score         DG    S(hbond)    S(metal)    S(lipo)     H(rot)  DE(clash)    DE(int)     intcor
     14.64     -17.26       1.84        0.00      85.59       1.72       0.13       2.49       ----

> <Gold.Chemscore.Fitness>
14.6413

> <Gold.Chemscore.DG>
-17.2585

> <Gold.Chemscore.ZeroCoef>
-5.4800

> <Gold.Chemscore.Hbond>
1.8449

> <Gold.Chemscore.Metal>
0.0000

> <Gold.Chemscore.Lipo>
85.5898

> <Gold.Chemscore.Internal_Hbond>
0.0000

> <Gold.Chemscore.DEClash>
0.1250

> <Gold.Chemscore.DEInternal>
2.4922

> <Gold.Chemscore.Rot>
1.7177

> <Gold.Chemscore.Internal.Correction>
   9.000000E+99

> <Gold.Chemscore.Hbonds>
donor molecule, donor type, donor heavy atom, donor atom, acceptor molecule, acceptor atom, score
      P1  H  6896  6907       L1     7  0.26
      P1  H  7997  8009       L1    21  0.65

> <Gold.Chemscore.Hbond.Weighted>
-6.1619

> <Gold.Chemscore.Metal.Weighted>
-0.0000

> <Gold.Chemscore.Lipo.Weighted>
-10.0140

> <Gold.Chemscore.Internal_Hbond.Weighted>
0.0000

> <Gold.Chemscore.DEClash.Weighted>
0.1250

> <Gold.Chemscore.DEInternal.Weighted>
2.4922

> <Gold.Chemscore.Rot.Weighted>
4.3974

> <Gold.Chemscore.Internal.Correction.Weighted>
   9.000000E+99

> <Gold.Protein.RotatedTorsions>
[ 6907 6896 6895 6894 ] final -113.47 input  -60.11 | X-H torsion
[ 7974 7965 7964 7962 ] final   89.81 input  175.53 | X-H torsion
[ 8008 7997 7996 7995 ] final -164.85 input   59.86 | X-H torsion
[ 10167 10162 10161 10158 ] final  114.45 input  -65.29 | X-H torsion
[ 10718 10713 10712 10709 ] final   73.62 input   66.30 | X-H torsion
[ 10763 10752 10751 10750 ] final  143.84 input  -60.55 | X-H torsion
[ 11005 11000 10999 10996 ] final   42.16 input  -57.11 | X-H torsion

> <Gold.Protein.ActiveResidues>
 VAL166  LYS551  ARG553  GLY616  TRP617  ASP618  TYR619  PRO620  LYS621  CYS622 
 ASP623  PHE694  ASN695  SER759  ASP760  ASP761  ALA762  ILE779  LEU786  VAL792 
 PHE793  MET794  SER795  GLU796  ALA797  LYS798  CYS799  TRP800  GLU811  SER814 

> <Gold.Protein.RotatedAtoms>
  150.7832  133.8939  159.3321 H   0  0  0  0  0  0  0  0  0  0  0  0  # atno 6907 bound_to 6896
  151.6797  135.0962  160.0223 H   0  0  0  0  0  0  0  0  0  0  0  0  # atno 6908 bound_to 6896
  152.3889  133.6611  159.6256 H   0  0  0  0  0  0  0  0  0  0  0  0  # atno 6909 bound_to 6896
  145.5273  139.2281  143.2638 H   0  0  0  0  0  0  0  0  0  0  0  0  # atno 7974 bound_to 7965
  155.8414  140.0949  157.1732 H   0  0  0  0  0  0  0  0  0  0  0  0  # atno 8008 bound_to 7997
  154.3982  140.1400  156.3795 H   0  0  0  0  0  0  0  0  0  0  0  0  # atno 8009 bound_to 7997
  155.8060  140.3451  155.5432 H   0  0  0  0  0  0  0  0  0  0  0  0  # atno 8010 bound_to 7997
  139.6388  144.7122  151.2280 H   0  0  0  0  0  0  0  0  0  0  0  0  # atno 10167 bound_to 10162
  157.6556  130.9637  150.1095 H   0  0  0  0  0  0  0  0  0  0  0  0  # atno 10718 bound_to 10713
  153.9790  135.2943  155.3421 H   0  0  0  0  0  0  0  0  0  0  0  0  # atno 10763 bound_to 10752
  154.7279  135.5080  153.8920 H   0  0  0  0  0  0  0  0  0  0  0  0  # atno 10764 bound_to 10752
  153.0863  135.6694  154.0056 H   0  0  0  0  0  0  0  0  0  0  0  0  # atno 10765 bound_to 10752
  140.1765  134.4157  155.8225 H   0  0  0  0  0  0  0  0  0  0  0  0  # atno 11005 bound_to 11000
  146.2067  140.6088  142.9078 LP  0  0  0  0  0  0  0  0  0  0  0  0  # atno 17320 bound_to 7965
  144.7644  140.5497  143.6713 LP  0  0  0  0  0  0  0  0  0  0  0  0  # atno 17321 bound_to 7965
  140.7480  143.6349  150.8389 LP  0  0  0  0  0  0  0  0  0  0  0  0  # atno 17342 bound_to 10162
  139.9983  143.5771  152.2885 LP  0  0  0  0  0  0  0  0  0  0  0  0  # atno 17343 bound_to 10162
  156.1996  130.3659  149.8805 LP  0  0  0  0  0  0  0  0  0  0  0  0  # atno 17370 bound_to 10713
  156.6713  130.8821  151.3562 LP  0  0  0  0  0  0  0  0  0  0  0  0  # atno 17371 bound_to 10713
  141.2220  133.6980  156.7855 LP  0  0  0  0  0  0  0  0  0  0  0  0  # atno 17394 bound_to 11000
  140.2317  134.8681  157.3483 LP  0  0  0  0  0  0  0  0  0  0  0  0  # atno 17395 bound_to 11000

$$$$
