AV-unprocessed.smi:2442|AV-procd|sdf|9630|dock3
  -GOLD-   2272013263D 1   1.00000     0.00000
 Structure written by MMmdl.
 47 48  0  0  0  0  0  0  0  0  2 V2000
  148.8771  140.8166  154.0810 C   0  0  0  0  0  0  0  0  0  0  0  0
  148.8850  139.4505  154.4642 O   0  0  0  0  0  0  0  0  0  0  0  0
  150.1768  138.8534  154.4782 C   0  0  1  0  0  0  0  0  0  0  0  0
  151.1636  139.7689  155.2337 C   0  0  0  0  0  0  0  0  0  0  0  0
  152.5389  139.1064  155.4013 C   0  0  0  0  0  0  0  0  0  0  0  0
  152.4138  137.7481  156.1051 C   0  0  0  0  0  0  0  0  0  0  0  0
  151.4463  136.8243  155.3511 C   0  0  0  0  0  0  0  0  0  0  0  0
  150.0611  137.4741  155.1678 C   0  0  2  0  0  0  0  0  0  0  0  0
  149.2249  136.5804  154.3693 N   0  0  0  0  0  0  0  0  0  0  0  0
  148.7780  135.3781  154.7579 C   0  0  0  0  0  0  0  0  0  0  0  0
  149.0364  134.8584  155.8437 O   0  0  0  0  0  0  0  0  0  0  0  0
  148.0046  134.8098  153.8223 N   0  0  0  0  0  0  0  0  0  0  0  0
  147.3641  133.5066  153.9520 C   0  0  0  0  0  0  0  0  0  0  0  0
  147.2237  132.8037  152.5906 C   0  0  0  0  0  0  0  0  0  0  0  0
  145.9322  133.1810  151.8818 C   0  0  0  0  0  0  0  0  0  0  0  0
  145.6698  134.5446  151.6201 C   0  0  0  0  0  0  0  0  0  0  0  0
  144.4761  134.9103  150.9673 C   0  0  0  0  0  0  0  0  0  0  0  0
  143.5952  133.9570  150.5975 N   0  3  0  0  0  0  0  0  0  0  0  0
  143.8016  132.6424  150.8276 C   0  0  0  0  0  0  0  0  0  0  0  0
  144.9771  132.2102  151.4803 C   0  0  0  0  0  0  0  0  0  0  0  0
  145.1856  130.7275  151.7313 C   0  0  0  0  0  0  0  0  0  0  0  0
  147.8520  141.1860  154.0803 H   0  0  0  0  0  0  0  0  0  0  0  0
  149.2775  140.9443  153.0747 H   0  0  0  0  0  0  0  0  0  0  0  0
  149.4525  141.4361  154.7685 H   0  0  0  0  0  0  0  0  0  0  0  0
  150.5318  138.6997  153.4566 H   0  0  0  0  0  0  0  0  0  0  0  0
  151.2850  140.7171  154.7106 H   0  0  0  0  0  0  0  0  0  0  0  0
  150.7566  140.0100  156.2165 H   0  0  0  0  0  0  0  0  0  0  0  0
  153.0032  138.9724  154.4236 H   0  0  0  0  0  0  0  0  0  0  0  0
  153.1994  139.7604  155.9715 H   0  0  0  0  0  0  0  0  0  0  0  0
  153.3943  137.2774  156.1811 H   0  0  0  0  0  0  0  0  0  0  0  0
  152.0605  137.8945  157.1265 H   0  0  0  0  0  0  0  0  0  0  0  0
  151.8716  136.5796  154.3766 H   0  0  0  0  0  0  0  0  0  0  0  0
  151.3473  135.8811  155.8897 H   0  0  0  0  0  0  0  0  0  0  0  0
  149.6232  137.6113  156.1587 H   0  0  0  0  0  0  0  0  0  0  0  0
  148.9521  136.9143  153.4567 H   0  0  0  0  0  0  0  0  0  0  0  0
  147.8488  135.3137  152.9614 H   0  0  0  0  0  0  0  0  0  0  0  0
  147.9667  132.8994  154.6278 H   0  0  0  0  0  0  0  0  0  0  0  0
  146.3877  133.6214  154.4263 H   0  0  0  0  0  0  0  0  0  0  0  0
  148.0594  133.0745  151.9436 H   0  0  0  0  0  0  0  0  0  0  0  0
  147.2883  131.7226  152.7137 H   0  0  0  0  0  0  0  0  0  0  0  0
  146.3768  135.3055  151.9185 H   0  0  0  0  0  0  0  0  0  0  0  0
  144.2023  135.9282  150.7315 H   0  0  0  0  0  0  0  0  0  0  0  0
  143.0208  131.9791  150.4841 H   0  0  0  0  0  0  0  0  0  0  0  0
  144.2883  130.1569  151.4890 H   0  0  0  0  0  0  0  0  0  0  0  0
  145.4244  130.5408  152.7783 H   0  0  0  0  0  0  0  0  0  0  0  0
  146.0014  130.3486  151.1153 H   0  0  0  0  0  0  0  0  0  0  0  0
  142.7369  134.2417  150.1246 H   0  0  0  0  0  0  0  0  0  0  0  0
  1  2  1  0  0  0  0
  1 22  1  0  0  0  0
  1 23  1  0  0  0  0
  1 24  1  0  0  0  0
  2  3  1  0  0  0  0
  3  8  1  0  0  0  0
  3  4  1  0  0  0  0
  3 25  1  0  0  0  0
  4  5  1  0  0  0  0
  4 26  1  0  0  0  0
  4 27  1  0  0  0  0
  5  6  1  0  0  0  0
  5 28  1  0  0  0  0
  5 29  1  0  0  0  0
  6  7  1  0  0  0  0
  6 30  1  0  0  0  0
  6 31  1  0  0  0  0
  7  8  1  0  0  0  0
  7 32  1  0  0  0  0
  7 33  1  0  0  0  0
  8  9  1  0  0  0  0
  8 34  1  0  0  0  0
  9 10  1  0  0  0  0
  9 35  1  0  0  0  0
 10 11  2  0  0  0  0
 10 12  1  0  0  0  0
 12 13  1  0  0  0  0
 12 36  1  0  0  0  0
 13 14  1  0  0  0  0
 13 37  1  0  0  0  0
 13 38  1  0  0  0  0
 14 15  1  0  0  0  0
 14 39  1  0  0  0  0
 14 40  1  0  0  0  0
 15 20  1  0  0  0  0
 15 16  2  0  0  0  0
 16 17  1  0  0  0  0
 16 41  1  0  0  0  0
 17 18  2  0  0  0  0
 17 42  1  0  0  0  0
 18 19  1  0  0  0  0
 18 47  1  0  0  0  0
 19 20  2  0  0  0  0
 19 43  1  0  0  0  0
 20 21  1  0  0  0  0
 21 44  1  0  0  0  0
 21 45  1  0  0  0  0
 21 46  1  0  0  0  0
M  CHG  1  18   1
M  END
> <s_m_source_file>
AV-unprocessed.smi

> <i_m_source_file_index>
2442

> <i_lp_mmshare_version>
43012

> <i_f3d_flags>
0

> <s_epik_input>
W0NIM11PW0NAQEhdMVtDSDJdW0NIMl1bQ0gyXVtDSDJdW0NASF0xW05IXUMoPU8pW05IXVtDSDJdW0NIMl1jMltjSF1bY0hdbltjSF1jMltDSDNd

> <s_epik_cmdline>
J2VwaWtfcHl0aG9uJywgJy1waCcsICc3LjAnLCAnLXRuJywgJzgnLCAnLW1hJywgJzIwMCcsICctbWV0YWxfYmluZGluZycsICctaW1hZScsICc8aW5maWxlLm1hZT4nLCAnLW9tYWUnLCAnPG91dGZpbGUubWFlPic=

> <r_epik_Ionization_Penalty>
1.07145

> <r_epik_Ionization_Penalty_Charging>
1.0714

> <r_epik_Ionization_Penalty_Neutral>
4.9109e-05

> <r_epik_State_Penalty>
1.12601

> <r_epik_Charging_Adjusted_Penalty>
2.19741

> <i_epik_Tot_Q>
1

> <i_epik_Tot_abs_Q>
1

> <r_epik_Metal_State_Penalty>
1.2173

> <b_epik_Metal_Only>
0

> <s_lp_Force_Field>
OPLS_2005

> <r_lp_Energy>
14.6153

> <b_lp_Chiralities_Consistent>
1

> <s_lp_Variant>
AV-unprocessed.smi:2442-8

> <Gold.Version>
5.8.1

> <Gold.Id.Protein>
6NUR|6NUR_protein|mol2

> <Gold.PLP.Fitness>
45.6892

> <Gold.PLP.PLP>
-36.2624

> <Gold.PLP.part.hbond>
-3.0000

> <Gold.PLP.part.metal>
0.0000

> <Gold.PLP.part.buried>
-2.8312

> <Gold.PLP.part.nonpolar>
-30.8597

> <Gold.PLP.part.repulsive>
0.1823

> <Gold.PLP.ligand.clash>
0.0000

> <Gold.PLP.ligand.torsion>
0.4942

> <Gold.PLP.Chemscore.Hbond>
3.4560

> <Gold.PLP.Chemscore.CHOScore>
0.0000

> <Gold.PLP.Chemscore.Metal>
0.0000

> <Gold.Chemscore.Hbonds>
donor molecule, donor type, donor heavy atom, donor atom, acceptor molecule, acceptor atom, score
      L1  H     9    35       P1  7948  0.69
      L1  H    12    36       P1  7948  0.66
      L1  H    18    47       P1 10186  2.00

> <Gold.PLP.Chemscore.Internal.Correction>
0.0472

> <Gold.Rescore>
     Score         DG    S(hbond)    S(metal)    S(lipo)     H(rot)  DE(clash)    DE(int)     intcor
     20.33     -20.96       2.64        0.00      94.71       1.72       0.12       0.51       ----

> <Gold.Chemscore.Fitness>
20.3264

> <Gold.Chemscore.DG>
-20.9598

> <Gold.Chemscore.ZeroCoef>
-5.4800

> <Gold.Chemscore.Hbond>
2.6388

> <Gold.Chemscore.Metal>
0.0000

> <Gold.Chemscore.Lipo>
94.7053

> <Gold.Chemscore.Internal_Hbond>
0.0000

> <Gold.Chemscore.DEClash>
0.1191

> <Gold.Chemscore.DEInternal>
0.5143

> <Gold.Chemscore.Rot>
1.7244

> <Gold.Chemscore.Internal.Correction>
   9.000000E+99

> <Gold.Chemscore.Hbonds>
donor molecule, donor type, donor heavy atom, donor atom, acceptor molecule, acceptor atom, score
      L1  H     9    35       P1  7948  0.68
      L1  H    12    36       P1  7948  0.64
      L1  H    18    47       P1 10186  0.93

> <Gold.Chemscore.Hbond.Weighted>
-8.8138

> <Gold.Chemscore.Metal.Weighted>
-0.0000

> <Gold.Chemscore.Lipo.Weighted>
-11.0805

> <Gold.Chemscore.Internal_Hbond.Weighted>
0.0000

> <Gold.Chemscore.DEClash.Weighted>
0.1191

> <Gold.Chemscore.DEInternal.Weighted>
0.5143

> <Gold.Chemscore.Rot.Weighted>
4.4145

> <Gold.Chemscore.Internal.Correction.Weighted>
   9.000000E+99

> <Gold.Protein.RotatedTorsions>
[ 6907 6896 6895 6894 ] final -119.23 input  -60.11 | X-H torsion
[ 7974 7965 7964 7962 ] final   76.75 input  175.53 | X-H torsion
[ 8008 7997 7996 7995 ] final  -96.38 input   59.86 | X-H torsion
[ 10167 10162 10161 10158 ] final  -75.29 input  -65.29 | X-H torsion
[ 10718 10713 10712 10709 ] final   67.28 input   66.30 | X-H torsion
[ 10763 10752 10751 10750 ] final -138.10 input  -60.55 | X-H torsion
[ 11005 11000 10999 10996 ] final   10.84 input  -57.11 | X-H torsion

> <Gold.Protein.ActiveResidues>
 VAL166  LYS551  ARG553  GLY616  TRP617  ASP618  TYR619  PRO620  LYS621  CYS622 
 ASP623  PHE694  ASN695  SER759  ASP760  ASP761  ALA762  ILE779  LEU786  VAL792 
 PHE793  MET794  SER795  GLU796  ALA797  LYS798  CYS799  TRP800  GLU811  SER814 

> <Gold.Protein.RotatedAtoms>
  150.8287  133.8127  159.3107 H   0  0  0  0  0  0  0  0  0  0  0  0  # atno 6907 bound_to 6896
  151.5863  135.1054  160.0038 H   0  0  0  0  0  0  0  0  0  0  0  0  # atno 6908 bound_to 6896
  152.4369  133.7336  159.6658 H   0  0  0  0  0  0  0  0  0  0  0  0  # atno 6909 bound_to 6896
  145.6988  139.2576  143.1717 H   0  0  0  0  0  0  0  0  0  0  0  0  # atno 7974 bound_to 7965
  154.7737  140.0472  157.1072 H   0  0  0  0  0  0  0  0  0  0  0  0  # atno 8008 bound_to 7997
  154.9789  140.3099  155.4936 H   0  0  0  0  0  0  0  0  0  0  0  0  # atno 8009 bound_to 7997
  156.2925  140.2239  156.4886 H   0  0  0  0  0  0  0  0  0  0  0  0  # atno 8010 bound_to 7997
  140.4955  143.2371  151.7837 H   0  0  0  0  0  0  0  0  0  0  0  0  # atno 10167 bound_to 10162
  157.6221  130.9313  150.0222 H   0  0  0  0  0  0  0  0  0  0  0  0  # atno 10718 bound_to 10713
  154.8645  135.3622  154.5331 H   0  0  0  0  0  0  0  0  0  0  0  0  # atno 10763 bound_to 10752
  153.5956  135.7014  153.5410 H   0  0  0  0  0  0  0  0  0  0  0  0  # atno 10764 bound_to 10752
  153.3336  135.4117  155.1476 H   0  0  0  0  0  0  0  0  0  0  0  0  # atno 10765 bound_to 10752
  140.5100  134.0662  155.7815 H   0  0  0  0  0  0  0  0  0  0  0  0  # atno 11005 bound_to 11000
  146.0816  140.7757  142.9639 LP  0  0  0  0  0  0  0  0  0  0  0  0  # atno 17320 bound_to 7965
  144.6974  140.3498  143.7184 LP  0  0  0  0  0  0  0  0  0  0  0  0  # atno 17321 bound_to 7965
  139.4860  144.4592  151.9562 LP  0  0  0  0  0  0  0  0  0  0  0  0  # atno 17342 bound_to 10162
  140.3679  144.2891  150.5924 LP  0  0  0  0  0  0  0  0  0  0  0  0  # atno 17343 bound_to 10162
  156.1372  130.3642  149.9638 LP  0  0  0  0  0  0  0  0  0  0  0  0  # atno 17370 bound_to 10713
  156.7687  130.9178  151.3643 LP  0  0  0  0  0  0  0  0  0  0  0  0  # atno 17371 bound_to 10713
  141.1391  133.9170  157.2368 LP  0  0  0  0  0  0  0  0  0  0  0  0  # atno 17394 bound_to 11000
  139.9664  135.0140  156.9399 LP  0  0  0  0  0  0  0  0  0  0  0  0  # atno 17395 bound_to 11000

$$$$
