AV-unprocessed.smi:203|AV-procd|sdf|1595|dock8
  -GOLD-   2262019503D 1   1.00000     0.00000
 Structure written by MMmdl.
 57 61  0  0  0  0  0  0  0  0  1 V2000
  148.3552  138.4556  161.0441 O   0  0  0  0  0  0  0  0  0  0  0  0
  148.9636  139.3729  161.5902 C   0  0  0  0  0  0  0  0  0  0  0  0
  148.5923  140.8375  161.4319 C   0  0  0  0  0  0  0  0  0  0  0  0
  149.7719  141.5843  162.0851 C   0  0  2  0  0  0  0  0  0  0  0  0
  150.6644  142.3704  161.0719 C   0  0  2  0  0  0  0  0  0  0  0  0
  150.8343  141.6280  159.7199 C   0  0  0  0  0  0  0  0  0  0  0  0
  151.7158  142.4172  158.7431 C   0  0  0  0  0  0  0  0  0  0  0  0
  153.0705  142.7191  159.3919 C   0  0  0  0  0  0  0  0  0  0  0  0
  152.8711  143.4624  160.7191 C   0  0  0  0  0  0  0  0  0  0  0  0
  151.9884  142.7201  161.6189 N   0  0  0  0  0  0  0  0  0  0  0  0
  151.9996  143.2775  162.8504 C   0  0  0  0  0  0  0  0  0  0  0  0
  150.8347  143.8024  163.3034 N   0  0  0  0  0  0  0  0  0  0  0  0
  150.7873  144.3792  164.5081 C   0  0  0  0  0  0  0  0  0  0  0  0
  151.7683  144.5312  165.4010 N   0  0  0  0  0  0  0  0  0  0  0  0
  152.9383  143.9950  164.9494 C   0  0  0  0  0  0  0  0  0  0  0  0
  153.1419  143.3522  163.6964 C   0  0  0  0  0  0  0  0  0  0  0  0
  154.4625  142.9335  163.5863 N   0  0  0  0  0  0  0  0  0  0  0  0
  155.0102  143.3115  164.7089 C   0  0  0  0  0  0  0  0  0  0  0  0
  154.1675  143.9593  165.5833 N   0  0  0  0  0  0  0  0  0  0  0  0
  154.5164  144.4850  166.8916 C   0  0  0  0  0  0  0  0  0  0  0  0
  153.7073  145.7496  167.2520 C   0  0  1  0  0  0  0  0  0  0  0  0
  153.8775  146.0010  168.6341 O   0  0  0  0  0  0  0  0  0  0  0  0
  154.1688  147.0047  166.4843 C   0  0  1  0  0  0  0  0  0  0  0  0
  153.6171  147.1281  165.0624 C   0  0  0  0  0  0  0  0  0  0  0  0
  153.6789  148.6203  164.7820 C   0  0  0  0  0  0  0  0  0  0  0  0
  153.7835  149.2496  166.1731 C   0  0  0  0  0  0  0  0  0  0  0  0
  153.6193  148.1699  167.0824 O   0  0  0  0  0  0  0  0  0  0  0  0
  150.5340  140.5015  162.8821 C   0  0  0  0  0  0  0  0  0  0  0  0
  150.0174  139.2386  162.3923 N   0  0  0  0  0  0  0  0  0  0  0  0
  148.4330  141.1051  160.3873 H   0  0  0  0  0  0  0  0  0  0  0  0
  147.6632  141.0248  161.9711 H   0  0  0  0  0  0  0  0  0  0  0  0
  149.3363  142.2891  162.7941 H   0  0  0  0  0  0  0  0  0  0  0  0
  150.1546  143.3093  160.8534 H   0  0  0  0  0  0  0  0  0  0  0  0
  151.2818  140.6470  159.8800 H   0  0  0  0  0  0  0  0  0  0  0  0
  149.8674  141.4485  159.2509 H   0  0  0  0  0  0  0  0  0  0  0  0
  151.8571  141.8516  157.8215 H   0  0  0  0  0  0  0  0  0  0  0  0
  151.2207  143.3490  158.4672 H   0  0  0  0  0  0  0  0  0  0  0  0
  153.6111  141.7882  159.5687 H   0  0  0  0  0  0  0  0  0  0  0  0
  153.6863  143.3151  158.7180 H   0  0  0  0  0  0  0  0  0  0  0  0
  153.8402  143.6206  161.1949 H   0  0  0  0  0  0  0  0  0  0  0  0
  152.4469  144.4489  160.5269 H   0  0  0  0  0  0  0  0  0  0  0  0
  149.8261  144.7774  164.7978 H   0  0  0  0  0  0  0  0  0  0  0  0
  156.0518  143.1302  164.9308 H   0  0  0  0  0  0  0  0  0  0  0  0
  154.3615  143.7058  167.6390 H   0  0  0  0  0  0  0  0  0  0  0  0
  155.5851  144.7000  166.8847 H   0  0  0  0  0  0  0  0  0  0  0  0
  152.6500  145.5679  167.0546 H   0  0  0  0  0  0  0  0  0  0  0  0
  153.1635  145.5970  169.1029 H   0  0  0  0  0  0  0  0  0  0  0  0
  155.2586  147.0753  166.4636 H   0  0  0  0  0  0  0  0  0  0  0  0
  154.1796  146.5401  164.3366 H   0  0  0  0  0  0  0  0  0  0  0  0
  152.5780  146.7969  165.0329 H   0  0  0  0  0  0  0  0  0  0  0  0
  154.5546  148.8735  164.1833 H   0  0  0  0  0  0  0  0  0  0  0  0
  152.7930  148.9586  164.2434 H   0  0  0  0  0  0  0  0  0  0  0  0
  154.7674  149.6974  166.3190 H   0  0  0  0  0  0  0  0  0  0  0  0
  153.0293  150.0186  166.3419 H   0  0  0  0  0  0  0  0  0  0  0  0
  151.6158  140.5556  162.7594 H   0  0  0  0  0  0  0  0  0  0  0  0
  150.3192  140.5819  163.9482 H   0  0  0  0  0  0  0  0  0  0  0  0
  150.4326  138.3511  162.6360 H   0  0  0  0  0  0  0  0  0  0  0  0
  1  2  2  0  0  0  0
  2 29  1  0  0  0  0
  2  3  1  0  0  0  0
  3  4  1  0  0  0  0
  3 30  1  0  0  0  0
  3 31  1  0  0  0  0
  4  5  1  0  0  0  0
  4 28  1  0  0  0  0
  4 32  1  0  0  0  0
  5 10  1  0  0  0  0
  5  6  1  0  0  0  0
  5 33  1  0  0  0  0
  6  7  1  0  0  0  0
  6 34  1  0  0  0  0
  6 35  1  0  0  0  0
  7  8  1  0  0  0  0
  7 36  1  0  0  0  0
  7 37  1  0  0  0  0
  8  9  1  0  0  0  0
  8 38  1  0  0  0  0
  8 39  1  0  0  0  0
  9 10  1  0  0  0  0
  9 40  1  0  0  0  0
  9 41  1  0  0  0  0
 10 11  1  0  0  0  0
 11 16  1  0  0  0  0
 11 12  2  0  0  0  0
 12 13  1  0  0  0  0
 13 14  2  0  0  0  0
 13 42  1  0  0  0  0
 14 15  1  0  0  0  0
 15 19  1  0  0  0  0
 15 16  2  0  0  0  0
 16 17  1  0  0  0  0
 17 18  2  0  0  0  0
 18 19  1  0  0  0  0
 18 43  1  0  0  0  0
 19 20  1  0  0  0  0
 20 21  1  0  0  0  0
 20 44  1  0  0  0  0
 20 45  1  0  0  0  0
 21 22  1  0  0  0  0
 21 23  1  0  0  0  0
 21 46  1  0  0  0  0
 22 47  1  0  0  0  0
 23 27  1  0  0  0  0
 23 24  1  0  0  0  0
 23 48  1  0  0  0  0
 24 25  1  0  0  0  0
 24 49  1  0  0  0  0
 24 50  1  0  0  0  0
 25 26  1  0  0  0  0
 25 51  1  0  0  0  0
 25 52  1  0  0  0  0
 26 27  1  0  0  0  0
 26 53  1  0  0  0  0
 26 54  1  0  0  0  0
 28 29  1  0  0  0  0
 28 55  1  0  0  0  0
 28 56  1  0  0  0  0
 29 57  1  0  0  0  0
M  END
> <s_m_source_file>
AV-unprocessed.smi

> <i_m_source_file_index>
203

> <i_lp_mmshare_version>
43012

> <i_f3d_flags>
0

> <s_epik_input>
Tz1DMVtDSDJdW0NASF0oW0NIMl1bTkhdMSlbQ0BASF0yW0NIMl1bQ0gyXVtDSDJdW0NIMl1OMmMobltjSF1uMyljKGMzNCluW2NIXW40W0NIMl1bQ0BIXShbT0hdKVtDQEBIXTVbQ0gyXVtDSDJdW0NIMl1PNQ==

> <s_epik_cmdline>
J2VwaWtfcHl0aG9uJywgJy1waCcsICc3LjAnLCAnLXRuJywgJzgnLCAnLW1hJywgJzIwMCcsICctbWV0YWxfYmluZGluZycsICctaW1hZScsICc8aW5maWxlLm1hZT4nLCAnLW9tYWUnLCAnPG91dGZpbGUubWFlPic=

> <r_lp_tautomer_probability>
1

> <r_epik_Ionization_Penalty>
0.00175146

> <r_epik_Ionization_Penalty_Charging>
0

> <r_epik_Ionization_Penalty_Neutral>
0.00175146

> <r_epik_State_Penalty>
0.00109045

> <r_epik_Charging_Adjusted_Penalty>
0.00109045

> <i_epik_Tot_Q>
0

> <i_epik_Tot_abs_Q>
0

> <r_epik_Metal_State_Penalty>
-0

> <b_epik_Metal_Only>
0

> <s_lp_Force_Field>
OPLS_2005

> <r_lp_Energy>
56.5765

> <b_lp_Chiralities_Consistent>
1

> <s_lp_Variant>
AV-unprocessed.smi:203-14

> <Gold.Version>
5.8.1

> <Gold.Id.Protein>
6NUR|6NUR_protein|mol2

> <Gold.PLP.Fitness>
47.7458

> <Gold.PLP.PLP>
-42.6049

> <Gold.PLP.part.hbond>
-3.8302

> <Gold.PLP.part.metal>
0.0000

> <Gold.PLP.part.buried>
-4.9378

> <Gold.PLP.part.nonpolar>
-37.9190

> <Gold.PLP.part.repulsive>
4.1438

> <Gold.PLP.ligand.clash>
0.1902

> <Gold.PLP.ligand.torsion>
1.4159

> <Gold.PLP.Chemscore.Hbond>
2.6240

> <Gold.PLP.Chemscore.CHOScore>
0.0000

> <Gold.PLP.Chemscore.Metal>
0.0000

> <Gold.PLP.Chemscore.Internal.Correction>
0.2910

> <Gold.Rescore>
     Score         DG    S(hbond)    S(metal)    S(lipo)     H(rot)  DE(clash)    DE(int)     intcor
     11.69     -17.68       2.02        0.00     106.03       2.72       1.89       4.10       ----

> <Gold.Chemscore.Fitness>
11.6859

> <Gold.Chemscore.DG>
-17.6774

> <Gold.Chemscore.ZeroCoef>
-5.4800

> <Gold.Chemscore.Hbond>
2.0201

> <Gold.Chemscore.Metal>
0.0000

> <Gold.Chemscore.Lipo>
106.0322

> <Gold.Chemscore.Internal_Hbond>
0.0000

> <Gold.Chemscore.DEClash>
1.8873

> <Gold.Chemscore.DEInternal>
4.1042

> <Gold.Chemscore.Rot>
2.7171

> <Gold.Chemscore.Internal.Correction>
   9.000000E+99

> <Gold.Chemscore.Hbond.Weighted>
-6.7473

> <Gold.Chemscore.Metal.Weighted>
-0.0000

> <Gold.Chemscore.Lipo.Weighted>
-12.4058

> <Gold.Chemscore.Internal_Hbond.Weighted>
0.0000

> <Gold.Chemscore.DEClash.Weighted>
1.8873

> <Gold.Chemscore.DEInternal.Weighted>
4.1042

> <Gold.Chemscore.Rot.Weighted>
6.9557

> <Gold.Chemscore.Internal.Correction.Weighted>
   9.000000E+99

> <Gold.Protein.RotatedTorsions>
[ 6907 6896 6895 6894 ] final  -93.94 input  -60.11 | X-H torsion
[ 7974 7965 7964 7962 ] final  -11.60 input  175.53 | X-H torsion
[ 8008 7997 7996 7995 ] final -122.10 input   59.86 | X-H torsion
[ 10167 10162 10161 10158 ] final -101.11 input  -65.29 | X-H torsion
[ 10718 10713 10712 10709 ] final  -58.98 input   66.30 | X-H torsion
[ 10763 10752 10751 10750 ] final  175.56 input  -60.55 | X-H torsion
[ 11005 11000 10999 10996 ] final -155.46 input  -57.11 | X-H torsion

> <Gold.Protein.ActiveResidues>
 VAL166  LYS551  ARG553  GLY616  TRP617  ASP618  TYR619  PRO620  LYS621  CYS622 
 ASP623  PHE694  ASN695  SER759  ASP760  ASP761  ALA762  ILE779  LEU786  VAL792 
 PHE793  MET794  SER795  GLU796  ALA797  LYS798  CYS799  TRP800  GLU811  SER814 

> <Gold.Protein.RotatedAtoms>
  150.6932  134.1890  159.4277 H   0  0  0  0  0  0  0  0  0  0  0  0  # atno 6907 bound_to 6896
  151.9861  135.0001  160.0569 H   0  0  0  0  0  0  0  0  0  0  0  0  # atno 6908 bound_to 6896
  152.1710  133.4609  159.4946 H   0  0  0  0  0  0  0  0  0  0  0  0  # atno 6909 bound_to 6896
  146.2182  140.2934  142.8370 H   0  0  0  0  0  0  0  0  0  0  0  0  # atno 7974 bound_to 7965
  155.1587  140.0405  157.2838 H   0  0  0  0  0  0  0  0  0  0  0  0  # atno 8008 bound_to 7997
  154.6352  140.2533  155.7360 H   0  0  0  0  0  0  0  0  0  0  0  0  # atno 8009 bound_to 7997
  156.2505  140.2867  156.0721 H   0  0  0  0  0  0  0  0  0  0  0  0  # atno 8010 bound_to 7997
  140.2447  143.3514  152.0769 H   0  0  0  0  0  0  0  0  0  0  0  0  # atno 10167 bound_to 10162
  156.1095  130.4176  150.0652 H   0  0  0  0  0  0  0  0  0  0  0  0  # atno 10718 bound_to 10713
  154.4693  135.2770  155.1655 H   0  0  0  0  0  0  0  0  0  0  0  0  # atno 10763 bound_to 10752
  154.3411  135.6170  153.5600 H   0  0  0  0  0  0  0  0  0  0  0  0  # atno 10764 bound_to 10752
  152.9862  135.5788  154.5070 H   0  0  0  0  0  0  0  0  0  0  0  0  # atno 10765 bound_to 10752
  140.6863  134.4090  157.5223 H   0  0  0  0  0  0  0  0  0  0  0  0  # atno 11005 bound_to 11000
  144.9110  140.7757  143.5808 LP  0  0  0  0  0  0  0  0  0  0  0  0  # atno 17320 bound_to 7965
  145.2865  139.1899  143.4763 LP  0  0  0  0  0  0  0  0  0  0  0  0  # atno 17321 bound_to 7965
  139.5065  144.6816  151.5995 LP  0  0  0  0  0  0  0  0  0  0  0  0  # atno 17342 bound_to 10162
  140.6086  143.9478  150.6437 LP  0  0  0  0  0  0  0  0  0  0  0  0  # atno 17343 bound_to 10162
  156.8619  130.9494  151.3617 LP  0  0  0  0  0  0  0  0  0  0  0  0  # atno 17370 bound_to 10713
  157.6275  130.8703  149.9215 LP  0  0  0  0  0  0  0  0  0  0  0  0  # atno 17371 bound_to 10713
  139.8937  134.8725  156.2213 LP  0  0  0  0  0  0  0  0  0  0  0  0  # atno 17394 bound_to 11000
  141.0278  133.7005  156.1377 LP  0  0  0  0  0  0  0  0  0  0  0  0  # atno 17395 bound_to 11000

$$$$
