AV-unprocessed.smi:2822|AV-procd|sdf|10861|dock8
  -GOLD-   2272015303D 1   1.00000     0.00000
 Structure written by MMmdl.
 41 43  0  0  0  0  0  0  0  0  3 V2000
  145.7920  136.5347  152.6472 Cl  0  0  0  0  0  0  0  0  0  0  0  0
  145.3377  135.1606  151.7013 C   0  0  0  0  0  0  0  0  0  0  0  0
  144.0903  135.1590  151.0434 C   0  0  0  0  0  0  0  0  0  0  0  0
  143.7205  134.0953  150.2992 N   0  3  0  0  0  0  0  0  0  0  0  0
  144.5010  133.0045  150.1488 C   0  0  0  0  0  0  0  0  0  0  0  0
  145.7597  132.9471  150.7815 C   0  0  0  0  0  0  0  0  0  0  0  0
  146.1948  134.0396  151.5729 C   0  0  0  0  0  0  0  0  0  0  0  0
  147.4350  134.0444  152.2300 N   0  0  0  0  0  0  0  0  0  0  0  0
  148.1208  132.8056  152.5646 C   0  0  0  0  0  0  0  0  0  0  0  0
  147.2529  131.9079  153.4696 C   0  0  1  0  0  0  0  0  0  0  0  0
  146.5411  130.7776  152.7013 C   0  0  0  0  0  0  0  0  0  0  0  0
  147.4917  129.7191  152.2860 N   0  3  2  0  0  0  0  0  0  0  0  0
  146.8243  128.6378  151.5170 C   0  0  0  0  0  0  0  0  0  0  0  0
  147.8415  127.5967  151.0240 C   0  0  0  0  0  0  0  0  0  0  0  0
  148.6397  127.0188  152.1987 C   0  0  0  0  0  0  0  0  0  0  0  0
  149.3005  128.1544  152.9907 C   0  0  0  0  0  0  0  0  0  0  0  0
  148.2646  129.2016  153.4474 C   0  0  1  0  0  0  0  0  0  0  0  0
  148.9485  130.3673  154.1854 C   0  0  0  0  0  0  0  0  0  0  0  0
  147.9901  131.3512  154.5583 O   0  0  0  0  0  0  0  0  0  0  0  0
  143.3815  135.9728  151.0906 H   0  0  0  0  0  0  0  0  0  0  0  0
  144.0975  132.2145  149.5323 H   0  0  0  0  0  0  0  0  0  0  0  0
  146.3676  132.0641  150.6523 H   0  0  0  0  0  0  0  0  0  0  0  0
  147.9432  134.9142  152.3147 H   0  0  0  0  0  0  0  0  0  0  0  0
  148.3382  132.2718  151.6387 H   0  0  0  0  0  0  0  0  0  0  0  0
  149.0804  133.0277  153.0313 H   0  0  0  0  0  0  0  0  0  0  0  0
  146.4803  132.5398  153.9097 H   0  0  0  0  0  0  0  0  0  0  0  0
  145.7733  130.3342  153.3373 H   0  0  0  0  0  0  0  0  0  0  0  0
  146.0289  131.1823  151.8272 H   0  0  0  0  0  0  0  0  0  0  0  0
  146.0701  128.1565  152.1418 H   0  0  0  0  0  0  0  0  0  0  0  0
  146.3003  129.0679  150.6627 H   0  0  0  0  0  0  0  0  0  0  0  0
  147.3274  126.7951  150.4927 H   0  0  0  0  0  0  0  0  0  0  0  0
  148.5222  128.0569  150.3064 H   0  0  0  0  0  0  0  0  0  0  0  0
  147.9771  126.4492  152.8515 H   0  0  0  0  0  0  0  0  0  0  0  0
  149.3960  126.3224  151.8351 H   0  0  0  0  0  0  0  0  0  0  0  0
  149.8222  127.7428  153.8558 H   0  0  0  0  0  0  0  0  0  0  0  0
  150.0611  128.6316  152.3706 H   0  0  0  0  0  0  0  0  0  0  0  0
  147.5630  128.7230  154.1334 H   0  0  0  0  0  0  0  0  0  0  0  0
  149.4316  130.0015  155.0917 H   0  0  0  0  0  0  0  0  0  0  0  0
  149.7366  130.8121  153.5773 H   0  0  0  0  0  0  0  0  0  0  0  0
  148.1579  130.1507  151.6617 H   0  0  0  0  0  0  0  0  0  0  0  0
  142.8133  134.1165  149.8322 H   0  0  0  0  0  0  0  0  0  0  0  0
  1  2  1  0  0  0  0
  2  7  1  0  0  0  0
  2  3  2  0  0  0  0
  3  4  1  0  0  0  0
  3 20  1  0  0  0  0
  4  5  2  0  0  0  0
  4 41  1  0  0  0  0
  5  6  1  0  0  0  0
  5 21  1  0  0  0  0
  6  7  2  0  0  0  0
  6 22  1  0  0  0  0
  7  8  1  0  0  0  0
  8  9  1  0  0  0  0
  8 23  1  0  0  0  0
  9 10  1  0  0  0  0
  9 24  1  0  0  0  0
  9 25  1  0  0  0  0
 10 19  1  0  0  0  0
 10 11  1  0  0  0  0
 10 26  1  0  0  0  0
 11 12  1  0  0  0  0
 11 27  1  0  0  0  0
 11 28  1  0  0  0  0
 12 17  1  0  0  0  0
 12 13  1  0  0  0  0
 12 40  1  0  0  0  0
 13 14  1  0  0  0  0
 13 29  1  0  0  0  0
 13 30  1  0  0  0  0
 14 15  1  0  0  0  0
 14 31  1  0  0  0  0
 14 32  1  0  0  0  0
 15 16  1  0  0  0  0
 15 33  1  0  0  0  0
 15 34  1  0  0  0  0
 16 17  1  0  0  0  0
 16 35  1  0  0  0  0
 16 36  1  0  0  0  0
 17 18  1  0  0  0  0
 17 37  1  0  0  0  0
 18 19  1  0  0  0  0
 18 38  1  0  0  0  0
 18 39  1  0  0  0  0
M  CHG  1   4   1
M  CHG  1  12   1
M  END
> <s_m_source_file>
AV-unprocessed.smi

> <i_m_source_file_index>
2822

> <i_lp_mmshare_version>
43012

> <i_f3d_flags>
0

> <s_epik_input>
Q2xjMVtjSF1uW2NIXVtjSF1jMVtOSF1bQ0gyXVtDQEhdKFtDSDJdMilPW0NIMl1bQ0BASF0oTjIzKVtDSDJdW0NIMl1bQ0gyXVtDSDJdMw==

> <s_epik_cmdline>
J2VwaWtfcHl0aG9uJywgJy1waCcsICc3LjAnLCAnLXRuJywgJzgnLCAnLW1hJywgJzIwMCcsICctbWV0YWxfYmluZGluZycsICctaW1hZScsICc8aW5maWxlLm1hZT4nLCAnLW9tYWUnLCAnPG91dGZpbGUubWFlPic=

> <r_lp_tautomer_probability>
1

> <r_epik_Ionization_Penalty>
0.254999

> <r_epik_Ionization_Penalty_Charging>
0.254956

> <r_epik_Ionization_Penalty_Neutral>
4.33524e-05

> <r_epik_State_Penalty>
0.230978

> <r_epik_Charging_Adjusted_Penalty>
0.485934

> <i_epik_Tot_Q>
2

> <i_epik_Tot_abs_Q>
2

> <r_epik_Metal_State_Penalty>
3.47007

> <b_epik_Metal_Only>
0

> <s_lp_Force_Field>
OPLS_2005

> <r_lp_Energy>
41.9056

> <b_lp_Chiralities_Consistent>
1

> <s_lp_Variant>
AV-unprocessed.smi:2822-2

> <Gold.Version>
5.8.1

> <Gold.Id.Protein>
6NUR|6NUR_protein|mol2

> <Gold.PLP.Fitness>
48.2830

> <Gold.PLP.PLP>
-37.7617

> <Gold.PLP.part.hbond>
-3.0000

> <Gold.PLP.part.metal>
0.0000

> <Gold.PLP.part.buried>
-3.7371

> <Gold.PLP.part.nonpolar>
-30.8853

> <Gold.PLP.part.repulsive>
0.1051

> <Gold.PLP.ligand.clash>
0.0000

> <Gold.PLP.ligand.torsion>
0.7185

> <Gold.PLP.Chemscore.Hbond>
3.9840

> <Gold.PLP.Chemscore.CHOScore>
0.0000

> <Gold.PLP.Chemscore.Metal>
0.0000

> <Gold.Chemscore.Hbonds>
donor molecule, donor type, donor heavy atom, donor atom, acceptor molecule, acceptor atom, score
      L1  H     4    41       P1 10186  2.00
      L1  H     8    23       P1  7948  1.00
      L1  H    12    40       P1 10747  1.00

> <Gold.PLP.Chemscore.Internal.Correction>
0.0064

> <Gold.Rescore>
     Score         DG    S(hbond)    S(metal)    S(lipo)     H(rot)  DE(clash)    DE(int)     intcor
     22.93     -23.73       2.86        0.00     100.47       1.20       0.01       0.78       ----

> <Gold.Chemscore.Fitness>
22.9348

> <Gold.Chemscore.DG>
-23.7283

> <Gold.Chemscore.ZeroCoef>
-5.4800

> <Gold.Chemscore.Hbond>
2.8609

> <Gold.Chemscore.Metal>
0.0000

> <Gold.Chemscore.Lipo>
100.4721

> <Gold.Chemscore.Internal_Hbond>
0.0000

> <Gold.Chemscore.DEClash>
0.0116

> <Gold.Chemscore.DEInternal>
0.7819

> <Gold.Chemscore.Rot>
1.1962

> <Gold.Chemscore.Internal.Correction>
   9.000000E+99

> <Gold.Chemscore.Hbonds>
donor molecule, donor type, donor heavy atom, donor atom, acceptor molecule, acceptor atom, score
      L1  H     4    41       P1 10186  0.99
      L1  H     8    23       P1  7948  0.74
      L1  H    12    40       P1 10747  0.96

> <Gold.Chemscore.Hbond.Weighted>
-9.5554

> <Gold.Chemscore.Metal.Weighted>
-0.0000

> <Gold.Chemscore.Lipo.Weighted>
-11.7552

> <Gold.Chemscore.Internal_Hbond.Weighted>
0.0000

> <Gold.Chemscore.DEClash.Weighted>
0.0116

> <Gold.Chemscore.DEInternal.Weighted>
0.7819

> <Gold.Chemscore.Rot.Weighted>
3.0623

> <Gold.Chemscore.Internal.Correction.Weighted>
   9.000000E+99

> <Gold.Protein.RotatedTorsions>
[ 6907 6896 6895 6894 ] final   13.71 input  -60.11 | X-H torsion
[ 7974 7965 7964 7962 ] final  -86.08 input  175.53 | X-H torsion
[ 8008 7997 7996 7995 ] final -143.45 input   59.86 | X-H torsion
[ 10167 10162 10161 10158 ] final   60.18 input  -65.29 | X-H torsion
[ 10718 10713 10712 10709 ] final  -44.79 input   66.30 | X-H torsion
[ 10763 10752 10751 10750 ] final   21.59 input  -60.55 | X-H torsion
[ 11005 11000 10999 10996 ] final  -26.86 input  -57.11 | X-H torsion

> <Gold.Protein.ActiveResidues>
 VAL166  LYS551  ARG553  GLY616  TRP617  ASP618  TYR619  PRO620  LYS621  CYS622 
 ASP623  PHE694  ASN695  SER759  ASP760  ASP761  ALA762  ILE779  LEU786  VAL792 
 PHE793  MET794  SER795  GLU796  ALA797  LYS798  CYS799  TRP800  GLU811  SER814 

> <Gold.Protein.RotatedAtoms>
  151.7906  135.0736  160.0386 H   0  0  0  0  0  0  0  0  0  0  0  0  # atno 6907 bound_to 6896
  152.3159  133.5797  159.5720 H   0  0  0  0  0  0  0  0  0  0  0  0  # atno 6908 bound_to 6896
  150.7344  134.0000  159.3677 H   0  0  0  0  0  0  0  0  0  0  0  0  # atno 6909 bound_to 6896
  145.4846  140.9555  143.1845 H   0  0  0  0  0  0  0  0  0  0  0  0  # atno 7974 bound_to 7965
  155.5108  140.0583  157.2924 H   0  0  0  0  0  0  0  0  0  0  0  0  # atno 8008 bound_to 7997
  154.4553  140.1969  156.0347 H   0  0  0  0  0  0  0  0  0  0  0  0  # atno 8009 bound_to 7997
  156.0786  140.3250  155.7669 H   0  0  0  0  0  0  0  0  0  0  0  0  # atno 8010 bound_to 7997
  140.1683  144.4302  150.6674 H   0  0  0  0  0  0  0  0  0  0  0  0  # atno 10167 bound_to 10162
  156.2350  130.4175  149.8829 H   0  0  0  0  0  0  0  0  0  0  0  0  # atno 10718 bound_to 10713
  153.0983  135.6665  153.9722 H   0  0  0  0  0  0  0  0  0  0  0  0  # atno 10763 bound_to 10752
  153.9299  135.3005  155.3447 H   0  0  0  0  0  0  0  0  0  0  0  0  # atno 10764 bound_to 10752
  154.7402  135.5083  153.9185 H   0  0  0  0  0  0  0  0  0  0  0  0  # atno 10765 bound_to 10752
  140.9068  133.7487  156.0616 H   0  0  0  0  0  0  0  0  0  0  0  0  # atno 11005 bound_to 11000
  144.7869  139.6409  143.7130 LP  0  0  0  0  0  0  0  0  0  0  0  0  # atno 17320 bound_to 7965
  146.2320  139.5832  142.9549 LP  0  0  0  0  0  0  0  0  0  0  0  0  # atno 17321 bound_to 7965
  140.6598  143.2248  151.5882 LP  0  0  0  0  0  0  0  0  0  0  0  0  # atno 17342 bound_to 10162
  139.5349  144.2809  152.1230 LP  0  0  0  0  0  0  0  0  0  0  0  0  # atno 17343 bound_to 10162
  156.6430  130.8712  151.3517 LP  0  0  0  0  0  0  0  0  0  0  0  0  # atno 17370 bound_to 10713
  157.7150  130.9486  150.1223 LP  0  0  0  0  0  0  0  0  0  0  0  0  # atno 17371 bound_to 10713
  140.8161  134.3343  157.5396 LP  0  0  0  0  0  0  0  0  0  0  0  0  # atno 17394 bound_to 11000
  139.8751  134.9282  156.3445 LP  0  0  0  0  0  0  0  0  0  0  0  0  # atno 17395 bound_to 11000

$$$$
