AV-unprocessed.smi:2662|AV-procd|sdf|10319|dock2
  -GOLD-   2272014333D 1   1.00000     0.00000
 Structure written by MMmdl.
 36 38  0  0  0  0  0  0  0  0  1 V2000
  151.8304  139.5570  154.6985 O   0  0  0  0  0  0  0  0  0  0  0  0
  151.6309  139.1112  156.0247 C   0  0  0  0  0  0  0  0  0  0  0  0
  151.8689  140.1663  157.0678 C   0  0  0  0  0  0  0  0  0  0  0  0
  152.7999  140.0494  158.0178 N   0  0  0  0  0  0  0  0  0  0  0  0
  152.6673  141.2271  158.7255 C   0  0  0  0  0  0  0  0  0  0  0  0
  153.3691  141.7031  159.8558 C   0  0  0  0  0  0  0  0  0  0  0  0
  153.0545  142.9596  160.4137 C   0  0  0  0  0  0  0  0  0  0  0  0
  152.0372  143.7565  159.8497 C   0  0  0  0  0  0  0  0  0  0  0  0
  151.3254  143.2998  158.7237 C   0  0  0  0  0  0  0  0  0  0  0  0
  151.6420  142.0440  158.1723 C   0  0  0  0  0  0  0  0  0  0  0  0
  151.1419  141.3127  157.0993 N   0  0  0  0  0  0  0  0  0  0  0  0
  150.0596  141.7271  156.2158 C   0  0  0  0  0  0  0  0  0  0  0  0
  148.6950  141.1524  156.6490 C   0  0  1  0  0  0  0  0  0  0  0  0
  148.6228  141.2014  158.0601 O   0  0  0  0  0  0  0  0  0  0  0  0
  147.5235  141.8625  155.9797 C   0  0  0  0  0  0  0  0  0  0  0  0
  146.5502  142.5265  156.7601 C   0  0  0  0  0  0  0  0  0  0  0  0
  145.4834  143.2061  156.1417 C   0  0  0  0  0  0  0  0  0  0  0  0
  144.5592  143.8439  156.8981 F   0  0  0  0  0  0  0  0  0  0  0  0
  145.3805  143.2272  154.7382 C   0  0  0  0  0  0  0  0  0  0  0  0
  146.3458  142.5682  153.9537 C   0  0  0  0  0  0  0  0  0  0  0  0
  147.4143  141.8881  154.5698 C   0  0  0  0  0  0  0  0  0  0  0  0
  148.3394  141.2691  153.7976 F   0  0  0  0  0  0  0  0  0  0  0  0
  151.9680  138.8036  154.1453 H   0  0  0  0  0  0  0  0  0  0  0  0
  150.6087  138.7443  156.1180 H   0  0  0  0  0  0  0  0  0  0  0  0
  152.2996  138.2701  156.2018 H   0  0  0  0  0  0  0  0  0  0  0  0
  154.1502  141.1000  160.2945 H   0  0  0  0  0  0  0  0  0  0  0  0
  153.5965  143.3133  161.2784 H   0  0  0  0  0  0  0  0  0  0  0  0
  151.8029  144.7179  160.2827 H   0  0  0  0  0  0  0  0  0  0  0  0
  150.5440  143.9065  158.2907 H   0  0  0  0  0  0  0  0  0  0  0  0
  150.0236  142.8174  156.2338 H   0  0  0  0  0  0  0  0  0  0  0  0
  150.2882  141.4502  155.1868 H   0  0  0  0  0  0  0  0  0  0  0  0
  148.6540  140.0941  156.3902 H   0  0  0  0  0  0  0  0  0  0  0  0
  149.2425  140.5829  158.4152 H   0  0  0  0  0  0  0  0  0  0  0  0
  146.6226  142.5274  157.8377 H   0  0  0  0  0  0  0  0  0  0  0  0
  144.5635  143.7501  154.2634 H   0  0  0  0  0  0  0  0  0  0  0  0
  146.2689  142.5874  152.8766 H   0  0  0  0  0  0  0  0  0  0  0  0
  1  2  1  0  0  0  0
  1 23  1  0  0  0  0
  2  3  1  0  0  0  0
  2 24  1  0  0  0  0
  2 25  1  0  0  0  0
  3 11  1  0  0  0  0
  3  4  2  0  0  0  0
  4  5  1  0  0  0  0
  5 10  2  0  0  0  0
  5  6  1  0  0  0  0
  6  7  2  0  0  0  0
  6 26  1  0  0  0  0
  7  8  1  0  0  0  0
  7 27  1  0  0  0  0
  8  9  2  0  0  0  0
  8 28  1  0  0  0  0
  9 10  1  0  0  0  0
  9 29  1  0  0  0  0
 10 11  1  0  0  0  0
 11 12  1  0  0  0  0
 12 13  1  0  0  0  0
 12 30  1  0  0  0  0
 12 31  1  0  0  0  0
 13 14  1  0  0  0  0
 13 15  1  0  0  0  0
 13 32  1  0  0  0  0
 14 33  1  0  0  0  0
 15 21  1  0  0  0  0
 15 16  2  0  0  0  0
 16 17  1  0  0  0  0
 16 34  1  0  0  0  0
 17 18  1  0  0  0  0
 17 19  2  0  0  0  0
 19 20  1  0  0  0  0
 19 35  1  0  0  0  0
 20 21  2  0  0  0  0
 20 36  1  0  0  0  0
 21 22  1  0  0  0  0
M  END
> <s_m_source_file>
AV-unprocessed.smi

> <i_m_source_file_index>
2662

> <i_lp_mmshare_version>
43012

> <i_f3d_flags>
0

> <s_epik_input>
W2NIXTFbY0hdW2NIXVtjSF1jKGMxMiluKGMobjIpW0NIMl1bT0hdKVtDSDJdW0NASF0oW09IXSljM1tjSF1jKEYpW2NIXVtjSF1jM0Y=

> <s_epik_cmdline>
J2VwaWtfcHl0aG9uJywgJy1waCcsICc3LjAnLCAnLXRuJywgJzgnLCAnLW1hJywgJzIwMCcsICctbWV0YWxfYmluZGluZycsICctaW1hZScsICc8aW5maWxlLm1hZT4nLCAnLW9tYWUnLCAnPG91dGZpbGUubWFlPic=

> <r_epik_Ionization_Penalty>
0.0634732

> <r_epik_Ionization_Penalty_Charging>
0

> <r_epik_Ionization_Penalty_Neutral>
0.0634732

> <r_epik_State_Penalty>
0.0551572

> <r_epik_Charging_Adjusted_Penalty>
0.0551572

> <i_epik_Tot_Q>
0

> <i_epik_Tot_abs_Q>
0

> <r_epik_Metal_State_Penalty>
5.78034e-05

> <b_epik_Metal_Only>
0

> <s_lp_Force_Field>
OPLS_2005

> <r_lp_Energy>
12.437

> <b_lp_Chiralities_Consistent>
1

> <s_lp_Variant>
AV-unprocessed.smi:2662-2

> <Gold.Version>
5.8.1

> <Gold.Id.Protein>
6NUR|6NUR_protein|mol2

> <Gold.PLP.Fitness>
50.3358

> <Gold.PLP.PLP>
-45.2855

> <Gold.PLP.part.hbond>
-2.0000

> <Gold.PLP.part.metal>
0.0000

> <Gold.PLP.part.buried>
-3.8201

> <Gold.PLP.part.nonpolar>
-38.7420

> <Gold.PLP.part.repulsive>
0.0000

> <Gold.PLP.ligand.clash>
0.0000

> <Gold.PLP.ligand.torsion>
0.5024

> <Gold.PLP.Chemscore.Hbond>
2.0000

> <Gold.PLP.Chemscore.CHOScore>
0.0000

> <Gold.PLP.Chemscore.Metal>
0.0000

> <Gold.Chemscore.Hbonds>
donor molecule, donor type, donor heavy atom, donor atom, acceptor molecule, acceptor atom, score
      P1  H  7989  7998       L1     1  1.00
      P1  H  7997  8008       L1     4  1.00

> <Gold.PLP.Chemscore.Internal.Correction>
0.0550

> <Gold.Rescore>
     Score         DG    S(hbond)    S(metal)    S(lipo)     H(rot)  DE(clash)    DE(int)     intcor
     13.78     -14.54       1.26        0.00     104.36       2.88       0.16       0.61       ----

> <Gold.Chemscore.Fitness>
13.7783

> <Gold.Chemscore.DG>
-14.5427

> <Gold.Chemscore.ZeroCoef>
-5.4800

> <Gold.Chemscore.Hbond>
1.2627

> <Gold.Chemscore.Metal>
0.0000

> <Gold.Chemscore.Lipo>
104.3572

> <Gold.Chemscore.Internal_Hbond>
0.0000

> <Gold.Chemscore.DEClash>
0.1554

> <Gold.Chemscore.DEInternal>
0.6091

> <Gold.Chemscore.Rot>
2.8767

> <Gold.Chemscore.Internal.Correction>
   9.000000E+99

> <Gold.Chemscore.Hbonds>
donor molecule, donor type, donor heavy atom, donor atom, acceptor molecule, acceptor atom, score
      P1  H  7989  7998       L1     1  0.29
      P1  H  7997  8008       L1     4  0.21

> <Gold.Chemscore.Hbond.Weighted>
-4.2174

> <Gold.Chemscore.Metal.Weighted>
-0.0000

> <Gold.Chemscore.Lipo.Weighted>
-12.2098

> <Gold.Chemscore.Internal_Hbond.Weighted>
0.0000

> <Gold.Chemscore.DEClash.Weighted>
0.1554

> <Gold.Chemscore.DEInternal.Weighted>
0.6091

> <Gold.Chemscore.Rot.Weighted>
7.3644

> <Gold.Chemscore.Internal.Correction.Weighted>
   9.000000E+99

> <Gold.Protein.RotatedTorsions>
[ 6907 6896 6895 6894 ] final  156.47 input  -60.11 | X-H torsion
[ 7974 7965 7964 7962 ] final  -88.00 input  175.53 | X-H torsion
[ 8008 7997 7996 7995 ] final  -75.38 input   59.86 | X-H torsion
[ 10167 10162 10161 10158 ] final  104.24 input  -65.29 | X-H torsion
[ 10718 10713 10712 10709 ] final  142.07 input   66.30 | X-H torsion
[ 10763 10752 10751 10750 ] final  -15.37 input  -60.55 | X-H torsion
[ 11005 11000 10999 10996 ] final -121.69 input  -57.11 | X-H torsion

> <Gold.Protein.ActiveResidues>
 VAL166  LYS551  ARG553  GLY616  TRP617  ASP618  TYR619  PRO620  LYS621  CYS622 
 ASP623  PHE694  ASN695  SER759  ASP760  ASP761  ALA762  ILE779  LEU786  VAL792 
 PHE793  MET794  SER795  GLU796  ALA797  LYS798  CYS799  TRP800  GLU811  SER814 

> <Gold.Protein.RotatedAtoms>
  152.0292  133.3930  159.4289 H   0  0  0  0  0  0  0  0  0  0  0  0  # atno 6907 bound_to 6896
  150.6883  134.3540  159.4930 H   0  0  0  0  0  0  0  0  0  0  0  0  # atno 6908 bound_to 6896
  152.1324  134.9124  160.0609 H   0  0  0  0  0  0  0  0  0  0  0  0  # atno 6909 bound_to 6896
  145.4591  140.9561  143.1980 H   0  0  0  0  0  0  0  0  0  0  0  0  # atno 7974 bound_to 7965
  154.5412  140.0745  156.8513 H   0  0  0  0  0  0  0  0  0  0  0  0  # atno 8008 bound_to 7997
  155.3177  140.3394  155.4224 H   0  0  0  0  0  0  0  0  0  0  0  0  # atno 8009 bound_to 7997
  156.1876  140.1674  156.8141 H   0  0  0  0  0  0  0  0  0  0  0  0  # atno 8010 bound_to 7997
  139.7194  144.7061  151.0897 H   0  0  0  0  0  0  0  0  0  0  0  0  # atno 10167 bound_to 10162
  157.3848  131.0997  151.0704 H   0  0  0  0  0  0  0  0  0  0  0  0  # atno 10718 bound_to 10713
  153.5424  135.7013  153.5630 H   0  0  0  0  0  0  0  0  0  0  0  0  # atno 10763 bound_to 10752
  153.3590  135.3975  155.1704 H   0  0  0  0  0  0  0  0  0  0  0  0  # atno 10764 bound_to 10752
  154.8672  135.3784  154.4929 H   0  0  0  0  0  0  0  0  0  0  0  0  # atno 10765 bound_to 10752
  141.0051  134.0346  157.3487 H   0  0  0  0  0  0  0  0  0  0  0  0  # atno 11005 bound_to 11000
  144.8014  139.6134  143.7070 LP  0  0  0  0  0  0  0  0  0  0  0  0  # atno 17320 bound_to 7965
  146.2461  139.6102  142.9458 LP  0  0  0  0  0  0  0  0  0  0  0  0  # atno 17321 bound_to 7965
  140.7750  143.5186  150.9564 LP  0  0  0  0  0  0  0  0  0  0  0  0  # atno 17342 bound_to 10162
  139.8873  143.6997  152.3150 LP  0  0  0  0  0  0  0  0  0  0  0  0  # atno 17343 bound_to 10162
  157.1759  130.6288  149.5656 LP  0  0  0  0  0  0  0  0  0  0  0  0  # atno 17370 bound_to 10713
  155.9784  130.4770  150.6654 LP  0  0  0  0  0  0  0  0  0  0  0  0  # atno 17371 bound_to 10713
  139.9059  135.0179  156.7483 LP  0  0  0  0  0  0  0  0  0  0  0  0  # atno 17394 bound_to 11000
  140.6826  133.9461  155.7919 LP  0  0  0  0  0  0  0  0  0  0  0  0  # atno 17395 bound_to 11000

$$$$
