AV-unprocessed.smi:1434|AV-procd|sdf|5854|dock5
  -GOLD-   22720 5523D 1   1.00000     0.00000
 Structure written by MMmdl.
 43 44  0  0  0  0  0  0  0  0  2 V2000
  147.6938  134.4290  161.3233 C   0  0  0  0  0  0  0  0  0  0  0  0
  147.7203  135.8844  160.1914 S   0  0  0  0  0  0  0  0  0  0  0  0
  146.5675  135.7257  159.2880 O   0  0  0  0  0  0  0  0  0  0  0  0
  147.7094  137.0566  161.0794 O   0  0  0  0  0  0  0  0  0  0  0  0
  149.1631  135.7181  159.4579 N   0  5  0  0  0  0  0  0  0  0  0  0
  149.5419  136.5740  158.3418 C   0  0  1  0  0  0  0  0  0  0  0  0
  148.5382  136.4232  157.1685 C   0  0  0  0  0  0  0  0  0  0  0  0
  148.7346  137.4783  156.0442 C   0  0  0  0  0  0  0  0  0  0  0  0
  148.8248  138.9221  156.5927 C   0  0  0  0  0  0  0  0  0  0  0  0
  149.8899  138.9305  157.6192 N   0  0  0  0  0  0  0  0  0  0  0  0
  151.0892  139.5605  157.5090 C   0  0  0  0  0  0  0  0  0  0  0  0
  151.4262  140.2000  156.5115 O   0  0  0  0  0  0  0  0  0  0  0  0
  151.8399  139.5264  158.6246 N   0  0  0  0  0  0  0  0  0  0  0  0
  153.0335  140.3323  158.8713 C   0  0  0  0  0  0  0  0  0  0  0  0
  152.8707  141.2361  160.1109 C   0  0  0  0  0  0  0  0  0  0  0  0
  152.5037  142.6739  159.7784 C   0  0  0  0  0  0  0  0  0  0  0  0
  152.3345  143.6302  160.8035 C   0  0  0  0  0  0  0  0  0  0  0  0
  151.9477  144.9364  160.4467 C   0  0  0  0  0  0  0  0  0  0  0  0
  151.7493  145.2356  159.0857 C   0  0  0  0  0  0  0  0  0  0  0  0
  151.9497  144.2121  158.1381 C   0  0  0  0  0  0  0  0  0  0  0  0
  152.3228  142.9568  158.4689 N   0  0  0  0  0  0  0  0  0  0  0  0
  149.5679  138.0652  158.7770 C   0  0  0  0  0  0  0  0  0  0  0  0
  146.7944  134.4684  161.9367 H   0  0  0  0  0  0  0  0  0  0  0  0
  148.5720  134.4546  161.9678 H   0  0  0  0  0  0  0  0  0  0  0  0
  147.6934  133.5057  160.7455 H   0  0  0  0  0  0  0  0  0  0  0  0
  150.5373  136.3286  157.9707 H   0  0  0  0  0  0  0  0  0  0  0  0
  148.6053  135.4201  156.7462 H   0  0  0  0  0  0  0  0  0  0  0  0
  147.5218  136.5231  157.5529 H   0  0  0  0  0  0  0  0  0  0  0  0
  149.6403  137.2512  155.4788 H   0  0  0  0  0  0  0  0  0  0  0  0
  147.9132  137.4075  155.3310 H   0  0  0  0  0  0  0  0  0  0  0  0
  148.9756  139.6336  155.7807 H   0  0  0  0  0  0  0  0  0  0  0  0
  147.8796  139.2041  157.0590 H   0  0  0  0  0  0  0  0  0  0  0  0
  151.4899  138.9873  159.4030 H   0  0  0  0  0  0  0  0  0  0  0  0
  153.8790  139.6598  159.0162 H   0  0  0  0  0  0  0  0  0  0  0  0
  153.2769  140.9401  157.9984 H   0  0  0  0  0  0  0  0  0  0  0  0
  152.1023  140.8201  160.7639 H   0  0  0  0  0  0  0  0  0  0  0  0
  153.7932  141.2312  160.6930 H   0  0  0  0  0  0  0  0  0  0  0  0
  152.4784  143.3664  161.8407 H   0  0  0  0  0  0  0  0  0  0  0  0
  151.7957  145.6916  161.2036 H   0  0  0  0  0  0  0  0  0  0  0  0
  151.4454  146.2248  158.7767 H   0  0  0  0  0  0  0  0  0  0  0  0
  151.8054  144.4071  157.0860 H   0  0  0  0  0  0  0  0  0  0  0  0
  148.5958  138.3594  159.1764 H   0  0  0  0  0  0  0  0  0  0  0  0
  150.2733  138.1943  159.5994 H   0  0  0  0  0  0  0  0  0  0  0  0
  1  2  1  0  0  0  0
  1 23  1  0  0  0  0
  1 24  1  0  0  0  0
  1 25  1  0  0  0  0
  2  3  2  0  0  0  0
  2  4  2  0  0  0  0
  2  5  1  0  0  0  0
  5  6  1  0  0  0  0
  6 22  1  0  0  0  0
  6  7  1  0  0  0  0
  6 26  1  0  0  0  0
  7  8  1  0  0  0  0
  7 27  1  0  0  0  0
  7 28  1  0  0  0  0
  8  9  1  0  0  0  0
  8 29  1  0  0  0  0
  8 30  1  0  0  0  0
  9 10  1  0  0  0  0
  9 31  1  0  0  0  0
  9 32  1  0  0  0  0
 10 11  1  0  0  0  0
 10 22  1  0  0  0  0
 11 12  2  0  0  0  0
 11 13  1  0  0  0  0
 13 14  1  0  0  0  0
 13 33  1  0  0  0  0
 14 15  1  0  0  0  0
 14 34  1  0  0  0  0
 14 35  1  0  0  0  0
 15 16  1  0  0  0  0
 15 36  1  0  0  0  0
 15 37  1  0  0  0  0
 16 21  1  0  0  0  0
 16 17  2  0  0  0  0
 17 18  1  0  0  0  0
 17 38  1  0  0  0  0
 18 19  2  0  0  0  0
 18 39  1  0  0  0  0
 19 20  1  0  0  0  0
 19 40  1  0  0  0  0
 20 21  2  0  0  0  0
 20 41  1  0  0  0  0
 22 42  1  0  0  0  0
 22 43  1  0  0  0  0
M  CHG  1   5  -1
M  END
> <s_m_source_file>
AV-unprocessed.smi

> <i_m_source_file_index>
1434

> <i_lp_mmshare_version>
43012

> <i_f3d_flags>
0

> <s_epik_input>
W0NIM11TKD1PKSg9TylbTkhdW0NAQEhdMVtDSDJdW0NIMl1bQ0gyXU4oW0NIMl0xKUMoPU8pW05IXVtDSDJdW0NIMl1jMltjSF1bY0hdW2NIXVtjSF1uMg==

> <s_epik_cmdline>
J2VwaWtfcHl0aG9uJywgJy1waCcsICc3LjAnLCAnLXRuJywgJzgnLCAnLW1hJywgJzIwMCcsICctbWV0YWxfYmluZGluZycsICctaW1hZScsICc8aW5maWxlLm1hZT4nLCAnLW9tYWUnLCAnPG91dGZpbGUubWFlPic=

> <r_epik_Ionization_Penalty>
6.57847

> <r_epik_Ionization_Penalty_Charging>
6.53351

> <r_epik_Ionization_Penalty_Neutral>
0.0449527

> <r_epik_State_Penalty>
6.57157

> <r_epik_Charging_Adjusted_Penalty>
13.1051

> <i_epik_Tot_Q>
-1

> <i_epik_Tot_abs_Q>
1

> <r_epik_Metal_State_Penalty>
2.53928

> <b_epik_Metal_Only>
1

> <s_lp_Force_Field>
OPLS_2005

> <r_lp_Energy>
21.2682

> <b_lp_Chiralities_Consistent>
1

> <s_lp_Variant>
AV-unprocessed.smi:1434-6

> <Gold.Version>
5.8.1

> <Gold.Id.Protein>
6NUR|6NUR_protein|mol2

> <Gold.PLP.Fitness>
48.5977

> <Gold.PLP.PLP>
-39.5990

> <Gold.PLP.part.hbond>
-3.0000

> <Gold.PLP.part.metal>
0.0000

> <Gold.PLP.part.buried>
-5.8145

> <Gold.PLP.part.nonpolar>
-31.2922

> <Gold.PLP.part.repulsive>
0.1224

> <Gold.PLP.ligand.clash>
1.6029

> <Gold.PLP.ligand.torsion>
0.9332

> <Gold.PLP.Chemscore.Hbond>
3.8240

> <Gold.PLP.Chemscore.CHOScore>
0.0000

> <Gold.PLP.Chemscore.Metal>
0.0000

> <Gold.Chemscore.Hbonds>
donor molecule, donor type, donor heavy atom, donor atom, acceptor molecule, acceptor atom, score
      P1  H  6896  6909       L1     5  2.00
      P1  H  6931  6943       L1     4  0.98
      P1  H  6934  6947       L1     4  0.87

> <Gold.PLP.Chemscore.Internal.Correction>
0.9960

> <Gold.Rescore>
     Score         DG    S(hbond)    S(metal)    S(lipo)     H(rot)  DE(clash)    DE(int)     intcor
     18.84     -20.95       2.60        0.00      94.73       1.68       0.05       2.06       ----

> <Gold.Chemscore.Fitness>
18.8400

> <Gold.Chemscore.DG>
-20.9537

> <Gold.Chemscore.ZeroCoef>
-5.4800

> <Gold.Chemscore.Hbond>
2.6033

> <Gold.Chemscore.Metal>
0.0000

> <Gold.Chemscore.Lipo>
94.7260

> <Gold.Chemscore.Internal_Hbond>
0.0000

> <Gold.Chemscore.DEClash>
0.0512

> <Gold.Chemscore.DEInternal>
2.0625

> <Gold.Chemscore.Rot>
1.6813

> <Gold.Chemscore.Internal.Correction>
   9.000000E+99

> <Gold.Chemscore.Hbonds>
donor molecule, donor type, donor heavy atom, donor atom, acceptor molecule, acceptor atom, score
      P1  H  6896  6909       L1     5  0.34
      P1  H  6931  6943       L1     4  0.92
      P1  H  6934  6947       L1     4  0.81

> <Gold.Chemscore.Hbond.Weighted>
-8.6950

> <Gold.Chemscore.Metal.Weighted>
-0.0000

> <Gold.Chemscore.Lipo.Weighted>
-11.0829

> <Gold.Chemscore.Internal_Hbond.Weighted>
0.0000

> <Gold.Chemscore.DEClash.Weighted>
0.0512

> <Gold.Chemscore.DEInternal.Weighted>
2.0625

> <Gold.Chemscore.Rot.Weighted>
4.3042

> <Gold.Chemscore.Internal.Correction.Weighted>
   9.000000E+99

> <Gold.Protein.RotatedTorsions>
[ 6907 6896 6895 6894 ] final   45.06 input  -60.11 | X-H torsion
[ 7974 7965 7964 7962 ] final   39.68 input  175.53 | X-H torsion
[ 8008 7997 7996 7995 ] final   65.80 input   59.86 | X-H torsion
[ 10167 10162 10161 10158 ] final  107.09 input  -65.29 | X-H torsion
[ 10718 10713 10712 10709 ] final   76.07 input   66.30 | X-H torsion
[ 10763 10752 10751 10750 ] final   73.00 input  -60.55 | X-H torsion
[ 11005 11000 10999 10996 ] final -138.46 input  -57.11 | X-H torsion

> <Gold.Protein.ActiveResidues>
 VAL166  LYS551  ARG553  GLY616  TRP617  ASP618  TYR619  PRO620  LYS621  CYS622 
 ASP623  PHE694  ASN695  SER759  ASP760  ASP761  ALA762  ILE779  LEU786  VAL792 
 PHE793  MET794  SER795  GLU796  ALA797  LYS798  CYS799  TRP800  GLU811  SER814 

> <Gold.Protein.RotatedAtoms>
  152.2400  134.8238  160.0461 H   0  0  0  0  0  0  0  0  0  0  0  0  # atno 6907 bound_to 6896
  151.8956  133.3521  159.3821 H   0  0  0  0  0  0  0  0  0  0  0  0  # atno 6908 bound_to 6896
  150.7051  134.4806  159.5513 H   0  0  0  0  0  0  0  0  0  0  0  0  # atno 6909 bound_to 6896
  146.0965  139.5623  142.9442 H   0  0  0  0  0  0  0  0  0  0  0  0  # atno 7974 bound_to 7965
  155.6673  140.3497  155.4805 H   0  0  0  0  0  0  0  0  0  0  0  0  # atno 8008 bound_to 7997
  155.9718  140.1157  157.0829 H   0  0  0  0  0  0  0  0  0  0  0  0  # atno 8009 bound_to 7997
  154.4168  140.1155  156.5302 H   0  0  0  0  0  0  0  0  0  0  0  0  # atno 8010 bound_to 7997
  139.6956  144.7102  151.1273 H   0  0  0  0  0  0  0  0  0  0  0  0  # atno 10167 bound_to 10162
  157.6659  130.9757  150.1445 H   0  0  0  0  0  0  0  0  0  0  0  0  # atno 10718 bound_to 10713
  153.0493  135.5079  154.7827 H   0  0  0  0  0  0  0  0  0  0  0  0  # atno 10763 bound_to 10752
  154.6702  135.2952  154.9754 H   0  0  0  0  0  0  0  0  0  0  0  0  # atno 10764 bound_to 10752
  154.0575  135.6695  153.4860 H   0  0  0  0  0  0  0  0  0  0  0  0  # atno 10765 bound_to 10752
  140.8614  134.2165  157.4705 H   0  0  0  0  0  0  0  0  0  0  0  0  # atno 11005 bound_to 11000
  145.5937  141.0366  143.2056 LP  0  0  0  0  0  0  0  0  0  0  0  0  # atno 17320 bound_to 7965
  144.7399  139.7477  143.7314 LP  0  0  0  0  0  0  0  0  0  0  0  0  # atno 17321 bound_to 7965
  140.7695  143.5497  150.9219 LP  0  0  0  0  0  0  0  0  0  0  0  0  # atno 17342 bound_to 10162
  139.9176  143.6644  152.3103 LP  0  0  0  0  0  0  0  0  0  0  0  0  # atno 17343 bound_to 10162
  156.2259  130.3678  149.8501 LP  0  0  0  0  0  0  0  0  0  0  0  0  # atno 17370 bound_to 10713
  156.6341  130.8678  151.3501 LP  0  0  0  0  0  0  0  0  0  0  0  0  # atno 17371 bound_to 10713
  139.8707  134.9731  156.4797 LP  0  0  0  0  0  0  0  0  0  0  0  0  # atno 17394 bound_to 11000
  140.8679  133.8010  155.9333 LP  0  0  0  0  0  0  0  0  0  0  0  0  # atno 17395 bound_to 11000

$$$$
