AV-unprocessed.smi:753|AV-procd|sdf|3600|dock7
  -GOLD-   22720 0593D 1   1.00000     0.00000
 Structure written by MMmdl.
 43 45  0  0  0  0  0  0  0  0  1 V2000
  152.6879  141.9101  158.8990 C   0  0  0  0  0  0  0  0  0  0  0  0
  151.9630  141.2978  157.7188 C   0  0  0  0  0  0  0  0  0  0  0  0
  150.8160  141.9134  157.1746 C   0  0  0  0  0  0  0  0  0  0  0  0
  150.1811  141.2982  156.0786 C   0  0  0  0  0  0  0  0  0  0  0  0
  150.7165  140.0974  155.5693 C   0  0  0  0  0  0  0  0  0  0  0  0
  150.0678  139.3940  154.3940 C   0  0  0  0  0  0  0  0  0  0  0  0
  148.6008  139.0337  154.6752 C   0  0  0  0  0  0  0  0  0  0  0  0
  148.1443  137.9514  153.8131 N   0  0  0  0  0  0  0  0  0  0  0  0
  146.8642  137.5727  153.6615 C   0  0  0  0  0  0  0  0  0  0  0  0
  145.9259  138.1008  154.2551 O   0  0  0  0  0  0  0  0  0  0  0  0
  146.6777  136.5607  152.7962 N   0  0  0  0  0  0  0  0  0  0  0  0
  145.4131  135.9254  152.4163 C   0  0  1  0  0  0  0  0  0  0  0  0
  145.2359  135.9062  150.8818 C   0  0  0  0  0  0  0  0  0  0  0  0
  145.0651  134.4084  150.5679 C   0  0  1  0  0  0  0  0  0  0  0  0
  146.4137  133.6864  150.7496 C   0  0  0  0  0  0  0  0  0  0  0  0
  146.5799  133.6549  152.2804 C   0  0  0  0  0  0  0  0  0  0  0  0
  145.3305  134.4177  152.7712 C   0  0  2  0  0  0  0  0  0  0  0  0
  144.2813  133.9245  151.7804 C   0  0  0  0  0  0  0  0  0  0  0  0
  151.8676  139.5642  156.1862 C   0  0  0  0  0  0  0  0  0  0  0  0
  152.4821  140.1461  157.2387 N   0  0  0  0  0  0  0  0  0  0  0  0
  152.2306  142.8537  159.1979 H   0  0  0  0  0  0  0  0  0  0  0  0
  153.7306  142.1033  158.6458 H   0  0  0  0  0  0  0  0  0  0  0  0
  152.6607  141.2329  159.7531 H   0  0  0  0  0  0  0  0  0  0  0  0
  150.4287  142.8343  157.5854 H   0  0  0  0  0  0  0  0  0  0  0  0
  149.2990  141.7409  155.6394 H   0  0  0  0  0  0  0  0  0  0  0  0
  150.1385  140.0359  153.5147 H   0  0  0  0  0  0  0  0  0  0  0  0
  150.6376  138.4927  154.1633 H   0  0  0  0  0  0  0  0  0  0  0  0
  148.4886  138.7106  155.7105 H   0  0  0  0  0  0  0  0  0  0  0  0
  147.9603  139.9086  154.5505 H   0  0  0  0  0  0  0  0  0  0  0  0
  148.8500  137.4597  153.2842 H   0  0  0  0  0  0  0  0  0  0  0  0
  147.5065  136.1843  152.3593 H   0  0  0  0  0  0  0  0  0  0  0  0
  144.5757  136.4655  152.8620 H   0  0  0  0  0  0  0  0  0  0  0  0
  144.3429  136.4639  150.5964 H   0  0  0  0  0  0  0  0  0  0  0  0
  146.0791  136.3406  150.3423 H   0  0  0  0  0  0  0  0  0  0  0  0
  144.5912  134.2154  149.6051 H   0  0  0  0  0  0  0  0  0  0  0  0
  146.3722  132.6735  150.3475 H   0  0  0  0  0  0  0  0  0  0  0  0
  147.2315  134.2107  150.2536 H   0  0  0  0  0  0  0  0  0  0  0  0
  146.5612  132.6254  152.6405 H   0  0  0  0  0  0  0  0  0  0  0  0
  147.5205  134.0950  152.6114 H   0  0  0  0  0  0  0  0  0  0  0  0
  145.0905  134.2272  153.8177 H   0  0  0  0  0  0  0  0  0  0  0  0
  143.3131  134.4154  151.8946 H   0  0  0  0  0  0  0  0  0  0  0  0
  144.1380  132.8425  151.8005 H   0  0  0  0  0  0  0  0  0  0  0  0
  152.3062  138.6441  155.8287 H   0  0  0  0  0  0  0  0  0  0  0  0
  1  2  1  0  0  0  0
  1 21  1  0  0  0  0
  1 22  1  0  0  0  0
  1 23  1  0  0  0  0
  2 20  1  0  0  0  0
  2  3  2  0  0  0  0
  3  4  1  0  0  0  0
  3 24  1  0  0  0  0
  4  5  2  0  0  0  0
  4 25  1  0  0  0  0
  5  6  1  0  0  0  0
  5 19  1  0  0  0  0
  6  7  1  0  0  0  0
  6 26  1  0  0  0  0
  6 27  1  0  0  0  0
  7  8  1  0  0  0  0
  7 28  1  0  0  0  0
  7 29  1  0  0  0  0
  8  9  1  0  0  0  0
  8 30  1  0  0  0  0
  9 10  2  0  0  0  0
  9 11  1  0  0  0  0
 11 12  1  0  0  0  0
 11 31  1  0  0  0  0
 12 17  1  0  0  0  0
 12 13  1  0  0  0  0
 12 32  1  0  0  0  0
 13 14  1  0  0  0  0
 13 33  1  0  0  0  0
 13 34  1  0  0  0  0
 14 18  1  0  0  0  0
 14 15  1  0  0  0  0
 14 35  1  0  0  0  0
 15 16  1  0  0  0  0
 15 36  1  0  0  0  0
 15 37  1  0  0  0  0
 16 17  1  0  0  0  0
 16 38  1  0  0  0  0
 16 39  1  0  0  0  0
 17 18  1  0  0  0  0
 17 40  1  0  0  0  0
 18 41  1  0  0  0  0
 18 42  1  0  0  0  0
 19 20  2  0  0  0  0
 19 43  1  0  0  0  0
M  END
> <s_m_source_file>
AV-unprocessed.smi

> <i_m_source_file_index>
753

> <i_lp_mmshare_version>
43012

> <i_f3d_flags>
0

> <s_epik_input>
W0NIM11jMVtjSF1bY0hdYyhbY0hdbjEpW0NIMl1bQ0gyXVtOSF1DKD1PKVtOSF1bQ0BIXShbQ0gyXVtDQEBIXTIzKVtDQEBIXShbQ0gyXTMpW0NIMl1bQ0gyXTI=

> <s_epik_cmdline>
J2VwaWtfcHl0aG9uJywgJy1waCcsICc3LjAnLCAnLXRuJywgJzgnLCAnLW1hJywgJzIwMCcsICctbWV0YWxfYmluZGluZycsICctaW1hZScsICc8aW5maWxlLm1hZT4nLCAnLW9tYWUnLCAnPG91dGZpbGUubWFlPic=

> <r_epik_Ionization_Penalty>
0.0569047

> <r_epik_Ionization_Penalty_Charging>
0

> <r_epik_Ionization_Penalty_Neutral>
0.0569047

> <r_epik_State_Penalty>
0.0490541

> <r_epik_Charging_Adjusted_Penalty>
0.0490541

> <i_epik_Tot_Q>
0

> <i_epik_Tot_abs_Q>
0

> <r_epik_Metal_State_Penalty>
0.0447357

> <b_epik_Metal_Only>
0

> <s_lp_Force_Field>
OPLS_2005

> <r_lp_Energy>
50.4095

> <b_lp_Chiralities_Consistent>
1

> <s_lp_Variant>
AV-unprocessed.smi:753-2

> <Gold.Version>
5.8.1

> <Gold.Id.Protein>
6NUR|6NUR_protein|mol2

> <Gold.PLP.Fitness>
41.7919

> <Gold.PLP.PLP>
-33.7818

> <Gold.PLP.part.hbond>
-2.8827

> <Gold.PLP.part.metal>
0.0000

> <Gold.PLP.part.buried>
-3.2955

> <Gold.PLP.part.nonpolar>
-27.6585

> <Gold.PLP.part.repulsive>
0.1334

> <Gold.PLP.ligand.clash>
0.0000

> <Gold.PLP.ligand.torsion>
0.2035

> <Gold.PLP.Chemscore.Hbond>
2.8000

> <Gold.PLP.Chemscore.CHOScore>
0.0000

> <Gold.PLP.Chemscore.Metal>
0.0000

> <Gold.Chemscore.Hbonds>
donor molecule, donor type, donor heavy atom, donor atom, acceptor molecule, acceptor atom, score
      L1  H     8    30       P1  7948  0.80
      L1  H    11    31       P1  7948  0.98
      P1  H  7997  8009       L1    20  1.00

> <Gold.PLP.Chemscore.Internal.Correction>
0.0172

> <Gold.Rescore>
     Score         DG    S(hbond)    S(metal)    S(lipo)     H(rot)  DE(clash)    DE(int)     intcor
     20.75     -21.03       2.69        0.00      87.31       1.43       0.01       0.27       ----

> <Gold.Chemscore.Fitness>
20.7515

> <Gold.Chemscore.DG>
-21.0261

> <Gold.Chemscore.ZeroCoef>
-5.4800

> <Gold.Chemscore.Hbond>
2.6915

> <Gold.Chemscore.Metal>
0.0000

> <Gold.Chemscore.Lipo>
87.3072

> <Gold.Chemscore.Internal_Hbond>
0.0000

> <Gold.Chemscore.DEClash>
0.0092

> <Gold.Chemscore.DEInternal>
0.2654

> <Gold.Chemscore.Rot>
1.4291

> <Gold.Chemscore.Internal.Correction>
   9.000000E+99

> <Gold.Chemscore.Hbonds>
donor molecule, donor type, donor heavy atom, donor atom, acceptor molecule, acceptor atom, score
      L1  H     8    30       P1  7948  0.80
      L1  H    11    31       P1  7948  0.90
      P1  H  7997  8009       L1    20  0.40

> <Gold.Chemscore.Hbond.Weighted>
-8.9897

> <Gold.Chemscore.Metal.Weighted>
-0.0000

> <Gold.Chemscore.Lipo.Weighted>
-10.2149

> <Gold.Chemscore.Internal_Hbond.Weighted>
0.0000

> <Gold.Chemscore.DEClash.Weighted>
0.0092

> <Gold.Chemscore.DEInternal.Weighted>
0.2654

> <Gold.Chemscore.Rot.Weighted>
3.6585

> <Gold.Chemscore.Internal.Correction.Weighted>
   9.000000E+99

> <Gold.Protein.RotatedTorsions>
[ 6907 6896 6895 6894 ] final -153.35 input  -60.11 | X-H torsion
[ 7974 7965 7964 7962 ] final   98.72 input  175.53 | X-H torsion
[ 8008 7997 7996 7995 ] final  172.25 input   59.86 | X-H torsion
[ 10167 10162 10161 10158 ] final   10.06 input  -65.29 | X-H torsion
[ 10718 10713 10712 10709 ] final  -10.44 input   66.30 | X-H torsion
[ 10763 10752 10751 10750 ] final   88.27 input  -60.55 | X-H torsion
[ 11005 11000 10999 10996 ] final   57.71 input  -57.11 | X-H torsion

> <Gold.Protein.ActiveResidues>
 VAL166  LYS551  ARG553  GLY616  TRP617  ASP618  TYR619  PRO620  LYS621  CYS622 
 ASP623  PHE694  ASN695  SER759  ASP760  ASP761  ALA762  ILE779  LEU786  VAL792 
 PHE793  MET794  SER795  GLU796  ALA797  LYS798  CYS799  TRP800  GLU811  SER814 

> <Gold.Protein.RotatedAtoms>
  151.2413  133.4398  159.2607 H   0  0  0  0  0  0  0  0  0  0  0  0  # atno 6907 bound_to 6896
  151.0703  134.9794  159.8315 H   0  0  0  0  0  0  0  0  0  0  0  0  # atno 6908 bound_to 6896
  152.5411  134.2358  159.8895 H   0  0  0  0  0  0  0  0  0  0  0  0  # atno 6909 bound_to 6896
  145.4084  139.2337  143.3262 H   0  0  0  0  0  0  0  0  0  0  0  0  # atno 7974 bound_to 7965
  156.1192  140.1490  156.9229 H   0  0  0  0  0  0  0  0  0  0  0  0  # atno 8008 bound_to 7997
  154.4823  140.0875  156.7448 H   0  0  0  0  0  0  0  0  0  0  0  0  # atno 8009 bound_to 7997
  155.4458  140.3433  155.4297 H   0  0  0  0  0  0  0  0  0  0  0  0  # atno 8010 bound_to 7997
  140.6217  143.8190  150.7183 H   0  0  0  0  0  0  0  0  0  0  0  0  # atno 10167 bound_to 10162
  156.6735  130.5016  149.5993 H   0  0  0  0  0  0  0  0  0  0  0  0  # atno 10718 bound_to 10713
  153.1751  135.4513  154.9955 H   0  0  0  0  0  0  0  0  0  0  0  0  # atno 10763 bound_to 10752
  154.7993  135.3249  154.7593 H   0  0  0  0  0  0  0  0  0  0  0  0  # atno 10764 bound_to 10752
  153.8064  135.6958  153.4902 H   0  0  0  0  0  0  0  0  0  0  0  0  # atno 10765 bound_to 10752
  140.0432  134.5843  155.9355 H   0  0  0  0  0  0  0  0  0  0  0  0  # atno 11005 bound_to 11000
  146.2717  140.4791  142.8811 LP  0  0  0  0  0  0  0  0  0  0  0  0  # atno 17320 bound_to 7965
  144.8326  140.6731  143.6281 LP  0  0  0  0  0  0  0  0  0  0  0  0  # atno 17321 bound_to 7965
  140.1781  143.4138  152.1953 LP  0  0  0  0  0  0  0  0  0  0  0  0  # atno 17342 bound_to 10162
  139.5444  144.7286  151.4629 LP  0  0  0  0  0  0  0  0  0  0  0  0  # atno 17343 bound_to 10162
  156.1921  130.6566  151.1073 LP  0  0  0  0  0  0  0  0  0  0  0  0  # atno 17370 bound_to 10713
  157.7069  131.0752  150.6636 LP  0  0  0  0  0  0  0  0  0  0  0  0  # atno 17371 bound_to 10713
  141.1894  133.6565  156.5365 LP  0  0  0  0  0  0  0  0  0  0  0  0  # atno 17394 bound_to 11000
  140.4035  134.7335  157.4794 LP  0  0  0  0  0  0  0  0  0  0  0  0  # atno 17395 bound_to 11000

$$$$
