AV-unprocessed.smi:864|AV-procd|sdf|3989|dock2
  -GOLD-   22720 1463D 1   1.00000     0.00000
 Structure written by MMmdl.
 45 47  0  0  0  0  0  0  0  0  2 V2000
  144.1724  132.6639  148.1621 C   0  0  0  0  0  0  0  0  0  0  0  0
  144.6206  133.0109  149.5657 C   0  0  0  0  0  0  0  0  0  0  0  0
  145.8555  132.5760  150.0923 C   0  0  0  0  0  0  0  0  0  0  0  0
  146.1994  132.9222  151.4152 C   0  0  0  0  0  0  0  0  0  0  0  0
  145.3024  133.6951  152.1860 C   0  0  0  0  0  0  0  0  0  0  0  0
  145.6139  134.0299  153.6356 C   0  0  0  0  0  0  0  0  0  0  0  0
  147.0856  133.7785  154.0273 C   0  0  0  0  0  0  0  0  0  0  0  0
  147.8759  135.0085  154.0387 N   0  0  0  0  0  0  0  0  0  0  0  0
  148.4614  135.5393  155.1224 C   0  0  0  0  0  0  0  0  0  0  0  0
  148.3335  135.0956  156.2641 O   0  0  0  0  0  0  0  0  0  0  0  0
  149.2511  136.5746  154.8083 N   0  0  0  0  0  0  0  0  0  0  0  0
  150.1257  137.2629  155.7543 C   0  0  1  0  0  0  0  0  0  0  0  0
  151.5819  137.3392  155.2636 C   0  0  0  0  0  0  0  0  0  0  0  0
  151.9575  138.7936  155.4785 C   0  0  0  0  0  0  0  0  0  0  0  0
  153.1080  139.2073  155.3413 O   0  0  0  0  0  0  0  0  0  0  0  0
  150.8946  139.5238  155.8340 N   0  0  0  0  0  0  0  0  0  0  0  0
  150.9439  140.9005  156.2305 C   0  0  0  0  0  0  0  0  0  0  0  0
  150.7951  141.3025  157.6854 C   0  0  0  0  0  0  0  0  0  0  0  0
  149.6677  141.5508  156.7135 C   0  0  0  0  0  0  0  0  0  0  0  0
  149.6830  138.7237  155.9534 C   0  0  0  0  0  0  0  0  0  0  0  0
  144.0888  134.1147  151.6004 C   0  0  0  0  0  0  0  0  0  0  0  0
  143.7944  133.7592  150.3308 N   0  3  0  0  0  0  0  0  0  0  0  0
  144.9354  132.0885  147.6369 H   0  0  0  0  0  0  0  0  0  0  0  0
  143.9752  133.5706  147.5895 H   0  0  0  0  0  0  0  0  0  0  0  0
  143.2590  132.0689  148.1924 H   0  0  0  0  0  0  0  0  0  0  0  0
  146.5274  131.9755  149.4963 H   0  0  0  0  0  0  0  0  0  0  0  0
  147.1331  132.5803  151.8372 H   0  0  0  0  0  0  0  0  0  0  0  0
  145.3617  135.0749  153.8212 H   0  0  0  0  0  0  0  0  0  0  0  0
  144.9580  133.4428  154.2794 H   0  0  0  0  0  0  0  0  0  0  0  0
  147.1284  133.3342  155.0218 H   0  0  0  0  0  0  0  0  0  0  0  0
  147.5326  133.0474  153.3514 H   0  0  0  0  0  0  0  0  0  0  0  0
  148.0375  135.4519  153.1458 H   0  0  0  0  0  0  0  0  0  0  0  0
  149.2923  136.8730  153.8446 H   0  0  0  0  0  0  0  0  0  0  0  0
  150.0948  136.7477  156.7165 H   0  0  0  0  0  0  0  0  0  0  0  0
  152.2383  136.6744  155.8262 H   0  0  0  0  0  0  0  0  0  0  0  0
  151.6782  137.1037  154.2029 H   0  0  0  0  0  0  0  0  0  0  0  0
  151.6083  141.5330  155.6434 H   0  0  0  0  0  0  0  0  0  0  0  0
  150.6332  140.5359  158.4399 H   0  0  0  0  0  0  0  0  0  0  0  0
  151.3611  142.1679  158.0241 H   0  0  0  0  0  0  0  0  0  0  0  0
  149.4827  142.5784  156.4074 H   0  0  0  0  0  0  0  0  0  0  0  0
  148.7819  140.9250  156.8040 H   0  0  0  0  0  0  0  0  0  0  0  0
  148.9721  139.0417  155.1886 H   0  0  0  0  0  0  0  0  0  0  0  0
  149.2153  138.8617  156.9292 H   0  0  0  0  0  0  0  0  0  0  0  0
  143.3378  134.6972  152.1141 H   0  0  0  0  0  0  0  0  0  0  0  0
  142.9042  134.0620  149.9346 H   0  0  0  0  0  0  0  0  0  0  0  0
  1  2  1  0  0  0  0
  1 23  1  0  0  0  0
  1 24  1  0  0  0  0
  1 25  1  0  0  0  0
  2 22  1  0  0  0  0
  2  3  2  0  0  0  0
  3  4  1  0  0  0  0
  3 26  1  0  0  0  0
  4  5  2  0  0  0  0
  4 27  1  0  0  0  0
  5  6  1  0  0  0  0
  5 21  1  0  0  0  0
  6  7  1  0  0  0  0
  6 28  1  0  0  0  0
  6 29  1  0  0  0  0
  7  8  1  0  0  0  0
  7 30  1  0  0  0  0
  7 31  1  0  0  0  0
  8  9  1  0  0  0  0
  8 32  1  0  0  0  0
  9 10  2  0  0  0  0
  9 11  1  0  0  0  0
 11 12  1  0  0  0  0
 11 33  1  0  0  0  0
 12 20  1  0  0  0  0
 12 13  1  0  0  0  0
 12 34  1  0  0  0  0
 13 14  1  0  0  0  0
 13 35  1  0  0  0  0
 13 36  1  0  0  0  0
 14 15  2  0  0  0  0
 14 16  1  0  0  0  0
 16 17  1  0  0  0  0
 16 20  1  0  0  0  0
 17 19  1  0  0  0  0
 17 18  1  0  0  0  0
 17 37  1  0  0  0  0
 18 19  1  0  0  0  0
 18 38  1  0  0  0  0
 18 39  1  0  0  0  0
 19 40  1  0  0  0  0
 19 41  1  0  0  0  0
 20 42  1  0  0  0  0
 20 43  1  0  0  0  0
 21 22  2  0  0  0  0
 21 44  1  0  0  0  0
 22 45  1  0  0  0  0
M  CHG  1  22   1
M  END
> <s_m_source_file>
AV-unprocessed.smi

> <i_m_source_file_index>
864

> <i_lp_mmshare_version>
43012

> <i_f3d_flags>
0

> <s_epik_input>
W0NIM11jMVtjSF1bY0hdYyhbY0hdbjEpW0NIMl1bQ0gyXVtOSF1DKD1PKVtOSF1bQ0BASF0yW0NIMl1DKD1PKU4oW0NIMl0yKVtDSF0zW0NIMl1bQ0gyXTM=

> <s_epik_cmdline>
J2VwaWtfcHl0aG9uJywgJy1waCcsICc3LjAnLCAnLXRuJywgJzgnLCAnLW1hJywgJzIwMCcsICctbWV0YWxfYmluZGluZycsICctaW1hZScsICc8aW5maWxlLm1hZT4nLCAnLW9tYWUnLCAnPG91dGZpbGUubWFlPic=

> <r_epik_Ionization_Penalty>
1.42657

> <r_epik_Ionization_Penalty_Charging>
1.42653

> <r_epik_Ionization_Penalty_Neutral>
4.57062e-05

> <r_epik_State_Penalty>
1.51075

> <r_epik_Charging_Adjusted_Penalty>
2.93728

> <i_epik_Tot_Q>
1

> <i_epik_Tot_abs_Q>
1

> <r_epik_Metal_State_Penalty>
1.56242

> <b_epik_Metal_Only>
0

> <s_lp_Force_Field>
OPLS_2005

> <r_lp_Energy>
39.135

> <b_lp_Chiralities_Consistent>
1

> <s_lp_Variant>
AV-unprocessed.smi:864-4

> <Gold.Version>
5.8.1

> <Gold.Id.Protein>
6NUR|6NUR_protein|mol2

> <Gold.PLP.Fitness>
53.7543

> <Gold.PLP.PLP>
-40.8174

> <Gold.PLP.part.hbond>
-4.8116

> <Gold.PLP.part.metal>
0.0000

> <Gold.PLP.part.buried>
-3.1633

> <Gold.PLP.part.nonpolar>
-31.9047

> <Gold.PLP.part.repulsive>
0.0735

> <Gold.PLP.ligand.clash>
0.0000

> <Gold.PLP.ligand.torsion>
0.6179

> <Gold.PLP.Chemscore.Hbond>
4.6640

> <Gold.PLP.Chemscore.CHOScore>
0.0000

> <Gold.PLP.Chemscore.Metal>
0.0000

> <Gold.Chemscore.Hbonds>
donor molecule, donor type, donor heavy atom, donor atom, acceptor molecule, acceptor atom, score
      L1  H     8    32       P1  7948  1.00
      L1  H    11    33       P1  7948  0.73
      L1  H    22    45       P1 10186  2.00
      P1  H  7997  8009       L1    15  1.00

> <Gold.PLP.Chemscore.Internal.Correction>
0.1806

> <Gold.Rescore>
     Score         DG    S(hbond)    S(metal)    S(lipo)     H(rot)  DE(clash)    DE(int)     intcor
     22.65     -23.43       3.65        0.00      89.34       1.84       0.00       0.77       ----

> <Gold.Chemscore.Fitness>
22.6518

> <Gold.Chemscore.DG>
-23.4306

> <Gold.Chemscore.ZeroCoef>
-5.4800

> <Gold.Chemscore.Hbond>
3.6536

> <Gold.Chemscore.Metal>
0.0000

> <Gold.Chemscore.Lipo>
89.3416

> <Gold.Chemscore.Internal_Hbond>
0.0000

> <Gold.Chemscore.DEClash>
0.0048

> <Gold.Chemscore.DEInternal>
0.7739

> <Gold.Chemscore.Rot>
1.8381

> <Gold.Chemscore.Internal.Correction>
   9.000000E+99

> <Gold.Chemscore.Hbonds>
donor molecule, donor type, donor heavy atom, donor atom, acceptor molecule, acceptor atom, score
      L1  H     8    32       P1  7948  0.99
      L1  H    11    33       P1  7948  0.71
      L1  H    22    45       P1 10186  0.98
      P1  H  7997  8009       L1    15  1.00

> <Gold.Chemscore.Hbond.Weighted>
-12.2030

> <Gold.Chemscore.Metal.Weighted>
-0.0000

> <Gold.Chemscore.Lipo.Weighted>
-10.4530

> <Gold.Chemscore.Internal_Hbond.Weighted>
0.0000

> <Gold.Chemscore.DEClash.Weighted>
0.0048

> <Gold.Chemscore.DEInternal.Weighted>
0.7739

> <Gold.Chemscore.Rot.Weighted>
4.7054

> <Gold.Chemscore.Internal.Correction.Weighted>
   9.000000E+99

> <Gold.Protein.RotatedTorsions>
[ 6907 6896 6895 6894 ] final   -8.18 input  -60.11 | X-H torsion
[ 7974 7965 7964 7962 ] final -179.55 input  175.53 | X-H torsion
[ 8008 7997 7996 7995 ] final -146.23 input   59.86 | X-H torsion
[ 10167 10162 10161 10158 ] final -125.12 input  -65.29 | X-H torsion
[ 10718 10713 10712 10709 ] final -173.47 input   66.30 | X-H torsion
[ 10763 10752 10751 10750 ] final -104.68 input  -60.55 | X-H torsion
[ 11005 11000 10999 10996 ] final  -41.27 input  -57.11 | X-H torsion

> <Gold.Protein.ActiveResidues>
 VAL166  LYS551  ARG553  GLY616  TRP617  ASP618  TYR619  PRO620  LYS621  CYS622 
 ASP623  PHE694  ASN695  SER759  ASP760  ASP761  ALA762  ILE779  LEU786  VAL792 
 PHE793  MET794  SER795  GLU796  ALA797  LYS798  CYS799  TRP800  GLU811  SER814 

> <Gold.Protein.RotatedAtoms>
  151.4377  135.1017  159.9660 H   0  0  0  0  0  0  0  0  0  0  0  0  # atno 6907 bound_to 6896
  152.4933  133.8558  159.7235 H   0  0  0  0  0  0  0  0  0  0  0  0  # atno 6908 bound_to 6896
  150.9110  133.6939  159.2882 H   0  0  0  0  0  0  0  0  0  0  0  0  # atno 6909 bound_to 6896
  144.7137  140.0700  143.6429 H   0  0  0  0  0  0  0  0  0  0  0  0  # atno 7974 bound_to 7965
  155.5561  140.0621  157.2839 H   0  0  0  0  0  0  0  0  0  0  0  0  # atno 8008 bound_to 7997
  154.4405  140.1894  156.0780 H   0  0  0  0  0  0  0  0  0  0  0  0  # atno 8009 bound_to 7997
  156.0481  140.3287  155.7323 H   0  0  0  0  0  0  0  0  0  0  0  0  # atno 8010 bound_to 7997
  139.9855  143.5696  152.2362 H   0  0  0  0  0  0  0  0  0  0  0  0  # atno 10167 bound_to 10162
  156.7708  130.9448  151.3120 H   0  0  0  0  0  0  0  0  0  0  0  0  # atno 10718 bound_to 10713
  154.7895  135.4777  154.0020 H   0  0  0  0  0  0  0  0  0  0  0  0  # atno 10763 bound_to 10752
  153.1609  135.6808  153.8751 H   0  0  0  0  0  0  0  0  0  0  0  0  # atno 10764 bound_to 10752
  153.8365  135.3185  155.3401 H   0  0  0  0  0  0  0  0  0  0  0  0  # atno 10765 bound_to 10752
  141.0234  133.6852  156.2434 H   0  0  0  0  0  0  0  0  0  0  0  0  # atno 11005 bound_to 11000
  145.9791  139.2927  143.1052 LP  0  0  0  0  0  0  0  0  0  0  0  0  # atno 17320 bound_to 7965
  145.9031  140.9230  143.0493 LP  0  0  0  0  0  0  0  0  0  0  0  0  # atno 17321 bound_to 7965
  139.6378  144.7652  151.2401 LP  0  0  0  0  0  0  0  0  0  0  0  0  # atno 17342 bound_to 10162
  140.7474  143.6368  150.8371 LP  0  0  0  0  0  0  0  0  0  0  0  0  # atno 17343 bound_to 10162
  157.6692  130.9035  150.0000 LP  0  0  0  0  0  0  0  0  0  0  0  0  # atno 17370 bound_to 10713
  156.1279  130.3644  149.9779 LP  0  0  0  0  0  0  0  0  0  0  0  0  # atno 17371 bound_to 10713
  140.6534  134.5043  157.5579 LP  0  0  0  0  0  0  0  0  0  0  0  0  # atno 17394 bound_to 11000
  139.9160  134.8245  156.1365 LP  0  0  0  0  0  0  0  0  0  0  0  0  # atno 17395 bound_to 11000

$$$$
