AV-unprocessed.smi:1798|AV-procd|sdf|7260|dock3
  -GOLD-   22720 8513D 1   1.00000     0.00000
 Structure written by MMmdl.
 40 41  0  0  0  0  0  0  0  0  3 V2000
  151.0057  144.6472  160.8701 C   0  0  0  0  0  0  0  0  0  0  0  0
  152.1825  143.6650  160.9589 C   0  0  2  0  0  0  0  0  0  0  0  0
  152.6167  143.1776  159.5634 C   0  0  0  0  0  0  0  0  0  0  0  0
  153.7937  142.1889  159.6466 C   0  0  0  0  0  0  0  0  0  0  0  0
  153.4894  140.9933  160.5696 C   0  0  2  0  0  0  0  0  0  0  0  0
  152.4969  140.1166  159.9503 N   0  0  0  0  0  0  0  0  0  0  0  0
  152.7333  139.2545  158.9501 C   0  0  0  0  0  0  0  0  0  0  0  0
  153.8440  139.1006  158.4398 O   0  0  0  0  0  0  0  0  0  0  0  0
  151.5261  138.4326  158.4765 C   0  0  0  0  0  0  0  0  0  0  0  0
  151.1937  138.6473  157.0579 N   0  0  0  0  0  0  0  0  0  0  0  0
  150.3643  139.7449  156.7539 C   0  0  0  0  0  0  0  0  0  0  0  0
  149.9919  140.0331  155.4914 C   0  0  0  0  0  0  0  0  0  0  0  0
  149.1367  141.1622  155.1981 N   0  3  0  0  0  0  0  0  0  0  0  0
  148.4201  141.6046  156.0901 O   0  0  0  0  0  0  0  0  0  0  0  0
  149.1516  141.6433  154.0690 O   0  5  0  0  0  0  0  0  0  0  0  0
  150.4763  139.1693  154.4321 C   0  0  0  0  0  0  0  0  0  0  0  0
  151.2663  138.1154  154.7168 C   0  0  0  0  0  0  0  0  0  0  0  0
  151.6670  137.8017  156.0922 C   0  0  0  0  0  0  0  0  0  0  0  0
  152.3842  136.8373  156.3591 O   0  0  0  0  0  0  0  0  0  0  0  0
  153.0252  141.4793  161.9591 C   0  0  0  0  0  0  0  0  0  0  0  0
  151.8487  142.4669  161.8680 C   0  0  0  0  0  0  0  0  0  0  0  0
  150.1256  144.1742  160.4333 H   0  0  0  0  0  0  0  0  0  0  0  0
  151.2607  145.5102  160.2543 H   0  0  0  0  0  0  0  0  0  0  0  0
  150.7285  145.0179  161.8572 H   0  0  0  0  0  0  0  0  0  0  0  0
  153.0230  144.1997  161.4039 H   0  0  0  0  0  0  0  0  0  0  0  0
  151.7739  142.7037  159.0587 H   0  0  0  0  0  0  0  0  0  0  0  0
  152.9023  144.0293  158.9448 H   0  0  0  0  0  0  0  0  0  0  0  0
  154.0591  141.8380  158.6485 H   0  0  0  0  0  0  0  0  0  0  0  0
  154.6712  142.7153  160.0240 H   0  0  0  0  0  0  0  0  0  0  0  0
  154.4127  140.4237  160.6907 H   0  0  0  0  0  0  0  0  0  0  0  0
  151.5561  140.1719  160.3128 H   0  0  0  0  0  0  0  0  0  0  0  0
  151.7379  137.3790  158.6639 H   0  0  0  0  0  0  0  0  0  0  0  0
  150.6638  138.6651  159.1045 H   0  0  0  0  0  0  0  0  0  0  0  0
  150.0522  140.3216  157.6127 H   0  0  0  0  0  0  0  0  0  0  0  0
  150.2083  139.3602  153.4033 H   0  0  0  0  0  0  0  0  0  0  0  0
  151.6147  137.4842  153.9125 H   0  0  0  0  0  0  0  0  0  0  0  0
  152.7536  140.6327  162.5907 H   0  0  0  0  0  0  0  0  0  0  0  0
  153.8605  141.9703  162.4603 H   0  0  0  0  0  0  0  0  0  0  0  0
  151.5931  142.8187  162.8680 H   0  0  0  0  0  0  0  0  0  0  0  0
  150.9651  141.9503  161.4905 H   0  0  0  0  0  0  0  0  0  0  0  0
  1  2  1  0  0  0  0
  1 22  1  0  0  0  0
  1 23  1  0  0  0  0
  1 24  1  0  0  0  0
  2 21  1  0  0  0  0
  2  3  1  0  0  0  0
  2 25  1  0  0  0  0
  3  4  1  0  0  0  0
  3 26  1  0  0  0  0
  3 27  1  0  0  0  0
  4  5  1  0  0  0  0
  4 28  1  0  0  0  0
  4 29  1  0  0  0  0
  5  6  1  0  0  0  0
  5 20  1  0  0  0  0
  5 30  1  0  0  0  0
  6  7  1  0  0  0  0
  6 31  1  0  0  0  0
  7  8  2  0  0  0  0
  7  9  1  0  0  0  0
  9 10  1  0  0  0  0
  9 32  1  0  0  0  0
  9 33  1  0  0  0  0
 10 18  1  0  0  0  0
 10 11  1  0  0  0  0
 11 12  2  0  0  0  0
 11 34  1  0  0  0  0
 12 13  1  0  0  0  0
 12 16  1  0  0  0  0
 13 14  2  0  0  0  0
 13 15  1  0  0  0  0
 16 17  2  0  0  0  0
 16 35  1  0  0  0  0
 17 18  1  0  0  0  0
 17 36  1  0  0  0  0
 18 19  2  0  0  0  0
 20 21  1  0  0  0  0
 20 37  1  0  0  0  0
 20 38  1  0  0  0  0
 21 39  1  0  0  0  0
 21 40  1  0  0  0  0
M  CHG  1  13   1
M  CHG  1  15  -1
M  END
> <s_m_source_file>
AV-unprocessed.smi

> <i_m_source_file_index>
1798

> <i_lp_mmshare_version>
43012

> <i_f3d_flags>
0

> <s_epik_input>
W0NIM11bQ0BASF0xW0NIMl1bQ0gyXVtDQEhdKFtDSDJdW0NIMl0xKVtOSF1DKD1PKVtDSDJdbjJbY0hdYyhbTitdKD1PKVtPLV0pW2NIXVtjSF1jMj1P

> <s_epik_cmdline>
J2VwaWtfcHl0aG9uJywgJy1waCcsICc3LjAnLCAnLXRuJywgJzgnLCAnLW1hJywgJzIwMCcsICctbWV0YWxfYmluZGluZycsICctaW1hZScsICc8aW5maWxlLm1hZT4nLCAnLW9tYWUnLCAnPG91dGZpbGUubWFlPic=

> <r_lp_tautomer_probability>
1

> <r_epik_Ionization_Penalty>
1.91292e-08

> <r_epik_Ionization_Penalty_Charging>
8.23013e-11

> <r_epik_Ionization_Penalty_Neutral>
1.90469e-08

> <r_epik_State_Penalty>
-0

> <r_epik_Charging_Adjusted_Penalty>
8.23013e-11

> <i_epik_Tot_Q>
0

> <i_epik_Tot_abs_Q>
2

> <r_epik_Metal_State_Penalty>
-0

> <b_epik_Metal_Only>
0

> <s_lp_Force_Field>
OPLS_2005

> <r_lp_Energy>
19.5482

> <b_lp_Chiralities_Consistent>
1

> <s_lp_Variant>
AV-unprocessed.smi:1798-2

> <Gold.Version>
5.8.1

> <Gold.Id.Protein>
6NUR|6NUR_protein|mol2

> <Gold.PLP.Fitness>
47.7490

> <Gold.PLP.PLP>
-41.0377

> <Gold.PLP.part.hbond>
-3.8516

> <Gold.PLP.part.metal>
0.0000

> <Gold.PLP.part.buried>
-6.9401

> <Gold.PLP.part.nonpolar>
-32.1007

> <Gold.PLP.part.repulsive>
1.3012

> <Gold.PLP.ligand.clash>
0.0000

> <Gold.PLP.ligand.torsion>
0.8145

> <Gold.PLP.Chemscore.Hbond>
2.7760

> <Gold.PLP.Chemscore.CHOScore>
0.0000

> <Gold.PLP.Chemscore.Metal>
0.0000

> <Gold.Chemscore.Hbonds>
donor molecule, donor type, donor heavy atom, donor atom, acceptor molecule, acceptor atom, score
      P1  H  7997  8010       L1     8  1.00
      P1  H  8011  8017       L1    15  0.59
      P1  H 10752 10763       L1    19  1.00

> <Gold.PLP.Chemscore.Internal.Correction>
0.0122

> <Gold.Rescore>
     Score         DG    S(hbond)    S(metal)    S(lipo)     H(rot)  DE(clash)    DE(int)     intcor
     20.38     -23.04       2.66        0.00     108.17       1.55       1.42       1.24       ----

> <Gold.Chemscore.Fitness>
20.3849

> <Gold.Chemscore.DG>
-23.0439

> <Gold.Chemscore.ZeroCoef>
-5.4800

> <Gold.Chemscore.Hbond>
2.6577

> <Gold.Chemscore.Metal>
0.0000

> <Gold.Chemscore.Lipo>
108.1734

> <Gold.Chemscore.Internal_Hbond>
0.0000

> <Gold.Chemscore.DEClash>
1.4213

> <Gold.Chemscore.DEInternal>
1.2377

> <Gold.Chemscore.Rot>
1.5505

> <Gold.Chemscore.Internal.Correction>
   9.000000E+99

> <Gold.Chemscore.Hbonds>
donor molecule, donor type, donor heavy atom, donor atom, acceptor molecule, acceptor atom, score
      P1  H  7997  8010       L1     8  0.95
      P1  H  8011  8017       L1    15  0.58
      P1  H 10752 10763       L1    19  0.89

> <Gold.Chemscore.Hbond.Weighted>
-8.8768

> <Gold.Chemscore.Metal.Weighted>
-0.0000

> <Gold.Chemscore.Lipo.Weighted>
-12.6563

> <Gold.Chemscore.Internal_Hbond.Weighted>
0.0000

> <Gold.Chemscore.DEClash.Weighted>
1.4213

> <Gold.Chemscore.DEInternal.Weighted>
1.2377

> <Gold.Chemscore.Rot.Weighted>
3.9692

> <Gold.Chemscore.Internal.Correction.Weighted>
   9.000000E+99

> <Gold.Protein.RotatedTorsions>
[ 6907 6896 6895 6894 ] final  -38.45 input  -60.11 | X-H torsion
[ 7974 7965 7964 7962 ] final  -91.70 input  175.53 | X-H torsion
[ 8008 7997 7996 7995 ] final   41.66 input   59.86 | X-H torsion
[ 10167 10162 10161 10158 ] final -151.43 input  -65.29 | X-H torsion
[ 10718 10713 10712 10709 ] final   46.17 input   66.30 | X-H torsion
[ 10763 10752 10751 10750 ] final  100.78 input  -60.55 | X-H torsion
[ 11005 11000 10999 10996 ] final  -14.66 input  -57.11 | X-H torsion

> <Gold.Protein.ActiveResidues>
 VAL166  LYS551  ARG553  GLY616  TRP617  ASP618  TYR619  PRO620  LYS621  CYS622 
 ASP623  PHE694  ASN695  SER759  ASP760  ASP761  ALA762  ILE779  LEU786  VAL792 
 PHE793  MET794  SER795  GLU796  ALA797  LYS798  CYS799  TRP800  GLU811  SER814 

> <Gold.Protein.RotatedAtoms>
  151.0022  134.9331  159.7960 H   0  0  0  0  0  0  0  0  0  0  0  0  # atno 6907 bound_to 6896
  152.5281  134.3138  159.9133 H   0  0  0  0  0  0  0  0  0  0  0  0  # atno 6908 bound_to 6896
  151.3144  133.4025  159.2684 H   0  0  0  0  0  0  0  0  0  0  0  0  # atno 6909 bound_to 6896
  145.4097  140.9544  143.2241 H   0  0  0  0  0  0  0  0  0  0  0  0  # atno 7974 bound_to 7965
  155.2733  140.3367  155.4263 H   0  0  0  0  0  0  0  0  0  0  0  0  # atno 8008 bound_to 7997
  156.2123  140.1775  156.7710 H   0  0  0  0  0  0  0  0  0  0  0  0  # atno 8009 bound_to 7997
  154.5703  140.0671  156.8939 H   0  0  0  0  0  0  0  0  0  0  0  0  # atno 8010 bound_to 7997
  139.7268  143.8871  152.2522 H   0  0  0  0  0  0  0  0  0  0  0  0  # atno 10167 bound_to 10162
  157.4453  130.8105  149.7734 H   0  0  0  0  0  0  0  0  0  0  0  0  # atno 10718 bound_to 10713
  153.3183  135.4067  155.1395 H   0  0  0  0  0  0  0  0  0  0  0  0  # atno 10763 bound_to 10752
  154.8594  135.3581  154.5631 H   0  0  0  0  0  0  0  0  0  0  0  0  # atno 10764 bound_to 10752
  153.6063  135.7069  153.5423 H   0  0  0  0  0  0  0  0  0  0  0  0  # atno 10765 bound_to 10752
  140.7887  133.8305  155.9359 H   0  0  0  0  0  0  0  0  0  0  0  0  # atno 11005 bound_to 11000
  144.8318  139.5616  143.6940 LP  0  0  0  0  0  0  0  0  0  0  0  0  # atno 17320 bound_to 7965
  146.2711  139.6638  142.9295 LP  0  0  0  0  0  0  0  0  0  0  0  0  # atno 17321 bound_to 7965
  139.8783  144.7031  150.8907 LP  0  0  0  0  0  0  0  0  0  0  0  0  # atno 17342 bound_to 10162
  140.7764  143.3682  151.1699 LP  0  0  0  0  0  0  0  0  0  0  0  0  # atno 17343 bound_to 10162
  155.9965  130.3905  150.2777 LP  0  0  0  0  0  0  0  0  0  0  0  0  # atno 17370 bound_to 10713
  157.0945  131.0179  151.3109 LP  0  0  0  0  0  0  0  0  0  0  0  0  # atno 17371 bound_to 10713
  140.9411  134.1899  157.4797 LP  0  0  0  0  0  0  0  0  0  0  0  0  # atno 17394 bound_to 11000
  139.8734  134.9872  156.5358 LP  0  0  0  0  0  0  0  0  0  0  0  0  # atno 17395 bound_to 11000

$$$$
