AV-unprocessed.smi:3303|AV-procd|sdf|12670|dock5
  -GOLD-   2272019 03D 1   1.00000     0.00000
 Structure written by MMmdl.
 45 46  0  0  0  0  0  0  0  0  3 V2000
  147.1541  141.7758  154.2851 C   0  0  0  0  0  0  0  0  0  0  0  0
  148.1079  140.6249  154.6512 C   0  0  1  0  0  0  0  0  0  0  0  0
  147.9711  139.4803  153.6194 C   0  0  0  0  0  0  0  0  0  0  0  0
  148.8847  138.3432  153.9017 N   0  3  2  0  0  0  0  0  0  0  0  0
  148.4330  137.5081  155.0439 C   0  0  0  0  0  0  0  0  0  0  0  0
  150.3077  138.7859  153.9517 C   0  0  2  0  0  0  0  0  0  0  0  0
  151.2936  137.6187  154.1319 C   0  0  0  0  0  0  0  0  0  0  0  0
  150.5106  139.8964  155.0026 C   0  0  0  0  0  0  0  0  0  0  0  0
  149.5786  141.0960  154.7492 C   0  0  2  0  0  0  0  0  0  0  0  0
  149.7462  142.0897  155.8346 N   0  3  0  0  0  0  0  0  0  0  0  0
  149.2174  141.6691  157.1477 C   0  0  0  0  0  0  0  0  0  0  0  0
  150.2572  140.8480  157.9220 C   0  0  0  0  0  0  0  0  0  0  0  0
  151.3040  141.7244  158.5824 C   0  0  0  0  0  0  0  0  0  0  0  0
  152.3381  141.1552  159.3556 C   0  0  0  0  0  0  0  0  0  0  0  0
  153.2808  142.0156  159.9513 C   0  0  0  0  0  0  0  0  0  0  0  0
  153.1522  143.4037  159.7527 C   0  0  0  0  0  0  0  0  0  0  0  0
  152.0822  143.8723  158.9646 C   0  0  0  0  0  0  0  0  0  0  0  0
  151.1719  143.0558  158.3900 N   0  0  0  0  0  0  0  0  0  0  0  0
  147.4203  142.2226  153.3266 H   0  0  0  0  0  0  0  0  0  0  0  0
  147.1687  142.5660  155.0359 H   0  0  0  0  0  0  0  0  0  0  0  0
  146.1252  141.4223  154.2106 H   0  0  0  0  0  0  0  0  0  0  0  0
  147.8010  140.2451  155.6268 H   0  0  0  0  0  0  0  0  0  0  0  0
  146.9416  139.1213  153.5796 H   0  0  0  0  0  0  0  0  0  0  0  0
  148.1959  139.8580  152.6205 H   0  0  0  0  0  0  0  0  0  0  0  0
  148.5403  138.0235  155.9979 H   0  0  0  0  0  0  0  0  0  0  0  0
  148.9918  136.5742  155.0970 H   0  0  0  0  0  0  0  0  0  0  0  0
  147.3830  137.2381  154.9262 H   0  0  0  0  0  0  0  0  0  0  0  0
  150.5235  139.2189  152.9732 H   0  0  0  0  0  0  0  0  0  0  0  0
  152.3215  137.9591  154.0036 H   0  0  0  0  0  0  0  0  0  0  0  0
  151.1162  136.8343  153.3953 H   0  0  0  0  0  0  0  0  0  0  0  0
  151.2250  137.1735  155.1248 H   0  0  0  0  0  0  0  0  0  0  0  0
  150.3458  139.4983  156.0048 H   0  0  0  0  0  0  0  0  0  0  0  0
  151.5478  140.2336  154.9802 H   0  0  0  0  0  0  0  0  0  0  0  0
  149.8615  141.5457  153.7951 H   0  0  0  0  0  0  0  0  0  0  0  0
  150.7319  142.2854  155.9374 H   0  0  0  0  0  0  0  0  0  0  0  0
  148.9347  142.5550  157.7182 H   0  0  0  0  0  0  0  0  0  0  0  0
  148.3138  141.0760  156.9998 H   0  0  0  0  0  0  0  0  0  0  0  0
  149.7636  140.2444  158.6848 H   0  0  0  0  0  0  0  0  0  0  0  0
  150.7569  140.1470  157.2515 H   0  0  0  0  0  0  0  0  0  0  0  0
  152.4110  140.0860  159.4911 H   0  0  0  0  0  0  0  0  0  0  0  0
  154.0868  141.6184  160.5505 H   0  0  0  0  0  0  0  0  0  0  0  0
  153.8568  144.0933  160.1938 H   0  0  0  0  0  0  0  0  0  0  0  0
  151.9532  144.9305  158.7922 H   0  0  0  0  0  0  0  0  0  0  0  0
  149.2781  142.9434  155.5646 H   0  0  0  0  0  0  0  0  0  0  0  0
  148.8151  137.7360  153.0968 H   0  0  0  0  0  0  0  0  0  0  0  0
  1  2  1  0  0  0  0
  1 19  1  0  0  0  0
  1 20  1  0  0  0  0
  1 21  1  0  0  0  0
  2  9  1  0  0  0  0
  2  3  1  0  0  0  0
  2 22  1  0  0  0  0
  3  4  1  0  0  0  0
  3 23  1  0  0  0  0
  3 24  1  0  0  0  0
  4  5  1  0  0  0  0
  4  6  1  0  0  0  0
  4 45  1  0  0  0  0
  5 25  1  0  0  0  0
  5 26  1  0  0  0  0
  5 27  1  0  0  0  0
  6  7  1  0  0  0  0
  6  8  1  0  0  0  0
  6 28  1  0  0  0  0
  7 29  1  0  0  0  0
  7 30  1  0  0  0  0
  7 31  1  0  0  0  0
  8  9  1  0  0  0  0
  8 32  1  0  0  0  0
  8 33  1  0  0  0  0
  9 10  1  0  0  0  0
  9 34  1  0  0  0  0
 10 11  1  0  0  0  0
 10 35  1  0  0  0  0
 10 44  1  0  0  0  0
 11 12  1  0  0  0  0
 11 36  1  0  0  0  0
 11 37  1  0  0  0  0
 12 13  1  0  0  0  0
 12 38  1  0  0  0  0
 12 39  1  0  0  0  0
 13 18  1  0  0  0  0
 13 14  2  0  0  0  0
 14 15  1  0  0  0  0
 14 40  1  0  0  0  0
 15 16  2  0  0  0  0
 15 41  1  0  0  0  0
 16 17  1  0  0  0  0
 16 42  1  0  0  0  0
 17 18  2  0  0  0  0
 17 43  1  0  0  0  0
M  CHG  1   4   1
M  CHG  1  10   1
M  END
> <s_m_source_file>
AV-unprocessed.smi

> <i_m_source_file_index>
3303

> <i_lp_mmshare_version>
43012

> <i_f3d_flags>
0

> <s_epik_input>
W0NIM11bQ0BASF0xW0NIMl1OKFtDSDNdKVtDQEBIXShbQ0gzXSlbQ0gyXVtDQEhdMVtOSF1bQ0gyXVtDSDJdYzJbY0hdW2NIXVtjSF1bY0hdbjI=

> <s_epik_cmdline>
J2VwaWtfcHl0aG9uJywgJy1waCcsICc3LjAnLCAnLXRuJywgJzgnLCAnLW1hJywgJzIwMCcsICctbWV0YWxfYmluZGluZycsICctaW1hZScsICc8aW5maWxlLm1hZT4nLCAnLW9tYWUnLCAnPG91dGZpbGUubWFlPic=

> <r_epik_Ionization_Penalty>
0.0769462

> <r_epik_Ionization_Penalty_Charging>
0.0759813

> <r_epik_Ionization_Penalty_Neutral>
0.000964829

> <r_epik_State_Penalty>
0.0654373

> <r_epik_Charging_Adjusted_Penalty>
0.141419

> <i_epik_Tot_Q>
2

> <i_epik_Tot_abs_Q>
2

> <r_epik_Metal_State_Penalty>
0.0656439

> <b_epik_Metal_Only>
0

> <s_lp_Force_Field>
OPLS_2005

> <r_lp_Energy>
31.8581

> <b_lp_Chiralities_Consistent>
1

> <s_lp_Variant>
AV-unprocessed.smi:3303-14

> <Gold.Version>
5.8.1

> <Gold.Id.Protein>
6NUR|6NUR_protein|mol2

> <Gold.PLP.Fitness>
50.6230

> <Gold.PLP.PLP>
-39.1627

> <Gold.PLP.part.hbond>
-2.0000

> <Gold.PLP.part.metal>
0.0000

> <Gold.PLP.part.buried>
-2.7663

> <Gold.PLP.part.nonpolar>
-34.5386

> <Gold.PLP.part.repulsive>
0.2397

> <Gold.PLP.ligand.clash>
0.0000

> <Gold.PLP.ligand.torsion>
0.2752

> <Gold.PLP.Chemscore.Hbond>
4.0000

> <Gold.PLP.Chemscore.CHOScore>
0.0000

> <Gold.PLP.Chemscore.Metal>
0.0000

> <Gold.Chemscore.Hbonds>
donor molecule, donor type, donor heavy atom, donor atom, acceptor molecule, acceptor atom, score
      L1  H     4    45       P1  7948  2.00
      L1  H    10    44       P1  8028  2.00

> <Gold.PLP.Chemscore.Internal.Correction>
0.0106

> <Gold.Rescore>
     Score         DG    S(hbond)    S(metal)    S(lipo)     H(rot)  DE(clash)    DE(int)     intcor
     21.57     -22.16       1.95        0.00     116.90       1.37       0.24       0.35       ----

> <Gold.Chemscore.Fitness>
21.5653

> <Gold.Chemscore.DG>
-22.1562

> <Gold.Chemscore.ZeroCoef>
-5.4800

> <Gold.Chemscore.Hbond>
1.9514

> <Gold.Chemscore.Metal>
0.0000

> <Gold.Chemscore.Lipo>
116.8985

> <Gold.Chemscore.Internal_Hbond>
0.0000

> <Gold.Chemscore.DEClash>
0.2380

> <Gold.Chemscore.DEInternal>
0.3529

> <Gold.Chemscore.Rot>
1.3744

> <Gold.Chemscore.Internal.Correction>
   9.000000E+99

> <Gold.Chemscore.Hbonds>
donor molecule, donor type, donor heavy atom, donor atom, acceptor molecule, acceptor atom, score
      L1  H     4    45       P1  7948  0.99
      L1  H    10    44       P1  8028  0.99

> <Gold.Chemscore.Hbond.Weighted>
-6.5176

> <Gold.Chemscore.Metal.Weighted>
-0.0000

> <Gold.Chemscore.Lipo.Weighted>
-13.6771

> <Gold.Chemscore.Internal_Hbond.Weighted>
0.0000

> <Gold.Chemscore.DEClash.Weighted>
0.2380

> <Gold.Chemscore.DEInternal.Weighted>
0.3529

> <Gold.Chemscore.Rot.Weighted>
3.5185

> <Gold.Chemscore.Internal.Correction.Weighted>
   9.000000E+99

> <Gold.Protein.RotatedTorsions>
[ 6907 6896 6895 6894 ] final   46.58 input  -60.11 | X-H torsion
[ 7974 7965 7964 7962 ] final  -65.04 input  175.53 | X-H torsion
[ 8008 7997 7996 7995 ] final  -60.68 input   59.86 | X-H torsion
[ 10167 10162 10161 10158 ] final  -79.17 input  -65.29 | X-H torsion
[ 10718 10713 10712 10709 ] final  -76.92 input   66.30 | X-H torsion
[ 10763 10752 10751 10750 ] final  170.15 input  -60.55 | X-H torsion
[ 11005 11000 10999 10996 ] final -159.80 input  -57.11 | X-H torsion

> <Gold.Protein.ActiveResidues>
 VAL166  LYS551  ARG553  GLY616  TRP617  ASP618  TYR619  PRO620  LYS621  CYS622 
 ASP623  PHE694  ASN695  SER759  ASP760  ASP761  ALA762  ILE779  LEU786  VAL792 
 PHE793  MET794  SER795  GLU796  ALA797  LYS798  CYS799  TRP800  GLU811  SER814 

> <Gold.Protein.RotatedAtoms>
  152.2580  134.8064  160.0435 H   0  0  0  0  0  0  0  0  0  0  0  0  # atno 6907 bound_to 6896
  151.8720  133.3472  159.3746 H   0  0  0  0  0  0  0  0  0  0  0  0  # atno 6908 bound_to 6896
  150.7106  134.5030  159.5615 H   0  0  0  0  0  0  0  0  0  0  0  0  # atno 6909 bound_to 6896
  145.7592  140.8870  143.0439 H   0  0  0  0  0  0  0  0  0  0  0  0  # atno 7974 bound_to 7965
  154.4410  140.1034  156.6312 H   0  0  0  0  0  0  0  0  0  0  0  0  # atno 8008 bound_to 7997
  155.5603  140.3487  155.4471 H   0  0  0  0  0  0  0  0  0  0  0  0  # atno 8009 bound_to 7997
  156.0464  140.1294  157.0088 H   0  0  0  0  0  0  0  0  0  0  0  0  # atno 8010 bound_to 7997
  140.4617  143.2452  151.8338 H   0  0  0  0  0  0  0  0  0  0  0  0  # atno 10167 bound_to 10162
  156.0160  130.4478  150.3267 H   0  0  0  0  0  0  0  0  0  0  0  0  # atno 10718 bound_to 10713
  154.3934  135.2754  155.2141 H   0  0  0  0  0  0  0  0  0  0  0  0  # atno 10763 bound_to 10752
  154.4197  135.6003  153.6006 H   0  0  0  0  0  0  0  0  0  0  0  0  # atno 10764 bound_to 10752
  152.9832  135.5969  154.4192 H   0  0  0  0  0  0  0  0  0  0  0  0  # atno 10765 bound_to 10752
  140.6386  134.4575  157.5232 H   0  0  0  0  0  0  0  0  0  0  0  0  # atno 11005 bound_to 11000
  144.6834  139.9699  143.7482 LP  0  0  0  0  0  0  0  0  0  0  0  0  # atno 17320 bound_to 7965
  146.0281  139.3310  143.0772 LP  0  0  0  0  0  0  0  0  0  0  0  0  # atno 17321 bound_to 7965
  139.4807  144.4999  151.9074 LP  0  0  0  0  0  0  0  0  0  0  0  0  # atno 17342 bound_to 10162
  140.4085  144.2400  150.5890 LP  0  0  0  0  0  0  0  0  0  0  0  0  # atno 17343 bound_to 10162
  157.1366  131.0285  151.2946 LP  0  0  0  0  0  0  0  0  0  0  0  0  # atno 17370 bound_to 10713
  157.4507  130.7596  149.7148 LP  0  0  0  0  0  0  0  0  0  0  0  0  # atno 17371 bound_to 10713
  139.9089  134.8389  156.1603 LP  0  0  0  0  0  0  0  0  0  0  0  0  # atno 17394 bound_to 11000
  141.0623  133.6836  156.1977 LP  0  0  0  0  0  0  0  0  0  0  0  0  # atno 17395 bound_to 11000

$$$$
