AV-unprocessed.smi:1662|AV-procd|sdf|6658|dock4
  -GOLD-   22720 7363D 1   1.00000     0.00000
 Structure written by MMmdl.
 47 48  0  0  0  0  0  0  0  0  1 V2000
  145.6451  144.1236  153.1962 C   0  0  0  0  0  0  0  0  0  0  0  0
  146.0985  143.2184  154.3098 C   0  0  0  0  0  0  0  0  0  0  0  0
  147.1476  142.4989  154.0812 N   0  0  0  0  0  0  0  0  0  0  0  0
  147.6459  141.6307  155.0330 N   0  0  0  0  0  0  0  0  0  0  0  0
  148.8329  140.8795  154.5985 C   0  0  0  0  0  0  0  0  0  0  0  0
  150.0882  141.2097  155.4183 C   0  0  0  0  0  0  0  0  0  0  0  0
  151.1083  140.5282  155.3078 O   0  0  0  0  0  0  0  0  0  0  0  0
  149.9974  142.2726  156.2318 N   0  0  0  0  0  0  0  0  0  0  0  0
  151.0524  142.7477  157.1241 C   0  0  1  0  0  0  0  0  0  0  0  0
  150.4843  143.8126  158.0821 C   0  0  0  0  0  0  0  0  0  0  0  0
  151.5743  144.3598  159.0157 C   0  0  0  0  0  0  0  0  0  0  0  0
  152.2786  143.2307  159.7842 C   0  0  0  0  0  0  0  0  0  0  0  0
  152.8405  142.1609  158.8262 C   0  0  1  0  0  0  0  0  0  0  0  0
  153.6344  141.0805  159.5795 C   0  0  0  0  0  0  0  0  0  0  0  0
  151.7367  141.5865  157.8982 C   0  0  1  0  0  0  0  0  0  0  0  0
  150.7314  140.6650  158.6286 C   0  0  0  0  0  0  0  0  0  0  0  0
  147.1123  141.4512  156.2761 C   0  0  0  0  0  0  0  0  0  0  0  0
  147.5954  140.6706  157.0979 O   0  0  0  0  0  0  0  0  0  0  0  0
  145.9238  142.2691  156.5279 C   0  0  0  0  0  0  0  0  0  0  0  0
  145.3284  142.1057  157.8147 C   0  0  0  0  0  0  0  0  0  0  0  0
  144.8637  141.9774  158.8673 N   0  0  0  0  0  0  0  0  0  0  0  0
  145.4231  143.1231  155.6002 C   0  0  0  0  0  0  0  0  0  0  0  0
  144.1925  143.9940  155.8133 C   0  0  0  0  0  0  0  0  0  0  0  0
  145.7554  145.1699  153.4807 H   0  0  0  0  0  0  0  0  0  0  0  0
  144.5975  143.9469  152.9535 H   0  0  0  0  0  0  0  0  0  0  0  0
  146.2225  143.9665  152.2840 H   0  0  0  0  0  0  0  0  0  0  0  0
  148.6536  139.8057  154.6754 H   0  0  0  0  0  0  0  0  0  0  0  0
  149.0220  141.0696  153.5400 H   0  0  0  0  0  0  0  0  0  0  0  0
  149.1235  142.7780  156.2536 H   0  0  0  0  0  0  0  0  0  0  0  0
  151.8096  143.2401  156.5103 H   0  0  0  0  0  0  0  0  0  0  0  0
  150.0520  144.6347  157.5105 H   0  0  0  0  0  0  0  0  0  0  0  0
  149.6709  143.3932  158.6754 H   0  0  0  0  0  0  0  0  0  0  0  0
  152.3090  144.9131  158.4293 H   0  0  0  0  0  0  0  0  0  0  0  0
  151.1402  145.0730  159.7169 H   0  0  0  0  0  0  0  0  0  0  0  0
  153.0861  143.6532  160.3832 H   0  0  0  0  0  0  0  0  0  0  0  0
  151.5831  142.7764  160.4904 H   0  0  0  0  0  0  0  0  0  0  0  0
  153.5605  142.6644  158.1790 H   0  0  0  0  0  0  0  0  0  0  0  0
  153.0266  140.5822  160.3350 H   0  0  0  0  0  0  0  0  0  0  0  0
  154.4929  141.5163  160.0910 H   0  0  0  0  0  0  0  0  0  0  0  0
  154.0121  140.3203  158.8951 H   0  0  0  0  0  0  0  0  0  0  0  0
  152.2398  140.9600  157.1601 H   0  0  0  0  0  0  0  0  0  0  0  0
  150.1868  141.1906  159.4122 H   0  0  0  0  0  0  0  0  0  0  0  0
  151.2318  139.8140  159.0889 H   0  0  0  0  0  0  0  0  0  0  0  0
  149.9956  140.2489  157.9406 H   0  0  0  0  0  0  0  0  0  0  0  0
  143.8110  143.9271  156.8318 H   0  0  0  0  0  0  0  0  0  0  0  0
  143.3902  143.6894  155.1403 H   0  0  0  0  0  0  0  0  0  0  0  0
  144.4235  145.0424  155.6218 H   0  0  0  0  0  0  0  0  0  0  0  0
  1  2  1  0  0  0  0
  1 24  1  0  0  0  0
  1 25  1  0  0  0  0
  1 26  1  0  0  0  0
  2 22  1  0  0  0  0
  2  3  2  0  0  0  0
  3  4  1  0  0  0  0
  4  5  1  0  0  0  0
  4 17  1  0  0  0  0
  5  6  1  0  0  0  0
  5 27  1  0  0  0  0
  5 28  1  0  0  0  0
  6  7  2  0  0  0  0
  6  8  1  0  0  0  0
  8  9  1  0  0  0  0
  8 29  1  0  0  0  0
  9 15  1  0  0  0  0
  9 10  1  0  0  0  0
  9 30  1  0  0  0  0
 10 11  1  0  0  0  0
 10 31  1  0  0  0  0
 10 32  1  0  0  0  0
 11 12  1  0  0  0  0
 11 33  1  0  0  0  0
 11 34  1  0  0  0  0
 12 13  1  0  0  0  0
 12 35  1  0  0  0  0
 12 36  1  0  0  0  0
 13 14  1  0  0  0  0
 13 15  1  0  0  0  0
 13 37  1  0  0  0  0
 14 38  1  0  0  0  0
 14 39  1  0  0  0  0
 14 40  1  0  0  0  0
 15 16  1  0  0  0  0
 15 41  1  0  0  0  0
 16 42  1  0  0  0  0
 16 43  1  0  0  0  0
 16 44  1  0  0  0  0
 17 18  2  0  0  0  0
 17 19  1  0  0  0  0
 19 20  1  0  0  0  0
 19 22  2  0  0  0  0
 20 21  3  0  0  0  0
 22 23  1  0  0  0  0
 23 45  1  0  0  0  0
 23 46  1  0  0  0  0
 23 47  1  0  0  0  0
M  END
> <s_m_source_file>
AV-unprocessed.smi

> <i_m_source_file_index>
1662

> <i_lp_mmshare_version>
43012

> <i_f3d_flags>
0

> <s_epik_input>
TiNDYyhjMVtDSDNdKWMoPU8pbihuYzFbQ0gzXSlbQ0gyXUMoPU8pW05IXVtDQEBIXTJbQ0gyXVtDSDJdW0NIMl1bQ0BASF0oW0NIM10pW0NASF0yW0NIM10=

> <s_epik_cmdline>
J2VwaWtfcHl0aG9uJywgJy1waCcsICc3LjAnLCAnLXRuJywgJzgnLCAnLW1hJywgJzIwMCcsICctbWV0YWxfYmluZGluZycsICctaW1hZScsICc8aW5maWxlLm1hZT4nLCAnLW9tYWUnLCAnPG91dGZpbGUubWFlPic=

> <r_lp_tautomer_probability>
1

> <r_epik_Ionization_Penalty>
1.90709e-08

> <r_epik_Ionization_Penalty_Charging>
2.37982e-11

> <r_epik_Ionization_Penalty_Neutral>
1.90471e-08

> <r_epik_State_Penalty>
-0

> <r_epik_Charging_Adjusted_Penalty>
2.37982e-11

> <i_epik_Tot_Q>
0

> <i_epik_Tot_abs_Q>
0

> <r_epik_Metal_State_Penalty>
-0

> <b_epik_Metal_Only>
0

> <s_lp_Force_Field>
OPLS_2005

> <r_lp_Energy>
29.2459

> <b_lp_Chiralities_Consistent>
1

> <s_lp_Variant>
AV-unprocessed.smi:1662-2

> <Gold.Version>
5.8.1

> <Gold.Id.Protein>
6NUR|6NUR_protein|mol2

> <Gold.PLP.Fitness>
45.3997

> <Gold.PLP.PLP>
-41.8266

> <Gold.PLP.part.hbond>
-2.0000

> <Gold.PLP.part.metal>
0.0000

> <Gold.PLP.part.buried>
-4.1541

> <Gold.PLP.part.nonpolar>
-34.2498

> <Gold.PLP.part.repulsive>
0.3266

> <Gold.PLP.ligand.clash>
0.0000

> <Gold.PLP.ligand.torsion>
0.2787

> <Gold.PLP.Chemscore.Hbond>
1.3726

> <Gold.PLP.Chemscore.CHOScore>
0.0000

> <Gold.PLP.Chemscore.Metal>
0.0000

> <Gold.Chemscore.Hbonds>
donor molecule, donor type, donor heavy atom, donor atom, acceptor molecule, acceptor atom, score
      L1  H     8    29       P1  8028  0.48
      P1  H  7989  7998       L1     7  0.93

> <Gold.PLP.Chemscore.Internal.Correction>
0.0127

> <Gold.Rescore>
     Score         DG    S(hbond)    S(metal)    S(lipo)     H(rot)  DE(clash)    DE(int)     intcor
     13.77     -17.69       0.92        0.00     110.00       1.45       2.35       1.57       ----

> <Gold.Chemscore.Fitness>
13.7712

> <Gold.Chemscore.DG>
-17.6942

> <Gold.Chemscore.ZeroCoef>
-5.4800

> <Gold.Chemscore.Hbond>
0.9155

> <Gold.Chemscore.Metal>
0.0000

> <Gold.Chemscore.Lipo>
109.9952

> <Gold.Chemscore.Internal_Hbond>
0.0000

> <Gold.Chemscore.DEClash>
2.3534

> <Gold.Chemscore.DEInternal>
1.5695

> <Gold.Chemscore.Rot>
1.4504

> <Gold.Chemscore.Internal.Correction>
   9.000000E+99

> <Gold.Chemscore.Hbonds>
donor molecule, donor type, donor heavy atom, donor atom, acceptor molecule, acceptor atom, score
      L1  H     8    29       P1  8028  0.46
      P1  H  7989  7998       L1     7  0.31

> <Gold.Chemscore.Hbond.Weighted>
-3.0577

> <Gold.Chemscore.Metal.Weighted>
-0.0000

> <Gold.Chemscore.Lipo.Weighted>
-12.8694

> <Gold.Chemscore.Internal_Hbond.Weighted>
0.0000

> <Gold.Chemscore.DEClash.Weighted>
2.3534

> <Gold.Chemscore.DEInternal.Weighted>
1.5695

> <Gold.Chemscore.Rot.Weighted>
3.7129

> <Gold.Chemscore.Internal.Correction.Weighted>
   9.000000E+99

> <Gold.Protein.RotatedTorsions>
[ 6907 6896 6895 6894 ] final -138.05 input  -60.11 | X-H torsion
[ 7974 7965 7964 7962 ] final  -68.76 input  175.53 | X-H torsion
[ 8008 7997 7996 7995 ] final   26.95 input   59.86 | X-H torsion
[ 10167 10162 10161 10158 ] final -160.80 input  -65.29 | X-H torsion
[ 10718 10713 10712 10709 ] final  148.88 input   66.30 | X-H torsion
[ 10763 10752 10751 10750 ] final  114.90 input  -60.55 | X-H torsion
[ 11005 11000 10999 10996 ] final  -92.28 input  -57.11 | X-H torsion

> <Gold.Protein.ActiveResidues>
 VAL166  LYS551  ARG553  GLY616  TRP617  ASP618  TYR619  PRO620  LYS621  CYS622 
 ASP623  PHE694  ASN695  SER759  ASP760  ASP761  ALA762  ILE779  LEU786  VAL792 
 PHE793  MET794  SER795  GLU796  ALA797  LYS798  CYS799  TRP800  GLU811  SER814 

> <Gold.Protein.RotatedAtoms>
  151.0302  133.5798  159.2661 H   0  0  0  0  0  0  0  0  0  0  0  0  # atno 6907 bound_to 6896
  151.2882  135.0733  159.9204 H   0  0  0  0  0  0  0  0  0  0  0  0  # atno 6908 bound_to 6896
  152.5343  134.0004  159.7946 H   0  0  0  0  0  0  0  0  0  0  0  0  # atno 6909 bound_to 6896
  145.7124  140.9073  143.0673 H   0  0  0  0  0  0  0  0  0  0  0  0  # atno 7974 bound_to 7965
  155.0352  140.3163  155.4744 H   0  0  0  0  0  0  0  0  0  0  0  0  # atno 8008 bound_to 7997
  156.2866  140.2173  156.5418 H   0  0  0  0  0  0  0  0  0  0  0  0  # atno 8009 bound_to 7997
  154.7336  140.0479  157.0736 H   0  0  0  0  0  0  0  0  0  0  0  0  # atno 8010 bound_to 7997
  139.6513  144.0079  152.2163 H   0  0  0  0  0  0  0  0  0  0  0  0  # atno 10167 bound_to 10162
  157.3030  131.0874  151.1375 H   0  0  0  0  0  0  0  0  0  0  0  0  # atno 10718 bound_to 10713
  153.5141  135.3611  155.2601 H   0  0  0  0  0  0  0  0  0  0  0  0  # atno 10763 bound_to 10752
  154.8740  135.4030  154.3335 H   0  0  0  0  0  0  0  0  0  0  0  0  # atno 10764 bound_to 10752
  153.3993  135.7074  153.6504 H   0  0  0  0  0  0  0  0  0  0  0  0  # atno 10765 bound_to 10752
  141.1525  133.7810  156.9997 H   0  0  0  0  0  0  0  0  0  0  0  0  # atno 11005 bound_to 11000
  144.6938  139.9092  143.7462 LP  0  0  0  0  0  0  0  0  0  0  0  0  # atno 17320 bound_to 7965
  146.0700  139.3690  143.0529 LP  0  0  0  0  0  0  0  0  0  0  0  0  # atno 17321 bound_to 7965
  139.9794  144.6439  150.7914 LP  0  0  0  0  0  0  0  0  0  0  0  0  # atno 17342 bound_to 10162
  140.7539  143.3016  151.3065 LP  0  0  0  0  0  0  0  0  0  0  0  0  # atno 17343 bound_to 10162
  157.2727  130.6712  149.6027 LP  0  0  0  0  0  0  0  0  0  0  0  0  # atno 17370 bound_to 10713
  155.9673  130.4474  150.5579 LP  0  0  0  0  0  0  0  0  0  0  0  0  # atno 17371 bound_to 10713
  140.0948  134.9571  157.1832 LP  0  0  0  0  0  0  0  0  0  0  0  0  # atno 17394 bound_to 11000
  140.3397  134.2717  155.7214 LP  0  0  0  0  0  0  0  0  0  0  0  0  # atno 17395 bound_to 11000

$$$$
