AV-unprocessed.smi:21|AV-procd|sdf|167|dock9
  -GOLD-   2262015413D 1   1.00000     0.00000
 Structure written by MMmdl.
 61 64  0  0  0  0  0  0  0  0  1 V2000
  145.7122  133.1610  150.0459 C   0  0  0  0  0  0  0  0  0  0  0  0
  144.5466  133.8167  150.5186 O   0  0  0  0  0  0  0  0  0  0  0  0
  144.6290  134.2014  151.8836 C   0  0  1  0  0  0  0  0  0  0  0  0
  145.7813  135.1969  152.0895 C   0  0  0  0  0  0  0  0  0  0  0  0
  145.1013  136.4847  152.5820 C   0  0  2  0  0  0  0  0  0  0  0  0
  146.0071  137.3563  153.4781 C   0  0  0  0  0  0  0  0  0  0  0  0
  146.2245  138.6939  152.9209 N   0  0  0  0  0  0  0  0  0  0  0  0
  145.8779  138.9134  151.5223 C   0  0  0  0  0  0  0  0  0  0  0  0
  147.0005  139.6000  153.5824 C   0  0  0  0  0  0  0  0  0  0  0  0
  146.5415  140.8748  153.6981 N   0  0  0  0  0  0  0  0  0  0  0  0
  147.2535  141.8069  154.3355 C   0  0  0  0  0  0  0  0  0  0  0  0
  148.4426  141.6874  154.9241 N   0  0  0  0  0  0  0  0  0  0  0  0
  148.9208  140.4162  154.8143 C   0  0  0  0  0  0  0  0  0  0  0  0
  148.2734  139.3196  154.1714 C   0  0  0  0  0  0  0  0  0  0  0  0
  149.0693  138.1841  154.2916 N   0  0  0  0  0  0  0  0  0  0  0  0
  150.1179  138.5845  154.9552 C   0  0  0  0  0  0  0  0  0  0  0  0
  150.1224  139.9185  155.2889 N   0  0  0  0  0  0  0  0  0  0  0  0
  151.1554  140.6205  156.0314 C   0  0  0  0  0  0  0  0  0  0  0  0
  150.6682  141.8654  156.8260 C   0  0  1  0  0  0  0  0  0  0  0  0
  149.5105  141.4446  157.7642 C   0  0  0  0  0  0  0  0  0  0  0  0
  148.7627  142.5631  158.1958 O   0  0  0  0  0  0  0  0  0  0  0  0
  151.8057  142.5798  157.6170 C   0  0  1  0  0  0  0  0  0  0  0  0
  151.4394  143.9184  158.2471 C   0  0  0  0  0  0  0  0  0  0  0  0
  152.4557  144.0911  159.3750 C   0  0  0  0  0  0  0  0  0  0  0  0
  152.9875  142.7990  159.6351 O   0  0  0  0  0  0  0  0  0  0  0  0
  152.2800  141.8357  158.8703 C   0  0  0  0  0  0  0  0  0  0  0  0
  143.8757  136.0295  153.2191 N   0  0  0  0  0  0  0  0  0  0  0  0
  142.8888  137.0826  153.4190 C   0  0  0  0  0  0  0  0  0  0  0  0
  143.3911  134.9887  152.3341 C   0  0  0  0  0  0  0  0  0  0  0  0
  144.7910  133.3319  152.5232 H   0  0  0  0  0  0  0  0  0  0  0  0
  144.8267  137.0662  151.6998 H   0  0  0  0  0  0  0  0  0  0  0  0
  145.5864  132.9089  148.9930 H   0  0  0  0  0  0  0  0  0  0  0  0
  145.9014  132.2352  150.5904 H   0  0  0  0  0  0  0  0  0  0  0  0
  146.5886  133.8039  150.1339 H   0  0  0  0  0  0  0  0  0  0  0  0
  146.4635  134.8056  152.8452 H   0  0  0  0  0  0  0  0  0  0  0  0
  146.3606  135.3677  151.1812 H   0  0  0  0  0  0  0  0  0  0  0  0
  145.5372  137.4904  154.4521 H   0  0  0  0  0  0  0  0  0  0  0  0
  146.9418  136.8364  153.6874 H   0  0  0  0  0  0  0  0  0  0  0  0
  145.4951  139.9229  151.3698 H   0  0  0  0  0  0  0  0  0  0  0  0
  145.1031  138.2167  151.2018 H   0  0  0  0  0  0  0  0  0  0  0  0
  146.7469  138.7625  150.8815 H   0  0  0  0  0  0  0  0  0  0  0  0
  146.8073  142.7895  154.3775 H   0  0  0  0  0  0  0  0  0  0  0  0
  150.9263  137.9148  155.2099 H   0  0  0  0  0  0  0  0  0  0  0  0
  151.6036  139.8891  156.7041 H   0  0  0  0  0  0  0  0  0  0  0  0
  151.9431  140.9135  155.3360 H   0  0  0  0  0  0  0  0  0  0  0  0
  150.2545  142.5883  156.1222 H   0  0  0  0  0  0  0  0  0  0  0  0
  148.8472  140.7357  157.2680 H   0  0  0  0  0  0  0  0  0  0  0  0
  149.8814  140.9595  158.6659 H   0  0  0  0  0  0  0  0  0  0  0  0
  148.6791  143.1664  157.4731 H   0  0  0  0  0  0  0  0  0  0  0  0
  152.6659  142.7246  156.9615 H   0  0  0  0  0  0  0  0  0  0  0  0
  151.4851  144.7531  157.5500 H   0  0  0  0  0  0  0  0  0  0  0  0
  150.4318  143.8787  158.6630 H   0  0  0  0  0  0  0  0  0  0  0  0
  153.2698  144.7496  159.0719 H   0  0  0  0  0  0  0  0  0  0  0  0
  151.9955  144.5114  160.2697 H   0  0  0  0  0  0  0  0  0  0  0  0
  151.4312  141.4758  159.4541 H   0  0  0  0  0  0  0  0  0  0  0  0
  152.9250  140.9866  158.6433 H   0  0  0  0  0  0  0  0  0  0  0  0
  141.9721  136.6720  153.8432 H   0  0  0  0  0  0  0  0  0  0  0  0
  142.6359  137.5737  152.4784 H   0  0  0  0  0  0  0  0  0  0  0  0
  143.2579  137.8401  154.1099 H   0  0  0  0  0  0  0  0  0  0  0  0
  142.9133  135.4395  151.4624 H   0  0  0  0  0  0  0  0  0  0  0  0
  142.6519  134.3551  152.8250 H   0  0  0  0  0  0  0  0  0  0  0  0
  1  2  1  0  0  0  0
  1 32  1  0  0  0  0
  1 33  1  0  0  0  0
  1 34  1  0  0  0  0
  2  3  1  0  0  0  0
  3 30  1  0  0  0  0
  3 29  1  0  0  0  0
  3  4  1  0  0  0  0
  4  5  1  0  0  0  0
  4 35  1  0  0  0  0
  4 36  1  0  0  0  0
  5 31  1  0  0  0  0
  5  6  1  0  0  0  0
  5 27  1  0  0  0  0
  6  7  1  0  0  0  0
  6 37  1  0  0  0  0
  6 38  1  0  0  0  0
  7  8  1  0  0  0  0
  7  9  1  0  0  0  0
  8 39  1  0  0  0  0
  8 40  1  0  0  0  0
  8 41  1  0  0  0  0
  9 14  1  0  0  0  0
  9 10  2  0  0  0  0
 10 11  1  0  0  0  0
 11 12  2  0  0  0  0
 11 42  1  0  0  0  0
 12 13  1  0  0  0  0
 13 17  1  0  0  0  0
 13 14  2  0  0  0  0
 14 15  1  0  0  0  0
 15 16  2  0  0  0  0
 16 17  1  0  0  0  0
 16 43  1  0  0  0  0
 17 18  1  0  0  0  0
 18 19  1  0  0  0  0
 18 44  1  0  0  0  0
 18 45  1  0  0  0  0
 19 20  1  0  0  0  0
 19 22  1  0  0  0  0
 19 46  1  0  0  0  0
 20 21  1  0  0  0  0
 20 47  1  0  0  0  0
 20 48  1  0  0  0  0
 21 49  1  0  0  0  0
 22 26  1  0  0  0  0
 22 23  1  0  0  0  0
 22 50  1  0  0  0  0
 23 24  1  0  0  0  0
 23 51  1  0  0  0  0
 23 52  1  0  0  0  0
 24 25  1  0  0  0  0
 24 53  1  0  0  0  0
 24 54  1  0  0  0  0
 25 26  1  0  0  0  0
 26 55  1  0  0  0  0
 26 56  1  0  0  0  0
 27 28  1  0  0  0  0
 27 29  1  0  0  0  0
 28 57  1  0  0  0  0
 28 58  1  0  0  0  0
 28 59  1  0  0  0  0
 29 60  1  0  0  0  0
 29 61  1  0  0  0  0
M  END
> <s_m_source_file>
AV-unprocessed.smi

> <i_m_source_file_index>
21

> <i_lp_mmshare_version>
43012

> <i_f3d_flags>
0

> <s_epik_input>
W0NIM11PW0NASF0xW0NIMl1bQ0BIXShOKFtDSDNdKVtDSDJdMSlbQ0gyXU4oW0NIM10pYyhuW2NIXW4yKWMoYzIzKW5bY0hdbjNbQ0gyXVtDQEhdKFtDSDJdW09IXSlbQ0BASF00W0NIMl1bQ0gyXU9bQ0gyXTQ=

> <s_epik_cmdline>
J2VwaWtfcHl0aG9uJywgJy1waCcsICc3LjAnLCAnLXRuJywgJzgnLCAnLW1hJywgJzIwMCcsICctbWV0YWxfYmluZGluZycsICctaW1hZScsICc8aW5maWxlLm1hZT4nLCAnLW9tYWUnLCAnPG91dGZpbGUubWFlPic=

> <r_lp_tautomer_probability>
1

> <r_epik_Ionization_Penalty>
2.17574

> <r_epik_Ionization_Penalty_Charging>
0

> <r_epik_Ionization_Penalty_Neutral>
2.17574

> <r_epik_State_Penalty>
2.31336

> <r_epik_Charging_Adjusted_Penalty>
2.31336

> <i_epik_Tot_Q>
0

> <i_epik_Tot_abs_Q>
0

> <r_epik_Metal_State_Penalty>
2.31025

> <b_epik_Metal_Only>
0

> <s_lp_Force_Field>
OPLS_2005

> <r_lp_Energy>
70.7714

> <b_lp_Chiralities_Consistent>
1

> <s_lp_Variant>
AV-unprocessed.smi:21-47

> <Gold.Version>
5.8.1

> <Gold.Id.Protein>
6NUR|6NUR_protein|mol2

> <Gold.PLP.Fitness>
50.2619

> <Gold.PLP.PLP>
-51.4324

> <Gold.PLP.part.hbond>
-2.0014

> <Gold.PLP.part.metal>
0.0000

> <Gold.PLP.part.buried>
-2.5258

> <Gold.PLP.part.nonpolar>
-48.0067

> <Gold.PLP.part.repulsive>
0.7807

> <Gold.PLP.ligand.clash>
0.0000

> <Gold.PLP.ligand.torsion>
2.3709

> <Gold.PLP.Chemscore.Hbond>
1.0000

> <Gold.PLP.Chemscore.CHOScore>
0.0000

> <Gold.PLP.Chemscore.Metal>
0.0000

> <Gold.Chemscore.Hbonds>
donor molecule, donor type, donor heavy atom, donor atom, acceptor molecule, acceptor atom, score
      L1  H    21    49       P1  8028  0.13

> <Gold.PLP.Chemscore.Internal.Correction>
0.5714

> <Gold.Rescore>
     Score         DG    S(hbond)    S(metal)    S(lipo)     H(rot)  DE(clash)    DE(int)     intcor
      7.43     -10.63       0.01        0.00     109.32       3.00       0.72       2.48       ----

> <Gold.Chemscore.Fitness>
7.4263

> <Gold.Chemscore.DG>
-10.6271

> <Gold.Chemscore.ZeroCoef>
-5.4800

> <Gold.Chemscore.Hbond>
0.0133

> <Gold.Chemscore.Metal>
0.0000

> <Gold.Chemscore.Lipo>
109.3204

> <Gold.Chemscore.Internal_Hbond>
0.0000

> <Gold.Chemscore.DEClash>
0.7203

> <Gold.Chemscore.DEInternal>
2.4805

> <Gold.Chemscore.Rot>
3.0031

> <Gold.Chemscore.Internal.Correction>
   9.000000E+99

> <Gold.Chemscore.Hbonds>
donor molecule, donor type, donor heavy atom, donor atom, acceptor molecule, acceptor atom, score
      L1  H    21    49       P1  8028  0.04

> <Gold.Chemscore.Hbond.Weighted>
-0.0446

> <Gold.Chemscore.Metal.Weighted>
-0.0000

> <Gold.Chemscore.Lipo.Weighted>
-12.7905

> <Gold.Chemscore.Internal_Hbond.Weighted>
0.0000

> <Gold.Chemscore.DEClash.Weighted>
0.7203

> <Gold.Chemscore.DEInternal.Weighted>
2.4805

> <Gold.Chemscore.Rot.Weighted>
7.6880

> <Gold.Chemscore.Internal.Correction.Weighted>
   9.000000E+99

> <Gold.Protein.RotatedTorsions>
[ 6907 6896 6895 6894 ] final  106.70 input  -60.11 | X-H torsion
[ 7974 7965 7964 7962 ] final  -93.01 input  175.53 | X-H torsion
[ 8008 7997 7996 7995 ] final -107.56 input   59.86 | X-H torsion
[ 10167 10162 10161 10158 ] final   36.37 input  -65.29 | X-H torsion
[ 10718 10713 10712 10709 ] final   93.03 input   66.30 | X-H torsion
[ 10763 10752 10751 10750 ] final  -42.33 input  -60.55 | X-H torsion
[ 11005 11000 10999 10996 ] final   17.04 input  -57.11 | X-H torsion

> <Gold.Protein.ActiveResidues>
 VAL166  LYS551  ARG553  GLY616  TRP617  ASP618  TYR619  PRO620  LYS621  CYS622 
 ASP623  PHE694  ASN695  SER759  ASP760  ASP761  ALA762  ILE779  LEU786  VAL792 
 PHE793  MET794  SER795  GLU796  ALA797  LYS798  CYS799  TRP800  GLU811  SER814 

> <Gold.Protein.RotatedAtoms>
  152.5184  133.9343  159.7595 H   0  0  0  0  0  0  0  0  0  0  0  0  # atno 6907 bound_to 6896
  150.9687  133.6359  159.2748 H   0  0  0  0  0  0  0  0  0  0  0  0  # atno 6908 bound_to 6896
  151.3578  135.0903  159.9477 H   0  0  0  0  0  0  0  0  0  0  0  0  # atno 6909 bound_to 6896
  145.3922  140.9529  143.2334 H   0  0  0  0  0  0  0  0  0  0  0  0  # atno 7974 bound_to 7965
  154.9312  140.0405  157.2049 H   0  0  0  0  0  0  0  0  0  0  0  0  # atno 8008 bound_to 7997
  154.8159  140.2875  155.5799 H   0  0  0  0  0  0  0  0  0  0  0  0  # atno 8009 bound_to 7997
  156.2976  140.2528  156.3056 H   0  0  0  0  0  0  0  0  0  0  0  0  # atno 8010 bound_to 7997
  140.4134  144.1561  150.6141 H   0  0  0  0  0  0  0  0  0  0  0  0  # atno 10167 bound_to 10162
  157.6956  131.0464  150.3971 H   0  0  0  0  0  0  0  0  0  0  0  0  # atno 10718 bound_to 10713
  153.9773  135.6721  153.4749 H   0  0  0  0  0  0  0  0  0  0  0  0  # atno 10763 bound_to 10752
  153.0765  135.4946  154.8411 H   0  0  0  0  0  0  0  0  0  0  0  0  # atno 10764 bound_to 10752
  154.7185  135.3112  154.9047 H   0  0  0  0  0  0  0  0  0  0  0  0  # atno 10765 bound_to 10752
  140.4404  134.1327  155.7690 H   0  0  0  0  0  0  0  0  0  0  0  0  # atno 11005 bound_to 11000
  144.8432  139.5438  143.6890 LP  0  0  0  0  0  0  0  0  0  0  0  0  # atno 17320 bound_to 7965
  146.2792  139.6832  142.9241 LP  0  0  0  0  0  0  0  0  0  0  0  0  # atno 17321 bound_to 7965
  140.4613  143.2448  151.9215 LP  0  0  0  0  0  0  0  0  0  0  0  0  # atno 17342 bound_to 10162
  139.4782  144.5464  151.8451 LP  0  0  0  0  0  0  0  0  0  0  0  0  # atno 17343 bound_to 10162
  156.4369  130.3983  149.6723 LP  0  0  0  0  0  0  0  0  0  0  0  0  # atno 17370 bound_to 10713
  156.3921  130.7632  151.2634 LP  0  0  0  0  0  0  0  0  0  0  0  0  # atno 17371 bound_to 10713
  141.1708  133.8613  157.1577 LP  0  0  0  0  0  0  0  0  0  0  0  0  # atno 17394 bound_to 11000
  140.0073  135.0003  157.0321 LP  0  0  0  0  0  0  0  0  0  0  0  0  # atno 17395 bound_to 11000

$$$$
