AV-unprocessed.smi:1419|AV-procd|sdf|5777|dock4
  -GOLD-   22720 5423D 1   1.00000     0.00000
 Structure written by MMmdl.
 42 43  0  0  0  0  0  0  0  0  2 V2000
  153.3961  141.8720  159.0641 C   0  0  0  0  0  0  0  0  0  0  0  0
  152.0873  141.2953  158.5012 C   0  0  1  0  0  0  0  0  0  0  0  0
  151.1809  142.3693  157.8609 C   0  0  0  0  0  0  0  0  0  0  0  0
  151.1931  143.6371  158.5954 N   0  0  0  0  0  0  0  0  0  0  0  0
  152.0694  144.6817  158.4468 C   0  0  0  0  0  0  0  0  0  0  0  0
  151.6832  145.6454  159.3425 C   0  0  0  0  0  0  0  0  0  0  0  0
  150.5874  145.1498  159.9972 N   0  3  0  0  0  0  0  0  0  0  0  0
  150.2897  143.9293  159.5396 C   0  0  0  0  0  0  0  0  0  0  0  0
  152.4019  140.2562  157.5255 N   0  0  0  0  0  0  0  0  0  0  0  0
  152.1055  138.9510  157.6517 C   0  0  0  0  0  0  0  0  0  0  0  0
  151.5380  138.5025  158.6487 O   0  0  0  0  0  0  0  0  0  0  0  0
  152.4872  138.1805  156.6033 N   0  0  0  0  0  0  0  0  0  0  0  0
  152.7836  138.6336  155.2373 C   0  0  0  0  0  0  0  0  0  0  0  0
  151.6563  138.1608  154.2957 C   0  0  2  0  0  0  0  0  0  0  0  0
  150.3192  138.8951  154.5031 C   0  0  0  0  0  0  0  0  0  0  0  0
  151.4973  136.7427  154.4076 O   0  0  0  0  0  0  0  0  0  0  0  0
  151.2978  136.2414  155.7323 C   0  0  1  0  0  0  0  0  0  0  0  0
  151.2197  134.7131  155.6526 C   0  0  0  0  0  0  0  0  0  0  0  0
  152.4466  136.7176  156.6427 C   0  0  0  0  0  0  0  0  0  0  0  0
  153.2064  142.5879  159.8639 H   0  0  0  0  0  0  0  0  0  0  0  0
  153.9705  142.3814  158.2896 H   0  0  0  0  0  0  0  0  0  0  0  0
  154.0249  141.0835  159.4795 H   0  0  0  0  0  0  0  0  0  0  0  0
  151.5510  140.8329  159.3322 H   0  0  0  0  0  0  0  0  0  0  0  0
  151.4923  142.5726  156.8352 H   0  0  0  0  0  0  0  0  0  0  0  0
  150.1452  142.0291  157.8133 H   0  0  0  0  0  0  0  0  0  0  0  0
  152.8822  144.6609  157.7352 H   0  0  0  0  0  0  0  0  0  0  0  0
  152.0946  146.6212  159.5570 H   0  0  0  0  0  0  0  0  0  0  0  0
  149.4799  143.3022  159.8686 H   0  0  0  0  0  0  0  0  0  0  0  0
  152.8768  140.5501  156.6842 H   0  0  0  0  0  0  0  0  0  0  0  0
  152.9220  139.7106  155.1428 H   0  0  0  0  0  0  0  0  0  0  0  0
  153.7315  138.1952  154.9214 H   0  0  0  0  0  0  0  0  0  0  0  0
  151.9728  138.3546  153.2704 H   0  0  0  0  0  0  0  0  0  0  0  0
  150.4365  139.9657  154.3349 H   0  0  0  0  0  0  0  0  0  0  0  0
  149.9238  138.7659  155.5101 H   0  0  0  0  0  0  0  0  0  0  0  0
  149.5667  138.5320  153.8029 H   0  0  0  0  0  0  0  0  0  0  0  0
  150.3476  136.6094  156.1208 H   0  0  0  0  0  0  0  0  0  0  0  0
  151.0551  134.2761  156.6377 H   0  0  0  0  0  0  0  0  0  0  0  0
  152.1404  134.2910  155.2486 H   0  0  0  0  0  0  0  0  0  0  0  0
  150.3984  134.3985  155.0085 H   0  0  0  0  0  0  0  0  0  0  0  0
  153.4000  136.3177  156.2940 H   0  0  0  0  0  0  0  0  0  0  0  0
  152.3110  136.3284  157.6527 H   0  0  0  0  0  0  0  0  0  0  0  0
  150.0737  145.6348  160.7224 H   0  0  0  0  0  0  0  0  0  0  0  0
  1  2  1  0  0  0  0
  1 20  1  0  0  0  0
  1 21  1  0  0  0  0
  1 22  1  0  0  0  0
  2  3  1  0  0  0  0
  2  9  1  0  0  0  0
  2 23  1  0  0  0  0
  3  4  1  0  0  0  0
  3 24  1  0  0  0  0
  3 25  1  0  0  0  0
  4  8  1  0  0  0  0
  4  5  1  0  0  0  0
  5  6  2  0  0  0  0
  5 26  1  0  0  0  0
  6  7  1  0  0  0  0
  6 27  1  0  0  0  0
  7  8  2  0  0  0  0
  7 42  1  0  0  0  0
  8 28  1  0  0  0  0
  9 10  1  0  0  0  0
  9 29  1  0  0  0  0
 10 11  2  0  0  0  0
 10 12  1  0  0  0  0
 12 19  1  0  0  0  0
 12 13  1  0  0  0  0
 13 14  1  0  0  0  0
 13 30  1  0  0  0  0
 13 31  1  0  0  0  0
 14 15  1  0  0  0  0
 14 16  1  0  0  0  0
 14 32  1  0  0  0  0
 15 33  1  0  0  0  0
 15 34  1  0  0  0  0
 15 35  1  0  0  0  0
 16 17  1  0  0  0  0
 17 18  1  0  0  0  0
 17 19  1  0  0  0  0
 17 36  1  0  0  0  0
 18 37  1  0  0  0  0
 18 38  1  0  0  0  0
 18 39  1  0  0  0  0
 19 40  1  0  0  0  0
 19 41  1  0  0  0  0
M  CHG  1   7   1
M  END
> <s_m_source_file>
AV-unprocessed.smi

> <i_m_source_file_index>
1419

> <i_lp_mmshare_version>
43012

> <i_f3d_flags>
0

> <s_epik_input>
W2NIXTFuW2NIXVtjSF1uMVtDSDJdW0NAQEhdKFtDSDNdKVtOSF1DKD1PKU4yW0NIMl1bQ0BASF0oW0NIM10pT1tDQEBIXShbQ0gzXSlbQ0gyXTI=

> <s_epik_cmdline>
J2VwaWtfcHl0aG9uJywgJy1waCcsICc3LjAnLCAnLXRuJywgJzgnLCAnLW1hJywgJzIwMCcsICctbWV0YWxfYmluZGluZycsICctaW1hZScsICc8aW5maWxlLm1hZT4nLCAnLW9tYWUnLCAnPG91dGZpbGUubWFlPic=

> <r_lp_tautomer_probability>
1

> <r_epik_Ionization_Penalty>
0.253607

> <r_epik_Ionization_Penalty_Charging>
0

> <r_epik_Ionization_Penalty_Neutral>
0.253607

> <r_epik_State_Penalty>
0.245018

> <r_epik_Charging_Adjusted_Penalty>
0.245018

> <i_epik_Tot_Q>
1

> <i_epik_Tot_abs_Q>
1

> <r_epik_Metal_State_Penalty>
0.535379

> <b_epik_Metal_Only>
0

> <s_lp_Force_Field>
OPLS_2005

> <r_lp_Energy>
32.5002

> <b_lp_Chiralities_Consistent>
1

> <s_lp_Variant>
AV-unprocessed.smi:1419-4

> <Gold.Version>
5.8.1

> <Gold.Id.Protein>
6NUR|6NUR_protein|mol2

> <Gold.PLP.Fitness>
40.3549

> <Gold.PLP.PLP>
-38.6811

> <Gold.PLP.part.hbond>
-1.0000

> <Gold.PLP.part.metal>
0.0000

> <Gold.PLP.part.buried>
-6.0021

> <Gold.PLP.part.nonpolar>
-32.7011

> <Gold.PLP.part.repulsive>
0.5981

> <Gold.PLP.ligand.clash>
0.0000

> <Gold.PLP.ligand.torsion>
0.6864

> <Gold.PLP.Chemscore.Hbond>
1.0000

> <Gold.PLP.Chemscore.CHOScore>
0.0000

> <Gold.PLP.Chemscore.Metal>
0.0000

> <Gold.Chemscore.Hbonds>
donor molecule, donor type, donor heavy atom, donor atom, acceptor molecule, acceptor atom, score
      P1  H 10752 10763       L1    16  0.30

> <Gold.PLP.Chemscore.Internal.Correction>
0.0466

> <Gold.Rescore>
     Score         DG    S(hbond)    S(metal)    S(lipo)     H(rot)  DE(clash)    DE(int)     intcor
     13.31     -14.29       0.80        0.00      87.99       1.63       0.15       0.82       ----

> <Gold.Chemscore.Fitness>
13.3147

> <Gold.Chemscore.DG>
-14.2870

> <Gold.Chemscore.ZeroCoef>
-5.4800

> <Gold.Chemscore.Hbond>
0.8017

> <Gold.Chemscore.Metal>
0.0000

> <Gold.Chemscore.Lipo>
87.9925

> <Gold.Chemscore.Internal_Hbond>
0.0000

> <Gold.Chemscore.DEClash>
0.1526

> <Gold.Chemscore.DEInternal>
0.8197

> <Gold.Chemscore.Rot>
1.6273

> <Gold.Chemscore.Internal.Correction>
   9.000000E+99

> <Gold.Chemscore.Hbond.Weighted>
-2.6777

> <Gold.Chemscore.Metal.Weighted>
-0.0000

> <Gold.Chemscore.Lipo.Weighted>
-10.2951

> <Gold.Chemscore.Internal_Hbond.Weighted>
0.0000

> <Gold.Chemscore.DEClash.Weighted>
0.1526

> <Gold.Chemscore.DEInternal.Weighted>
0.8197

> <Gold.Chemscore.Rot.Weighted>
4.1658

> <Gold.Chemscore.Internal.Correction.Weighted>
   9.000000E+99

> <Gold.Protein.RotatedTorsions>
[ 6907 6896 6895 6894 ] final   37.93 input  -60.11 | X-H torsion
[ 7974 7965 7964 7962 ] final  -19.09 input  175.53 | X-H torsion
[ 8008 7997 7996 7995 ] final -172.97 input   59.86 | X-H torsion
[ 10167 10162 10161 10158 ] final  -13.53 input  -65.29 | X-H torsion
[ 10718 10713 10712 10709 ] final  144.68 input   66.30 | X-H torsion
[ 10763 10752 10751 10750 ] final   45.17 input  -60.55 | X-H torsion
[ 11005 11000 10999 10996 ] final  -61.75 input  -57.11 | X-H torsion

> <Gold.Protein.ActiveResidues>
 VAL166  LYS551  ARG553  GLY616  TRP617  ASP618  TYR619  PRO620  LYS621  CYS622 
 ASP623  PHE694  ASN695  SER759  ASP760  ASP761  ALA762  ILE779  LEU786  VAL792 
 PHE793  MET794  SER795  GLU796  ALA797  LYS798  CYS799  TRP800  GLU811  SER814 

> <Gold.Protein.RotatedAtoms>
  152.1498  134.8997  160.0548 H   0  0  0  0  0  0  0  0  0  0  0  0  # atno 6907 bound_to 6896
  152.0034  133.3829  159.4199 H   0  0  0  0  0  0  0  0  0  0  0  0  # atno 6908 bound_to 6896
  150.6874  134.3732  159.5045 H   0  0  0  0  0  0  0  0  0  0  0  0  # atno 6909 bound_to 6896
  146.1859  140.4013  142.8476 H   0  0  0  0  0  0  0  0  0  0  0  0  # atno 7974 bound_to 7965
  155.9514  140.1127  157.0973 H   0  0  0  0  0  0  0  0  0  0  0  0  # atno 8008 bound_to 7997
  154.4110  140.1200  156.5124 H   0  0  0  0  0  0  0  0  0  0  0  0  # atno 8009 bound_to 7997
  155.6837  140.3473  155.4868 H   0  0  0  0  0  0  0  0  0  0  0  0  # atno 8010 bound_to 7997
  140.7184  143.5417  150.9402 H   0  0  0  0  0  0  0  0  0  0  0  0  # atno 10167 bound_to 10162
  157.3543  131.0955  151.0972 H   0  0  0  0  0  0  0  0  0  0  0  0  # atno 10718 bound_to 10713
  152.9829  135.6048  154.3393 H   0  0  0  0  0  0  0  0  0  0  0  0  # atno 10763 bound_to 10752
  154.3091  135.2771  155.2576 H   0  0  0  0  0  0  0  0  0  0  0  0  # atno 10764 bound_to 10752
  154.4794  135.5921  153.6434 H   0  0  0  0  0  0  0  0  0  0  0  0  # atno 10765 bound_to 10752
  141.1335  133.6633  156.5423 H   0  0  0  0  0  0  0  0  0  0  0  0  # atno 11005 bound_to 11000
  144.8396  140.6837  143.6238 LP  0  0  0  0  0  0  0  0  0  0  0  0  # atno 17320 bound_to 7965
  145.3940  139.1611  143.4213 LP  0  0  0  0  0  0  0  0  0  0  0  0  # atno 17321 bound_to 7965
  139.9139  143.6686  152.3110 LP  0  0  0  0  0  0  0  0  0  0  0  0  # atno 17342 bound_to 10162
  139.7079  144.7625  151.1161 LP  0  0  0  0  0  0  0  0  0  0  0  0  # atno 17343 bound_to 10162
  157.2136  130.6449  149.5783 LP  0  0  0  0  0  0  0  0  0  0  0  0  # atno 17370 bound_to 10713
  155.9726  130.4652  150.6245 LP  0  0  0  0  0  0  0  0  0  0  0  0  # atno 17371 bound_to 10713
  140.4130  134.7255  157.4847 LP  0  0  0  0  0  0  0  0  0  0  0  0  # atno 17394 bound_to 11000
  140.0414  134.6262  155.8976 LP  0  0  0  0  0  0  0  0  0  0  0  0  # atno 17395 bound_to 11000

$$$$
