AV-unprocessed.smi:159|AV-procd|sdf|1341|dock1
  -GOLD-   2262019 33D 1   1.00000     0.00000
 Structure written by MMmdl.
 28 29  0  0  0  0  0  0  0  0  1 V2000
  152.2621  143.1018  161.0504 N   0  0  0  0  0  0  0  0  0  0  0  0
  152.1103  142.5853  159.8231 C   0  0  0  0  0  0  0  0  0  0  0  0
  151.3297  143.2856  158.8292 C   0  0  0  0  0  0  0  0  0  0  0  0
  151.2211  142.7028  157.6150 C   0  0  0  0  0  0  0  0  0  0  0  0
  151.8176  141.4815  157.3229 N   0  0  0  0  0  0  0  0  0  0  0  0
  151.7172  140.8315  155.9554 C   0  0  1  0  0  0  0  0  0  0  0  0
  151.0320  139.4545  156.0491 C   0  0  0  0  0  0  0  0  0  0  0  0
  149.9140  139.5714  155.0316 C   0  0  0  0  0  0  0  0  0  0  0  0
  149.6087  141.0647  155.0630 C   0  0  2  0  0  0  0  0  0  0  0  0
  148.8629  141.5702  153.8210 C   0  0  0  0  0  0  0  0  0  0  0  0
  148.9627  142.9758  153.7427 O   0  0  0  0  0  0  0  0  0  0  0  0
  150.9209  141.6127  155.1120 O   0  0  0  0  0  0  0  0  0  0  0  0
  152.5889  140.8290  158.3152 C   0  0  0  0  0  0  0  0  0  0  0  0
  153.1546  139.7588  158.0937 O   0  0  0  0  0  0  0  0  0  0  0  0
  152.6865  141.4335  159.5397 N   0  0  0  0  0  0  0  0  0  0  0  0
  152.7378  140.8008  155.5688 H   0  0  0  0  0  0  0  0  0  0  0  0
  149.0583  141.3011  155.9760 H   0  0  0  0  0  0  0  0  0  0  0  0
  152.8102  142.6114  161.7421 H   0  0  0  0  0  0  0  0  0  0  0  0
  151.8241  143.9818  161.2815 H   0  0  0  0  0  0  0  0  0  0  0  0
  150.8437  144.2329  159.0145 H   0  0  0  0  0  0  0  0  0  0  0  0
  150.6439  143.2310  156.8714 H   0  0  0  0  0  0  0  0  0  0  0  0
  151.7338  138.6510  155.8241 H   0  0  0  0  0  0  0  0  0  0  0  0
  150.6222  139.2997  157.0484 H   0  0  0  0  0  0  0  0  0  0  0  0
  150.2760  139.2778  154.0451 H   0  0  0  0  0  0  0  0  0  0  0  0
  149.0499  138.9535  155.2770 H   0  0  0  0  0  0  0  0  0  0  0  0
  149.2474  141.1094  152.9105 H   0  0  0  0  0  0  0  0  0  0  0  0
  147.8041  141.3194  153.8914 H   0  0  0  0  0  0  0  0  0  0  0  0
  149.2026  143.3080  154.5941 H   0  0  0  0  0  0  0  0  0  0  0  0
  1  2  1  0  0  0  0
  1 18  1  0  0  0  0
  1 19  1  0  0  0  0
  2 15  2  0  0  0  0
  2  3  1  0  0  0  0
  3  4  2  0  0  0  0
  3 20  1  0  0  0  0
  4  5  1  0  0  0  0
  4 21  1  0  0  0  0
  5  6  1  0  0  0  0
  5 13  1  0  0  0  0
  6 16  1  0  0  0  0
  6 12  1  0  0  0  0
  6  7  1  0  0  0  0
  7  8  1  0  0  0  0
  7 22  1  0  0  0  0
  7 23  1  0  0  0  0
  8  9  1  0  0  0  0
  8 24  1  0  0  0  0
  8 25  1  0  0  0  0
  9 17  1  0  0  0  0
  9 10  1  0  0  0  0
  9 12  1  0  0  0  0
 10 11  1  0  0  0  0
 10 26  1  0  0  0  0
 10 27  1  0  0  0  0
 11 28  1  0  0  0  0
 13 14  2  0  0  0  0
 13 15  1  0  0  0  0
M  END
> <s_m_source_file>
AV-unprocessed.smi

> <i_m_source_file_index>
159

> <i_lp_mmshare_version>
43012

> <i_f3d_flags>
0

> <s_epik_input>
W05IMl1jMVtjSF1bY0hdbihjKD1PKW4xKVtDQEhdMltDSDJdW0NIMl1bQ0BIXShPMilbQ0gyXVtPSF0=

> <s_epik_cmdline>
J2VwaWtfcHl0aG9uJywgJy1waCcsICc3LjAnLCAnLXRuJywgJzgnLCAnLW1hJywgJzIwMCcsICctbWV0YWxfYmluZGluZycsICctaW1hZScsICc8aW5maWxlLm1hZT4nLCAnLW9tYWUnLCAnPG91dGZpbGUubWFlPic=

> <r_lp_tautomer_probability>
0.99996

> <r_epik_Ionization_Penalty>
0.00126102

> <r_epik_Ionization_Penalty_Charging>
4.46248e-08

> <r_epik_Ionization_Penalty_Neutral>
0.00126097

> <r_epik_State_Penalty>
1.15523e-05

> <r_epik_Charging_Adjusted_Penalty>
1.1597e-05

> <i_epik_Tot_Q>
0

> <i_epik_Tot_abs_Q>
0

> <r_epik_Metal_State_Penalty>
-0

> <b_epik_Metal_Only>
0

> <s_epik_Chemistry_Notes>
This compound contains an acetal/aminal-like group ( X-CH(R)-Y where X, Y are N, S, or O) that may be acid/base labile, releasing an aldehyde.

> <s_lp_Force_Field>
OPLS_2005

> <r_lp_Energy>
23.8036

> <b_lp_Chiralities_Consistent>
1

> <s_lp_Variant>
AV-unprocessed.smi:159-3

> <Gold.Version>
5.8.1

> <Gold.Id.Protein>
6NUR|6NUR_protein|mol2

> <Gold.PLP.Fitness>
34.4111

> <Gold.PLP.PLP>
-25.9720

> <Gold.PLP.part.hbond>
-4.7903

> <Gold.PLP.part.metal>
0.0000

> <Gold.PLP.part.buried>
-2.2748

> <Gold.PLP.part.nonpolar>
-17.9838

> <Gold.PLP.part.repulsive>
0.1703

> <Gold.PLP.ligand.clash>
0.0000

> <Gold.PLP.ligand.torsion>
0.0991

> <Gold.PLP.Chemscore.Hbond>
1.8710

> <Gold.PLP.Chemscore.CHOScore>
1.0000

> <Gold.PLP.Chemscore.Metal>
0.0000

> <Gold.Chemscore.Hbonds>
donor molecule, donor type, donor heavy atom, donor atom, acceptor molecule, acceptor atom, score
      L1  H    11    28       P1  8028  0.77
      P1  H  7989  7998       L1    12  0.25
      P1  H  7997  8009       L1    14  1.00
      L1  C     4    21       P1  8028  0.84

> <Gold.PLP.Chemscore.Internal.Correction>
0.0244

> <Gold.Rescore>
     Score         DG    S(hbond)    S(metal)    S(lipo)     H(rot)  DE(clash)    DE(int)     intcor
     10.61     -11.16       1.92        0.00      39.47       2.09       0.23       0.32       ----

> <Gold.Chemscore.Fitness>
10.6051

> <Gold.Chemscore.DG>
-11.1614

> <Gold.Chemscore.ZeroCoef>
-5.4800

> <Gold.Chemscore.Hbond>
1.9229

> <Gold.Chemscore.Metal>
0.0000

> <Gold.Chemscore.Lipo>
39.4731

> <Gold.Chemscore.Internal_Hbond>
0.0000

> <Gold.Chemscore.DEClash>
0.2318

> <Gold.Chemscore.DEInternal>
0.3245

> <Gold.Chemscore.Rot>
2.0935

> <Gold.Chemscore.Internal.Correction>
   9.000000E+99

> <Gold.Chemscore.Hbonds>
donor molecule, donor type, donor heavy atom, donor atom, acceptor molecule, acceptor atom, score
      L1  H    11    28       P1  8028  0.76
      P1  H  7989  7998       L1    12  0.01
      P1  H  7997  8009       L1    14  0.73

> <Gold.Chemscore.Hbond.Weighted>
-6.4224

> <Gold.Chemscore.Metal.Weighted>
-0.0000

> <Gold.Chemscore.Lipo.Weighted>
-4.6184

> <Gold.Chemscore.Internal_Hbond.Weighted>
0.0000

> <Gold.Chemscore.DEClash.Weighted>
0.2318

> <Gold.Chemscore.DEInternal.Weighted>
0.3245

> <Gold.Chemscore.Rot.Weighted>
5.3594

> <Gold.Chemscore.Internal.Correction.Weighted>
   9.000000E+99

> <Gold.Protein.RotatedTorsions>
[ 6907 6896 6895 6894 ] final   37.15 input  -60.11 | X-H torsion
[ 7974 7965 7964 7962 ] final -136.28 input  175.53 | X-H torsion
[ 8008 7997 7996 7995 ] final  147.08 input   59.86 | X-H torsion
[ 10167 10162 10161 10158 ] final    2.16 input  -65.29 | X-H torsion
[ 10718 10713 10712 10709 ] final  -73.04 input   66.30 | X-H torsion
[ 10763 10752 10751 10750 ] final  -98.87 input  -60.55 | X-H torsion
[ 11005 11000 10999 10996 ] final   93.47 input  -57.11 | X-H torsion

> <Gold.Protein.ActiveResidues>
 VAL166  LYS551  ARG553  GLY616  TRP617  ASP618  TYR619  PRO620  LYS621  CYS622 
 ASP623  PHE694  ASN695  SER759  ASP760  ASP761  ALA762  ILE779  LEU786  VAL792 
 PHE793  MET794  SER795  GLU796  ALA797  LYS798  CYS799  TRP800  GLU811  SER814 

> <Gold.Protein.RotatedAtoms>
  152.1394  134.9074  160.0554 H   0  0  0  0  0  0  0  0  0  0  0  0  # atno 6907 bound_to 6896
  152.0148  133.3870  159.4242 H   0  0  0  0  0  0  0  0  0  0  0  0  # atno 6908 bound_to 6896
  150.6863  134.3612  159.4995 H   0  0  0  0  0  0  0  0  0  0  0  0  # atno 6909 bound_to 6896
  144.8940  140.6682  143.5127 H   0  0  0  0  0  0  0  0  0  0  0  0  # atno 7974 bound_to 7965
  156.2836  140.2165  156.5480 H   0  0  0  0  0  0  0  0  0  0  0  0  # atno 8008 bound_to 7997
  154.7314  140.0495  157.0752 H   0  0  0  0  0  0  0  0  0  0  0  0  # atno 8009 bound_to 7997
  155.0348  140.3139  155.4748 H   0  0  0  0  0  0  0  0  0  0  0  0  # atno 8010 bound_to 7997
  140.6648  143.7207  150.7807 H   0  0  0  0  0  0  0  0  0  0  0  0  # atno 10167 bound_to 10162
  156.0296  130.4385  150.2682 H   0  0  0  0  0  0  0  0  0  0  0  0  # atno 10718 bound_to 10713
  154.7451  135.4993  153.9190 H   0  0  0  0  0  0  0  0  0  0  0  0  # atno 10763 bound_to 10752
  153.1083  135.6703  153.9554 H   0  0  0  0  0  0  0  0  0  0  0  0  # atno 10764 bound_to 10752
  153.9320  135.3077  155.3424 H   0  0  0  0  0  0  0  0  0  0  0  0  # atno 10765 bound_to 10752
  139.8809  134.8792  156.3723 H   0  0  0  0  0  0  0  0  0  0  0  0  # atno 11005 bound_to 11000
  145.3732  139.1654  143.4321 LP  0  0  0  0  0  0  0  0  0  0  0  0  # atno 17320 bound_to 7965
  146.3071  140.3806  142.8683 LP  0  0  0  0  0  0  0  0  0  0  0  0  # atno 17321 bound_to 7965
  140.0883  143.4902  152.2493 LP  0  0  0  0  0  0  0  0  0  0  0  0  # atno 17342 bound_to 10162
  139.5894  144.7544  151.3439 LP  0  0  0  0  0  0  0  0  0  0  0  0  # atno 17343 bound_to 10162
  157.0785  131.0137  151.3165 LP  0  0  0  0  0  0  0  0  0  0  0  0  # atno 17370 bound_to 10713
  157.4945  130.7842  149.7541 LP  0  0  0  0  0  0  0  0  0  0  0  0  # atno 17371 bound_to 10713
  140.9456  133.7485  156.0203 LP  0  0  0  0  0  0  0  0  0  0  0  0  # atno 17394 bound_to 11000
  140.8167  134.3336  157.5394 LP  0  0  0  0  0  0  0  0  0  0  0  0  # atno 17395 bound_to 11000

$$$$
