AV-unprocessed.smi:2323|AV-procd|sdf|9289|dock2
  -GOLD-   2272012513D 1   1.00000     0.00000
 Structure written by MMmdl.
 30 31  0  0  0  0  0  0  0  0  1 V2000
  146.3682  142.6195  154.0871 C   0  0  0  0  0  0  0  0  0  0  0  0
  147.6047  142.2563  154.7618 N   0  0  0  0  0  0  0  0  0  0  0  0
  148.2475  141.0917  154.5862 C   0  0  0  0  0  0  0  0  0  0  0  0
  147.8375  140.1957  153.8477 O   0  0  0  0  0  0  0  0  0  0  0  0
  149.4904  140.9048  155.4087 C   0  0  0  0  0  0  0  0  0  0  0  0
  150.4818  139.9840  155.0057 C   0  0  0  0  0  0  0  0  0  0  0  0
  151.6427  139.8536  155.7913 C   0  0  0  0  0  0  0  0  0  0  0  0
  151.8630  140.5707  156.9124 N   0  0  0  0  0  0  0  0  0  0  0  0
  150.9193  141.4643  157.2985 C   0  0  0  0  0  0  0  0  0  0  0  0
  151.1305  142.2138  158.4388 O   0  0  0  0  0  0  0  0  0  0  0  0
  152.2353  143.1187  158.4942 C   0  0  2  0  0  0  0  0  0  0  0  0
  152.5605  143.4987  159.9335 C   0  0  0  0  0  0  0  0  0  0  0  0
  151.6576  144.7002  160.1693 C   0  0  0  0  0  0  0  0  0  0  0  0
  151.7405  145.4009  158.9404 O   0  0  0  0  0  0  0  0  0  0  0  0
  151.7873  144.4530  157.8781 C   0  0  0  0  0  0  0  0  0  0  0  0
  149.7249  141.6657  156.5773 C   0  0  0  0  0  0  0  0  0  0  0  0
  146.0425  143.6069  154.4138 H   0  0  0  0  0  0  0  0  0  0  0  0
  145.5758  141.9059  154.3164 H   0  0  0  0  0  0  0  0  0  0  0  0
  146.5104  142.6475  153.0060 H   0  0  0  0  0  0  0  0  0  0  0  0
  147.9985  142.9290  155.4038 H   0  0  0  0  0  0  0  0  0  0  0  0
  150.3605  139.3846  154.1148 H   0  0  0  0  0  0  0  0  0  0  0  0
  152.4168  139.1549  155.5102 H   0  0  0  0  0  0  0  0  0  0  0  0
  153.1034  142.7282  157.9603 H   0  0  0  0  0  0  0  0  0  0  0  0
  152.3954  142.6965  160.6530 H   0  0  0  0  0  0  0  0  0  0  0  0
  153.6044  143.8064  160.0067 H   0  0  0  0  0  0  0  0  0  0  0  0
  150.6273  144.3864  160.3448 H   0  0  0  0  0  0  0  0  0  0  0  0
  151.9815  145.3163  161.0084 H   0  0  0  0  0  0  0  0  0  0  0  0
  152.4865  144.7994  157.1164 H   0  0  0  0  0  0  0  0  0  0  0  0
  150.8040  144.3694  157.4129 H   0  0  0  0  0  0  0  0  0  0  0  0
  149.0107  142.3988  156.9233 H   0  0  0  0  0  0  0  0  0  0  0  0
  1  2  1  0  0  0  0
  1 17  1  0  0  0  0
  1 18  1  0  0  0  0
  1 19  1  0  0  0  0
  2  3  1  0  0  0  0
  2 20  1  0  0  0  0
  3  4  2  0  0  0  0
  3  5  1  0  0  0  0
  5 16  1  0  0  0  0
  5  6  2  0  0  0  0
  6  7  1  0  0  0  0
  6 21  1  0  0  0  0
  7  8  2  0  0  0  0
  7 22  1  0  0  0  0
  8  9  1  0  0  0  0
  9 10  1  0  0  0  0
  9 16  2  0  0  0  0
 10 11  1  0  0  0  0
 11 15  1  0  0  0  0
 11 12  1  0  0  0  0
 11 23  1  0  0  0  0
 12 13  1  0  0  0  0
 12 24  1  0  0  0  0
 12 25  1  0  0  0  0
 13 14  1  0  0  0  0
 13 26  1  0  0  0  0
 13 27  1  0  0  0  0
 14 15  1  0  0  0  0
 15 28  1  0  0  0  0
 15 29  1  0  0  0  0
 16 30  1  0  0  0  0
M  END
> <s_m_source_file>
AV-unprocessed.smi

> <i_m_source_file_index>
2323

> <i_lp_mmshare_version>
43012

> <i_f3d_flags>
0

> <s_epik_input>
W0NIM11bTkhdQyg9TyljMVtjSF1bY0hdbmMoW2NIXTEpT1tDQEBIXTJbQ0gyXVtDSDJdT1tDSDJdMg==

> <s_epik_cmdline>
J2VwaWtfcHl0aG9uJywgJy1waCcsICc3LjAnLCAnLXRuJywgJzgnLCAnLW1hJywgJzIwMCcsICctbWV0YWxfYmluZGluZycsICctaW1hZScsICc8aW5maWxlLm1hZT4nLCAnLW9tYWUnLCAnPG91dGZpbGUubWFlPic=

> <r_lp_tautomer_probability>
1

> <r_epik_Ionization_Penalty>
2.2633e-06

> <r_epik_Ionization_Penalty_Charging>
0

> <r_epik_Ionization_Penalty_Neutral>
2.2633e-06

> <r_epik_State_Penalty>
-0

> <r_epik_Charging_Adjusted_Penalty>
0

> <i_epik_Tot_Q>
0

> <i_epik_Tot_abs_Q>
0

> <r_epik_Metal_State_Penalty>
-0

> <b_epik_Metal_Only>
0

> <s_lp_Force_Field>
OPLS_2005

> <r_lp_Energy>
16.8838

> <b_lp_Chiralities_Consistent>
1

> <s_lp_Variant>
AV-unprocessed.smi:2323-1

> <Gold.Version>
5.8.1

> <Gold.Id.Protein>
6NUR|6NUR_protein|mol2

> <Gold.PLP.Fitness>
38.9151

> <Gold.PLP.PLP>
-36.8286

> <Gold.PLP.part.hbond>
-1.2134

> <Gold.PLP.part.metal>
0.0000

> <Gold.PLP.part.buried>
-5.1150

> <Gold.PLP.part.nonpolar>
-31.4976

> <Gold.PLP.part.repulsive>
0.4290

> <Gold.PLP.ligand.clash>
0.0000

> <Gold.PLP.ligand.torsion>
0.4543

> <Gold.PLP.Chemscore.Hbond>
0.9920

> <Gold.PLP.Chemscore.CHOScore>
0.0000

> <Gold.PLP.Chemscore.Metal>
0.0000

> <Gold.Chemscore.Hbonds>
donor molecule, donor type, donor heavy atom, donor atom, acceptor molecule, acceptor atom, score
      L1  H     2    20       P1  8028  0.94

> <Gold.PLP.Chemscore.Internal.Correction>
0.0191

> <Gold.Rescore>
     Score         DG    S(hbond)    S(metal)    S(lipo)     H(rot)  DE(clash)    DE(int)     intcor
     14.37     -14.93       0.94        0.00      81.10       1.24       0.01       0.55       ----

> <Gold.Chemscore.Fitness>
14.3694

> <Gold.Chemscore.DG>
-14.9331

> <Gold.Chemscore.ZeroCoef>
-5.4800

> <Gold.Chemscore.Hbond>
0.9435

> <Gold.Chemscore.Metal>
0.0000

> <Gold.Chemscore.Lipo>
81.0983

> <Gold.Chemscore.Internal_Hbond>
0.0000

> <Gold.Chemscore.DEClash>
0.0106

> <Gold.Chemscore.DEInternal>
0.5531

> <Gold.Chemscore.Rot>
1.2448

> <Gold.Chemscore.Internal.Correction>
   9.000000E+99

> <Gold.Chemscore.Hbonds>
donor molecule, donor type, donor heavy atom, donor atom, acceptor molecule, acceptor atom, score
      L1  H     2    20       P1  8028  0.75

> <Gold.Chemscore.Hbond.Weighted>
-3.1512

> <Gold.Chemscore.Metal.Weighted>
-0.0000

> <Gold.Chemscore.Lipo.Weighted>
-9.4885

> <Gold.Chemscore.Internal_Hbond.Weighted>
0.0000

> <Gold.Chemscore.DEClash.Weighted>
0.0106

> <Gold.Chemscore.DEInternal.Weighted>
0.5531

> <Gold.Chemscore.Rot.Weighted>
3.1866

> <Gold.Chemscore.Internal.Correction.Weighted>
   9.000000E+99

> <Gold.Protein.RotatedTorsions>
[ 6907 6896 6895 6894 ] final  -34.80 input  -60.11 | X-H torsion
[ 7974 7965 7964 7962 ] final  -17.85 input  175.53 | X-H torsion
[ 8008 7997 7996 7995 ] final  100.68 input   59.86 | X-H torsion
[ 10167 10162 10161 10158 ] final  138.73 input  -65.29 | X-H torsion
[ 10718 10713 10712 10709 ] final   36.23 input   66.30 | X-H torsion
[ 10763 10752 10751 10750 ] final  169.96 input  -60.55 | X-H torsion
[ 11005 11000 10999 10996 ] final  -92.83 input  -57.11 | X-H torsion

> <Gold.Protein.ActiveResidues>
 VAL166  LYS551  ARG553  GLY616  TRP617  ASP618  TYR619  PRO620  LYS621  CYS622 
 ASP623  PHE694  ASN695  SER759  ASP760  ASP761  ALA762  ILE779  LEU786  VAL792 
 PHE793  MET794  SER795  GLU796  ALA797  LYS798  CYS799  TRP800  GLU811  SER814 

> <Gold.Protein.RotatedAtoms>
  151.0479  134.9652  159.8195 H   0  0  0  0  0  0  0  0  0  0  0  0  # atno 6907 bound_to 6896
  152.5375  134.2575  159.8932 H   0  0  0  0  0  0  0  0  0  0  0  0  # atno 6908 bound_to 6896
  151.2589  133.4269  159.2649 H   0  0  0  0  0  0  0  0  0  0  0  0  # atno 6909 bound_to 6896
  146.1921  140.3838  142.8454 H   0  0  0  0  0  0  0  0  0  0  0  0  # atno 7974 bound_to 7965
  156.1227  140.3209  155.8232 H   0  0  0  0  0  0  0  0  0  0  0  0  # atno 8008 bound_to 7997
  155.4475  140.0530  157.3021 H   0  0  0  0  0  0  0  0  0  0  0  0  # atno 8009 bound_to 7997
  154.4839  140.2064  155.9713 H   0  0  0  0  0  0  0  0  0  0  0  0  # atno 8010 bound_to 7997
  139.5101  144.6336  151.5754 H   0  0  0  0  0  0  0  0  0  0  0  0  # atno 10167 bound_to 10162
  157.3324  130.7504  149.6856 H   0  0  0  0  0  0  0  0  0  0  0  0  # atno 10718 bound_to 10713
  154.3908  135.2754  155.2156 H   0  0  0  0  0  0  0  0  0  0  0  0  # atno 10763 bound_to 10752
  154.4223  135.5997  153.6021 H   0  0  0  0  0  0  0  0  0  0  0  0  # atno 10764 bound_to 10752
  152.9832  135.5975  154.4162 H   0  0  0  0  0  0  0  0  0  0  0  0  # atno 10765 bound_to 10752
  141.1512  133.7847  157.0074 H   0  0  0  0  0  0  0  0  0  0  0  0  # atno 11005 bound_to 11000
  144.8507  140.6996  143.6170 LP  0  0  0  0  0  0  0  0  0  0  0  0  # atno 17320 bound_to 7965
  145.3760  139.1647  143.4306 LP  0  0  0  0  0  0  0  0  0  0  0  0  # atno 17321 bound_to 7965
  140.6078  143.9493  150.6431 LP  0  0  0  0  0  0  0  0  0  0  0  0  # atno 17342 bound_to 10162
  140.2725  143.3446  152.1225 LP  0  0  0  0  0  0  0  0  0  0  0  0  # atno 17343 bound_to 10162
  155.9697  130.4191  150.4361 LP  0  0  0  0  0  0  0  0  0  0  0  0  # atno 17370 bound_to 10713
  157.2395  131.0522  151.2445 LP  0  0  0  0  0  0  0  0  0  0  0  0  # atno 17371 bound_to 10713
  140.0900  134.9598  157.1761 LP  0  0  0  0  0  0  0  0  0  0  0  0  # atno 17394 bound_to 11000
  140.3459  134.2652  155.7205 LP  0  0  0  0  0  0  0  0  0  0  0  0  # atno 17395 bound_to 11000

$$$$
