AV-unprocessed.smi:3048|AV-procd|sdf|11627|dock5
  -GOLD-   2272017 13D 1   1.00000     0.00000
 Structure written by MMmdl.
 37 38  0  0  0  0  0  0  0  0  1 V2000
  153.1758  143.0750  163.3197 C   0  0  0  0  0  0  0  0  0  0  0  0
  152.8236  143.1986  161.8654 C   0  0  0  0  0  0  0  0  0  0  0  0
  153.1756  142.3181  160.8032 C   0  0  0  0  0  0  0  0  0  0  0  0
  152.7045  142.7111  159.6315 N   0  0  0  0  0  0  0  0  0  0  0  0
  152.0401  143.8548  159.9015 N   0  0  0  0  0  0  0  0  0  0  0  0
  151.3789  144.5772  158.8294 C   0  0  0  0  0  0  0  0  0  0  0  0
  151.6282  143.9407  157.4528 C   0  0  0  0  0  0  0  0  0  0  0  0
  150.5636  143.0115  157.0855 N   0  0  0  0  0  0  0  0  0  0  0  0
  150.9906  141.9791  156.1475 C   0  0  0  0  0  0  0  0  0  0  0  0
  149.7863  141.2004  155.5992 C   0  0  2  0  0  0  0  0  0  0  0  0
  150.1922  139.7977  155.1065 C   0  0  0  0  0  0  0  0  0  0  0  0
  148.9938  139.0783  154.4765 C   0  0  0  0  0  0  0  0  0  0  0  0
  148.3665  139.9655  153.3961 C   0  0  0  0  0  0  0  0  0  0  0  0
  148.0619  141.3615  153.9617 C   0  0  0  0  0  0  0  0  0  0  0  0
  149.2497  141.9344  154.4998 O   0  0  0  0  0  0  0  0  0  0  0  0
  152.0936  144.1709  161.2425 C   0  0  0  0  0  0  0  0  0  0  0  0
  153.9466  142.3224  163.4868 H   0  0  0  0  0  0  0  0  0  0  0  0
  152.3116  142.7882  163.9191 H   0  0  0  0  0  0  0  0  0  0  0  0
  153.5526  144.0145  163.7246 H   0  0  0  0  0  0  0  0  0  0  0  0
  153.7554  141.4082  160.8496 H   0  0  0  0  0  0  0  0  0  0  0  0
  150.3088  144.6374  159.0360 H   0  0  0  0  0  0  0  0  0  0  0  0
  151.7542  145.6010  158.8344 H   0  0  0  0  0  0  0  0  0  0  0  0
  151.6944  144.7337  156.7072 H   0  0  0  0  0  0  0  0  0  0  0  0
  152.5923  143.4307  157.4484 H   0  0  0  0  0  0  0  0  0  0  0  0
  149.7783  143.5234  156.6952 H   0  0  0  0  0  0  0  0  0  0  0  0
  151.5521  142.4192  155.3226 H   0  0  0  0  0  0  0  0  0  0  0  0
  151.6677  141.2909  156.6550 H   0  0  0  0  0  0  0  0  0  0  0  0
  149.0315  141.1025  156.3820 H   0  0  0  0  0  0  0  0  0  0  0  0
  150.9933  139.8834  154.3712 H   0  0  0  0  0  0  0  0  0  0  0  0
  150.5880  139.2056  155.9321 H   0  0  0  0  0  0  0  0  0  0  0  0
  149.3029  138.1226  154.0524 H   0  0  0  0  0  0  0  0  0  0  0  0
  148.2529  138.8563  155.2455 H   0  0  0  0  0  0  0  0  0  0  0  0
  149.0521  140.0567  152.5529 H   0  0  0  0  0  0  0  0  0  0  0  0
  147.4559  139.5058  153.0113 H   0  0  0  0  0  0  0  0  0  0  0  0
  147.6845  142.0115  153.1723 H   0  0  0  0  0  0  0  0  0  0  0  0
  147.2887  141.3112  154.7296 H   0  0  0  0  0  0  0  0  0  0  0  0
  151.6138  145.0542  161.6378 H   0  0  0  0  0  0  0  0  0  0  0  0
  1  2  1  0  0  0  0
  1 17  1  0  0  0  0
  1 18  1  0  0  0  0
  1 19  1  0  0  0  0
  2 16  2  0  0  0  0
  2  3  1  0  0  0  0
  3  4  2  0  0  0  0
  3 20  1  0  0  0  0
  4  5  1  0  0  0  0
  5  6  1  0  0  0  0
  5 16  1  0  0  0  0
  6  7  1  0  0  0  0
  6 21  1  0  0  0  0
  6 22  1  0  0  0  0
  7  8  1  0  0  0  0
  7 23  1  0  0  0  0
  7 24  1  0  0  0  0
  8  9  1  0  0  0  0
  8 25  1  0  0  0  0
  9 10  1  0  0  0  0
  9 26  1  0  0  0  0
  9 27  1  0  0  0  0
 10 15  1  0  0  0  0
 10 11  1  0  0  0  0
 10 28  1  0  0  0  0
 11 12  1  0  0  0  0
 11 29  1  0  0  0  0
 11 30  1  0  0  0  0
 12 13  1  0  0  0  0
 12 31  1  0  0  0  0
 12 32  1  0  0  0  0
 13 14  1  0  0  0  0
 13 33  1  0  0  0  0
 13 34  1  0  0  0  0
 14 15  1  0  0  0  0
 14 35  1  0  0  0  0
 14 36  1  0  0  0  0
 16 37  1  0  0  0  0
M  END
> <s_m_source_file>
AV-unprocessed.smi

> <i_m_source_file_index>
3048

> <i_lp_mmshare_version>
43012

> <i_f3d_flags>
0

> <s_epik_input>
W0NIM11jMVtjSF1ubihbY0hdMSlbQ0gyXVtDSDJdW05IXVtDSDJdW0NAQEhdMltDSDJdW0NIMl1bQ0gyXVtDSDJdTzI=

> <s_epik_cmdline>
J2VwaWtfcHl0aG9uJywgJy1waCcsICc3LjAnLCAnLXRuJywgJzgnLCAnLW1hJywgJzIwMCcsICctbWV0YWxfYmluZGluZycsICctaW1hZScsICc8aW5maWxlLm1hZT4nLCAnLW9tYWUnLCAnPG91dGZpbGUubWFlPic=

> <r_lp_tautomer_probability>
1

> <r_epik_Ionization_Penalty>
2.52229

> <r_epik_Ionization_Penalty_Charging>
0

> <r_epik_Ionization_Penalty_Neutral>
2.52229

> <r_epik_State_Penalty>
2.68614

> <r_epik_Charging_Adjusted_Penalty>
2.68614

> <i_epik_Tot_Q>
0

> <i_epik_Tot_abs_Q>
0

> <r_epik_Metal_State_Penalty>
2.68365

> <b_epik_Metal_Only>
0

> <s_lp_Force_Field>
OPLS_2005

> <r_lp_Energy>
12.7025

> <b_lp_Chiralities_Consistent>
1

> <s_lp_Variant>
AV-unprocessed.smi:3048-3

> <Gold.Version>
5.8.1

> <Gold.Id.Protein>
6NUR|6NUR_protein|mol2

> <Gold.PLP.Fitness>
44.6500

> <Gold.PLP.PLP>
-42.7707

> <Gold.PLP.part.hbond>
-2.2152

> <Gold.PLP.part.metal>
0.0000

> <Gold.PLP.part.buried>
-2.4244

> <Gold.PLP.part.nonpolar>
-37.8456

> <Gold.PLP.part.repulsive>
1.0686

> <Gold.PLP.ligand.clash>
0.0000

> <Gold.PLP.ligand.torsion>
0.6692

> <Gold.PLP.Chemscore.Hbond>
1.0565

> <Gold.PLP.Chemscore.CHOScore>
0.0000

> <Gold.PLP.Chemscore.Metal>
0.0000

> <Gold.Chemscore.Hbonds>
donor molecule, donor type, donor heavy atom, donor atom, acceptor molecule, acceptor atom, score
      L1  H     8    25       P1  8028  1.00
      P1  H  8011  8017       L1    15  0.04

> <Gold.PLP.Chemscore.Internal.Correction>
0.0482

> <Gold.Rescore>
     Score         DG    S(hbond)    S(metal)    S(lipo)     H(rot)  DE(clash)    DE(int)     intcor
     17.18     -17.83       0.99        0.00     110.95       1.54       0.01       0.63       ----

> <Gold.Chemscore.Fitness>
17.1789

> <Gold.Chemscore.DG>
-17.8270

> <Gold.Chemscore.ZeroCoef>
-5.4800

> <Gold.Chemscore.Hbond>
0.9914

> <Gold.Chemscore.Metal>
0.0000

> <Gold.Chemscore.Lipo>
110.9473

> <Gold.Chemscore.Internal_Hbond>
0.0000

> <Gold.Chemscore.DEClash>
0.0133

> <Gold.Chemscore.DEInternal>
0.6348

> <Gold.Chemscore.Rot>
1.5411

> <Gold.Chemscore.Internal.Correction>
   9.000000E+99

> <Gold.Chemscore.Hbonds>
donor molecule, donor type, donor heavy atom, donor atom, acceptor molecule, acceptor atom, score
      L1  H     8    25       P1  8028  0.99

> <Gold.Chemscore.Hbond.Weighted>
-3.3113

> <Gold.Chemscore.Metal.Weighted>
-0.0000

> <Gold.Chemscore.Lipo.Weighted>
-12.9808

> <Gold.Chemscore.Internal_Hbond.Weighted>
0.0000

> <Gold.Chemscore.DEClash.Weighted>
0.0133

> <Gold.Chemscore.DEInternal.Weighted>
0.6348

> <Gold.Chemscore.Rot.Weighted>
3.9452

> <Gold.Chemscore.Internal.Correction.Weighted>
   9.000000E+99

> <Gold.Protein.RotatedTorsions>
[ 6907 6896 6895 6894 ] final -134.99 input  -60.11 | X-H torsion
[ 7974 7965 7964 7962 ] final  -65.52 input  175.53 | X-H torsion
[ 8008 7997 7996 7995 ] final  -88.79 input   59.86 | X-H torsion
[ 10167 10162 10161 10158 ] final  -44.85 input  -65.29 | X-H torsion
[ 10718 10713 10712 10709 ] final  169.10 input   66.30 | X-H torsion
[ 10763 10752 10751 10750 ] final  134.98 input  -60.55 | X-H torsion
[ 11005 11000 10999 10996 ] final -111.97 input  -57.11 | X-H torsion

> <Gold.Protein.ActiveResidues>
 VAL166  LYS551  ARG553  GLY616  TRP617  ASP618  TYR619  PRO620  LYS621  CYS622 
 ASP623  PHE694  ASN695  SER759  ASP760  ASP761  ALA762  ILE779  LEU786  VAL792 
 PHE793  MET794  SER795  GLU796  ALA797  LYS798  CYS799  TRP800  GLU811  SER814 

> <Gold.Protein.RotatedAtoms>
  150.9924  133.6136  159.2706 H   0  0  0  0  0  0  0  0  0  0  0  0  # atno 6907 bound_to 6896
  151.3352  135.0850  159.9362 H   0  0  0  0  0  0  0  0  0  0  0  0  # atno 6908 bound_to 6896
  152.5250  133.9546  159.7742 H   0  0  0  0  0  0  0  0  0  0  0  0  # atno 6909 bound_to 6896
  145.7532  140.8898  143.0468 H   0  0  0  0  0  0  0  0  0  0  0  0  # atno 7974 bound_to 7965
  154.6790  140.0549  157.0246 H   0  0  0  0  0  0  0  0  0  0  0  0  # atno 8008 bound_to 7997
  155.0979  140.3226  155.4536 H   0  0  0  0  0  0  0  0  0  0  0  0  # atno 8009 bound_to 7997
  156.2687  140.2036  156.6106 H   0  0  0  0  0  0  0  0  0  0  0  0  # atno 8010 bound_to 7997
  140.6881  143.2909  151.3555 H   0  0  0  0  0  0  0  0  0  0  0  0  # atno 10167 bound_to 10162
  157.0275  131.0250  151.2755 H   0  0  0  0  0  0  0  0  0  0  0  0  # atno 10718 bound_to 10713
  153.8326  135.3102  155.3420 H   0  0  0  0  0  0  0  0  0  0  0  0  # atno 10763 bound_to 10752
  154.7967  135.4751  154.0180 H   0  0  0  0  0  0  0  0  0  0  0  0  # atno 10764 bound_to 10752
  153.1625  135.6863  153.8813 H   0  0  0  0  0  0  0  0  0  0  0  0  # atno 10765 bound_to 10752
  141.0703  133.9391  157.2498 H   0  0  0  0  0  0  0  0  0  0  0  0  # atno 11005 bound_to 11000
  144.6845  139.9621  143.7480 LP  0  0  0  0  0  0  0  0  0  0  0  0  # atno 17320 bound_to 7965
  146.0336  139.3357  143.0740 LP  0  0  0  0  0  0  0  0  0  0  0  0  # atno 17321 bound_to 7965
  139.6257  144.0819  152.2432 LP  0  0  0  0  0  0  0  0  0  0  0  0  # atno 17342 bound_to 10162
  140.0277  144.6104  150.7513 LP  0  0  0  0  0  0  0  0  0  0  0  0  # atno 17343 bound_to 10162
  157.5203  130.7993  149.7801 LP  0  0  0  0  0  0  0  0  0  0  0  0  # atno 17370 bound_to 10713
  156.0081  130.3846  150.2360 LP  0  0  0  0  0  0  0  0  0  0  0  0  # atno 17371 bound_to 10713
  139.9516  135.0174  156.9011 LP  0  0  0  0  0  0  0  0  0  0  0  0  # atno 17394 bound_to 11000
  140.5688  134.0463  155.7423 LP  0  0  0  0  0  0  0  0  0  0  0  0  # atno 17395 bound_to 11000

$$$$
