AV-unprocessed.smi:1830|AV-procd|sdf|7443|dock6
  -GOLD-   22720 9133D 1   1.00000     0.00000
 Structure written by MMmdl.
 52 55  0  0  0  0  0  0  0  0  1 V2000
  149.7956  138.2096  156.5997 O   0  0  0  0  0  0  0  0  0  0  0  0
  149.7340  138.4082  157.8128 C   0  0  0  0  0  0  0  0  0  0  0  0
  150.7590  138.8740  158.5399 N   0  0  0  0  0  0  0  0  0  0  0  0
  152.0849  139.2079  158.0261 C   0  0  0  0  0  0  0  0  0  0  0  0
  152.5176  140.6378  158.3976 C   0  0  1  0  0  0  0  0  0  0  0  0
  151.6922  141.7496  157.7050 C   0  0  0  0  0  0  0  0  0  0  0  0
  152.1323  143.0484  158.1760 N   0  0  0  0  0  0  0  0  0  0  0  0
  151.4143  144.2012  157.6843 C   0  0  0  0  0  0  0  0  0  0  0  0
  151.8184  145.3348  158.6433 C   0  0  0  0  0  0  0  0  0  0  0  0
  152.3202  144.6069  159.9105 C   0  0  0  0  0  0  0  0  0  0  0  0
  152.0078  143.1405  159.6059 C   0  0  2  0  0  0  0  0  0  0  0  0
  152.8679  142.0719  160.2971 C   0  0  0  0  0  0  0  0  0  0  0  0
  152.4543  140.7876  159.8220 O   0  0  0  0  0  0  0  0  0  0  0  0
  148.6580  138.1838  158.5854 N   0  0  0  0  0  0  0  0  0  0  0  0
  147.3832  137.6647  158.2151 C   0  0  0  0  0  0  0  0  0  0  0  0
  146.9256  137.6389  156.8745 C   0  0  0  0  0  0  0  0  0  0  0  0
  145.6502  137.1176  156.5932 C   0  0  0  0  0  0  0  0  0  0  0  0
  144.8698  136.6483  157.6637 C   0  0  0  0  0  0  0  0  0  0  0  0
  145.2825  136.6821  158.9465 N   0  0  0  0  0  0  0  0  0  0  0  0
  146.5125  137.1780  159.2278 C   0  0  0  0  0  0  0  0  0  0  0  0
  146.8995  137.2352  160.5831 N   0  0  0  0  0  0  0  0  0  0  0  0
  145.7987  136.9855  161.5103 C   0  0  0  0  0  0  0  0  0  0  0  0
  146.3794  136.1663  162.6649 C   0  0  0  0  0  0  0  0  0  0  0  0
  147.5519  135.4399  162.0172 C   0  0  0  0  0  0  0  0  0  0  0  0
  148.0696  136.4759  161.0216 C   0  0  0  0  0  0  0  0  0  0  0  0
  150.6142  139.0094  159.5299 H   0  0  0  0  0  0  0  0  0  0  0  0
  152.7937  138.4946  158.4475 H   0  0  0  0  0  0  0  0  0  0  0  0
  152.1310  139.0729  156.9443 H   0  0  0  0  0  0  0  0  0  0  0  0
  153.5620  140.7524  158.1020 H   0  0  0  0  0  0  0  0  0  0  0  0
  151.8072  141.6866  156.6226 H   0  0  0  0  0  0  0  0  0  0  0  0
  150.6306  141.6236  157.9198 H   0  0  0  0  0  0  0  0  0  0  0  0
  151.6646  144.4191  156.6457 H   0  0  0  0  0  0  0  0  0  0  0  0
  150.3384  144.0295  157.7450 H   0  0  0  0  0  0  0  0  0  0  0  0
  152.6172  145.9414  158.2153 H   0  0  0  0  0  0  0  0  0  0  0  0
  150.9743  145.9921  158.8539 H   0  0  0  0  0  0  0  0  0  0  0  0
  153.3941  144.7573  160.0296 H   0  0  0  0  0  0  0  0  0  0  0  0
  151.8260  144.9533  160.8186 H   0  0  0  0  0  0  0  0  0  0  0  0
  150.9657  142.9616  159.8809 H   0  0  0  0  0  0  0  0  0  0  0  0
  153.9277  142.2226  160.0853 H   0  0  0  0  0  0  0  0  0  0  0  0
  152.7415  142.1151  161.3789 H   0  0  0  0  0  0  0  0  0  0  0  0
  148.7922  138.3200  159.5766 H   0  0  0  0  0  0  0  0  0  0  0  0
  147.5193  138.0203  156.0585 H   0  0  0  0  0  0  0  0  0  0  0  0
  145.2774  137.0829  155.5803 H   0  0  0  0  0  0  0  0  0  0  0  0
  143.8847  136.2429  157.4873 H   0  0  0  0  0  0  0  0  0  0  0  0
  145.3660  137.9207  161.8657 H   0  0  0  0  0  0  0  0  0  0  0  0
  145.0077  136.4195  161.0147 H   0  0  0  0  0  0  0  0  0  0  0  0
  146.7457  136.8339  163.4462 H   0  0  0  0  0  0  0  0  0  0  0  0
  145.6512  135.4890  163.1120 H   0  0  0  0  0  0  0  0  0  0  0  0
  148.3097  135.1233  162.7345 H   0  0  0  0  0  0  0  0  0  0  0  0
  147.1953  134.5569  161.4846 H   0  0  0  0  0  0  0  0  0  0  0  0
  148.6375  136.0151  160.2131 H   0  0  0  0  0  0  0  0  0  0  0  0
  148.7436  137.1696  161.5252 H   0  0  0  0  0  0  0  0  0  0  0  0
  1  2  2  0  0  0  0
  2  3  1  0  0  0  0
  2 14  1  0  0  0  0
  3  4  1  0  0  0  0
  3 26  1  0  0  0  0
  4  5  1  0  0  0  0
  4 27  1  0  0  0  0
  4 28  1  0  0  0  0
  5 13  1  0  0  0  0
  5  6  1  0  0  0  0
  5 29  1  0  0  0  0
  6  7  1  0  0  0  0
  6 30  1  0  0  0  0
  6 31  1  0  0  0  0
  7 11  1  0  0  0  0
  7  8  1  0  0  0  0
  8  9  1  0  0  0  0
  8 32  1  0  0  0  0
  8 33  1  0  0  0  0
  9 10  1  0  0  0  0
  9 34  1  0  0  0  0
  9 35  1  0  0  0  0
 10 11  1  0  0  0  0
 10 36  1  0  0  0  0
 10 37  1  0  0  0  0
 11 12  1  0  0  0  0
 11 38  1  0  0  0  0
 12 13  1  0  0  0  0
 12 39  1  0  0  0  0
 12 40  1  0  0  0  0
 14 15  1  0  0  0  0
 14 41  1  0  0  0  0
 15 20  1  0  0  0  0
 15 16  2  0  0  0  0
 16 17  1  0  0  0  0
 16 42  1  0  0  0  0
 17 18  2  0  0  0  0
 17 43  1  0  0  0  0
 18 19  1  0  0  0  0
 18 44  1  0  0  0  0
 19 20  2  0  0  0  0
 20 21  1  0  0  0  0
 21 25  1  0  0  0  0
 21 22  1  0  0  0  0
 22 23  1  0  0  0  0
 22 45  1  0  0  0  0
 22 46  1  0  0  0  0
 23 24  1  0  0  0  0
 23 47  1  0  0  0  0
 23 48  1  0  0  0  0
 24 25  1  0  0  0  0
 24 49  1  0  0  0  0
 24 50  1  0  0  0  0
 25 51  1  0  0  0  0
 25 52  1  0  0  0  0
M  END
> <s_m_source_file>
AV-unprocessed.smi

> <i_m_source_file_index>
1830

> <i_lp_mmshare_version>
43012

> <i_f3d_flags>
0

> <s_epik_input>
W0NIMl0xW0NIMl1bQ0gyXVtDQEhdKE4xMilbQ0gyXU9bQ0BASF0oW0NIMl0yKVtDSDJdW05IXUMoPU8pW05IXWMzW2NIXVtjSF1bY0hdbmMzTjRbQ0gyXVtDSDJdW0NIMl1bQ0gyXTQ=

> <s_epik_cmdline>
J2VwaWtfcHl0aG9uJywgJy1waCcsICc3LjAnLCAnLXRuJywgJzgnLCAnLW1hJywgJzIwMCcsICctbWV0YWxfYmluZGluZycsICctaW1hZScsICc8aW5maWxlLm1hZT4nLCAnLW9tYWUnLCAnPG91dGZpbGUubWFlPic=

> <r_lp_tautomer_probability>
1

> <r_epik_Ionization_Penalty>
1.16487

> <r_epik_Ionization_Penalty_Charging>
0

> <r_epik_Ionization_Penalty_Neutral>
1.16487

> <r_epik_State_Penalty>
1.21807

> <r_epik_Charging_Adjusted_Penalty>
1.21807

> <i_epik_Tot_Q>
0

> <i_epik_Tot_abs_Q>
0

> <r_epik_Metal_State_Penalty>
1.19922

> <b_epik_Metal_Only>
0

> <s_lp_Force_Field>
OPLS_2005

> <r_lp_Energy>
78.4181

> <b_lp_Chiralities_Consistent>
1

> <s_lp_Variant>
AV-unprocessed.smi:1830-12

> <Gold.Version>
5.8.1

> <Gold.Id.Protein>
6NUR|6NUR_protein|mol2

> <Gold.PLP.Fitness>
40.3227

> <Gold.PLP.PLP>
-37.7005

> <Gold.PLP.part.hbond>
-1.0000

> <Gold.PLP.part.metal>
0.0000

> <Gold.PLP.part.buried>
-6.2282

> <Gold.PLP.part.nonpolar>
-31.1020

> <Gold.PLP.part.repulsive>
0.3346

> <Gold.PLP.ligand.clash>
0.0000

> <Gold.PLP.ligand.torsion>
0.2473

> <Gold.PLP.Chemscore.Hbond>
1.0000

> <Gold.PLP.Chemscore.CHOScore>
0.0000

> <Gold.PLP.Chemscore.Metal>
0.0000

> <Gold.Chemscore.Hbonds>
donor molecule, donor type, donor heavy atom, donor atom, acceptor molecule, acceptor atom, score
      P1  H  6934  6947       L1    21  0.95

> <Gold.PLP.Chemscore.Internal.Correction>
0.1168

> <Gold.Rescore>
     Score         DG    S(hbond)    S(metal)    S(lipo)     H(rot)  DE(clash)    DE(int)     intcor
     13.45     -15.10       0.07        0.00     110.46       1.37       0.06       1.59       ----

> <Gold.Chemscore.Fitness>
13.4539

> <Gold.Chemscore.DG>
-15.1045

> <Gold.Chemscore.ZeroCoef>
-5.4800

> <Gold.Chemscore.Hbond>
0.0658

> <Gold.Chemscore.Metal>
0.0000

> <Gold.Chemscore.Lipo>
110.4587

> <Gold.Chemscore.Internal_Hbond>
0.0000

> <Gold.Chemscore.DEClash>
0.0630

> <Gold.Chemscore.DEInternal>
1.5876

> <Gold.Chemscore.Rot>
1.3746

> <Gold.Chemscore.Internal.Correction>
   9.000000E+99

> <Gold.Chemscore.Hbonds>
donor molecule, donor type, donor heavy atom, donor atom, acceptor molecule, acceptor atom, score
      P1  H  6934  6947       L1    21  0.08

> <Gold.Chemscore.Hbond.Weighted>
-0.2197

> <Gold.Chemscore.Metal.Weighted>
-0.0000

> <Gold.Chemscore.Lipo.Weighted>
-12.9237

> <Gold.Chemscore.Internal_Hbond.Weighted>
0.0000

> <Gold.Chemscore.DEClash.Weighted>
0.0630

> <Gold.Chemscore.DEInternal.Weighted>
1.5876

> <Gold.Chemscore.Rot.Weighted>
3.5189

> <Gold.Chemscore.Internal.Correction.Weighted>
   9.000000E+99

> <Gold.Protein.RotatedTorsions>
[ 6907 6896 6895 6894 ] final   24.55 input  -60.11 | X-H torsion
[ 7974 7965 7964 7962 ] final  -32.35 input  175.53 | X-H torsion
[ 8008 7997 7996 7995 ] final   33.20 input   59.86 | X-H torsion
[ 10167 10162 10161 10158 ] final   62.64 input  -65.29 | X-H torsion
[ 10718 10713 10712 10709 ] final  -71.34 input   66.30 | X-H torsion
[ 10763 10752 10751 10750 ] final -145.29 input  -60.55 | X-H torsion
[ 11005 11000 10999 10996 ] final -107.01 input  -57.11 | X-H torsion

> <Gold.Protein.ActiveResidues>
 VAL166  LYS551  ARG553  GLY616  TRP617  ASP618  TYR619  PRO620  LYS621  CYS622 
 ASP623  PHE694  ASN695  SER759  ASP760  ASP761  ALA762  ILE779  LEU786  VAL792 
 PHE793  MET794  SER795  GLU796  ALA797  LYS798  CYS799  TRP800  GLU811  SER814 

> <Gold.Protein.RotatedAtoms>
  151.9592  135.0132  160.0546 H   0  0  0  0  0  0  0  0  0  0  0  0  # atno 6907 bound_to 6896
  152.1884  133.4751  159.5003 H   0  0  0  0  0  0  0  0  0  0  0  0  # atno 6908 bound_to 6896
  150.6930  134.1662  159.4238 H   0  0  0  0  0  0  0  0  0  0  0  0  # atno 6909 bound_to 6896
  146.0997  140.5781  142.8827 H   0  0  0  0  0  0  0  0  0  0  0  0  # atno 7974 bound_to 7965
  155.1348  140.3260  155.4465 H   0  0  0  0  0  0  0  0  0  0  0  0  # atno 8008 bound_to 7997
  156.2623  140.2004  156.6415 H   0  0  0  0  0  0  0  0  0  0  0  0  # atno 8009 bound_to 7997
  154.6585  140.0550  157.0023 H   0  0  0  0  0  0  0  0  0  0  0  0  # atno 8010 bound_to 7997
  140.1417  144.4547  150.6807 H   0  0  0  0  0  0  0  0  0  0  0  0  # atno 10167 bound_to 10162
  156.0367  130.4349  150.2429 H   0  0  0  0  0  0  0  0  0  0  0  0  # atno 10718 bound_to 10713
  154.8390  135.3417  154.6481 H   0  0  0  0  0  0  0  0  0  0  0  0  # atno 10763 bound_to 10752
  153.7093  135.6965  153.5046 H   0  0  0  0  0  0  0  0  0  0  0  0  # atno 10764 bound_to 10752
  153.2463  135.4368  155.0705 H   0  0  0  0  0  0  0  0  0  0  0  0  # atno 10765 bound_to 10752
  141.0975  133.8944  157.1925 H   0  0  0  0  0  0  0  0  0  0  0  0  # atno 11005 bound_to 11000
  144.7423  140.4974  143.6860 LP  0  0  0  0  0  0  0  0  0  0  0  0  # atno 17320 bound_to 7965
  145.5879  139.1493  143.3199 LP  0  0  0  0  0  0  0  0  0  0  0  0  # atno 17321 bound_to 7965
  140.6756  143.2304  151.5514 LP  0  0  0  0  0  0  0  0  0  0  0  0  # atno 17342 bound_to 10162
  139.5469  144.2498  152.1458 LP  0  0  0  0  0  0  0  0  0  0  0  0  # atno 17343 bound_to 10162
  157.0528  131.0067  151.3248 LP  0  0  0  0  0  0  0  0  0  0  0  0  # atno 17370 bound_to 10713
  157.5128  130.7949  149.7723 LP  0  0  0  0  0  0  0  0  0  0  0  0  # atno 17371 bound_to 10713
  139.9816  135.0096  156.9764 LP  0  0  0  0  0  0  0  0  0  0  0  0  # atno 17394 bound_to 11000
  140.5103  134.1009  155.7269 LP  0  0  0  0  0  0  0  0  0  0  0  0  # atno 17395 bound_to 11000

$$$$
