AV-unprocessed.smi:1430|AV-procd|sdf|5823|dock3
  -GOLD-   22720 5483D 1   1.00000     0.00000
 Structure written by MMmdl.
 46 47  0  0  0  0  0  0  0  0  1 V2000
  151.0898  144.8600  159.5961 C   0  0  0  0  0  0  0  0  0  0  0  0
  151.7201  144.4328  160.7987 O   0  0  0  0  0  0  0  0  0  0  0  0
  152.4030  143.2339  160.7906 C   0  0  0  0  0  0  0  0  0  0  0  0
  153.0683  142.8291  161.9647 C   0  0  0  0  0  0  0  0  0  0  0  0
  153.7662  141.6060  161.9661 C   0  0  0  0  0  0  0  0  0  0  0  0
  153.7705  140.8195  160.7892 C   0  0  0  0  0  0  0  0  0  0  0  0
  154.4489  139.5778  160.6541 N   0  0  0  0  0  0  0  0  0  0  0  0
  154.5993  138.8167  159.5564 C   0  0  0  0  0  0  0  0  0  0  0  0
  154.1766  139.0916  158.4335 O   0  0  0  0  0  0  0  0  0  0  0  0
  155.2980  137.7061  159.8305 N   0  0  0  0  0  0  0  0  0  0  0  0
  155.6541  136.6810  158.8568 C   0  0  0  0  0  0  0  0  0  0  0  0
  157.1573  136.7257  158.5248 C   0  0  0  0  0  0  0  0  0  0  0  0
  157.4939  136.3940  157.1419 N   0  0  0  0  0  0  0  0  0  0  0  0
  156.7348  137.2193  156.2109 C   0  0  0  0  0  0  0  0  0  0  0  0
  157.0958  136.9187  154.7452 C   0  0  2  0  0  0  0  0  0  0  0  0
  156.2375  137.7243  153.7643 C   0  0  0  0  0  0  0  0  0  0  0  0
  156.8867  135.5328  154.4811 O   0  0  0  0  0  0  0  0  0  0  0  0
  157.5665  134.6364  155.3616 C   0  0  1  0  0  0  0  0  0  0  0  0
  159.0730  134.5729  155.0575 C   0  0  0  0  0  0  0  0  0  0  0  0
  157.2537  134.9861  156.8307 C   0  0  0  0  0  0  0  0  0  0  0  0
  153.0852  141.3214  159.6634 C   0  0  0  0  0  0  0  0  0  0  0  0
  152.4137  142.4921  159.6555 N   0  0  0  0  0  0  0  0  0  0  0  0
  150.5982  145.8177  159.7672 H   0  0  0  0  0  0  0  0  0  0  0  0
  150.3276  144.1503  159.2714 H   0  0  0  0  0  0  0  0  0  0  0  0
  151.8147  144.9995  158.7929 H   0  0  0  0  0  0  0  0  0  0  0  0
  153.0468  143.4483  162.8493 H   0  0  0  0  0  0  0  0  0  0  0  0
  154.2903  141.3078  162.8603 H   0  0  0  0  0  0  0  0  0  0  0  0
  154.9213  139.2530  161.4851 H   0  0  0  0  0  0  0  0  0  0  0  0
  155.6116  137.5611  160.7791 H   0  0  0  0  0  0  0  0  0  0  0  0
  155.3967  135.7094  159.2789 H   0  0  0  0  0  0  0  0  0  0  0  0
  155.0418  136.8055  157.9630 H   0  0  0  0  0  0  0  0  0  0  0  0
  157.5616  137.7082  158.7738 H   0  0  0  0  0  0  0  0  0  0  0  0
  157.6607  136.0192  159.1867 H   0  0  0  0  0  0  0  0  0  0  0  0
  155.6658  137.0596  156.3636 H   0  0  0  0  0  0  0  0  0  0  0  0
  156.9236  138.2739  156.4156 H   0  0  0  0  0  0  0  0  0  0  0  0
  158.1425  137.1677  154.5691 H   0  0  0  0  0  0  0  0  0  0  0  0
  156.3674  138.7959  153.9170 H   0  0  0  0  0  0  0  0  0  0  0  0
  155.1787  137.4938  153.8858 H   0  0  0  0  0  0  0  0  0  0  0  0
  156.5108  137.4994  152.7331 H   0  0  0  0  0  0  0  0  0  0  0  0
  157.1611  133.6445  155.1605 H   0  0  0  0  0  0  0  0  0  0  0  0
  159.5581  133.8054  155.6610 H   0  0  0  0  0  0  0  0  0  0  0  0
  159.5739  135.5173  155.2691 H   0  0  0  0  0  0  0  0  0  0  0  0
  159.2476  134.3288  154.0095 H   0  0  0  0  0  0  0  0  0  0  0  0
  157.8480  134.3425  157.4787 H   0  0  0  0  0  0  0  0  0  0  0  0
  156.2089  134.7453  157.0336 H   0  0  0  0  0  0  0  0  0  0  0  0
  153.0700  140.7640  158.7381 H   0  0  0  0  0  0  0  0  0  0  0  0
  1  2  1  0  0  0  0
  1 23  1  0  0  0  0
  1 24  1  0  0  0  0
  1 25  1  0  0  0  0
  2  3  1  0  0  0  0
  3 22  1  0  0  0  0
  3  4  2  0  0  0  0
  4  5  1  0  0  0  0
  4 26  1  0  0  0  0
  5  6  2  0  0  0  0
  5 27  1  0  0  0  0
  6  7  1  0  0  0  0
  6 21  1  0  0  0  0
  7  8  1  0  0  0  0
  7 28  1  0  0  0  0
  8  9  2  0  0  0  0
  8 10  1  0  0  0  0
 10 11  1  0  0  0  0
 10 29  1  0  0  0  0
 11 12  1  0  0  0  0
 11 30  1  0  0  0  0
 11 31  1  0  0  0  0
 12 13  1  0  0  0  0
 12 32  1  0  0  0  0
 12 33  1  0  0  0  0
 13 20  1  0  0  0  0
 13 14  1  0  0  0  0
 14 15  1  0  0  0  0
 14 34  1  0  0  0  0
 14 35  1  0  0  0  0
 15 16  1  0  0  0  0
 15 17  1  0  0  0  0
 15 36  1  0  0  0  0
 16 37  1  0  0  0  0
 16 38  1  0  0  0  0
 16 39  1  0  0  0  0
 17 18  1  0  0  0  0
 18 19  1  0  0  0  0
 18 20  1  0  0  0  0
 18 40  1  0  0  0  0
 19 41  1  0  0  0  0
 19 42  1  0  0  0  0
 19 43  1  0  0  0  0
 20 44  1  0  0  0  0
 20 45  1  0  0  0  0
 21 22  2  0  0  0  0
 21 46  1  0  0  0  0
M  END
> <s_m_source_file>
AV-unprocessed.smi

> <i_m_source_file_index>
1430

> <i_lp_mmshare_version>
43012

> <i_f3d_flags>
0

> <s_epik_input>
W0NIM11PYzFbY0hdW2NIXWMoW2NIXW4xKVtOSF1DKD1PKVtOSF1bQ0gyXVtDSDJdTjJbQ0gyXVtDQEBIXShbQ0gzXSlPW0NAQEhdKFtDSDNdKVtDSDJdMg==

> <s_epik_cmdline>
J2VwaWtfcHl0aG9uJywgJy1waCcsICc3LjAnLCAnLXRuJywgJzgnLCAnLW1hJywgJzIwMCcsICctbWV0YWxfYmluZGluZycsICctaW1hZScsICc8aW5maWxlLm1hZT4nLCAnLW9tYWUnLCAnPG91dGZpbGUubWFlPic=

> <r_lp_tautomer_probability>
1

> <r_epik_Ionization_Penalty>
0.266083

> <r_epik_Ionization_Penalty_Charging>
0

> <r_epik_Ionization_Penalty_Neutral>
0.266083

> <r_epik_State_Penalty>
0.257924

> <r_epik_Charging_Adjusted_Penalty>
0.257924

> <i_epik_Tot_Q>
0

> <i_epik_Tot_abs_Q>
0

> <r_epik_Metal_State_Penalty>
0.257922

> <b_epik_Metal_Only>
0

> <s_lp_Force_Field>
OPLS_2005

> <r_lp_Energy>
25.3264

> <b_lp_Chiralities_Consistent>
1

> <s_lp_Variant>
AV-unprocessed.smi:1430-2

> <Gold.Version>
5.8.1

> <Gold.Id.Protein>
6NUR|6NUR_protein|mol2

> <Gold.PLP.Fitness>
42.1725

> <Gold.PLP.PLP>
-36.8363

> <Gold.PLP.part.hbond>
-1.8433

> <Gold.PLP.part.metal>
0.0000

> <Gold.PLP.part.buried>
-6.4356

> <Gold.PLP.part.nonpolar>
-28.5269

> <Gold.PLP.part.repulsive>
0.3418

> <Gold.PLP.ligand.clash>
0.0000

> <Gold.PLP.ligand.torsion>
0.3388

> <Gold.PLP.Chemscore.Hbond>
2.0000

> <Gold.PLP.Chemscore.CHOScore>
0.0000

> <Gold.PLP.Chemscore.Metal>
0.0000

> <Gold.Chemscore.Hbonds>
donor molecule, donor type, donor heavy atom, donor atom, acceptor molecule, acceptor atom, score
      P1  H  7997  8009       L1     9  1.00
      P1  H 10752 10765       L1    17  1.00

> <Gold.PLP.Chemscore.Internal.Correction>
0.0139

> <Gold.Rescore>
     Score         DG    S(hbond)    S(metal)    S(lipo)     H(rot)  DE(clash)    DE(int)     intcor
     14.70     -16.47       1.45        0.00      90.03       1.71       0.04       1.74       ----

> <Gold.Chemscore.Fitness>
14.6969

> <Gold.Chemscore.DG>
-16.4729

> <Gold.Chemscore.ZeroCoef>
-5.4800

> <Gold.Chemscore.Hbond>
1.4487

> <Gold.Chemscore.Metal>
0.0000

> <Gold.Chemscore.Lipo>
90.0325

> <Gold.Chemscore.Internal_Hbond>
0.0000

> <Gold.Chemscore.DEClash>
0.0354

> <Gold.Chemscore.DEInternal>
1.7407

> <Gold.Chemscore.Rot>
1.7107

> <Gold.Chemscore.Internal.Correction>
   9.000000E+99

> <Gold.Chemscore.Hbonds>
donor molecule, donor type, donor heavy atom, donor atom, acceptor molecule, acceptor atom, score
      P1  H  7997  8009       L1     9  0.98
      P1  H 10752 10765       L1    17  0.38

> <Gold.Chemscore.Hbond.Weighted>
-4.8386

> <Gold.Chemscore.Metal.Weighted>
-0.0000

> <Gold.Chemscore.Lipo.Weighted>
-10.5338

> <Gold.Chemscore.Internal_Hbond.Weighted>
0.0000

> <Gold.Chemscore.DEClash.Weighted>
0.0354

> <Gold.Chemscore.DEInternal.Weighted>
1.7407

> <Gold.Chemscore.Rot.Weighted>
4.3794

> <Gold.Chemscore.Internal.Correction.Weighted>
   9.000000E+99

> <Gold.Protein.RotatedTorsions>
[ 6907 6896 6895 6894 ] final  -82.11 input  -60.11 | X-H torsion
[ 7974 7965 7964 7962 ] final   84.56 input  175.53 | X-H torsion
[ 8008 7997 7996 7995 ] final  151.64 input   59.86 | X-H torsion
[ 10167 10162 10161 10158 ] final -142.47 input  -65.29 | X-H torsion
[ 10718 10713 10712 10709 ] final   88.20 input   66.30 | X-H torsion
[ 10763 10752 10751 10750 ] final   -7.16 input  -60.55 | X-H torsion
[ 11005 11000 10999 10996 ] final   73.79 input  -57.11 | X-H torsion

> <Gold.Protein.ActiveResidues>
 VAL166  LYS551  ARG553  GLY616  TRP617  ASP618  TYR619  PRO620  LYS621  CYS622 
 ASP623  PHE694  ASN695  SER759  ASP760  ASP761  ALA762  ILE779  LEU786  VAL792 
 PHE793  MET794  SER795  GLU796  ALA797  LYS798  CYS799  TRP800  GLU811  SER814 

> <Gold.Protein.RotatedAtoms>
  150.6902  134.3714  159.4993 H   0  0  0  0  0  0  0  0  0  0  0  0  # atno 6907 bound_to 6896
  152.1529  134.8971  160.0556 H   0  0  0  0  0  0  0  0  0  0  0  0  # atno 6908 bound_to 6896
  152.0061  133.3809  159.4238 H   0  0  0  0  0  0  0  0  0  0  0  0  # atno 6909 bound_to 6896
  145.5972  139.2347  143.2266 H   0  0  0  0  0  0  0  0  0  0  0  0  # atno 7974 bound_to 7965
  156.2665  140.2042  156.6207 H   0  0  0  0  0  0  0  0  0  0  0  0  # atno 8008 bound_to 7997
  154.6759  140.0545  157.0239 H   0  0  0  0  0  0  0  0  0  0  0  0  # atno 8009 bound_to 7997
  155.1070  140.3211  155.4534 H   0  0  0  0  0  0  0  0  0  0  0  0  # atno 8010 bound_to 7997
  139.8085  143.7735  152.2662 H   0  0  0  0  0  0  0  0  0  0  0  0  # atno 10167 bound_to 10162
  157.6947  131.0285  150.3238 H   0  0  0  0  0  0  0  0  0  0  0  0  # atno 10718 bound_to 10713
  153.4224  135.7010  153.6285 H   0  0  0  0  0  0  0  0  0  0  0  0  # atno 10763 bound_to 10752
  153.4734  135.3710  155.2403 H   0  0  0  0  0  0  0  0  0  0  0  0  # atno 10764 bound_to 10752
  154.8722  135.4048  154.3595 H   0  0  0  0  0  0  0  0  0  0  0  0  # atno 10765 bound_to 10752
  139.9423  134.7377  156.1068 H   0  0  0  0  0  0  0  0  0  0  0  0  # atno 11005 bound_to 11000
  146.1603  140.6797  142.9280 LP  0  0  0  0  0  0  0  0  0  0  0  0  # atno 17320 bound_to 7965
  144.7326  140.4715  143.6927 LP  0  0  0  0  0  0  0  0  0  0  0  0  # atno 17321 bound_to 7965
  139.7877  144.7422  150.9999 LP  0  0  0  0  0  0  0  0  0  0  0  0  # atno 17342 bound_to 10162
  140.7818  143.4475  151.0461 LP  0  0  0  0  0  0  0  0  0  0  0  0  # atno 17343 bound_to 10162
  156.3722  130.3865  149.7167 LP  0  0  0  0  0  0  0  0  0  0  0  0  # atno 17370 bound_to 10713
  156.4577  130.7937  151.2958 LP  0  0  0  0  0  0  0  0  0  0  0  0  # atno 17371 bound_to 10713
  141.1061  133.6659  156.2868 LP  0  0  0  0  0  0  0  0  0  0  0  0  # atno 17394 bound_to 11000
  140.5922  134.5639  157.5501 LP  0  0  0  0  0  0  0  0  0  0  0  0  # atno 17395 bound_to 11000

$$$$
