AV-unprocessed.smi:1209|AV-procd|sdf|5070|dock4
  -GOLD-   22720 4113D 1   1.00000     0.00000
 Structure written by MMmdl.
 48 50  0  0  0  0  0  0  0  0  1 V2000
  146.3240  144.0677  160.3934 C   0  0  0  0  0  0  0  0  0  0  0  0
  146.1923  143.0995  159.2684 C   0  0  0  0  0  0  0  0  0  0  0  0
  146.1927  143.2443  157.9103 C   0  0  0  0  0  0  0  0  0  0  0  0
  146.0262  141.9159  157.4308 C   0  0  0  0  0  0  0  0  0  0  0  0
  145.9496  141.4414  156.0040 C   0  0  0  0  0  0  0  0  0  0  0  0
  147.1525  141.7368  155.2180 N   0  0  0  0  0  0  0  0  0  0  0  0
  146.8441  142.5953  154.0775 C   0  0  0  0  0  0  0  0  0  0  0  0
  147.8215  140.5186  154.7565 C   0  0  0  0  0  0  0  0  0  0  0  0
  149.3648  140.5733  154.7363 C   0  0  1  0  0  0  0  0  0  0  0  0
  149.7993  140.8461  153.4168 O   0  0  0  0  0  0  0  0  0  0  0  0
  149.9133  141.6692  155.6716 C   0  0  0  0  0  0  0  0  0  0  0  0
  150.6491  141.1234  156.7986 N   0  0  0  0  0  0  0  0  0  0  0  0
  150.9801  139.8334  156.9992 C   0  0  0  0  0  0  0  0  0  0  0  0
  151.6604  139.5440  158.1046 N   0  0  0  0  0  0  0  0  0  0  0  0
  151.7874  140.7930  158.6887 C   0  0  0  0  0  0  0  0  0  0  0  0
  152.4135  141.1818  159.8932 C   0  0  0  0  0  0  0  0  0  0  0  0
  152.4238  142.5349  160.3009 C   0  0  0  0  0  0  0  0  0  0  0  0
  153.1099  142.9089  161.6031 C   0  0  0  0  0  0  0  0  0  0  0  0
  151.8004  143.5238  159.4979 C   0  0  0  0  0  0  0  0  0  0  0  0
  151.8011  144.9840  159.9144 C   0  0  0  0  0  0  0  0  0  0  0  0
  151.1694  143.1521  158.2922 C   0  0  0  0  0  0  0  0  0  0  0  0
  151.1654  141.8026  157.8972 C   0  0  0  0  0  0  0  0  0  0  0  0
  145.9298  141.0450  158.4224 N   0  0  0  0  0  0  0  0  0  0  0  0
  146.0360  141.7925  159.6007 O   0  0  0  0  0  0  0  0  0  0  0  0
  146.5973  145.0569  160.0258 H   0  0  0  0  0  0  0  0  0  0  0  0
  147.0931  143.7438  161.0949 H   0  0  0  0  0  0  0  0  0  0  0  0
  145.3836  144.1569  160.9375 H   0  0  0  0  0  0  0  0  0  0  0  0
  146.2980  144.1585  157.3457 H   0  0  0  0  0  0  0  0  0  0  0  0
  145.7747  140.3662  156.0213 H   0  0  0  0  0  0  0  0  0  0  0  0
  145.0759  141.8749  155.5157 H   0  0  0  0  0  0  0  0  0  0  0  0
  147.7449  142.8191  153.5051 H   0  0  0  0  0  0  0  0  0  0  0  0
  146.4266  143.5492  154.4001 H   0  0  0  0  0  0  0  0  0  0  0  0
  146.1274  142.1184  153.4074 H   0  0  0  0  0  0  0  0  0  0  0  0
  147.4759  139.6538  155.3259 H   0  0  0  0  0  0  0  0  0  0  0  0
  147.4935  140.3344  153.7325 H   0  0  0  0  0  0  0  0  0  0  0  0
  149.7748  139.6116  155.0488 H   0  0  0  0  0  0  0  0  0  0  0  0
  149.5173  140.1408  152.8549 H   0  0  0  0  0  0  0  0  0  0  0  0
  150.5649  142.3513  155.1241 H   0  0  0  0  0  0  0  0  0  0  0  0
  149.0934  142.2718  156.0647 H   0  0  0  0  0  0  0  0  0  0  0  0
  150.7055  139.0634  156.2931 H   0  0  0  0  0  0  0  0  0  0  0  0
  152.8891  140.4284  160.5039 H   0  0  0  0  0  0  0  0  0  0  0  0
  153.9337  143.5979  161.4156 H   0  0  0  0  0  0  0  0  0  0  0  0
  153.5155  142.0309  162.1064 H   0  0  0  0  0  0  0  0  0  0  0  0
  152.4053  143.3877  162.2833 H   0  0  0  0  0  0  0  0  0  0  0  0
  151.2878  145.6072  159.1816 H   0  0  0  0  0  0  0  0  0  0  0  0
  152.8223  145.3533  160.0105 H   0  0  0  0  0  0  0  0  0  0  0  0
  151.2950  145.1080  160.8719 H   0  0  0  0  0  0  0  0  0  0  0  0
  150.6922  143.8950  157.6706 H   0  0  0  0  0  0  0  0  0  0  0  0
  1  2  1  0  0  0  0
  1 25  1  0  0  0  0
  1 26  1  0  0  0  0
  1 27  1  0  0  0  0
  2 24  1  0  0  0  0
  2  3  2  0  0  0  0
  3  4  1  0  0  0  0
  3 28  1  0  0  0  0
  4  5  1  0  0  0  0
  4 23  2  0  0  0  0
  5  6  1  0  0  0  0
  5 29  1  0  0  0  0
  5 30  1  0  0  0  0
  6  7  1  0  0  0  0
  6  8  1  0  0  0  0
  7 31  1  0  0  0  0
  7 32  1  0  0  0  0
  7 33  1  0  0  0  0
  8  9  1  0  0  0  0
  8 34  1  0  0  0  0
  8 35  1  0  0  0  0
  9 10  1  0  0  0  0
  9 11  1  0  0  0  0
  9 36  1  0  0  0  0
 10 37  1  0  0  0  0
 11 12  1  0  0  0  0
 11 38  1  0  0  0  0
 11 39  1  0  0  0  0
 12 22  1  0  0  0  0
 12 13  1  0  0  0  0
 13 14  2  0  0  0  0
 13 40  1  0  0  0  0
 14 15  1  0  0  0  0
 15 22  2  0  0  0  0
 15 16  1  0  0  0  0
 16 17  2  0  0  0  0
 16 41  1  0  0  0  0
 17 18  1  0  0  0  0
 17 19  1  0  0  0  0
 18 42  1  0  0  0  0
 18 43  1  0  0  0  0
 18 44  1  0  0  0  0
 19 20  1  0  0  0  0
 19 21  2  0  0  0  0
 20 45  1  0  0  0  0
 20 46  1  0  0  0  0
 20 47  1  0  0  0  0
 21 22  1  0  0  0  0
 21 48  1  0  0  0  0
 23 24  1  0  0  0  0
M  END
> <s_m_source_file>
AV-unprocessed.smi

> <i_m_source_file_index>
1209

> <i_lp_mmshare_version>
43012

> <i_f3d_flags>
0

> <s_epik_input>
W0NIM11jMVtjSF1jKG5vMSlbQ0gyXU4oW0NIM10pW0NIMl1bQ0BIXShbT0hdKVtDSDJdbihbY0hdbjIpYyhjMjMpW2NIXWMoW0NIM10pYyhbY0hdMylbQ0gzXQ==

> <s_epik_cmdline>
J2VwaWtfcHl0aG9uJywgJy1waCcsICc3LjAnLCAnLXRuJywgJzgnLCAnLW1hJywgJzIwMCcsICctbWV0YWxfYmluZGluZycsICctaW1hZScsICc8aW5maWxlLm1hZT4nLCAnLW9tYWUnLCAnPG91dGZpbGUubWFlPic=

> <r_epik_Ionization_Penalty>
0.103258

> <r_epik_Ionization_Penalty_Charging>
0

> <r_epik_Ionization_Penalty_Neutral>
0.103258

> <r_epik_State_Penalty>
0.0919675

> <r_epik_Charging_Adjusted_Penalty>
0.0919675

> <i_epik_Tot_Q>
0

> <i_epik_Tot_abs_Q>
0

> <r_epik_Metal_State_Penalty>
0.0812522

> <b_epik_Metal_Only>
0

> <s_lp_Force_Field>
OPLS_2005

> <r_lp_Energy>
16.8498

> <b_lp_Chiralities_Consistent>
1

> <s_lp_Variant>
AV-unprocessed.smi:1209-2

> <Gold.Version>
5.8.1

> <Gold.Id.Protein>
6NUR|6NUR_protein|mol2

> <Gold.PLP.Fitness>
50.2646

> <Gold.PLP.PLP>
-46.4806

> <Gold.PLP.part.hbond>
-3.8665

> <Gold.PLP.part.metal>
0.0000

> <Gold.PLP.part.buried>
-5.3867

> <Gold.PLP.part.nonpolar>
-36.2914

> <Gold.PLP.part.repulsive>
0.1138

> <Gold.PLP.ligand.clash>
0.0000

> <Gold.PLP.ligand.torsion>
2.5237

> <Gold.PLP.Chemscore.Hbond>
2.8640

> <Gold.PLP.Chemscore.CHOScore>
0.0000

> <Gold.PLP.Chemscore.Metal>
0.0000

> <Gold.Chemscore.Hbonds>
donor molecule, donor type, donor heavy atom, donor atom, acceptor molecule, acceptor atom, score
      L1  H    10    37       P1  7957  0.56
      P1  H  6934  6946       L1    24  1.00
      P1  H  7989  7998       L1    10  0.29
      P1  H  8011  8017       L1    10  1.00

> <Gold.PLP.Chemscore.Internal.Correction>
0.2393

> <Gold.Rescore>
     Score         DG    S(hbond)    S(metal)    S(lipo)     H(rot)  DE(clash)    DE(int)     intcor
     17.51     -20.12       2.23        0.00     114.88       2.45       0.11       2.50       ----

> <Gold.Chemscore.Fitness>
17.5069

> <Gold.Chemscore.DG>
-20.1166

> <Gold.Chemscore.ZeroCoef>
-5.4800

> <Gold.Chemscore.Hbond>
2.2328

> <Gold.Chemscore.Metal>
0.0000

> <Gold.Chemscore.Lipo>
114.8844

> <Gold.Chemscore.Internal_Hbond>
0.0000

> <Gold.Chemscore.DEClash>
0.1133

> <Gold.Chemscore.DEInternal>
2.4964

> <Gold.Chemscore.Rot>
2.4462

> <Gold.Chemscore.Internal.Correction>
   9.000000E+99

> <Gold.Chemscore.Hbonds>
donor molecule, donor type, donor heavy atom, donor atom, acceptor molecule, acceptor atom, score
      L1  H    10    37       P1  7957  0.56
      P1  H  6934  6946       L1    24  0.60
      P1  H  7989  7998       L1    10  0.13
      P1  H  8011  8017       L1    10  0.54

> <Gold.Chemscore.Hbond.Weighted>
-7.4574

> <Gold.Chemscore.Metal.Weighted>
-0.0000

> <Gold.Chemscore.Lipo.Weighted>
-13.4415

> <Gold.Chemscore.Internal_Hbond.Weighted>
0.0000

> <Gold.Chemscore.DEClash.Weighted>
0.1133

> <Gold.Chemscore.DEInternal.Weighted>
2.4964

> <Gold.Chemscore.Rot.Weighted>
6.2623

> <Gold.Chemscore.Internal.Correction.Weighted>
   9.000000E+99

> <Gold.Protein.RotatedTorsions>
[ 6907 6896 6895 6894 ] final -133.56 input  -60.11 | X-H torsion
[ 7974 7965 7964 7962 ] final -142.31 input  175.53 | X-H torsion
[ 8008 7997 7996 7995 ] final    6.64 input   59.86 | X-H torsion
[ 10167 10162 10161 10158 ] final    3.25 input  -65.29 | X-H torsion
[ 10718 10713 10712 10709 ] final -117.21 input   66.30 | X-H torsion
[ 10763 10752 10751 10750 ] final -127.16 input  -60.55 | X-H torsion
[ 11005 11000 10999 10996 ] final  103.96 input  -57.11 | X-H torsion

> <Gold.Protein.ActiveResidues>
 VAL166  LYS551  ARG553  GLY616  TRP617  ASP618  TYR619  PRO620  LYS621  CYS622 
 ASP623  PHE694  ASN695  SER759  ASP760  ASP761  ALA762  ILE779  LEU786  VAL792 
 PHE793  MET794  SER795  GLU796  ALA797  LYS798  CYS799  TRP800  GLU811  SER814 

> <Gold.Protein.RotatedAtoms>
  150.9755  133.6299  159.2730 H   0  0  0  0  0  0  0  0  0  0  0  0  # atno 6907 bound_to 6896
  151.3573  135.0895  159.9432 H   0  0  0  0  0  0  0  0  0  0  0  0  # atno 6908 bound_to 6896
  152.5198  133.9336  159.7647 H   0  0  0  0  0  0  0  0  0  0  0  0  # atno 6909 bound_to 6896
  144.8453  140.5973  143.5425 H   0  0  0  0  0  0  0  0  0  0  0  0  # atno 7974 bound_to 7965
  154.7437  140.2753  155.6351 H   0  0  0  0  0  0  0  0  0  0  0  0  # atno 8008 bound_to 7997
  156.2879  140.2692  156.2097 H   0  0  0  0  0  0  0  0  0  0  0  0  # atno 8009 bound_to 7997
  155.0226  140.0371  157.2433 H   0  0  0  0  0  0  0  0  0  0  0  0  # atno 8010 bound_to 7997
  140.6595  143.7340  150.7713 H   0  0  0  0  0  0  0  0  0  0  0  0  # atno 10167 bound_to 10162
  156.1018  130.6178  150.9135 H   0  0  0  0  0  0  0  0  0  0  0  0  # atno 10718 bound_to 10713
  154.8750  135.3971  154.3548 H   0  0  0  0  0  0  0  0  0  0  0  0  # atno 10763 bound_to 10752
  153.4329  135.7025  153.6224 H   0  0  0  0  0  0  0  0  0  0  0  0  # atno 10764 bound_to 10752
  153.4838  135.3763  155.2426 H   0  0  0  0  0  0  0  0  0  0  0  0  # atno 10765 bound_to 10752
  139.8788  134.9283  156.5289 H   0  0  0  0  0  0  0  0  0  0  0  0  # atno 11005 bound_to 11000
  145.4610  139.1513  143.3866 LP  0  0  0  0  0  0  0  0  0  0  0  0  # atno 17320 bound_to 7965
  146.2738  140.4740  142.8803 LP  0  0  0  0  0  0  0  0  0  0  0  0  # atno 17321 bound_to 7965
  140.1006  143.4791  152.2427 LP  0  0  0  0  0  0  0  0  0  0  0  0  # atno 17342 bound_to 10162
  139.5826  144.7517  151.3602 LP  0  0  0  0  0  0  0  0  0  0  0  0  # atno 17343 bound_to 10162
  157.6189  131.0931  150.8659 LP  0  0  0  0  0  0  0  0  0  0  0  0  # atno 17370 bound_to 10713
  156.8786  130.5171  149.5292 LP  0  0  0  0  0  0  0  0  0  0  0  0  # atno 17371 bound_to 10713
  140.8395  133.8216  155.9061 LP  0  0  0  0  0  0  0  0  0  0  0  0  # atno 17394 bound_to 11000
  140.9251  134.2093  157.4901 LP  0  0  0  0  0  0  0  0  0  0  0  0  # atno 17395 bound_to 11000

$$$$
