AV-unprocessed.smi:3134|AV-procd|sdf|11944|dock9
  -GOLD-   2272017333D 1   1.00000     0.00000
 Structure written by MMmdl.
 36 36  0  0  0  0  0  0  0  0  1 V2000
  146.7923  140.4895  153.2340 C   0  0  0  0  0  0  0  0  0  0  0  0
  146.5084  141.3938  154.4441 C   0  0  0  0  0  0  0  0  0  0  0  0
  146.2709  142.8493  154.0206 C   0  0  0  0  0  0  0  0  0  0  0  0
  147.6176  141.3380  155.3911 N   0  0  0  0  0  0  0  0  0  0  0  0
  148.9201  141.3561  155.0666 C   0  0  0  0  0  0  0  0  0  0  0  0
  149.3270  141.4188  153.9058 O   0  0  0  0  0  0  0  0  0  0  0  0
  149.9184  141.3382  156.2368 C   0  0  1  0  0  0  0  0  0  0  0  0
  150.9262  140.1887  156.0766 C   0  0  0  0  0  0  0  0  0  0  0  0
  150.6409  142.6119  156.4079 N   0  0  0  0  0  0  0  0  0  0  0  0
  150.9633  142.9420  157.7918 C   0  0  0  0  0  0  0  0  0  0  0  0
  152.4533  143.2948  157.8973 C   0  0  0  0  0  0  0  0  0  0  0  0
  153.1145  142.5034  158.9163 N   0  0  0  0  0  0  0  0  0  0  0  0
  153.4138  142.8570  160.2149 C   0  0  0  0  0  0  0  0  0  0  0  0
  154.0299  141.7856  160.7953 C   0  0  0  0  0  0  0  0  0  0  0  0
  154.0611  140.8113  159.7585 C   0  0  0  0  0  0  0  0  0  0  0  0
  153.5107  141.2433  158.6354 N   0  0  0  0  0  0  0  0  0  0  0  0
  145.9675  140.5194  152.5217 H   0  0  0  0  0  0  0  0  0  0  0  0
  146.9244  139.4504  153.5374 H   0  0  0  0  0  0  0  0  0  0  0  0
  147.6967  140.8000  152.7097 H   0  0  0  0  0  0  0  0  0  0  0  0
  145.6017  141.0398  154.9380 H   0  0  0  0  0  0  0  0  0  0  0  0
  145.4285  142.9239  153.3324 H   0  0  0  0  0  0  0  0  0  0  0  0
  147.1460  143.2669  153.5215 H   0  0  0  0  0  0  0  0  0  0  0  0
  146.0467  143.4780  154.8831 H   0  0  0  0  0  0  0  0  0  0  0  0
  147.3772  141.2957  156.3710 H   0  0  0  0  0  0  0  0  0  0  0  0
  149.3577  141.1494  157.1542 H   0  0  0  0  0  0  0  0  0  0  0  0
  150.4189  139.2287  155.9732 H   0  0  0  0  0  0  0  0  0  0  0  0
  151.5789  140.1190  156.9474 H   0  0  0  0  0  0  0  0  0  0  0  0
  151.5609  140.3267  155.2000 H   0  0  0  0  0  0  0  0  0  0  0  0
  150.1464  143.3806  155.9778 H   0  0  0  0  0  0  0  0  0  0  0  0
  150.3672  143.7885  158.1345 H   0  0  0  0  0  0  0  0  0  0  0  0
  150.7325  142.0928  158.4369 H   0  0  0  0  0  0  0  0  0  0  0  0
  152.9578  143.1300  156.9438 H   0  0  0  0  0  0  0  0  0  0  0  0
  152.5800  144.3496  158.1452 H   0  0  0  0  0  0  0  0  0  0  0  0
  153.1650  143.8298  160.6132 H   0  0  0  0  0  0  0  0  0  0  0  0
  154.4015  141.7088  161.8063 H   0  0  0  0  0  0  0  0  0  0  0  0
  154.4637  139.8097  159.7886 H   0  0  0  0  0  0  0  0  0  0  0  0
  1  2  1  0  0  0  0
  1 17  1  0  0  0  0
  1 18  1  0  0  0  0
  1 19  1  0  0  0  0
  2  3  1  0  0  0  0
  2  4  1  0  0  0  0
  2 20  1  0  0  0  0
  3 21  1  0  0  0  0
  3 22  1  0  0  0  0
  3 23  1  0  0  0  0
  4  5  1  0  0  0  0
  4 24  1  0  0  0  0
  5  6  2  0  0  0  0
  5  7  1  0  0  0  0
  7  8  1  0  0  0  0
  7  9  1  0  0  0  0
  7 25  1  0  0  0  0
  8 26  1  0  0  0  0
  8 27  1  0  0  0  0
  8 28  1  0  0  0  0
  9 10  1  0  0  0  0
  9 29  1  0  0  0  0
 10 11  1  0  0  0  0
 10 30  1  0  0  0  0
 10 31  1  0  0  0  0
 11 12  1  0  0  0  0
 11 32  1  0  0  0  0
 11 33  1  0  0  0  0
 12 16  1  0  0  0  0
 12 13  1  0  0  0  0
 13 14  2  0  0  0  0
 13 34  1  0  0  0  0
 14 15  1  0  0  0  0
 14 35  1  0  0  0  0
 15 16  2  0  0  0  0
 15 36  1  0  0  0  0
M  END
> <s_m_source_file>
AV-unprocessed.smi

> <i_m_source_file_index>
3134

> <i_lp_mmshare_version>
43012

> <i_f3d_flags>
0

> <s_epik_input>
W0NIM11bQ0hdKFtDSDNdKVtOSF1DKD1PKVtDQEhdKFtDSDNdKVtOSF1bQ0gyXVtDSDJdbjFbY0hdW2NIXVtjSF1uMQ==

> <s_epik_cmdline>
J2VwaWtfcHl0aG9uJywgJy1waCcsICc3LjAnLCAnLXRuJywgJzgnLCAnLW1hJywgJzIwMCcsICctbWV0YWxfYmluZGluZycsICctaW1hZScsICc8aW5maWxlLm1hZT4nLCAnLW9tYWUnLCAnPG91dGZpbGUubWFlPic=

> <r_lp_tautomer_probability>
1

> <r_epik_Ionization_Penalty>
0.731872

> <r_epik_Ionization_Penalty_Charging>
0

> <r_epik_Ionization_Penalty_Neutral>
0.731872

> <r_epik_State_Penalty>
0.75611

> <r_epik_Charging_Adjusted_Penalty>
0.75611

> <i_epik_Tot_Q>
0

> <i_epik_Tot_abs_Q>
0

> <r_epik_Metal_State_Penalty>
0.755373

> <b_epik_Metal_Only>
0

> <s_lp_Force_Field>
OPLS_2005

> <r_lp_Energy>
3.64981

> <b_lp_Chiralities_Consistent>
1

> <s_lp_Variant>
AV-unprocessed.smi:3134-4

> <Gold.Version>
5.8.1

> <Gold.Id.Protein>
6NUR|6NUR_protein|mol2

> <Gold.PLP.Fitness>
41.3103

> <Gold.PLP.PLP>
-39.3430

> <Gold.PLP.part.hbond>
-3.0000

> <Gold.PLP.part.metal>
0.0000

> <Gold.PLP.part.buried>
-4.7186

> <Gold.PLP.part.nonpolar>
-30.9380

> <Gold.PLP.part.repulsive>
0.2220

> <Gold.PLP.ligand.clash>
0.0000

> <Gold.PLP.ligand.torsion>
1.7867

> <Gold.PLP.Chemscore.Hbond>
1.8284

> <Gold.PLP.Chemscore.CHOScore>
0.0000

> <Gold.PLP.Chemscore.Metal>
0.0000

> <Gold.Chemscore.Hbonds>
donor molecule, donor type, donor heavy atom, donor atom, acceptor molecule, acceptor atom, score
      L1  H     9    29       P1  8028  1.00
      P1  H  7989  7998       L1     6  0.04
      P1  H  7997  8008       L1    16  0.12
      P1  H  8011  8017       L1     6  0.75

> <Gold.PLP.Chemscore.Internal.Correction>
0.0556

> <Gold.Rescore>
     Score         DG    S(hbond)    S(metal)    S(lipo)     H(rot)  DE(clash)    DE(int)     intcor
     13.85     -16.05       1.83        0.00      83.09       2.05       0.11       2.09       ----

> <Gold.Chemscore.Fitness>
13.8503

> <Gold.Chemscore.DG>
-16.0455

> <Gold.Chemscore.ZeroCoef>
-5.4800

> <Gold.Chemscore.Hbond>
1.8260

> <Gold.Chemscore.Metal>
0.0000

> <Gold.Chemscore.Lipo>
83.0935

> <Gold.Chemscore.Internal_Hbond>
0.0000

> <Gold.Chemscore.DEClash>
0.1058

> <Gold.Chemscore.DEInternal>
2.0895

> <Gold.Chemscore.Rot>
2.0529

> <Gold.Chemscore.Internal.Correction>
   9.000000E+99

> <Gold.Chemscore.Hbonds>
donor molecule, donor type, donor heavy atom, donor atom, acceptor molecule, acceptor atom, score
      L1  H     9    29       P1  8028  1.00
      P1  H  7989  7998       L1     6  0.04
      P1  H  7997  8008       L1    16  0.02
      P1  H  8011  8017       L1     6  0.76

> <Gold.Chemscore.Hbond.Weighted>
-6.0990

> <Gold.Chemscore.Metal.Weighted>
-0.0000

> <Gold.Chemscore.Lipo.Weighted>
-9.7219

> <Gold.Chemscore.Internal_Hbond.Weighted>
0.0000

> <Gold.Chemscore.DEClash.Weighted>
0.1058

> <Gold.Chemscore.DEInternal.Weighted>
2.0895

> <Gold.Chemscore.Rot.Weighted>
5.2554

> <Gold.Chemscore.Internal.Correction.Weighted>
   9.000000E+99

> <Gold.Protein.RotatedTorsions>
[ 6907 6896 6895 6894 ] final  -57.93 input  -60.11 | X-H torsion
[ 7974 7965 7964 7962 ] final  -10.20 input  175.53 | X-H torsion
[ 8008 7997 7996 7995 ] final -106.00 input   59.86 | X-H torsion
[ 10167 10162 10161 10158 ] final  158.57 input  -65.29 | X-H torsion
[ 10718 10713 10712 10709 ] final   70.94 input   66.30 | X-H torsion
[ 10763 10752 10751 10750 ] final    9.63 input  -60.55 | X-H torsion
[ 11005 11000 10999 10996 ] final -145.03 input  -57.11 | X-H torsion

> <Gold.Protein.ActiveResidues>
 VAL166  LYS551  ARG553  GLY616  TRP617  ASP618  TYR619  PRO620  LYS621  CYS622 
 ASP623  PHE694  ASN695  SER759  ASP760  ASP761  ALA762  ILE779  LEU786  VAL792 
 PHE793  MET794  SER795  GLU796  ALA797  LYS798  CYS799  TRP800  GLU811  SER814 

> <Gold.Protein.RotatedAtoms>
  150.8047  134.7163  159.6632 H   0  0  0  0  0  0  0  0  0  0  0  0  # atno 6907 bound_to 6896
  152.4165  134.6028  160.0014 H   0  0  0  0  0  0  0  0  0  0  0  0  # atno 6908 bound_to 6896
  151.6256  133.3298  159.3133 H   0  0  0  0  0  0  0  0  0  0  0  0  # atno 6909 bound_to 6896
  146.2228  140.2729  142.8358 H   0  0  0  0  0  0  0  0  0  0  0  0  # atno 7974 bound_to 7965
  154.9080  140.0411  157.1930 H   0  0  0  0  0  0  0  0  0  0  0  0  # atno 8008 bound_to 7997
  154.8376  140.2909  155.5659 H   0  0  0  0  0  0  0  0  0  0  0  0  # atno 8009 bound_to 7997
  156.2990  140.2489  156.3313 H   0  0  0  0  0  0  0  0  0  0  0  0  # atno 8010 bound_to 7997
  139.4827  144.4812  151.8441 H   0  0  0  0  0  0  0  0  0  0  0  0  # atno 10167 bound_to 10162
  157.6426  130.9503  150.0720 H   0  0  0  0  0  0  0  0  0  0  0  0  # atno 10718 bound_to 10713
  153.2119  135.6870  153.8103 H   0  0  0  0  0  0  0  0  0  0  0  0  # atno 10763 bound_to 10752
  153.7333  135.3249  155.3291 H   0  0  0  0  0  0  0  0  0  0  0  0  # atno 10764 bound_to 10752
  154.8226  135.4641  154.0930 H   0  0  0  0  0  0  0  0  0  0  0  0  # atno 10765 bound_to 10752
  140.7964  134.2908  157.4995 H   0  0  0  0  0  0  0  0  0  0  0  0  # atno 11005 bound_to 11000
  144.9255  140.7916  143.5722 LP  0  0  0  0  0  0  0  0  0  0  0  0  # atno 17320 bound_to 7965
  145.2668  139.1970  143.4862 LP  0  0  0  0  0  0  0  0  0  0  0  0  # atno 17321 bound_to 7965
  140.4289  144.2143  150.5887 LP  0  0  0  0  0  0  0  0  0  0  0  0  # atno 17342 bound_to 10162
  140.4800  143.2382  151.8969 LP  0  0  0  0  0  0  0  0  0  0  0  0  # atno 17343 bound_to 10162
  156.1721  130.3647  149.9150 LP  0  0  0  0  0  0  0  0  0  0  0  0  # atno 17370 bound_to 10713
  156.7123  130.8975  151.3610 LP  0  0  0  0  0  0  0  0  0  0  0  0  # atno 17371 bound_to 10713
  139.8726  134.9404  156.3769 LP  0  0  0  0  0  0  0  0  0  0  0  0  # atno 17394 bound_to 11000
  140.9338  133.7561  156.0059 LP  0  0  0  0  0  0  0  0  0  0  0  0  # atno 17395 bound_to 11000

$$$$
