AV-unprocessed.smi:83|AV-procd|sdf|801|dock5
  -GOLD-   2262017183D 1   1.00000     0.00000
 Structure written by MMmdl.
 56 59  0  0  0  0  0  0  0  0  1 V2000
  149.4658  145.3765  160.0976 C   0  0  0  0  0  0  0  0  0  0  0  0
  150.8573  145.3580  159.4625 C   0  0  0  0  0  0  0  0  0  0  0  0
  151.7032  146.1625  159.8532 O   0  0  0  0  0  0  0  0  0  0  0  0
  151.1063  144.4571  158.4909 N   0  0  0  0  0  0  0  0  0  0  0  0
  152.3700  144.3057  157.7715 C   0  0  0  0  0  0  0  0  0  0  0  0
  152.0873  143.2984  156.6552 C   0  0  0  0  0  0  0  0  0  0  0  0
  150.9238  142.4693  157.1881 C   0  0  2  0  0  0  0  0  0  0  0  0
  150.1165  141.7480  156.0909 C   0  0  0  0  0  0  0  0  0  0  0  0
  150.6319  140.4092  155.7981 N   0  0  0  0  0  0  0  0  0  0  0  0
  151.8997  140.0120  156.3970 C   0  0  0  0  0  0  0  0  0  0  0  0
  149.7728  139.4544  155.3465 C   0  0  0  0  0  0  0  0  0  0  0  0
  150.0232  138.1616  155.6842 N   0  0  0  0  0  0  0  0  0  0  0  0
  149.2208  137.1786  155.2684 C   0  0  0  0  0  0  0  0  0  0  0  0
  148.1258  137.2605  154.5129 N   0  0  0  0  0  0  0  0  0  0  0  0
  147.8654  138.5515  154.1622 C   0  0  0  0  0  0  0  0  0  0  0  0
  148.6244  139.7003  154.5326 C   0  0  0  0  0  0  0  0  0  0  0  0
  148.0462  140.8351  153.9710 N   0  0  0  0  0  0  0  0  0  0  0  0
  147.0100  140.3863  153.3184 C   0  0  0  0  0  0  0  0  0  0  0  0
  146.8260  139.0254  153.3816 N   0  0  0  0  0  0  0  0  0  0  0  0
  145.7607  138.2671  152.7496 C   0  0  0  0  0  0  0  0  0  0  0  0
  146.2935  137.2634  151.7094 C   0  0  2  0  0  0  0  0  0  0  0  0
  146.9600  137.9392  150.6597 O   0  0  0  0  0  0  0  0  0  0  0  0
  145.1915  136.3382  151.1538 C   0  0  2  0  0  0  0  0  0  0  0  0
  144.2599  135.6895  152.1805 C   0  0  0  0  0  0  0  0  0  0  0  0
  143.7407  134.5058  151.3953 C   0  0  0  0  0  0  0  0  0  0  0  0
  144.9820  134.0786  150.6147 C   0  0  0  0  0  0  0  0  0  0  0  0
  145.7255  135.2710  150.3740 O   0  0  0  0  0  0  0  0  0  0  0  0
  150.1268  143.4837  158.0164 C   0  0  0  0  0  0  0  0  0  0  0  0
  148.6961  145.5264  159.3402 H   0  0  0  0  0  0  0  0  0  0  0  0
  149.3846  146.1866  160.8230 H   0  0  0  0  0  0  0  0  0  0  0  0
  149.2678  144.4392  160.6178 H   0  0  0  0  0  0  0  0  0  0  0  0
  152.7298  145.2515  157.3642 H   0  0  0  0  0  0  0  0  0  0  0  0
  153.1261  143.9161  158.4546 H   0  0  0  0  0  0  0  0  0  0  0  0
  151.7826  143.8316  155.7534 H   0  0  0  0  0  0  0  0  0  0  0  0
  152.9584  142.6919  156.4057 H   0  0  0  0  0  0  0  0  0  0  0  0
  151.3406  141.7276  157.8716 H   0  0  0  0  0  0  0  0  0  0  0  0
  149.0592  141.7248  156.3549 H   0  0  0  0  0  0  0  0  0  0  0  0
  150.1690  142.3321  155.1716 H   0  0  0  0  0  0  0  0  0  0  0  0
  152.3847  139.2343  155.8062 H   0  0  0  0  0  0  0  0  0  0  0  0
  151.7491  139.6427  157.4117 H   0  0  0  0  0  0  0  0  0  0  0  0
  152.5815  140.8613  156.4465 H   0  0  0  0  0  0  0  0  0  0  0  0
  149.4970  136.1838  155.5858 H   0  0  0  0  0  0  0  0  0  0  0  0
  146.3476  141.0393  152.7687 H   0  0  0  0  0  0  0  0  0  0  0  0
  145.2105  137.7413  153.5310 H   0  0  0  0  0  0  0  0  0  0  0  0
  145.0579  138.9632  152.2899 H   0  0  0  0  0  0  0  0  0  0  0  0
  147.0412  136.6324  152.1919 H   0  0  0  0  0  0  0  0  0  0  0  0
  146.3147  138.2365  150.0369 H   0  0  0  0  0  0  0  0  0  0  0  0
  144.5726  136.9217  150.4697 H   0  0  0  0  0  0  0  0  0  0  0  0
  144.8071  135.3348  153.0549 H   0  0  0  0  0  0  0  0  0  0  0  0
  143.4695  136.3592  152.5205 H   0  0  0  0  0  0  0  0  0  0  0  0
  143.3400  133.7127  152.0270 H   0  0  0  0  0  0  0  0  0  0  0  0
  142.9561  134.8266  150.7083 H   0  0  0  0  0  0  0  0  0  0  0  0
  145.5948  133.4056  151.2157 H   0  0  0  0  0  0  0  0  0  0  0  0
  144.7334  133.5687  149.6835 H   0  0  0  0  0  0  0  0  0  0  0  0
  149.6002  142.9963  158.8387 H   0  0  0  0  0  0  0  0  0  0  0  0
  149.3897  144.0021  157.4015 H   0  0  0  0  0  0  0  0  0  0  0  0
  1  2  1  0  0  0  0
  1 29  1  0  0  0  0
  1 30  1  0  0  0  0
  1 31  1  0  0  0  0
  2  3  2  0  0  0  0
  2  4  1  0  0  0  0
  4 28  1  0  0  0  0
  4  5  1  0  0  0  0
  5  6  1  0  0  0  0
  5 32  1  0  0  0  0
  5 33  1  0  0  0  0
  6  7  1  0  0  0  0
  6 34  1  0  0  0  0
  6 35  1  0  0  0  0
  7  8  1  0  0  0  0
  7 28  1  0  0  0  0
  7 36  1  0  0  0  0
  8  9  1  0  0  0  0
  8 37  1  0  0  0  0
  8 38  1  0  0  0  0
  9 10  1  0  0  0  0
  9 11  1  0  0  0  0
 10 39  1  0  0  0  0
 10 40  1  0  0  0  0
 10 41  1  0  0  0  0
 11 16  1  0  0  0  0
 11 12  2  0  0  0  0
 12 13  1  0  0  0  0
 13 14  2  0  0  0  0
 13 42  1  0  0  0  0
 14 15  1  0  0  0  0
 15 19  1  0  0  0  0
 15 16  2  0  0  0  0
 16 17  1  0  0  0  0
 17 18  2  0  0  0  0
 18 19  1  0  0  0  0
 18 43  1  0  0  0  0
 19 20  1  0  0  0  0
 20 21  1  0  0  0  0
 20 44  1  0  0  0  0
 20 45  1  0  0  0  0
 21 22  1  0  0  0  0
 21 23  1  0  0  0  0
 21 46  1  0  0  0  0
 22 47  1  0  0  0  0
 23 27  1  0  0  0  0
 23 24  1  0  0  0  0
 23 48  1  0  0  0  0
 24 25  1  0  0  0  0
 24 49  1  0  0  0  0
 24 50  1  0  0  0  0
 25 26  1  0  0  0  0
 25 51  1  0  0  0  0
 25 52  1  0  0  0  0
 26 27  1  0  0  0  0
 26 53  1  0  0  0  0
 26 54  1  0  0  0  0
 28 55  1  0  0  0  0
 28 56  1  0  0  0  0
M  END
> <s_m_source_file>
AV-unprocessed.smi

> <i_m_source_file_index>
83

> <i_lp_mmshare_version>
43012

> <i_f3d_flags>
0

> <s_epik_input>
W0NIM11DKD1PKU4xW0NIMl1bQ0gyXVtDQEhdKFtDSDJdMSlbQ0gyXU4oW0NIM10pYyhuW2NIXW4yKWMoYzIzKW5bY0hdbjNbQ0gyXVtDQEhdKFtPSF0pW0NAQEhdNFtDSDJdW0NIMl1bQ0gyXU80

> <s_epik_cmdline>
J2VwaWtfcHl0aG9uJywgJy1waCcsICc3LjAnLCAnLXRuJywgJzgnLCAnLW1hJywgJzIwMCcsICctbWV0YWxfYmluZGluZycsICctaW1hZScsICc8aW5maWxlLm1hZT4nLCAnLW9tYWUnLCAnPG91dGZpbGUubWFlPic=

> <r_lp_tautomer_probability>
1

> <r_epik_Ionization_Penalty>
0.00109752

> <r_epik_Ionization_Penalty_Charging>
0

> <r_epik_Ionization_Penalty_Neutral>
0.00109752

> <r_epik_State_Penalty>
0.000634803

> <r_epik_Charging_Adjusted_Penalty>
0.000634803

> <i_epik_Tot_Q>
0

> <i_epik_Tot_abs_Q>
0

> <r_epik_Metal_State_Penalty>
-0

> <b_epik_Metal_Only>
0

> <s_lp_Force_Field>
OPLS_2005

> <r_lp_Energy>
56.4298

> <b_lp_Chiralities_Consistent>
1

> <s_lp_Variant>
AV-unprocessed.smi:83-2

> <Gold.Version>
5.8.1

> <Gold.Id.Protein>
6NUR|6NUR_protein|mol2

> <Gold.PLP.Fitness>
50.3617

> <Gold.PLP.PLP>
-42.8402

> <Gold.PLP.part.hbond>
-4.4598

> <Gold.PLP.part.metal>
0.0000

> <Gold.PLP.part.buried>
-7.5839

> <Gold.PLP.part.nonpolar>
-35.1738

> <Gold.PLP.part.repulsive>
1.6544

> <Gold.PLP.ligand.clash>
0.0000

> <Gold.PLP.ligand.torsion>
0.9394

> <Gold.PLP.Chemscore.Hbond>
2.0000

> <Gold.PLP.Chemscore.CHOScore>
1.0000

> <Gold.PLP.Chemscore.Metal>
0.0000

> <Gold.Chemscore.Hbonds>
donor molecule, donor type, donor heavy atom, donor atom, acceptor molecule, acceptor atom, score
      P1  H  7954  7966       L1    22  0.75
      L1  C    18    43       P1 10175  0.41

> <Gold.PLP.Chemscore.Internal.Correction>
0.4003

> <Gold.Rescore>
     Score         DG    S(hbond)    S(metal)    S(lipo)     H(rot)  DE(clash)    DE(int)     intcor
     11.76     -15.23       1.67        0.00      92.83       2.62       1.95       1.52       ----

> <Gold.Chemscore.Fitness>
11.7618

> <Gold.Chemscore.DG>
-15.2343

> <Gold.Chemscore.ZeroCoef>
-5.4800

> <Gold.Chemscore.Hbond>
1.6730

> <Gold.Chemscore.Metal>
0.0000

> <Gold.Chemscore.Lipo>
92.8335

> <Gold.Chemscore.Internal_Hbond>
0.0000

> <Gold.Chemscore.DEClash>
1.9541

> <Gold.Chemscore.DEInternal>
1.5185

> <Gold.Chemscore.Rot>
2.6152

> <Gold.Chemscore.Internal.Correction>
   9.000000E+99

> <Gold.Chemscore.Hbonds>
donor molecule, donor type, donor heavy atom, donor atom, acceptor molecule, acceptor atom, score
      L1  H    22    47       P1 10171  0.04
      P1  H  7954  7966       L1    22  0.29

> <Gold.Chemscore.Hbond.Weighted>
-5.5877

> <Gold.Chemscore.Metal.Weighted>
-0.0000

> <Gold.Chemscore.Lipo.Weighted>
-10.8615

> <Gold.Chemscore.Internal_Hbond.Weighted>
0.0000

> <Gold.Chemscore.DEClash.Weighted>
1.9541

> <Gold.Chemscore.DEInternal.Weighted>
1.5185

> <Gold.Chemscore.Rot.Weighted>
6.6949

> <Gold.Chemscore.Internal.Correction.Weighted>
   9.000000E+99

> <Gold.Protein.RotatedTorsions>
[ 6907 6896 6895 6894 ] final  107.54 input  -60.11 | X-H torsion
[ 7974 7965 7964 7962 ] final   30.21 input  175.53 | X-H torsion
[ 8008 7997 7996 7995 ] final  107.71 input   59.86 | X-H torsion
[ 10167 10162 10161 10158 ] final  120.11 input  -65.29 | X-H torsion
[ 10718 10713 10712 10709 ] final -167.62 input   66.30 | X-H torsion
[ 10763 10752 10751 10750 ] final  -43.37 input  -60.55 | X-H torsion
[ 11005 11000 10999 10996 ] final -119.08 input  -57.11 | X-H torsion

> <Gold.Protein.ActiveResidues>
 VAL166  LYS551  ARG553  GLY616  TRP617  ASP618  TYR619  PRO620  LYS621  CYS622 
 ASP623  PHE694  ASN695  SER759  ASP760  ASP761  ALA762  ILE779  LEU786  VAL792 
 PHE793  MET794  SER795  GLU796  ALA797  LYS798  CYS799  TRP800  GLU811  SER814 

> <Gold.Protein.RotatedAtoms>
  152.5150  133.9220  159.7538 H   0  0  0  0  0  0  0  0  0  0  0  0  # atno 6907 bound_to 6896
  150.9589  133.6458  159.2765 H   0  0  0  0  0  0  0  0  0  0  0  0  # atno 6908 bound_to 6896
  151.3710  135.0928  159.9518 H   0  0  0  0  0  0  0  0  0  0  0  0  # atno 6909 bound_to 6896
  146.1625  139.6818  142.9023 H   0  0  0  0  0  0  0  0  0  0  0  0  # atno 7974 bound_to 7965
  156.1846  140.3090  155.9214 H   0  0  0  0  0  0  0  0  0  0  0  0  # atno 8008 bound_to 7997
  155.3309  140.0460  157.3059 H   0  0  0  0  0  0  0  0  0  0  0  0  # atno 8009 bound_to 7997
  154.5381  140.2252  155.8697 H   0  0  0  0  0  0  0  0  0  0  0  0  # atno 8010 bound_to 7997
  139.6003  144.7054  151.3079 H   0  0  0  0  0  0  0  0  0  0  0  0  # atno 10167 bound_to 10162
  156.6851  130.9137  151.3062 H   0  0  0  0  0  0  0  0  0  0  0  0  # atno 10718 bound_to 10713
  153.9944  135.6701  153.4756 H   0  0  0  0  0  0  0  0  0  0  0  0  # atno 10763 bound_to 10752
  153.0690  135.4984  154.8260 H   0  0  0  0  0  0  0  0  0  0  0  0  # atno 10764 bound_to 10752
  154.7090  135.3093  154.9189 H   0  0  0  0  0  0  0  0  0  0  0  0  # atno 10765 bound_to 10752
  141.0241  134.0080  157.3240 H   0  0  0  0  0  0  0  0  0  0  0  0  # atno 11005 bound_to 11000
  145.4551  141.0430  143.2782 LP  0  0  0  0  0  0  0  0  0  0  0  0  # atno 17320 bound_to 7965
  144.8047  139.6074  143.7056 LP  0  0  0  0  0  0  0  0  0  0  0  0  # atno 17321 bound_to 7965
  140.7244  143.7045  150.7818 LP  0  0  0  0  0  0  0  0  0  0  0  0  # atno 17342 bound_to 10162
  140.0620  143.5145  152.2623 LP  0  0  0  0  0  0  0  0  0  0  0  0  # atno 17343 bound_to 10162
  157.7029  130.9353  150.0842 LP  0  0  0  0  0  0  0  0  0  0  0  0  # atno 17370 bound_to 10713
  156.1839  130.3651  149.8999 LP  0  0  0  0  0  0  0  0  0  0  0  0  # atno 17371 bound_to 10713
  139.9164  135.0197  156.7899 LP  0  0  0  0  0  0  0  0  0  0  0  0  # atno 17394 bound_to 11000
  140.6522  133.9721  155.7761 LP  0  0  0  0  0  0  0  0  0  0  0  0  # atno 17395 bound_to 11000

$$$$
