AV-unprocessed.smi:11|AV-procd|sdf|57|dock8
  -GOLD-   2262015173D 1   1.00000     0.00000
 Structure written by MMmdl.
 34 36  0  0  0  0  0  0  0  0  2 V2000
  147.9583  142.4195  157.5292 C   0  0  0  0  0  0  0  0  0  0  0  0
  149.2013  142.0251  158.3441 C   0  0  0  0  0  0  0  0  0  0  0  0
  150.5424  142.6055  157.8299 C   0  0  1  0  0  0  0  0  0  0  0  0
  150.4717  144.0169  157.8788 O   0  0  0  0  0  0  0  0  0  0  0  0
  151.7774  142.0841  158.5808 C   0  0  0  0  0  0  0  0  0  0  0  0
  152.0909  140.7708  157.8664 C   0  0  0  0  0  0  0  0  0  0  0  0
  151.7051  141.0026  156.4817 N   0  0  0  0  0  0  0  0  0  0  0  0
  151.6266  139.9446  155.5539 C   0  0  0  0  0  0  0  0  0  0  0  0
  152.7509  139.2102  155.3298 N   0  0  0  0  0  0  0  0  0  0  0  0
  152.7816  138.1815  154.4707 C   0  0  0  0  0  0  0  0  0  0  0  0
  151.7145  137.7998  153.7623 N   0  3  0  0  0  0  0  0  0  0  0  0
  150.5745  138.5133  153.9429 C   0  0  0  0  0  0  0  0  0  0  0  0
  149.3473  138.3411  153.3376 N   0  0  0  0  0  0  0  0  0  0  0  0
  148.4554  139.2946  153.7973 C   0  0  0  0  0  0  0  0  0  0  0  0
  149.0916  140.0987  154.7096 C   0  0  0  0  0  0  0  0  0  0  0  0
  150.4451  139.6152  154.8277 C   0  0  0  0  0  0  0  0  0  0  0  0
  150.8188  142.1548  156.3840 C   0  0  0  0  0  0  0  0  0  0  0  0
  149.1039  137.6389  152.6532 H   0  0  0  0  0  0  0  0  0  0  0  0
  147.0703  141.9293  157.9284 H   0  0  0  0  0  0  0  0  0  0  0  0
  148.0521  142.1230  156.4845 H   0  0  0  0  0  0  0  0  0  0  0  0
  147.7748  143.4928  157.5599 H   0  0  0  0  0  0  0  0  0  0  0  0
  149.0461  142.3221  159.3819 H   0  0  0  0  0  0  0  0  0  0  0  0
  149.2682  140.9363  158.3573 H   0  0  0  0  0  0  0  0  0  0  0  0
  149.9239  144.3159  157.1690 H   0  0  0  0  0  0  0  0  0  0  0  0
  152.6151  142.7696  158.4404 H   0  0  0  0  0  0  0  0  0  0  0  0
  151.6379  141.9605  159.6539 H   0  0  0  0  0  0  0  0  0  0  0  0
  153.1455  140.5069  157.9502 H   0  0  0  0  0  0  0  0  0  0  0  0
  151.4974  139.9588  158.2888 H   0  0  0  0  0  0  0  0  0  0  0  0
  153.6922  137.6194  154.3238 H   0  0  0  0  0  0  0  0  0  0  0  0
  147.4379  139.3257  153.4350 H   0  0  0  0  0  0  0  0  0  0  0  0
  148.6611  140.9356  155.2389 H   0  0  0  0  0  0  0  0  0  0  0  0
  149.8932  141.9238  155.8554 H   0  0  0  0  0  0  0  0  0  0  0  0
  151.3422  142.9319  155.8252 H   0  0  0  0  0  0  0  0  0  0  0  0
  151.7491  137.0157  153.1109 H   0  0  0  0  0  0  0  0  0  0  0  0
  1  2  1  0  0  0  0
  1 19  1  0  0  0  0
  1 20  1  0  0  0  0
  1 21  1  0  0  0  0
  2  3  1  0  0  0  0
  2 22  1  0  0  0  0
  2 23  1  0  0  0  0
  3 17  1  0  0  0  0
  3  4  1  0  0  0  0
  3  5  1  0  0  0  0
  4 24  1  0  0  0  0
  5  6  1  0  0  0  0
  5 25  1  0  0  0  0
  5 26  1  0  0  0  0
  6  7  1  0  0  0  0
  6 27  1  0  0  0  0
  6 28  1  0  0  0  0
  7  8  1  0  0  0  0
  7 17  1  0  0  0  0
  8 16  1  0  0  0  0
  8  9  2  0  0  0  0
  9 10  1  0  0  0  0
 10 11  2  0  0  0  0
 10 29  1  0  0  0  0
 11 12  1  0  0  0  0
 11 34  1  0  0  0  0
 12 16  2  0  0  0  0
 12 13  1  0  0  0  0
 13 18  1  0  0  0  0
 13 14  1  0  0  0  0
 14 15  2  0  0  0  0
 14 30  1  0  0  0  0
 15 16  1  0  0  0  0
 15 31  1  0  0  0  0
 17 32  1  0  0  0  0
 17 33  1  0  0  0  0
M  CHG  1  11   1
M  END
> <s_m_source_file>
AV-unprocessed.smi

> <i_m_source_file_index>
11

> <i_lp_mmshare_version>
43012

> <i_f3d_flags>
0

> <s_epik_input>
W0NIM11bQ0gyXVtDQEBdMShbT0hdKVtDSDJdW0NIMl1OKFtDSDJdMSljKG5bY0hdbjIpYyhjMjMpW2NIXVtjSF1bbkhdMw==

> <s_epik_cmdline>
J2VwaWtfcHl0aG9uJywgJy1waCcsICc3LjAnLCAnLXRuJywgJzgnLCAnLW1hJywgJzIwMCcsICctbWV0YWxfYmluZGluZycsICctaW1hZScsICc8aW5maWxlLm1hZT4nLCAnLW9tYWUnLCAnPG91dGZpbGUubWFlPic=

> <r_lp_tautomer_probability>
1.75997e-05

> <r_epik_Ionization_Penalty>
1.53257

> <r_epik_Ionization_Penalty_Charging>
1.53255

> <r_epik_Ionization_Penalty_Neutral>
1.78556e-05

> <r_epik_State_Penalty>
1.6253

> <r_epik_Charging_Adjusted_Penalty>
3.15785

> <i_epik_Tot_Q>
1

> <i_epik_Tot_abs_Q>
1

> <r_epik_Metal_State_Penalty>
1.66891

> <b_epik_Metal_Only>
0

> <s_lp_Force_Field>
OPLS_2005

> <r_lp_Energy>
33.1489

> <b_lp_Chiralities_Consistent>
1

> <s_lp_Variant>
AV-unprocessed.smi:11-3

> <Gold.Version>
5.8.1

> <Gold.Id.Protein>
6NUR|6NUR_protein|mol2

> <Gold.PLP.Fitness>
47.1893

> <Gold.PLP.PLP>
-30.4275

> <Gold.PLP.part.hbond>
-5.4352

> <Gold.PLP.part.metal>
0.0000

> <Gold.PLP.part.buried>
-1.3650

> <Gold.PLP.part.nonpolar>
-24.0744

> <Gold.PLP.part.repulsive>
0.2063

> <Gold.PLP.ligand.clash>
0.0000

> <Gold.PLP.ligand.torsion>
0.6983

> <Gold.PLP.Chemscore.Hbond>
5.9738

> <Gold.PLP.Chemscore.CHOScore>
0.0000

> <Gold.PLP.Chemscore.Metal>
0.0000

> <Gold.Chemscore.Hbonds>
donor molecule, donor type, donor heavy atom, donor atom, acceptor molecule, acceptor atom, score
      L1  H     4    24       P1  8028  1.00
      L1  H    11    34       P1  7949  2.00
      L1  H    13    18       P1  7948  2.00
      P1  H  7997  8010       L1     9  0.99

> <Gold.PLP.Chemscore.Internal.Correction>
0.2371

> <Gold.Rescore>
     Score         DG    S(hbond)    S(metal)    S(lipo)     H(rot)  DE(clash)    DE(int)     intcor
     16.51     -18.59       3.10        0.00      55.08       1.44       1.36       0.73       ----

> <Gold.Chemscore.Fitness>
16.5090

> <Gold.Chemscore.DG>
-18.5919

> <Gold.Chemscore.ZeroCoef>
-5.4800

> <Gold.Chemscore.Hbond>
3.0993

> <Gold.Chemscore.Metal>
0.0000

> <Gold.Chemscore.Lipo>
55.0823

> <Gold.Chemscore.Internal_Hbond>
0.0000

> <Gold.Chemscore.DEClash>
1.3575

> <Gold.Chemscore.DEInternal>
0.7254

> <Gold.Chemscore.Rot>
1.4392

> <Gold.Chemscore.Internal.Correction>
   9.000000E+99

> <Gold.Chemscore.Hbonds>
donor molecule, donor type, donor heavy atom, donor atom, acceptor molecule, acceptor atom, score
      L1  H     4    24       P1  8028  0.55
      L1  H    11    34       P1  7949  0.93
      L1  H    13    18       P1  7948  0.97
      P1  H  7997  8010       L1     9  0.69

> <Gold.Chemscore.Hbond.Weighted>
-10.3517

> <Gold.Chemscore.Metal.Weighted>
-0.0000

> <Gold.Chemscore.Lipo.Weighted>
-6.4446

> <Gold.Chemscore.Internal_Hbond.Weighted>
0.0000

> <Gold.Chemscore.DEClash.Weighted>
1.3575

> <Gold.Chemscore.DEInternal.Weighted>
0.7254

> <Gold.Chemscore.Rot.Weighted>
3.6844

> <Gold.Chemscore.Internal.Correction.Weighted>
   9.000000E+99

> <Gold.Protein.RotatedTorsions>
[ 6907 6896 6895 6894 ] final  -90.27 input  -60.11 | X-H torsion
[ 7974 7965 7964 7962 ] final  161.62 input  175.53 | X-H torsion
[ 8008 7997 7996 7995 ] final   86.28 input   59.86 | X-H torsion
[ 10167 10162 10161 10158 ] final   66.57 input  -65.29 | X-H torsion
[ 10718 10713 10712 10709 ] final  102.72 input   66.30 | X-H torsion
[ 10763 10752 10751 10750 ] final  152.18 input  -60.55 | X-H torsion
[ 11005 11000 10999 10996 ] final   77.26 input  -57.11 | X-H torsion

> <Gold.Protein.ActiveResidues>
 VAL166  LYS551  ARG553  GLY616  TRP617  ASP618  TYR619  PRO620  LYS621  CYS622 
 ASP623  PHE694  ASN695  SER759  ASP760  ASP761  ALA762  ILE779  LEU786  VAL792 
 PHE793  MET794  SER795  GLU796  ALA797  LYS798  CYS799  TRP800  GLU811  SER814 

> <Gold.Protein.RotatedAtoms>
  150.6880  134.2458  159.4490 H   0  0  0  0  0  0  0  0  0  0  0  0  # atno 6907 bound_to 6896
  152.0399  134.9715  160.0583 H   0  0  0  0  0  0  0  0  0  0  0  0  # atno 6908 bound_to 6896
  152.1220  133.4324  159.4717 H   0  0  0  0  0  0  0  0  0  0  0  0  # atno 6909 bound_to 6896
  144.7676  139.7924  143.6309 H   0  0  0  0  0  0  0  0  0  0  0  0  # atno 7974 bound_to 7965
  155.9608  140.3393  155.6489 H   0  0  0  0  0  0  0  0  0  0  0  0  # atno 8008 bound_to 7997
  155.6800  140.0737  157.2506 H   0  0  0  0  0  0  0  0  0  0  0  0  # atno 8009 bound_to 7997
  154.4143  140.1676  156.1960 H   0  0  0  0  0  0  0  0  0  0  0  0  # atno 8010 bound_to 7997
  140.0990  144.4921  150.7049 H   0  0  0  0  0  0  0  0  0  0  0  0  # atno 10167 bound_to 10162
  157.6794  131.0760  150.5447 H   0  0  0  0  0  0  0  0  0  0  0  0  # atno 10718 bound_to 10713
  154.1159  135.2836  155.3220 H   0  0  0  0  0  0  0  0  0  0  0  0  # atno 10763 bound_to 10752
  154.6457  135.5386  153.7845 H   0  0  0  0  0  0  0  0  0  0  0  0  # atno 10764 bound_to 10752
  153.0329  135.6497  154.1315 H   0  0  0  0  0  0  0  0  0  0  0  0  # atno 10765 bound_to 10752
  139.9262  134.7668  156.1500 H   0  0  0  0  0  0  0  0  0  0  0  0  # atno 11005 bound_to 11000
  146.1797  139.4984  142.9874 LP  0  0  0  0  0  0  0  0  0  0  0  0  # atno 17320 bound_to 7965
  145.6420  141.0282  143.1806 LP  0  0  0  0  0  0  0  0  0  0  0  0  # atno 17321 bound_to 7965
  140.6988  143.2421  151.4924 LP  0  0  0  0  0  0  0  0  0  0  0  0  # atno 17342 bound_to 10162
  139.5682  144.1992  152.1796 LP  0  0  0  0  0  0  0  0  0  0  0  0  # atno 17343 bound_to 10162
  156.5753  130.4290  149.6001 LP  0  0  0  0  0  0  0  0  0  0  0  0  # atno 17370 bound_to 10713
  156.2706  130.7015  151.1811 LP  0  0  0  0  0  0  0  0  0  0  0  0  # atno 17371 bound_to 10713
  141.0821  133.6750  156.2358 LP  0  0  0  0  0  0  0  0  0  0  0  0  # atno 17394 bound_to 11000
  140.6330  134.5244  157.5561 LP  0  0  0  0  0  0  0  0  0  0  0  0  # atno 17395 bound_to 11000

$$$$
