AV-unprocessed.smi:2607|AV-procd|sdf|10200|dock10
  -GOLD-   2272014213D 1   1.00000     0.00000
 Structure written by MMmdl.
 21 22  0  0  0  0  0  0  0  0  2 V2000
  149.9680  139.4056  157.8574 C   0  0  0  0  0  0  0  0  0  0  0  0
  151.3381  139.8263  157.2880 C   0  0  1  0  0  0  0  0  0  0  0  0
  152.1675  140.6144  158.3175 C   0  0  0  0  0  0  0  0  0  0  0  0
  151.7307  141.8474  158.8666 C   0  0  0  0  0  0  0  0  0  0  0  0
  152.4644  142.5321  159.7723 N   0  0  0  0  0  0  0  0  0  0  0  0
  153.6439  141.9841  160.1354 C   0  0  0  0  0  0  0  0  0  0  0  0
  154.0898  140.7610  159.5946 C   0  0  0  0  0  0  0  0  0  0  0  0
  153.3581  140.0783  158.6879 N   0  0  0  0  0  0  0  0  0  0  0  0
  152.0222  138.6467  156.7926 N   0  0  0  0  0  0  0  0  0  0  0  0
  152.2772  138.7336  155.4889 C   0  0  0  0  0  0  0  0  0  0  0  0
  152.8736  137.8438  154.8867 O   0  0  0  0  0  0  0  0  0  0  0  0
  151.7910  139.8888  154.9979 N   0  5  0  0  0  0  0  0  0  0  0  0
  151.1913  140.6092  155.9712 C   0  0  0  0  0  0  0  0  0  0  0  0
  150.5986  141.6855  155.8997 O   0  0  0  0  0  0  0  0  0  0  0  0
  149.3856  140.2688  158.1812 H   0  0  0  0  0  0  0  0  0  0  0  0
  150.0876  138.7481  158.7190 H   0  0  0  0  0  0  0  0  0  0  0  0
  149.3719  138.8712  157.1163 H   0  0  0  0  0  0  0  0  0  0  0  0
  150.7906  142.2999  158.5891 H   0  0  0  0  0  0  0  0  0  0  0  0
  154.2356  142.5234  160.8601 H   0  0  0  0  0  0  0  0  0  0  0  0
  155.0354  140.3307  159.8892 H   0  0  0  0  0  0  0  0  0  0  0  0
  152.2885  137.8714  157.3810 H   0  0  0  0  0  0  0  0  0  0  0  0
  1  2  1  0  0  0  0
  1 15  1  0  0  0  0
  1 16  1  0  0  0  0
  1 17  1  0  0  0  0
  2 13  1  0  0  0  0
  2  3  1  0  0  0  0
  2  9  1  0  0  0  0
  3  8  1  0  0  0  0
  3  4  2  0  0  0  0
  4  5  1  0  0  0  0
  4 18  1  0  0  0  0
  5  6  2  0  0  0  0
  6  7  1  0  0  0  0
  6 19  1  0  0  0  0
  7  8  2  0  0  0  0
  7 20  1  0  0  0  0
  9 10  1  0  0  0  0
  9 21  1  0  0  0  0
 10 11  2  0  0  0  0
 10 12  1  0  0  0  0
 12 13  1  0  0  0  0
 13 14  2  0  0  0  0
M  CHG  1  12  -1
M  END
> <s_m_source_file>
AV-unprocessed.smi

> <i_m_source_file_index>
2607

> <i_lp_mmshare_version>
43012

> <i_f3d_flags>
0

> <s_epik_input>
Tz1DMVtOSF1DKD1PKVtOSF1bQ0BAXTEoW0NIM10pYzJbY0hdbltjSF1bY0hdbjI=

> <s_epik_cmdline>
J2VwaWtfcHl0aG9uJywgJy1waCcsICc3LjAnLCAnLXRuJywgJzgnLCAnLW1hJywgJzIwMCcsICctbWV0YWxfYmluZGluZycsICctaW1hZScsICc8aW5maWxlLm1hZT4nLCAnLW9tYWUnLCAnPG91dGZpbGUubWFlPic=

> <r_lp_tautomer_probability>
1

> <r_epik_Ionization_Penalty>
1.72482

> <r_epik_Ionization_Penalty_Charging>
1.72482

> <r_epik_Ionization_Penalty_Neutral>
2.42073e-06

> <r_epik_State_Penalty>
1.83265

> <r_epik_Charging_Adjusted_Penalty>
3.55747

> <i_epik_Tot_Q>
-1

> <i_epik_Tot_abs_Q>
1

> <r_epik_Metal_State_Penalty>
0.535818

> <b_epik_Metal_Only>
0

> <s_lp_Force_Field>
OPLS_2005

> <r_lp_Energy>
15.5794

> <b_lp_Chiralities_Consistent>
1

> <s_lp_Variant>
AV-unprocessed.smi:2607-3

> <Gold.Version>
5.8.1

> <Gold.Id.Protein>
6NUR|6NUR_protein|mol2

> <Gold.PLP.Fitness>
30.5862

> <Gold.PLP.PLP>
-24.2635

> <Gold.PLP.part.hbond>
-3.0000

> <Gold.PLP.part.metal>
0.0000

> <Gold.PLP.part.buried>
-5.1366

> <Gold.PLP.part.nonpolar>
-16.0180

> <Gold.PLP.part.repulsive>
0.2591

> <Gold.PLP.ligand.clash>
0.0000

> <Gold.PLP.ligand.torsion>
0.0415

> <Gold.PLP.Chemscore.Hbond>
2.1076

> <Gold.PLP.Chemscore.CHOScore>
0.0000

> <Gold.PLP.Chemscore.Metal>
0.0000

> <Gold.Chemscore.Hbonds>
donor molecule, donor type, donor heavy atom, donor atom, acceptor molecule, acceptor atom, score
      P1  H  7989  7998       L1    12  0.99
      P1  H  7997  8009       L1     8  0.94
      P1  H 10752 10765       L1    11  0.19

> <Gold.PLP.Chemscore.Internal.Correction>
0.0826

> <Gold.Rescore>
     Score         DG    S(hbond)    S(metal)    S(lipo)     H(rot)  DE(clash)    DE(int)     intcor
     12.85     -12.91       1.53        0.00      41.56       1.00       0.01       0.04       ----

> <Gold.Chemscore.Fitness>
12.8508

> <Gold.Chemscore.DG>
-12.9058

> <Gold.Chemscore.ZeroCoef>
-5.4800

> <Gold.Chemscore.Hbond>
1.5338

> <Gold.Chemscore.Metal>
0.0000

> <Gold.Chemscore.Lipo>
41.5636

> <Gold.Chemscore.Internal_Hbond>
0.0000

> <Gold.Chemscore.DEClash>
0.0135

> <Gold.Chemscore.DEInternal>
0.0415

> <Gold.Chemscore.Rot>
1.0000

> <Gold.Chemscore.Internal.Correction>
   9.000000E+99

> <Gold.Chemscore.Hbonds>
donor molecule, donor type, donor heavy atom, donor atom, acceptor molecule, acceptor atom, score
      P1  H  7989  7998       L1    12  0.52
      P1  H  7997  8009       L1     8  0.19
      P1  H 10752 10765       L1    11  0.19

> <Gold.Chemscore.Hbond.Weighted>
-5.1229

> <Gold.Chemscore.Metal.Weighted>
-0.0000

> <Gold.Chemscore.Lipo.Weighted>
-4.8629

> <Gold.Chemscore.Internal_Hbond.Weighted>
0.0000

> <Gold.Chemscore.DEClash.Weighted>
0.0135

> <Gold.Chemscore.DEInternal.Weighted>
0.0415

> <Gold.Chemscore.Rot.Weighted>
2.5600

> <Gold.Chemscore.Internal.Correction.Weighted>
   9.000000E+99

> <Gold.Protein.RotatedTorsions>
[ 6907 6896 6895 6894 ] final   76.26 input  -60.11 | X-H torsion
[ 7974 7965 7964 7962 ] final   67.22 input  175.53 | X-H torsion
[ 8008 7997 7996 7995 ] final  149.84 input   59.86 | X-H torsion
[ 10167 10162 10161 10158 ] final -153.36 input  -65.29 | X-H torsion
[ 10718 10713 10712 10709 ] final  131.97 input   66.30 | X-H torsion
[ 10763 10752 10751 10750 ] final  170.48 input  -60.55 | X-H torsion
[ 11005 11000 10999 10996 ] final  126.82 input  -57.11 | X-H torsion

> <Gold.Protein.ActiveResidues>
 VAL166  LYS551  ARG553  GLY616  TRP617  ASP618  TYR619  PRO620  LYS621  CYS622 
 ASP623  PHE694  ASN695  SER759  ASP760  ASP761  ALA762  ILE779  LEU786  VAL792 
 PHE793  MET794  SER795  GLU796  ALA797  LYS798  CYS799  TRP800  GLU811  SER814 

> <Gold.Protein.RotatedAtoms>
  152.5065  134.3996  159.9411 H   0  0  0  0  0  0  0  0  0  0  0  0  # atno 6907 bound_to 6896
  151.3959  133.3767  159.2734 H   0  0  0  0  0  0  0  0  0  0  0  0  # atno 6908 bound_to 6896
  150.9397  134.8828  159.7663 H   0  0  0  0  0  0  0  0  0  0  0  0  # atno 6909 bound_to 6896
  145.8172  139.3065  143.1064 H   0  0  0  0  0  0  0  0  0  0  0  0  # atno 7974 bound_to 7965
  156.2739  140.2091  156.5922 H   0  0  0  0  0  0  0  0  0  0  0  0  # atno 8008 bound_to 7997
  154.6973  140.0524  157.0447 H   0  0  0  0  0  0  0  0  0  0  0  0  # atno 8009 bound_to 7997
  155.0783  140.3184  155.4612 H   0  0  0  0  0  0  0  0  0  0  0  0  # atno 8010 bound_to 7997
  139.7103  143.9119  152.2465 H   0  0  0  0  0  0  0  0  0  0  0  0  # atno 10167 bound_to 10162
  157.4916  131.1091  150.9549 H   0  0  0  0  0  0  0  0  0  0  0  0  # atno 10718 bound_to 10713
  154.3981  135.2754  155.2113 H   0  0  0  0  0  0  0  0  0  0  0  0  # atno 10763 bound_to 10752
  154.4151  135.6013  153.5979 H   0  0  0  0  0  0  0  0  0  0  0  0  # atno 10764 bound_to 10752
  152.9831  135.5959  154.4245 H   0  0  0  0  0  0  0  0  0  0  0  0  # atno 10765 bound_to 10752
  139.9476  134.9627  156.8764 H   0  0  0  0  0  0  0  0  0  0  0  0  # atno 11005 bound_to 11000
  145.9714  140.8757  143.0161 LP  0  0  0  0  0  0  0  0  0  0  0  0  # atno 17320 bound_to 7965
  144.6751  140.1951  143.7393 LP  0  0  0  0  0  0  0  0  0  0  0  0  # atno 17321 bound_to 7965
  139.8987  144.6924  150.8690 LP  0  0  0  0  0  0  0  0  0  0  0  0  # atno 17342 bound_to 10162
  140.7731  143.3530  151.1976 LP  0  0  0  0  0  0  0  0  0  0  0  0  # atno 17343 bound_to 10162
  157.0248  130.5688  149.5336 LP  0  0  0  0  0  0  0  0  0  0  0  0  # atno 17370 bound_to 10713
  156.0177  130.5271  150.8183 LP  0  0  0  0  0  0  0  0  0  0  0  0  # atno 17371 bound_to 10713
  140.5797  134.0364  155.7460 LP  0  0  0  0  0  0  0  0  0  0  0  0  # atno 17394 bound_to 11000
  141.1130  133.9585  157.2874 LP  0  0  0  0  0  0  0  0  0  0  0  0  # atno 17395 bound_to 11000

$$$$
