AV-unprocessed.smi:1599|AV-procd|sdf|6426|dock2
  -GOLD-   22720 7 63D 1   1.00000     0.00000
 Structure written by MMmdl.
 39 40  0  0  0  0  0  0  0  0  1 V2000
  141.2911  138.5116  156.0578 C   0  0  0  0  0  0  0  0  0  0  0  0
  141.0810  139.2701  154.7358 C   0  0  1  0  0  0  0  0  0  0  0  0
  142.0926  138.8557  153.7669 N   0  0  0  0  0  0  0  0  0  0  0  0
  142.4580  137.5894  153.5217 C   0  0  0  0  0  0  0  0  0  0  0  0
  141.9557  136.6142  154.0809 O   0  0  0  0  0  0  0  0  0  0  0  0
  143.4302  137.5323  152.5967 N   0  0  0  0  0  0  0  0  0  0  0  0
  144.0724  136.3719  152.0954 C   0  0  0  0  0  0  0  0  0  0  0  0
  145.3567  136.3536  151.4921 C   0  0  0  0  0  0  0  0  0  0  0  0
  145.6961  135.1274  151.1242 N   0  0  0  0  0  0  0  0  0  0  0  0
  144.6438  134.3486  151.4804 N   0  0  0  0  0  0  0  0  0  0  0  0
  144.6835  132.9187  151.2181 C   0  0  0  0  0  0  0  0  0  0  0  0
  143.5927  132.4585  150.2422 C   0  0  0  0  0  0  0  0  0  0  0  0
  142.3298  132.6460  150.6336 N   0  0  0  0  0  0  0  0  0  0  0  0
  143.8686  131.9436  149.1594 O   0  0  0  0  0  0  0  0  0  0  0  0
  143.6344  135.0780  152.0785 C   0  0  0  0  0  0  0  0  0  0  0  0
  139.6822  139.0280  154.1380 C   0  0  1  0  0  0  0  0  0  0  0  0
  139.3736  137.5691  153.7967 C   0  0  0  0  0  0  0  0  0  0  0  0
  137.8570  137.4883  153.8875 C   0  0  0  0  0  0  0  0  0  0  0  0
  137.4556  138.7766  154.6106 C   0  0  0  0  0  0  0  0  0  0  0  0
  138.6739  139.3241  155.0926 O   0  0  0  0  0  0  0  0  0  0  0  0
  140.5768  138.8311  156.8165 H   0  0  0  0  0  0  0  0  0  0  0  0
  142.2891  138.6885  156.4603 H   0  0  0  0  0  0  0  0  0  0  0  0
  141.1736  137.4361  155.9214 H   0  0  0  0  0  0  0  0  0  0  0  0
  141.1870  140.3394  154.9276 H   0  0  0  0  0  0  0  0  0  0  0  0
  142.5634  139.5925  153.2624 H   0  0  0  0  0  0  0  0  0  0  0  0
  143.7480  138.4112  152.2153 H   0  0  0  0  0  0  0  0  0  0  0  0
  146.0404  137.1704  151.3137 H   0  0  0  0  0  0  0  0  0  0  0  0
  145.6634  132.6519  150.8191 H   0  0  0  0  0  0  0  0  0  0  0  0
  144.5688  132.3930  152.1669 H   0  0  0  0  0  0  0  0  0  0  0  0
  141.5676  132.3651  150.0339 H   0  0  0  0  0  0  0  0  0  0  0  0
  142.1416  133.0707  151.5303 H   0  0  0  0  0  0  0  0  0  0  0  0
  142.7223  134.6154  152.4250 H   0  0  0  0  0  0  0  0  0  0  0  0
  139.5281  139.6554  153.2576 H   0  0  0  0  0  0  0  0  0  0  0  0
  139.7536  137.2773  152.8173 H   0  0  0  0  0  0  0  0  0  0  0  0
  139.8171  136.9052  154.5398 H   0  0  0  0  0  0  0  0  0  0  0  0
  137.3966  137.4420  152.9000 H   0  0  0  0  0  0  0  0  0  0  0  0
  137.5494  136.6022  154.4437 H   0  0  0  0  0  0  0  0  0  0  0  0
  136.9969  139.4805  153.9148 H   0  0  0  0  0  0  0  0  0  0  0  0
  136.7549  138.5987  155.4265 H   0  0  0  0  0  0  0  0  0  0  0  0
  1  2  1  0  0  0  0
  1 21  1  0  0  0  0
  1 22  1  0  0  0  0
  1 23  1  0  0  0  0
  2  3  1  0  0  0  0
  2 16  1  0  0  0  0
  2 24  1  0  0  0  0
  3  4  1  0  0  0  0
  3 25  1  0  0  0  0
  4  5  2  0  0  0  0
  4  6  1  0  0  0  0
  6  7  1  0  0  0  0
  6 26  1  0  0  0  0
  7 15  2  0  0  0  0
  7  8  1  0  0  0  0
  8  9  2  0  0  0  0
  8 27  1  0  0  0  0
  9 10  1  0  0  0  0
 10 11  1  0  0  0  0
 10 15  1  0  0  0  0
 11 12  1  0  0  0  0
 11 28  1  0  0  0  0
 11 29  1  0  0  0  0
 12 13  1  0  0  0  0
 12 14  2  0  0  0  0
 13 30  1  0  0  0  0
 13 31  1  0  0  0  0
 15 32  1  0  0  0  0
 16 20  1  0  0  0  0
 16 17  1  0  0  0  0
 16 33  1  0  0  0  0
 17 18  1  0  0  0  0
 17 34  1  0  0  0  0
 17 35  1  0  0  0  0
 18 19  1  0  0  0  0
 18 36  1  0  0  0  0
 18 37  1  0  0  0  0
 19 20  1  0  0  0  0
 19 38  1  0  0  0  0
 19 39  1  0  0  0  0
M  END
> <s_m_source_file>
AV-unprocessed.smi

> <i_m_source_file_index>
1599

> <i_lp_mmshare_version>
43012

> <i_f3d_flags>
0

> <s_epik_input>
TzFbQ0gyXVtDSDJdW0NIMl1bQ0BIXTFbQ0BIXShbQ0gzXSlbTkhdQyg9TylbTkhdYzJbY0hdbm4oW2NIXTIpW0NIMl1DKD1PKVtOSDJd

> <s_epik_cmdline>
J2VwaWtfcHl0aG9uJywgJy1waCcsICc3LjAnLCAnLXRuJywgJzgnLCAnLW1hJywgJzIwMCcsICctbWV0YWxfYmluZGluZycsICctaW1hZScsICc8aW5maWxlLm1hZT4nLCAnLW9tYWUnLCAnPG91dGZpbGUubWFlPic=

> <r_lp_tautomer_probability>
1

> <r_epik_Ionization_Penalty>
4.15391e-05

> <r_epik_Ionization_Penalty_Charging>
0

> <r_epik_Ionization_Penalty_Neutral>
4.15391e-05

> <r_epik_State_Penalty>
-0

> <r_epik_Charging_Adjusted_Penalty>
0

> <i_epik_Tot_Q>
0

> <i_epik_Tot_abs_Q>
0

> <r_epik_Metal_State_Penalty>
-0

> <b_epik_Metal_Only>
0

> <s_lp_Force_Field>
OPLS_2005

> <r_lp_Energy>
23.4533

> <b_lp_Chiralities_Consistent>
1

> <s_lp_Variant>
AV-unprocessed.smi:1599-4

> <Gold.Version>
5.8.1

> <Gold.Id.Protein>
6NUR|6NUR_protein|mol2

> <Gold.PLP.Fitness>
40.6410

> <Gold.PLP.PLP>
-32.2407

> <Gold.PLP.part.hbond>
-5.7162

> <Gold.PLP.part.metal>
0.0000

> <Gold.PLP.part.buried>
-6.5543

> <Gold.PLP.part.nonpolar>
-21.4360

> <Gold.PLP.part.repulsive>
0.6225

> <Gold.PLP.ligand.clash>
0.0000

> <Gold.PLP.ligand.torsion>
0.3502

> <Gold.PLP.Chemscore.Hbond>
3.0096

> <Gold.PLP.Chemscore.CHOScore>
0.0000

> <Gold.PLP.Chemscore.Metal>
0.0000

> <Gold.Chemscore.Hbonds>
donor molecule, donor type, donor heavy atom, donor atom, acceptor molecule, acceptor atom, score
      L1  H     3    25       P1 10175  1.00
      L1  H     6    26       P1 10175  0.87
      L1  H    13    30       P1 10952  0.39
      P1  H 10785 10796       L1    14  0.75

> <Gold.PLP.Chemscore.Internal.Correction>
0.0719

> <Gold.Rescore>
     Score         DG    S(hbond)    S(metal)    S(lipo)     H(rot)  DE(clash)    DE(int)     intcor
     11.39     -15.33       2.87        0.00      52.16       2.28       0.02       3.92       ----

> <Gold.Chemscore.Fitness>
11.3875

> <Gold.Chemscore.DG>
-15.3269

> <Gold.Chemscore.ZeroCoef>
-5.4800

> <Gold.Chemscore.Hbond>
2.8702

> <Gold.Chemscore.Metal>
0.0000

> <Gold.Chemscore.Lipo>
52.1620

> <Gold.Chemscore.Internal_Hbond>
0.0000

> <Gold.Chemscore.DEClash>
0.0231

> <Gold.Chemscore.DEInternal>
3.9162

> <Gold.Chemscore.Rot>
2.2823

> <Gold.Chemscore.Internal.Correction>
   9.000000E+99

> <Gold.Chemscore.Hbonds>
donor molecule, donor type, donor heavy atom, donor atom, acceptor molecule, acceptor atom, score
      L1  H     3    25       P1 10175  0.95
      L1  H     6    26       P1 10175  0.80
      L1  H    13    30       P1 10952  0.30
      P1  H 10785 10796       L1    14  0.73

> <Gold.Chemscore.Hbond.Weighted>
-9.5866

> <Gold.Chemscore.Metal.Weighted>
-0.0000

> <Gold.Chemscore.Lipo.Weighted>
-6.1030

> <Gold.Chemscore.Internal_Hbond.Weighted>
0.0000

> <Gold.Chemscore.DEClash.Weighted>
0.0231

> <Gold.Chemscore.DEInternal.Weighted>
3.9162

> <Gold.Chemscore.Rot.Weighted>
5.8427

> <Gold.Chemscore.Internal.Correction.Weighted>
   9.000000E+99

> <Gold.Protein.RotatedTorsions>
[ 6907 6896 6895 6894 ] final   -2.45 input  -60.11 | X-H torsion
[ 7974 7965 7964 7962 ] final  -28.72 input  175.53 | X-H torsion
[ 8008 7997 7996 7995 ] final   26.87 input   59.86 | X-H torsion
[ 10167 10162 10161 10158 ] final -113.79 input  -65.29 | X-H torsion
[ 10718 10713 10712 10709 ] final -173.37 input   66.30 | X-H torsion
[ 10763 10752 10751 10750 ] final  -30.23 input  -60.55 | X-H torsion
[ 11005 11000 10999 10996 ] final   77.01 input  -57.11 | X-H torsion

> <Gold.Protein.ActiveResidues>
 VAL166  LYS551  ARG553  GLY616  TRP617  ASP618  TYR619  PRO620  LYS621  CYS622 
 ASP623  PHE694  ASN695  SER759  ASP760  ASP761  ALA762  ILE779  LEU786  VAL792 
 PHE793  MET794  SER795  GLU796  ALA797  LYS798  CYS799  TRP800  GLU811  SER814 

> <Gold.Protein.RotatedAtoms>
  151.5296  135.1068  159.9899 H   0  0  0  0  0  0  0  0  0  0  0  0  # atno 6907 bound_to 6896
  152.4584  133.7767  159.6839 H   0  0  0  0  0  0  0  0  0  0  0  0  # atno 6908 bound_to 6896
  150.8536  133.7683  159.3041 H   0  0  0  0  0  0  0  0  0  0  0  0  # atno 6909 bound_to 6896
  146.1268  140.5319  142.8711 H   0  0  0  0  0  0  0  0  0  0  0  0  # atno 7974 bound_to 7965
  155.0340  140.3162  155.4748 H   0  0  0  0  0  0  0  0  0  0  0  0  # atno 8008 bound_to 7997
  156.2868  140.2175  156.5405 H   0  0  0  0  0  0  0  0  0  0  0  0  # atno 8009 bound_to 7997
  154.7346  140.0478  157.0745 H   0  0  0  0  0  0  0  0  0  0  0  0  # atno 8010 bound_to 7997
  140.1080  143.4553  152.1771 H   0  0  0  0  0  0  0  0  0  0  0  0  # atno 10167 bound_to 10162
  156.7693  130.9443  151.3119 H   0  0  0  0  0  0  0  0  0  0  0  0  # atno 10718 bound_to 10713
  153.7776  135.6907  153.4894 H   0  0  0  0  0  0  0  0  0  0  0  0  # atno 10763 bound_to 10752
  153.1832  135.4498  155.0054 H   0  0  0  0  0  0  0  0  0  0  0  0  # atno 10764 bound_to 10752
  154.8094  135.3371  154.7282 H   0  0  0  0  0  0  0  0  0  0  0  0  # atno 10765 bound_to 10752
  139.9273  134.7648  156.1468 H   0  0  0  0  0  0  0  0  0  0  0  0  # atno 11005 bound_to 11000
  144.7650  140.5511  143.6709 LP  0  0  0  0  0  0  0  0  0  0  0  0  # atno 17320 bound_to 7965
  145.5347  139.1475  143.3480 LP  0  0  0  0  0  0  0  0  0  0  0  0  # atno 17321 bound_to 7965
  139.5635  144.7420  151.4088 LP  0  0  0  0  0  0  0  0  0  0  0  0  # atno 17342 bound_to 10162
  140.6942  143.7790  150.7300 LP  0  0  0  0  0  0  0  0  0  0  0  0  # atno 17343 bound_to 10162
  157.6698  130.9041  150.0015 LP  0  0  0  0  0  0  0  0  0  0  0  0  # atno 17370 bound_to 10713
  156.1288  130.3644  149.9766 LP  0  0  0  0  0  0  0  0  0  0  0  0  # atno 17371 bound_to 10713
  141.0839  133.6742  156.2394 LP  0  0  0  0  0  0  0  0  0  0  0  0  # atno 17394 bound_to 11000
  140.6301  134.5273  157.5558 LP  0  0  0  0  0  0  0  0  0  0  0  0  # atno 17395 bound_to 11000

$$$$
