AV-unprocessed.smi:2533|AV-procd|sdf|9972|dock2
  -GOLD-   2272014 23D 1   1.00000     0.00000
 Structure written by MMmdl.
 35 36  0  0  0  0  0  0  0  0  1 V2000
  158.0458  137.5019  163.4368 C   0  0  0  0  0  0  0  0  0  0  0  0
  156.6847  137.1920  163.6982 O   0  0  0  0  0  0  0  0  0  0  0  0
  155.7581  137.4515  162.7104 C   0  0  0  0  0  0  0  0  0  0  0  0
  156.0830  137.9825  161.4368 C   0  0  0  0  0  0  0  0  0  0  0  0
  155.0739  138.2237  160.4850 C   0  0  0  0  0  0  0  0  0  0  0  0
  153.7259  137.9394  160.7866 C   0  0  0  0  0  0  0  0  0  0  0  0
  152.6265  138.2319  159.7749 C   0  0  2  0  0  0  0  0  0  0  0  0
  151.8502  137.0884  159.4806 O   0  0  0  0  0  0  0  0  0  0  0  0
  153.1654  138.8133  158.4481 C   0  0  0  0  0  0  0  0  0  0  0  0
  152.3437  139.9227  157.9429 N   0  0  0  0  0  0  0  0  0  0  0  0
  152.5733  141.1230  158.5934 N   0  0  0  0  0  0  0  0  0  0  0  0
  151.9482  142.2042  158.2544 C   0  0  0  0  0  0  0  0  0  0  0  0
  152.2757  143.4639  159.0172 C   0  0  0  0  0  0  0  0  0  0  0  0
  152.8032  144.3885  158.2143 F   0  0  0  0  0  0  0  0  0  0  0  0
  151.1710  143.9645  159.5712 F   0  0  0  0  0  0  0  0  0  0  0  0
  153.1508  143.1963  159.9868 F   0  0  0  0  0  0  0  0  0  0  0  0
  150.9796  142.1495  157.1726 C   0  0  0  0  0  0  0  0  0  0  0  0
  150.7573  140.9787  156.5386 C   0  0  0  0  0  0  0  0  0  0  0  0
  151.4662  139.7566  156.9089 C   0  0  0  0  0  0  0  0  0  0  0  0
  151.2951  138.6817  156.3349 O   0  0  0  0  0  0  0  0  0  0  0  0
  153.3992  137.4085  162.0510 C   0  0  0  0  0  0  0  0  0  0  0  0
  154.4076  137.1678  163.0033 C   0  0  0  0  0  0  0  0  0  0  0  0
  154.0718  136.6623  164.2143 F   0  0  0  0  0  0  0  0  0  0  0  0
  158.6471  137.2491  164.3101 H   0  0  0  0  0  0  0  0  0  0  0  0
  158.1821  138.5663  163.2408 H   0  0  0  0  0  0  0  0  0  0  0  0
  158.4307  136.9265  162.5940 H   0  0  0  0  0  0  0  0  0  0  0  0
  157.1007  138.2184  161.1656 H   0  0  0  0  0  0  0  0  0  0  0  0
  155.3378  138.6398  159.5237 H   0  0  0  0  0  0  0  0  0  0  0  0
  151.9428  138.9573  160.2181 H   0  0  0  0  0  0  0  0  0  0  0  0
  150.9601  137.3638  159.3228 H   0  0  0  0  0  0  0  0  0  0  0  0
  154.2051  139.1194  158.5769 H   0  0  0  0  0  0  0  0  0  0  0  0
  153.1954  138.0272  157.6913 H   0  0  0  0  0  0  0  0  0  0  0  0
  150.4437  143.0403  156.8800 H   0  0  0  0  0  0  0  0  0  0  0  0
  150.0369  140.9428  155.7346 H   0  0  0  0  0  0  0  0  0  0  0  0
  152.3703  137.1941  162.3006 H   0  0  0  0  0  0  0  0  0  0  0  0
  1  2  1  0  0  0  0
  1 24  1  0  0  0  0
  1 25  1  0  0  0  0
  1 26  1  0  0  0  0
  2  3  1  0  0  0  0
  3 22  1  0  0  0  0
  3  4  2  0  0  0  0
  4  5  1  0  0  0  0
  4 27  1  0  0  0  0
  5  6  2  0  0  0  0
  5 28  1  0  0  0  0
  6  7  1  0  0  0  0
  6 21  1  0  0  0  0
  7  8  1  0  0  0  0
  7  9  1  0  0  0  0
  7 29  1  0  0  0  0
  8 30  1  0  0  0  0
  9 10  1  0  0  0  0
  9 31  1  0  0  0  0
  9 32  1  0  0  0  0
 10 19  1  0  0  0  0
 10 11  1  0  0  0  0
 11 12  2  0  0  0  0
 12 13  1  0  0  0  0
 12 17  1  0  0  0  0
 13 14  1  0  0  0  0
 13 15  1  0  0  0  0
 13 16  1  0  0  0  0
 17 18  2  0  0  0  0
 17 33  1  0  0  0  0
 18 19  1  0  0  0  0
 18 34  1  0  0  0  0
 19 20  2  0  0  0  0
 21 22  2  0  0  0  0
 21 35  1  0  0  0  0
 22 23  1  0  0  0  0
M  END
> <s_m_source_file>
AV-unprocessed.smi

> <i_m_source_file_index>
2533

> <i_lp_mmshare_version>
43012

> <i_f3d_flags>
0

> <s_epik_input>
W0NIM11PYzFbY0hdW2NIXWMoW2NIXWMxRilbQ0BIXShbT0hdKVtDSDJdbjJuYyhDKEYpKEYpRilbY0hdW2NIXWMyPU8=

> <s_epik_cmdline>
J2VwaWtfcHl0aG9uJywgJy1waCcsICc3LjAnLCAnLXRuJywgJzgnLCAnLW1hJywgJzIwMCcsICctbWV0YWxfYmluZGluZycsICctaW1hZScsICc8aW5maWxlLm1hZT4nLCAnLW9tYWUnLCAnPG91dGZpbGUubWFlPic=

> <r_lp_tautomer_probability>
1

> <r_epik_Ionization_Penalty>
5.00966e-08

> <r_epik_Ionization_Penalty_Charging>
3.92872e-09

> <r_epik_Ionization_Penalty_Neutral>
4.61679e-08

> <r_epik_State_Penalty>
-0

> <r_epik_Charging_Adjusted_Penalty>
3.92872e-09

> <i_epik_Tot_Q>
0

> <i_epik_Tot_abs_Q>
0

> <r_epik_Metal_State_Penalty>
-0

> <b_epik_Metal_Only>
0

> <s_lp_Force_Field>
OPLS_2005

> <r_lp_Energy>
31.2936

> <b_lp_Chiralities_Consistent>
1

> <s_lp_Variant>
AV-unprocessed.smi:2533-1

> <Gold.Version>
5.8.1

> <Gold.Id.Protein>
6NUR|6NUR_protein|mol2

> <Gold.PLP.Fitness>
42.9297

> <Gold.PLP.PLP>
-41.5043

> <Gold.PLP.part.hbond>
-1.0000

> <Gold.PLP.part.metal>
0.0000

> <Gold.PLP.part.buried>
-4.8483

> <Gold.PLP.part.nonpolar>
-35.9592

> <Gold.PLP.part.repulsive>
0.0125

> <Gold.PLP.ligand.clash>
0.0000

> <Gold.PLP.ligand.torsion>
0.8337

> <Gold.PLP.Chemscore.Hbond>
1.0000

> <Gold.PLP.Chemscore.CHOScore>
0.0000

> <Gold.PLP.Chemscore.Metal>
0.0000

> <Gold.Chemscore.Hbonds>
donor molecule, donor type, donor heavy atom, donor atom, acceptor molecule, acceptor atom, score
      P1  H  6896  6907       L1     8  1.00

> <Gold.PLP.Chemscore.Internal.Correction>
0.0928

> <Gold.Rescore>
     Score         DG    S(hbond)    S(metal)    S(lipo)     H(rot)  DE(clash)    DE(int)     intcor
     11.27     -12.10       0.96        0.00      84.02       2.50       0.05       0.79       ----

> <Gold.Chemscore.Fitness>
11.2650

> <Gold.Chemscore.DG>
-12.0993

> <Gold.Chemscore.ZeroCoef>
-5.4800

> <Gold.Chemscore.Hbond>
0.9571

> <Gold.Chemscore.Metal>
0.0000

> <Gold.Chemscore.Lipo>
84.0208

> <Gold.Chemscore.Internal_Hbond>
0.0000

> <Gold.Chemscore.DEClash>
0.0456

> <Gold.Chemscore.DEInternal>
0.7886

> <Gold.Chemscore.Rot>
2.5031

> <Gold.Chemscore.Internal.Correction>
   9.000000E+99

> <Gold.Chemscore.Hbonds>
donor molecule, donor type, donor heavy atom, donor atom, acceptor molecule, acceptor atom, score
      P1  H  6896  6907       L1     8  0.48

> <Gold.Chemscore.Hbond.Weighted>
-3.1967

> <Gold.Chemscore.Metal.Weighted>
-0.0000

> <Gold.Chemscore.Lipo.Weighted>
-9.8304

> <Gold.Chemscore.Internal_Hbond.Weighted>
0.0000

> <Gold.Chemscore.DEClash.Weighted>
0.0456

> <Gold.Chemscore.DEInternal.Weighted>
0.7886

> <Gold.Chemscore.Rot.Weighted>
6.4079

> <Gold.Chemscore.Internal.Correction.Weighted>
   9.000000E+99

> <Gold.Protein.RotatedTorsions>
[ 6907 6896 6895 6894 ] final    8.56 input  -60.11 | X-H torsion
[ 7974 7965 7964 7962 ] final   63.76 input  175.53 | X-H torsion
[ 8008 7997 7996 7995 ] final  -30.08 input   59.86 | X-H torsion
[ 10167 10162 10161 10158 ] final  -74.53 input  -65.29 | X-H torsion
[ 10718 10713 10712 10709 ] final  142.77 input   66.30 | X-H torsion
[ 10763 10752 10751 10750 ] final  -21.98 input  -60.55 | X-H torsion
[ 11005 11000 10999 10996 ] final -176.65 input  -57.11 | X-H torsion

> <Gold.Protein.ActiveResidues>
 VAL166  LYS551  ARG553  GLY616  TRP617  ASP618  TYR619  PRO620  LYS621  CYS622 
 ASP623  PHE694  ASN695  SER759  ASP760  ASP761  ALA762  ILE779  LEU786  VAL792 
 PHE793  MET794  SER795  GLU796  ALA797  LYS798  CYS799  TRP800  GLU811  SER814 

> <Gold.Protein.RotatedAtoms>
  151.7079  135.0918  160.0262 H   0  0  0  0  0  0  0  0  0  0  0  0  # atno 6907 bound_to 6896
  152.3680  133.6377  159.6073 H   0  0  0  0  0  0  0  0  0  0  0  0  # atno 6908 bound_to 6896
  150.7652  133.9233  159.3446 H   0  0  0  0  0  0  0  0  0  0  0  0  # atno 6909 bound_to 6896
  145.8581  139.3297  143.0835 H   0  0  0  0  0  0  0  0  0  0  0  0  # atno 7974 bound_to 7965
  154.4264  140.1801  156.1350 H   0  0  0  0  0  0  0  0  0  0  0  0  # atno 8008 bound_to 7997
  156.0037  140.3357  155.6846 H   0  0  0  0  0  0  0  0  0  0  0  0  # atno 8009 bound_to 7997
  155.6207  140.0659  157.2669 H   0  0  0  0  0  0  0  0  0  0  0  0  # atno 8010 bound_to 7997
  140.5019  143.2359  151.7737 H   0  0  0  0  0  0  0  0  0  0  0  0  # atno 10167 bound_to 10162
  157.3767  131.0986  151.0777 H   0  0  0  0  0  0  0  0  0  0  0  0  # atno 10718 bound_to 10713
  153.6447  135.6983  153.5229 H   0  0  0  0  0  0  0  0  0  0  0  0  # atno 10763 bound_to 10752
  153.2754  135.4202  155.1028 H   0  0  0  0  0  0  0  0  0  0  0  0  # atno 10764 bound_to 10752
  154.8491  135.3589  154.5991 H   0  0  0  0  0  0  0  0  0  0  0  0  # atno 10765 bound_to 10752
  140.4498  134.6354  157.4796 H   0  0  0  0  0  0  0  0  0  0  0  0  # atno 11005 bound_to 11000
  145.9279  140.9069  143.0371 LP  0  0  0  0  0  0  0  0  0  0  0  0  # atno 17320 bound_to 7965
  144.6727  140.1378  143.7439 LP  0  0  0  0  0  0  0  0  0  0  0  0  # atno 17321 bound_to 7965
  139.4874  144.4510  151.9654 LP  0  0  0  0  0  0  0  0  0  0  0  0  # atno 17342 bound_to 10162
  140.3599  144.2986  150.5935 LP  0  0  0  0  0  0  0  0  0  0  0  0  # atno 17343 bound_to 10162
  157.1861  130.6331  149.5688 LP  0  0  0  0  0  0  0  0  0  0  0  0  # atno 17370 bound_to 10713
  155.9767  130.4737  150.6544 LP  0  0  0  0  0  0  0  0  0  0  0  0  # atno 17371 bound_to 10713
  140.0015  134.6830  155.9523 LP  0  0  0  0  0  0  0  0  0  0  0  0  # atno 17394 bound_to 11000
  141.1669  133.6537  156.4512 LP  0  0  0  0  0  0  0  0  0  0  0  0  # atno 17395 bound_to 11000

$$$$
