AV-unprocessed.smi:2037|AV-procd|sdf|8279|dock8
  -GOLD-   2272010543D 1   1.00000     0.00000
 Structure written by MMmdl.
 38 39  0  0  0  0  0  0  0  0  3 V2000
  143.9706  132.8812  150.8555 C   0  0  0  0  0  0  0  0  0  0  0  0
  145.1118  133.8474  150.4929 C   0  0  2  0  0  0  0  0  0  0  0  0
  146.5052  133.2200  150.6764 C   0  0  0  0  0  0  0  0  0  0  0  0
  146.8985  133.0963  152.1594 C   0  0  0  0  0  0  0  0  0  0  0  0
  146.8239  134.4096  152.8504 N   0  3  2  0  0  0  0  0  0  0  0  0
  147.3267  134.3347  154.2451 C   0  0  0  0  0  0  0  0  0  0  0  0
  148.8593  134.1978  154.3115 C   0  0  0  0  0  0  0  0  0  0  0  0
  149.3675  134.5624  155.6284 N   0  0  0  0  0  0  0  0  0  0  0  0
  150.3828  135.4039  155.8691 C   0  0  0  0  0  0  0  0  0  0  0  0
  150.9745  135.9376  154.9276 O   0  0  0  0  0  0  0  0  0  0  0  0
  150.6493  135.5713  157.1836 N   0  5  0  0  0  0  0  0  0  0  0  0
  151.0527  136.7680  157.6405 C   0  0  0  0  0  0  0  0  0  0  0  0
  151.3046  137.0070  158.9326 N   0  0  0  0  0  0  0  0  0  0  0  0
  151.7174  138.3163  159.1851 C   0  0  0  0  0  0  0  0  0  0  0  0
  151.7903  139.0901  158.0572 C   0  0  0  0  0  0  0  0  0  0  0  0
  151.3400  138.1918  156.6361 S   0  0  0  0  0  0  0  0  0  0  0  0
  145.4658  135.0067  152.7448 C   0  0  0  0  0  0  0  0  0  0  0  0
  145.0413  135.1718  151.2742 C   0  0  0  0  0  0  0  0  0  0  0  0
  143.9955  132.5883  151.9048 H   0  0  0  0  0  0  0  0  0  0  0  0
  144.0259  131.9704  150.2585 H   0  0  0  0  0  0  0  0  0  0  0  0
  142.9990  133.3369  150.6637 H   0  0  0  0  0  0  0  0  0  0  0  0
  144.9923  134.0815  149.4342 H   0  0  0  0  0  0  0  0  0  0  0  0
  146.5465  132.2422  150.1952 H   0  0  0  0  0  0  0  0  0  0  0  0
  147.2450  133.8381  150.1658 H   0  0  0  0  0  0  0  0  0  0  0  0
  146.2559  132.3769  152.6687 H   0  0  0  0  0  0  0  0  0  0  0  0
  147.9152  132.7065  152.2221 H   0  0  0  0  0  0  0  0  0  0  0  0
  146.9898  135.2060  154.8089 H   0  0  0  0  0  0  0  0  0  0  0  0
  146.8840  133.4646  154.7321 H   0  0  0  0  0  0  0  0  0  0  0  0
  149.1661  133.1812  154.0598 H   0  0  0  0  0  0  0  0  0  0  0  0
  149.3420  134.8556  153.5902 H   0  0  0  0  0  0  0  0  0  0  0  0
  148.9086  134.1510  156.4282 H   0  0  0  0  0  0  0  0  0  0  0  0
  151.9403  138.6113  160.1997 H   0  0  0  0  0  0  0  0  0  0  0  0
  152.0807  140.1267  157.9752 H   0  0  0  0  0  0  0  0  0  0  0  0
  144.7485  134.3848  153.2820 H   0  0  0  0  0  0  0  0  0  0  0  0
  145.4444  135.9858  153.2209 H   0  0  0  0  0  0  0  0  0  0  0  0
  145.6973  135.9024  150.7986 H   0  0  0  0  0  0  0  0  0  0  0  0
  144.0354  135.5898  151.2192 H   0  0  0  0  0  0  0  0  0  0  0  0
  147.4558  135.0228  152.3555 H   0  0  0  0  0  0  0  0  0  0  0  0
  1  2  1  0  0  0  0
  1 19  1  0  0  0  0
  1 20  1  0  0  0  0
  1 21  1  0  0  0  0
  2 18  1  0  0  0  0
  2  3  1  0  0  0  0
  2 22  1  0  0  0  0
  3  4  1  0  0  0  0
  3 23  1  0  0  0  0
  3 24  1  0  0  0  0
  4  5  1  0  0  0  0
  4 25  1  0  0  0  0
  4 26  1  0  0  0  0
  5  6  1  0  0  0  0
  5 17  1  0  0  0  0
  5 38  1  0  0  0  0
  6  7  1  0  0  0  0
  6 27  1  0  0  0  0
  6 28  1  0  0  0  0
  7  8  1  0  0  0  0
  7 29  1  0  0  0  0
  7 30  1  0  0  0  0
  8  9  1  0  0  0  0
  8 31  1  0  0  0  0
  9 10  2  0  0  0  0
  9 11  1  0  0  0  0
 11 12  1  0  0  0  0
 12 16  1  0  0  0  0
 12 13  2  0  0  0  0
 13 14  1  0  0  0  0
 14 15  2  0  0  0  0
 14 32  1  0  0  0  0
 15 16  1  0  0  0  0
 15 33  1  0  0  0  0
 17 18  1  0  0  0  0
 17 34  1  0  0  0  0
 17 35  1  0  0  0  0
 18 36  1  0  0  0  0
 18 37  1  0  0  0  0
M  CHG  1   5   1
M  CHG  1  11  -1
M  END
> <s_m_source_file>
AV-unprocessed.smi

> <i_m_source_file_index>
2037

> <i_lp_mmshare_version>
43012

> <i_f3d_flags>
0

> <s_epik_input>
W0NIM11bQ0hdMVtDSDJdW0NIMl1OKFtDSDJdW0NIMl0xKVtDSDJdW0NIMl1bTkhdQyg9TylbTkhdYzJuW2NIXVtjSF1zMg==

> <s_epik_cmdline>
J2VwaWtfcHl0aG9uJywgJy1waCcsICc3LjAnLCAnLXRuJywgJzgnLCAnLW1hJywgJzIwMCcsICctbWV0YWxfYmluZGluZycsICctaW1hZScsICc8aW5maWxlLm1hZT4nLCAnLW9tYWUnLCAnPG91dGZpbGUubWFlPic=

> <r_lp_tautomer_probability>
0.999

> <r_epik_Ionization_Penalty>
6.22113

> <r_epik_Ionization_Penalty_Charging>
5.39005

> <r_epik_Ionization_Penalty_Neutral>
0.831074

> <r_epik_State_Penalty>
5.38997

> <r_epik_Charging_Adjusted_Penalty>
10.78

> <i_epik_Tot_Q>
0

> <i_epik_Tot_abs_Q>
2

> <r_epik_Metal_State_Penalty>
1.41601

> <b_epik_Metal_Only>
1

> <s_lp_Force_Field>
OPLS_2005

> <r_lp_Energy>
7.28937

> <b_lp_Chiralities_Consistent>
1

> <s_lp_Variant>
AV-unprocessed.smi:2037-4

> <Gold.Version>
5.8.1

> <Gold.Id.Protein>
6NUR|6NUR_protein|mol2

> <Gold.PLP.Fitness>
37.0748

> <Gold.PLP.PLP>
-26.1100

> <Gold.PLP.part.hbond>
-3.4789

> <Gold.PLP.part.metal>
0.0000

> <Gold.PLP.part.buried>
-3.7584

> <Gold.PLP.part.nonpolar>
-19.1236

> <Gold.PLP.part.repulsive>
0.1824

> <Gold.PLP.ligand.clash>
0.0000

> <Gold.PLP.ligand.torsion>
0.5266

> <Gold.PLP.Chemscore.Hbond>
3.9920

> <Gold.PLP.Chemscore.CHOScore>
0.0000

> <Gold.PLP.Chemscore.Metal>
0.0000

> <Gold.Chemscore.Hbonds>
donor molecule, donor type, donor heavy atom, donor atom, acceptor molecule, acceptor atom, score
      L1  H     5    38       P1  7948  2.00
      P1  H  6896  6909       L1    13  0.83
      P1  H 10752 10764       L1    10  1.00

> <Gold.PLP.Chemscore.Internal.Correction>
0.0419

> <Gold.Rescore>
     Score         DG    S(hbond)    S(metal)    S(lipo)     H(rot)  DE(clash)    DE(int)     intcor
     15.56     -17.34       2.79        0.00      56.10       1.57       0.00       1.79       ----

> <Gold.Chemscore.Fitness>
15.5566

> <Gold.Chemscore.DG>
-17.3437

> <Gold.Chemscore.ZeroCoef>
-5.4800

> <Gold.Chemscore.Hbond>
2.7883

> <Gold.Chemscore.Metal>
0.0000

> <Gold.Chemscore.Lipo>
56.1018

> <Gold.Chemscore.Internal_Hbond>
0.0000

> <Gold.Chemscore.DEClash>
0.0015

> <Gold.Chemscore.DEInternal>
1.7857

> <Gold.Chemscore.Rot>
1.5676

> <Gold.Chemscore.Internal.Correction>
   9.000000E+99

> <Gold.Chemscore.Hbonds>
donor molecule, donor type, donor heavy atom, donor atom, acceptor molecule, acceptor atom, score
      L1  H     5    38       P1  7948  0.97
      P1  H  6896  6909       L1    13  0.47
      P1  H 10752 10764       L1    10  0.91

> <Gold.Chemscore.Hbond.Weighted>
-9.3128

> <Gold.Chemscore.Metal.Weighted>
-0.0000

> <Gold.Chemscore.Lipo.Weighted>
-6.5639

> <Gold.Chemscore.Internal_Hbond.Weighted>
0.0000

> <Gold.Chemscore.DEClash.Weighted>
0.0015

> <Gold.Chemscore.DEInternal.Weighted>
1.7857

> <Gold.Chemscore.Rot.Weighted>
4.0130

> <Gold.Chemscore.Internal.Correction.Weighted>
   9.000000E+99

> <Gold.Protein.RotatedTorsions>
[ 6907 6896 6895 6894 ] final  106.88 input  -60.11 | X-H torsion
[ 7974 7965 7964 7962 ] final   99.69 input  175.53 | X-H torsion
[ 8008 7997 7996 7995 ] final  116.88 input   59.86 | X-H torsion
[ 10167 10162 10161 10158 ] final   70.34 input  -65.29 | X-H torsion
[ 10718 10713 10712 10709 ] final   58.78 input   66.30 | X-H torsion
[ 10763 10752 10751 10750 ] final  -55.55 input  -60.55 | X-H torsion
[ 11005 11000 10999 10996 ] final  -60.60 input  -57.11 | X-H torsion

> <Gold.Protein.ActiveResidues>
 VAL166  LYS551  ARG553  GLY616  TRP617  ASP618  TYR619  PRO620  LYS621  CYS622 
 ASP623  PHE694  ASN695  SER759  ASP760  ASP761  ALA762  ILE779  LEU786  VAL792 
 PHE793  MET794  SER795  GLU796  ALA797  LYS798  CYS799  TRP800  GLU811  SER814 

> <Gold.Protein.RotatedAtoms>
  152.5177  133.9317  159.7583 H   0  0  0  0  0  0  0  0  0  0  0  0  # atno 6907 bound_to 6896
  150.9666  133.6380  159.2752 H   0  0  0  0  0  0  0  0  0  0  0  0  # atno 6908 bound_to 6896
  151.3606  135.0909  159.9486 H   0  0  0  0  0  0  0  0  0  0  0  0  # atno 6909 bound_to 6896
  145.3955  139.2356  143.3328 H   0  0  0  0  0  0  0  0  0  0  0  0  # atno 7974 bound_to 7965
  156.2463  140.2908  156.0591 H   0  0  0  0  0  0  0  0  0  0  0  0  # atno 8008 bound_to 7997
  155.1795  140.0404  157.2896 H   0  0  0  0  0  0  0  0  0  0  0  0  # atno 8009 bound_to 7997
  154.6269  140.2490  155.7487 H   0  0  0  0  0  0  0  0  0  0  0  0  # atno 8010 bound_to 7997
  140.0579  144.5257  150.7315 H   0  0  0  0  0  0  0  0  0  0  0  0  # atno 10167 bound_to 10162
  157.5623  130.8845  149.9132 H   0  0  0  0  0  0  0  0  0  0  0  0  # atno 10718 bound_to 10713
  154.1926  135.6425  153.5064 H   0  0  0  0  0  0  0  0  0  0  0  0  # atno 10763 bound_to 10752
  153.0031  135.5432  154.6399 H   0  0  0  0  0  0  0  0  0  0  0  0  # atno 10764 bound_to 10752
  154.5792  135.2923  155.0723 H   0  0  0  0  0  0  0  0  0  0  0  0  # atno 10765 bound_to 10752
  141.1293  133.6623  156.5247 H   0  0  0  0  0  0  0  0  0  0  0  0  # atno 11005 bound_to 11000
  146.2777  140.4644  142.8789 LP  0  0  0  0  0  0  0  0  0  0  0  0  # atno 17320 bound_to 7965
  144.8410  140.6857  143.6229 LP  0  0  0  0  0  0  0  0  0  0  0  0  # atno 17321 bound_to 7965
  140.7186  143.2567  151.4354 LP  0  0  0  0  0  0  0  0  0  0  0  0  # atno 17342 bound_to 10162
  139.5912  144.1496  152.2090 LP  0  0  0  0  0  0  0  0  0  0  0  0  # atno 17343 bound_to 10162
  156.0675  130.3690  150.0847 LP  0  0  0  0  0  0  0  0  0  0  0  0  # atno 17370 bound_to 10713
  156.9010  130.9620  151.3576 LP  0  0  0  0  0  0  0  0  0  0  0  0  # atno 17371 bound_to 10713
  140.4264  134.7141  157.4918 LP  0  0  0  0  0  0  0  0  0  0  0  0  # atno 17394 bound_to 11000
  140.0324  134.6386  155.9088 LP  0  0  0  0  0  0  0  0  0  0  0  0  # atno 17395 bound_to 11000

$$$$
