AV-unprocessed.smi:115|AV-procd|sdf|1125|dock3
  -GOLD-   2262018253D 1   1.00000     0.00000
 Structure written by MMmdl.
 55 57  0  0  0  0  0  0  0  0  1 V2000
  144.9062  133.7083  163.2790 C   0  0  0  0  0  0  0  0  0  0  0  0
  146.1624  133.2210  162.8311 O   0  0  0  0  0  0  0  0  0  0  0  0
  146.1129  132.5643  161.5708 C   0  0  0  0  0  0  0  0  0  0  0  0
  147.5270  132.3805  160.9715 C   0  0  2  0  0  0  0  0  0  0  0  0
  148.6127  132.1007  162.0248 C   0  0  0  0  0  0  0  0  0  0  0  0
  147.9190  133.4634  160.0537 N   0  0  0  0  0  0  0  0  0  0  0  0
  148.2531  133.2634  158.7155 C   0  0  0  0  0  0  0  0  0  0  0  0
  148.2596  131.9208  158.0546 C   0  0  0  0  0  0  0  0  0  0  0  0
  148.5449  134.4764  158.1696 C   0  0  0  0  0  0  0  0  0  0  0  0
  148.4223  135.4716  159.1766 C   0  0  0  0  0  0  0  0  0  0  0  0
  148.6044  136.9445  159.0536 C   0  0  0  0  0  0  0  0  0  0  0  0
  148.0997  137.7515  159.8335 O   0  0  0  0  0  0  0  0  0  0  0  0
  149.4619  137.4625  157.8856 C   0  0  0  0  0  0  0  0  0  0  0  0
  150.3594  138.5272  158.3137 N   0  0  0  0  0  0  0  0  0  0  0  0
  151.6092  138.1489  158.8665 C   0  0  0  0  0  0  0  0  0  0  0  0
  151.9393  136.9681  158.9904 O   0  0  0  0  0  0  0  0  0  0  0  0
  152.4542  139.2647  159.2784 C   0  0  0  0  0  0  0  0  0  0  0  0
  153.6583  139.0209  159.8228 F   0  0  0  0  0  0  0  0  0  0  0  0
  152.0456  140.5424  159.1242 C   0  0  0  0  0  0  0  0  0  0  0  0
  150.8214  140.8831  158.5751 N   0  0  0  0  0  0  0  0  0  0  0  0
  150.4100  142.3304  158.4327 C   0  0  1  0  0  0  0  0  0  0  0  0
  150.6815  143.0927  159.7353 C   0  0  0  0  0  0  0  0  0  0  0  0
  151.9938  143.7839  159.4324 C   0  0  0  0  0  0  0  0  0  0  0  0
  151.8605  144.0563  157.9391 C   0  0  0  0  0  0  0  0  0  0  0  0
  151.1767  142.9199  157.4222 O   0  0  0  0  0  0  0  0  0  0  0  0
  149.9272  139.8685  158.1691 C   0  0  0  0  0  0  0  0  0  0  0  0
  148.8136  140.1503  157.7208 O   0  0  0  0  0  0  0  0  0  0  0  0
  148.0661  134.8290  160.3426 C   0  0  0  0  0  0  0  0  0  0  0  0
  147.8465  135.3913  161.7205 C   0  0  0  0  0  0  0  0  0  0  0  0
  145.0287  134.1874  164.2504 H   0  0  0  0  0  0  0  0  0  0  0  0
  144.1717  132.9109  163.3925 H   0  0  0  0  0  0  0  0  0  0  0  0
  144.5066  134.4528  162.5893 H   0  0  0  0  0  0  0  0  0  0  0  0
  145.5932  131.6084  161.6610 H   0  0  0  0  0  0  0  0  0  0  0  0
  145.5008  133.1873  160.9220 H   0  0  0  0  0  0  0  0  0  0  0  0
  147.4668  131.4734  160.3767 H   0  0  0  0  0  0  0  0  0  0  0  0
  148.3530  131.2283  162.6248 H   0  0  0  0  0  0  0  0  0  0  0  0
  148.7612  132.9331  162.7097 H   0  0  0  0  0  0  0  0  0  0  0  0
  149.5712  131.8936  161.5482 H   0  0  0  0  0  0  0  0  0  0  0  0
  148.6372  131.9929  157.0344 H   0  0  0  0  0  0  0  0  0  0  0  0
  147.2536  131.5033  158.0055 H   0  0  0  0  0  0  0  0  0  0  0  0
  148.8993  131.2214  158.5933 H   0  0  0  0  0  0  0  0  0  0  0  0
  148.8160  134.6231  157.1350 H   0  0  0  0  0  0  0  0  0  0  0  0
  150.0721  136.6941  157.4128 H   0  0  0  0  0  0  0  0  0  0  0  0
  148.8261  137.8437  157.0858 H   0  0  0  0  0  0  0  0  0  0  0  0
  152.7118  141.3264  159.4524 H   0  0  0  0  0  0  0  0  0  0  0  0
  149.3607  142.3316  158.1343 H   0  0  0  0  0  0  0  0  0  0  0  0
  149.8873  143.8263  159.8800 H   0  0  0  0  0  0  0  0  0  0  0  0
  150.7163  142.4336  160.6040 H   0  0  0  0  0  0  0  0  0  0  0  0
  152.1469  144.6898  160.0193 H   0  0  0  0  0  0  0  0  0  0  0  0
  152.8290  143.1087  159.6211 H   0  0  0  0  0  0  0  0  0  0  0  0
  151.2512  144.9444  157.7660 H   0  0  0  0  0  0  0  0  0  0  0  0
  152.8231  144.2017  157.4487 H   0  0  0  0  0  0  0  0  0  0  0  0
  148.4523  136.2793  161.8930 H   0  0  0  0  0  0  0  0  0  0  0  0
  148.1331  134.6966  162.5043 H   0  0  0  0  0  0  0  0  0  0  0  0
  146.8013  135.6636  161.8665 H   0  0  0  0  0  0  0  0  0  0  0  0
  1  2  1  0  0  0  0
  1 30  1  0  0  0  0
  1 31  1  0  0  0  0
  1 32  1  0  0  0  0
  2  3  1  0  0  0  0
  3  4  1  0  0  0  0
  3 33  1  0  0  0  0
  3 34  1  0  0  0  0
  4  5  1  0  0  0  0
  4  6  1  0  0  0  0
  4 35  1  0  0  0  0
  5 36  1  0  0  0  0
  5 37  1  0  0  0  0
  5 38  1  0  0  0  0
  6 28  1  0  0  0  0
  6  7  1  0  0  0  0
  7  8  1  0  0  0  0
  7  9  2  0  0  0  0
  8 39  1  0  0  0  0
  8 40  1  0  0  0  0
  8 41  1  0  0  0  0
  9 10  1  0  0  0  0
  9 42  1  0  0  0  0
 10 11  1  0  0  0  0
 10 28  2  0  0  0  0
 11 12  2  0  0  0  0
 11 13  1  0  0  0  0
 13 14  1  0  0  0  0
 13 43  1  0  0  0  0
 13 44  1  0  0  0  0
 14 26  1  0  0  0  0
 14 15  1  0  0  0  0
 15 16  2  0  0  0  0
 15 17  1  0  0  0  0
 17 18  1  0  0  0  0
 17 19  2  0  0  0  0
 19 20  1  0  0  0  0
 19 45  1  0  0  0  0
 20 21  1  0  0  0  0
 20 26  1  0  0  0  0
 21 25  1  0  0  0  0
 21 22  1  0  0  0  0
 21 46  1  0  0  0  0
 22 23  1  0  0  0  0
 22 47  1  0  0  0  0
 22 48  1  0  0  0  0
 23 24  1  0  0  0  0
 23 49  1  0  0  0  0
 23 50  1  0  0  0  0
 24 25  1  0  0  0  0
 24 51  1  0  0  0  0
 24 52  1  0  0  0  0
 26 27  2  0  0  0  0
 28 29  1  0  0  0  0
 29 53  1  0  0  0  0
 29 54  1  0  0  0  0
 29 55  1  0  0  0  0
M  END
> <s_m_source_file>
AV-unprocessed.smi

> <i_m_source_file_index>
115

> <i_lp_mmshare_version>
43012

> <i_f3d_flags>
0

> <s_epik_input>
W0NIM11PW0NIMl1bQ0BIXShbQ0gzXSluMWMoW0NIM10pW2NIXWMoYzFbQ0gzXSlDKD1PKVtDSDJdbjJjKD1PKWMoRilbY0hdbihjMj1PKVtDQEBIXTNbQ0gyXVtDSDJdW0NIMl1PMw==

> <s_epik_cmdline>
J2VwaWtfcHl0aG9uJywgJy1waCcsICc3LjAnLCAnLXRuJywgJzgnLCAnLW1hJywgJzIwMCcsICctbWV0YWxfYmluZGluZycsICctaW1hZScsICc8aW5maWxlLm1hZT4nLCAnLW9tYWUnLCAnPG91dGZpbGUubWFlPic=

> <r_lp_tautomer_probability>
1

> <r_epik_Ionization_Penalty>
5.02611e-09

> <r_epik_Ionization_Penalty_Charging>
5.01743e-09

> <r_epik_Ionization_Penalty_Neutral>
8.68114e-12

> <r_epik_State_Penalty>
-0

> <r_epik_Charging_Adjusted_Penalty>
5.01743e-09

> <i_epik_Tot_Q>
0

> <i_epik_Tot_abs_Q>
0

> <r_epik_Metal_State_Penalty>
-0

> <b_epik_Metal_Only>
0

> <s_epik_Chemistry_Notes>
This compound contains an acetal/aminal-like group ( X-CH(R)-Y where X, Y are N, S, or O) that may be acid/base labile, releasing an aldehyde.

> <s_lp_Force_Field>
OPLS_2005

> <r_lp_Energy>
51.0988

> <b_lp_Chiralities_Consistent>
1

> <s_lp_Variant>
AV-unprocessed.smi:115-3

> <Gold.Version>
5.8.1

> <Gold.Id.Protein>
6NUR|6NUR_protein|mol2

> <Gold.PLP.Fitness>
42.9587

> <Gold.PLP.PLP>
-41.2853

> <Gold.PLP.part.hbond>
-3.5201

> <Gold.PLP.part.metal>
0.0000

> <Gold.PLP.part.buried>
-5.8145

> <Gold.PLP.part.nonpolar>
-33.3839

> <Gold.PLP.part.repulsive>
0.1620

> <Gold.PLP.ligand.clash>
0.0000

> <Gold.PLP.ligand.torsion>
1.5349

> <Gold.PLP.Chemscore.Hbond>
1.4553

> <Gold.PLP.Chemscore.CHOScore>
0.0000

> <Gold.PLP.Chemscore.Metal>
0.0000

> <Gold.Chemscore.Hbonds>
donor molecule, donor type, donor heavy atom, donor atom, acceptor molecule, acceptor atom, score
      P1  H  6896  6907       L1    16  0.86
      P1  H  6931  6943       L1    12  0.10
      P1  H  6934  6947       L1    12  0.48

> <Gold.PLP.Chemscore.Internal.Correction>
0.3775

> <Gold.Rescore>
     Score         DG    S(hbond)    S(metal)    S(lipo)     H(rot)  DE(clash)    DE(int)     intcor
     13.62     -16.14       1.40        0.00      99.20       2.19       0.22       2.30       ----

> <Gold.Chemscore.Fitness>
13.6187

> <Gold.Chemscore.DG>
-16.1427

> <Gold.Chemscore.ZeroCoef>
-5.4800

> <Gold.Chemscore.Hbond>
1.3989

> <Gold.Chemscore.Metal>
0.0000

> <Gold.Chemscore.Lipo>
99.2008

> <Gold.Chemscore.Internal_Hbond>
0.0000

> <Gold.Chemscore.DEClash>
0.2195

> <Gold.Chemscore.DEInternal>
2.3045

> <Gold.Chemscore.Rot>
2.1938

> <Gold.Chemscore.Internal.Correction>
   9.000000E+99

> <Gold.Chemscore.Hbonds>
donor molecule, donor type, donor heavy atom, donor atom, acceptor molecule, acceptor atom, score
      P1  H  6896  6907       L1    16  0.79
      P1  H  6931  6943       L1    12  0.10
      P1  H  6934  6947       L1    12  0.48

> <Gold.Chemscore.Hbond.Weighted>
-4.6722

> <Gold.Chemscore.Metal.Weighted>
-0.0000

> <Gold.Chemscore.Lipo.Weighted>
-11.6065

> <Gold.Chemscore.Internal_Hbond.Weighted>
0.0000

> <Gold.Chemscore.DEClash.Weighted>
0.2195

> <Gold.Chemscore.DEInternal.Weighted>
2.3045

> <Gold.Chemscore.Rot.Weighted>
5.6160

> <Gold.Chemscore.Internal.Correction.Weighted>
   9.000000E+99

> <Gold.Protein.RotatedTorsions>
[ 6907 6896 6895 6894 ] final   -1.69 input  -60.11 | X-H torsion
[ 7974 7965 7964 7962 ] final  105.21 input  175.53 | X-H torsion
[ 8008 7997 7996 7995 ] final  -33.73 input   59.86 | X-H torsion
[ 10167 10162 10161 10158 ] final  -67.55 input  -65.29 | X-H torsion
[ 10718 10713 10712 10709 ] final  -57.24 input   66.30 | X-H torsion
[ 10763 10752 10751 10750 ] final -156.68 input  -60.55 | X-H torsion
[ 11005 11000 10999 10996 ] final   77.57 input  -57.11 | X-H torsion

> <Gold.Protein.ActiveResidues>
 VAL166  LYS551  ARG553  GLY616  TRP617  ASP618  TYR619  PRO620  LYS621  CYS622 
 ASP623  PHE694  ASN695  SER759  ASP760  ASP761  ALA762  ILE779  LEU786  VAL792 
 PHE793  MET794  SER795  GLU796  ALA797  LYS798  CYS799  TRP800  GLU811  SER814 

> <Gold.Protein.RotatedAtoms>
  151.5419  135.1068  159.9928 H   0  0  0  0  0  0  0  0  0  0  0  0  # atno 6907 bound_to 6896
  152.4531  133.7665  159.6786 H   0  0  0  0  0  0  0  0  0  0  0  0  # atno 6908 bound_to 6896
  150.8466  133.7786  159.3065 H   0  0  0  0  0  0  0  0  0  0  0  0  # atno 6909 bound_to 6896
  145.3227  139.2508  143.3703 H   0  0  0  0  0  0  0  0  0  0  0  0  # atno 7974 bound_to 7965
  154.4140  140.1703  156.1936 H   0  0  0  0  0  0  0  0  0  0  0  0  # atno 8008 bound_to 7997
  155.9583  140.3395  155.6444 H   0  0  0  0  0  0  0  0  0  0  0  0  # atno 8009 bound_to 7997
  155.6782  140.0719  157.2485 H   0  0  0  0  0  0  0  0  0  0  0  0  # atno 8010 bound_to 7997
  140.5574  143.2312  151.6794 H   0  0  0  0  0  0  0  0  0  0  0  0  # atno 10167 bound_to 10162
  156.1226  130.4165  150.0413 H   0  0  0  0  0  0  0  0  0  0  0  0  # atno 10718 bound_to 10713
  154.7694  135.3140  154.8220 H   0  0  0  0  0  0  0  0  0  0  0  0  # atno 10763 bound_to 10752
  153.8960  135.6820  153.4762 H   0  0  0  0  0  0  0  0  0  0  0  0  # atno 10764 bound_to 10752
  153.1305  135.4782  154.9275 H   0  0  0  0  0  0  0  0  0  0  0  0  # atno 10765 bound_to 10752
  139.9249  134.7694  156.1539 H   0  0  0  0  0  0  0  0  0  0  0  0  # atno 11005 bound_to 11000
  146.3076  140.3788  142.8682 LP  0  0  0  0  0  0  0  0  0  0  0  0  # atno 17320 bound_to 7965
  144.8926  140.7543  143.5917 LP  0  0  0  0  0  0  0  0  0  0  0  0  # atno 17321 bound_to 7965
  139.5054  144.3718  152.0463 LP  0  0  0  0  0  0  0  0  0  0  0  0  # atno 17342 bound_to 10162
  140.2841  144.3827  150.6109 LP  0  0  0  0  0  0  0  0  0  0  0  0  # atno 17343 bound_to 10162
  156.8347  130.9405  151.3635 LP  0  0  0  0  0  0  0  0  0  0  0  0  # atno 17370 bound_to 10713
  157.6409  130.8805  149.9447 LP  0  0  0  0  0  0  0  0  0  0  0  0  # atno 17371 bound_to 10713
  141.0798  133.6759  156.2313 LP  0  0  0  0  0  0  0  0  0  0  0  0  # atno 17394 bound_to 11000
  140.6366  134.5209  157.5565 LP  0  0  0  0  0  0  0  0  0  0  0  0  # atno 17395 bound_to 11000

$$$$
