AV-unprocessed.smi:2356|AV-procd|sdf|9396|dock8
  -GOLD-   2272013 33D 1   1.00000     0.00000
 Structure written by MMmdl.
 53 56  0  0  0  0  0  0  0  0  1 V2000
  153.0711  138.6329  154.7959 C   0  0  0  0  0  0  0  0  0  0  0  0
  152.2794  138.6511  156.0923 C   0  0  0  0  0  0  0  0  0  0  0  0
  152.6254  139.6199  156.9675 N   0  0  0  0  0  0  0  0  0  0  0  0
  151.9665  139.7120  158.1460 C   0  0  0  0  0  0  0  0  0  0  0  0
  152.3573  140.7390  159.0277 N   0  0  0  0  0  0  0  0  0  0  0  0
  151.7055  142.0395  159.0245 C   0  0  0  0  0  0  0  0  0  0  0  0
  152.5153  142.8799  160.0103 C   0  0  0  0  0  0  0  0  0  0  0  0
  153.9312  142.3247  159.8563 C   0  0  0  0  0  0  0  0  0  0  0  0
  153.7199  140.8411  159.5326 C   0  0  0  0  0  0  0  0  0  0  0  0
  150.9144  138.8280  158.4779 C   0  0  0  0  0  0  0  0  0  0  0  0
  150.5528  137.8179  157.5670 C   0  0  0  0  0  0  0  0  0  0  0  0
  151.2530  137.7099  156.3421 C   0  0  0  0  0  0  0  0  0  0  0  0
  150.9695  136.7378  155.3419 N   0  0  0  0  0  0  0  0  0  0  0  0
  150.2101  135.6265  155.4011 C   0  0  0  0  0  0  0  0  0  0  0  0
  149.6029  135.2376  156.3957 O   0  0  0  0  0  0  0  0  0  0  0  0
  150.1627  134.9386  154.2452 N   0  0  0  0  0  0  0  0  0  0  0  0
  149.4390  133.6970  153.9596 C   0  0  1  0  0  0  0  0  0  0  0  0
  149.9559  132.5729  154.8673 C   0  0  0  0  0  0  0  0  0  0  0  0
  149.1404  131.2877  154.6560 C   0  0  0  0  0  0  0  0  0  0  0  0
  147.7539  131.5340  154.8809 O   0  0  0  0  0  0  0  0  0  0  0  0
  147.1676  132.5350  154.0470 C   0  0  2  0  0  0  0  0  0  0  0  0
  147.0369  132.0677  152.6032 C   0  0  0  0  0  0  0  0  0  0  0  0
  146.2183  132.8551  151.6068 C   0  0  0  0  0  0  0  0  0  0  0  0
  145.7282  131.5122  152.0936 C   0  0  0  0  0  0  0  0  0  0  0  0
  147.9260  133.8688  154.1904 C   0  0  0  0  0  0  0  0  0  0  0  0
  152.4048  138.7804  153.9457 H   0  0  0  0  0  0  0  0  0  0  0  0
  153.5795  137.6765  154.6730 H   0  0  0  0  0  0  0  0  0  0  0  0
  153.8249  139.4210  154.7735 H   0  0  0  0  0  0  0  0  0  0  0  0
  151.7537  142.4685  158.0227 H   0  0  0  0  0  0  0  0  0  0  0  0
  150.6585  141.9673  159.3206 H   0  0  0  0  0  0  0  0  0  0  0  0
  152.4504  143.9496  159.8098 H   0  0  0  0  0  0  0  0  0  0  0  0
  152.1585  142.7037  161.0261 H   0  0  0  0  0  0  0  0  0  0  0  0
  154.4233  142.8145  159.0150 H   0  0  0  0  0  0  0  0  0  0  0  0
  154.5485  142.4805  160.7415 H   0  0  0  0  0  0  0  0  0  0  0  0
  153.8082  140.2324  160.4331 H   0  0  0  0  0  0  0  0  0  0  0  0
  154.4569  140.4926  158.8081 H   0  0  0  0  0  0  0  0  0  0  0  0
  150.3747  138.9154  159.4090 H   0  0  0  0  0  0  0  0  0  0  0  0
  149.7387  137.1616  157.8287 H   0  0  0  0  0  0  0  0  0  0  0  0
  151.4357  136.8916  154.4598 H   0  0  0  0  0  0  0  0  0  0  0  0
  150.6709  135.3358  153.4681 H   0  0  0  0  0  0  0  0  0  0  0  0
  149.6238  133.4033  152.9251 H   0  0  0  0  0  0  0  0  0  0  0  0
  151.0111  132.3804  154.6698 H   0  0  0  0  0  0  0  0  0  0  0  0
  149.8838  132.8757  155.9131 H   0  0  0  0  0  0  0  0  0  0  0  0
  149.3023  130.8835  153.6566 H   0  0  0  0  0  0  0  0  0  0  0  0
  149.4715  130.5201  155.3556 H   0  0  0  0  0  0  0  0  0  0  0  0
  146.1568  132.6888  154.4266 H   0  0  0  0  0  0  0  0  0  0  0  0
  147.9315  131.6004  152.1980 H   0  0  0  0  0  0  0  0  0  0  0  0
  145.6988  133.7417  151.9652 H   0  0  0  0  0  0  0  0  0  0  0  0
  146.5896  132.9137  150.5857 H   0  0  0  0  0  0  0  0  0  0  0  0
  145.7755  130.6760  151.3990 H   0  0  0  0  0  0  0  0  0  0  0  0
  144.8806  131.5042  152.7762 H   0  0  0  0  0  0  0  0  0  0  0  0
  147.7605  134.2579  155.1961 H   0  0  0  0  0  0  0  0  0  0  0  0
  147.5072  134.6080  153.5066 H   0  0  0  0  0  0  0  0  0  0  0  0
  1  2  1  0  0  0  0
  1 26  1  0  0  0  0
  1 27  1  0  0  0  0
  1 28  1  0  0  0  0
  2 12  1  0  0  0  0
  2  3  2  0  0  0  0
  3  4  1  0  0  0  0
  4  5  1  0  0  0  0
  4 10  2  0  0  0  0
  5  9  1  0  0  0  0
  5  6  1  0  0  0  0
  6  7  1  0  0  0  0
  6 29  1  0  0  0  0
  6 30  1  0  0  0  0
  7  8  1  0  0  0  0
  7 31  1  0  0  0  0
  7 32  1  0  0  0  0
  8  9  1  0  0  0  0
  8 33  1  0  0  0  0
  8 34  1  0  0  0  0
  9 35  1  0  0  0  0
  9 36  1  0  0  0  0
 10 11  1  0  0  0  0
 10 37  1  0  0  0  0
 11 12  2  0  0  0  0
 11 38  1  0  0  0  0
 12 13  1  0  0  0  0
 13 14  1  0  0  0  0
 13 39  1  0  0  0  0
 14 15  2  0  0  0  0
 14 16  1  0  0  0  0
 16 17  1  0  0  0  0
 16 40  1  0  0  0  0
 17 25  1  0  0  0  0
 17 18  1  0  0  0  0
 17 41  1  0  0  0  0
 18 19  1  0  0  0  0
 18 42  1  0  0  0  0
 18 43  1  0  0  0  0
 19 20  1  0  0  0  0
 19 44  1  0  0  0  0
 19 45  1  0  0  0  0
 20 21  1  0  0  0  0
 21 22  1  0  0  0  0
 21 25  1  0  0  0  0
 21 46  1  0  0  0  0
 22 24  1  0  0  0  0
 22 23  1  0  0  0  0
 22 47  1  0  0  0  0
 23 24  1  0  0  0  0
 23 48  1  0  0  0  0
 23 49  1  0  0  0  0
 24 50  1  0  0  0  0
 24 51  1  0  0  0  0
 25 52  1  0  0  0  0
 25 53  1  0  0  0  0
M  END
> <s_m_source_file>
AV-unprocessed.smi

> <i_m_source_file_index>
2356

> <i_lp_mmshare_version>
43012

> <i_f3d_flags>
0

> <s_epik_input>
W0NIMl0xW0NIMl1bQ0gyXVtDSDJdTjFjKG5jMltDSDNdKVtjSF1bY0hdYzJbTkhdQyg9TylbTkhdW0NAQEhdM1tDSDJdW0NIMl1PW0NASF0oW0NIMl0zKVtDSF00W0NIMl1bQ0gyXTQ=

> <s_epik_cmdline>
J2VwaWtfcHl0aG9uJywgJy1waCcsICc3LjAnLCAnLXRuJywgJzgnLCAnLW1hJywgJzIwMCcsICctbWV0YWxfYmluZGluZycsICctaW1hZScsICc8aW5maWxlLm1hZT4nLCAnLW9tYWUnLCAnPG91dGZpbGUubWFlPic=

> <r_lp_tautomer_probability>
1

> <r_epik_Ionization_Penalty>
0.308781

> <r_epik_Ionization_Penalty_Charging>
0

> <r_epik_Ionization_Penalty_Neutral>
0.308781

> <r_epik_State_Penalty>
0.302092

> <r_epik_Charging_Adjusted_Penalty>
0.302092

> <i_epik_Tot_Q>
0

> <i_epik_Tot_abs_Q>
0

> <r_epik_Metal_State_Penalty>
0.197467

> <b_epik_Metal_Only>
0

> <s_lp_Force_Field>
OPLS_2005

> <r_lp_Energy>
54.1465

> <b_lp_Chiralities_Consistent>
1

> <s_lp_Variant>
AV-unprocessed.smi:2356-4

> <Gold.Version>
5.8.1

> <Gold.Id.Protein>
6NUR|6NUR_protein|mol2

> <Gold.PLP.Fitness>
42.6743

> <Gold.PLP.PLP>
-41.2345

> <Gold.PLP.part.hbond>
-3.0000

> <Gold.PLP.part.metal>
0.0000

> <Gold.PLP.part.buried>
-2.4559

> <Gold.PLP.part.nonpolar>
-34.7419

> <Gold.PLP.part.repulsive>
0.1893

> <Gold.PLP.ligand.clash>
0.0000

> <Gold.PLP.ligand.torsion>
1.9334

> <Gold.PLP.Chemscore.Hbond>
1.3469

> <Gold.PLP.Chemscore.CHOScore>
0.0000

> <Gold.PLP.Chemscore.Metal>
0.0000

> <Gold.Chemscore.Hbonds>
donor molecule, donor type, donor heavy atom, donor atom, acceptor molecule, acceptor atom, score
      L1  H    16    40       P1  7949  0.23
      P1  H  7997  8009       L1     3  1.00

> <Gold.PLP.Chemscore.Internal.Correction>
1.2659

> <Gold.Rescore>
     Score         DG    S(hbond)    S(metal)    S(lipo)     H(rot)  DE(clash)    DE(int)     intcor
     15.38     -19.05       0.95        0.00     113.90       1.14       0.32       3.35       ----

> <Gold.Chemscore.Fitness>
15.3796

> <Gold.Chemscore.DG>
-19.0463

> <Gold.Chemscore.ZeroCoef>
-5.4800

> <Gold.Chemscore.Hbond>
0.9451

> <Gold.Chemscore.Metal>
0.0000

> <Gold.Chemscore.Lipo>
113.9041

> <Gold.Chemscore.Internal_Hbond>
0.0000

> <Gold.Chemscore.DEClash>
0.3193

> <Gold.Chemscore.DEInternal>
3.3473

> <Gold.Chemscore.Rot>
1.1395

> <Gold.Chemscore.Internal.Correction>
   9.000000E+99

> <Gold.Chemscore.Hbonds>
donor molecule, donor type, donor heavy atom, donor atom, acceptor molecule, acceptor atom, score
      P1  H  7997  8009       L1     3  0.60

> <Gold.Chemscore.Hbond.Weighted>
-3.1566

> <Gold.Chemscore.Metal.Weighted>
-0.0000

> <Gold.Chemscore.Lipo.Weighted>
-13.3268

> <Gold.Chemscore.Internal_Hbond.Weighted>
0.0000

> <Gold.Chemscore.DEClash.Weighted>
0.3193

> <Gold.Chemscore.DEInternal.Weighted>
3.3473

> <Gold.Chemscore.Rot.Weighted>
2.9171

> <Gold.Chemscore.Internal.Correction.Weighted>
   9.000000E+99

> <Gold.Protein.RotatedTorsions>
[ 6907 6896 6895 6894 ] final -154.86 input  -60.11 | X-H torsion
[ 7974 7965 7964 7962 ] final  -17.00 input  175.53 | X-H torsion
[ 8008 7997 7996 7995 ] final -177.12 input   59.86 | X-H torsion
[ 10167 10162 10161 10158 ] final -145.54 input  -65.29 | X-H torsion
[ 10718 10713 10712 10709 ] final -155.42 input   66.30 | X-H torsion
[ 10763 10752 10751 10750 ] final  -36.45 input  -60.55 | X-H torsion
[ 11005 11000 10999 10996 ] final  162.04 input  -57.11 | X-H torsion

> <Gold.Protein.ActiveResidues>
 VAL166  LYS551  ARG553  GLY616  TRP617  ASP618  TYR619  PRO620  LYS621  CYS622 
 ASP623  PHE694  ASN695  SER759  ASP760  ASP761  ALA762  ILE779  LEU786  VAL792 
 PHE793  MET794  SER795  GLU796  ALA797  LYS798  CYS799  TRP800  GLU811  SER814 

> <Gold.Protein.RotatedAtoms>
  151.2638  133.4289  159.2617 H   0  0  0  0  0  0  0  0  0  0  0  0  # atno 6907 bound_to 6896
  151.0506  134.9671  159.8220 H   0  0  0  0  0  0  0  0  0  0  0  0  # atno 6908 bound_to 6896
  152.5382  134.2593  159.8981 H   0  0  0  0  0  0  0  0  0  0  0  0  # atno 6909 bound_to 6896
  146.1961  140.3717  142.8440 H   0  0  0  0  0  0  0  0  0  0  0  0  # atno 7974 bound_to 7965
  156.0031  140.1225  157.0528 H   0  0  0  0  0  0  0  0  0  0  0  0  # atno 8008 bound_to 7997
  154.4249  140.1103  156.5794 H   0  0  0  0  0  0  0  0  0  0  0  0  # atno 8009 bound_to 7997
  155.6185  140.3472  155.4646 H   0  0  0  0  0  0  0  0  0  0  0  0  # atno 8010 bound_to 7997
  139.7797  143.8119  152.2637 H   0  0  0  0  0  0  0  0  0  0  0  0  # atno 10167 bound_to 10162
  156.5127  130.8442  151.2652 H   0  0  0  0  0  0  0  0  0  0  0  0  # atno 10718 bound_to 10713
  153.8800  135.6822  153.4768 H   0  0  0  0  0  0  0  0  0  0  0  0  # atno 10763 bound_to 10752
  153.1239  135.4727  154.9238 H   0  0  0  0  0  0  0  0  0  0  0  0  # atno 10764 bound_to 10752
  154.7673  135.3228  154.8212 H   0  0  0  0  0  0  0  0  0  0  0  0  # atno 10765 bound_to 10752
  140.2218  134.8190  157.3228 H   0  0  0  0  0  0  0  0  0  0  0  0  # atno 11005 bound_to 11000
  144.8584  140.7104  143.6123 LP  0  0  0  0  0  0  0  0  0  0  0  0  # atno 17320 bound_to 7965
  145.3637  139.1675  143.4369 LP  0  0  0  0  0  0  0  0  0  0  0  0  # atno 17321 bound_to 7965
  139.8178  144.7308  150.9612 LP  0  0  0  0  0  0  0  0  0  0  0  0  # atno 17342 bound_to 10162
  140.7818  143.4188  151.0874 LP  0  0  0  0  0  0  0  0  0  0  0  0  # atno 17343 bound_to 10162
  157.7448  130.9944  150.2707 LP  0  0  0  0  0  0  0  0  0  0  0  0  # atno 17370 bound_to 10713
  156.3225  130.3788  149.7562 LP  0  0  0  0  0  0  0  0  0  0  0  0  # atno 17371 bound_to 10713
  140.1841  134.4452  155.7754 LP  0  0  0  0  0  0  0  0  0  0  0  0  # atno 17394 bound_to 11000
  141.2222  133.6997  156.7918 LP  0  0  0  0  0  0  0  0  0  0  0  0  # atno 17395 bound_to 11000

$$$$
