AV-unprocessed.smi:1475|AV-procd|sdf|5977|dock9
  -GOLD-   22720 6 73D 1   1.00000     0.00000
 Structure written by MMmdl.
 50 51  0  0  0  0  0  0  0  0  2 V2000
  153.2282  138.8852  155.0021 C   0  0  0  0  0  0  0  0  0  0  0  0
  152.0190  139.7066  155.3392 C   0  0  0  0  0  0  0  0  0  0  0  0
  151.7685  140.4633  156.5176 C   0  0  0  0  0  0  0  0  0  0  0  0
  150.5349  141.0134  156.3107 C   0  0  0  0  0  0  0  0  0  0  0  0
  149.7234  141.9127  157.1847 C   0  0  0  0  0  0  0  0  0  0  0  0
  150.1071  140.5819  155.0671 N   0  0  0  0  0  0  0  0  0  0  0  0
  148.8703  140.8847  154.3650 C   0  0  0  0  0  0  0  0  0  0  0  0
  148.2235  139.6100  153.8219 C   0  0  0  0  0  0  0  0  0  0  0  0
  148.5454  138.5124  154.2763 O   0  0  0  0  0  0  0  0  0  0  0  0
  147.3083  139.7684  152.8532 N   0  0  0  0  0  0  0  0  0  0  0  0
  146.5478  138.6887  152.2360 C   0  0  0  0  0  0  0  0  0  0  0  0
  146.1270  137.6232  153.2683 C   0  0  0  0  0  0  0  0  0  0  0  0
  146.2579  136.2395  152.7471 N   0  3  1  0  0  0  0  0  0  0  0  0
  146.1864  135.2272  153.8333 C   0  0  0  0  0  0  0  0  0  0  0  0
  146.4710  133.8054  153.3110 C   0  0  2  0  0  0  0  0  0  0  0  0
  147.9570  133.5982  152.9700 C   0  0  0  0  0  0  0  0  0  0  0  0
  145.5320  133.4614  152.1401 C   0  0  0  0  0  0  0  0  0  0  0  0
  145.5695  134.5411  151.0436 C   0  0  1  0  0  0  0  0  0  0  0  0
  144.5813  134.2234  149.9122 C   0  0  0  0  0  0  0  0  0  0  0  0
  145.2992  135.9309  151.6523 C   0  0  0  0  0  0  0  0  0  0  0  0
  151.0208  139.7820  154.4742 N   0  0  0  0  0  0  0  0  0  0  0  0
  153.9464  138.8868  155.8223 H   0  0  0  0  0  0  0  0  0  0  0  0
  153.7336  139.2749  154.1181 H   0  0  0  0  0  0  0  0  0  0  0  0
  152.9560  137.8486  154.8020 H   0  0  0  0  0  0  0  0  0  0  0  0
  152.4006  140.5851  157.3848 H   0  0  0  0  0  0  0  0  0  0  0  0
  150.2649  142.1610  158.0976 H   0  0  0  0  0  0  0  0  0  0  0  0
  148.7867  141.4347  157.4714 H   0  0  0  0  0  0  0  0  0  0  0  0
  149.4874  142.8460  156.6735 H   0  0  0  0  0  0  0  0  0  0  0  0
  148.1853  141.3984  155.0417 H   0  0  0  0  0  0  0  0  0  0  0  0
  149.0803  141.5742  153.5465 H   0  0  0  0  0  0  0  0  0  0  0  0
  147.1012  140.7091  152.5484 H   0  0  0  0  0  0  0  0  0  0  0  0
  145.6871  139.1189  151.7238 H   0  0  0  0  0  0  0  0  0  0  0  0
  147.1720  138.2339  151.4661 H   0  0  0  0  0  0  0  0  0  0  0  0
  146.7648  137.7380  154.1461 H   0  0  0  0  0  0  0  0  0  0  0  0
  145.1035  137.7842  153.6101 H   0  0  0  0  0  0  0  0  0  0  0  0
  146.8988  135.4724  154.6221 H   0  0  0  0  0  0  0  0  0  0  0  0
  145.1948  135.2641  154.2874 H   0  0  0  0  0  0  0  0  0  0  0  0
  146.2449  133.1098  154.1204 H   0  0  0  0  0  0  0  0  0  0  0  0
  148.2957  134.2788  152.1890 H   0  0  0  0  0  0  0  0  0  0  0  0
  148.1421  132.5799  152.6267 H   0  0  0  0  0  0  0  0  0  0  0  0
  148.5847  133.7658  153.8458 H   0  0  0  0  0  0  0  0  0  0  0  0
  145.7903  132.4869  151.7241 H   0  0  0  0  0  0  0  0  0  0  0  0
  144.5127  133.3691  152.5180 H   0  0  0  0  0  0  0  0  0  0  0  0
  146.5681  134.5525  150.6048 H   0  0  0  0  0  0  0  0  0  0  0  0
  143.5538  134.1998  150.2769 H   0  0  0  0  0  0  0  0  0  0  0  0
  144.7974  133.2533  149.4635 H   0  0  0  0  0  0  0  0  0  0  0  0
  144.6361  134.9712  149.1204 H   0  0  0  0  0  0  0  0  0  0  0  0
  144.2792  135.9856  152.0368 H   0  0  0  0  0  0  0  0  0  0  0  0
  145.3749  136.6777  150.8632 H   0  0  0  0  0  0  0  0  0  0  0  0
  147.1863  136.1679  152.3561 H   0  0  0  0  0  0  0  0  0  0  0  0
  1  2  1  0  0  0  0
  1 22  1  0  0  0  0
  1 23  1  0  0  0  0
  1 24  1  0  0  0  0
  2 21  2  0  0  0  0
  2  3  1  0  0  0  0
  3  4  2  0  0  0  0
  3 25  1  0  0  0  0
  4  5  1  0  0  0  0
  4  6  1  0  0  0  0
  5 26  1  0  0  0  0
  5 27  1  0  0  0  0
  5 28  1  0  0  0  0
  6  7  1  0  0  0  0
  6 21  1  0  0  0  0
  7  8  1  0  0  0  0
  7 29  1  0  0  0  0
  7 30  1  0  0  0  0
  8  9  2  0  0  0  0
  8 10  1  0  0  0  0
 10 11  1  0  0  0  0
 10 31  1  0  0  0  0
 11 12  1  0  0  0  0
 11 32  1  0  0  0  0
 11 33  1  0  0  0  0
 12 13  1  0  0  0  0
 12 34  1  0  0  0  0
 12 35  1  0  0  0  0
 13 20  1  0  0  0  0
 13 14  1  0  0  0  0
 13 50  1  0  0  0  0
 14 15  1  0  0  0  0
 14 36  1  0  0  0  0
 14 37  1  0  0  0  0
 15 16  1  0  0  0  0
 15 17  1  0  0  0  0
 15 38  1  0  0  0  0
 16 39  1  0  0  0  0
 16 40  1  0  0  0  0
 16 41  1  0  0  0  0
 17 18  1  0  0  0  0
 17 42  1  0  0  0  0
 17 43  1  0  0  0  0
 18 19  1  0  0  0  0
 18 20  1  0  0  0  0
 18 44  1  0  0  0  0
 19 45  1  0  0  0  0
 19 46  1  0  0  0  0
 19 47  1  0  0  0  0
 20 48  1  0  0  0  0
 20 49  1  0  0  0  0
M  CHG  1  13   1
M  END
> <s_m_source_file>
AV-unprocessed.smi

> <i_m_source_file_index>
1475

> <i_lp_mmshare_version>
43012

> <i_f3d_flags>
0

> <s_epik_input>
W0NIM11jMVtjSF1jKFtDSDNdKW4objEpW0NIMl1DKD1PKVtOSF1bQ0gyXVtDSDJdTjJbQ0gyXVtDQEBIXShbQ0gzXSlbQ0gyXVtDQEBIXShbQ0gzXSlbQ0gyXTI=

> <s_epik_cmdline>
J2VwaWtfcHl0aG9uJywgJy1waCcsICc3LjAnLCAnLXRuJywgJzgnLCAnLW1hJywgJzIwMCcsICctbWV0YWxfYmluZGluZycsICctaW1hZScsICc8aW5maWxlLm1hZT4nLCAnLW9tYWUnLCAnPG91dGZpbGUubWFlPic=

> <r_lp_tautomer_probability>
1

> <r_epik_Ionization_Penalty>
0.00206431

> <r_epik_Ionization_Penalty_Charging>
0.00187095

> <r_epik_Ionization_Penalty_Neutral>
0.000193364

> <r_epik_State_Penalty>
-0

> <r_epik_Charging_Adjusted_Penalty>
0.00187095

> <i_epik_Tot_Q>
1

> <i_epik_Tot_abs_Q>
1

> <r_epik_Metal_State_Penalty>
-0

> <b_epik_Metal_Only>
0

> <s_lp_Force_Field>
OPLS_2005

> <r_lp_Energy>
16.4698

> <b_lp_Chiralities_Consistent>
1

> <s_lp_Variant>
AV-unprocessed.smi:1475-2

> <Gold.Version>
5.8.1

> <Gold.Id.Protein>
6NUR|6NUR_protein|mol2

> <Gold.PLP.Fitness>
43.3778

> <Gold.PLP.PLP>
-37.0985

> <Gold.PLP.part.hbond>
-3.0000

> <Gold.PLP.part.metal>
0.0000

> <Gold.PLP.part.buried>
2.0815

> <Gold.PLP.part.nonpolar>
-35.9032

> <Gold.PLP.part.repulsive>
0.3558

> <Gold.PLP.ligand.clash>
0.0000

> <Gold.PLP.ligand.torsion>
0.8756

> <Gold.PLP.Chemscore.Hbond>
2.6650

> <Gold.PLP.Chemscore.CHOScore>
0.0000

> <Gold.PLP.Chemscore.Metal>
0.0000

> <Gold.Chemscore.Hbonds>
donor molecule, donor type, donor heavy atom, donor atom, acceptor molecule, acceptor atom, score
      L1  H    13    50       P1  7948  2.00
      P1  H  7989  7998       L1    21  0.86

> <Gold.PLP.Chemscore.Internal.Correction>
0.0355

> <Gold.Rescore>
     Score         DG    S(hbond)    S(metal)    S(lipo)     H(rot)  DE(clash)    DE(int)     intcor
     10.00     -13.99       0.91        0.00      82.50       1.64       0.16       3.83       ----

> <Gold.Chemscore.Fitness>
9.9992

> <Gold.Chemscore.DG>
-13.9875

> <Gold.Chemscore.ZeroCoef>
-5.4800

> <Gold.Chemscore.Hbond>
0.9140

> <Gold.Chemscore.Metal>
0.0000

> <Gold.Chemscore.Lipo>
82.5034

> <Gold.Chemscore.Internal_Hbond>
0.0000

> <Gold.Chemscore.DEClash>
0.1582

> <Gold.Chemscore.DEInternal>
3.8301

> <Gold.Chemscore.Rot>
1.6399

> <Gold.Chemscore.Internal.Correction>
   9.000000E+99

> <Gold.Chemscore.Hbonds>
donor molecule, donor type, donor heavy atom, donor atom, acceptor molecule, acceptor atom, score
      L1  H    13    50       P1  7948  1.00
      P1  H  7989  7998       L1    21  0.04

> <Gold.Chemscore.Hbond.Weighted>
-3.0528

> <Gold.Chemscore.Metal.Weighted>
-0.0000

> <Gold.Chemscore.Lipo.Weighted>
-9.6529

> <Gold.Chemscore.Internal_Hbond.Weighted>
0.0000

> <Gold.Chemscore.DEClash.Weighted>
0.1582

> <Gold.Chemscore.DEInternal.Weighted>
3.8301

> <Gold.Chemscore.Rot.Weighted>
4.1982

> <Gold.Chemscore.Internal.Correction.Weighted>
   9.000000E+99

> <Gold.Protein.RotatedTorsions>
[ 6907 6896 6895 6894 ] final  -52.28 input  -60.11 | X-H torsion
[ 7974 7965 7964 7962 ] final  -58.61 input  175.53 | X-H torsion
[ 8008 7997 7996 7995 ] final  -40.81 input   59.86 | X-H torsion
[ 10167 10162 10161 10158 ] final -144.86 input  -65.29 | X-H torsion
[ 10718 10713 10712 10709 ] final  109.55 input   66.30 | X-H torsion
[ 10763 10752 10751 10750 ] final  -56.56 input  -60.55 | X-H torsion
[ 11005 11000 10999 10996 ] final -108.11 input  -57.11 | X-H torsion

> <Gold.Protein.ActiveResidues>
 VAL166  LYS551  ARG553  GLY616  TRP617  ASP618  TYR619  PRO620  LYS621  CYS622 
 ASP623  PHE694  ASN695  SER759  ASP760  ASP761  ALA762  ILE779  LEU786  VAL792 
 PHE793  MET794  SER795  GLU796  ALA797  LYS798  CYS799  TRP800  GLU811  SER814 

> <Gold.Protein.RotatedAtoms>
  150.8532  134.7863  159.7025 H   0  0  0  0  0  0  0  0  0  0  0  0  # atno 6907 bound_to 6896
  152.4591  134.5221  159.9795 H   0  0  0  0  0  0  0  0  0  0  0  0  # atno 6908 bound_to 6896
  151.5338  133.3406  159.2958 H   0  0  0  0  0  0  0  0  0  0  0  0  # atno 6909 bound_to 6896
  145.8373  140.8440  143.0052 H   0  0  0  0  0  0  0  0  0  0  0  0  # atno 7974 bound_to 7965
  154.4009  140.1516  156.3088 H   0  0  0  0  0  0  0  0  0  0  0  0  # atno 8008 bound_to 7997
  155.8634  140.3452  155.5750 H   0  0  0  0  0  0  0  0  0  0  0  0  # atno 8009 bound_to 7997
  155.7854  140.0849  157.2027 H   0  0  0  0  0  0  0  0  0  0  0  0  # atno 8010 bound_to 7997
  139.7859  143.8034  152.2644 H   0  0  0  0  0  0  0  0  0  0  0  0  # atno 10167 bound_to 10162
  157.6536  131.0916  150.6470 H   0  0  0  0  0  0  0  0  0  0  0  0  # atno 10718 bound_to 10713
  154.2086  135.6398  153.5108 H   0  0  0  0  0  0  0  0  0  0  0  0  # atno 10763 bound_to 10752
  152.9995  135.5468  154.6239 H   0  0  0  0  0  0  0  0  0  0  0  0  # atno 10764 bound_to 10752
  154.5670  135.2913  155.0837 H   0  0  0  0  0  0  0  0  0  0  0  0  # atno 10765 bound_to 10752
  141.0919  133.9040  157.2056 H   0  0  0  0  0  0  0  0  0  0  0  0  # atno 11005 bound_to 11000
  144.6735  140.0760  143.7471 LP  0  0  0  0  0  0  0  0  0  0  0  0  # atno 17320 bound_to 7965
  145.9504  139.2730  143.1215 LP  0  0  0  0  0  0  0  0  0  0  0  0  # atno 17321 bound_to 7965
  139.8111  144.7335  150.9696 LP  0  0  0  0  0  0  0  0  0  0  0  0  # atno 17342 bound_to 10162
  140.7819  143.4250  151.0782 LP  0  0  0  0  0  0  0  0  0  0  0  0  # atno 17343 bound_to 10162
  156.6779  130.4558  149.5637 LP  0  0  0  0  0  0  0  0  0  0  0  0  # atno 17370 bound_to 10713
  156.1950  130.6584  151.1104 LP  0  0  0  0  0  0  0  0  0  0  0  0  # atno 17371 bound_to 10713
  139.9746  135.0118  156.9599 LP  0  0  0  0  0  0  0  0  0  0  0  0  # atno 17394 bound_to 11000
  140.5232  134.0886  155.7297 LP  0  0  0  0  0  0  0  0  0  0  0  0  # atno 17395 bound_to 11000

$$$$
