AV-unprocessed.smi:3197|AV-procd|sdf|12225|dock1
  -GOLD-   2272018 53D 1   1.00000     0.00000
 Structure written by MMmdl.
 33 34  0  0  0  0  0  0  0  0  1 V2000
  153.2545  143.4161  159.4075 C   0  0  0  0  0  0  0  0  0  0  0  0
  152.7352  144.4150  158.5600 C   0  0  0  0  0  0  0  0  0  0  0  0
  151.4112  144.5193  158.3116 N   0  0  0  0  0  0  0  0  0  0  0  0
  150.6102  143.6313  158.9060 C   0  0  0  0  0  0  0  0  0  0  0  0
  149.2630  143.7665  158.6290 N   0  0  0  0  0  0  0  0  0  0  0  0
  148.3142  142.6633  158.6263 C   0  0  0  0  0  0  0  0  0  0  0  0
  148.3409  141.8992  157.2985 C   0  0  0  0  0  0  0  0  0  0  0  0
  149.5838  141.2285  157.1710 O   0  0  0  0  0  0  0  0  0  0  0  0
  149.6670  140.4484  155.9899 C   0  0  0  0  0  0  0  0  0  0  0  0
  151.1447  140.2056  155.6515 C   0  0  2  0  0  0  0  0  0  0  0  0
  151.3747  139.0738  154.6711 C   0  0  0  0  0  0  0  0  0  0  0  0
  152.8492  138.7571  154.8998 C   0  0  0  0  0  0  0  0  0  0  0  0
  153.0946  139.0324  156.2758 O   0  0  0  0  0  0  0  0  0  0  0  0
  151.9945  139.7443  156.8363 C   0  0  0  0  0  0  0  0  0  0  0  0
  150.9928  142.6445  159.7258 N   0  0  0  0  0  0  0  0  0  0  0  0
  152.3152  142.5348  159.9789 C   0  0  0  0  0  0  0  0  0  0  0  0
  154.3122  143.3305  159.6079 H   0  0  0  0  0  0  0  0  0  0  0  0
  153.3837  145.1324  158.0796 H   0  0  0  0  0  0  0  0  0  0  0  0
  148.9146  144.6993  158.4627 H   0  0  0  0  0  0  0  0  0  0  0  0
  148.5747  141.9840  159.4388 H   0  0  0  0  0  0  0  0  0  0  0  0
  147.3103  143.0377  158.8294 H   0  0  0  0  0  0  0  0  0  0  0  0
  147.5094  141.1944  157.2445 H   0  0  0  0  0  0  0  0  0  0  0  0
  148.2258  142.6033  156.4733 H   0  0  0  0  0  0  0  0  0  0  0  0
  149.1455  139.4994  156.1260 H   0  0  0  0  0  0  0  0  0  0  0  0
  149.1810  140.9739  155.1664 H   0  0  0  0  0  0  0  0  0  0  0  0
  151.5782  141.1173  155.2369 H   0  0  0  0  0  0  0  0  0  0  0  0
  150.7622  138.2101  154.9346 H   0  0  0  0  0  0  0  0  0  0  0  0
  151.1549  139.3477  153.6387 H   0  0  0  0  0  0  0  0  0  0  0  0
  153.0987  137.7262  154.6478 H   0  0  0  0  0  0  0  0  0  0  0  0
  153.4768  139.4148  154.2974 H   0  0  0  0  0  0  0  0  0  0  0  0
  152.3329  140.5766  157.4538 H   0  0  0  0  0  0  0  0  0  0  0  0
  151.4331  139.0593  157.4732 H   0  0  0  0  0  0  0  0  0  0  0  0
  152.6254  141.7399  160.6407 H   0  0  0  0  0  0  0  0  0  0  0  0
  1 16  1  0  0  0  0
  1  2  2  0  0  0  0
  1 17  1  0  0  0  0
  2  3  1  0  0  0  0
  2 18  1  0  0  0  0
  3  4  2  0  0  0  0
  4  5  1  0  0  0  0
  4 15  1  0  0  0  0
  5  6  1  0  0  0  0
  5 19  1  0  0  0  0
  6  7  1  0  0  0  0
  6 20  1  0  0  0  0
  6 21  1  0  0  0  0
  7  8  1  0  0  0  0
  7 22  1  0  0  0  0
  7 23  1  0  0  0  0
  8  9  1  0  0  0  0
  9 10  1  0  0  0  0
  9 24  1  0  0  0  0
  9 25  1  0  0  0  0
 10 14  1  0  0  0  0
 10 11  1  0  0  0  0
 10 26  1  0  0  0  0
 11 12  1  0  0  0  0
 11 27  1  0  0  0  0
 11 28  1  0  0  0  0
 12 13  1  0  0  0  0
 12 29  1  0  0  0  0
 12 30  1  0  0  0  0
 13 14  1  0  0  0  0
 14 31  1  0  0  0  0
 14 32  1  0  0  0  0
 15 16  2  0  0  0  0
 16 33  1  0  0  0  0
M  END
> <s_m_source_file>
AV-unprocessed.smi

> <i_m_source_file_index>
3197

> <i_lp_mmshare_version>
43012

> <i_f3d_flags>
0

> <s_epik_input>
bjFbY0hdW2NIXVtjSF1uYzFbTkhdW0NIMl1bQ0gyXU9bQ0gyXVtDQEBIXTJbQ0gyXVtDSDJdT1tDSDJdMg==

> <s_epik_cmdline>
J2VwaWtfcHl0aG9uJywgJy1waCcsICc3LjAnLCAnLXRuJywgJzgnLCAnLW1hJywgJzIwMCcsICctbWV0YWxfYmluZGluZycsICctaW1hZScsICc8aW5maWxlLm1hZT4nLCAnLW9tYWUnLCAnPG91dGZpbGUubWFlPic=

> <r_lp_tautomer_probability>
1

> <r_epik_Ionization_Penalty>
0.000570263

> <r_epik_Ionization_Penalty_Charging>
0

> <r_epik_Ionization_Penalty_Neutral>
0.000570263

> <r_epik_State_Penalty>
0.000357543

> <r_epik_Charging_Adjusted_Penalty>
0.000357543

> <i_epik_Tot_Q>
0

> <i_epik_Tot_abs_Q>
0

> <r_epik_Metal_State_Penalty>
-0

> <b_epik_Metal_Only>
0

> <s_lp_Force_Field>
OPLS_2005

> <r_lp_Energy>
12.4723

> <b_lp_Chiralities_Consistent>
1

> <s_lp_Variant>
AV-unprocessed.smi:3197-1

> <Gold.Version>
5.8.1

> <Gold.Id.Protein>
6NUR|6NUR_protein|mol2

> <Gold.PLP.Fitness>
38.9244

> <Gold.PLP.PLP>
-33.9653

> <Gold.PLP.part.hbond>
-3.7621

> <Gold.PLP.part.metal>
0.0000

> <Gold.PLP.part.buried>
-3.5200

> <Gold.PLP.part.nonpolar>
-27.0496

> <Gold.PLP.part.repulsive>
0.2711

> <Gold.PLP.ligand.clash>
0.0000

> <Gold.PLP.ligand.torsion>
0.5663

> <Gold.PLP.Chemscore.Hbond>
2.0000

> <Gold.PLP.Chemscore.CHOScore>
0.0000

> <Gold.PLP.Chemscore.Metal>
0.0000

> <Gold.Chemscore.Hbonds>
donor molecule, donor type, donor heavy atom, donor atom, acceptor molecule, acceptor atom, score
      L1  H     5    19       P1  8029  0.96
      P1  H  7997  8008       L1    13  1.00

> <Gold.PLP.Chemscore.Internal.Correction>
0.0916

> <Gold.Rescore>
     Score         DG    S(hbond)    S(metal)    S(lipo)     H(rot)  DE(clash)    DE(int)     intcor
     14.90     -15.58       1.73        0.00      78.06       1.88       0.01       0.68       ----

> <Gold.Chemscore.Fitness>
14.8953

> <Gold.Chemscore.DG>
-15.5846

> <Gold.Chemscore.ZeroCoef>
-5.4800

> <Gold.Chemscore.Hbond>
1.7305

> <Gold.Chemscore.Metal>
0.0000

> <Gold.Chemscore.Lipo>
78.0636

> <Gold.Chemscore.Internal_Hbond>
0.0000

> <Gold.Chemscore.DEClash>
0.0097

> <Gold.Chemscore.DEInternal>
0.6796

> <Gold.Chemscore.Rot>
1.8784

> <Gold.Chemscore.Internal.Correction>
   9.000000E+99

> <Gold.Chemscore.Hbonds>
donor molecule, donor type, donor heavy atom, donor atom, acceptor molecule, acceptor atom, score
      L1  H     5    19       P1  8029  0.66
      P1  H  7997  8008       L1    13  0.31

> <Gold.Chemscore.Hbond.Weighted>
-5.7799

> <Gold.Chemscore.Metal.Weighted>
-0.0000

> <Gold.Chemscore.Lipo.Weighted>
-9.1334

> <Gold.Chemscore.Internal_Hbond.Weighted>
0.0000

> <Gold.Chemscore.DEClash.Weighted>
0.0097

> <Gold.Chemscore.DEInternal.Weighted>
0.6796

> <Gold.Chemscore.Rot.Weighted>
4.8087

> <Gold.Chemscore.Internal.Correction.Weighted>
   9.000000E+99

> <Gold.Protein.RotatedTorsions>
[ 6907 6896 6895 6894 ] final   30.80 input  -60.11 | X-H torsion
[ 7974 7965 7964 7962 ] final   -2.93 input  175.53 | X-H torsion
[ 8008 7997 7996 7995 ] final  -50.70 input   59.86 | X-H torsion
[ 10167 10162 10161 10158 ] final  165.39 input  -65.29 | X-H torsion
[ 10718 10713 10712 10709 ] final -131.99 input   66.30 | X-H torsion
[ 10763 10752 10751 10750 ] final   -7.70 input  -60.55 | X-H torsion
[ 11005 11000 10999 10996 ] final  -93.81 input  -57.11 | X-H torsion

> <Gold.Protein.ActiveResidues>
 VAL166  LYS551  ARG553  GLY616  TRP617  ASP618  TYR619  PRO620  LYS621  CYS622 
 ASP623  PHE694  ASN695  SER759  ASP760  ASP761  ALA762  ILE779  LEU786  VAL792 
 PHE793  MET794  SER795  GLU796  ALA797  LYS798  CYS799  TRP800  GLU811  SER814 

> <Gold.Protein.RotatedAtoms>
  152.0511  134.9653  160.0574 H   0  0  0  0  0  0  0  0  0  0  0  0  # atno 6907 bound_to 6896
  152.1053  133.4267  159.4614 H   0  0  0  0  0  0  0  0  0  0  0  0  # atno 6908 bound_to 6896
  150.6841  134.2631  159.4601 H   0  0  0  0  0  0  0  0  0  0  0  0  # atno 6909 bound_to 6896
  146.2397  140.1645  142.8332 H   0  0  0  0  0  0  0  0  0  0  0  0  # atno 7974 bound_to 7965
  154.4067  140.1266  156.4709 H   0  0  0  0  0  0  0  0  0  0  0  0  # atno 8008 bound_to 7997
  155.7180  140.3493  155.4983 H   0  0  0  0  0  0  0  0  0  0  0  0  # atno 8009 bound_to 7997
  155.9240  140.1057  157.1175 H   0  0  0  0  0  0  0  0  0  0  0  0  # atno 8010 bound_to 7997
  139.4905  144.4137  151.9269 H   0  0  0  0  0  0  0  0  0  0  0  0  # atno 10167 bound_to 10162
  156.2301  130.7032  151.0849 H   0  0  0  0  0  0  0  0  0  0  0  0  # atno 10718 bound_to 10713
  153.4300  135.7012  153.6237 H   0  0  0  0  0  0  0  0  0  0  0  0  # atno 10763 bound_to 10752
  153.4656  135.3726  155.2363 H   0  0  0  0  0  0  0  0  0  0  0  0  # atno 10764 bound_to 10752
  154.8725  135.4030  154.3682 H   0  0  0  0  0  0  0  0  0  0  0  0  # atno 10765 bound_to 10752
  141.1487  133.7913  157.0211 H   0  0  0  0  0  0  0  0  0  0  0  0  # atno 11005 bound_to 11000
  145.0062  140.8675  143.5252 LP  0  0  0  0  0  0  0  0  0  0  0  0  # atno 17320 bound_to 7965
  145.1672  139.2425  143.5361 LP  0  0  0  0  0  0  0  0  0  0  0  0  # atno 17321 bound_to 7965
  140.3579  144.3009  150.5938 LP  0  0  0  0  0  0  0  0  0  0  0  0  # atno 17342 bound_to 10162
  140.5429  143.2220  151.8056 LP  0  0  0  0  0  0  0  0  0  0  0  0  # atno 17343 bound_to 10162
  157.7129  131.0725  150.6436 LP  0  0  0  0  0  0  0  0  0  0  0  0  # atno 17370 bound_to 10713
  156.6503  130.4483  149.5722 LP  0  0  0  0  0  0  0  0  0  0  0  0  # atno 17371 bound_to 10713
  140.0815  134.9645  157.1631 LP  0  0  0  0  0  0  0  0  0  0  0  0  # atno 17394 bound_to 11000
  140.3570  134.2535  155.7191 LP  0  0  0  0  0  0  0  0  0  0  0  0  # atno 17395 bound_to 11000

$$$$
