AV-unprocessed.smi:48|AV-procd|sdf|449|dock9
  -GOLD-   2262016313D 1   1.00000     0.00000
 Structure written by MMmdl.
 30 32  0  0  0  0  0  0  0  0  1 V2000
  146.0251  141.1275  154.7019 O   0  0  0  0  0  0  0  0  0  0  0  0
  146.8561  142.1922  155.1122 C   0  0  0  0  0  0  0  0  0  0  0  0
  148.2651  141.6663  155.4235 C   0  0  1  0  0  0  0  0  0  0  0  0
  148.2460  140.9262  156.6395 O   0  0  0  0  0  0  0  0  0  0  0  0
  149.3489  140.0707  156.6895 C   0  0  2  0  0  0  0  0  0  0  0  0
  150.3779  140.6781  157.5958 N   0  0  0  0  0  0  0  0  0  0  0  0
  150.3540  141.8591  158.2509 C   0  0  0  0  0  0  0  0  0  0  0  0
  151.4096  142.1619  159.0067 N   0  0  0  0  0  0  0  0  0  0  0  0
  152.2108  141.0473  158.8224 C   0  0  0  0  0  0  0  0  0  0  0  0
  153.4852  140.6844  159.3216 C   0  0  0  0  0  0  0  0  0  0  0  0
  154.3525  141.7271  160.3886 Cl  0  0  0  0  0  0  0  0  0  0  0  0
  154.0116  139.4954  158.9410 N   0  0  0  0  0  0  0  0  0  0  0  0
  153.3177  138.7056  158.1116 C   0  0  0  0  0  0  0  0  0  0  0  0
  152.1147  138.9123  157.5626 N   0  0  0  0  0  0  0  0  0  0  0  0
  151.5879  140.1110  157.9504 C   0  0  0  0  0  0  0  0  0  0  0  0
  149.8575  139.8999  155.2373 C   0  0  2  0  0  0  0  0  0  0  0  0
  151.1401  140.4639  155.0053 O   0  0  0  0  0  0  0  0  0  0  0  0
  148.7603  140.6047  154.4417 C   0  0  2  0  0  0  0  0  0  0  0  0
  149.2096  141.1515  153.2157 O   0  0  0  0  0  0  0  0  0  0  0  0
  148.9891  142.4811  155.4859 H   0  0  0  0  0  0  0  0  0  0  0  0
  149.0759  139.1324  157.1737 H   0  0  0  0  0  0  0  0  0  0  0  0
  149.8993  138.8386  154.9902 H   0  0  0  0  0  0  0  0  0  0  0  0
  147.9563  139.8958  154.2381 H   0  0  0  0  0  0  0  0  0  0  0  0
  146.3329  140.8113  153.8662 H   0  0  0  0  0  0  0  0  0  0  0  0
  146.8814  142.9714  154.3500 H   0  0  0  0  0  0  0  0  0  0  0  0
  146.4115  142.6280  156.0072 H   0  0  0  0  0  0  0  0  0  0  0  0
  149.5167  142.5368  158.1741 H   0  0  0  0  0  0  0  0  0  0  0  0
  153.7951  137.7731  157.8488 H   0  0  0  0  0  0  0  0  0  0  0  0
  151.2531  141.2003  155.5866 H   0  0  0  0  0  0  0  0  0  0  0  0
  149.0863  140.5062  152.5367 H   0  0  0  0  0  0  0  0  0  0  0  0
  1  2  1  0  0  0  0
  1 24  1  0  0  0  0
  2  3  1  0  0  0  0
  2 25  1  0  0  0  0
  2 26  1  0  0  0  0
  3 20  1  0  0  0  0
  3 18  1  0  0  0  0
  3  4  1  0  0  0  0
  4  5  1  0  0  0  0
  5 21  1  0  0  0  0
  5  6  1  0  0  0  0
  5 16  1  0  0  0  0
  6 15  1  0  0  0  0
  6  7  1  0  0  0  0
  7  8  2  0  0  0  0
  7 27  1  0  0  0  0
  8  9  1  0  0  0  0
  9 15  2  0  0  0  0
  9 10  1  0  0  0  0
 10 11  1  0  0  0  0
 10 12  2  0  0  0  0
 12 13  1  0  0  0  0
 13 14  2  0  0  0  0
 13 28  1  0  0  0  0
 14 15  1  0  0  0  0
 16 22  1  0  0  0  0
 16 17  1  0  0  0  0
 16 18  1  0  0  0  0
 17 29  1  0  0  0  0
 18 23  1  0  0  0  0
 18 19  1  0  0  0  0
 19 30  1  0  0  0  0
M  END
> <s_m_source_file>
AV-unprocessed.smi

> <i_m_source_file_index>
48

> <i_lp_mmshare_version>
43012

> <i_f3d_flags>
0

> <s_epik_input>
W09IXVtDSDJdW0NASF0xT1tDQEhdKFtDQEhdKFtPSF0pW0NAQEhdMVtPSF0pbihbY0hdbjIpYyhjMjMpbltjSF1uYzNDbA==

> <s_epik_cmdline>
J2VwaWtfcHl0aG9uJywgJy1waCcsICc3LjAnLCAnLXRuJywgJzgnLCAnLW1hJywgJzIwMCcsICctbWV0YWxfYmluZGluZycsICctaW1hZScsICc8aW5maWxlLm1hZT4nLCAnLW9tYWUnLCAnPG91dGZpbGUubWFlPic=

> <r_lp_tautomer_probability>
1

> <r_epik_Ionization_Penalty>
3.45505e-06

> <r_epik_Ionization_Penalty_Charging>
0

> <r_epik_Ionization_Penalty_Neutral>
3.45505e-06

> <r_epik_State_Penalty>
-0

> <r_epik_Charging_Adjusted_Penalty>
0

> <i_epik_Tot_Q>
0

> <i_epik_Tot_abs_Q>
0

> <r_epik_Metal_State_Penalty>
-0

> <b_epik_Metal_Only>
0

> <s_epik_Chemistry_Notes>
This compound contains an acetal/aminal-like group ( X-CH(R)-Y where X, Y are N, S, or O) that may be acid/base labile, releasing an aldehyde.

> <s_lp_Force_Field>
OPLS_2005

> <r_lp_Energy>
41.4935

> <b_lp_Chiralities_Consistent>
1

> <s_lp_Variant>
AV-unprocessed.smi:48-3

> <Gold.Version>
5.8.1

> <Gold.Id.Protein>
6NUR|6NUR_protein|mol2

> <Gold.PLP.Fitness>
37.4582

> <Gold.PLP.PLP>
-28.0456

> <Gold.PLP.part.hbond>
-4.6402

> <Gold.PLP.part.metal>
0.0000

> <Gold.PLP.part.buried>
-2.8878

> <Gold.PLP.part.nonpolar>
-19.4506

> <Gold.PLP.part.repulsive>
0.0608

> <Gold.PLP.ligand.clash>
0.0066

> <Gold.PLP.ligand.torsion>
0.1569

> <Gold.PLP.Chemscore.Hbond>
3.2220

> <Gold.PLP.Chemscore.CHOScore>
0.0000

> <Gold.PLP.Chemscore.Metal>
0.0000

> <Gold.Chemscore.Hbonds>
donor molecule, donor type, donor heavy atom, donor atom, acceptor molecule, acceptor atom, score
      L1  H    19    30       P1  7957  0.86
      P1  H  7989  7998       L1    17  1.00
      P1  H  7997  8009       L1    12  0.30
      P1  H  8011  8017       L1    19  1.00

> <Gold.PLP.Chemscore.Internal.Correction>
0.0670

> <Gold.Rescore>
     Score         DG    S(hbond)    S(metal)    S(lipo)     H(rot)  DE(clash)    DE(int)     intcor
      8.19      -8.57       2.03        0.00      51.65       3.80       0.05       0.33       ----

> <Gold.Chemscore.Fitness>
8.1922

> <Gold.Chemscore.DG>
-8.5710

> <Gold.Chemscore.ZeroCoef>
-5.4800

> <Gold.Chemscore.Hbond>
2.0300

> <Gold.Chemscore.Metal>
0.0000

> <Gold.Chemscore.Lipo>
51.6528

> <Gold.Chemscore.Internal_Hbond>
0.0000

> <Gold.Chemscore.DEClash>
0.0501

> <Gold.Chemscore.DEInternal>
0.3287

> <Gold.Chemscore.Rot>
3.8017

> <Gold.Chemscore.Internal.Correction>
   9.000000E+99

> <Gold.Chemscore.Hbonds>
donor molecule, donor type, donor heavy atom, donor atom, acceptor molecule, acceptor atom, score
      L1  H    19    30       P1  7957  0.80
      P1  H  7989  7998       L1    17  0.66
      P1  H  8011  8017       L1    19  0.25

> <Gold.Chemscore.Hbond.Weighted>
-6.7801

> <Gold.Chemscore.Metal.Weighted>
-0.0000

> <Gold.Chemscore.Lipo.Weighted>
-6.0434

> <Gold.Chemscore.Internal_Hbond.Weighted>
0.0000

> <Gold.Chemscore.DEClash.Weighted>
0.0501

> <Gold.Chemscore.DEInternal.Weighted>
0.3287

> <Gold.Chemscore.Rot.Weighted>
9.7324

> <Gold.Chemscore.Internal.Correction.Weighted>
   9.000000E+99

> <Gold.Protein.RotatedTorsions>
[ 6907 6896 6895 6894 ] final  131.57 input  -60.11 | X-H torsion
[ 7974 7965 7964 7962 ] final  156.22 input  175.53 | X-H torsion
[ 8008 7997 7996 7995 ] final  120.65 input   59.86 | X-H torsion
[ 10167 10162 10161 10158 ] final -166.74 input  -65.29 | X-H torsion
[ 10718 10713 10712 10709 ] final  171.06 input   66.30 | X-H torsion
[ 10763 10752 10751 10750 ] final  -52.96 input  -60.55 | X-H torsion
[ 11005 11000 10999 10996 ] final -117.51 input  -57.11 | X-H torsion

> <Gold.Protein.ActiveResidues>
 VAL166  LYS551  ARG553  GLY616  TRP617  ASP618  TYR619  PRO620  LYS621  CYS622 
 ASP623  PHE694  ASN695  SER759  ASP760  ASP761  ALA762  ILE779  LEU786  VAL792 
 PHE793  MET794  SER795  GLU796  ALA797  LYS798  CYS799  TRP800  GLU811  SER814 

> <Gold.Protein.RotatedAtoms>
  152.3412  133.6069  159.5877 H   0  0  0  0  0  0  0  0  0  0  0  0  # atno 6907 bound_to 6896
  150.7480  133.9719  159.3557 H   0  0  0  0  0  0  0  0  0  0  0  0  # atno 6908 bound_to 6896
  151.7583  135.0817  160.0392 H   0  0  0  0  0  0  0  0  0  0  0  0  # atno 6909 bound_to 6896
  144.7976  139.7174  143.6195 H   0  0  0  0  0  0  0  0  0  0  0  0  # atno 7974 bound_to 7965
  156.2652  140.2826  156.1183 H   0  0  0  0  0  0  0  0  0  0  0  0  # atno 8008 bound_to 7997
  155.1183  140.0392  157.2760 H   0  0  0  0  0  0  0  0  0  0  0  0  # atno 8009 bound_to 7997
  154.6690  140.2583  155.7034 H   0  0  0  0  0  0  0  0  0  0  0  0  # atno 8010 bound_to 7997
  139.6095  144.0844  152.1827 H   0  0  0  0  0  0  0  0  0  0  0  0  # atno 10167 bound_to 10162
  156.9991  131.0170  151.2836 H   0  0  0  0  0  0  0  0  0  0  0  0  # atno 10718 bound_to 10713
  154.1512  135.6490  153.4964 H   0  0  0  0  0  0  0  0  0  0  0  0  # atno 10763 bound_to 10752
  153.0137  135.5338  154.6806 H   0  0  0  0  0  0  0  0  0  0  0  0  # atno 10764 bound_to 10752
  154.6094  135.2952  155.0420 H   0  0  0  0  0  0  0  0  0  0  0  0  # atno 10765 bound_to 10752
  141.0349  133.9924  157.3086 H   0  0  0  0  0  0  0  0  0  0  0  0  # atno 11005 bound_to 11000
  146.2249  139.5704  142.9594 LP  0  0  0  0  0  0  0  0  0  0  0  0  # atno 17320 bound_to 7965
  145.5633  141.0402  143.2214 LP  0  0  0  0  0  0  0  0  0  0  0  0  # atno 17321 bound_to 7965
  140.0460  144.5970  150.7374 LP  0  0  0  0  0  0  0  0  0  0  0  0  # atno 17342 bound_to 10162
  140.7309  143.2688  151.3956 LP  0  0  0  0  0  0  0  0  0  0  0  0  # atno 17343 bound_to 10162
  157.5403  130.8116  149.8021 LP  0  0  0  0  0  0  0  0  0  0  0  0  # atno 17370 bound_to 10713
  156.0178  130.3807  150.2056 LP  0  0  0  0  0  0  0  0  0  0  0  0  # atno 17371 bound_to 10713
  139.9234  135.0201  156.8146 LP  0  0  0  0  0  0  0  0  0  0  0  0  # atno 17394 bound_to 11000
  140.6340  133.9880  155.7675 LP  0  0  0  0  0  0  0  0  0  0  0  0  # atno 17395 bound_to 11000

$$$$
