AV-unprocessed.smi:3202|AV-procd|sdf|12247|dock1
  -GOLD-   2272018 83D 1   1.00000     0.00000
 Structure written by MMmdl.
 43 44  0  0  0  0  0  0  0  0  2 V2000
  143.5987  133.9883  151.5217 C   0  0  0  0  0  0  0  0  0  0  0  0
  144.6511  134.9340  152.0210 C   0  0  0  0  0  0  0  0  0  0  0  0
  144.4748  136.1266  152.7823 C   0  0  0  0  0  0  0  0  0  0  0  0
  145.7431  136.6013  152.9654 C   0  0  0  0  0  0  0  0  0  0  0  0
  146.2457  137.8186  153.6724 C   0  0  0  0  0  0  0  0  0  0  0  0
  146.8865  138.8670  152.7418 C   0  0  2  0  0  0  0  0  0  0  0  0
  146.5535  138.6325  151.2596 C   0  0  0  0  0  0  0  0  0  0  0  0
  148.3558  138.8654  152.9216 N   0  3  0  0  0  0  0  0  0  0  0  0
  148.8302  139.0871  154.3071 C   0  0  1  0  0  0  0  0  0  0  0  0
  150.3585  139.1693  154.4262 C   0  0  0  0  0  0  0  0  0  0  0  0
  150.6247  140.0071  155.6839 C   0  0  0  0  0  0  0  0  0  0  0  0
  149.2622  140.5557  156.1346 C   0  0  0  0  0  0  0  0  0  0  0  0
  148.3102  140.3977  154.9351 C   0  0  0  0  0  0  0  0  0  0  0  0
  148.4509  141.6144  153.9908 C   0  0  0  0  0  0  0  0  0  0  0  0
  146.8463  140.2709  155.3963 C   0  0  0  0  0  0  0  0  0  0  0  0
  146.5811  135.7095  152.3348 N   0  0  0  0  0  0  0  0  0  0  0  0
  145.9249  134.6893  151.7528 N   0  0  0  0  0  0  0  0  0  0  0  0
  147.5879  135.7826  152.2920 H   0  0  0  0  0  0  0  0  0  0  0  0
  142.6210  134.2317  151.9380 H   0  0  0  0  0  0  0  0  0  0  0  0
  143.8296  132.9594  151.7989 H   0  0  0  0  0  0  0  0  0  0  0  0
  143.5171  134.0317  150.4354 H   0  0  0  0  0  0  0  0  0  0  0  0
  143.5545  136.5659  153.1381 H   0  0  0  0  0  0  0  0  0  0  0  0
  146.9647  137.5216  154.4374 H   0  0  0  0  0  0  0  0  0  0  0  0
  145.4138  138.2739  154.2110 H   0  0  0  0  0  0  0  0  0  0  0  0
  146.4913  139.8470  153.0137 H   0  0  0  0  0  0  0  0  0  0  0  0
  145.4815  138.7034  151.0739 H   0  0  0  0  0  0  0  0  0  0  0  0
  146.8849  137.6480  150.9277 H   0  0  0  0  0  0  0  0  0  0  0  0
  147.0387  139.3772  150.6279 H   0  0  0  0  0  0  0  0  0  0  0  0
  148.7253  137.9859  152.5901 H   0  0  0  0  0  0  0  0  0  0  0  0
  148.4844  138.2538  154.9225 H   0  0  0  0  0  0  0  0  0  0  0  0
  150.8180  138.1823  154.4876 H   0  0  0  0  0  0  0  0  0  0  0  0
  150.7848  139.6731  153.5576 H   0  0  0  0  0  0  0  0  0  0  0  0
  151.0820  139.4099  156.4735 H   0  0  0  0  0  0  0  0  0  0  0  0
  151.3115  140.8221  155.4526 H   0  0  0  0  0  0  0  0  0  0  0  0
  148.9068  139.9532  156.9720 H   0  0  0  0  0  0  0  0  0  0  0  0
  149.3276  141.5840  156.4927 H   0  0  0  0  0  0  0  0  0  0  0  0
  148.1755  142.5382  154.5007 H   0  0  0  0  0  0  0  0  0  0  0  0
  147.8013  141.5258  153.1196 H   0  0  0  0  0  0  0  0  0  0  0  0
  149.4716  141.7389  153.6293 H   0  0  0  0  0  0  0  0  0  0  0  0
  146.5177  141.1721  155.9154 H   0  0  0  0  0  0  0  0  0  0  0  0
  146.7099  139.4320  156.0795 H   0  0  0  0  0  0  0  0  0  0  0  0
  146.1770  140.1163  154.5492 H   0  0  0  0  0  0  0  0  0  0  0  0
  148.7350  139.6046  152.3472 H   0  0  0  0  0  0  0  0  0  0  0  0
  1 19  1  0  0  0  0
  1 20  1  0  0  0  0
  1 21  1  0  0  0  0
  1  2  1  0  0  0  0
  2 17  2  0  0  0  0
  2  3  1  0  0  0  0
  3  4  2  0  0  0  0
  3 22  1  0  0  0  0
  4 16  1  0  0  0  0
  4  5  1  0  0  0  0
  5  6  1  0  0  0  0
  5 23  1  0  0  0  0
  5 24  1  0  0  0  0
  6  7  1  0  0  0  0
  6  8  1  0  0  0  0
  6 25  1  0  0  0  0
  7 26  1  0  0  0  0
  7 27  1  0  0  0  0
  7 28  1  0  0  0  0
  8  9  1  0  0  0  0
  8 29  1  0  0  0  0
  8 43  1  0  0  0  0
  9 13  1  0  0  0  0
  9 10  1  0  0  0  0
  9 30  1  0  0  0  0
 10 11  1  0  0  0  0
 10 31  1  0  0  0  0
 10 32  1  0  0  0  0
 11 12  1  0  0  0  0
 11 33  1  0  0  0  0
 11 34  1  0  0  0  0
 12 13  1  0  0  0  0
 12 35  1  0  0  0  0
 12 36  1  0  0  0  0
 13 14  1  0  0  0  0
 13 15  1  0  0  0  0
 14 37  1  0  0  0  0
 14 38  1  0  0  0  0
 14 39  1  0  0  0  0
 15 40  1  0  0  0  0
 15 41  1  0  0  0  0
 15 42  1  0  0  0  0
 16 17  1  0  0  0  0
 16 18  1  0  0  0  0
M  CHG  1   8   1
M  END
> <s_m_source_file>
AV-unprocessed.smi

> <i_m_source_file_index>
3202

> <i_lp_mmshare_version>
43012

> <i_f3d_flags>
0

> <s_epik_input>
W0NIM11jMVtjSF1jKG5bbkhdMSlbQ0gyXVtDQEhdKFtDSDNdKVtOSF1bQ0BASF0oQzIoW0NIM10pW0NIM10pW0NIMl1bQ0gyXVtDSDJdMg==

> <s_epik_cmdline>
J2VwaWtfcHl0aG9uJywgJy1waCcsICc3LjAnLCAnLXRuJywgJzgnLCAnLW1hJywgJzIwMCcsICctbWV0YWxfYmluZGluZycsICctaW1hZScsICc8aW5maWxlLm1hZT4nLCAnLW9tYWUnLCAnPG91dGZpbGUubWFlPic=

> <r_lp_tautomer_probability>
0.5

> <r_epik_Ionization_Penalty>
0.000449684

> <r_epik_Ionization_Penalty_Charging>
0.000404963

> <r_epik_Ionization_Penalty_Neutral>
4.47208e-05

> <r_epik_State_Penalty>
0.41068

> <r_epik_Charging_Adjusted_Penalty>
0.411085

> <i_epik_Tot_Q>
1

> <i_epik_Tot_abs_Q>
1

> <r_epik_Metal_State_Penalty>
0.410687

> <b_epik_Metal_Only>
0

> <s_lp_Force_Field>
OPLS_2005

> <r_lp_Energy>
32.0397

> <b_lp_Chiralities_Consistent>
1

> <s_lp_Variant>
AV-unprocessed.smi:3202-7

> <Gold.Version>
5.8.1

> <Gold.Id.Protein>
6NUR|6NUR_protein|mol2

> <Gold.PLP.Fitness>
38.2310

> <Gold.PLP.PLP>
-27.6216

> <Gold.PLP.part.hbond>
-2.7926

> <Gold.PLP.part.metal>
0.0000

> <Gold.PLP.part.buried>
-1.4959

> <Gold.PLP.part.nonpolar>
-24.6531

> <Gold.PLP.part.repulsive>
0.2228

> <Gold.PLP.ligand.clash>
0.0000

> <Gold.PLP.ligand.torsion>
0.7048

> <Gold.PLP.Chemscore.Hbond>
4.0000

> <Gold.PLP.Chemscore.CHOScore>
0.0000

> <Gold.PLP.Chemscore.Metal>
0.0000

> <Gold.Chemscore.Hbonds>
donor molecule, donor type, donor heavy atom, donor atom, acceptor molecule, acceptor atom, score
      L1  H     8    29       P1  7948  2.00
      L1  H     8    43       P1  7957  0.97
      L1  H    16    18       P1  7948  0.88

> <Gold.PLP.Chemscore.Internal.Correction>
0.0190

> <Gold.Rescore>
     Score         DG    S(hbond)    S(metal)    S(lipo)     H(rot)  DE(clash)    DE(int)     intcor
     18.26     -20.24       2.88        0.00      75.80       1.46       0.25       1.73       ----

> <Gold.Chemscore.Fitness>
18.2581

> <Gold.Chemscore.DG>
-20.2378

> <Gold.Chemscore.ZeroCoef>
-5.4800

> <Gold.Chemscore.Hbond>
2.8818

> <Gold.Chemscore.Metal>
0.0000

> <Gold.Chemscore.Lipo>
75.8040

> <Gold.Chemscore.Internal_Hbond>
0.0000

> <Gold.Chemscore.DEClash>
0.2493

> <Gold.Chemscore.DEInternal>
1.7304

> <Gold.Chemscore.Rot>
1.4596

> <Gold.Chemscore.Internal.Correction>
   9.000000E+99

> <Gold.Chemscore.Hbonds>
donor molecule, donor type, donor heavy atom, donor atom, acceptor molecule, acceptor atom, score
      L1  H     8    29       P1  7948  1.00
      L1  H     8    43       P1  7957  0.86
      L1  H    16    18       P1  7948  0.85

> <Gold.Chemscore.Hbond.Weighted>
-9.6252

> <Gold.Chemscore.Metal.Weighted>
-0.0000

> <Gold.Chemscore.Lipo.Weighted>
-8.8691

> <Gold.Chemscore.Internal_Hbond.Weighted>
0.0000

> <Gold.Chemscore.DEClash.Weighted>
0.2493

> <Gold.Chemscore.DEInternal.Weighted>
1.7304

> <Gold.Chemscore.Rot.Weighted>
3.7365

> <Gold.Chemscore.Internal.Correction.Weighted>
   9.000000E+99

> <Gold.Protein.RotatedTorsions>
[ 6907 6896 6895 6894 ] final  -88.53 input  -60.11 | X-H torsion
[ 7974 7965 7964 7962 ] final   88.20 input  175.53 | X-H torsion
[ 8008 7997 7996 7995 ] final  -20.82 input   59.86 | X-H torsion
[ 10167 10162 10161 10158 ] final -174.78 input  -65.29 | X-H torsion
[ 10718 10713 10712 10709 ] final  -20.32 input   66.30 | X-H torsion
[ 10763 10752 10751 10750 ] final -100.90 input  -60.55 | X-H torsion
[ 11005 11000 10999 10996 ] final   90.35 input  -57.11 | X-H torsion

> <Gold.Protein.ActiveResidues>
 VAL166  LYS551  ARG553  GLY616  TRP617  ASP618  TYR619  PRO620  LYS621  CYS622 
 ASP623  PHE694  ASN695  SER759  ASP760  ASP761  ALA762  ILE779  LEU786  VAL792 
 PHE793  MET794  SER795  GLU796  ALA797  LYS798  CYS799  TRP800  GLU811  SER814 

> <Gold.Protein.RotatedAtoms>
  150.6869  134.2728  159.4594 H   0  0  0  0  0  0  0  0  0  0  0  0  # atno 6907 bound_to 6896
  152.0649  134.9568  160.0584 H   0  0  0  0  0  0  0  0  0  0  0  0  # atno 6908 bound_to 6896
  152.0981  133.4200  159.4611 H   0  0  0  0  0  0  0  0  0  0  0  0  # atno 6909 bound_to 6896
  145.5489  139.2294  143.2524 H   0  0  0  0  0  0  0  0  0  0  0  0  # atno 7974 bound_to 7965
  154.4745  140.2051  155.9912 H   0  0  0  0  0  0  0  0  0  0  0  0  # atno 8008 bound_to 7997
  156.1066  140.3235  155.7985 H   0  0  0  0  0  0  0  0  0  0  0  0  # atno 8009 bound_to 7997
  155.4706  140.0531  157.2971 H   0  0  0  0  0  0  0  0  0  0  0  0  # atno 8010 bound_to 7997
  139.5615  144.1857  152.1247 H   0  0  0  0  0  0  0  0  0  0  0  0  # atno 10167 bound_to 10162
  156.5334  130.4660  149.6535 H   0  0  0  0  0  0  0  0  0  0  0  0  # atno 10718 bound_to 10713
  154.7615  135.4918  153.9474 H   0  0  0  0  0  0  0  0  0  0  0  0  # atno 10763 bound_to 10752
  153.1257  135.6742  153.9268 H   0  0  0  0  0  0  0  0  0  0  0  0  # atno 10764 bound_to 10752
  153.8987  135.3112  155.3427 H   0  0  0  0  0  0  0  0  0  0  0  0  # atno 10765 bound_to 10752
  139.8858  134.8608  156.3272 H   0  0  0  0  0  0  0  0  0  0  0  0  # atno 11005 bound_to 11000
  146.1930  140.6311  142.9137 LP  0  0  0  0  0  0  0  0  0  0  0  0  # atno 17320 bound_to 7965
  144.7539  140.5260  143.6782 LP  0  0  0  0  0  0  0  0  0  0  0  0  # atno 17321 bound_to 7965
  140.1372  144.5235  150.6766 LP  0  0  0  0  0  0  0  0  0  0  0  0  # atno 17342 bound_to 10162
  140.6896  143.2368  151.5168 LP  0  0  0  0  0  0  0  0  0  0  0  0  # atno 17343 bound_to 10162
  156.3038  130.7191  151.2069 LP  0  0  0  0  0  0  0  0  0  0  0  0  # atno 17370 bound_to 10713
  157.7418  131.0499  150.5072 LP  0  0  0  0  0  0  0  0  0  0  0  0  # atno 17371 bound_to 10713
  140.9747  133.7305  156.0585 LP  0  0  0  0  0  0  0  0  0  0  0  0  # atno 17394 bound_to 11000
  140.7826  134.3708  157.5484 LP  0  0  0  0  0  0  0  0  0  0  0  0  # atno 17395 bound_to 11000

$$$$
