AV-unprocessed.smi:37|AV-procd|sdf|313|dock3
  -GOLD-   2262016133D 1   1.00000     0.00000
 Structure written by MMmdl.
 44 45  0  0  0  0  0  0  0  0  1 V2000
  152.2030  145.1797  160.0188 C   0  0  0  0  0  0  0  0  0  0  0  0
  152.7000  143.8965  159.3368 C   0  0  0  0  0  0  0  0  0  0  0  0
  152.2660  142.6164  160.0537 C   0  0  0  0  0  0  0  0  0  0  0  0
  151.7855  142.6269  161.1883 O   0  0  0  0  0  0  0  0  0  0  0  0
  152.4792  141.5247  159.3015 O   0  0  0  0  0  0  0  0  0  0  0  0
  151.8212  140.3042  159.6086 C   0  0  0  0  0  0  0  0  0  0  0  0
  152.4389  139.1758  158.7690 C   0  0  2  0  0  0  0  0  0  0  0  0
  152.5259  139.5347  157.3898 O   0  0  0  0  0  0  0  0  0  0  0  0
  152.2627  138.4289  156.5724 C   0  0  2  0  0  0  0  0  0  0  0  0
  150.9729  138.6573  155.8068 N   0  0  0  0  0  0  0  0  0  0  0  0
  150.2065  139.8083  155.9571 C   0  0  0  0  0  0  0  0  0  0  0  0
  149.0393  140.0083  155.3010 C   0  0  0  0  0  0  0  0  0  0  0  0
  148.3496  141.1433  155.5055 F   0  0  0  0  0  0  0  0  0  0  0  0
  148.5221  139.0038  154.3771 C   0  0  0  0  0  0  0  0  0  0  0  0
  147.4747  139.0932  153.7400 O   0  0  0  0  0  0  0  0  0  0  0  0
  149.3279  137.8691  154.2488 N   0  0  0  0  0  0  0  0  0  0  0  0
  150.5310  137.6492  154.9212 C   0  0  0  0  0  0  0  0  0  0  0  0
  151.1577  136.6065  154.7374 O   0  0  0  0  0  0  0  0  0  0  0  0
  152.1232  137.2074  157.4937 C   0  0  1  0  0  0  0  0  0  0  0  0
  153.9035  136.3450  157.7294 Br  0  0  0  0  0  0  0  0  0  0  0  0
  151.6914  137.8376  158.8053 C   0  0  2  0  0  0  0  0  0  0  0  0
  150.2852  138.0591  158.8149 O   0  0  0  0  0  0  0  0  0  0  0  0
  149.4244  137.0296  158.8584 C   0  0  0  0  0  0  0  0  0  0  0  0
  149.6921  135.8531  158.6157 O   0  0  0  0  0  0  0  0  0  0  0  0
  148.0080  137.4676  159.2248 C   0  0  0  0  0  0  0  0  0  0  0  0
  147.4718  136.7380  160.4645 C   0  0  0  0  0  0  0  0  0  0  0  0
  149.0111  137.1469  153.6183 H   0  0  0  0  0  0  0  0  0  0  0  0
  152.5512  146.0602  159.4788 H   0  0  0  0  0  0  0  0  0  0  0  0
  152.5713  145.2546  161.0427 H   0  0  0  0  0  0  0  0  0  0  0  0
  151.1136  145.2200  160.0465 H   0  0  0  0  0  0  0  0  0  0  0  0
  152.3342  143.8599  158.3105 H   0  0  0  0  0  0  0  0  0  0  0  0
  153.7888  143.9099  159.2835 H   0  0  0  0  0  0  0  0  0  0  0  0
  151.9053  140.0631  160.6689 H   0  0  0  0  0  0  0  0  0  0  0  0
  150.7587  140.4049  159.3864 H   0  0  0  0  0  0  0  0  0  0  0  0
  153.4610  139.0047  159.1095 H   0  0  0  0  0  0  0  0  0  0  0  0
  153.0368  138.3295  155.8090 H   0  0  0  0  0  0  0  0  0  0  0  0
  150.5282  140.5903  156.6271 H   0  0  0  0  0  0  0  0  0  0  0  0
  151.4349  136.4551  157.1074 H   0  0  0  0  0  0  0  0  0  0  0  0
  151.9877  137.2427  159.6706 H   0  0  0  0  0  0  0  0  0  0  0  0
  148.0060  138.5444  159.3954 H   0  0  0  0  0  0  0  0  0  0  0  0
  147.3517  137.2804  158.3747 H   0  0  0  0  0  0  0  0  0  0  0  0
  146.4379  137.0221  160.6598 H   0  0  0  0  0  0  0  0  0  0  0  0
  148.0520  136.9837  161.3548 H   0  0  0  0  0  0  0  0  0  0  0  0
  147.4980  135.6558  160.3317 H   0  0  0  0  0  0  0  0  0  0  0  0
  1  2  1  0  0  0  0
  1 28  1  0  0  0  0
  1 29  1  0  0  0  0
  1 30  1  0  0  0  0
  2  3  1  0  0  0  0
  2 31  1  0  0  0  0
  2 32  1  0  0  0  0
  3  4  2  0  0  0  0
  3  5  1  0  0  0  0
  5  6  1  0  0  0  0
  6  7  1  0  0  0  0
  6 33  1  0  0  0  0
  6 34  1  0  0  0  0
  7 21  1  0  0  0  0
  7  8  1  0  0  0  0
  7 35  1  0  0  0  0
  8  9  1  0  0  0  0
  9 10  1  0  0  0  0
  9 19  1  0  0  0  0
  9 36  1  0  0  0  0
 10 17  1  0  0  0  0
 10 11  1  0  0  0  0
 11 12  2  0  0  0  0
 11 37  1  0  0  0  0
 12 13  1  0  0  0  0
 12 14  1  0  0  0  0
 14 15  2  0  0  0  0
 14 16  1  0  0  0  0
 16 27  1  0  0  0  0
 16 17  1  0  0  0  0
 17 18  2  0  0  0  0
 19 20  1  0  0  0  0
 19 21  1  0  0  0  0
 19 38  1  0  0  0  0
 21 22  1  0  0  0  0
 21 39  1  0  0  0  0
 22 23  1  0  0  0  0
 23 24  2  0  0  0  0
 23 25  1  0  0  0  0
 25 26  1  0  0  0  0
 25 40  1  0  0  0  0
 25 41  1  0  0  0  0
 26 42  1  0  0  0  0
 26 43  1  0  0  0  0
 26 44  1  0  0  0  0
M  END
> <s_m_source_file>
AV-unprocessed.smi

> <i_m_source_file_index>
37

> <i_lp_mmshare_version>
43012

> <i_f3d_flags>
0

> <s_epik_input>
W0NIM11bQ0gyXUMoPU8pT1tDSDJdW0NAQEhdMU9bQ0BASF0objJbY0hdYyhGKWMoPU8pW25IXWMyPU8pW0NAQEhdKEJyKVtDQEhdMU9DKD1PKVtDSDJdW0NIM10=

> <s_epik_cmdline>
J2VwaWtfcHl0aG9uJywgJy1waCcsICc3LjAnLCAnLXRuJywgJzgnLCAnLW1hJywgJzIwMCcsICctbWV0YWxfYmluZGluZycsICctaW1hZScsICc8aW5maWxlLm1hZT4nLCAnLW9tYWUnLCAnPG91dGZpbGUubWFlPic=

> <r_lp_tautomer_probability>
0.999537

> <r_epik_Ionization_Penalty>
0.104106

> <r_epik_Ionization_Penalty_Charging>
0.104106

> <r_epik_Ionization_Penalty_Neutral>
3.94675e-16

> <r_epik_State_Penalty>
0.0940182

> <r_epik_Charging_Adjusted_Penalty>
0.198124

> <i_epik_Tot_Q>
0

> <i_epik_Tot_abs_Q>
0

> <r_epik_Metal_State_Penalty>
3.05314

> <b_epik_Metal_Only>
0

> <s_epik_Chemistry_Notes>
This compound has an ester and may undergo hydrolysis at high or low pH. This compound contains an acetal/aminal-like group ( X-CH(R)-Y where X, Y are N, S, or O) that may be acid/base labile, releasing an aldehyde.

> <s_lp_Force_Field>
OPLS_2005

> <r_lp_Energy>
21.1206

> <b_lp_Chiralities_Consistent>
1

> <s_lp_Variant>
AV-unprocessed.smi:37-11

> <Gold.Version>
5.8.1

> <Gold.Id.Protein>
6NUR|6NUR_protein|mol2

> <Gold.PLP.Fitness>
54.3505

> <Gold.PLP.PLP>
-44.0860

> <Gold.PLP.part.hbond>
-5.0000

> <Gold.PLP.part.metal>
0.0000

> <Gold.PLP.part.buried>
-7.4213

> <Gold.PLP.part.nonpolar>
-33.7616

> <Gold.PLP.part.repulsive>
1.0866

> <Gold.PLP.ligand.clash>
0.0000

> <Gold.PLP.ligand.torsion>
0.6976

> <Gold.PLP.Chemscore.Hbond>
3.8052

> <Gold.PLP.Chemscore.CHOScore>
0.0000

> <Gold.PLP.Chemscore.Metal>
0.0000

> <Gold.Chemscore.Hbonds>
donor molecule, donor type, donor heavy atom, donor atom, acceptor molecule, acceptor atom, score
      L1  H    16    27       P1  7948  1.00
      P1  H  6896  6909       L1    24  1.00
      P1  H  6933  6945       L1     4  0.26
      P1  H  7997  8008       L1     8  0.86
      P1  H 10752 10763       L1    18  0.62

> <Gold.PLP.Chemscore.Internal.Correction>
0.2441

> <Gold.Rescore>
     Score         DG    S(hbond)    S(metal)    S(lipo)     H(rot)  DE(clash)    DE(int)     intcor
     13.01     -14.71       2.98        0.00      66.68       3.33       0.17       1.52       ----

> <Gold.Chemscore.Fitness>
13.0147

> <Gold.Chemscore.DG>
-14.7110

> <Gold.Chemscore.ZeroCoef>
-5.4800

> <Gold.Chemscore.Hbond>
2.9807

> <Gold.Chemscore.Metal>
0.0000

> <Gold.Chemscore.Lipo>
66.6755

> <Gold.Chemscore.Internal_Hbond>
0.0000

> <Gold.Chemscore.DEClash>
0.1736

> <Gold.Chemscore.DEInternal>
1.5227

> <Gold.Chemscore.Rot>
3.3303

> <Gold.Chemscore.Internal.Correction>
   9.000000E+99

> <Gold.Chemscore.Hbonds>
donor molecule, donor type, donor heavy atom, donor atom, acceptor molecule, acceptor atom, score
      L1  H    16    27       P1  7948  0.95
      P1  H  6896  6909       L1    24  0.99
      P1  H  6933  6945       L1     4  0.27
      P1  H  7997  8008       L1     8  0.26
      P1  H 10752 10763       L1    18  0.60

> <Gold.Chemscore.Hbond.Weighted>
-9.9556

> <Gold.Chemscore.Metal.Weighted>
-0.0000

> <Gold.Chemscore.Lipo.Weighted>
-7.8010

> <Gold.Chemscore.Internal_Hbond.Weighted>
0.0000

> <Gold.Chemscore.DEClash.Weighted>
0.1736

> <Gold.Chemscore.DEInternal.Weighted>
1.5227

> <Gold.Chemscore.Rot.Weighted>
8.5256

> <Gold.Chemscore.Internal.Correction.Weighted>
   9.000000E+99

> <Gold.Protein.RotatedTorsions>
[ 6907 6896 6895 6894 ] final   67.53 input  -60.11 | X-H torsion
[ 7974 7965 7964 7962 ] final  -71.86 input  175.53 | X-H torsion
[ 8008 7997 7996 7995 ] final  -76.22 input   59.86 | X-H torsion
[ 10167 10162 10161 10158 ] final  -97.82 input  -65.29 | X-H torsion
[ 10718 10713 10712 10709 ] final -145.74 input   66.30 | X-H torsion
[ 10763 10752 10751 10750 ] final   27.36 input  -60.55 | X-H torsion
[ 11005 11000 10999 10996 ] final   -8.86 input  -57.11 | X-H torsion

> <Gold.Protein.ActiveResidues>
 VAL166  LYS551  ARG553  GLY616  TRP617  ASP618  TYR619  PRO620  LYS621  CYS622 
 ASP623  PHE694  ASN695  SER759  ASP760  ASP761  ALA762  ILE779  LEU786  VAL792 
 PHE793  MET794  SER795  GLU796  ALA797  LYS798  CYS799  TRP800  GLU811  SER814 

> <Gold.Protein.RotatedAtoms>
  152.4558  134.5294  159.9806 H   0  0  0  0  0  0  0  0  0  0  0  0  # atno 6907 bound_to 6896
  151.5355  133.3436  159.2934 H   0  0  0  0  0  0  0  0  0  0  0  0  # atno 6908 bound_to 6896
  150.8502  134.7855  159.7065 H   0  0  0  0  0  0  0  0  0  0  0  0  # atno 6909 bound_to 6896
  145.6726  140.9216  143.0875 H   0  0  0  0  0  0  0  0  0  0  0  0  # atno 7974 bound_to 7965
  154.5485  140.0731  156.8629 H   0  0  0  0  0  0  0  0  0  0  0  0  # atno 8008 bound_to 7997
  155.3039  140.3386  155.4228 H   0  0  0  0  0  0  0  0  0  0  0  0  # atno 8009 bound_to 7997
  156.1940  140.1697  156.8021 H   0  0  0  0  0  0  0  0  0  0  0  0  # atno 8010 bound_to 7997
  140.2794  143.3292  152.0456 H   0  0  0  0  0  0  0  0  0  0  0  0  # atno 10167 bound_to 10162
  156.3862  130.7862  151.2060 H   0  0  0  0  0  0  0  0  0  0  0  0  # atno 10718 bound_to 10713
  153.0561  135.6538  154.0575 H   0  0  0  0  0  0  0  0  0  0  0  0  # atno 10763 bound_to 10752
  154.0253  135.2916  155.3377 H   0  0  0  0  0  0  0  0  0  0  0  0  # atno 10764 bound_to 10752
  154.6876  135.5295  153.8415 H   0  0  0  0  0  0  0  0  0  0  0  0  # atno 10765 bound_to 10752
  140.7280  133.8773  155.8871 H   0  0  0  0  0  0  0  0  0  0  0  0  # atno 11005 bound_to 11000
  144.7052  139.8592  143.7432 LP  0  0  0  0  0  0  0  0  0  0  0  0  # atno 17320 bound_to 7965
  146.1032  139.4030  143.0334 LP  0  0  0  0  0  0  0  0  0  0  0  0  # atno 17321 bound_to 7965
  139.4967  144.6602  151.6482 LP  0  0  0  0  0  0  0  0  0  0  0  0  # atno 17342 bound_to 10162
  140.5824  143.9922  150.6276 LP  0  0  0  0  0  0  0  0  0  0  0  0  # atno 17343 bound_to 10162
  157.7496  131.0329  150.4249 LP  0  0  0  0  0  0  0  0  0  0  0  0  # atno 17370 bound_to 10713
  156.4502  130.4010  149.6641 LP  0  0  0  0  0  0  0  0  0  0  0  0  # atno 17371 bound_to 10713
  140.9946  134.1233  157.4376 LP  0  0  0  0  0  0  0  0  0  0  0  0  # atno 17394 bound_to 11000
  139.8833  135.0050  156.6288 LP  0  0  0  0  0  0  0  0  0  0  0  0  # atno 17395 bound_to 11000

$$$$
