AV-unprocessed.smi:980|AV-procd|sdf|4311|dock10
  -GOLD-   22720 2213D 1   1.00000     0.00000
 Structure written by MMmdl.
 44 45  0  0  0  0  0  0  0  0  1 V2000
  153.4531  132.6505  165.4783 C   0  0  0  0  0  0  0  0  0  0  0  0
  154.8240  132.7939  164.7833 C   0  0  0  0  0  0  0  0  0  0  0  0
  155.8815  132.1095  165.6718 C   0  0  0  0  0  0  0  0  0  0  0  0
  154.7431  132.0791  163.4201 C   0  0  0  0  0  0  0  0  0  0  0  0
  155.1847  134.2523  164.5801 C   0  0  0  0  0  0  0  0  0  0  0  0
  156.3051  134.9200  165.0204 C   0  0  0  0  0  0  0  0  0  0  0  0
  156.3059  136.5971  164.5485 S   0  0  0  0  0  0  0  0  0  0  0  0
  154.7521  136.3442  163.7688 C   0  0  0  0  0  0  0  0  0  0  0  0
  154.0246  137.4118  163.0232 C   0  0  0  0  0  0  0  0  0  0  0  0
  154.9545  138.2253  162.1144 C   0  0  0  0  0  0  0  0  0  0  0  0
  154.3218  139.4750  161.7167 N   0  0  0  0  0  0  0  0  0  0  0  0
  154.9713  140.5084  161.1622 C   0  0  0  0  0  0  0  0  0  0  0  0
  156.1856  140.5076  160.9572 O   0  0  0  0  0  0  0  0  0  0  0  0
  154.1215  141.7266  160.7768 C   0  0  2  0  0  0  0  0  0  0  0  0
  153.4505  142.3511  162.0217 C   0  0  0  0  0  0  0  0  0  0  0  0
  152.4091  143.3919  161.6502 C   0  0  0  0  0  0  0  0  0  0  0  0
  151.8899  143.5101  160.4162 C   0  0  0  0  0  0  0  0  0  0  0  0
  152.2817  142.6136  159.2549 C   0  0  0  0  0  0  0  0  0  0  0  0
  153.0608  141.3672  159.7167 C   0  0  0  0  0  0  0  0  0  0  0  0
  154.3161  135.0863  163.8632 N   0  0  0  0  0  0  0  0  0  0  0  0
  153.1891  131.6023  165.6227 H   0  0  0  0  0  0  0  0  0  0  0  0
  152.6558  133.1057  164.8894 H   0  0  0  0  0  0  0  0  0  0  0  0
  153.4512  133.1222  166.4616 H   0  0  0  0  0  0  0  0  0  0  0  0
  155.9590  132.5990  166.6432 H   0  0  0  0  0  0  0  0  0  0  0  0
  156.8703  132.1336  165.2126 H   0  0  0  0  0  0  0  0  0  0  0  0
  155.6335  131.0627  165.8498 H   0  0  0  0  0  0  0  0  0  0  0  0
  154.4650  131.0312  163.5367 H   0  0  0  0  0  0  0  0  0  0  0  0
  155.6990  132.1037  162.8957 H   0  0  0  0  0  0  0  0  0  0  0  0
  154.0008  132.5462  162.7718 H   0  0  0  0  0  0  0  0  0  0  0  0
  157.1352  134.5309  165.5910 H   0  0  0  0  0  0  0  0  0  0  0  0
  153.2327  136.9478  162.4337 H   0  0  0  0  0  0  0  0  0  0  0  0
  153.5355  138.0673  163.7447 H   0  0  0  0  0  0  0  0  0  0  0  0
  155.8913  138.4408  162.6309 H   0  0  0  0  0  0  0  0  0  0  0  0
  155.2022  137.6467  161.2228 H   0  0  0  0  0  0  0  0  0  0  0  0
  153.3248  139.5538  161.8559 H   0  0  0  0  0  0  0  0  0  0  0  0
  154.7824  142.4767  160.3381 H   0  0  0  0  0  0  0  0  0  0  0  0
  152.9614  141.5912  162.6331 H   0  0  0  0  0  0  0  0  0  0  0  0
  154.2069  142.8242  162.6490 H   0  0  0  0  0  0  0  0  0  0  0  0
  152.0757  144.0505  162.4388 H   0  0  0  0  0  0  0  0  0  0  0  0
  151.1610  144.2809  160.2125 H   0  0  0  0  0  0  0  0  0  0  0  0
  151.3844  142.3115  158.7146 H   0  0  0  0  0  0  0  0  0  0  0  0
  152.8863  143.2015  158.5638 H   0  0  0  0  0  0  0  0  0  0  0  0
  153.5222  140.8836  158.8548 H   0  0  0  0  0  0  0  0  0  0  0  0
  152.3583  140.6442  160.1348 H   0  0  0  0  0  0  0  0  0  0  0  0
  1  2  1  0  0  0  0
  1 21  1  0  0  0  0
  1 22  1  0  0  0  0
  1 23  1  0  0  0  0
  2  3  1  0  0  0  0
  2  4  1  0  0  0  0
  2  5  1  0  0  0  0
  3 24  1  0  0  0  0
  3 25  1  0  0  0  0
  3 26  1  0  0  0  0
  4 27  1  0  0  0  0
  4 28  1  0  0  0  0
  4 29  1  0  0  0  0
  5 20  1  0  0  0  0
  5  6  2  0  0  0  0
  6  7  1  0  0  0  0
  6 30  1  0  0  0  0
  7  8  1  0  0  0  0
  8  9  1  0  0  0  0
  8 20  2  0  0  0  0
  9 10  1  0  0  0  0
  9 31  1  0  0  0  0
  9 32  1  0  0  0  0
 10 11  1  0  0  0  0
 10 33  1  0  0  0  0
 10 34  1  0  0  0  0
 11 12  1  0  0  0  0
 11 35  1  0  0  0  0
 12 13  2  0  0  0  0
 12 14  1  0  0  0  0
 14 19  1  0  0  0  0
 14 15  1  0  0  0  0
 14 36  1  0  0  0  0
 15 16  1  0  0  0  0
 15 37  1  0  0  0  0
 15 38  1  0  0  0  0
 16 17  2  0  0  0  0
 16 39  1  0  0  0  0
 17 18  1  0  0  0  0
 17 40  1  0  0  0  0
 18 19  1  0  0  0  0
 18 41  1  0  0  0  0
 18 42  1  0  0  0  0
 19 43  1  0  0  0  0
 19 44  1  0  0  0  0
M  END
> <s_m_source_file>
AV-unprocessed.smi

> <i_m_source_file_index>
980

> <i_lp_mmshare_version>
43012

> <i_f3d_flags>
0

> <s_epik_input>
W0NIM11DKFtDSDNdKShbQ0gzXSljMVtjSF1zYyhuMSlbQ0gyXVtDSDJdW05IXUMoPU8pW0NAQEhdMltDSDJdW0NIXT1bQ0hdW0NIMl1bQ0gyXTI=

> <s_epik_cmdline>
J2VwaWtfcHl0aG9uJywgJy1waCcsICc3LjAnLCAnLXRuJywgJzgnLCAnLW1hJywgJzIwMCcsICctbWV0YWxfYmluZGluZycsICctaW1hZScsICc8aW5maWxlLm1hZT4nLCAnLW9tYWUnLCAnPG91dGZpbGUubWFlPic=

> <r_epik_Ionization_Penalty>
0.000809238

> <r_epik_Ionization_Penalty_Charging>
0

> <r_epik_Ionization_Penalty_Neutral>
0.000809238

> <r_epik_State_Penalty>
0.000520038

> <r_epik_Charging_Adjusted_Penalty>
0.000520038

> <i_epik_Tot_Q>
0

> <i_epik_Tot_abs_Q>
0

> <r_epik_Metal_State_Penalty>
-0

> <b_epik_Metal_Only>
0

> <s_lp_Force_Field>
OPLS_2005

> <r_lp_Energy>
0.0985756

> <b_lp_Chiralities_Consistent>
1

> <s_lp_Variant>
AV-unprocessed.smi:980-1

> <Gold.Version>
5.8.1

> <Gold.Id.Protein>
6NUR|6NUR_protein|mol2

> <Gold.PLP.Fitness>
42.0164

> <Gold.PLP.PLP>
-42.7268

> <Gold.PLP.part.hbond>
-1.0000

> <Gold.PLP.part.metal>
0.0000

> <Gold.PLP.part.buried>
-4.2885

> <Gold.PLP.part.nonpolar>
-36.7999

> <Gold.PLP.part.repulsive>
0.0540

> <Gold.PLP.ligand.clash>
0.0000

> <Gold.PLP.ligand.torsion>
0.3780

> <Gold.PLP.Chemscore.Hbond>
0.0000

> <Gold.PLP.Chemscore.CHOScore>
0.0000

> <Gold.PLP.Chemscore.Metal>
0.0000

> <Gold.PLP.Chemscore.Internal.Correction>
0.0455

> <Gold.Rescore>
     Score         DG    S(hbond)    S(metal)    S(lipo)     H(rot)  DE(clash)    DE(int)     intcor
     17.25     -17.89       0.00        0.00     136.87       1.41       0.16       0.48       ----

> <Gold.Chemscore.Fitness>
17.2466

> <Gold.Chemscore.DG>
-17.8855

> <Gold.Chemscore.ZeroCoef>
-5.4800

> <Gold.Chemscore.Hbond>
0.0000

> <Gold.Chemscore.Metal>
0.0000

> <Gold.Chemscore.Lipo>
136.8732

> <Gold.Chemscore.Internal_Hbond>
0.0000

> <Gold.Chemscore.DEClash>
0.1586

> <Gold.Chemscore.DEInternal>
0.4802

> <Gold.Chemscore.Rot>
1.4097

> <Gold.Chemscore.Internal.Correction>
   9.000000E+99

> <Gold.Chemscore.Hbond.Weighted>
-0.0000

> <Gold.Chemscore.Metal.Weighted>
-0.0000

> <Gold.Chemscore.Lipo.Weighted>
-16.0142

> <Gold.Chemscore.Internal_Hbond.Weighted>
0.0000

> <Gold.Chemscore.DEClash.Weighted>
0.1586

> <Gold.Chemscore.DEInternal.Weighted>
0.4802

> <Gold.Chemscore.Rot.Weighted>
3.6087

> <Gold.Chemscore.Internal.Correction.Weighted>
   9.000000E+99

> <Gold.Protein.RotatedTorsions>
[ 6907 6896 6895 6894 ] final -176.02 input  -60.11 | X-H torsion
[ 7974 7965 7964 7962 ] final  -42.38 input  175.53 | X-H torsion
[ 8008 7997 7996 7995 ] final  -38.80 input   59.86 | X-H torsion
[ 10167 10162 10161 10158 ] final -171.45 input  -65.29 | X-H torsion
[ 10718 10713 10712 10709 ] final  -70.69 input   66.30 | X-H torsion
[ 10763 10752 10751 10750 ] final  -58.61 input  -60.55 | X-H torsion
[ 11005 11000 10999 10996 ] final   73.80 input  -57.11 | X-H torsion

> <Gold.Protein.ActiveResidues>
 VAL166  LYS551  ARG553  GLY616  TRP617  ASP618  TYR619  PRO620  LYS621  CYS622 
 ASP623  PHE694  ASN695  SER759  ASP760  ASP761  ALA762  ILE779  LEU786  VAL792 
 PHE793  MET794  SER795  GLU796  ALA797  LYS798  CYS799  TRP800  GLU811  SER814 

> <Gold.Protein.RotatedAtoms>
  151.5980  133.3359  159.3041 H   0  0  0  0  0  0  0  0  0  0  0  0  # atno 6907 bound_to 6896
  150.8223  134.7441  159.6794 H   0  0  0  0  0  0  0  0  0  0  0  0  # atno 6908 bound_to 6896
  152.4316  134.5773  159.9989 H   0  0  0  0  0  0  0  0  0  0  0  0  # atno 6909 bound_to 6896
  146.0122  140.6951  142.9219 H   0  0  0  0  0  0  0  0  0  0  0  0  # atno 7974 bound_to 7965
  154.4031  140.1568  156.2760 H   0  0  0  0  0  0  0  0  0  0  0  0  # atno 8008 bound_to 7997
  155.8911  140.3438  155.5935 H   0  0  0  0  0  0  0  0  0  0  0  0  # atno 8009 bound_to 7997
  155.7557  140.0811  157.2170 H   0  0  0  0  0  0  0  0  0  0  0  0  # atno 8010 bound_to 7997
  139.5801  144.1442  152.1504 H   0  0  0  0  0  0  0  0  0  0  0  0  # atno 10167 bound_to 10162
  156.0396  130.4336  150.2333 H   0  0  0  0  0  0  0  0  0  0  0  0  # atno 10718 bound_to 10713
  154.2408  135.6344  153.5206 H   0  0  0  0  0  0  0  0  0  0  0  0  # atno 10763 bound_to 10752
  152.9930  135.5541  154.5913 H   0  0  0  0  0  0  0  0  0  0  0  0  # atno 10764 bound_to 10752
  154.5418  135.2895  155.1063 H   0  0  0  0  0  0  0  0  0  0  0  0  # atno 10765 bound_to 10752
  139.9422  134.7378  156.1070 H   0  0  0  0  0  0  0  0  0  0  0  0  # atno 11005 bound_to 11000
  144.6957  140.3418  143.7198 LP  0  0  0  0  0  0  0  0  0  0  0  0  # atno 17320 bound_to 7965
  145.7325  139.1740  143.2422 LP  0  0  0  0  0  0  0  0  0  0  0  0  # atno 17321 bound_to 7965
  140.0993  144.5553  150.7000 LP  0  0  0  0  0  0  0  0  0  0  0  0  # atno 17342 bound_to 10162
  140.7080  143.2483  151.4666 LP  0  0  0  0  0  0  0  0  0  0  0  0  # atno 17343 bound_to 10162
  157.0429  131.0040  151.3278 LP  0  0  0  0  0  0  0  0  0  0  0  0  # atno 17370 bound_to 10713
  157.5196  130.7990  149.7794 LP  0  0  0  0  0  0  0  0  0  0  0  0  # atno 17371 bound_to 10713
  141.1060  133.6660  156.2866 LP  0  0  0  0  0  0  0  0  0  0  0  0  # atno 17394 bound_to 11000
  140.5923  134.5638  157.5502 LP  0  0  0  0  0  0  0  0  0  0  0  0  # atno 17395 bound_to 11000

$$$$
