AV-unprocessed.smi:2697|AV-procd|sdf|10415|dock1
  -GOLD-   2272014453D 1   1.00000     0.00000
 Structure written by MMmdl.
 32 33  0  0  0  0  0  0  0  0  2 V2000
  148.7174  138.0499  158.2100 C   0  0  0  0  0  0  0  0  0  0  0  0
  149.9934  138.7054  158.4003 N   0  0  0  0  0  0  0  0  0  0  0  0
  151.1583  138.1791  158.9169 C   0  0  0  0  0  0  0  0  0  0  0  0
  152.0696  139.1939  158.8791 C   0  0  0  0  0  0  0  0  0  0  0  0
  153.5115  139.1000  159.2802 C   0  0  0  0  0  0  0  0  0  0  0  0
  153.9020  137.9144  159.7555 N   0  0  0  0  0  0  0  0  0  0  0  0
  154.2662  140.0672  159.2067 O   0  0  0  0  0  0  0  0  0  0  0  0
  151.3943  140.3190  158.3196 C   0  0  0  0  0  0  0  0  0  0  0  0
  151.8958  141.7141  158.0216 C   0  0  2  0  0  0  0  0  0  0  0  0
  152.5324  142.3807  159.2572 C   0  0  0  0  0  0  0  0  0  0  0  0
  153.0201  143.7958  158.9094 C   0  0  0  0  0  0  0  0  0  0  0  0
  151.8847  144.6354  158.2994 C   0  0  0  0  0  0  0  0  0  0  0  0
  151.3052  143.9564  157.1196 N   0  3  0  0  0  0  0  0  0  0  0  0
  150.7873  142.6047  157.4255 C   0  0  0  0  0  0  0  0  0  0  0  0
  150.1363  140.0006  158.0323 N   0  0  0  0  0  0  0  0  0  0  0  0
  148.7181  137.0782  158.7048 H   0  0  0  0  0  0  0  0  0  0  0  0
  148.5343  137.9053  157.1450 H   0  0  0  0  0  0  0  0  0  0  0  0
  147.9184  138.6606  158.6319 H   0  0  0  0  0  0  0  0  0  0  0  0
  151.2367  137.1537  159.2476 H   0  0  0  0  0  0  0  0  0  0  0  0
  154.8594  137.7761  160.0441 H   0  0  0  0  0  0  0  0  0  0  0  0
  153.2364  137.1579  159.8232 H   0  0  0  0  0  0  0  0  0  0  0  0
  152.6859  141.6493  157.2750 H   0  0  0  0  0  0  0  0  0  0  0  0
  151.8072  142.4394  160.0700 H   0  0  0  0  0  0  0  0  0  0  0  0
  153.3650  141.7794  159.6241 H   0  0  0  0  0  0  0  0  0  0  0  0
  153.4087  144.2862  159.8026 H   0  0  0  0  0  0  0  0  0  0  0  0
  153.8504  143.7344  158.2045 H   0  0  0  0  0  0  0  0  0  0  0  0
  151.0994  144.8063  159.0368 H   0  0  0  0  0  0  0  0  0  0  0  0
  152.2582  145.6140  157.9979 H   0  0  0  0  0  0  0  0  0  0  0  0
  150.5520  144.5202  156.7521 H   0  0  0  0  0  0  0  0  0  0  0  0
  150.3978  142.1621  156.5083 H   0  0  0  0  0  0  0  0  0  0  0  0
  149.9492  142.6946  158.1181 H   0  0  0  0  0  0  0  0  0  0  0  0
  152.0230  143.8713  156.4138 H   0  0  0  0  0  0  0  0  0  0  0  0
  1  2  1  0  0  0  0
  1 16  1  0  0  0  0
  1 17  1  0  0  0  0
  1 18  1  0  0  0  0
  2 15  1  0  0  0  0
  2  3  1  0  0  0  0
  3  4  2  0  0  0  0
  3 19  1  0  0  0  0
  4  5  1  0  0  0  0
  4  8  1  0  0  0  0
  5  6  1  0  0  0  0
  5  7  2  0  0  0  0
  6 20  1  0  0  0  0
  6 21  1  0  0  0  0
  8  9  1  0  0  0  0
  8 15  2  0  0  0  0
  9 14  1  0  0  0  0
  9 10  1  0  0  0  0
  9 22  1  0  0  0  0
 10 11  1  0  0  0  0
 10 23  1  0  0  0  0
 10 24  1  0  0  0  0
 11 12  1  0  0  0  0
 11 25  1  0  0  0  0
 11 26  1  0  0  0  0
 12 13  1  0  0  0  0
 12 27  1  0  0  0  0
 12 28  1  0  0  0  0
 13 14  1  0  0  0  0
 13 29  1  0  0  0  0
 13 32  1  0  0  0  0
 14 30  1  0  0  0  0
 14 31  1  0  0  0  0
M  CHG  1  13   1
M  END
> <s_m_source_file>
AV-unprocessed.smi

> <i_m_source_file_index>
2697

> <i_lp_mmshare_version>
43012

> <i_f3d_flags>
0

> <s_epik_input>
W0NIM11uMVtjSF1jKEMoPU8pW05IMl0pYyhuMSlbQ0BASF0yW0NIMl1bQ0gyXVtDSDJdW05IXVtDSDJdMg==

> <s_epik_cmdline>
J2VwaWtfcHl0aG9uJywgJy1waCcsICc3LjAnLCAnLXRuJywgJzgnLCAnLW1hJywgJzIwMCcsICctbWV0YWxfYmluZGluZycsICctaW1hZScsICc8aW5maWxlLm1hZT4nLCAnLW9tYWUnLCAnPG91dGZpbGUubWFlPic=

> <r_lp_tautomer_probability>
1

> <r_epik_Ionization_Penalty>
0.000158942

> <r_epik_Ionization_Penalty_Charging>
0.000157527

> <r_epik_Ionization_Penalty_Neutral>
1.41498e-06

> <r_epik_State_Penalty>
-0

> <r_epik_Charging_Adjusted_Penalty>
0.000157527

> <i_epik_Tot_Q>
1

> <i_epik_Tot_abs_Q>
1

> <r_epik_Metal_State_Penalty>
-0

> <b_epik_Metal_Only>
0

> <s_lp_Force_Field>
OPLS_2005

> <r_lp_Energy>
9.94433

> <b_lp_Chiralities_Consistent>
1

> <s_lp_Variant>
AV-unprocessed.smi:2697-1

> <Gold.Version>
5.8.1

> <Gold.Id.Protein>
6NUR|6NUR_protein|mol2

> <Gold.PLP.Fitness>
37.0796

> <Gold.PLP.PLP>
-28.1294

> <Gold.PLP.part.hbond>
-2.0000

> <Gold.PLP.part.metal>
0.0000

> <Gold.PLP.part.buried>
-4.5668

> <Gold.PLP.part.nonpolar>
-21.4210

> <Gold.PLP.part.repulsive>
0.0699

> <Gold.PLP.ligand.clash>
0.0000

> <Gold.PLP.ligand.torsion>
0.0420

> <Gold.PLP.Chemscore.Hbond>
3.0000

> <Gold.PLP.Chemscore.CHOScore>
0.0000

> <Gold.PLP.Chemscore.Metal>
0.0000

> <Gold.Chemscore.Hbonds>
donor molecule, donor type, donor heavy atom, donor atom, acceptor molecule, acceptor atom, score
      L1  H    13    29       P1  8028  2.00
      P1  H  7997  8010       L1     7  0.98

> <Gold.PLP.Chemscore.Internal.Correction>
0.0341

> <Gold.Rescore>
     Score         DG    S(hbond)    S(metal)    S(lipo)     H(rot)  DE(clash)    DE(int)     intcor
     16.08     -17.45       1.98        0.00      67.69       1.00       0.02       1.35       ----

> <Gold.Chemscore.Fitness>
16.0837

> <Gold.Chemscore.DG>
-17.4550

> <Gold.Chemscore.ZeroCoef>
-5.4800

> <Gold.Chemscore.Hbond>
1.9804

> <Gold.Chemscore.Metal>
0.0000

> <Gold.Chemscore.Lipo>
67.6948

> <Gold.Chemscore.Internal_Hbond>
0.0000

> <Gold.Chemscore.DEClash>
0.0234

> <Gold.Chemscore.DEInternal>
1.3478

> <Gold.Chemscore.Rot>
1.0000

> <Gold.Chemscore.Internal.Correction>
   9.000000E+99

> <Gold.Chemscore.Hbonds>
donor molecule, donor type, donor heavy atom, donor atom, acceptor molecule, acceptor atom, score
      L1  H    13    29       P1  8028  0.90
      P1  H  7997  8010       L1     7  0.44

> <Gold.Chemscore.Hbond.Weighted>
-6.6147

> <Gold.Chemscore.Metal.Weighted>
-0.0000

> <Gold.Chemscore.Lipo.Weighted>
-7.9203

> <Gold.Chemscore.Internal_Hbond.Weighted>
0.0000

> <Gold.Chemscore.DEClash.Weighted>
0.0234

> <Gold.Chemscore.DEInternal.Weighted>
1.3478

> <Gold.Chemscore.Rot.Weighted>
2.5600

> <Gold.Chemscore.Internal.Correction.Weighted>
   9.000000E+99

> <Gold.Protein.RotatedTorsions>
[ 6907 6896 6895 6894 ] final   25.74 input  -60.11 | X-H torsion
[ 7974 7965 7964 7962 ] final  125.69 input  175.53 | X-H torsion
[ 8008 7997 7996 7995 ] final    9.70 input   59.86 | X-H torsion
[ 10167 10162 10161 10158 ] final   39.23 input  -65.29 | X-H torsion
[ 10718 10713 10712 10709 ] final   81.77 input   66.30 | X-H torsion
[ 10763 10752 10751 10750 ] final -177.82 input  -60.55 | X-H torsion
[ 11005 11000 10999 10996 ] final -128.46 input  -57.11 | X-H torsion

> <Gold.Protein.ActiveResidues>
 VAL166  LYS551  ARG553  GLY616  TRP617  ASP618  TYR619  PRO620  LYS621  CYS622 
 ASP623  PHE694  ASN695  SER759  ASP760  ASP761  ALA762  ILE779  LEU786  VAL792 
 PHE793  MET794  SER795  GLU796  ALA797  LYS798  CYS799  TRP800  GLU811  SER814 

> <Gold.Protein.RotatedAtoms>
  151.9771  135.0047  160.0555 H   0  0  0  0  0  0  0  0  0  0  0  0  # atno 6907 bound_to 6896
  152.1730  133.4651  159.4927 H   0  0  0  0  0  0  0  0  0  0  0  0  # atno 6908 bound_to 6896
  150.6905  134.1846  159.4305 H   0  0  0  0  0  0  0  0  0  0  0  0  # atno 6909 bound_to 6896
  145.0701  139.3737  143.4962 H   0  0  0  0  0  0  0  0  0  0  0  0  # atno 7974 bound_to 7965
  154.7835  140.2823  155.6045 H   0  0  0  0  0  0  0  0  0  0  0  0  # atno 8008 bound_to 7997
  156.2954  140.2618  156.2595 H   0  0  0  0  0  0  0  0  0  0  0  0  # atno 8009 bound_to 7997
  154.9755  140.0375  157.2243 H   0  0  0  0  0  0  0  0  0  0  0  0  # atno 8010 bound_to 7997
  140.3860  144.1916  150.6130 H   0  0  0  0  0  0  0  0  0  0  0  0  # atno 10167 bound_to 10162
  157.6841  131.0019  150.2276 H   0  0  0  0  0  0  0  0  0  0  0  0  # atno 10718 bound_to 10713
  154.5553  135.2816  155.0970 H   0  0  0  0  0  0  0  0  0  0  0  0  # atno 10763 bound_to 10752
  154.2400  135.6358  153.5207 H   0  0  0  0  0  0  0  0  0  0  0  0  # atno 10764 bound_to 10752
  153.0014  135.5557  154.6131 H   0  0  0  0  0  0  0  0  0  0  0  0  # atno 10765 bound_to 10752
  140.9514  134.1060  157.4058 H   0  0  0  0  0  0  0  0  0  0  0  0  # atno 11005 bound_to 11000
  146.3528  140.0441  142.8640 LP  0  0  0  0  0  0  0  0  0  0  0  0  # atno 17320 bound_to 7965
  145.1303  140.9514  143.4548 LP  0  0  0  0  0  0  0  0  0  0  0  0  # atno 17321 bound_to 7965
  140.4889  143.2354  151.8848 LP  0  0  0  0  0  0  0  0  0  0  0  0  # atno 17342 bound_to 10162
  139.4792  144.5188  151.8830 LP  0  0  0  0  0  0  0  0  0  0  0  0  # atno 17343 bound_to 10162
  156.2915  130.3746  149.7837 LP  0  0  0  0  0  0  0  0  0  0  0  0  # atno 17370 bound_to 10713
  156.5495  130.8335  151.3295 LP  0  0  0  0  0  0  0  0  0  0  0  0  # atno 17371 bound_to 10713
  139.8849  135.0067  156.6397 LP  0  0  0  0  0  0  0  0  0  0  0  0  # atno 17394 bound_to 11000
  140.7597  133.8828  155.8408 LP  0  0  0  0  0  0  0  0  0  0  0  0  # atno 17395 bound_to 11000

$$$$
