AV-unprocessed.smi:1406|AV-procd|sdf|5715|dock1
  -GOLD-   22720 5343D 1   1.00000     0.00000
 Structure written by MMmdl.
 41 43  0  0  0  0  0  0  0  0  2 V2000
  149.8010  140.7880  156.8865 C   0  0  0  0  0  0  0  0  0  0  0  0
  150.2713  140.7724  155.4179 C   0  0  2  0  0  0  0  0  0  0  0  0
  149.1136  140.8899  154.4130 C   0  0  0  0  0  0  0  0  0  0  0  0
  148.9067  141.9404  153.8046 O   0  0  0  0  0  0  0  0  0  0  0  0
  148.3397  139.8008  154.2750 N   0  0  0  0  0  0  0  0  0  0  0  0
  147.1114  139.7297  153.4875 C   0  0  1  0  0  0  0  0  0  0  0  0
  147.3384  140.0304  151.9933 C   0  0  0  0  0  0  0  0  0  0  0  0
  146.4780  138.9999  151.2545 C   0  0  0  0  0  0  0  0  0  0  0  0
  146.5320  137.8313  152.1402 N   0  3  2  0  0  0  0  0  0  0  0  0
  145.6146  136.7035  151.8792 C   0  0  0  0  0  0  0  0  0  0  0  0
  145.9936  135.5389  152.8192 C   0  0  0  0  0  0  0  0  0  0  0  0
  146.0596  135.9789  154.2993 C   0  0  0  0  0  0  0  0  0  0  0  0
  146.9304  137.2398  154.4847 C   0  0  0  0  0  0  0  0  0  0  0  0
  146.4381  138.3360  153.5208 C   0  0  1  0  0  0  0  0  0  0  0  0
  151.0734  139.5920  155.1166 N   0  0  0  0  0  0  0  0  0  0  0  0
  152.2843  139.2419  155.5559 C   0  0  0  0  0  0  0  0  0  0  0  0
  152.7479  138.1210  155.0215 N   0  0  0  0  0  0  0  0  0  0  0  0
  151.7003  137.8083  154.2023 C   0  0  0  0  0  0  0  0  0  0  0  0
  150.6775  138.6625  154.2113 N   0  0  0  0  0  0  0  0  0  0  0  0
  149.2541  141.7033  157.1151 H   0  0  0  0  0  0  0  0  0  0  0  0
  150.6519  140.7391  157.5664 H   0  0  0  0  0  0  0  0  0  0  0  0
  149.1472  139.9457  157.1160 H   0  0  0  0  0  0  0  0  0  0  0  0
  150.9116  141.6437  155.2717 H   0  0  0  0  0  0  0  0  0  0  0  0
  148.5896  138.9776  154.8035 H   0  0  0  0  0  0  0  0  0  0  0  0
  146.4002  140.4639  153.8718 H   0  0  0  0  0  0  0  0  0  0  0  0
  147.0799  141.0558  151.7268 H   0  0  0  0  0  0  0  0  0  0  0  0
  148.3862  139.8771  151.7299 H   0  0  0  0  0  0  0  0  0  0  0  0
  145.4482  139.3501  151.1678 H   0  0  0  0  0  0  0  0  0  0  0  0
  146.8538  138.7740  150.2564 H   0  0  0  0  0  0  0  0  0  0  0  0
  144.5811  137.0140  152.0395 H   0  0  0  0  0  0  0  0  0  0  0  0
  145.7019  136.3902  150.8384 H   0  0  0  0  0  0  0  0  0  0  0  0
  145.2837  134.7193  152.7040 H   0  0  0  0  0  0  0  0  0  0  0  0
  146.9666  135.1444  152.5237 H   0  0  0  0  0  0  0  0  0  0  0  0
  145.0498  136.1843  154.6571 H   0  0  0  0  0  0  0  0  0  0  0  0
  146.4435  135.1655  154.9156 H   0  0  0  0  0  0  0  0  0  0  0  0
  146.8671  137.5796  155.5187 H   0  0  0  0  0  0  0  0  0  0  0  0
  147.9776  137.0026  154.2911 H   0  0  0  0  0  0  0  0  0  0  0  0
  145.3815  138.5138  153.7326 H   0  0  0  0  0  0  0  0  0  0  0  0
  152.8433  139.8249  156.2730 H   0  0  0  0  0  0  0  0  0  0  0  0
  151.6955  136.9305  153.5731 H   0  0  0  0  0  0  0  0  0  0  0  0
  147.4680  137.4646  152.0421 H   0  0  0  0  0  0  0  0  0  0  0  0
  1  2  1  0  0  0  0
  1 20  1  0  0  0  0
  1 21  1  0  0  0  0
  1 22  1  0  0  0  0
  2  3  1  0  0  0  0
  2 15  1  0  0  0  0
  2 23  1  0  0  0  0
  3  4  2  0  0  0  0
  3  5  1  0  0  0  0
  5  6  1  0  0  0  0
  5 24  1  0  0  0  0
  6 14  1  0  0  0  0
  6  7  1  0  0  0  0
  6 25  1  0  0  0  0
  7  8  1  0  0  0  0
  7 26  1  0  0  0  0
  7 27  1  0  0  0  0
  8  9  1  0  0  0  0
  8 28  1  0  0  0  0
  8 29  1  0  0  0  0
  9 14  1  0  0  0  0
  9 10  1  0  0  0  0
  9 41  1  0  0  0  0
 10 11  1  0  0  0  0
 10 30  1  0  0  0  0
 10 31  1  0  0  0  0
 11 12  1  0  0  0  0
 11 32  1  0  0  0  0
 11 33  1  0  0  0  0
 12 13  1  0  0  0  0
 12 34  1  0  0  0  0
 12 35  1  0  0  0  0
 13 14  1  0  0  0  0
 13 36  1  0  0  0  0
 13 37  1  0  0  0  0
 14 38  1  0  0  0  0
 15 19  1  0  0  0  0
 15 16  1  0  0  0  0
 16 17  2  0  0  0  0
 16 39  1  0  0  0  0
 17 18  1  0  0  0  0
 18 19  2  0  0  0  0
 18 40  1  0  0  0  0
M  CHG  1   9   1
M  END
> <s_m_source_file>
AV-unprocessed.smi

> <i_m_source_file_index>
1406

> <i_lp_mmshare_version>
43012

> <i_f3d_flags>
0

> <s_epik_input>
bjFbY0hdbltjSF1uMVtDQEhdKFtDSDNdKUMoPU8pW05IXVtDQEhdKFtDSDJdW0NIMl0yKVtDQEBIXShOMjMpW0NIMl1bQ0gyXVtDSDJdW0NIMl0z

> <s_epik_cmdline>
J2VwaWtfcHl0aG9uJywgJy1waCcsICc3LjAnLCAnLXRuJywgJzgnLCAnLW1hJywgJzIwMCcsICctbWV0YWxfYmluZGluZycsICctaW1hZScsICc8aW5maWxlLm1hZT4nLCAnLW9tYWUnLCAnPG91dGZpbGUubWFlPic=

> <r_lp_tautomer_probability>
1

> <r_epik_Ionization_Penalty>
0.00197066

> <r_epik_Ionization_Penalty_Charging>
0.00196223

> <r_epik_Ionization_Penalty_Neutral>
8.43107e-06

> <r_epik_State_Penalty>
0.00133866

> <r_epik_Charging_Adjusted_Penalty>
0.00330089

> <i_epik_Tot_Q>
1

> <i_epik_Tot_abs_Q>
1

> <r_epik_Metal_State_Penalty>
-0

> <b_epik_Metal_Only>
0

> <s_lp_Force_Field>
OPLS_2005

> <r_lp_Energy>
45.8752

> <b_lp_Chiralities_Consistent>
1

> <s_lp_Variant>
AV-unprocessed.smi:1406-7

> <Gold.Version>
5.8.1

> <Gold.Id.Protein>
6NUR|6NUR_protein|mol2

> <Gold.PLP.Fitness>
39.3131

> <Gold.PLP.PLP>
-29.4821

> <Gold.PLP.part.hbond>
-2.5771

> <Gold.PLP.part.metal>
0.0000

> <Gold.PLP.part.buried>
4.6760

> <Gold.PLP.part.nonpolar>
-31.1208

> <Gold.PLP.part.repulsive>
0.5641

> <Gold.PLP.ligand.clash>
0.0000

> <Gold.PLP.ligand.torsion>
0.3849

> <Gold.PLP.Chemscore.Hbond>
2.4960

> <Gold.PLP.Chemscore.CHOScore>
1.0000

> <Gold.PLP.Chemscore.Metal>
0.0000

> <Gold.Chemscore.Hbonds>
donor molecule, donor type, donor heavy atom, donor atom, acceptor molecule, acceptor atom, score
      L1  H     9    41       P1  7948  2.00
      P1  H  8011  8017       L1     4  0.48
      L1  C    18    40       P1  7949  1.00

> <Gold.PLP.Chemscore.Internal.Correction>
0.1128

> <Gold.Rescore>
     Score         DG    S(hbond)    S(metal)    S(lipo)     H(rot)  DE(clash)    DE(int)     intcor
      8.33     -12.43       1.54        0.00      56.73       1.89       2.31       1.79       ----

> <Gold.Chemscore.Fitness>
8.3310

> <Gold.Chemscore.DG>
-12.4296

> <Gold.Chemscore.ZeroCoef>
-5.4800

> <Gold.Chemscore.Hbond>
1.5394

> <Gold.Chemscore.Metal>
0.0000

> <Gold.Chemscore.Lipo>
56.7311

> <Gold.Chemscore.Internal_Hbond>
0.0000

> <Gold.Chemscore.DEClash>
2.3095

> <Gold.Chemscore.DEInternal>
1.7891

> <Gold.Chemscore.Rot>
1.8865

> <Gold.Chemscore.Internal.Correction>
   9.000000E+99

> <Gold.Chemscore.Hbonds>
donor molecule, donor type, donor heavy atom, donor atom, acceptor molecule, acceptor atom, score
      L1  H     9    41       P1  7948  0.99
      P1  H  8011  8017       L1     4  0.48

> <Gold.Chemscore.Hbond.Weighted>
-5.1416

> <Gold.Chemscore.Metal.Weighted>
-0.0000

> <Gold.Chemscore.Lipo.Weighted>
-6.6375

> <Gold.Chemscore.Internal_Hbond.Weighted>
0.0000

> <Gold.Chemscore.DEClash.Weighted>
2.3095

> <Gold.Chemscore.DEInternal.Weighted>
1.7891

> <Gold.Chemscore.Rot.Weighted>
4.8295

> <Gold.Chemscore.Internal.Correction.Weighted>
   9.000000E+99

> <Gold.Protein.RotatedTorsions>
[ 6907 6896 6895 6894 ] final -103.18 input  -60.11 | X-H torsion
[ 7974 7965 7964 7962 ] final -157.40 input  175.53 | X-H torsion
[ 8008 7997 7996 7995 ] final  -62.76 input   59.86 | X-H torsion
[ 10167 10162 10161 10158 ] final   56.67 input  -65.29 | X-H torsion
[ 10718 10713 10712 10709 ] final  104.99 input   66.30 | X-H torsion
[ 10763 10752 10751 10750 ] final   42.60 input  -60.55 | X-H torsion
[ 11005 11000 10999 10996 ] final  110.31 input  -57.11 | X-H torsion

> <Gold.Protein.ActiveResidues>
 VAL166  LYS551  ARG553  GLY616  TRP617  ASP618  TYR619  PRO620  LYS621  CYS622 
 ASP623  PHE694  ASN695  SER759  ASP760  ASP761  ALA762  ILE779  LEU786  VAL792 
 PHE793  MET794  SER795  GLU796  ALA797  LYS798  CYS799  TRP800  GLU811  SER814 

> <Gold.Protein.RotatedAtoms>
  150.7229  134.0468  159.3784 H   0  0  0  0  0  0  0  0  0  0  0  0  # atno 6907 bound_to 6896
  151.8444  135.0577  160.0461 H   0  0  0  0  0  0  0  0  0  0  0  0  # atno 6908 bound_to 6896
  152.2838  133.5460  159.5551 H   0  0  0  0  0  0  0  0  0  0  0  0  # atno 6909 bound_to 6896
  144.7550  140.3975  143.6019 H   0  0  0  0  0  0  0  0  0  0  0  0  # atno 7974 bound_to 7965
  154.4517  140.0989  156.6638 H   0  0  0  0  0  0  0  0  0  0  0  0  # atno 8008 bound_to 7997
  155.5264  140.3480  155.4399 H   0  0  0  0  0  0  0  0  0  0  0  0  # atno 8009 bound_to 7997
  156.0695  140.1346  156.9835 H   0  0  0  0  0  0  0  0  0  0  0  0  # atno 8010 bound_to 7997
  140.2063  144.3936  150.6507 H   0  0  0  0  0  0  0  0  0  0  0  0  # atno 10167 bound_to 10162
  157.6721  131.0817  150.5790 H   0  0  0  0  0  0  0  0  0  0  0  0  # atno 10718 bound_to 10713
  152.9879  135.6127  154.2975 H   0  0  0  0  0  0  0  0  0  0  0  0  # atno 10763 bound_to 10752
  154.2697  135.2780  155.2745 H   0  0  0  0  0  0  0  0  0  0  0  0  # atno 10764 bound_to 10752
  154.5133  135.5835  153.6679 H   0  0  0  0  0  0  0  0  0  0  0  0  # atno 10765 bound_to 10752
  139.8879  134.9481  156.6259 H   0  0  0  0  0  0  0  0  0  0  0  0  # atno 11005 bound_to 11000
  145.6810  139.1618  143.2700 LP  0  0  0  0  0  0  0  0  0  0  0  0  # atno 17320 bound_to 7965
  146.1549  140.6872  142.9304 LP  0  0  0  0  0  0  0  0  0  0  0  0  # atno 17321 bound_to 7965
  140.6355  143.2194  151.6404 LP  0  0  0  0  0  0  0  0  0  0  0  0  # atno 17342 bound_to 10162
  139.5197  144.3244  152.0882 LP  0  0  0  0  0  0  0  0  0  0  0  0  # atno 17343 bound_to 10162
  156.6090  130.4375  149.5866 LP  0  0  0  0  0  0  0  0  0  0  0  0  # atno 17370 bound_to 10713
  156.2445  130.6871  151.1587 LP  0  0  0  0  0  0  0  0  0  0  0  0  # atno 17371 bound_to 10713
  140.7703  133.8743  155.8487 LP  0  0  0  0  0  0  0  0  0  0  0  0  # atno 17394 bound_to 11000
  140.9847  134.1358  157.4463 LP  0  0  0  0  0  0  0  0  0  0  0  0  # atno 17395 bound_to 11000

$$$$
