AV-unprocessed.smi:1047|AV-procd|sdf|4563|dock7
  -GOLD-   22720 3 03D 1   1.00000     0.00000
 Structure written by MMmdl.
 57 59  0  0  0  0  0  0  0  0  3 V2000
  145.9222  133.7815  151.4165 C   0  0  0  0  0  0  0  0  0  0  0  0
  146.4899  132.4138  151.8219 C   0  0  0  0  0  0  0  0  0  0  0  0
  147.2016  132.4558  153.1240 N   0  3  2  0  0  0  0  0  0  0  0  0
  146.2768  132.6546  154.2656 C   0  0  0  0  0  0  0  0  0  0  0  0
  147.0473  132.6310  155.5964 C   0  0  0  0  0  0  0  0  0  0  0  0
  148.0638  133.6265  155.5811 O   0  0  0  0  0  0  0  0  0  0  0  0
  149.0102  133.4135  154.5391 C   0  0  2  0  0  0  0  0  0  0  0  0
  150.1448  134.4439  154.6736 C   0  0  0  0  0  0  0  0  0  0  0  0
  149.6639  135.8327  154.5152 N   0  3  0  0  0  0  0  0  0  0  0  0
  150.7048  136.8561  154.7368 C   0  0  0  0  0  0  0  0  0  0  0  0
  150.1152  138.2792  154.6846 C   0  0  2  0  0  0  0  0  0  0  0  0
  149.4442  138.4511  153.4523 O   0  0  0  0  0  0  0  0  0  0  0  0
  151.1705  139.3980  154.8023 C   0  0  0  0  0  0  0  0  0  0  0  0
  151.8763  139.3743  156.0704 N   0  0  0  0  0  0  0  0  0  0  0  0
  152.6075  138.3596  156.5705 C   0  0  0  0  0  0  0  0  0  0  0  0
  153.1833  138.5501  157.7538 N   0  0  0  0  0  0  0  0  0  0  0  0
  152.7733  139.8361  158.0610 C   0  0  0  0  0  0  0  0  0  0  0  0
  153.0465  140.6414  159.1880 C   0  0  0  0  0  0  0  0  0  0  0  0
  152.5203  141.9491  159.2892 C   0  0  0  0  0  0  0  0  0  0  0  0
  152.8430  142.7818  160.5175 C   0  0  0  0  0  0  0  0  0  0  0  0
  151.7034  142.4686  158.2531 C   0  0  0  0  0  0  0  0  0  0  0  0
  151.1278  143.8709  158.3402 C   0  0  0  0  0  0  0  0  0  0  0  0
  151.4178  141.6763  157.1214 C   0  0  0  0  0  0  0  0  0  0  0  0
  151.9506  140.3782  157.0306 C   0  0  0  0  0  0  0  0  0  0  0  0
  148.2997  133.4536  153.1696 C   0  0  0  0  0  0  0  0  0  0  0  0
  145.4861  133.7337  150.4182 H   0  0  0  0  0  0  0  0  0  0  0  0
  146.7026  134.5427  151.3979 H   0  0  0  0  0  0  0  0  0  0  0  0
  145.1378  134.1177  152.0940 H   0  0  0  0  0  0  0  0  0  0  0  0
  145.6997  131.6620  151.8492 H   0  0  0  0  0  0  0  0  0  0  0  0
  147.1882  132.0997  151.0448 H   0  0  0  0  0  0  0  0  0  0  0  0
  145.7535  133.6054  154.1525 H   0  0  0  0  0  0  0  0  0  0  0  0
  145.5187  131.8703  154.2701 H   0  0  0  0  0  0  0  0  0  0  0  0
  146.3692  132.8323  156.4260 H   0  0  0  0  0  0  0  0  0  0  0  0
  147.4856  131.6480  155.7761 H   0  0  0  0  0  0  0  0  0  0  0  0
  149.4515  132.4239  154.6727 H   0  0  0  0  0  0  0  0  0  0  0  0
  150.6173  134.3429  155.6515 H   0  0  0  0  0  0  0  0  0  0  0  0
  150.9150  134.2425  153.9280 H   0  0  0  0  0  0  0  0  0  0  0  0
  149.3033  135.9503  153.5790 H   0  0  0  0  0  0  0  0  0  0  0  0
  151.1497  136.6671  155.7139 H   0  0  0  0  0  0  0  0  0  0  0  0
  151.4983  136.7447  153.9962 H   0  0  0  0  0  0  0  0  0  0  0  0
  149.3847  138.3960  155.4864 H   0  0  0  0  0  0  0  0  0  0  0  0
  149.1484  137.6066  153.1471 H   0  0  0  0  0  0  0  0  0  0  0  0
  151.9034  139.3192  153.9981 H   0  0  0  0  0  0  0  0  0  0  0  0
  150.6978  140.3755  154.6947 H   0  0  0  0  0  0  0  0  0  0  0  0
  152.7280  137.4306  156.0325 H   0  0  0  0  0  0  0  0  0  0  0  0
  153.6687  140.2455  159.9774 H   0  0  0  0  0  0  0  0  0  0  0  0
  151.9288  143.0548  161.0449 H   0  0  0  0  0  0  0  0  0  0  0  0
  153.3660  143.6953  160.2336 H   0  0  0  0  0  0  0  0  0  0  0  0
  153.4800  142.2354  161.2137 H   0  0  0  0  0  0  0  0  0  0  0  0
  150.5388  144.1158  157.4560 H   0  0  0  0  0  0  0  0  0  0  0  0
  151.9266  144.6080  158.4237 H   0  0  0  0  0  0  0  0  0  0  0  0
  150.4787  143.9633  159.2111 H   0  0  0  0  0  0  0  0  0  0  0  0
  150.7967  142.0607  156.3260 H   0  0  0  0  0  0  0  0  0  0  0  0
  149.0254  133.2525  152.3822 H   0  0  0  0  0  0  0  0  0  0  0  0
  147.8891  134.4466  152.9797 H   0  0  0  0  0  0  0  0  0  0  0  0
  148.9128  135.9922  155.1719 H   0  0  0  0  0  0  0  0  0  0  0  0
  147.6190  131.5448  153.2528 H   0  0  0  0  0  0  0  0  0  0  0  0
  1  2  1  0  0  0  0
  1 26  1  0  0  0  0
  1 27  1  0  0  0  0
  1 28  1  0  0  0  0
  2  3  1  0  0  0  0
  2 29  1  0  0  0  0
  2 30  1  0  0  0  0
  3 25  1  0  0  0  0
  3  4  1  0  0  0  0
  3 57  1  0  0  0  0
  4  5  1  0  0  0  0
  4 31  1  0  0  0  0
  4 32  1  0  0  0  0
  5  6  1  0  0  0  0
  5 33  1  0  0  0  0
  5 34  1  0  0  0  0
  6  7  1  0  0  0  0
  7  8  1  0  0  0  0
  7 25  1  0  0  0  0
  7 35  1  0  0  0  0
  8  9  1  0  0  0  0
  8 36  1  0  0  0  0
  8 37  1  0  0  0  0
  9 10  1  0  0  0  0
  9 38  1  0  0  0  0
  9 56  1  0  0  0  0
 10 11  1  0  0  0  0
 10 39  1  0  0  0  0
 10 40  1  0  0  0  0
 11 12  1  0  0  0  0
 11 13  1  0  0  0  0
 11 41  1  0  0  0  0
 12 42  1  0  0  0  0
 13 14  1  0  0  0  0
 13 43  1  0  0  0  0
 13 44  1  0  0  0  0
 14 24  1  0  0  0  0
 14 15  1  0  0  0  0
 15 16  2  0  0  0  0
 15 45  1  0  0  0  0
 16 17  1  0  0  0  0
 17 24  2  0  0  0  0
 17 18  1  0  0  0  0
 18 19  2  0  0  0  0
 18 46  1  0  0  0  0
 19 20  1  0  0  0  0
 19 21  1  0  0  0  0
 20 47  1  0  0  0  0
 20 48  1  0  0  0  0
 20 49  1  0  0  0  0
 21 22  1  0  0  0  0
 21 23  2  0  0  0  0
 22 50  1  0  0  0  0
 22 51  1  0  0  0  0
 22 52  1  0  0  0  0
 23 24  1  0  0  0  0
 23 53  1  0  0  0  0
 25 54  1  0  0  0  0
 25 55  1  0  0  0  0
M  CHG  1   3   1
M  CHG  1   9   1
M  END
> <s_m_source_file>
AV-unprocessed.smi

> <i_m_source_file_index>
1047

> <i_lp_mmshare_version>
43012

> <i_f3d_flags>
0

> <s_epik_input>
W0NIM11bQ0gyXU4xW0NIMl1bQ0gyXU9bQ0BIXShbQ0gyXTEpW0NIMl1bTkhdW0NIMl1bQ0BIXShbT0hdKVtDSDJdbihbY0hdbjIpYyhjMjMpW2NIXWMoW0NIM10pYyhbY0hdMylbQ0gzXQ==

> <s_epik_cmdline>
J2VwaWtfcHl0aG9uJywgJy1waCcsICc3LjAnLCAnLXRuJywgJzgnLCAnLW1hJywgJzIwMCcsICctbWV0YWxfYmluZGluZycsICctaW1hZScsICc8aW5maWxlLm1hZT4nLCAnLW9tYWUnLCAnPG91dGZpbGUubWFlPic=

> <r_epik_Ionization_Penalty>
0.528991

> <r_epik_Ionization_Penalty_Charging>
0.438567

> <r_epik_Ionization_Penalty_Neutral>
0.0904237

> <r_epik_State_Penalty>
0.533036

> <r_epik_Charging_Adjusted_Penalty>
0.971603

> <i_epik_Tot_Q>
2

> <i_epik_Tot_abs_Q>
2

> <r_epik_Metal_State_Penalty>
0.448985

> <b_epik_Metal_Only>
0

> <s_lp_Force_Field>
OPLS_2005

> <r_lp_Energy>
33.7981

> <b_lp_Chiralities_Consistent>
1

> <s_lp_Variant>
AV-unprocessed.smi:1047-4

> <Gold.Version>
5.8.1

> <Gold.Id.Protein>
6NUR|6NUR_protein|mol2

> <Gold.PLP.Fitness>
53.3953

> <Gold.PLP.PLP>
-44.4444

> <Gold.PLP.part.hbond>
-3.0000

> <Gold.PLP.part.metal>
0.0000

> <Gold.PLP.part.buried>
-4.0306

> <Gold.PLP.part.nonpolar>
-37.6108

> <Gold.PLP.part.repulsive>
0.0545

> <Gold.PLP.ligand.clash>
0.0000

> <Gold.PLP.ligand.torsion>
0.0585

> <Gold.PLP.Chemscore.Hbond>
3.0000

> <Gold.PLP.Chemscore.CHOScore>
0.0000

> <Gold.PLP.Chemscore.Metal>
0.0000

> <Gold.Chemscore.Hbonds>
donor molecule, donor type, donor heavy atom, donor atom, acceptor molecule, acceptor atom, score
      L1  H     9    38       P1  7948  2.00
      L1  H    12    42       P1  7948  1.00

> <Gold.PLP.Chemscore.Internal.Correction>
0.0679

> <Gold.Rescore>
     Score         DG    S(hbond)    S(metal)    S(lipo)     H(rot)  DE(clash)    DE(int)     intcor
     17.38     -18.35       1.85        0.00     116.17       2.70       0.13       0.83       ----

> <Gold.Chemscore.Fitness>
17.3838

> <Gold.Chemscore.DG>
-18.3453

> <Gold.Chemscore.ZeroCoef>
-5.4800

> <Gold.Chemscore.Hbond>
1.8509

> <Gold.Chemscore.Metal>
0.0000

> <Gold.Chemscore.Lipo>
116.1669

> <Gold.Chemscore.Internal_Hbond>
0.0000

> <Gold.Chemscore.DEClash>
0.1325

> <Gold.Chemscore.DEInternal>
0.8290

> <Gold.Chemscore.Rot>
2.6985

> <Gold.Chemscore.Internal.Correction>
   9.000000E+99

> <Gold.Chemscore.Hbonds>
donor molecule, donor type, donor heavy atom, donor atom, acceptor molecule, acceptor atom, score
      L1  H     9    38       P1  7948  0.70
      L1  H    12    42       P1  7948  0.96

> <Gold.Chemscore.Hbond.Weighted>
-6.1819

> <Gold.Chemscore.Metal.Weighted>
-0.0000

> <Gold.Chemscore.Lipo.Weighted>
-13.5915

> <Gold.Chemscore.Internal_Hbond.Weighted>
0.0000

> <Gold.Chemscore.DEClash.Weighted>
0.1325

> <Gold.Chemscore.DEInternal.Weighted>
0.8290

> <Gold.Chemscore.Rot.Weighted>
6.9081

> <Gold.Chemscore.Internal.Correction.Weighted>
   9.000000E+99

> <Gold.Protein.RotatedTorsions>
[ 6907 6896 6895 6894 ] final   85.68 input  -60.11 | X-H torsion
[ 7974 7965 7964 7962 ] final   18.02 input  175.53 | X-H torsion
[ 8008 7997 7996 7995 ] final  -65.40 input   59.86 | X-H torsion
[ 10167 10162 10161 10158 ] final -108.77 input  -65.29 | X-H torsion
[ 10718 10713 10712 10709 ] final -122.45 input   66.30 | X-H torsion
[ 10763 10752 10751 10750 ] final  151.04 input  -60.55 | X-H torsion
[ 11005 11000 10999 10996 ] final   13.91 input  -57.11 | X-H torsion

> <Gold.Protein.ActiveResidues>
 VAL166  LYS551  ARG553  GLY616  TRP617  ASP618  TYR619  PRO620  LYS621  CYS622 
 ASP623  PHE694  ASN695  SER759  ASP760  ASP761  ALA762  ILE779  LEU786  VAL792 
 PHE793  MET794  SER795  GLU796  ALA797  LYS798  CYS799  TRP800  GLU811  SER814 

> <Gold.Protein.RotatedAtoms>
  152.5379  134.2549  159.8912 H   0  0  0  0  0  0  0  0  0  0  0  0  # atno 6907 bound_to 6896
  151.2511  133.4343  159.2619 H   0  0  0  0  0  0  0  0  0  0  0  0  # atno 6908 bound_to 6896
  151.0538  134.9705  159.8281 H   0  0  0  0  0  0  0  0  0  0  0  0  # atno 6909 bound_to 6896
  146.2199  139.8518  142.8621 H   0  0  0  0  0  0  0  0  0  0  0  0  # atno 7974 bound_to 7965
  154.4669  140.0934  156.7044 H   0  0  0  0  0  0  0  0  0  0  0  0  # atno 8008 bound_to 7997
  155.4832  140.3468  155.4325 H   0  0  0  0  0  0  0  0  0  0  0  0  # atno 8009 bound_to 7997
  156.0972  140.1412  156.9503 H   0  0  0  0  0  0  0  0  0  0  0  0  # atno 8010 bound_to 7997
  140.1626  143.4108  152.1414 H   0  0  0  0  0  0  0  0  0  0  0  0  # atno 10167 bound_to 10162
  156.1419  130.6472  150.9784 H   0  0  0  0  0  0  0  0  0  0  0  0  # atno 10718 bound_to 10713
  154.0972  135.2848  155.3259 H   0  0  0  0  0  0  0  0  0  0  0  0  # atno 10763 bound_to 10752
  154.6580  135.5345  153.7986 H   0  0  0  0  0  0  0  0  0  0  0  0  # atno 10764 bound_to 10752
  153.0392  135.6526  154.1138 H   0  0  0  0  0  0  0  0  0  0  0  0  # atno 10765 bound_to 10752
  140.4754  134.0988  155.7740 H   0  0  0  0  0  0  0  0  0  0  0  0  # atno 11005 bound_to 11000
  145.2794  141.0134  143.3726 LP  0  0  0  0  0  0  0  0  0  0  0  0  # atno 17320 bound_to 7965
  144.9162  139.4468  143.6563 LP  0  0  0  0  0  0  0  0  0  0  0  0  # atno 17321 bound_to 7965
  139.5374  144.7223  151.4847 LP  0  0  0  0  0  0  0  0  0  0  0  0  # atno 17342 bound_to 10162
  140.6633  143.8451  150.6913 LP  0  0  0  0  0  0  0  0  0  0  0  0  # atno 17343 bound_to 10162
  157.6583  131.0885  150.7896 LP  0  0  0  0  0  0  0  0  0  0  0  0  # atno 17370 bound_to 10713
  156.7971  130.4909  149.5375 LP  0  0  0  0  0  0  0  0  0  0  0  0  # atno 17371 bound_to 10713
  141.1557  133.8887  157.1984 LP  0  0  0  0  0  0  0  0  0  0  0  0  # atno 17394 bound_to 11000
  139.9859  135.0082  156.9861 LP  0  0  0  0  0  0  0  0  0  0  0  0  # atno 17395 bound_to 11000

$$$$
