AV-unprocessed.smi:1986|AV-procd|sdf|8046|dock6
  -GOLD-   2272010243D 1   1.00000     0.00000
 Structure written by MMmdl.
 46 47  0  0  0  0  0  0  0  0  2 V2000
  151.2667  138.2958  155.8926 C   0  0  0  0  0  0  0  0  0  0  0  0
  151.9352  139.4819  156.6099 C   0  0  0  0  0  0  0  0  0  0  0  0
  150.9679  140.4178  157.4058 C   0  0  1  0  0  0  0  0  0  0  0  0
  149.7365  140.6599  156.4928 C   0  0  0  0  0  0  0  0  0  0  0  0
  150.4854  139.6588  158.6892 C   0  0  0  0  0  0  0  0  0  0  0  0
  149.6635  138.4766  158.4284 N   0  0  0  0  0  0  0  0  0  0  0  0
  149.8996  137.2354  158.8803 C   0  0  0  0  0  0  0  0  0  0  0  0
  150.8875  136.9364  159.5526 O   0  0  0  0  0  0  0  0  0  0  0  0
  148.8549  136.1739  158.5059 C   0  0  0  0  0  0  0  0  0  0  0  0
  148.3432  135.4289  159.6654 N   0  0  0  0  0  0  0  0  0  0  0  0
  148.4384  133.9783  159.5269 N   0  5  0  0  0  0  0  0  0  0  0  0
  148.0326  133.1866  160.5549 C   0  0  0  0  0  0  0  0  0  0  0  0
  148.1067  131.9605  160.5217 O   0  0  0  0  0  0  0  0  0  0  0  0
  147.4832  133.8291  161.7375 C   0  0  0  0  0  0  0  0  0  0  0  0
  147.3741  135.1695  161.8236 C   0  0  0  0  0  0  0  0  0  0  0  0
  147.8043  136.0569  160.7500 C   0  0  0  0  0  0  0  0  0  0  0  0
  147.6961  137.2820  160.8170 O   0  0  0  0  0  0  0  0  0  0  0  0
  151.6427  141.6966  157.7848 N   0  0  0  0  0  0  0  0  0  0  0  0
  152.5380  141.6086  158.9466 C   0  0  0  0  0  0  0  0  0  0  0  0
  153.2933  142.9242  159.2031 C   0  0  0  0  0  0  0  0  0  0  0  0
  152.3659  143.9888  159.3684 O   0  0  0  0  0  0  0  0  0  0  0  0
  151.5239  144.1503  158.2346 C   0  0  0  0  0  0  0  0  0  0  0  0
  150.7487  142.8476  157.9758 C   0  0  0  0  0  0  0  0  0  0  0  0
  152.0155  137.6850  155.3885 H   0  0  0  0  0  0  0  0  0  0  0  0
  150.5568  138.6277  155.1354 H   0  0  0  0  0  0  0  0  0  0  0  0
  150.7356  137.6496  156.5913 H   0  0  0  0  0  0  0  0  0  0  0  0
  152.7177  139.0988  157.2640 H   0  0  0  0  0  0  0  0  0  0  0  0
  152.4928  140.0547  155.8684 H   0  0  0  0  0  0  0  0  0  0  0  0
  149.2892  139.7218  156.1643 H   0  0  0  0  0  0  0  0  0  0  0  0
  149.9945  141.2025  155.5841 H   0  0  0  0  0  0  0  0  0  0  0  0
  148.9521  141.2194  157.0020 H   0  0  0  0  0  0  0  0  0  0  0  0
  151.3467  139.3286  159.2707 H   0  0  0  0  0  0  0  0  0  0  0  0
  149.9272  140.3218  159.3501 H   0  0  0  0  0  0  0  0  0  0  0  0
  148.8284  138.6215  157.8800 H   0  0  0  0  0  0  0  0  0  0  0  0
  148.0181  136.6440  157.9855 H   0  0  0  0  0  0  0  0  0  0  0  0
  149.3099  135.4970  157.7804 H   0  0  0  0  0  0  0  0  0  0  0  0
  147.1524  133.2178  162.5641 H   0  0  0  0  0  0  0  0  0  0  0  0
  146.9581  135.6034  162.7204 H   0  0  0  0  0  0  0  0  0  0  0  0
  151.9707  141.3488  159.8407 H   0  0  0  0  0  0  0  0  0  0  0  0
  153.2872  140.8323  158.8093 H   0  0  0  0  0  0  0  0  0  0  0  0
  153.9024  142.8406  160.1033 H   0  0  0  0  0  0  0  0  0  0  0  0
  153.9716  143.1466  158.3777 H   0  0  0  0  0  0  0  0  0  0  0  0
  150.8317  144.9717  158.4201 H   0  0  0  0  0  0  0  0  0  0  0  0
  152.1205  144.4248  157.3633 H   0  0  0  0  0  0  0  0  0  0  0  0
  150.1265  143.0125  157.0990 H   0  0  0  0  0  0  0  0  0  0  0  0
  150.0761  142.6708  158.8148 H   0  0  0  0  0  0  0  0  0  0  0  0
  1  2  1  0  0  0  0
  1 24  1  0  0  0  0
  1 25  1  0  0  0  0
  1 26  1  0  0  0  0
  2  3  1  0  0  0  0
  2 27  1  0  0  0  0
  2 28  1  0  0  0  0
  3  4  1  0  0  0  0
  3  5  1  0  0  0  0
  3 18  1  0  0  0  0
  4 29  1  0  0  0  0
  4 30  1  0  0  0  0
  4 31  1  0  0  0  0
  5  6  1  0  0  0  0
  5 32  1  0  0  0  0
  5 33  1  0  0  0  0
  6  7  1  0  0  0  0
  6 34  1  0  0  0  0
  7  8  2  0  0  0  0
  7  9  1  0  0  0  0
  9 35  1  0  0  0  0
  9 36  1  0  0  0  0
  9 10  1  0  0  0  0
 10 11  1  0  0  0  0
 10 16  1  0  0  0  0
 11 12  1  0  0  0  0
 12 13  2  0  0  0  0
 12 14  1  0  0  0  0
 14 37  1  0  0  0  0
 14 15  2  0  0  0  0
 15 38  1  0  0  0  0
 15 16  1  0  0  0  0
 16 17  2  0  0  0  0
 18 23  1  0  0  0  0
 18 19  1  0  0  0  0
 19 20  1  0  0  0  0
 19 39  1  0  0  0  0
 19 40  1  0  0  0  0
 20 21  1  0  0  0  0
 20 41  1  0  0  0  0
 20 42  1  0  0  0  0
 21 22  1  0  0  0  0
 22 23  1  0  0  0  0
 22 43  1  0  0  0  0
 22 44  1  0  0  0  0
 23 45  1  0  0  0  0
 23 46  1  0  0  0  0
M  CHG  1  11  -1
M  END
> <s_m_source_file>
AV-unprocessed.smi

> <i_m_source_file_index>
1986

> <i_lp_mmshare_version>
43012

> <i_f3d_flags>
0

> <s_epik_input>
W0NIMl0xW0NIMl1PW0NIMl1bQ0gyXU4xW0NAQF0oW0NIM10pKFtDSDJdW0NIM10pW0NIMl1bTkhdQyg9TylbQ0gyXW4yW25IXWMoPU8pW2NIXVtjSF1jMj1P

> <s_epik_cmdline>
J2VwaWtfcHl0aG9uJywgJy1waCcsICc3LjAnLCAnLXRuJywgJzgnLCAnLW1hJywgJzIwMCcsICctbWV0YWxfYmluZGluZycsICctaW1hZScsICc8aW5maWxlLm1hZT4nLCAnLW9tYWUnLCAnPG91dGZpbGUubWFlPic=

> <r_lp_tautomer_probability>
1

> <r_epik_Ionization_Penalty>
0.416475

> <r_epik_Ionization_Penalty_Charging>
0.0978085

> <r_epik_Ionization_Penalty_Neutral>
0.318667

> <r_epik_State_Penalty>
0.355037

> <r_epik_Charging_Adjusted_Penalty>
0.452845

> <i_epik_Tot_Q>
-1

> <i_epik_Tot_abs_Q>
1

> <r_epik_Metal_State_Penalty>
0.355037

> <b_epik_Metal_Only>
0

> <s_lp_Force_Field>
OPLS_2005

> <r_lp_Energy>
59.1101

> <b_lp_Chiralities_Consistent>
1

> <s_lp_Variant>
AV-unprocessed.smi:1986-1

> <Gold.Version>
5.8.1

> <Gold.Id.Protein>
6NUR|6NUR_protein|mol2

> <Gold.PLP.Fitness>
42.3755

> <Gold.PLP.PLP>
-36.1291

> <Gold.PLP.part.hbond>
-3.7403

> <Gold.PLP.part.metal>
0.0000

> <Gold.PLP.part.buried>
-6.0363

> <Gold.PLP.part.nonpolar>
-27.0088

> <Gold.PLP.part.repulsive>
0.1817

> <Gold.PLP.ligand.clash>
0.0000

> <Gold.PLP.ligand.torsion>
0.9758

> <Gold.PLP.Chemscore.Hbond>
2.6800

> <Gold.PLP.Chemscore.CHOScore>
0.0000

> <Gold.PLP.Chemscore.Metal>
0.0000

> <Gold.Chemscore.Hbonds>
donor molecule, donor type, donor heavy atom, donor atom, acceptor molecule, acceptor atom, score
      P1  H  6896  6908       L1     8  1.00
      P1  H  6931  6943       L1    17  0.80
      P1  H  6934  6947       L1    17  0.90

> <Gold.PLP.Chemscore.Internal.Correction>
0.1579

> <Gold.Rescore>
     Score         DG    S(hbond)    S(metal)    S(lipo)     H(rot)  DE(clash)    DE(int)     intcor
     16.23     -17.99       2.77        0.00      80.68       2.42       0.00       1.76       ----

> <Gold.Chemscore.Fitness>
16.2340

> <Gold.Chemscore.DG>
-17.9911

> <Gold.Chemscore.ZeroCoef>
-5.4800

> <Gold.Chemscore.Hbond>
2.7741

> <Gold.Chemscore.Metal>
0.0000

> <Gold.Chemscore.Lipo>
80.6844

> <Gold.Chemscore.Internal_Hbond>
0.0000

> <Gold.Chemscore.DEClash>
0.0015

> <Gold.Chemscore.DEInternal>
1.7556

> <Gold.Chemscore.Rot>
2.4197

> <Gold.Chemscore.Internal.Correction>
   9.000000E+99

> <Gold.Chemscore.Hbonds>
donor molecule, donor type, donor heavy atom, donor atom, acceptor molecule, acceptor atom, score
      P1  H  6896  6908       L1     8  0.75
      P1  H  6931  6943       L1    17  0.75
      P1  H  6934  6947       L1    17  0.88

> <Gold.Chemscore.Hbond.Weighted>
-9.2654

> <Gold.Chemscore.Metal.Weighted>
-0.0000

> <Gold.Chemscore.Lipo.Weighted>
-9.4401

> <Gold.Chemscore.Internal_Hbond.Weighted>
0.0000

> <Gold.Chemscore.DEClash.Weighted>
0.0015

> <Gold.Chemscore.DEInternal.Weighted>
1.7556

> <Gold.Chemscore.Rot.Weighted>
6.1943

> <Gold.Chemscore.Internal.Correction.Weighted>
   9.000000E+99

> <Gold.Protein.RotatedTorsions>
[ 6907 6896 6895 6894 ] final -157.18 input  -60.11 | X-H torsion
[ 7974 7965 7964 7962 ] final    1.77 input  175.53 | X-H torsion
[ 8008 7997 7996 7995 ] final  -48.80 input   59.86 | X-H torsion
[ 10167 10162 10161 10158 ] final  111.38 input  -65.29 | X-H torsion
[ 10718 10713 10712 10709 ] final  121.13 input   66.30 | X-H torsion
[ 10763 10752 10751 10750 ] final  143.30 input  -60.55 | X-H torsion
[ 11005 11000 10999 10996 ] final    6.40 input  -57.11 | X-H torsion

> <Gold.Protein.ActiveResidues>
 VAL166  LYS551  ARG553  GLY616  TRP617  ASP618  TYR619  PRO620  LYS621  CYS622 
 ASP623  PHE694  ASN695  SER759  ASP760  ASP761  ALA762  ILE779  LEU786  VAL792 
 PHE793  MET794  SER795  GLU796  ALA797  LYS798  CYS799  TRP800  GLU811  SER814 

> <Gold.Protein.RotatedAtoms>
  151.2989  133.4131  159.2638 H   0  0  0  0  0  0  0  0  0  0  0  0  # atno 6907 bound_to 6896
  151.0212  134.9471  159.8071 H   0  0  0  0  0  0  0  0  0  0  0  0  # atno 6908 bound_to 6896
  152.5324  134.2952  159.9110 H   0  0  0  0  0  0  0  0  0  0  0  0  # atno 6909 bound_to 6896
  146.2441  140.0936  142.8351 H   0  0  0  0  0  0  0  0  0  0  0  0  # atno 7974 bound_to 7965
  154.4034  140.1312  156.4399 H   0  0  0  0  0  0  0  0  0  0  0  0  # atno 8008 bound_to 7997
  155.7469  140.3489  155.5111 H   0  0  0  0  0  0  0  0  0  0  0  0  # atno 8009 bound_to 7997
  155.8986  140.1015  157.1357 H   0  0  0  0  0  0  0  0  0  0  0  0  # atno 8010 bound_to 7997
  139.6615  144.7128  151.1855 H   0  0  0  0  0  0  0  0  0  0  0  0  # atno 10167 bound_to 10162
  157.5840  131.1072  150.8131 H   0  0  0  0  0  0  0  0  0  0  0  0  # atno 10718 bound_to 10713
  153.9701  135.2951  155.3428 H   0  0  0  0  0  0  0  0  0  0  0  0  # atno 10763 bound_to 10752
  154.7327  135.5060  153.8993 H   0  0  0  0  0  0  0  0  0  0  0  0  # atno 10764 bound_to 10752
  153.0904  135.6706  153.9977 H   0  0  0  0  0  0  0  0  0  0  0  0  # atno 10765 bound_to 10752
  140.5599  134.0203  155.7968 H   0  0  0  0  0  0  0  0  0  0  0  0  # atno 11005 bound_to 11000
  145.0629  140.9100  143.4928 LP  0  0  0  0  0  0  0  0  0  0  0  0  # atno 17320 bound_to 7965
  145.1055  139.2793  143.5664 LP  0  0  0  0  0  0  0  0  0  0  0  0  # atno 17321 bound_to 7965
  140.7582  143.5986  150.8723 LP  0  0  0  0  0  0  0  0  0  0  0  0  # atno 17342 bound_to 10162
  139.9644  143.6127  152.2993 LP  0  0  0  0  0  0  0  0  0  0  0  0  # atno 17343 bound_to 10162
  156.8570  130.5100  149.5307 LP  0  0  0  0  0  0  0  0  0  0  0  0  # atno 17370 bound_to 10713
  156.0888  130.5879  150.9696 LP  0  0  0  0  0  0  0  0  0  0  0  0  # atno 17371 bound_to 10713
  141.1121  133.9600  157.2891 LP  0  0  0  0  0  0  0  0  0  0  0  0  # atno 17394 bound_to 11000
  139.9413  135.0190  156.8717 LP  0  0  0  0  0  0  0  0  0  0  0  0  # atno 17395 bound_to 11000

$$$$
