AV-unprocessed.smi:2415|AV-procd|sdf|9543|dock2
  -GOLD-   2272013173D 1   1.00000     0.00000
 Structure written by MMmdl.
 33 34  0  0  0  0  0  0  0  0  1 V2000
  152.2177  145.1820  158.8953 C   0  0  0  0  0  0  0  0  0  0  0  0
  152.3090  143.6713  158.9130 C   0  0  0  0  0  0  0  0  0  0  0  0
  152.9774  142.9843  159.9473 C   0  0  0  0  0  0  0  0  0  0  0  0
  152.9934  141.5781  159.8467 C   0  0  0  0  0  0  0  0  0  0  0  0
  153.6771  140.7174  160.8870 C   0  0  0  0  0  0  0  0  0  0  0  0
  152.4029  140.9314  158.8186 N   0  0  0  0  0  0  0  0  0  0  0  0
  151.7835  141.6806  157.8958 C   0  0  0  0  0  0  0  0  0  0  0  0
  151.1760  141.0305  156.8226 N   0  0  0  0  0  0  0  0  0  0  0  0
  150.4023  141.9112  155.9478 C   0  0  0  0  0  0  0  0  0  0  0  0
  149.4811  141.1073  155.0211 C   0  0  0  0  0  0  0  0  0  0  0  0
  150.2655  140.1875  154.2771 O   0  0  0  0  0  0  0  0  0  0  0  0
  150.8955  139.2421  155.1307 C   0  0  0  0  0  0  0  0  0  0  0  0
  151.8688  139.9436  156.1086 C   0  0  2  0  0  0  0  0  0  0  0  0
  152.4820  138.8585  157.0144 C   0  0  0  0  0  0  0  0  0  0  0  0
  151.6376  138.1465  157.7652 N   0  0  0  0  0  0  0  0  0  0  0  0
  153.6978  138.6751  157.0463 O   0  0  0  0  0  0  0  0  0  0  0  0
  151.7175  143.0170  157.8897 N   0  0  0  0  0  0  0  0  0  0  0  0
  152.8177  145.6215  159.6925 H   0  0  0  0  0  0  0  0  0  0  0  0
  151.1835  145.4994  159.0311 H   0  0  0  0  0  0  0  0  0  0  0  0
  152.5766  145.5742  157.9434 H   0  0  0  0  0  0  0  0  0  0  0  0
  153.4496  143.5043  160.7679 H   0  0  0  0  0  0  0  0  0  0  0  0
  153.9359  141.3012  161.7707 H   0  0  0  0  0  0  0  0  0  0  0  0
  154.5925  140.2887  160.4788 H   0  0  0  0  0  0  0  0  0  0  0  0
  153.0230  139.9019  161.1978 H   0  0  0  0  0  0  0  0  0  0  0  0
  149.7979  142.6078  156.5302 H   0  0  0  0  0  0  0  0  0  0  0  0
  151.0922  142.5140  155.3554 H   0  0  0  0  0  0  0  0  0  0  0  0
  148.7117  140.5821  155.5894 H   0  0  0  0  0  0  0  0  0  0  0  0
  148.9675  141.7756  154.3299 H   0  0  0  0  0  0  0  0  0  0  0  0
  150.1332  138.6741  155.6684 H   0  0  0  0  0  0  0  0  0  0  0  0
  151.4342  138.5284  154.5061 H   0  0  0  0  0  0  0  0  0  0  0  0
  152.6696  140.4007  155.5240 H   0  0  0  0  0  0  0  0  0  0  0  0
  151.9925  137.4292  158.3805 H   0  0  0  0  0  0  0  0  0  0  0  0
  150.6467  138.3346  157.7192 H   0  0  0  0  0  0  0  0  0  0  0  0
  1  2  1  0  0  0  0
  1 18  1  0  0  0  0
  1 19  1  0  0  0  0
  1 20  1  0  0  0  0
  2 17  1  0  0  0  0
  2  3  2  0  0  0  0
  3  4  1  0  0  0  0
  3 21  1  0  0  0  0
  4  5  1  0  0  0  0
  4  6  2  0  0  0  0
  5 22  1  0  0  0  0
  5 23  1  0  0  0  0
  5 24  1  0  0  0  0
  6  7  1  0  0  0  0
  7  8  1  0  0  0  0
  7 17  2  0  0  0  0
  8 13  1  0  0  0  0
  8  9  1  0  0  0  0
  9 10  1  0  0  0  0
  9 25  1  0  0  0  0
  9 26  1  0  0  0  0
 10 11  1  0  0  0  0
 10 27  1  0  0  0  0
 10 28  1  0  0  0  0
 11 12  1  0  0  0  0
 12 13  1  0  0  0  0
 12 29  1  0  0  0  0
 12 30  1  0  0  0  0
 13 14  1  0  0  0  0
 13 31  1  0  0  0  0
 14 15  1  0  0  0  0
 14 16  2  0  0  0  0
 15 32  1  0  0  0  0
 15 33  1  0  0  0  0
M  END
> <s_m_source_file>
AV-unprocessed.smi

> <i_m_source_file_index>
2415

> <i_lp_mmshare_version>
43012

> <i_f3d_flags>
0

> <s_epik_input>
W0NIM11jMVtjSF1jKFtDSDNdKW5jKG4xKU4yW0NIMl1bQ0gyXU9bQ0gyXVtDQEhdMkMoPU8pW05IMl0=

> <s_epik_cmdline>
J2VwaWtfcHl0aG9uJywgJy1waCcsICc3LjAnLCAnLXRuJywgJzgnLCAnLW1hJywgJzIwMCcsICctbWV0YWxfYmluZGluZycsICctaW1hZScsICc8aW5maWxlLm1hZT4nLCAnLW9tYWUnLCAnPG91dGZpbGUubWFlPic=

> <r_lp_tautomer_probability>
1

> <r_epik_Ionization_Penalty>
2.01639e-05

> <r_epik_Ionization_Penalty_Charging>
0

> <r_epik_Ionization_Penalty_Neutral>
2.01639e-05

> <r_epik_State_Penalty>
-0

> <r_epik_Charging_Adjusted_Penalty>
0

> <i_epik_Tot_Q>
0

> <i_epik_Tot_abs_Q>
0

> <r_epik_Metal_State_Penalty>
-0

> <b_epik_Metal_Only>
0

> <s_lp_Force_Field>
OPLS_2005

> <r_lp_Energy>
9.24332

> <b_lp_Chiralities_Consistent>
1

> <s_lp_Variant>
AV-unprocessed.smi:2415-2

> <Gold.Version>
5.8.1

> <Gold.Id.Protein>
6NUR|6NUR_protein|mol2

> <Gold.PLP.Fitness>
41.8415

> <Gold.PLP.PLP>
-36.1191

> <Gold.PLP.part.hbond>
-1.6925

> <Gold.PLP.part.metal>
0.0000

> <Gold.PLP.part.buried>
-4.2801

> <Gold.PLP.part.nonpolar>
-30.0149

> <Gold.PLP.part.repulsive>
0.2555

> <Gold.PLP.ligand.clash>
0.0267

> <Gold.PLP.ligand.torsion>
0.2368

> <Gold.PLP.Chemscore.Hbond>
1.9280

> <Gold.PLP.Chemscore.CHOScore>
0.0000

> <Gold.PLP.Chemscore.Metal>
0.0000

> <Gold.Chemscore.Hbonds>
donor molecule, donor type, donor heavy atom, donor atom, acceptor molecule, acceptor atom, score
      P1  H  7989  7998       L1    11  1.00
      P1  H  7997  8008       L1    16  0.93

> <Gold.PLP.Chemscore.Internal.Correction>
0.4388

> <Gold.Rescore>
     Score         DG    S(hbond)    S(metal)    S(lipo)     H(rot)  DE(clash)    DE(int)     intcor
     12.77     -14.43       0.92        0.00      81.79       1.44       0.01       1.65       ----

> <Gold.Chemscore.Fitness>
12.7657

> <Gold.Chemscore.DG>
-14.4267

> <Gold.Chemscore.ZeroCoef>
-5.4800

> <Gold.Chemscore.Hbond>
0.9189

> <Gold.Chemscore.Metal>
0.0000

> <Gold.Chemscore.Lipo>
81.7851

> <Gold.Chemscore.Internal_Hbond>
0.0000

> <Gold.Chemscore.DEClash>
0.0106

> <Gold.Chemscore.DEInternal>
1.6505

> <Gold.Chemscore.Rot>
1.4419

> <Gold.Chemscore.Internal.Correction>
   9.000000E+99

> <Gold.Chemscore.Hbonds>
donor molecule, donor type, donor heavy atom, donor atom, acceptor molecule, acceptor atom, score
      P1  H  7989  7998       L1    11  0.30
      P1  H  7997  8008       L1    16  0.66

> <Gold.Chemscore.Hbond.Weighted>
-3.0690

> <Gold.Chemscore.Metal.Weighted>
-0.0000

> <Gold.Chemscore.Lipo.Weighted>
-9.5689

> <Gold.Chemscore.Internal_Hbond.Weighted>
0.0000

> <Gold.Chemscore.DEClash.Weighted>
0.0106

> <Gold.Chemscore.DEInternal.Weighted>
1.6505

> <Gold.Chemscore.Rot.Weighted>
3.6912

> <Gold.Chemscore.Internal.Correction.Weighted>
   9.000000E+99

> <Gold.Protein.RotatedTorsions>
[ 6907 6896 6895 6894 ] final   -5.72 input  -60.11 | X-H torsion
[ 7974 7965 7964 7962 ] final  -51.20 input  175.53 | X-H torsion
[ 8008 7997 7996 7995 ] final  -69.28 input   59.86 | X-H torsion
[ 10167 10162 10161 10158 ] final -137.23 input  -65.29 | X-H torsion
[ 10718 10713 10712 10709 ] final   71.85 input   66.30 | X-H torsion
[ 10763 10752 10751 10750 ] final -143.21 input  -60.55 | X-H torsion
[ 11005 11000 10999 10996 ] final -112.14 input  -57.11 | X-H torsion

> <Gold.Protein.ActiveResidues>
 VAL166  LYS551  ARG553  GLY616  TRP617  ASP618  TYR619  PRO620  LYS621  CYS622 
 ASP623  PHE694  ASN695  SER759  ASP760  ASP761  ALA762  ILE779  LEU786  VAL792 
 PHE793  MET794  SER795  GLU796  ALA797  LYS798  CYS799  TRP800  GLU811  SER814 

> <Gold.Protein.RotatedAtoms>
  151.4771  135.1050  159.9767 H   0  0  0  0  0  0  0  0  0  0  0  0  # atno 6907 bound_to 6896
  152.4794  133.8212  159.7065 H   0  0  0  0  0  0  0  0  0  0  0  0  # atno 6908 bound_to 6896
  150.8854  133.7253  159.2946 H   0  0  0  0  0  0  0  0  0  0  0  0  # atno 6909 bound_to 6896
  145.9216  140.7829  142.9644 H   0  0  0  0  0  0  0  0  0  0  0  0  # atno 7974 bound_to 7965
  154.4928  140.0856  156.7631 H   0  0  0  0  0  0  0  0  0  0  0  0  # atno 8008 bound_to 7997
  155.4190  140.3445  155.4251 H   0  0  0  0  0  0  0  0  0  0  0  0  # atno 8009 bound_to 7997
  156.1352  140.1513  156.8992 H   0  0  0  0  0  0  0  0  0  0  0  0  # atno 8010 bound_to 7997
  139.8599  143.7091  152.2651 H   0  0  0  0  0  0  0  0  0  0  0  0  # atno 10167 bound_to 10162
  157.6472  130.9549  150.0847 H   0  0  0  0  0  0  0  0  0  0  0  0  # atno 10718 bound_to 10713
  154.8479  135.3474  154.6150 H   0  0  0  0  0  0  0  0  0  0  0  0  # atno 10763 bound_to 10752
  153.6759  135.6982  153.5137 H   0  0  0  0  0  0  0  0  0  0  0  0  # atno 10764 bound_to 10752
  153.2706  135.4294  155.0940 H   0  0  0  0  0  0  0  0  0  0  0  0  # atno 10765 bound_to 10752
  141.0693  133.9406  157.2517 H   0  0  0  0  0  0  0  0  0  0  0  0  # atno 11005 bound_to 11000
  144.6753  140.1984  143.7389 LP  0  0  0  0  0  0  0  0  0  0  0  0  # atno 17320 bound_to 7965
  145.8543  139.2191  143.1754 LP  0  0  0  0  0  0  0  0  0  0  0  0  # atno 17321 bound_to 7965
  139.7384  144.7565  151.0691 LP  0  0  0  0  0  0  0  0  0  0  0  0  # atno 17342 bound_to 10162
  140.7776  143.5002  150.9781 LP  0  0  0  0  0  0  0  0  0  0  0  0  # atno 17343 bound_to 10162
  156.1813  130.3650  149.9031 LP  0  0  0  0  0  0  0  0  0  0  0  0  # atno 17370 bound_to 10713
  156.6983  130.8923  151.3596 LP  0  0  0  0  0  0  0  0  0  0  0  0  # atno 17371 bound_to 10713
  139.9507  135.0176  156.8986 LP  0  0  0  0  0  0  0  0  0  0  0  0  # atno 17394 bound_to 11000
  140.5707  134.0446  155.7429 LP  0  0  0  0  0  0  0  0  0  0  0  0  # atno 17395 bound_to 11000

$$$$
