AV-unprocessed.smi:1524|AV-procd|sdf|6140|dock2
  -GOLD-   22720 6283D 1   1.00000     0.00000
 Structure written by MMmdl.
 34 35  0  0  0  0  0  0  0  0  2 V2000
  150.1758  137.1717  159.5329 O   0  0  0  0  0  0  0  0  0  0  0  0
  149.1985  137.0324  158.8006 C   0  0  0  0  0  0  0  0  0  0  0  0
  148.1485  136.2221  159.0457 N   0  0  0  0  0  0  0  0  0  0  0  0
  147.9336  135.3256  160.1057 C   0  0  0  0  0  0  0  0  0  0  0  0
  148.0683  133.9730  160.0211 C   0  0  0  0  0  0  0  0  0  0  0  0
  147.8127  133.0935  161.1552 C   0  0  0  0  0  0  0  0  0  0  0  0
  147.9520  131.5826  161.1158 C   0  0  0  0  0  0  0  0  0  0  0  0
  148.8655  131.1819  161.9991 F   0  0  0  0  0  0  0  0  0  0  0  0
  146.7934  131.0040  161.4300 F   0  0  0  0  0  0  0  0  0  0  0  0
  148.3205  131.1577  159.9072 F   0  0  0  0  0  0  0  0  0  0  0  0
  147.4146  133.7876  162.2802 C   0  0  0  0  0  0  0  0  0  0  0  0
  147.2479  135.1183  162.4443 N   0  5  0  0  0  0  0  0  0  0  0  0
  147.4953  135.9329  161.3797 C   0  0  0  0  0  0  0  0  0  0  0  0
  147.3611  137.1547  161.4586 O   0  0  0  0  0  0  0  0  0  0  0  0
  149.0911  137.7327  157.6563 N   0  0  0  0  0  0  0  0  0  0  0  0
  150.0360  138.6963  157.0859 C   0  0  0  0  0  0  0  0  0  0  0  0
  151.1620  137.9788  156.3190 C   0  0  0  0  0  0  0  0  0  0  0  0
  152.2433  138.9775  155.8757 C   0  0  0  0  0  0  0  0  0  0  0  0
  152.7502  139.6825  157.0039 O   0  0  0  0  0  0  0  0  0  0  0  0
  151.7558  140.4597  157.6620 C   0  0  0  0  0  0  0  0  0  0  0  0
  150.6508  139.5426  158.2110 C   0  0  0  0  0  0  0  0  0  0  0  0
  147.3838  136.2745  158.3886 H   0  0  0  0  0  0  0  0  0  0  0  0
  148.3526  133.5041  159.0939 H   0  0  0  0  0  0  0  0  0  0  0  0
  147.1973  133.1789  163.1839 H   0  0  0  0  0  0  0  0  0  0  0  0
  148.2366  137.6019  157.1346 H   0  0  0  0  0  0  0  0  0  0  0  0
  149.5117  139.3728  156.4083 H   0  0  0  0  0  0  0  0  0  0  0  0
  151.6170  137.2187  156.9556 H   0  0  0  0  0  0  0  0  0  0  0  0
  150.7631  137.4575  155.4480 H   0  0  0  0  0  0  0  0  0  0  0  0
  153.0653  138.4484  155.3933 H   0  0  0  0  0  0  0  0  0  0  0  0
  151.8450  139.6809  155.1430 H   0  0  0  0  0  0  0  0  0  0  0  0
  152.2233  141.0119  158.4774 H   0  0  0  0  0  0  0  0  0  0  0  0
  151.3421  141.1989  156.9742 H   0  0  0  0  0  0  0  0  0  0  0  0
  149.8800  140.1392  158.7005 H   0  0  0  0  0  0  0  0  0  0  0  0
  151.0754  138.8919  158.9771 H   0  0  0  0  0  0  0  0  0  0  0  0
  1  2  2  0  0  0  0
  2  3  1  0  0  0  0
  2 15  1  0  0  0  0
  3  4  1  0  0  0  0
  3 22  1  0  0  0  0
  4 13  1  0  0  0  0
  4  5  2  0  0  0  0
  5  6  1  0  0  0  0
  5 23  1  0  0  0  0
  6  7  1  0  0  0  0
  6 11  2  0  0  0  0
  7  8  1  0  0  0  0
  7  9  1  0  0  0  0
  7 10  1  0  0  0  0
 11 12  1  0  0  0  0
 11 24  1  0  0  0  0
 12 13  1  0  0  0  0
 13 14  2  0  0  0  0
 15 16  1  0  0  0  0
 15 25  1  0  0  0  0
 16 21  1  0  0  0  0
 16 17  1  0  0  0  0
 16 26  1  0  0  0  0
 17 18  1  0  0  0  0
 17 27  1  0  0  0  0
 17 28  1  0  0  0  0
 18 19  1  0  0  0  0
 18 29  1  0  0  0  0
 18 30  1  0  0  0  0
 19 20  1  0  0  0  0
 20 21  1  0  0  0  0
 20 31  1  0  0  0  0
 20 32  1  0  0  0  0
 21 33  1  0  0  0  0
 21 34  1  0  0  0  0
M  CHG  1  12  -1
M  END
> <s_m_source_file>
AV-unprocessed.smi

> <i_m_source_file_index>
1524

> <i_lp_mmshare_version>
43012

> <i_f3d_flags>
0

> <s_epik_input>
W0NIMl0xW0NIMl1PW0NIMl1bQ0gyXVtDSF0xW05IXUMoPU8pW05IXWMyW2NIXWMoQyhGKShGKUYpW2NIXVtuSF1jMj1P

> <s_epik_cmdline>
J2VwaWtfcHl0aG9uJywgJy1waCcsICc3LjAnLCAnLXRuJywgJzgnLCAnLW1hJywgJzIwMCcsICctbWV0YWxfYmluZGluZycsICctaW1hZScsICc8aW5maWxlLm1hZT4nLCAnLW9tYWUnLCAnPG91dGZpbGUubWFlPic=

> <r_lp_tautomer_probability>
1

> <r_epik_Ionization_Penalty>
3.17101

> <r_epik_Ionization_Penalty_Charging>
0.175581

> <r_epik_Ionization_Penalty_Neutral>
2.99543

> <r_epik_State_Penalty>
2.99161

> <r_epik_Charging_Adjusted_Penalty>
3.16719

> <i_epik_Tot_Q>
-1

> <i_epik_Tot_abs_Q>
1

> <r_epik_Metal_State_Penalty>
0.453119

> <b_epik_Metal_Only>
1

> <s_lp_Force_Field>
OPLS_2005

> <r_lp_Energy>
32.5819

> <b_lp_Chiralities_Consistent>
1

> <s_lp_Variant>
AV-unprocessed.smi:1524-2

> <Gold.Version>
5.8.1

> <Gold.Id.Protein>
6NUR|6NUR_protein|mol2

> <Gold.PLP.Fitness>
39.1398

> <Gold.PLP.PLP>
-31.0814

> <Gold.PLP.part.hbond>
-3.4972

> <Gold.PLP.part.metal>
0.0000

> <Gold.PLP.part.buried>
-5.2481

> <Gold.PLP.part.nonpolar>
-22.4120

> <Gold.PLP.part.repulsive>
0.1930

> <Gold.PLP.ligand.clash>
0.0000

> <Gold.PLP.ligand.torsion>
1.0287

> <Gold.PLP.Chemscore.Hbond>
3.3693

> <Gold.PLP.Chemscore.CHOScore>
0.0000

> <Gold.PLP.Chemscore.Metal>
0.0000

> <Gold.Chemscore.Hbonds>
donor molecule, donor type, donor heavy atom, donor atom, acceptor molecule, acceptor atom, score
      P1  H  6896  6908       L1     1  0.26
      P1  H  6931  6943       L1    14  0.87
      P1  H  6934  6947       L1    14  0.93
      P1  H  7997  8008       L1    19  0.88

> <Gold.PLP.Chemscore.Internal.Correction>
0.0080

> <Gold.Rescore>
     Score         DG    S(hbond)    S(metal)    S(lipo)     H(rot)  DE(clash)    DE(int)     intcor
     18.63     -20.58       3.46        0.00      52.19       1.00       0.01       1.94       ----

> <Gold.Chemscore.Fitness>
18.6271

> <Gold.Chemscore.DG>
-20.5778

> <Gold.Chemscore.ZeroCoef>
-5.4800

> <Gold.Chemscore.Hbond>
3.4585

> <Gold.Chemscore.Metal>
0.0000

> <Gold.Chemscore.Lipo>
52.1916

> <Gold.Chemscore.Internal_Hbond>
0.0000

> <Gold.Chemscore.DEClash>
0.0074

> <Gold.Chemscore.DEInternal>
1.9433

> <Gold.Chemscore.Rot>
1.0000

> <Gold.Chemscore.Internal.Correction>
   9.000000E+99

> <Gold.Chemscore.Hbonds>
donor molecule, donor type, donor heavy atom, donor atom, acceptor molecule, acceptor atom, score
      P1  H  6896  6908       L1     1  0.20
      P1  H  6931  6943       L1    14  0.78
      P1  H  6934  6947       L1    14  0.90
      P1  H  7997  8008       L1    19  0.17

> <Gold.Chemscore.Hbond.Weighted>
-11.5513

> <Gold.Chemscore.Metal.Weighted>
-0.0000

> <Gold.Chemscore.Lipo.Weighted>
-6.1064

> <Gold.Chemscore.Internal_Hbond.Weighted>
0.0000

> <Gold.Chemscore.DEClash.Weighted>
0.0074

> <Gold.Chemscore.DEInternal.Weighted>
1.9433

> <Gold.Chemscore.Rot.Weighted>
2.5600

> <Gold.Chemscore.Internal.Correction.Weighted>
   9.000000E+99

> <Gold.Protein.RotatedTorsions>
[ 6907 6896 6895 6894 ] final -140.11 input  -60.11 | X-H torsion
[ 7974 7965 7964 7962 ] final   -4.57 input  175.53 | X-H torsion
[ 8008 7997 7996 7995 ] final  -38.90 input   59.86 | X-H torsion
[ 10167 10162 10161 10158 ] final   -0.66 input  -65.29 | X-H torsion
[ 10718 10713 10712 10709 ] final   43.27 input   66.30 | X-H torsion
[ 10763 10752 10751 10750 ] final  124.89 input  -60.55 | X-H torsion
[ 11005 11000 10999 10996 ] final   89.13 input  -57.11 | X-H torsion

> <Gold.Protein.ActiveResidues>
 VAL166  LYS551  ARG553  GLY616  TRP617  ASP618  TYR619  PRO620  LYS621  CYS622 
 ASP623  PHE694  ASN695  SER759  ASP760  ASP761  ALA762  ILE779  LEU786  VAL792 
 PHE793  MET794  SER795  GLU796  ALA797  LYS798  CYS799  TRP800  GLU811  SER814 

> <Gold.Protein.RotatedAtoms>
  151.0565  133.5580  159.2637 H   0  0  0  0  0  0  0  0  0  0  0  0  # atno 6907 bound_to 6896
  151.2572  135.0641  159.9094 H   0  0  0  0  0  0  0  0  0  0  0  0  # atno 6908 bound_to 6896
  152.5390  134.0316  159.8081 H   0  0  0  0  0  0  0  0  0  0  0  0  # atno 6909 bound_to 6896
  146.2370  140.1891  142.8332 H   0  0  0  0  0  0  0  0  0  0  0  0  # atno 7974 bound_to 7965
  154.4030  140.1565  156.2775 H   0  0  0  0  0  0  0  0  0  0  0  0  # atno 8008 bound_to 7997
  155.8899  140.3439  155.5926 H   0  0  0  0  0  0  0  0  0  0  0  0  # atno 8009 bound_to 7997
  155.7571  140.0812  157.2164 H   0  0  0  0  0  0  0  0  0  0  0  0  # atno 8010 bound_to 7997
  140.6777  143.6868  150.8060 H   0  0  0  0  0  0  0  0  0  0  0  0  # atno 10167 bound_to 10162
  157.4140  130.7931  149.7456 H   0  0  0  0  0  0  0  0  0  0  0  0  # atno 10718 bound_to 10713
  153.6686  135.3334  155.3147 H   0  0  0  0  0  0  0  0  0  0  0  0  # atno 10763 bound_to 10752
  154.8497  135.4381  154.1729 H   0  0  0  0  0  0  0  0  0  0  0  0  # atno 10764 bound_to 10752
  153.2714  135.7000  153.7552 H   0  0  0  0  0  0  0  0  0  0  0  0  # atno 10765 bound_to 10752
  139.8881  134.8532  156.3098 H   0  0  0  0  0  0  0  0  0  0  0  0  # atno 11005 bound_to 11000
  144.9872  140.8514  143.5361 LP  0  0  0  0  0  0  0  0  0  0  0  0  # atno 17320 bound_to 7965
  145.1892  139.2310  143.5251 LP  0  0  0  0  0  0  0  0  0  0  0  0  # atno 17321 bound_to 7965
  140.0564  143.5199  152.2649 LP  0  0  0  0  0  0  0  0  0  0  0  0  # atno 17342 bound_to 10162
  139.6079  144.7601  151.3019 LP  0  0  0  0  0  0  0  0  0  0  0  0  # atno 17343 bound_to 10162
  155.9859  130.3979  150.3237 LP  0  0  0  0  0  0  0  0  0  0  0  0  # atno 17370 bound_to 10713
  157.1378  131.0288  151.2941 LP  0  0  0  0  0  0  0  0  0  0  0  0  # atno 17371 bound_to 10713
  140.9857  133.7239  156.0739 LP  0  0  0  0  0  0  0  0  0  0  0  0  # atno 17394 bound_to 11000
  140.7691  134.3853  157.5511 LP  0  0  0  0  0  0  0  0  0  0  0  0  # atno 17395 bound_to 11000

$$$$
