AV-unprocessed.smi:817|AV-procd|sdf|3830|dock4
  -GOLD-   22720 1273D 1   1.00000     0.00000
 Structure written by MMmdl.
 48 49  0  0  0  0  0  0  0  0  2 V2000
  143.4693  132.3273  148.7337 C   0  0  0  0  0  0  0  0  0  0  0  0
  144.3708  133.1499  149.6658 C   0  0  2  0  0  0  0  0  0  0  0  0
  145.7912  132.5615  149.7259 C   0  0  0  0  0  0  0  0  0  0  0  0
  146.6959  133.3570  150.6761 C   0  0  0  0  0  0  0  0  0  0  0  0
  146.0684  133.4554  152.0777 C   0  0  0  0  0  0  0  0  0  0  0  0
  144.6294  134.0671  152.0927 C   0  0  2  0  0  0  0  0  0  0  0  0
  144.7077  135.5610  151.6488 C   0  0  0  0  0  0  0  0  0  0  0  0
  145.9170  136.2286  152.1357 N   0  0  0  0  0  0  0  0  0  0  0  0
  146.0006  137.4227  152.7468 C   0  0  0  0  0  0  0  0  0  0  0  0
  144.9932  138.0885  152.9722 O   0  0  0  0  0  0  0  0  0  0  0  0
  147.2560  137.7796  153.0832 N   0  0  0  0  0  0  0  0  0  0  0  0
  147.7129  138.9609  153.7279 C   0  0  0  0  0  0  0  0  0  0  0  0
  148.9734  139.0986  154.3589 C   0  0  0  0  0  0  0  0  0  0  0  0
  149.2942  140.3233  154.9759 C   0  0  0  0  0  0  0  0  0  0  0  0
  148.3437  141.3620  154.9462 C   0  0  0  0  0  0  0  0  0  0  0  0
  147.1349  141.2414  154.3586 N   0  0  0  0  0  0  0  0  0  0  0  0
  146.8347  140.0647  153.7689 C   0  0  0  0  0  0  0  0  0  0  0  0
  144.0384  134.0126  153.4840 N   0  3  0  0  0  0  0  0  0  0  0  0
  142.6854  134.6046  153.6533 C   0  0  0  0  0  0  0  0  0  0  0  0
  144.9385  134.4652  154.5777 C   0  0  0  0  0  0  0  0  0  0  0  0
  143.7586  133.2619  151.0811 C   0  0  0  0  0  0  0  0  0  0  0  0
  143.3560  131.3032  149.0905 H   0  0  0  0  0  0  0  0  0  0  0  0
  143.8826  132.2840  147.7257 H   0  0  0  0  0  0  0  0  0  0  0  0
  142.4741  132.7666  148.6612 H   0  0  0  0  0  0  0  0  0  0  0  0
  144.4371  134.1486  149.2345 H   0  0  0  0  0  0  0  0  0  0  0  0
  145.7447  131.5230  150.0573 H   0  0  0  0  0  0  0  0  0  0  0  0
  146.2332  132.5456  148.7291 H   0  0  0  0  0  0  0  0  0  0  0  0
  147.6655  132.8634  150.7480 H   0  0  0  0  0  0  0  0  0  0  0  0
  146.9007  134.3450  150.2656 H   0  0  0  0  0  0  0  0  0  0  0  0
  146.0545  132.4329  152.4531 H   0  0  0  0  0  0  0  0  0  0  0  0
  146.7325  134.0113  152.7405 H   0  0  0  0  0  0  0  0  0  0  0  0
  144.6822  135.6620  150.5655 H   0  0  0  0  0  0  0  0  0  0  0  0
  143.8313  136.1074  151.9972 H   0  0  0  0  0  0  0  0  0  0  0  0
  146.7884  135.7422  151.9814 H   0  0  0  0  0  0  0  0  0  0  0  0
  147.9722  137.0947  152.8907 H   0  0  0  0  0  0  0  0  0  0  0  0
  149.6932  138.2966  154.3960 H   0  0  0  0  0  0  0  0  0  0  0  0
  150.2473  140.4618  155.4647 H   0  0  0  0  0  0  0  0  0  0  0  0
  148.5580  142.3130  155.4109 H   0  0  0  0  0  0  0  0  0  0  0  0
  145.8580  140.0040  153.3113 H   0  0  0  0  0  0  0  0  0  0  0  0
  142.6527  135.6423  153.3218 H   0  0  0  0  0  0  0  0  0  0  0  0
  142.3813  134.5835  154.7002 H   0  0  0  0  0  0  0  0  0  0  0  0
  141.9273  134.0366  153.1150 H   0  0  0  0  0  0  0  0  0  0  0  0
  145.0969  135.5434  154.5468 H   0  0  0  0  0  0  0  0  0  0  0  0
  145.9086  133.9725  154.5565 H   0  0  0  0  0  0  0  0  0  0  0  0
  144.4983  134.2291  155.5471 H   0  0  0  0  0  0  0  0  0  0  0  0
  142.7710  133.7144  150.9886 H   0  0  0  0  0  0  0  0  0  0  0  0
  143.5913  132.2537  151.4609 H   0  0  0  0  0  0  0  0  0  0  0  0
  143.9012  133.0277  153.6598 H   0  0  0  0  0  0  0  0  0  0  0  0
  1  2  1  0  0  0  0
  1 22  1  0  0  0  0
  1 23  1  0  0  0  0
  1 24  1  0  0  0  0
  2 21  1  0  0  0  0
  2  3  1  0  0  0  0
  2 25  1  0  0  0  0
  3  4  1  0  0  0  0
  3 26  1  0  0  0  0
  3 27  1  0  0  0  0
  4  5  1  0  0  0  0
  4 28  1  0  0  0  0
  4 29  1  0  0  0  0
  5  6  1  0  0  0  0
  5 30  1  0  0  0  0
  5 31  1  0  0  0  0
  6  7  1  0  0  0  0
  6 18  1  0  0  0  0
  6 21  1  0  0  0  0
  7  8  1  0  0  0  0
  7 32  1  0  0  0  0
  7 33  1  0  0  0  0
  8  9  1  0  0  0  0
  8 34  1  0  0  0  0
  9 10  2  0  0  0  0
  9 11  1  0  0  0  0
 11 12  1  0  0  0  0
 11 35  1  0  0  0  0
 12 17  1  0  0  0  0
 12 13  2  0  0  0  0
 13 14  1  0  0  0  0
 13 36  1  0  0  0  0
 14 15  2  0  0  0  0
 14 37  1  0  0  0  0
 15 16  1  0  0  0  0
 15 38  1  0  0  0  0
 16 17  2  0  0  0  0
 17 39  1  0  0  0  0
 18 19  1  0  0  0  0
 18 20  1  0  0  0  0
 18 48  1  0  0  0  0
 19 40  1  0  0  0  0
 19 41  1  0  0  0  0
 19 42  1  0  0  0  0
 20 43  1  0  0  0  0
 20 44  1  0  0  0  0
 20 45  1  0  0  0  0
 21 46  1  0  0  0  0
 21 47  1  0  0  0  0
M  CHG  1  18   1
M  END
> <s_m_source_file>
AV-unprocessed.smi

> <i_m_source_file_index>
817

> <i_lp_mmshare_version>
43012

> <i_f3d_flags>
0

> <s_epik_input>
W0NIM11bQ0BASF0oW0NIMl0xKVtDSDJdW0NIMl1bQ0gyXVtDQF0xKE4oW0NIM10pW0NIM10pW0NIMl1bTkhdQyg9TylbTkhdYzJbY0hdW2NIXVtjSF1uW2NIXTI=

> <s_epik_cmdline>
J2VwaWtfcHl0aG9uJywgJy1waCcsICc3LjAnLCAnLXRuJywgJzgnLCAnLW1hJywgJzIwMCcsICctbWV0YWxfYmluZGluZycsICctaW1hZScsICc8aW5maWxlLm1hZT4nLCAnLW9tYWUnLCAnPG91dGZpbGUubWFlPic=

> <r_lp_tautomer_probability>
1

> <r_epik_Ionization_Penalty>
0.00584939

> <r_epik_Ionization_Penalty_Charging>
0.00160539

> <r_epik_Ionization_Penalty_Neutral>
0.004244

> <r_epik_State_Penalty>
-0

> <r_epik_Charging_Adjusted_Penalty>
0.00160539

> <i_epik_Tot_Q>
1

> <i_epik_Tot_abs_Q>
1

> <r_epik_Metal_State_Penalty>
-0

> <b_epik_Metal_Only>
0

> <s_lp_Force_Field>
OPLS_2005

> <r_lp_Energy>
49.7529

> <b_lp_Chiralities_Consistent>
1

> <s_lp_Variant>
AV-unprocessed.smi:817-3

> <Gold.Version>
5.8.1

> <Gold.Id.Protein>
6NUR|6NUR_protein|mol2

> <Gold.PLP.Fitness>
47.9897

> <Gold.PLP.PLP>
-34.4547

> <Gold.PLP.part.hbond>
-2.7390

> <Gold.PLP.part.metal>
0.0000

> <Gold.PLP.part.buried>
-2.8749

> <Gold.PLP.part.nonpolar>
-34.4596

> <Gold.PLP.part.repulsive>
3.2889

> <Gold.PLP.ligand.clash>
0.0000

> <Gold.PLP.ligand.torsion>
0.6726

> <Gold.PLP.Chemscore.Hbond>
2.9240

> <Gold.PLP.Chemscore.CHOScore>
2.0000

> <Gold.PLP.Chemscore.Metal>
0.0000

> <Gold.Chemscore.Hbonds>
donor molecule, donor type, donor heavy atom, donor atom, acceptor molecule, acceptor atom, score
      L1  H     8    34       P1  7948  0.45
      L1  H    11    35       P1  7948  1.00
      L1  H    18    48       P1 10957  1.38
      L1  C    15    38       P1  8028  1.00
      L1  C    17    39       P1 10175  1.00

> <Gold.PLP.Chemscore.Internal.Correction>
0.1080

> <Gold.Rescore>
     Score         DG    S(hbond)    S(metal)    S(lipo)     H(rot)  DE(clash)    DE(int)     intcor
     18.54     -20.51       2.54        0.00      87.50       1.44       0.05       1.92       ----

> <Gold.Chemscore.Fitness>
18.5382

> <Gold.Chemscore.DG>
-20.5133

> <Gold.Chemscore.ZeroCoef>
-5.4800

> <Gold.Chemscore.Hbond>
2.5400

> <Gold.Chemscore.Metal>
0.0000

> <Gold.Chemscore.Lipo>
87.4995

> <Gold.Chemscore.Internal_Hbond>
0.0000

> <Gold.Chemscore.DEClash>
0.0525

> <Gold.Chemscore.DEInternal>
1.9225

> <Gold.Chemscore.Rot>
1.4405

> <Gold.Chemscore.Internal.Correction>
   9.000000E+99

> <Gold.Chemscore.Hbonds>
donor molecule, donor type, donor heavy atom, donor atom, acceptor molecule, acceptor atom, score
      L1  H     8    34       P1  7948  0.45
      L1  H    11    35       P1  7948  0.96
      L1  H    18    48       P1 10957  0.61

> <Gold.Chemscore.Hbond.Weighted>
-8.4836

> <Gold.Chemscore.Metal.Weighted>
-0.0000

> <Gold.Chemscore.Lipo.Weighted>
-10.2374

> <Gold.Chemscore.Internal_Hbond.Weighted>
0.0000

> <Gold.Chemscore.DEClash.Weighted>
0.0525

> <Gold.Chemscore.DEInternal.Weighted>
1.9225

> <Gold.Chemscore.Rot.Weighted>
3.6878

> <Gold.Chemscore.Internal.Correction.Weighted>
   9.000000E+99

> <Gold.Protein.RotatedTorsions>
[ 6907 6896 6895 6894 ] final -154.97 input  -60.11 | X-H torsion
[ 7974 7965 7964 7962 ] final  137.80 input  175.53 | X-H torsion
[ 8008 7997 7996 7995 ] final  132.20 input   59.86 | X-H torsion
[ 10167 10162 10161 10158 ] final  138.56 input  -65.29 | X-H torsion
[ 10718 10713 10712 10709 ] final   85.78 input   66.30 | X-H torsion
[ 10763 10752 10751 10750 ] final    2.13 input  -60.55 | X-H torsion
[ 11005 11000 10999 10996 ] final  -97.81 input  -57.11 | X-H torsion

> <Gold.Protein.ActiveResidues>
 VAL166  LYS551  ARG553  GLY616  TRP617  ASP618  TYR619  PRO620  LYS621  CYS622 
 ASP623  PHE694  ASN695  SER759  ASP760  ASP761  ALA762  ILE779  LEU786  VAL792 
 PHE793  MET794  SER795  GLU796  ALA797  LYS798  CYS799  TRP800  GLU811  SER814 

> <Gold.Protein.RotatedAtoms>
  151.2655  133.4281  159.2618 H   0  0  0  0  0  0  0  0  0  0  0  0  # atno 6907 bound_to 6896
  151.0492  134.9661  159.8213 H   0  0  0  0  0  0  0  0  0  0  0  0  # atno 6908 bound_to 6896
  152.5379  134.2610  159.8988 H   0  0  0  0  0  0  0  0  0  0  0  0  # atno 6909 bound_to 6896
  144.9433  139.4905  143.5561 H   0  0  0  0  0  0  0  0  0  0  0  0  # atno 7974 bound_to 7965
  156.2979  140.2552  156.3050 H   0  0  0  0  0  0  0  0  0  0  0  0  # atno 8008 bound_to 7997
  154.9381  140.0397  157.2101 H   0  0  0  0  0  0  0  0  0  0  0  0  # atno 8009 bound_to 7997
  154.8153  140.2851  155.5829 H   0  0  0  0  0  0  0  0  0  0  0  0  # atno 8010 bound_to 7997
  139.5107  144.6346  151.5730 H   0  0  0  0  0  0  0  0  0  0  0  0  # atno 10167 bound_to 10162
  157.6919  131.0189  150.2874 H   0  0  0  0  0  0  0  0  0  0  0  0  # atno 10718 bound_to 10713
  153.2993  135.6954  153.7218 H   0  0  0  0  0  0  0  0  0  0  0  0  # atno 10763 bound_to 10752
  153.6138  135.3439  155.2988 H   0  0  0  0  0  0  0  0  0  0  0  0  # atno 10764 bound_to 10752
  154.8546  135.4370  154.2100 H   0  0  0  0  0  0  0  0  0  0  0  0  # atno 10765 bound_to 10752
  141.1366  133.8199  157.0756 H   0  0  0  0  0  0  0  0  0  0  0  0  # atno 11005 bound_to 11000
  146.3294  139.8468  142.8880 LP  0  0  0  0  0  0  0  0  0  0  0  0  # atno 17320 bound_to 7965
  145.2957  141.0180  143.3637 LP  0  0  0  0  0  0  0  0  0  0  0  0  # atno 17321 bound_to 7965
  140.6091  143.9470  150.6440 LP  0  0  0  0  0  0  0  0  0  0  0  0  # atno 17342 bound_to 10162
  140.2707  143.3458  152.1241 LP  0  0  0  0  0  0  0  0  0  0  0  0  # atno 17343 bound_to 10162
  156.3410  130.3815  149.7409 LP  0  0  0  0  0  0  0  0  0  0  0  0  # atno 17370 bound_to 10713
  156.4918  130.8088  151.3097 LP  0  0  0  0  0  0  0  0  0  0  0  0  # atno 17371 bound_to 10713
  140.0483  134.9818  157.1090 LP  0  0  0  0  0  0  0  0  0  0  0  0  # atno 17394 bound_to 11000
  140.4028  134.2064  155.7163 LP  0  0  0  0  0  0  0  0  0  0  0  0  # atno 17395 bound_to 11000

$$$$
