AV-unprocessed.smi:1958|AV-procd|sdf|7911|dock7
  -GOLD-   2272010 73D 1   1.00000     0.00000
 Structure written by MMmdl.
 47 48  0  0  0  0  0  0  0  0  3 V2000
  152.3358  144.5383  158.5121 C   0  0  0  0  0  0  0  0  0  0  0  0
  151.3708  143.5032  158.5802 O   0  0  0  0  0  0  0  0  0  0  0  0
  150.8243  143.1869  157.3110 C   0  0  0  0  0  0  0  0  0  0  0  0
  150.1961  141.7865  157.3754 C   0  0  0  0  0  0  0  0  0  0  0  0
  149.2292  141.5790  156.2927 N   0  0  0  0  0  0  0  0  0  0  0  0
  147.9552  142.0386  156.5794 N   0  0  0  0  0  0  0  0  0  0  0  0
  147.0031  141.9163  155.7108 C   0  0  0  0  0  0  0  0  0  0  0  0
  145.6155  142.3959  156.0050 C   0  0  0  0  0  0  0  0  0  0  0  0
  144.7027  141.8600  155.3627 O   0  0  0  0  0  0  0  0  0  0  0  0
  145.4610  143.3689  156.9540 N   0  5  0  0  0  0  0  0  0  0  0  0
  144.5463  144.5079  156.8602 C   0  0  0  0  0  0  0  0  0  0  0  0
  144.5549  145.3355  158.1754 C   0  0  1  0  0  0  0  0  0  0  0  0
  145.4590  144.7488  159.2890 C   0  0  0  0  0  0  0  0  0  0  0  0
  144.8425  146.7760  157.8911 N   0  3  0  0  0  0  0  0  0  0  0  0
  144.2318  147.2623  156.6286 C   0  0  0  0  0  0  0  0  0  0  0  0
  144.7173  148.6875  156.3145 C   0  0  0  0  0  0  0  0  0  0  0  0
  144.4196  149.5513  157.4044 O   0  0  0  0  0  0  0  0  0  0  0  0
  145.0688  149.1418  158.6020 C   0  0  0  0  0  0  0  0  0  0  0  0
  144.5763  147.7401  158.9955 C   0  0  0  0  0  0  0  0  0  0  0  0
  147.2596  141.2973  154.4175 C   0  0  0  0  0  0  0  0  0  0  0  0
  148.5091  140.8589  154.1501 C   0  0  0  0  0  0  0  0  0  0  0  0
  149.5993  140.9885  155.1174 C   0  0  0  0  0  0  0  0  0  0  0  0
  150.7467  140.6031  154.8937 O   0  0  0  0  0  0  0  0  0  0  0  0
  152.7196  144.7476  159.5105 H   0  0  0  0  0  0  0  0  0  0  0  0
  151.9012  145.4579  158.1186 H   0  0  0  0  0  0  0  0  0  0  0  0
  153.1781  144.2507  157.8817 H   0  0  0  0  0  0  0  0  0  0  0  0
  150.0688  143.9247  157.0358 H   0  0  0  0  0  0  0  0  0  0  0  0
  151.6077  143.2180  156.5520 H   0  0  0  0  0  0  0  0  0  0  0  0
  150.9763  141.0242  157.3390 H   0  0  0  0  0  0  0  0  0  0  0  0
  149.7059  141.6537  158.3418 H   0  0  0  0  0  0  0  0  0  0  0  0
  144.8117  145.1604  156.0282 H   0  0  0  0  0  0  0  0  0  0  0  0
  143.5248  144.1854  156.6516 H   0  0  0  0  0  0  0  0  0  0  0  0
  143.5325  145.2987  158.5552 H   0  0  0  0  0  0  0  0  0  0  0  0
  145.1314  143.7536  159.5952 H   0  0  0  0  0  0  0  0  0  0  0  0
  145.4276  145.3715  160.1830 H   0  0  0  0  0  0  0  0  0  0  0  0
  146.5038  144.6653  158.9846 H   0  0  0  0  0  0  0  0  0  0  0  0
  144.4997  146.6030  155.8019 H   0  0  0  0  0  0  0  0  0  0  0  0
  143.1445  147.2451  156.7144 H   0  0  0  0  0  0  0  0  0  0  0  0
  145.7894  148.6969  156.1114 H   0  0  0  0  0  0  0  0  0  0  0  0
  144.2214  149.0641  155.4199 H   0  0  0  0  0  0  0  0  0  0  0  0
  146.1518  149.1533  158.4686 H   0  0  0  0  0  0  0  0  0  0  0  0
  144.8368  149.8571  159.3912 H   0  0  0  0  0  0  0  0  0  0  0  0
  143.5079  147.7842  159.2101 H   0  0  0  0  0  0  0  0  0  0  0  0
  145.0752  147.4242  159.9121 H   0  0  0  0  0  0  0  0  0  0  0  0
  146.4794  141.1860  153.6789 H   0  0  0  0  0  0  0  0  0  0  0  0
  148.7113  140.3987  153.1944 H   0  0  0  0  0  0  0  0  0  0  0  0
  145.8393  146.8064  157.7295 H   0  0  0  0  0  0  0  0  0  0  0  0
  1  2  1  0  0  0  0
  1 24  1  0  0  0  0
  1 25  1  0  0  0  0
  1 26  1  0  0  0  0
  2  3  1  0  0  0  0
  3  4  1  0  0  0  0
  3 27  1  0  0  0  0
  3 28  1  0  0  0  0
  4  5  1  0  0  0  0
  4 29  1  0  0  0  0
  4 30  1  0  0  0  0
  5 22  1  0  0  0  0
  5  6  1  0  0  0  0
  6  7  2  0  0  0  0
  7  8  1  0  0  0  0
  7 20  1  0  0  0  0
  8  9  2  0  0  0  0
  8 10  1  0  0  0  0
 10 11  1  0  0  0  0
 11 12  1  0  0  0  0
 11 31  1  0  0  0  0
 11 32  1  0  0  0  0
 12 13  1  0  0  0  0
 12 14  1  0  0  0  0
 12 33  1  0  0  0  0
 13 34  1  0  0  0  0
 13 35  1  0  0  0  0
 13 36  1  0  0  0  0
 14 19  1  0  0  0  0
 14 15  1  0  0  0  0
 14 47  1  0  0  0  0
 15 16  1  0  0  0  0
 15 37  1  0  0  0  0
 15 38  1  0  0  0  0
 16 17  1  0  0  0  0
 16 39  1  0  0  0  0
 16 40  1  0  0  0  0
 17 18  1  0  0  0  0
 18 19  1  0  0  0  0
 18 41  1  0  0  0  0
 18 42  1  0  0  0  0
 19 43  1  0  0  0  0
 19 44  1  0  0  0  0
 20 21  2  0  0  0  0
 20 45  1  0  0  0  0
 21 22  1  0  0  0  0
 21 46  1  0  0  0  0
 22 23  2  0  0  0  0
M  CHG  1  10  -1
M  CHG  1  14   1
M  END
> <s_m_source_file>
AV-unprocessed.smi

> <i_m_source_file_index>
1958

> <i_lp_mmshare_version>
43012

> <i_f3d_flags>
0

> <s_epik_input>
W0NIM11PW0NIMl1bQ0gyXW4xbmMoW2NIXVtjSF1jMT1PKUMoPU8pW05IXVtDSDJdW0NASF0oW0NIM10pTjJbQ0gyXVtDSDJdT1tDSDJdW0NIMl0y

> <s_epik_cmdline>
J2VwaWtfcHl0aG9uJywgJy1waCcsICc3LjAnLCAnLXRuJywgJzgnLCAnLW1hJywgJzIwMCcsICctbWV0YWxfYmluZGluZycsICctaW1hZScsICc8aW5maWxlLm1hZT4nLCAnLW9tYWUnLCAnPG91dGZpbGUubWFlPic=

> <r_lp_tautomer_probability>
1

> <r_epik_Ionization_Penalty>
6.89388

> <r_epik_Ionization_Penalty_Charging>
6.89388

> <r_epik_Ionization_Penalty_Neutral>
1.08445e-11

> <r_epik_State_Penalty>
7.53214

> <r_epik_Charging_Adjusted_Penalty>
14.426

> <i_epik_Tot_Q>
0

> <i_epik_Tot_abs_Q>
2

> <r_epik_Metal_State_Penalty>
3.44743

> <b_epik_Metal_Only>
1

> <s_lp_Force_Field>
OPLS_2005

> <r_lp_Energy>
43.2643

> <b_lp_Chiralities_Consistent>
1

> <s_lp_Variant>
AV-unprocessed.smi:1958-6

> <Gold.Version>
5.8.1

> <Gold.Id.Protein>
6NUR|6NUR_protein|mol2

> <Gold.PLP.Fitness>
44.5801

> <Gold.PLP.PLP>
-40.8309

> <Gold.PLP.part.hbond>
-2.1922

> <Gold.PLP.part.metal>
0.0000

> <Gold.PLP.part.buried>
-6.4421

> <Gold.PLP.part.nonpolar>
-32.9346

> <Gold.PLP.part.repulsive>
1.5499

> <Gold.PLP.ligand.clash>
1.3624

> <Gold.PLP.ligand.torsion>
2.0746

> <Gold.PLP.Chemscore.Hbond>
3.0000

> <Gold.PLP.Chemscore.CHOScore>
0.0000

> <Gold.PLP.Chemscore.Metal>
0.0000

> <Gold.Chemscore.Hbonds>
donor molecule, donor type, donor heavy atom, donor atom, acceptor molecule, acceptor atom, score
      L1  H    14    47       P1  8029  1.24
      P1  H  7989  7998       L1    23  0.98

> <Gold.PLP.Chemscore.Internal.Correction>
0.2609

> <Gold.Rescore>
     Score         DG    S(hbond)    S(metal)    S(lipo)     H(rot)  DE(clash)    DE(int)     intcor
     14.88     -16.61       1.96        0.00      84.43       2.07       0.14       1.60       ----

> <Gold.Chemscore.Fitness>
14.8800

> <Gold.Chemscore.DG>
-16.6124

> <Gold.Chemscore.ZeroCoef>
-5.4800

> <Gold.Chemscore.Hbond>
1.9600

> <Gold.Chemscore.Metal>
0.0000

> <Gold.Chemscore.Lipo>
84.4309

> <Gold.Chemscore.Internal_Hbond>
0.0000

> <Gold.Chemscore.DEClash>
0.1362

> <Gold.Chemscore.DEInternal>
1.5961

> <Gold.Chemscore.Rot>
2.0673

> <Gold.Chemscore.Internal.Correction>
   9.000000E+99

> <Gold.Chemscore.Hbonds>
donor molecule, donor type, donor heavy atom, donor atom, acceptor molecule, acceptor atom, score
      L1  H    14    47       P1  8029  0.57
      P1  H  7989  7998       L1    23  0.93

> <Gold.Chemscore.Hbond.Weighted>
-6.5463

> <Gold.Chemscore.Metal.Weighted>
-0.0000

> <Gold.Chemscore.Lipo.Weighted>
-9.8784

> <Gold.Chemscore.Internal_Hbond.Weighted>
0.0000

> <Gold.Chemscore.DEClash.Weighted>
0.1362

> <Gold.Chemscore.DEInternal.Weighted>
1.5961

> <Gold.Chemscore.Rot.Weighted>
5.2923

> <Gold.Chemscore.Internal.Correction.Weighted>
   9.000000E+99

> <Gold.Protein.RotatedTorsions>
[ 6907 6896 6895 6894 ] final  -88.64 input  -60.11 | X-H torsion
[ 7974 7965 7964 7962 ] final   57.51 input  175.53 | X-H torsion
[ 8008 7997 7996 7995 ] final -128.03 input   59.86 | X-H torsion
[ 10167 10162 10161 10158 ] final -151.66 input  -65.29 | X-H torsion
[ 10718 10713 10712 10709 ] final   32.08 input   66.30 | X-H torsion
[ 10763 10752 10751 10750 ] final  147.14 input  -60.55 | X-H torsion
[ 11005 11000 10999 10996 ] final   18.27 input  -57.11 | X-H torsion

> <Gold.Protein.ActiveResidues>
 VAL166  LYS551  ARG553  GLY616  TRP617  ASP618  TYR619  PRO620  LYS621  CYS622 
 ASP623  PHE694  ASN695  SER759  ASP760  ASP761  ALA762  ILE779  LEU786  VAL792 
 PHE793  MET794  SER795  GLU796  ALA797  LYS798  CYS799  TRP800  GLU811  SER814 

> <Gold.Protein.RotatedAtoms>
  150.6869  134.2710  159.4587 H   0  0  0  0  0  0  0  0  0  0  0  0  # atno 6907 bound_to 6896
  152.0632  134.9578  160.0584 H   0  0  0  0  0  0  0  0  0  0  0  0  # atno 6908 bound_to 6896
  152.0997  133.4208  159.4618 H   0  0  0  0  0  0  0  0  0  0  0  0  # atno 6909 bound_to 6896
  145.9283  139.3786  143.0436 H   0  0  0  0  0  0  0  0  0  0  0  0  # atno 7974 bound_to 7965
  155.2560  140.0434  157.2992 H   0  0  0  0  0  0  0  0  0  0  0  0  # atno 8008 bound_to 7997
  154.5740  140.2382  155.8120 H   0  0  0  0  0  0  0  0  0  0  0  0  # atno 8009 bound_to 7997
  156.2144  140.2989  155.9813 H   0  0  0  0  0  0  0  0  0  0  0  0  # atno 8010 bound_to 7997
  139.7248  143.8900  152.2515 H   0  0  0  0  0  0  0  0  0  0  0  0  # atno 10167 bound_to 10162
  157.2807  130.7253  149.6555 H   0  0  0  0  0  0  0  0  0  0  0  0  # atno 10718 bound_to 10713
  154.0334  135.2896  155.3365 H   0  0  0  0  0  0  0  0  0  0  0  0  # atno 10763 bound_to 10752
  154.6974  135.5202  153.8481 H   0  0  0  0  0  0  0  0  0  0  0  0  # atno 10764 bound_to 10752
  153.0630  135.6621  154.0545 H   0  0  0  0  0  0  0  0  0  0  0  0  # atno 10765 bound_to 10752
  140.4267  134.1462  155.7677 H   0  0  0  0  0  0  0  0  0  0  0  0  # atno 11005 bound_to 11000
  145.8460  140.9555  143.0774 LP  0  0  0  0  0  0  0  0  0  0  0  0  # atno 17320 bound_to 7965
  144.6761  140.0345  143.7482 LP  0  0  0  0  0  0  0  0  0  0  0  0  # atno 17321 bound_to 7965
  139.8806  144.7019  150.8882 LP  0  0  0  0  0  0  0  0  0  0  0  0  # atno 17342 bound_to 10162
  140.7760  143.3664  151.1731 LP  0  0  0  0  0  0  0  0  0  0  0  0  # atno 17343 bound_to 10162
  155.9664  130.4339  150.5026 LP  0  0  0  0  0  0  0  0  0  0  0  0  # atno 17370 bound_to 10713
  157.2969  131.0637  151.2095 LP  0  0  0  0  0  0  0  0  0  0  0  0  # atno 17371 bound_to 10713
  141.1762  133.8509  157.1412 LP  0  0  0  0  0  0  0  0  0  0  0  0  # atno 17394 bound_to 11000
  140.0162  134.9966  157.0499 LP  0  0  0  0  0  0  0  0  0  0  0  0  # atno 17395 bound_to 11000

$$$$
