AV-unprocessed.smi:2129|AV-procd|sdf|8683|dock1
  -GOLD-   2272011433D 1   1.00000     0.00000
 Structure written by MMmdl.
 34 34  0  0  0  0  0  0  0  0  1 V2000
  150.3722  145.3309  159.8482 C   0  0  0  0  0  0  0  0  0  0  0  0
  151.7943  144.9138  159.4325 C   0  0  0  0  0  0  0  0  0  0  0  0
  152.1936  143.4516  159.7714 C   0  0  0  0  0  0  0  0  0  0  0  0
  153.6118  143.1515  159.2477 C   0  0  0  0  0  0  0  0  0  0  0  0
  152.1953  143.2485  161.3023 C   0  0  0  0  0  0  0  0  0  0  0  0
  151.2925  142.4862  159.1316 N   0  0  0  0  0  0  0  0  0  0  0  0
  150.9382  142.3892  157.8354 C   0  0  0  0  0  0  0  0  0  0  0  0
  151.3355  143.1625  156.9656 O   0  0  0  0  0  0  0  0  0  0  0  0
  149.9961  141.2407  157.4343 C   0  0  0  0  0  0  0  0  0  0  0  0
  150.5921  140.2459  156.5267 N   0  0  0  0  0  0  0  0  0  0  0  0
  149.8980  139.8214  155.4026 C   0  0  0  0  0  0  0  0  0  0  0  0
  150.3777  138.8996  154.5343 C   0  0  0  0  0  0  0  0  0  0  0  0
  151.6868  138.2927  154.7498 C   0  0  0  0  0  0  0  0  0  0  0  0
  152.2063  137.4501  154.0214 O   0  0  0  0  0  0  0  0  0  0  0  0
  152.3538  138.7449  155.8915 N   0  0  0  0  0  0  0  0  0  0  0  0
  151.8650  139.6937  156.7908 C   0  0  0  0  0  0  0  0  0  0  0  0
  152.5318  140.0146  157.7736 O   0  0  0  0  0  0  0  0  0  0  0  0
  153.2639  138.3514  156.0827 H   0  0  0  0  0  0  0  0  0  0  0  0
  150.1902  146.3730  159.5861 H   0  0  0  0  0  0  0  0  0  0  0  0
  150.2200  145.2360  160.9234 H   0  0  0  0  0  0  0  0  0  0  0  0
  149.6117  144.7339  159.3458 H   0  0  0  0  0  0  0  0  0  0  0  0
  151.9040  145.0752  158.3595 H   0  0  0  0  0  0  0  0  0  0  0  0
  152.4987  145.6035  159.8983 H   0  0  0  0  0  0  0  0  0  0  0  0
  154.3411  143.8566  159.6482 H   0  0  0  0  0  0  0  0  0  0  0  0
  153.6648  143.2054  158.1600 H   0  0  0  0  0  0  0  0  0  0  0  0
  153.9346  142.1495  159.5336 H   0  0  0  0  0  0  0  0  0  0  0  0
  152.9396  143.8859  161.7809 H   0  0  0  0  0  0  0  0  0  0  0  0
  152.4293  142.2167  161.5676 H   0  0  0  0  0  0  0  0  0  0  0  0
  151.2328  143.4927  161.7516 H   0  0  0  0  0  0  0  0  0  0  0  0
  150.9032  141.7888  159.7491 H   0  0  0  0  0  0  0  0  0  0  0  0
  149.6559  140.7523  158.3484 H   0  0  0  0  0  0  0  0  0  0  0  0
  149.0945  141.6660  156.9892 H   0  0  0  0  0  0  0  0  0  0  0  0
  148.9213  140.2407  155.2064 H   0  0  0  0  0  0  0  0  0  0  0  0
  149.7885  138.6086  153.6766 H   0  0  0  0  0  0  0  0  0  0  0  0
  1  2  1  0  0  0  0
  1 19  1  0  0  0  0
  1 20  1  0  0  0  0
  1 21  1  0  0  0  0
  2  3  1  0  0  0  0
  2 22  1  0  0  0  0
  2 23  1  0  0  0  0
  3  4  1  0  0  0  0
  3  5  1  0  0  0  0
  3  6  1  0  0  0  0
  4 24  1  0  0  0  0
  4 25  1  0  0  0  0
  4 26  1  0  0  0  0
  5 27  1  0  0  0  0
  5 28  1  0  0  0  0
  5 29  1  0  0  0  0
  6  7  1  0  0  0  0
  6 30  1  0  0  0  0
  7  8  2  0  0  0  0
  7  9  1  0  0  0  0
  9 10  1  0  0  0  0
  9 31  1  0  0  0  0
  9 32  1  0  0  0  0
 10 16  1  0  0  0  0
 10 11  1  0  0  0  0
 11 12  2  0  0  0  0
 11 33  1  0  0  0  0
 12 13  1  0  0  0  0
 12 34  1  0  0  0  0
 13 14  2  0  0  0  0
 13 15  1  0  0  0  0
 15 18  1  0  0  0  0
 15 16  1  0  0  0  0
 16 17  2  0  0  0  0
M  END
> <s_m_source_file>
AV-unprocessed.smi

> <i_m_source_file_index>
2129

> <i_lp_mmshare_version>
43012

> <i_f3d_flags>
0

> <s_epik_input>
W0NIM11bQ0gyXUMoW0NIM10pKFtDSDNdKVtOSF1DKD1PKVtDSDJdbjFbY0hdW2NIXWMoPU8pW25IXWMxPU8=

> <s_epik_cmdline>
J2VwaWtfcHl0aG9uJywgJy1waCcsICc3LjAnLCAnLXRuJywgJzgnLCAnLW1hJywgJzIwMCcsICctbWV0YWxfYmluZGluZycsICctaW1hZScsICc8aW5maWxlLm1hZT4nLCAnLW9tYWUnLCAnPG91dGZpbGUubWFlPic=

> <r_lp_tautomer_probability>
0.999537

> <r_epik_Ionization_Penalty>
0.00293907

> <r_epik_Ionization_Penalty_Charging>
0.00293905

> <r_epik_Ionization_Penalty_Neutral>
1.95902e-08

> <r_epik_State_Penalty>
0.0020607

> <r_epik_Charging_Adjusted_Penalty>
0.00499975

> <i_epik_Tot_Q>
0

> <i_epik_Tot_abs_Q>
0

> <r_epik_Metal_State_Penalty>
0.360223

> <b_epik_Metal_Only>
0

> <s_lp_Force_Field>
OPLS_2005

> <r_lp_Energy>
5.65175

> <b_lp_Chiralities_Consistent>
1

> <s_lp_Variant>
AV-unprocessed.smi:2129-1

> <Gold.Version>
5.8.1

> <Gold.Id.Protein>
6NUR|6NUR_protein|mol2

> <Gold.PLP.Fitness>
38.8073

> <Gold.PLP.PLP>
-33.9288

> <Gold.PLP.part.hbond>
-2.0000

> <Gold.PLP.part.metal>
0.0000

> <Gold.PLP.part.buried>
-3.5821

> <Gold.PLP.part.nonpolar>
-28.7746

> <Gold.PLP.part.repulsive>
0.7625

> <Gold.PLP.ligand.clash>
0.0000

> <Gold.PLP.ligand.torsion>
0.2367

> <Gold.PLP.Chemscore.Hbond>
1.7680

> <Gold.PLP.Chemscore.CHOScore>
0.0000

> <Gold.PLP.Chemscore.Metal>
0.0000

> <Gold.Chemscore.Hbonds>
donor molecule, donor type, donor heavy atom, donor atom, acceptor molecule, acceptor atom, score
      P1  H  7997  8008       L1    17  0.71
      P1  H 10752 10763       L1    14  0.78

> <Gold.PLP.Chemscore.Internal.Correction>
0.0479

> <Gold.Rescore>
     Score         DG    S(hbond)    S(metal)    S(lipo)     H(rot)  DE(clash)    DE(int)     intcor
     10.63     -13.08       1.13        0.00      75.26       1.95       0.44       2.02       ----

> <Gold.Chemscore.Fitness>
10.6267

> <Gold.Chemscore.DG>
-13.0847

> <Gold.Chemscore.ZeroCoef>
-5.4800

> <Gold.Chemscore.Hbond>
1.1339

> <Gold.Chemscore.Metal>
0.0000

> <Gold.Chemscore.Lipo>
75.2573

> <Gold.Chemscore.Internal_Hbond>
0.0000

> <Gold.Chemscore.DEClash>
0.4377

> <Gold.Chemscore.DEInternal>
2.0202

> <Gold.Chemscore.Rot>
1.9483

> <Gold.Chemscore.Internal.Correction>
   9.000000E+99

> <Gold.Chemscore.Hbonds>
donor molecule, donor type, donor heavy atom, donor atom, acceptor molecule, acceptor atom, score
      P1  H  7997  8008       L1    17  0.18
      P1  H 10752 10763       L1    14  0.77

> <Gold.Chemscore.Hbond.Weighted>
-3.7872

> <Gold.Chemscore.Metal.Weighted>
-0.0000

> <Gold.Chemscore.Lipo.Weighted>
-8.8051

> <Gold.Chemscore.Internal_Hbond.Weighted>
0.0000

> <Gold.Chemscore.DEClash.Weighted>
0.4377

> <Gold.Chemscore.DEInternal.Weighted>
2.0202

> <Gold.Chemscore.Rot.Weighted>
4.9876

> <Gold.Chemscore.Internal.Correction.Weighted>
   9.000000E+99

> <Gold.Protein.RotatedTorsions>
[ 6907 6896 6895 6894 ] final -161.53 input  -60.11 | X-H torsion
[ 7974 7965 7964 7962 ] final   85.64 input  175.53 | X-H torsion
[ 8008 7997 7996 7995 ] final  -75.64 input   59.86 | X-H torsion
[ 10167 10162 10161 10158 ] final  -41.76 input  -65.29 | X-H torsion
[ 10718 10713 10712 10709 ] final  170.75 input   66.30 | X-H torsion
[ 10763 10752 10751 10750 ] final   15.10 input  -60.55 | X-H torsion
[ 11005 11000 10999 10996 ] final   -8.86 input  -57.11 | X-H torsion

> <Gold.Protein.ActiveResidues>
 VAL166  LYS551  ARG553  GLY616  TRP617  ASP618  TYR619  PRO620  LYS621  CYS622 
 ASP623  PHE694  ASN695  SER759  ASP760  ASP761  ALA762  ILE779  LEU786  VAL792 
 PHE793  MET794  SER795  GLU796  ALA797  LYS798  CYS799  TRP800  GLU811  SER814 

> <Gold.Protein.RotatedAtoms>
  151.3661  133.3872  159.2694 H   0  0  0  0  0  0  0  0  0  0  0  0  # atno 6907 bound_to 6896
  150.9687  134.9065  159.7785 H   0  0  0  0  0  0  0  0  0  0  0  0  # atno 6908 bound_to 6896
  152.5177  134.3622  159.9341 H   0  0  0  0  0  0  0  0  0  0  0  0  # atno 6909 bound_to 6896
  145.5828  139.2327  143.2343 H   0  0  0  0  0  0  0  0  0  0  0  0  # atno 7974 bound_to 7965
  154.5434  140.0740  156.8548 H   0  0  0  0  0  0  0  0  0  0  0  0  # atno 8008 bound_to 7997
  155.3135  140.3391  155.4225 H   0  0  0  0  0  0  0  0  0  0  0  0  # atno 8009 bound_to 7997
  156.1896  140.1681  156.8105 H   0  0  0  0  0  0  0  0  0  0  0  0  # atno 8010 bound_to 7997
  140.6992  143.3076  151.3112 H   0  0  0  0  0  0  0  0  0  0  0  0  # atno 10167 bound_to 10162
  157.0036  131.0183  151.2823 H   0  0  0  0  0  0  0  0  0  0  0  0  # atno 10718 bound_to 10713
  153.1557  135.6787  153.8815 H   0  0  0  0  0  0  0  0  0  0  0  0  # atno 10763 bound_to 10752
  153.8227  135.3128  155.3413 H   0  0  0  0  0  0  0  0  0  0  0  0  # atno 10764 bound_to 10752
  154.7896  135.4842  154.0110 H   0  0  0  0  0  0  0  0  0  0  0  0  # atno 10765 bound_to 10752
  140.7280  133.8773  155.8871 H   0  0  0  0  0  0  0  0  0  0  0  0  # atno 11005 bound_to 11000
  146.1704  140.6654  142.9236 LP  0  0  0  0  0  0  0  0  0  0  0  0  # atno 17320 bound_to 7965
  144.7386  140.4879  143.6885 LP  0  0  0  0  0  0  0  0  0  0  0  0  # atno 17321 bound_to 7965
  139.6487  144.0402  152.2610 LP  0  0  0  0  0  0  0  0  0  0  0  0  # atno 17342 bound_to 10162
  139.9931  144.6347  150.7796 LP  0  0  0  0  0  0  0  0  0  0  0  0  # atno 17343 bound_to 10162
  157.5372  130.8096  149.7986 LP  0  0  0  0  0  0  0  0  0  0  0  0  # atno 17370 bound_to 10713
  156.0162  130.3813  150.2104 LP  0  0  0  0  0  0  0  0  0  0  0  0  # atno 17371 bound_to 10713
  140.9946  134.1233  157.4376 LP  0  0  0  0  0  0  0  0  0  0  0  0  # atno 17394 bound_to 11000
  139.8833  135.0050  156.6288 LP  0  0  0  0  0  0  0  0  0  0  0  0  # atno 17395 bound_to 11000

$$$$
