AV-unprocessed.smi:1720|AV-procd|sdf|6933|dock4
  -GOLD-   22720 8143D 1   1.00000     0.00000
 Structure written by MMmdl.
 32 33  0  0  0  0  0  0  0  0  1 V2000
  149.1569  132.6783  154.7646 C   0  0  0  0  0  0  0  0  0  0  0  0
  148.9089  134.1922  154.8341 C   0  0  2  0  0  0  0  0  0  0  0  0
  148.1807  134.6046  153.6351 N   0  0  0  0  0  0  0  0  0  0  0  0
  146.9714  134.1634  153.2592 C   0  0  0  0  0  0  0  0  0  0  0  0
  146.3114  133.3453  153.9000 O   0  0  0  0  0  0  0  0  0  0  0  0
  146.5833  134.7337  152.1071 N   0  0  0  0  0  0  0  0  0  0  0  0
  145.3702  134.5177  151.4054 C   0  0  0  0  0  0  0  0  0  0  0  0
  144.6366  133.3004  151.4127 C   0  0  0  0  0  0  0  0  0  0  0  0
  143.5442  133.3894  150.6678 N   0  0  0  0  0  0  0  0  0  0  0  0
  143.5723  134.6528  150.1865 N   0  0  0  0  0  0  0  0  0  0  0  0
  144.6650  135.3767  150.6099 C   0  0  0  0  0  0  0  0  0  0  0  0
  150.2256  134.9853  154.9666 C   0  0  1  0  0  0  0  0  0  0  0  0
  150.0644  136.5072  155.0050 C   0  0  0  0  0  0  0  0  0  0  0  0
  151.3227  136.9309  155.7259 C   0  0  0  0  0  0  0  0  0  0  0  0
  151.4634  135.8285  156.7703 C   0  0  0  0  0  0  0  0  0  0  0  0
  150.8820  134.6631  156.1914 O   0  0  0  0  0  0  0  0  0  0  0  0
  142.8471  135.0023  149.5762 H   0  0  0  0  0  0  0  0  0  0  0  0
  149.6570  132.3196  155.6648 H   0  0  0  0  0  0  0  0  0  0  0  0
  149.7817  132.4155  153.9102 H   0  0  0  0  0  0  0  0  0  0  0  0
  148.2183  132.1307  154.6730 H   0  0  0  0  0  0  0  0  0  0  0  0
  148.3025  134.3832  155.7214 H   0  0  0  0  0  0  0  0  0  0  0  0
  148.6408  135.2791  153.0414 H   0  0  0  0  0  0  0  0  0  0  0  0
  147.2210  135.3951  151.6890 H   0  0  0  0  0  0  0  0  0  0  0  0
  144.8563  132.3738  151.9226 H   0  0  0  0  0  0  0  0  0  0  0  0
  144.8295  136.4020  150.3132 H   0  0  0  0  0  0  0  0  0  0  0  0
  150.9040  134.7243  154.1522 H   0  0  0  0  0  0  0  0  0  0  0  0
  149.9694  136.9517  154.0138 H   0  0  0  0  0  0  0  0  0  0  0  0
  149.1883  136.7880  155.5915 H   0  0  0  0  0  0  0  0  0  0  0  0
  152.1711  136.9127  155.0404 H   0  0  0  0  0  0  0  0  0  0  0  0
  151.2551  137.9275  156.1633 H   0  0  0  0  0  0  0  0  0  0  0  0
  152.5010  135.6569  157.0566 H   0  0  0  0  0  0  0  0  0  0  0  0
  150.9020  136.0827  157.6701 H   0  0  0  0  0  0  0  0  0  0  0  0
  1  2  1  0  0  0  0
  1 18  1  0  0  0  0
  1 19  1  0  0  0  0
  1 20  1  0  0  0  0
  2  3  1  0  0  0  0
  2 12  1  0  0  0  0
  2 21  1  0  0  0  0
  3  4  1  0  0  0  0
  3 22  1  0  0  0  0
  4  5  2  0  0  0  0
  4  6  1  0  0  0  0
  6  7  1  0  0  0  0
  6 23  1  0  0  0  0
  7 11  2  0  0  0  0
  7  8  1  0  0  0  0
  8  9  2  0  0  0  0
  8 24  1  0  0  0  0
  9 10  1  0  0  0  0
 10 17  1  0  0  0  0
 10 11  1  0  0  0  0
 11 25  1  0  0  0  0
 12 16  1  0  0  0  0
 12 13  1  0  0  0  0
 12 26  1  0  0  0  0
 13 14  1  0  0  0  0
 13 27  1  0  0  0  0
 13 28  1  0  0  0  0
 14 15  1  0  0  0  0
 14 29  1  0  0  0  0
 14 30  1  0  0  0  0
 15 16  1  0  0  0  0
 15 31  1  0  0  0  0
 15 32  1  0  0  0  0
M  END
> <s_m_source_file>
AV-unprocessed.smi

> <i_m_source_file_index>
1720

> <i_lp_mmshare_version>
43012

> <i_f3d_flags>
0

> <s_epik_input>
TzFbQ0gyXVtDSDJdW0NIMl1bQ0BIXTFbQ0BIXShbQ0gzXSlbTkhdQyg9TylbTkhdYzJbY0hdbltuSF1bY0hdMg==

> <s_epik_cmdline>
J2VwaWtfcHl0aG9uJywgJy1waCcsICc3LjAnLCAnLXRuJywgJzgnLCAnLW1hJywgJzIwMCcsICctbWV0YWxfYmluZGluZycsICctaW1hZScsICc8aW5maWxlLm1hZT4nLCAnLW9tYWUnLCAnPG91dGZpbGUubWFlPic=

> <r_lp_tautomer_probability>
1

> <r_epik_Ionization_Penalty>
4.95841e-05

> <r_epik_Ionization_Penalty_Charging>
0

> <r_epik_Ionization_Penalty_Neutral>
4.95841e-05

> <r_epik_State_Penalty>
-0

> <r_epik_Charging_Adjusted_Penalty>
0

> <i_epik_Tot_Q>
0

> <i_epik_Tot_abs_Q>
0

> <r_epik_Metal_State_Penalty>
-0

> <b_epik_Metal_Only>
0

> <s_lp_Force_Field>
OPLS_2005

> <r_lp_Energy>
20.0516

> <b_lp_Chiralities_Consistent>
1

> <s_lp_Variant>
AV-unprocessed.smi:1720-3

> <Gold.Version>
5.8.1

> <Gold.Id.Protein>
6NUR|6NUR_protein|mol2

> <Gold.PLP.Fitness>
33.3470

> <Gold.PLP.PLP>
-23.1111

> <Gold.PLP.part.hbond>
-2.8980

> <Gold.PLP.part.metal>
0.0000

> <Gold.PLP.part.buried>
-3.3278

> <Gold.PLP.part.nonpolar>
-17.1841

> <Gold.PLP.part.repulsive>
0.3873

> <Gold.PLP.ligand.clash>
0.0000

> <Gold.PLP.ligand.torsion>
0.2082

> <Gold.PLP.Chemscore.Hbond>
2.5520

> <Gold.PLP.Chemscore.CHOScore>
0.9956

> <Gold.PLP.Chemscore.Metal>
0.0000

> <Gold.Chemscore.Hbonds>
donor molecule, donor type, donor heavy atom, donor atom, acceptor molecule, acceptor atom, score
      L1  H     3    22       P1  7948  0.98
      L1  H     6    23       P1  7948  0.91
      L1  H    10    17       P1 10186  0.54
      L1  C    11    25       P1 10171  1.00

> <Gold.PLP.Chemscore.Internal.Correction>
0.0095

> <Gold.Rescore>
     Score         DG    S(hbond)    S(metal)    S(lipo)     H(rot)  DE(clash)    DE(int)     intcor
     14.68     -16.08       2.66        0.00      43.24       1.31       0.01       1.39       ----

> <Gold.Chemscore.Fitness>
14.6752

> <Gold.Chemscore.DG>
-16.0773

> <Gold.Chemscore.ZeroCoef>
-5.4800

> <Gold.Chemscore.Hbond>
2.6606

> <Gold.Chemscore.Metal>
0.0000

> <Gold.Chemscore.Lipo>
43.2416

> <Gold.Chemscore.Internal_Hbond>
0.0000

> <Gold.Chemscore.DEClash>
0.0089

> <Gold.Chemscore.DEInternal>
1.3933

> <Gold.Chemscore.Rot>
1.3079

> <Gold.Chemscore.Internal.Correction>
   9.000000E+99

> <Gold.Chemscore.Hbonds>
donor molecule, donor type, donor heavy atom, donor atom, acceptor molecule, acceptor atom, score
      L1  H     3    22       P1  7948  0.71
      L1  H     6    23       P1  7948  0.87
      L1  H    10    17       P1 10186  0.33

> <Gold.Chemscore.Hbond.Weighted>
-8.8864

> <Gold.Chemscore.Metal.Weighted>
-0.0000

> <Gold.Chemscore.Lipo.Weighted>
-5.0593

> <Gold.Chemscore.Internal_Hbond.Weighted>
0.0000

> <Gold.Chemscore.DEClash.Weighted>
0.0089

> <Gold.Chemscore.DEInternal.Weighted>
1.3933

> <Gold.Chemscore.Rot.Weighted>
3.3483

> <Gold.Chemscore.Internal.Correction.Weighted>
   9.000000E+99

> <Gold.Protein.RotatedTorsions>
[ 6907 6896 6895 6894 ] final  -57.61 input  -60.11 | X-H torsion
[ 7974 7965 7964 7962 ] final   78.47 input  175.53 | X-H torsion
[ 8008 7997 7996 7995 ] final   12.42 input   59.86 | X-H torsion
[ 10167 10162 10161 10158 ] final -152.10 input  -65.29 | X-H torsion
[ 10718 10713 10712 10709 ] final   74.38 input   66.30 | X-H torsion
[ 10763 10752 10751 10750 ] final   15.91 input  -60.55 | X-H torsion
[ 11005 11000 10999 10996 ] final   99.56 input  -57.11 | X-H torsion

> <Gold.Protein.ActiveResidues>
 VAL166  LYS551  ARG553  GLY616  TRP617  ASP618  TYR619  PRO620  LYS621  CYS622 
 ASP623  PHE694  ASN695  SER759  ASP760  ASP761  ALA762  ILE779  LEU786  VAL792 
 PHE793  MET794  SER795  GLU796  ALA797  LYS798  CYS799  TRP800  GLU811  SER814 

> <Gold.Protein.RotatedAtoms>
  150.8072  134.7205  159.6654 H   0  0  0  0  0  0  0  0  0  0  0  0  # atno 6907 bound_to 6896
  152.4192  134.5983  160.0003 H   0  0  0  0  0  0  0  0  0  0  0  0  # atno 6908 bound_to 6896
  151.6203  133.3302  159.3122 H   0  0  0  0  0  0  0  0  0  0  0  0  # atno 6909 bound_to 6896
  145.6767  139.2512  143.1837 H   0  0  0  0  0  0  0  0  0  0  0  0  # atno 7974 bound_to 7965
  154.8204  140.2883  155.5791 H   0  0  0  0  0  0  0  0  0  0  0  0  # atno 8008 bound_to 7997
  156.2997  140.2551  156.3040 H   0  0  0  0  0  0  0  0  0  0  0  0  # atno 8009 bound_to 7997
  154.9346  140.0382  157.2055 H   0  0  0  0  0  0  0  0  0  0  0  0  # atno 8010 bound_to 7997
  139.7210  143.8957  152.2503 H   0  0  0  0  0  0  0  0  0  0  0  0  # atno 10167 bound_to 10162
  157.6590  130.9675  150.1203 H   0  0  0  0  0  0  0  0  0  0  0  0  # atno 10718 bound_to 10713
  153.1480  135.6773  153.8925 H   0  0  0  0  0  0  0  0  0  0  0  0  # atno 10763 bound_to 10752
  153.8361  135.3111  155.3424 H   0  0  0  0  0  0  0  0  0  0  0  0  # atno 10764 bound_to 10752
  154.7840  135.4872  153.9991 H   0  0  0  0  0  0  0  0  0  0  0  0  # atno 10765 bound_to 10752
  139.8771  134.9101  156.4624 H   0  0  0  0  0  0  0  0  0  0  0  0  # atno 11005 bound_to 11000
  146.0999  140.7556  142.9554 LP  0  0  0  0  0  0  0  0  0  0  0  0  # atno 17320 bound_to 7965
  144.7039  140.3771  143.7133 LP  0  0  0  0  0  0  0  0  0  0  0  0  # atno 17321 bound_to 7965
  139.8853  144.6995  150.8831 LP  0  0  0  0  0  0  0  0  0  0  0  0  # atno 17342 bound_to 10162
  140.7753  143.3629  151.1794 LP  0  0  0  0  0  0  0  0  0  0  0  0  # atno 17343 bound_to 10162
  156.2076  130.3664  149.8710 LP  0  0  0  0  0  0  0  0  0  0  0  0  # atno 17370 bound_to 10713
  156.6597  130.8777  151.3545 LP  0  0  0  0  0  0  0  0  0  0  0  0  # atno 17371 bound_to 10713
  140.8854  133.7887  155.9513 LP  0  0  0  0  0  0  0  0  0  0  0  0  # atno 17394 bound_to 11000
  140.8810  134.2611  157.5144 LP  0  0  0  0  0  0  0  0  0  0  0  0  # atno 17395 bound_to 11000

$$$$
