AV-unprocessed.smi:1929|AV-procd|sdf|7800|dock1
  -GOLD-   22720 9543D 1   1.00000     0.00000
 Structure written by MMmdl.
 43 44  0  0  0  0  0  0  0  0  2 V2000
  143.2418  137.1509  152.6560 C   0  0  0  0  0  0  0  0  0  0  0  0
  144.3981  137.7940  152.0505 N   0  0  0  0  0  0  0  0  0  0  0  0
  145.6635  137.5931  152.4436 C   0  0  0  0  0  0  0  0  0  0  0  0
  145.9723  136.8298  153.3593 O   0  0  0  0  0  0  0  0  0  0  0  0
  146.7429  138.3598  151.6723 C   0  0  0  0  0  0  0  0  0  0  0  0
  147.4759  139.3386  152.5158 N   0  3  2  0  0  0  0  0  0  0  0  0
  148.1098  138.7202  153.7111 C   0  0  0  0  0  0  0  0  0  0  0  0
  148.9730  139.7416  154.4695 C   0  0  0  0  0  0  0  0  0  0  0  0
  148.1431  140.9679  154.8811 C   0  0  1  0  0  0  0  0  0  0  0  0
  149.0006  141.9555  155.5300 N   0  0  0  0  0  0  0  0  0  0  0  0
  149.7836  141.7154  156.5920 C   0  0  0  0  0  0  0  0  0  0  0  0
  149.8591  140.6163  157.1409 O   0  0  0  0  0  0  0  0  0  0  0  0
  150.4383  142.8252  156.9755 N   0  0  0  0  0  0  0  0  0  0  0  0
  151.3656  142.9827  158.0410 C   0  0  0  0  0  0  0  0  0  0  0  0
  151.7397  141.8304  158.7626 C   0  0  0  0  0  0  0  0  0  0  0  0
  152.6441  141.9648  159.8350 C   0  0  0  0  0  0  0  0  0  0  0  0
  153.1684  143.1475  160.2194 N   0  0  0  0  0  0  0  0  0  0  0  0
  152.7973  144.2515  159.5371 C   0  0  0  0  0  0  0  0  0  0  0  0
  151.9015  144.2278  158.4494 C   0  0  0  0  0  0  0  0  0  0  0  0
  147.4594  141.5672  153.6381 C   0  0  0  0  0  0  0  0  0  0  0  0
  146.6370  140.5068  152.8869 C   0  0  0  0  0  0  0  0  0  0  0  0
  142.3288  137.4883  152.1652 H   0  0  0  0  0  0  0  0  0  0  0  0
  143.1699  137.3985  153.7160 H   0  0  0  0  0  0  0  0  0  0  0  0
  143.3020  136.0665  152.5544 H   0  0  0  0  0  0  0  0  0  0  0  0
  144.2235  138.4296  151.2853 H   0  0  0  0  0  0  0  0  0  0  0  0
  147.4385  137.6129  151.2878 H   0  0  0  0  0  0  0  0  0  0  0  0
  146.3117  138.8625  150.8049 H   0  0  0  0  0  0  0  0  0  0  0  0
  147.3364  138.3214  154.3697 H   0  0  0  0  0  0  0  0  0  0  0  0
  148.7340  137.8772  153.4139 H   0  0  0  0  0  0  0  0  0  0  0  0
  149.4093  139.2714  155.3517 H   0  0  0  0  0  0  0  0  0  0  0  0
  149.8077  140.0498  153.8378 H   0  0  0  0  0  0  0  0  0  0  0  0
  147.3775  140.6402  155.5876 H   0  0  0  0  0  0  0  0  0  0  0  0
  148.9968  142.8885  155.1436 H   0  0  0  0  0  0  0  0  0  0  0  0
  150.2051  143.6728  156.4794 H   0  0  0  0  0  0  0  0  0  0  0  0
  151.3486  140.8580  158.5006 H   0  0  0  0  0  0  0  0  0  0  0  0
  152.9522  141.0982  160.4012 H   0  0  0  0  0  0  0  0  0  0  0  0
  153.2213  145.1861  159.8730 H   0  0  0  0  0  0  0  0  0  0  0  0
  151.6374  145.1558  157.9665 H   0  0  0  0  0  0  0  0  0  0  0  0
  146.8098  142.3947  153.9266 H   0  0  0  0  0  0  0  0  0  0  0  0
  148.2110  141.9851  152.9664 H   0  0  0  0  0  0  0  0  0  0  0  0
  146.2130  140.9567  151.9883 H   0  0  0  0  0  0  0  0  0  0  0  0
  145.7987  140.1741  153.5013 H   0  0  0  0  0  0  0  0  0  0  0  0
  148.2239  139.6977  151.9391 H   0  0  0  0  0  0  0  0  0  0  0  0
  1  2  1  0  0  0  0
  1 22  1  0  0  0  0
  1 23  1  0  0  0  0
  1 24  1  0  0  0  0
  2  3  1  0  0  0  0
  2 25  1  0  0  0  0
  3  4  2  0  0  0  0
  3  5  1  0  0  0  0
  5  6  1  0  0  0  0
  5 26  1  0  0  0  0
  5 27  1  0  0  0  0
  6 21  1  0  0  0  0
  6  7  1  0  0  0  0
  6 43  1  0  0  0  0
  7  8  1  0  0  0  0
  7 28  1  0  0  0  0
  7 29  1  0  0  0  0
  8  9  1  0  0  0  0
  8 30  1  0  0  0  0
  8 31  1  0  0  0  0
  9 10  1  0  0  0  0
  9 20  1  0  0  0  0
  9 32  1  0  0  0  0
 10 11  1  0  0  0  0
 10 33  1  0  0  0  0
 11 12  2  0  0  0  0
 11 13  1  0  0  0  0
 13 14  1  0  0  0  0
 13 34  1  0  0  0  0
 14 19  1  0  0  0  0
 14 15  2  0  0  0  0
 15 16  1  0  0  0  0
 15 35  1  0  0  0  0
 16 17  2  0  0  0  0
 16 36  1  0  0  0  0
 17 18  1  0  0  0  0
 18 19  2  0  0  0  0
 18 37  1  0  0  0  0
 19 38  1  0  0  0  0
 20 21  1  0  0  0  0
 20 39  1  0  0  0  0
 20 40  1  0  0  0  0
 21 41  1  0  0  0  0
 21 42  1  0  0  0  0
M  CHG  1   6   1
M  END
> <s_m_source_file>
AV-unprocessed.smi

> <i_m_source_file_index>
1929

> <i_lp_mmshare_version>
43012

> <i_f3d_flags>
0

> <s_epik_input>
W0NIM11bTkhdQyg9TylbQ0gyXU4xW0NIMl1bQ0gyXVtDSF0oW0NIMl1bQ0gyXTEpW05IXUMoPU8pW05IXWMyW2NIXVtjSF1uW2NIXVtjSF0y

> <s_epik_cmdline>
J2VwaWtfcHl0aG9uJywgJy1waCcsICc3LjAnLCAnLXRuJywgJzgnLCAnLW1hJywgJzIwMCcsICctbWV0YWxfYmluZGluZycsICctaW1hZScsICc8aW5maWxlLm1hZT4nLCAnLW9tYWUnLCAnPG91dGZpbGUubWFlPic=

> <r_epik_Ionization_Penalty>
0.938295

> <r_epik_Ionization_Penalty_Charging>
0.838844

> <r_epik_Ionization_Penalty_Neutral>
0.0994513

> <r_epik_State_Penalty>
0.957722

> <r_epik_Charging_Adjusted_Penalty>
1.79657

> <i_epik_Tot_Q>
1

> <i_epik_Tot_abs_Q>
1

> <r_epik_Metal_State_Penalty>
0.961727

> <b_epik_Metal_Only>
0

> <s_lp_Force_Field>
OPLS_2005

> <r_lp_Energy>
19.1228

> <b_lp_Chiralities_Consistent>
1

> <s_lp_Variant>
AV-unprocessed.smi:1929-2

> <Gold.Version>
5.8.1

> <Gold.Id.Protein>
6NUR|6NUR_protein|mol2

> <Gold.PLP.Fitness>
50.6967

> <Gold.PLP.PLP>
-39.1524

> <Gold.PLP.part.hbond>
-4.7912

> <Gold.PLP.part.metal>
0.0000

> <Gold.PLP.part.buried>
-2.3697

> <Gold.PLP.part.nonpolar>
-33.7922

> <Gold.PLP.part.repulsive>
0.4205

> <Gold.PLP.ligand.clash>
0.0000

> <Gold.PLP.ligand.torsion>
0.0791

> <Gold.PLP.Chemscore.Hbond>
3.8880

> <Gold.PLP.Chemscore.CHOScore>
0.0000

> <Gold.PLP.Chemscore.Metal>
0.0000

> <Gold.Chemscore.Hbonds>
donor molecule, donor type, donor heavy atom, donor atom, acceptor molecule, acceptor atom, score
      L1  H     2    25       P1 10171  0.92
      L1  H     6    43       P1  7957  1.00
      L1  H    10    33       P1  8028  0.85
      L1  H    13    34       P1  8028  0.98

> <Gold.PLP.Chemscore.Internal.Correction>
0.0386

> <Gold.Rescore>
     Score         DG    S(hbond)    S(metal)    S(lipo)     H(rot)  DE(clash)    DE(int)     intcor
     20.52     -25.99       3.83        0.00     102.79       1.69       1.43       4.04       ----

> <Gold.Chemscore.Fitness>
20.5229

> <Gold.Chemscore.DG>
-25.9941

> <Gold.Chemscore.ZeroCoef>
-5.4800

> <Gold.Chemscore.Hbond>
3.8345

> <Gold.Chemscore.Metal>
0.0000

> <Gold.Chemscore.Lipo>
102.7873

> <Gold.Chemscore.Internal_Hbond>
0.0000

> <Gold.Chemscore.DEClash>
1.4279

> <Gold.Chemscore.DEInternal>
4.0434

> <Gold.Chemscore.Rot>
1.6873

> <Gold.Chemscore.Internal.Correction>
   9.000000E+99

> <Gold.Chemscore.Hbonds>
donor molecule, donor type, donor heavy atom, donor atom, acceptor molecule, acceptor atom, score
      L1  H     2    25       P1 10171  0.84
      L1  H     6    43       P1  7957  0.99
      L1  H    10    33       P1  8028  0.85
      L1  H    13    34       P1  8028  0.93

> <Gold.Chemscore.Hbond.Weighted>
-12.8074

> <Gold.Chemscore.Metal.Weighted>
-0.0000

> <Gold.Chemscore.Lipo.Weighted>
-12.0261

> <Gold.Chemscore.Internal_Hbond.Weighted>
0.0000

> <Gold.Chemscore.DEClash.Weighted>
1.4279

> <Gold.Chemscore.DEInternal.Weighted>
4.0434

> <Gold.Chemscore.Rot.Weighted>
4.3194

> <Gold.Chemscore.Internal.Correction.Weighted>
   9.000000E+99

> <Gold.Protein.RotatedTorsions>
[ 6907 6896 6895 6894 ] final   38.75 input  -60.11 | X-H torsion
[ 7974 7965 7964 7962 ] final -160.27 input  175.53 | X-H torsion
[ 8008 7997 7996 7995 ] final   93.62 input   59.86 | X-H torsion
[ 10167 10162 10161 10158 ] final  114.61 input  -65.29 | X-H torsion
[ 10718 10713 10712 10709 ] final -147.16 input   66.30 | X-H torsion
[ 10763 10752 10751 10750 ] final  -30.07 input  -60.55 | X-H torsion
[ 11005 11000 10999 10996 ] final  168.15 input  -57.11 | X-H torsion

> <Gold.Protein.ActiveResidues>
 VAL166  LYS551  ARG553  GLY616  TRP617  ASP618  TYR619  PRO620  LYS621  CYS622 
 ASP623  PHE694  ASN695  SER759  ASP760  ASP761  ALA762  ILE779  LEU786  VAL792 
 PHE793  MET794  SER795  GLU796  ALA797  LYS798  CYS799  TRP800  GLU811  SER814 

> <Gold.Protein.RotatedAtoms>
  152.1606  134.8915  160.0541 H   0  0  0  0  0  0  0  0  0  0  0  0  # atno 6907 bound_to 6896
  151.9912  133.3787  159.4153 H   0  0  0  0  0  0  0  0  0  0  0  0  # atno 6908 bound_to 6896
  150.6887  134.3857  159.5097 H   0  0  0  0  0  0  0  0  0  0  0  0  # atno 6909 bound_to 6896
  144.7433  140.3565  143.6105 H   0  0  0  0  0  0  0  0  0  0  0  0  # atno 7974 bound_to 7965
  156.0487  140.3310  155.7326 H   0  0  0  0  0  0  0  0  0  0  0  0  # atno 8008 bound_to 7997
  155.5634  140.0621  157.2841 H   0  0  0  0  0  0  0  0  0  0  0  0  # atno 8009 bound_to 7997
  154.4426  140.1873  156.0794 H   0  0  0  0  0  0  0  0  0  0  0  0  # atno 8010 bound_to 7997
  139.6376  144.7121  151.2302 H   0  0  0  0  0  0  0  0  0  0  0  0  # atno 10167 bound_to 10162
  156.4040  130.7948  151.2161 H   0  0  0  0  0  0  0  0  0  0  0  0  # atno 10718 bound_to 10713
  153.7749  135.6909  153.4899 H   0  0  0  0  0  0  0  0  0  0  0  0  # atno 10763 bound_to 10752
  153.1850  135.4492  155.0075 H   0  0  0  0  0  0  0  0  0  0  0  0  # atno 10764 bound_to 10752
  154.8104  135.3375  154.7256 H   0  0  0  0  0  0  0  0  0  0  0  0  # atno 10765 bound_to 10752
  140.2843  134.7725  157.3784 H   0  0  0  0  0  0  0  0  0  0  0  0  # atno 11005 bound_to 11000
  145.7222  139.1713  143.2478 LP  0  0  0  0  0  0  0  0  0  0  0  0  # atno 17320 bound_to 7965
  146.1269  140.7237  142.9431 LP  0  0  0  0  0  0  0  0  0  0  0  0  # atno 17321 bound_to 7965
  140.7474  143.6368  150.8372 LP  0  0  0  0  0  0  0  0  0  0  0  0  # atno 17342 bound_to 10162
  140.0001  143.5753  152.2878 LP  0  0  0  0  0  0  0  0  0  0  0  0  # atno 17343 bound_to 10162
  157.7505  131.0278  150.4020 LP  0  0  0  0  0  0  0  0  0  0  0  0  # atno 17370 bound_to 10713
  156.4306  130.3971  149.6763 LP  0  0  0  0  0  0  0  0  0  0  0  0  # atno 17371 bound_to 10713
  140.1255  134.5164  155.8148 LP  0  0  0  0  0  0  0  0  0  0  0  0  # atno 17394 bound_to 11000
  141.2157  133.6771  156.6943 LP  0  0  0  0  0  0  0  0  0  0  0  0  # atno 17395 bound_to 11000

$$$$
