AV-unprocessed.smi:169|AV-procd|sdf|1402|dock5
  -GOLD-   2262019153D 1   1.00000     0.00000
 Structure written by MMmdl.
 56 60  0  0  0  0  0  0  0  0  2 V2000
  146.8570  140.5096  152.5239 C   0  0  0  0  0  0  0  0  0  0  0  0
  146.9278  140.5102  154.0610 C   0  0  0  0  0  0  0  0  0  0  0  0
  148.2758  140.1892  154.5987 N   0  3  2  0  0  0  0  0  0  0  0  0
  149.1837  141.3910  154.6356 C   0  0  0  0  0  0  0  0  0  0  0  0
  150.3815  141.2893  155.6529 C   0  0  0  0  0  0  0  0  0  0  0  0
  150.9921  139.8762  155.7276 C   0  0  3  0  0  0  0  0  0  0  0  0
  152.1023  139.0916  155.0166 C   0  0  0  0  0  0  0  0  0  0  0  0
  151.2661  137.9165  154.4113 C   0  0  0  0  0  0  0  0  0  0  0  0
  149.8095  138.1202  154.9467 C   0  0  2  0  0  0  0  0  0  0  0  0
  148.8612  138.9341  153.9931 C   0  0  0  0  0  0  0  0  0  0  0  0
  150.0213  138.8862  156.1595 N   0  0  0  0  0  0  0  0  0  0  0  0
  150.1814  138.2439  157.3460 C   0  0  0  0  0  0  0  0  0  0  0  0
  151.3219  138.4341  158.0612 N   0  0  0  0  0  0  0  0  0  0  0  0
  151.4953  137.8191  159.2343 C   0  0  0  0  0  0  0  0  0  0  0  0
  150.6634  136.9966  159.8751 N   0  0  0  0  0  0  0  0  0  0  0  0
  149.5051  136.8215  159.1771 C   0  0  0  0  0  0  0  0  0  0  0  0
  149.1860  137.3995  157.9156 C   0  0  0  0  0  0  0  0  0  0  0  0
  147.9145  136.9982  157.5230 N   0  0  0  0  0  0  0  0  0  0  0  0
  147.5134  136.2161  158.4874 C   0  0  0  0  0  0  0  0  0  0  0  0
  148.3982  136.0689  159.5320 N   0  0  0  0  0  0  0  0  0  0  0  0
  148.2108  135.2696  160.7357 C   0  0  0  0  0  0  0  0  0  0  0  0
  146.8491  135.4612  161.4444 C   0  0  0  0  0  0  0  0  0  0  0  0
  146.8559  136.8967  161.9988 C   0  0  0  0  0  0  0  0  0  0  0  0
  148.0533  137.2173  162.6784 O   0  0  0  0  0  0  0  0  0  0  0  0
  145.5935  135.0036  160.6791 C   0  0  0  0  0  0  0  0  0  0  0  0
  145.5372  133.7644  161.4198 O   0  0  0  0  0  0  0  0  0  0  0  0
  146.4252  134.3365  162.4054 C   0  0  0  0  0  0  0  0  0  0  0  0
  145.8452  140.7395  152.1892 H   0  0  0  0  0  0  0  0  0  0  0  0
  147.1233  139.5386  152.1062 H   0  0  0  0  0  0  0  0  0  0  0  0
  147.5191  141.2574  152.0874 H   0  0  0  0  0  0  0  0  0  0  0  0
  146.6159  141.4840  154.4406 H   0  0  0  0  0  0  0  0  0  0  0  0
  146.2082  139.7943  154.4604 H   0  0  0  0  0  0  0  0  0  0  0  0
  149.5698  141.5650  153.6300 H   0  0  0  0  0  0  0  0  0  0  0  0
  148.6054  142.2806  154.8888 H   0  0  0  0  0  0  0  0  0  0  0  0
  151.1453  142.0306  155.4117 H   0  0  0  0  0  0  0  0  0  0  0  0
  150.0180  141.5515  156.6471 H   0  0  0  0  0  0  0  0  0  0  0  0
  150.8559  140.0605  154.6688 H   0  0  0  0  0  0  0  0  0  0  0  0
  152.6782  139.6515  154.2725 H   0  0  0  0  0  0  0  0  0  0  0  0
  152.8138  138.7049  155.7471 H   0  0  0  0  0  0  0  0  0  0  0  0
  151.3037  137.8990  153.3218 H   0  0  0  0  0  0  0  0  0  0  0  0
  151.6686  136.9658  154.7634 H   0  0  0  0  0  0  0  0  0  0  0  0
  149.3637  137.1463  155.1422 H   0  0  0  0  0  0  0  0  0  0  0  0
  148.0486  138.2644  153.7082 H   0  0  0  0  0  0  0  0  0  0  0  0
  149.3646  139.1886  153.0595 H   0  0  0  0  0  0  0  0  0  0  0  0
  152.4327  138.0178  159.7326 H   0  0  0  0  0  0  0  0  0  0  0  0
  146.5507  135.7271  158.4627 H   0  0  0  0  0  0  0  0  0  0  0  0
  148.3468  134.2233  160.4594 H   0  0  0  0  0  0  0  0  0  0  0  0
  149.0312  135.5032  161.4157 H   0  0  0  0  0  0  0  0  0  0  0  0
  146.7247  137.6217  161.1948 H   0  0  0  0  0  0  0  0  0  0  0  0
  146.0292  137.0462  162.6942 H   0  0  0  0  0  0  0  0  0  0  0  0
  148.2628  136.5105  163.2699 H   0  0  0  0  0  0  0  0  0  0  0  0
  144.7078  135.6151  160.8578 H   0  0  0  0  0  0  0  0  0  0  0  0
  145.7341  134.8536  159.6101 H   0  0  0  0  0  0  0  0  0  0  0  0
  147.2290  133.6627  162.6978 H   0  0  0  0  0  0  0  0  0  0  0  0
  145.8780  134.6733  163.2871 H   0  0  0  0  0  0  0  0  0  0  0  0
  148.1048  139.9562  155.5668 H   0  0  0  0  0  0  0  0  0  0  0  0
  1  2  1  0  0  0  0
  1 28  1  0  0  0  0
  1 29  1  0  0  0  0
  1 30  1  0  0  0  0
  2  3  1  0  0  0  0
  2 31  1  0  0  0  0
  2 32  1  0  0  0  0
  3 10  1  0  0  0  0
  3  4  1  0  0  0  0
  3 56  1  0  0  0  0
  4  5  1  0  0  0  0
  4 33  1  0  0  0  0
  4 34  1  0  0  0  0
  5  6  1  0  0  0  0
  5 35  1  0  0  0  0
  5 36  1  0  0  0  0
  6 11  1  0  0  0  0
  6  7  1  0  0  0  0
  6 37  1  0  0  0  0
  7  8  1  0  0  0  0
  7 38  1  0  0  0  0
  7 39  1  0  0  0  0
  8  9  1  0  0  0  0
  8 40  1  0  0  0  0
  8 41  1  0  0  0  0
  9 10  1  0  0  0  0
  9 11  1  0  0  0  0
  9 42  1  0  0  0  0
 10 43  1  0  0  0  0
 10 44  1  0  0  0  0
 11 12  1  0  0  0  0
 12 17  1  0  0  0  0
 12 13  2  0  0  0  0
 13 14  1  0  0  0  0
 14 15  2  0  0  0  0
 14 45  1  0  0  0  0
 15 16  1  0  0  0  0
 16 20  1  0  0  0  0
 16 17  2  0  0  0  0
 17 18  1  0  0  0  0
 18 19  2  0  0  0  0
 19 20  1  0  0  0  0
 19 46  1  0  0  0  0
 20 21  1  0  0  0  0
 21 22  1  0  0  0  0
 21 47  1  0  0  0  0
 21 48  1  0  0  0  0
 22 27  1  0  0  0  0
 22 23  1  0  0  0  0
 22 25  1  0  0  0  0
 23 24  1  0  0  0  0
 23 49  1  0  0  0  0
 23 50  1  0  0  0  0
 24 51  1  0  0  0  0
 25 26  1  0  0  0  0
 25 52  1  0  0  0  0
 25 53  1  0  0  0  0
 26 27  1  0  0  0  0
 27 54  1  0  0  0  0
 27 55  1  0  0  0  0
M  CHG  1   3   1
M  END
> <s_m_source_file>
AV-unprocessed.smi

> <i_m_source_file_index>
169

> <i_lp_mmshare_version>
43012

> <i_f3d_flags>
0

> <s_epik_input>
W0NASF0xMltDSDJdW0NIMl1OKFtDSDJdW0NIM10pW0NIMl1bQ0BIXShbQ0gyXVtDSDJdMSlOMmMobltjSF1uMyljKGMzNCluW2NIXW40W0NIMl1DNShbQ0gyXVtPSF0pW0NIMl1PW0NIMl01

> <s_epik_cmdline>
J2VwaWtfcHl0aG9uJywgJy1waCcsICc3LjAnLCAnLXRuJywgJzgnLCAnLW1hJywgJzIwMCcsICctbWV0YWxfYmluZGluZycsICctaW1hZScsICc8aW5maWxlLm1hZT4nLCAnLW9tYWUnLCAnPG91dGZpbGUubWFlPic=

> <r_lp_tautomer_probability>
1

> <r_epik_Ionization_Penalty>
0.00274162

> <r_epik_Ionization_Penalty_Charging>
0.00243722

> <r_epik_Ionization_Penalty_Neutral>
0.000304399

> <r_epik_State_Penalty>
-0

> <r_epik_Charging_Adjusted_Penalty>
0.00243722

> <i_epik_Tot_Q>
1

> <i_epik_Tot_abs_Q>
1

> <r_epik_Metal_State_Penalty>
-0

> <b_epik_Metal_Only>
0

> <s_lp_Force_Field>
OPLS_2005

> <r_lp_Energy>
131.144

> <b_lp_Chiralities_Consistent>
1

> <s_lp_Variant>
AV-unprocessed.smi:169-5

> <Gold.Version>
5.8.1

> <Gold.Id.Protein>
6NUR|6NUR_protein|mol2

> <Gold.PLP.Fitness>
45.4919

> <Gold.PLP.PLP>
-40.8225

> <Gold.PLP.part.hbond>
-1.9624

> <Gold.PLP.part.metal>
0.0000

> <Gold.PLP.part.buried>
-3.0855

> <Gold.PLP.part.nonpolar>
-35.4147

> <Gold.PLP.part.repulsive>
0.0778

> <Gold.PLP.ligand.clash>
0.0000

> <Gold.PLP.ligand.torsion>
0.6394

> <Gold.PLP.Chemscore.Hbond>
1.8320

> <Gold.PLP.Chemscore.CHOScore>
0.0000

> <Gold.PLP.Chemscore.Metal>
0.0000

> <Gold.Chemscore.Hbonds>
donor molecule, donor type, donor heavy atom, donor atom, acceptor molecule, acceptor atom, score
      P1  H  6896  6907       L1    15  1.00
      P1  H  6931  6943       L1    24  0.83

> <Gold.PLP.Chemscore.Internal.Correction>
0.4522

> <Gold.Rescore>
     Score         DG    S(hbond)    S(metal)    S(lipo)     H(rot)  DE(clash)    DE(int)     intcor
     14.55     -15.58       1.54        0.00      99.54       2.62       0.29       0.74       ----

> <Gold.Chemscore.Fitness>
14.5508

> <Gold.Chemscore.DG>
-15.5754

> <Gold.Chemscore.ZeroCoef>
-5.4800

> <Gold.Chemscore.Hbond>
1.5446

> <Gold.Chemscore.Metal>
0.0000

> <Gold.Chemscore.Lipo>
99.5445

> <Gold.Chemscore.Internal_Hbond>
0.0000

> <Gold.Chemscore.DEClash>
0.2891

> <Gold.Chemscore.DEInternal>
0.7355

> <Gold.Chemscore.Rot>
2.6212

> <Gold.Chemscore.Internal.Correction>
   9.000000E+99

> <Gold.Chemscore.Hbonds>
donor molecule, donor type, donor heavy atom, donor atom, acceptor molecule, acceptor atom, score
      P1  H  6896  6907       L1    15  0.25
      P1  H  6931  6943       L1    24  0.77

> <Gold.Chemscore.Hbond.Weighted>
-5.1589

> <Gold.Chemscore.Metal.Weighted>
-0.0000

> <Gold.Chemscore.Lipo.Weighted>
-11.6467

> <Gold.Chemscore.Internal_Hbond.Weighted>
0.0000

> <Gold.Chemscore.DEClash.Weighted>
0.2891

> <Gold.Chemscore.DEInternal.Weighted>
0.7355

> <Gold.Chemscore.Rot.Weighted>
6.7102

> <Gold.Chemscore.Internal.Correction.Weighted>
   9.000000E+99

> <Gold.Protein.RotatedTorsions>
[ 6907 6896 6895 6894 ] final  -13.82 input  -60.11 | X-H torsion
[ 7974 7965 7964 7962 ] final   67.66 input  175.53 | X-H torsion
[ 8008 7997 7996 7995 ] final   84.79 input   59.86 | X-H torsion
[ 10167 10162 10161 10158 ] final  165.72 input  -65.29 | X-H torsion
[ 10718 10713 10712 10709 ] final   14.15 input   66.30 | X-H torsion
[ 10763 10752 10751 10750 ] final -146.65 input  -60.55 | X-H torsion
[ 11005 11000 10999 10996 ] final  -69.42 input  -57.11 | X-H torsion

> <Gold.Protein.ActiveResidues>
 VAL166  LYS551  ARG553  GLY616  TRP617  ASP618  TYR619  PRO620  LYS621  CYS622 
 ASP623  PHE694  ASN695  SER759  ASP760  ASP761  ALA762  ILE779  LEU786  VAL792 
 PHE793  MET794  SER795  GLU796  ALA797  LYS798  CYS799  TRP800  GLU811  SER814 

> <Gold.Protein.RotatedAtoms>
  151.3489  135.0880  159.9396 H   0  0  0  0  0  0  0  0  0  0  0  0  # atno 6907 bound_to 6896
  152.5192  133.9372  159.7619 H   0  0  0  0  0  0  0  0  0  0  0  0  # atno 6908 bound_to 6896
  150.9743  133.6257  159.2762 H   0  0  0  0  0  0  0  0  0  0  0  0  # atno 6909 bound_to 6896
  145.8119  139.3037  143.1094 H   0  0  0  0  0  0  0  0  0  0  0  0  # atno 7974 bound_to 7965
  155.9416  140.3407  155.6332 H   0  0  0  0  0  0  0  0  0  0  0  0  # atno 8008 bound_to 7997
  155.7032  140.0763  157.2420 H   0  0  0  0  0  0  0  0  0  0  0  0  # atno 8009 bound_to 7997
  154.4104  140.1636  156.2201 H   0  0  0  0  0  0  0  0  0  0  0  0  # atno 8010 bound_to 7997
  139.4911  144.4102  151.9308 H   0  0  0  0  0  0  0  0  0  0  0  0  # atno 10167 bound_to 10162
  157.0350  130.6208  149.5741 H   0  0  0  0  0  0  0  0  0  0  0  0  # atno 10718 bound_to 10713
  154.8326  135.3381  154.6694 H   0  0  0  0  0  0  0  0  0  0  0  0  # atno 10763 bound_to 10752
  153.7312  135.6952  153.4993 H   0  0  0  0  0  0  0  0  0  0  0  0  # atno 10764 bound_to 10752
  153.2311  135.4416  155.0548 H   0  0  0  0  0  0  0  0  0  0  0  0  # atno 10765 bound_to 10752
  141.1553  133.6764  156.6596 H   0  0  0  0  0  0  0  0  0  0  0  0  # atno 11005 bound_to 11000
  145.9768  140.8716  143.0135 LP  0  0  0  0  0  0  0  0  0  0  0  0  # atno 17320 bound_to 7965
  144.6756  140.2023  143.7386 LP  0  0  0  0  0  0  0  0  0  0  0  0  # atno 17321 bound_to 7965
  140.3543  144.3050  150.5944 LP  0  0  0  0  0  0  0  0  0  0  0  0  # atno 17342 bound_to 10162
  140.5458  143.2215  151.8010 LP  0  0  0  0  0  0  0  0  0  0  0  0  # atno 17343 bound_to 10162
  156.0057  130.5143  150.7820 LP  0  0  0  0  0  0  0  0  0  0  0  0  # atno 17370 bound_to 10713
  157.5148  131.0928  151.0152 LP  0  0  0  0  0  0  0  0  0  0  0  0  # atno 17371 bound_to 10713
  140.3257  134.7970  157.4287 LP  0  0  0  0  0  0  0  0  0  0  0  0  # atno 17394 bound_to 11000
  140.1059  134.5410  155.8310 LP  0  0  0  0  0  0  0  0  0  0  0  0  # atno 17395 bound_to 11000

$$$$
