AV-unprocessed.smi:663|AV-procd|sdf|3247|dock2
  -GOLD-   22720 0193D 1   1.00000     0.00000
 Structure written by MMmdl.
 30 31  0  0  0  0  0  0  0  0  1 V2000
  150.3990  138.4016  153.1710 N   0  0  0  0  0  0  0  0  0  0  0  0
  150.1813  138.5783  154.4766 C   0  0  0  0  0  0  0  0  0  0  0  0
  150.8011  137.9487  155.3317 O   0  0  0  0  0  0  0  0  0  0  0  0
  149.0975  139.5909  154.8727 C   0  0  0  0  0  0  0  0  0  0  0  0
  149.2710  140.9899  154.2358 C   0  0  2  0  0  0  0  0  0  0  0  0
  149.6952  141.9616  155.2432 N   0  0  0  0  0  0  0  0  0  0  0  0
  150.5849  141.7342  156.2200 C   0  0  0  0  0  0  0  0  0  0  0  0
  151.1708  140.6623  156.3707 O   0  0  0  0  0  0  0  0  0  0  0  0
  150.7388  142.8193  156.9956 N   0  0  0  0  0  0  0  0  0  0  0  0
  151.5913  142.9752  158.1169 C   0  0  0  0  0  0  0  0  0  0  0  0
  152.0331  141.8703  158.7292 N   0  0  0  0  0  0  0  0  0  0  0  0
  152.8554  142.1669  159.8093 N   0  0  0  0  0  0  0  0  0  0  0  0
  153.0004  143.4856  159.9701 C   0  0  0  0  0  0  0  0  0  0  0  0
  152.1473  144.4975  158.8184 S   0  0  0  0  0  0  0  0  0  0  0  0
  147.9981  141.4076  153.5177 C   0  0  0  0  0  0  0  0  0  0  0  0
  146.6458  141.2323  154.1678 C   0  0  0  0  0  0  0  0  0  0  0  0
  147.0267  140.3858  152.9751 C   0  0  0  0  0  0  0  0  0  0  0  0
  151.1037  137.7458  152.8657 H   0  0  0  0  0  0  0  0  0  0  0  0
  149.8617  138.9226  152.4933 H   0  0  0  0  0  0  0  0  0  0  0  0
  148.1228  139.1856  154.5965 H   0  0  0  0  0  0  0  0  0  0  0  0
  149.0876  139.6761  155.9602 H   0  0  0  0  0  0  0  0  0  0  0  0
  150.0593  140.9077  153.4841 H   0  0  0  0  0  0  0  0  0  0  0  0
  149.2610  142.8722  155.2022 H   0  0  0  0  0  0  0  0  0  0  0  0
  150.1825  143.6273  156.7580 H   0  0  0  0  0  0  0  0  0  0  0  0
  153.6145  143.8649  160.7731 H   0  0  0  0  0  0  0  0  0  0  0  0
  148.1140  142.3120  152.9230 H   0  0  0  0  0  0  0  0  0  0  0  0
  146.6089  140.7416  155.1385 H   0  0  0  0  0  0  0  0  0  0  0  0
  145.9087  142.0175  154.0135 H   0  0  0  0  0  0  0  0  0  0  0  0
  146.5460  140.6074  152.0246 H   0  0  0  0  0  0  0  0  0  0  0  0
  147.2379  139.3339  153.1563 H   0  0  0  0  0  0  0  0  0  0  0  0
  1  2  1  0  0  0  0
  1 18  1  0  0  0  0
  1 19  1  0  0  0  0
  2  3  2  0  0  0  0
  2  4  1  0  0  0  0
  4  5  1  0  0  0  0
  4 20  1  0  0  0  0
  4 21  1  0  0  0  0
  5  6  1  0  0  0  0
  5 15  1  0  0  0  0
  5 22  1  0  0  0  0
  6  7  1  0  0  0  0
  6 23  1  0  0  0  0
  7  8  2  0  0  0  0
  7  9  1  0  0  0  0
  9 10  1  0  0  0  0
  9 24  1  0  0  0  0
 10 14  1  0  0  0  0
 10 11  2  0  0  0  0
 11 12  1  0  0  0  0
 12 13  2  0  0  0  0
 13 14  1  0  0  0  0
 13 25  1  0  0  0  0
 15 17  1  0  0  0  0
 15 16  1  0  0  0  0
 15 26  1  0  0  0  0
 16 17  1  0  0  0  0
 16 27  1  0  0  0  0
 16 28  1  0  0  0  0
 17 29  1  0  0  0  0
 17 30  1  0  0  0  0
M  END
> <s_m_source_file>
AV-unprocessed.smi

> <i_m_source_file_index>
663

> <i_lp_mmshare_version>
43012

> <i_f3d_flags>
0

> <s_epik_input>
W05IMl1DKD1PKVtDSDJdW0NAQEhdKFtDSF0xW0NIMl1bQ0gyXTEpW05IXUMoPU8pW05IXWMybm5bY0hdczI=

> <s_epik_cmdline>
J2VwaWtfcHl0aG9uJywgJy1waCcsICc3LjAnLCAnLXRuJywgJzgnLCAnLW1hJywgJzIwMCcsICctbWV0YWxfYmluZGluZycsICctaW1hZScsICc8aW5maWxlLm1hZT4nLCAnLW9tYWUnLCAnPG91dGZpbGUubWFlPic=

> <r_lp_tautomer_probability>
1

> <r_epik_Ionization_Penalty>
0.000388224

> <r_epik_Ionization_Penalty_Charging>
0

> <r_epik_Ionization_Penalty_Neutral>
0.000388224

> <r_epik_State_Penalty>
-0

> <r_epik_Charging_Adjusted_Penalty>
0

> <i_epik_Tot_Q>
0

> <i_epik_Tot_abs_Q>
0

> <r_epik_Metal_State_Penalty>
0.191941

> <b_epik_Metal_Only>
0

> <s_lp_Force_Field>
OPLS_2005

> <r_lp_Energy>
6.58878

> <b_lp_Chiralities_Consistent>
1

> <s_lp_Variant>
AV-unprocessed.smi:663-1

> <Gold.Version>
5.8.1

> <Gold.Id.Protein>
6NUR|6NUR_protein|mol2

> <Gold.PLP.Fitness>
40.9284

> <Gold.PLP.PLP>
-32.7677

> <Gold.PLP.part.hbond>
-4.9237

> <Gold.PLP.part.metal>
0.0000

> <Gold.PLP.part.buried>
-1.5962

> <Gold.PLP.part.nonpolar>
-25.8639

> <Gold.PLP.part.repulsive>
0.4133

> <Gold.PLP.ligand.clash>
0.0000

> <Gold.PLP.ligand.torsion>
1.6354

> <Gold.PLP.Chemscore.Hbond>
3.4420

> <Gold.PLP.Chemscore.CHOScore>
0.0000

> <Gold.PLP.Chemscore.Metal>
0.0000

> <Gold.Chemscore.Hbonds>
donor molecule, donor type, donor heavy atom, donor atom, acceptor molecule, acceptor atom, score
      L1  H     1    18       P1  7949  0.36
      L1  H     1    19       P1  7957  1.00
      L1  H     6    23       P1  8028  1.00
      L1  H     9    24       P1  8028  1.00

> <Gold.PLP.Chemscore.Internal.Correction>
1.1054

> <Gold.Rescore>
     Score         DG    S(hbond)    S(metal)    S(lipo)     H(rot)  DE(clash)    DE(int)     intcor
     11.56     -16.24       2.93        0.00      63.38       2.52       0.15       4.52       ----

> <Gold.Chemscore.Fitness>
11.5629

> <Gold.Chemscore.DG>
-16.2383

> <Gold.Chemscore.ZeroCoef>
-5.4800

> <Gold.Chemscore.Hbond>
2.9337

> <Gold.Chemscore.Metal>
0.0000

> <Gold.Chemscore.Lipo>
63.3818

> <Gold.Chemscore.Internal_Hbond>
0.0000

> <Gold.Chemscore.DEClash>
0.1541

> <Gold.Chemscore.DEInternal>
4.5213

> <Gold.Chemscore.Rot>
2.5218

> <Gold.Chemscore.Internal.Correction>
   9.000000E+99

> <Gold.Chemscore.Hbonds>
donor molecule, donor type, donor heavy atom, donor atom, acceptor molecule, acceptor atom, score
      L1  H     1    18       P1  7949  0.15
      L1  H     1    19       P1  7957  0.59
      L1  H     6    23       P1  8028  0.99
      L1  H     9    24       P1  8028  0.94

> <Gold.Chemscore.Hbond.Weighted>
-9.7985

> <Gold.Chemscore.Metal.Weighted>
-0.0000

> <Gold.Chemscore.Lipo.Weighted>
-7.4157

> <Gold.Chemscore.Internal_Hbond.Weighted>
0.0000

> <Gold.Chemscore.DEClash.Weighted>
0.1541

> <Gold.Chemscore.DEInternal.Weighted>
4.5213

> <Gold.Chemscore.Rot.Weighted>
6.4559

> <Gold.Chemscore.Internal.Correction.Weighted>
   9.000000E+99

> <Gold.Protein.RotatedTorsions>
[ 6907 6896 6895 6894 ] final -162.40 input  -60.11 | X-H torsion
[ 7974 7965 7964 7962 ] final  -59.80 input  175.53 | X-H torsion
[ 8008 7997 7996 7995 ] final   51.09 input   59.86 | X-H torsion
[ 10167 10162 10161 10158 ] final   30.79 input  -65.29 | X-H torsion
[ 10718 10713 10712 10709 ] final -160.87 input   66.30 | X-H torsion
[ 10763 10752 10751 10750 ] final   45.60 input  -60.55 | X-H torsion
[ 11005 11000 10999 10996 ] final  121.27 input  -57.11 | X-H torsion

> <Gold.Protein.ActiveResidues>
 VAL166  LYS551  ARG553  GLY616  TRP617  ASP618  TYR619  PRO620  LYS621  CYS622 
 ASP623  PHE694  ASN695  SER759  ASP760  ASP761  ALA762  ILE779  LEU786  VAL792 
 PHE793  MET794  SER795  GLU796  ALA797  LYS798  CYS799  TRP800  GLU811  SER814 

> <Gold.Protein.RotatedAtoms>
  151.3797  133.3825  159.2708 H   0  0  0  0  0  0  0  0  0  0  0  0  # atno 6907 bound_to 6896
  150.9587  134.8979  159.7727 H   0  0  0  0  0  0  0  0  0  0  0  0  # atno 6908 bound_to 6896
  152.5141  134.3755  159.9385 H   0  0  0  0  0  0  0  0  0  0  0  0  # atno 6909 bound_to 6896
  145.8231  140.8527  143.0122 H   0  0  0  0  0  0  0  0  0  0  0  0  # atno 7974 bound_to 7965
  155.4295  140.3450  155.4279 H   0  0  0  0  0  0  0  0  0  0  0  0  # atno 8008 bound_to 7997
  156.1345  140.1524  156.9047 H   0  0  0  0  0  0  0  0  0  0  0  0  # atno 8009 bound_to 7997
  154.4920  140.0838  156.7596 H   0  0  0  0  0  0  0  0  0  0  0  0  # atno 8010 bound_to 7997
  140.4647  144.0854  150.6221 H   0  0  0  0  0  0  0  0  0  0  0  0  # atno 10167 bound_to 10162
  156.5882  130.8759  151.2883 H   0  0  0  0  0  0  0  0  0  0  0  0  # atno 10718 bound_to 10713
  152.9822  135.6034  154.3463 H   0  0  0  0  0  0  0  0  0  0  0  0  # atno 10763 bound_to 10752
  154.3156  135.2770  155.2546 H   0  0  0  0  0  0  0  0  0  0  0  0  # atno 10764 bound_to 10752
  154.4736  135.5935  153.6395 H   0  0  0  0  0  0  0  0  0  0  0  0  # atno 10765 bound_to 10752
  139.9219  134.9638  156.7932 H   0  0  0  0  0  0  0  0  0  0  0  0  # atno 11005 bound_to 11000
  144.6746  140.0563  143.7477 LP  0  0  0  0  0  0  0  0  0  0  0  0  # atno 17320 bound_to 7965
  145.9653  139.2830  143.1131 LP  0  0  0  0  0  0  0  0  0  0  0  0  # atno 17321 bound_to 7965
  140.4051  143.2684  151.9901 LP  0  0  0  0  0  0  0  0  0  0  0  0  # atno 17342 bound_to 10162
  139.4810  144.5964  151.7682 LP  0  0  0  0  0  0  0  0  0  0  0  0  # atno 17343 bound_to 10162
  157.7310  130.9694  150.1859 LP  0  0  0  0  0  0  0  0  0  0  0  0  # atno 17370 bound_to 10713
  156.2572  130.3707  149.8169 LP  0  0  0  0  0  0  0  0  0  0  0  0  # atno 17371 bound_to 10713
  140.6450  133.9783  155.7726 LP  0  0  0  0  0  0  0  0  0  0  0  0  # atno 17394 bound_to 11000
  141.0746  134.0154  157.3476 LP  0  0  0  0  0  0  0  0  0  0  0  0  # atno 17395 bound_to 11000

$$$$
