AV-unprocessed.smi:1721|AV-procd|sdf|6940|dock9
  -GOLD-   22720 8143D 1   1.00000     0.00000
 Structure written by MMmdl.
 44 46  0  0  0  0  0  0  0  0  2 V2000
  151.8625  138.3696  154.4695 C   0  0  0  0  0  0  0  0  0  0  0  0
  150.4794  138.2284  154.1631 O   0  0  0  0  0  0  0  0  0  0  0  0
  149.6629  139.3387  154.2678 C   0  0  0  0  0  0  0  0  0  0  0  0
  150.2132  140.5036  154.6931 N   0  0  0  0  0  0  0  0  0  0  0  0
  149.4199  141.5886  154.7982 C   0  0  0  0  0  0  0  0  0  0  0  0
  148.0482  141.5710  154.4885 C   0  0  0  0  0  0  0  0  0  0  0  0
  147.4747  140.3644  154.0466 C   0  0  0  0  0  0  0  0  0  0  0  0
  148.2944  139.2140  153.9292 C   0  0  0  0  0  0  0  0  0  0  0  0
  147.8369  137.9353  153.4980 N   0  0  0  0  0  0  0  0  0  0  0  0
  146.6446  137.3407  153.6751 C   0  0  0  0  0  0  0  0  0  0  0  0
  145.6824  137.8191  154.2737 O   0  0  0  0  0  0  0  0  0  0  0  0
  146.6247  136.1264  153.1073 N   0  0  0  0  0  0  0  0  0  0  0  0
  145.4833  135.2156  153.1109 C   0  0  1  0  0  0  0  0  0  0  0  0
  144.1358  135.9424  152.9585 C   0  0  0  0  0  0  0  0  0  0  0  0
  143.2678  135.0151  152.0849 C   0  0  0  0  0  0  0  0  0  0  0  0
  144.0907  133.8126  151.8528 N   0  3  1  0  0  0  0  0  0  0  0  0
  143.7929  133.0143  150.6438 C   0  0  0  0  0  0  0  0  0  0  0  0
  144.6927  131.7624  150.6275 C   0  0  0  0  0  0  0  0  0  0  0  0
  146.1839  132.1278  150.7731 C   0  0  0  0  0  0  0  0  0  0  0  0
  146.4175  133.0357  151.9963 C   0  0  0  0  0  0  0  0  0  0  0  0
  145.4904  134.2605  151.9144 C   0  0  2  0  0  0  0  0  0  0  0  0
  152.3603  137.4094  154.3363 H   0  0  0  0  0  0  0  0  0  0  0  0
  152.0124  138.6789  155.5049 H   0  0  0  0  0  0  0  0  0  0  0  0
  152.3477  139.0876  153.8070 H   0  0  0  0  0  0  0  0  0  0  0  0
  149.8923  142.4972  155.1410 H   0  0  0  0  0  0  0  0  0  0  0  0
  147.4480  142.4633  154.5886 H   0  0  0  0  0  0  0  0  0  0  0  0
  146.4228  140.3586  153.8135 H   0  0  0  0  0  0  0  0  0  0  0  0
  148.5164  137.4030  152.9738 H   0  0  0  0  0  0  0  0  0  0  0  0
  147.4592  135.8109  152.6344 H   0  0  0  0  0  0  0  0  0  0  0  0
  145.4567  134.6374  154.0373 H   0  0  0  0  0  0  0  0  0  0  0  0
  143.6784  136.1309  153.9304 H   0  0  0  0  0  0  0  0  0  0  0  0
  144.2576  136.9064  152.4619 H   0  0  0  0  0  0  0  0  0  0  0  0
  142.3275  134.7498  152.5687 H   0  0  0  0  0  0  0  0  0  0  0  0
  143.0359  135.5026  151.1366 H   0  0  0  0  0  0  0  0  0  0  0  0
  142.7421  132.7228  150.6470 H   0  0  0  0  0  0  0  0  0  0  0  0
  143.9592  133.6169  149.7494 H   0  0  0  0  0  0  0  0  0  0  0  0
  144.4045  131.1013  151.4459 H   0  0  0  0  0  0  0  0  0  0  0  0
  144.5337  131.1991  149.7074 H   0  0  0  0  0  0  0  0  0  0  0  0
  146.7866  131.2230  150.8568 H   0  0  0  0  0  0  0  0  0  0  0  0
  146.5206  132.6411  149.8715 H   0  0  0  0  0  0  0  0  0  0  0  0
  146.2262  132.4793  152.9149 H   0  0  0  0  0  0  0  0  0  0  0  0
  147.4609  133.3490  152.0298 H   0  0  0  0  0  0  0  0  0  0  0  0
  145.7153  134.8252  151.0064 H   0  0  0  0  0  0  0  0  0  0  0  0
  143.9496  133.2113  152.6521 H   0  0  0  0  0  0  0  0  0  0  0  0
  1  2  1  0  0  0  0
  1 22  1  0  0  0  0
  1 23  1  0  0  0  0
  1 24  1  0  0  0  0
  2  3  1  0  0  0  0
  3  8  1  0  0  0  0
  3  4  2  0  0  0  0
  4  5  1  0  0  0  0
  5  6  2  0  0  0  0
  5 25  1  0  0  0  0
  6  7  1  0  0  0  0
  6 26  1  0  0  0  0
  7  8  2  0  0  0  0
  7 27  1  0  0  0  0
  8  9  1  0  0  0  0
  9 10  1  0  0  0  0
  9 28  1  0  0  0  0
 10 11  2  0  0  0  0
 10 12  1  0  0  0  0
 12 13  1  0  0  0  0
 12 29  1  0  0  0  0
 13 21  1  0  0  0  0
 13 14  1  0  0  0  0
 13 30  1  0  0  0  0
 14 15  1  0  0  0  0
 14 31  1  0  0  0  0
 14 32  1  0  0  0  0
 15 16  1  0  0  0  0
 15 33  1  0  0  0  0
 15 34  1  0  0  0  0
 16 21  1  0  0  0  0
 16 17  1  0  0  0  0
 16 44  1  0  0  0  0
 17 18  1  0  0  0  0
 17 35  1  0  0  0  0
 17 36  1  0  0  0  0
 18 19  1  0  0  0  0
 18 37  1  0  0  0  0
 18 38  1  0  0  0  0
 19 20  1  0  0  0  0
 19 39  1  0  0  0  0
 19 40  1  0  0  0  0
 20 21  1  0  0  0  0
 20 41  1  0  0  0  0
 20 42  1  0  0  0  0
 21 43  1  0  0  0  0
M  CHG  1  16   1
M  END
> <s_m_source_file>
AV-unprocessed.smi

> <i_m_source_file_index>
1721

> <i_lp_mmshare_version>
43012

> <i_f3d_flags>
0

> <s_epik_input>
W0NIM11PYzFuW2NIXVtjSF1bY0hdYzFbTkhdQyg9TylbTkhdW0NASF0oW0NIMl1bQ0gyXTIpW0NAQEhdKE4yMylbQ0gyXVtDSDJdW0NIMl1bQ0gyXTM=

> <s_epik_cmdline>
J2VwaWtfcHl0aG9uJywgJy1waCcsICc3LjAnLCAnLXRuJywgJzgnLCAnLW1hJywgJzIwMCcsICctbWV0YWxfYmluZGluZycsICctaW1hZScsICc8aW5maWxlLm1hZT4nLCAnLW9tYWUnLCAnPG91dGZpbGUubWFlPic=

> <r_lp_tautomer_probability>
1

> <r_epik_Ionization_Penalty>
0.00104793

> <r_epik_Ionization_Penalty_Charging>
0.000974069

> <r_epik_Ionization_Penalty_Neutral>
7.38649e-05

> <r_epik_State_Penalty>
0.000633842

> <r_epik_Charging_Adjusted_Penalty>
0.00160791

> <i_epik_Tot_Q>
1

> <i_epik_Tot_abs_Q>
1

> <r_epik_Metal_State_Penalty>
-0

> <b_epik_Metal_Only>
0

> <s_lp_Force_Field>
OPLS_2005

> <r_lp_Energy>
37.3569

> <b_lp_Chiralities_Consistent>
1

> <s_lp_Variant>
AV-unprocessed.smi:1721-6

> <Gold.Version>
5.8.1

> <Gold.Id.Protein>
6NUR|6NUR_protein|mol2

> <Gold.PLP.Fitness>
45.2549

> <Gold.PLP.PLP>
-34.6332

> <Gold.PLP.part.hbond>
-3.0000

> <Gold.PLP.part.metal>
0.0000

> <Gold.PLP.part.buried>
-3.5198

> <Gold.PLP.part.nonpolar>
-28.7986

> <Gold.PLP.part.repulsive>
0.4579

> <Gold.PLP.ligand.clash>
0.0000

> <Gold.PLP.ligand.torsion>
0.5682

> <Gold.PLP.Chemscore.Hbond>
2.9200

> <Gold.PLP.Chemscore.CHOScore>
0.9961

> <Gold.PLP.Chemscore.Metal>
0.0000

> <Gold.Chemscore.Hbonds>
donor molecule, donor type, donor heavy atom, donor atom, acceptor molecule, acceptor atom, score
      L1  H     9    28       P1  7948  1.00
      L1  H    12    29       P1  7948  0.98
      P1  H  7989  7998       L1     4  0.94
      L1  C     5    25       P1  8028  0.99

> <Gold.PLP.Chemscore.Internal.Correction>
0.0096

> <Gold.Rescore>
     Score         DG    S(hbond)    S(metal)    S(lipo)     H(rot)  DE(clash)    DE(int)     intcor
     17.63     -19.72       2.32        0.00      82.71       1.25       0.10       1.99       ----

> <Gold.Chemscore.Fitness>
17.6325

> <Gold.Chemscore.DG>
-19.7243

> <Gold.Chemscore.ZeroCoef>
-5.4800

> <Gold.Chemscore.Hbond>
2.3234

> <Gold.Chemscore.Metal>
0.0000

> <Gold.Chemscore.Lipo>
82.7139

> <Gold.Chemscore.Internal_Hbond>
0.0000

> <Gold.Chemscore.DEClash>
0.0990

> <Gold.Chemscore.DEInternal>
1.9929

> <Gold.Chemscore.Rot>
1.2474

> <Gold.Chemscore.Internal.Correction>
   9.000000E+99

> <Gold.Chemscore.Hbonds>
donor molecule, donor type, donor heavy atom, donor atom, acceptor molecule, acceptor atom, score
      L1  H     9    28       P1  7948  0.97
      L1  H    12    29       P1  7948  0.93
      P1  H  7989  7998       L1     4  0.35

> <Gold.Chemscore.Hbond.Weighted>
-7.7602

> <Gold.Chemscore.Metal.Weighted>
-0.0000

> <Gold.Chemscore.Lipo.Weighted>
-9.6775

> <Gold.Chemscore.Internal_Hbond.Weighted>
0.0000

> <Gold.Chemscore.DEClash.Weighted>
0.0990

> <Gold.Chemscore.DEInternal.Weighted>
1.9929

> <Gold.Chemscore.Rot.Weighted>
3.1934

> <Gold.Chemscore.Internal.Correction.Weighted>
   9.000000E+99

> <Gold.Protein.RotatedTorsions>
[ 6907 6896 6895 6894 ] final  162.59 input  -60.11 | X-H torsion
[ 7974 7965 7964 7962 ] final   37.82 input  175.53 | X-H torsion
[ 8008 7997 7996 7995 ] final -110.45 input   59.86 | X-H torsion
[ 10167 10162 10161 10158 ] final -164.42 input  -65.29 | X-H torsion
[ 10718 10713 10712 10709 ] final   98.11 input   66.30 | X-H torsion
[ 10763 10752 10751 10750 ] final  -55.62 input  -60.55 | X-H torsion
[ 11005 11000 10999 10996 ] final -100.52 input  -57.11 | X-H torsion

> <Gold.Protein.ActiveResidues>
 VAL166  LYS551  ARG553  GLY616  TRP617  ASP618  TYR619  PRO620  LYS621  CYS622 
 ASP623  PHE694  ASN695  SER759  ASP760  ASP761  ALA762  ILE779  LEU786  VAL792 
 PHE793  MET794  SER795  GLU796  ALA797  LYS798  CYS799  TRP800  GLU811  SER814 

> <Gold.Protein.RotatedAtoms>
  151.9382  133.3630  159.3955 H   0  0  0  0  0  0  0  0  0  0  0  0  # atno 6907 bound_to 6896
  150.7003  134.4467  159.5326 H   0  0  0  0  0  0  0  0  0  0  0  0  # atno 6908 bound_to 6896
  152.2119  134.8493  160.0547 H   0  0  0  0  0  0  0  0  0  0  0  0  # atno 6909 bound_to 6896
  146.1109  139.5847  142.9353 H   0  0  0  0  0  0  0  0  0  0  0  0  # atno 7974 bound_to 7965
  154.9748  140.0397  157.2251 H   0  0  0  0  0  0  0  0  0  0  0  0  # atno 8008 bound_to 7997
  154.7768  140.2811  155.6072 H   0  0  0  0  0  0  0  0  0  0  0  0  # atno 8009 bound_to 7997
  156.2930  140.2599  156.2584 H   0  0  0  0  0  0  0  0  0  0  0  0  # atno 8010 bound_to 7997
  139.6252  144.0546  152.1968 H   0  0  0  0  0  0  0  0  0  0  0  0  # atno 10167 bound_to 10162
  157.6901  131.0630  150.4747 H   0  0  0  0  0  0  0  0  0  0  0  0  # atno 10718 bound_to 10713
  154.1937  135.6423  153.5067 H   0  0  0  0  0  0  0  0  0  0  0  0  # atno 10763 bound_to 10752
  153.0029  135.5434  154.6389 H   0  0  0  0  0  0  0  0  0  0  0  0  # atno 10764 bound_to 10752
  154.5784  135.2923  155.0731 H   0  0  0  0  0  0  0  0  0  0  0  0  # atno 10765 bound_to 10752
  141.1267  133.8405  157.1113 H   0  0  0  0  0  0  0  0  0  0  0  0  # atno 11005 bound_to 11000
  145.5666  141.0399  143.2197 LP  0  0  0  0  0  0  0  0  0  0  0  0  # atno 17320 bound_to 7965
  144.7510  139.7193  143.7273 LP  0  0  0  0  0  0  0  0  0  0  0  0  # atno 17321 bound_to 7965
  140.0198  144.6162  150.7576 LP  0  0  0  0  0  0  0  0  0  0  0  0  # atno 17342 bound_to 10162
  140.7406  143.2807  151.3606 LP  0  0  0  0  0  0  0  0  0  0  0  0  # atno 17343 bound_to 10162
  156.5082  130.4133  149.6315 LP  0  0  0  0  0  0  0  0  0  0  0  0  # atno 17370 bound_to 10713
  156.3265  130.7308  151.2230 LP  0  0  0  0  0  0  0  0  0  0  0  0  # atno 17371 bound_to 10713
  140.0273  134.9918  157.0712 LP  0  0  0  0  0  0  0  0  0  0  0  0  # atno 17394 bound_to 11000
  140.4341  134.1749  155.7170 LP  0  0  0  0  0  0  0  0  0  0  0  0  # atno 17395 bound_to 11000

$$$$
