AV-unprocessed.smi:2424|AV-procd|sdf|9574|dock10
  -GOLD-   2272013203D 1   1.00000     0.00000
 Structure written by MMmdl.
 49 50  0  0  0  0  0  0  0  0  2 V2000
  146.1919  132.8906  162.0441 C   0  0  0  0  0  0  0  0  0  0  0  0
  147.2118  134.0318  162.2037 C   0  0  0  0  0  0  0  0  0  0  0  0
  146.9168  135.3113  161.3817 C   0  0  0  0  0  0  0  0  0  0  0  0
  147.8701  136.4344  161.8672 C   0  0  0  0  0  0  0  0  0  0  0  0
  147.8090  136.7334  163.3748 C   0  0  0  0  0  0  0  0  0  0  0  0
  146.8430  135.0625  159.8462 C   0  0  2  0  0  0  0  0  0  0  0  0
  147.1852  136.2414  159.0468 N   0  0  0  0  0  0  0  0  0  0  0  0
  148.3841  136.4923  158.5065 C   0  0  0  0  0  0  0  0  0  0  0  0
  149.3473  135.7346  158.6160 O   0  0  0  0  0  0  0  0  0  0  0  0
  148.3701  137.6649  157.8490 N   0  0  0  0  0  0  0  0  0  0  0  0
  149.4171  138.3042  157.1730 C   0  0  0  0  0  0  0  0  0  0  0  0
  150.3432  137.5634  156.4669 C   0  0  0  0  0  0  0  0  0  0  0  0
  151.4070  137.9930  155.7544 N   0  5  0  0  0  0  0  0  0  0  0  0
  151.6385  139.3355  155.6923 C   0  0  0  0  0  0  0  0  0  0  0  0
  152.5879  139.7999  155.0621 O   0  0  0  0  0  0  0  0  0  0  0  0
  150.7216  140.2501  156.4023 C   0  0  0  0  0  0  0  0  0  0  0  0
  150.9811  141.7450  156.3276 C   0  0  0  0  0  0  0  0  0  0  0  0
  149.6743  139.7423  157.0996 C   0  0  0  0  0  0  0  0  0  0  0  0
  145.3210  134.8762  159.9677 C   0  0  2  0  0  0  0  0  0  0  0  0
  144.3648  135.3187  158.8614 C   0  0  0  0  0  0  0  0  0  0  0  0
  145.4012  135.6576  161.2895 C   0  0  2  0  0  0  0  0  0  0  0  0
  145.1308  137.0385  161.0757 O   0  0  0  0  0  0  0  0  0  0  0  0
  145.1954  137.8063  162.2655 C   0  0  0  0  0  0  0  0  0  0  0  0
  146.5507  131.9887  162.5398 H   0  0  0  0  0  0  0  0  0  0  0  0
  146.0226  132.6416  160.9968 H   0  0  0  0  0  0  0  0  0  0  0  0
  145.2301  133.1370  162.4927 H   0  0  0  0  0  0  0  0  0  0  0  0
  147.3200  134.2686  163.2617 H   0  0  0  0  0  0  0  0  0  0  0  0
  148.1850  133.6299  161.9221 H   0  0  0  0  0  0  0  0  0  0  0  0
  148.9033  136.1769  161.6348 H   0  0  0  0  0  0  0  0  0  0  0  0
  147.6996  137.3580  161.3166 H   0  0  0  0  0  0  0  0  0  0  0  0
  148.5899  137.4404  163.6553 H   0  0  0  0  0  0  0  0  0  0  0  0
  147.9548  135.8319  163.9696 H   0  0  0  0  0  0  0  0  0  0  0  0
  146.8571  137.1774  163.6636 H   0  0  0  0  0  0  0  0  0  0  0  0
  147.3599  134.1514  159.5394 H   0  0  0  0  0  0  0  0  0  0  0  0
  146.4492  136.9164  158.9001 H   0  0  0  0  0  0  0  0  0  0  0  0
  147.4933  138.1653  157.8406 H   0  0  0  0  0  0  0  0  0  0  0  0
  150.2081  136.4602  156.4744 H   0  0  0  0  0  0  0  0  0  0  0  0
  150.2394  142.3070  156.8957 H   0  0  0  0  0  0  0  0  0  0  0  0
  150.9424  142.0869  155.2929 H   0  0  0  0  0  0  0  0  0  0  0  0
  151.9654  141.9815  156.7327 H   0  0  0  0  0  0  0  0  0  0  0  0
  149.0252  140.4402  157.6025 H   0  0  0  0  0  0  0  0  0  0  0  0
  145.1293  133.8280  160.2025 H   0  0  0  0  0  0  0  0  0  0  0  0
  144.4800  136.3745  158.6156 H   0  0  0  0  0  0  0  0  0  0  0  0
  143.3269  135.1654  159.1571 H   0  0  0  0  0  0  0  0  0  0  0  0
  144.5341  134.7496  157.9471 H   0  0  0  0  0  0  0  0  0  0  0  0
  144.7712  135.2113  162.0607 H   0  0  0  0  0  0  0  0  0  0  0  0
  145.0274  138.8574  162.0314 H   0  0  0  0  0  0  0  0  0  0  0  0
  146.1683  137.7195  162.7492 H   0  0  0  0  0  0  0  0  0  0  0  0
  144.4274  137.4935  162.9737 H   0  0  0  0  0  0  0  0  0  0  0  0
  1  2  1  0  0  0  0
  1 24  1  0  0  0  0
  1 25  1  0  0  0  0
  1 26  1  0  0  0  0
  2  3  1  0  0  0  0
  2 27  1  0  0  0  0
  2 28  1  0  0  0  0
  3 21  1  0  0  0  0
  3  4  1  0  0  0  0
  3  6  1  0  0  0  0
  4  5  1  0  0  0  0
  4 29  1  0  0  0  0
  4 30  1  0  0  0  0
  5 31  1  0  0  0  0
  5 32  1  0  0  0  0
  5 33  1  0  0  0  0
  6  7  1  0  0  0  0
  6 19  1  0  0  0  0
  6 34  1  0  0  0  0
  7  8  1  0  0  0  0
  7 35  1  0  0  0  0
  8  9  2  0  0  0  0
  8 10  1  0  0  0  0
 10 11  1  0  0  0  0
 10 36  1  0  0  0  0
 11 18  1  0  0  0  0
 11 12  2  0  0  0  0
 12 13  1  0  0  0  0
 12 37  1  0  0  0  0
 13 14  1  0  0  0  0
 14 15  2  0  0  0  0
 14 16  1  0  0  0  0
 16 17  1  0  0  0  0
 16 18  2  0  0  0  0
 17 38  1  0  0  0  0
 17 39  1  0  0  0  0
 17 40  1  0  0  0  0
 18 41  1  0  0  0  0
 19 20  1  0  0  0  0
 19 21  1  0  0  0  0
 19 42  1  0  0  0  0
 20 43  1  0  0  0  0
 20 44  1  0  0  0  0
 20 45  1  0  0  0  0
 21 22  1  0  0  0  0
 21 46  1  0  0  0  0
 22 23  1  0  0  0  0
 23 47  1  0  0  0  0
 23 48  1  0  0  0  0
 23 49  1  0  0  0  0
M  CHG  1  13  -1
M  END
> <s_m_source_file>
AV-unprocessed.smi

> <i_m_source_file_index>
2424

> <i_lp_mmshare_version>
43012

> <i_f3d_flags>
0

> <s_epik_input>
W0NIM11PW0NAQEhdMVtDQEhdKFtDSDNdKVtDQEBIXShDMShbQ0gyXVtDSDNdKVtDSDJdW0NIM10pW05IXUMoPU8pW05IXWMyW2NIXVtuSF1jKD1PKWMoW0NIM10pW2NIXTI=

> <s_epik_cmdline>
J2VwaWtfcHl0aG9uJywgJy1waCcsICc3LjAnLCAnLXRuJywgJzgnLCAnLW1hJywgJzIwMCcsICctbWV0YWxfYmluZGluZycsICctaW1hZScsICc8aW5maWxlLm1hZT4nLCAnLW9tYWUnLCAnPG91dGZpbGUubWFlPic=

> <r_lp_tautomer_probability>
1

> <r_epik_Ionization_Penalty>
7.6122

> <r_epik_Ionization_Penalty_Charging>
1.53843

> <r_epik_Ionization_Penalty_Neutral>
6.07377

> <r_epik_State_Penalty>
6.07371

> <r_epik_Charging_Adjusted_Penalty>
7.61214

> <i_epik_Tot_Q>
-1

> <i_epik_Tot_abs_Q>
1

> <r_epik_Metal_State_Penalty>
2.02136

> <b_epik_Metal_Only>
1

> <s_lp_Force_Field>
OPLS_2005

> <r_lp_Energy>
42.0535

> <b_lp_Chiralities_Consistent>
1

> <s_lp_Variant>
AV-unprocessed.smi:2424-16

> <Gold.Version>
5.8.1

> <Gold.Id.Protein>
6NUR|6NUR_protein|mol2

> <Gold.PLP.Fitness>
37.6347

> <Gold.PLP.PLP>
-31.1203

> <Gold.PLP.part.hbond>
-2.9983

> <Gold.PLP.part.metal>
0.0000

> <Gold.PLP.part.buried>
-1.9232

> <Gold.PLP.part.nonpolar>
-26.0881

> <Gold.PLP.part.repulsive>
0.1530

> <Gold.PLP.ligand.clash>
0.0000

> <Gold.PLP.ligand.torsion>
0.8455

> <Gold.PLP.Chemscore.Hbond>
2.5100

> <Gold.PLP.Chemscore.CHOScore>
0.0000

> <Gold.PLP.Chemscore.Metal>
0.0000

> <Gold.Chemscore.Hbonds>
donor molecule, donor type, donor heavy atom, donor atom, acceptor molecule, acceptor atom, score
      P1  H  6896  6908       L1     9  1.00
      P1  H  7989  7998       L1    15  0.50
      P1  H  7997  8010       L1    15  0.88

> <Gold.PLP.Chemscore.Internal.Correction>
0.6756

> <Gold.Rescore>
     Score         DG    S(hbond)    S(metal)    S(lipo)     H(rot)  DE(clash)    DE(int)     intcor
     14.41     -18.18       2.16        0.00      80.22       1.52       0.04       3.73       ----

> <Gold.Chemscore.Fitness>
14.4142

> <Gold.Chemscore.DG>
-18.1795

> <Gold.Chemscore.ZeroCoef>
-5.4800

> <Gold.Chemscore.Hbond>
2.1574

> <Gold.Chemscore.Metal>
0.0000

> <Gold.Chemscore.Lipo>
80.2237

> <Gold.Chemscore.Internal_Hbond>
0.0000

> <Gold.Chemscore.DEClash>
0.0380

> <Gold.Chemscore.DEInternal>
3.7273

> <Gold.Chemscore.Rot>
1.5204

> <Gold.Chemscore.Internal.Correction>
   9.000000E+99

> <Gold.Chemscore.Hbonds>
donor molecule, donor type, donor heavy atom, donor atom, acceptor molecule, acceptor atom, score
      P1  H  6896  6908       L1     9  0.97
      P1  H  7989  7998       L1    15  0.21
      P1  H  7997  8010       L1    15  0.85

> <Gold.Chemscore.Hbond.Weighted>
-7.2056

> <Gold.Chemscore.Metal.Weighted>
-0.0000

> <Gold.Chemscore.Lipo.Weighted>
-9.3862

> <Gold.Chemscore.Internal_Hbond.Weighted>
0.0000

> <Gold.Chemscore.DEClash.Weighted>
0.0380

> <Gold.Chemscore.DEInternal.Weighted>
3.7273

> <Gold.Chemscore.Rot.Weighted>
3.8922

> <Gold.Chemscore.Internal.Correction.Weighted>
   9.000000E+99

> <Gold.Protein.RotatedTorsions>
[ 6907 6896 6895 6894 ] final -177.83 input  -60.11 | X-H torsion
[ 7974 7965 7964 7962 ] final  160.49 input  175.53 | X-H torsion
[ 8008 7997 7996 7995 ] final  105.07 input   59.86 | X-H torsion
[ 10167 10162 10161 10158 ] final  172.88 input  -65.29 | X-H torsion
[ 10718 10713 10712 10709 ] final  119.30 input   66.30 | X-H torsion
[ 10763 10752 10751 10750 ] final -118.53 input  -60.55 | X-H torsion
[ 11005 11000 10999 10996 ] final -166.64 input  -57.11 | X-H torsion

> <Gold.Protein.ActiveResidues>
 VAL166  LYS551  ARG553  GLY616  TRP617  ASP618  TYR619  PRO620  LYS621  CYS622 
 ASP623  PHE694  ASN695  SER759  ASP760  ASP761  ALA762  ILE779  LEU786  VAL792 
 PHE793  MET794  SER795  GLU796  ALA797  LYS798  CYS799  TRP800  GLU811  SER814 

> <Gold.Protein.RotatedAtoms>
  151.6274  133.3334  159.3100 H   0  0  0  0  0  0  0  0  0  0  0  0  # atno 6907 bound_to 6896
  150.8074  134.7212  159.6668 H   0  0  0  0  0  0  0  0  0  0  0  0  # atno 6908 bound_to 6896
  152.4170  134.6028  160.0056 H   0  0  0  0  0  0  0  0  0  0  0  0  # atno 6909 bound_to 6896
  144.7734  139.7765  143.6288 H   0  0  0  0  0  0  0  0  0  0  0  0  # atno 7974 bound_to 7965
  156.1628  140.3137  155.8836 H   0  0  0  0  0  0  0  0  0  0  0  0  # atno 8008 bound_to 7997
  155.3748  140.0484  157.3062 H   0  0  0  0  0  0  0  0  0  0  0  0  # atno 8009 bound_to 7997
  154.5163  140.2182  155.9071 H   0  0  0  0  0  0  0  0  0  0  0  0  # atno 8010 bound_to 7997
  139.5090  144.3323  152.0099 H   0  0  0  0  0  0  0  0  0  0  0  0  # atno 10167 bound_to 10162
  157.5971  131.1056  150.7877 H   0  0  0  0  0  0  0  0  0  0  0  0  # atno 10718 bound_to 10713
  154.8590  135.4270  154.2154 H   0  0  0  0  0  0  0  0  0  0  0  0  # atno 10763 bound_to 10752
  153.3171  135.6979  153.7070 H   0  0  0  0  0  0  0  0  0  0  0  0  # atno 10764 bound_to 10752
  153.6139  135.3514  155.2962 H   0  0  0  0  0  0  0  0  0  0  0  0  # atno 10765 bound_to 10752
  140.5622  134.5322  157.5145 H   0  0  0  0  0  0  0  0  0  0  0  0  # atno 11005 bound_to 11000
  146.1897  139.5131  142.9813 LP  0  0  0  0  0  0  0  0  0  0  0  0  # atno 17320 bound_to 7965
  145.6256  141.0314  143.1891 LP  0  0  0  0  0  0  0  0  0  0  0  0  # atno 17321 bound_to 7965
  140.2763  144.3909  150.6134 LP  0  0  0  0  0  0  0  0  0  0  0  0  # atno 17342 bound_to 10162
  140.6051  143.2167  151.6996 LP  0  0  0  0  0  0  0  0  0  0  0  0  # atno 17343 bound_to 10162
  156.8285  130.5008  149.5334 LP  0  0  0  0  0  0  0  0  0  0  0  0  # atno 17370 bound_to 10713
  156.1036  130.5987  150.9934 LP  0  0  0  0  0  0  0  0  0  0  0  0  # atno 17371 bound_to 10713
  139.9402  134.7801  156.0698 LP  0  0  0  0  0  0  0  0  0  0  0  0  # atno 17394 bound_to 11000
  141.1107  133.6644  156.2973 LP  0  0  0  0  0  0  0  0  0  0  0  0  # atno 17395 bound_to 11000

$$$$
