AV-unprocessed.smi:806|AV-procd|sdf|3800|dock1
  -GOLD-   22720 1233D 1   1.00000     0.00000
 Structure written by MMmdl.
 45 46  0  0  0  0  0  0  0  0  2 V2000
  147.3063  140.4802  153.0420 C   0  0  0  0  0  0  0  0  0  0  0  0
  147.7227  139.3963  153.9526 N   0  0  0  0  0  0  0  0  0  0  0  0
  147.2186  138.1332  153.8386 C   0  0  0  0  0  0  0  0  0  0  0  0
  147.5720  137.2142  154.5793 O   0  0  0  0  0  0  0  0  0  0  0  0
  146.1658  137.8152  152.7579 C   0  0  0  0  0  0  0  0  0  0  0  0
  146.3903  136.5160  152.0865 N   0  3  0  0  0  0  0  0  0  0  0  0
  145.4320  136.1968  151.0059 C   0  0  0  0  0  0  0  0  0  0  0  0
  144.3586  135.2089  151.4906 C   0  0  0  0  0  0  0  0  0  0  0  0
  144.6901  133.8348  151.1572 N   0  0  0  0  0  0  0  0  0  0  0  0
  143.9060  132.8903  150.5284 C   0  0  0  0  0  0  0  0  0  0  0  0
  144.6415  131.7430  150.4440 C   0  0  0  0  0  0  0  0  0  0  0  0
  145.8823  132.0911  151.0471 C   0  0  0  0  0  0  0  0  0  0  0  0
  145.9088  133.3448  151.4698 N   0  0  0  0  0  0  0  0  0  0  0  0
  148.7462  139.7345  154.9945 C   0  0  0  0  0  0  0  0  0  0  0  0
  148.1741  139.5851  156.3518 C   0  0  0  0  0  0  0  0  0  0  0  0
  147.7281  139.4676  157.4137 N   0  0  0  0  0  0  0  0  0  0  0  0
  149.9749  138.7963  154.8224 C   0  0  0  0  0  0  0  0  0  0  0  0
  151.0963  139.0802  155.8380 C   0  0  0  0  0  0  0  0  0  0  0  0
  151.5595  140.5408  155.7643 C   0  0  0  0  0  0  0  0  0  0  0  0
  150.3778  141.5048  155.9314 C   0  0  0  0  0  0  0  0  0  0  0  0
  149.2726  141.2011  154.9034 C   0  0  0  0  0  0  0  0  0  0  0  0
  146.5832  140.2119  152.2756 H   0  0  0  0  0  0  0  0  0  0  0  0
  148.1705  140.8678  152.5025 H   0  0  0  0  0  0  0  0  0  0  0  0
  146.8481  141.2973  153.5988 H   0  0  0  0  0  0  0  0  0  0  0  0
  145.1881  137.7596  153.2373 H   0  0  0  0  0  0  0  0  0  0  0  0
  146.1269  138.6069  152.0085 H   0  0  0  0  0  0  0  0  0  0  0  0
  147.3237  136.5255  151.6991 H   0  0  0  0  0  0  0  0  0  0  0  0
  144.9617  137.1200  150.6661 H   0  0  0  0  0  0  0  0  0  0  0  0
  145.9576  135.7798  150.1459 H   0  0  0  0  0  0  0  0  0  0  0  0
  144.2270  135.2885  152.5703 H   0  0  0  0  0  0  0  0  0  0  0  0
  143.3955  135.4481  151.0375 H   0  0  0  0  0  0  0  0  0  0  0  0
  142.8995  133.1072  150.2016 H   0  0  0  0  0  0  0  0  0  0  0  0
  144.3405  130.7989  150.0147 H   0  0  0  0  0  0  0  0  0  0  0  0
  146.7582  131.4754  151.1889 H   0  0  0  0  0  0  0  0  0  0  0  0
  149.6883  137.7498  154.9208 H   0  0  0  0  0  0  0  0  0  0  0  0
  150.3738  138.9026  153.8126 H   0  0  0  0  0  0  0  0  0  0  0  0
  150.7501  138.8542  156.8472 H   0  0  0  0  0  0  0  0  0  0  0  0
  151.9408  138.4167  155.6501 H   0  0  0  0  0  0  0  0  0  0  0  0
  152.3102  140.7335  156.5315 H   0  0  0  0  0  0  0  0  0  0  0  0
  152.0450  140.7214  154.8044 H   0  0  0  0  0  0  0  0  0  0  0  0
  149.9838  141.4346  156.9458 H   0  0  0  0  0  0  0  0  0  0  0  0
  150.7220  142.5323  155.8102 H   0  0  0  0  0  0  0  0  0  0  0  0
  149.6896  141.4109  153.9187 H   0  0  0  0  0  0  0  0  0  0  0  0
  148.4544  141.9058  155.0568 H   0  0  0  0  0  0  0  0  0  0  0  0
  146.3342  135.7817  152.7773 H   0  0  0  0  0  0  0  0  0  0  0  0
  1  2  1  0  0  0  0
  1 22  1  0  0  0  0
  1 23  1  0  0  0  0
  1 24  1  0  0  0  0
  2  3  1  0  0  0  0
  2 14  1  0  0  0  0
  3  4  2  0  0  0  0
  3  5  1  0  0  0  0
  5  6  1  0  0  0  0
  5 25  1  0  0  0  0
  5 26  1  0  0  0  0
  6  7  1  0  0  0  0
  6 27  1  0  0  0  0
  6 45  1  0  0  0  0
  7  8  1  0  0  0  0
  7 28  1  0  0  0  0
  7 29  1  0  0  0  0
  8  9  1  0  0  0  0
  8 30  1  0  0  0  0
  8 31  1  0  0  0  0
  9 13  1  0  0  0  0
  9 10  1  0  0  0  0
 10 11  2  0  0  0  0
 10 32  1  0  0  0  0
 11 12  1  0  0  0  0
 11 33  1  0  0  0  0
 12 13  2  0  0  0  0
 12 34  1  0  0  0  0
 14 21  1  0  0  0  0
 14 15  1  0  0  0  0
 14 17  1  0  0  0  0
 15 16  3  0  0  0  0
 17 18  1  0  0  0  0
 17 35  1  0  0  0  0
 17 36  1  0  0  0  0
 18 19  1  0  0  0  0
 18 37  1  0  0  0  0
 18 38  1  0  0  0  0
 19 20  1  0  0  0  0
 19 39  1  0  0  0  0
 19 40  1  0  0  0  0
 20 21  1  0  0  0  0
 20 41  1  0  0  0  0
 20 42  1  0  0  0  0
 21 43  1  0  0  0  0
 21 44  1  0  0  0  0
M  CHG  1   6   1
M  END
> <s_m_source_file>
AV-unprocessed.smi

> <i_m_source_file_index>
806

> <i_lp_mmshare_version>
43012

> <i_f3d_flags>
0

> <s_epik_input>
W0NIMl0xW0NIMl1bQ0gyXVtDSDJdW0NIMl1DMShDI04pTihbQ0gzXSlDKD1PKVtDSDJdW05IXVtDSDJdW0NIMl1uMltjSF1bY0hdW2NIXW4y

> <s_epik_cmdline>
J2VwaWtfcHl0aG9uJywgJy1waCcsICc3LjAnLCAnLXRuJywgJzgnLCAnLW1hJywgJzIwMCcsICctbWV0YWxfYmluZGluZycsICctaW1hZScsICc8aW5maWxlLm1hZT4nLCAnLW9tYWUnLCAnPG91dGZpbGUubWFlPic=

> <r_lp_tautomer_probability>
1

> <r_epik_Ionization_Penalty>
0.349033

> <r_epik_Ionization_Penalty_Charging>
0.349031

> <r_epik_Ionization_Penalty_Neutral>
2.24604e-06

> <r_epik_State_Penalty>
0.345151

> <r_epik_Charging_Adjusted_Penalty>
0.694182

> <i_epik_Tot_Q>
1

> <i_epik_Tot_abs_Q>
1

> <r_epik_Metal_State_Penalty>
0.345887

> <b_epik_Metal_Only>
0

> <s_lp_Force_Field>
OPLS_2005

> <r_lp_Energy>
26.3561

> <b_lp_Chiralities_Consistent>
1

> <s_lp_Variant>
AV-unprocessed.smi:806-1

> <Gold.Version>
5.8.1

> <Gold.Id.Protein>
6NUR|6NUR_protein|mol2

> <Gold.PLP.Fitness>
45.3506

> <Gold.PLP.PLP>
-34.8570

> <Gold.PLP.part.hbond>
-1.0000

> <Gold.PLP.part.metal>
0.0000

> <Gold.PLP.part.buried>
-2.4087

> <Gold.PLP.part.nonpolar>
-32.5056

> <Gold.PLP.part.repulsive>
0.2831

> <Gold.PLP.ligand.clash>
0.0000

> <Gold.PLP.ligand.torsion>
0.9145

> <Gold.PLP.Chemscore.Hbond>
2.0000

> <Gold.PLP.Chemscore.CHOScore>
2.0000

> <Gold.PLP.Chemscore.Metal>
0.0000

> <Gold.Chemscore.Hbonds>
donor molecule, donor type, donor heavy atom, donor atom, acceptor molecule, acceptor atom, score
      L1  H     6    27       P1  7948  2.00
      L1  C    10    32       P1 10186  1.00
      L1  C    12    34       P1 10747  1.00

> <Gold.PLP.Chemscore.Internal.Correction>
0.3226

> <Gold.Rescore>
     Score         DG    S(hbond)    S(metal)    S(lipo)     H(rot)  DE(clash)    DE(int)     intcor
     11.42     -13.90       0.97        0.00      90.09       2.09       0.04       2.44       ----

> <Gold.Chemscore.Fitness>
11.4236

> <Gold.Chemscore.DG>
-13.9027

> <Gold.Chemscore.ZeroCoef>
-5.4800

> <Gold.Chemscore.Hbond>
0.9673

> <Gold.Chemscore.Metal>
0.0000

> <Gold.Chemscore.Lipo>
90.0904

> <Gold.Chemscore.Internal_Hbond>
0.0000

> <Gold.Chemscore.DEClash>
0.0384

> <Gold.Chemscore.DEInternal>
2.4407

> <Gold.Chemscore.Rot>
2.0893

> <Gold.Chemscore.Internal.Correction>
   9.000000E+99

> <Gold.Chemscore.Hbonds>
donor molecule, donor type, donor heavy atom, donor atom, acceptor molecule, acceptor atom, score
      L1  H     6    27       P1  7948  0.96

> <Gold.Chemscore.Hbond.Weighted>
-3.2307

> <Gold.Chemscore.Metal.Weighted>
-0.0000

> <Gold.Chemscore.Lipo.Weighted>
-10.5406

> <Gold.Chemscore.Internal_Hbond.Weighted>
0.0000

> <Gold.Chemscore.DEClash.Weighted>
0.0384

> <Gold.Chemscore.DEInternal.Weighted>
2.4407

> <Gold.Chemscore.Rot.Weighted>
5.3486

> <Gold.Chemscore.Internal.Correction.Weighted>
   9.000000E+99

> <Gold.Protein.RotatedTorsions>
[ 6907 6896 6895 6894 ] final  -58.91 input  -60.11 | X-H torsion
[ 7974 7965 7964 7962 ] final  -10.47 input  175.53 | X-H torsion
[ 8008 7997 7996 7995 ] final -102.31 input   59.86 | X-H torsion
[ 10167 10162 10161 10158 ] final  -45.22 input  -65.29 | X-H torsion
[ 10718 10713 10712 10709 ] final -121.06 input   66.30 | X-H torsion
[ 10763 10752 10751 10750 ] final    8.28 input  -60.55 | X-H torsion
[ 11005 11000 10999 10996 ] final  158.68 input  -57.11 | X-H torsion

> <Gold.Protein.ActiveResidues>
 VAL166  LYS551  ARG553  GLY616  TRP617  ASP618  TYR619  PRO620  LYS621  CYS622 
 ASP623  PHE694  ASN695  SER759  ASP760  ASP761  ALA762  ILE779  LEU786  VAL792 
 PHE793  MET794  SER795  GLU796  ALA797  LYS798  CYS799  TRP800  GLU811  SER814 

> <Gold.Protein.RotatedAtoms>
  150.7971  134.7038  159.6564 H   0  0  0  0  0  0  0  0  0  0  0  0  # atno 6907 bound_to 6896
  152.4084  134.6164  160.0049 H   0  0  0  0  0  0  0  0  0  0  0  0  # atno 6908 bound_to 6896
  151.6414  133.3289  159.3167 H   0  0  0  0  0  0  0  0  0  0  0  0  # atno 6909 bound_to 6896
  146.2220  140.2768  142.8360 H   0  0  0  0  0  0  0  0  0  0  0  0  # atno 7974 bound_to 7965
  154.8548  140.0429  157.1628 H   0  0  0  0  0  0  0  0  0  0  0  0  # atno 8008 bound_to 7997
  154.8903  140.2985  155.5354 H   0  0  0  0  0  0  0  0  0  0  0  0  # atno 8009 bound_to 7997
  156.2997  140.2395  156.3918 H   0  0  0  0  0  0  0  0  0  0  0  0  # atno 8010 bound_to 7997
  140.6866  143.2890  151.3608 H   0  0  0  0  0  0  0  0  0  0  0  0  # atno 10167 bound_to 10162
  156.1307  130.6393  150.9616 H   0  0  0  0  0  0  0  0  0  0  0  0  # atno 10718 bound_to 10713
  153.2268  135.6888  153.7936 H   0  0  0  0  0  0  0  0  0  0  0  0  # atno 10763 bound_to 10752
  153.7114  135.3281  155.3248 H   0  0  0  0  0  0  0  0  0  0  0  0  # atno 10764 bound_to 10752
  154.8295  135.4591  154.1138 H   0  0  0  0  0  0  0  0  0  0  0  0  # atno 10765 bound_to 10752
  140.1888  134.8422  157.2888 H   0  0  0  0  0  0  0  0  0  0  0  0  # atno 11005 bound_to 11000
  144.9227  140.7886  143.5738 LP  0  0  0  0  0  0  0  0  0  0  0  0  # atno 17320 bound_to 7965
  145.2706  139.1956  143.4843 LP  0  0  0  0  0  0  0  0  0  0  0  0  # atno 17321 bound_to 7965
  139.6231  144.0868  152.2409 LP  0  0  0  0  0  0  0  0  0  0  0  0  # atno 17342 bound_to 10162
  140.0319  144.6074  150.7481 LP  0  0  0  0  0  0  0  0  0  0  0  0  # atno 17343 bound_to 10162
  157.6485  131.0900  150.8102 LP  0  0  0  0  0  0  0  0  0  0  0  0  # atno 17370 bound_to 10713
  156.8187  130.4977  149.5346 LP  0  0  0  0  0  0  0  0  0  0  0  0  # atno 17371 bound_to 10713
  140.2183  134.4054  155.7578 LP  0  0  0  0  0  0  0  0  0  0  0  0  # atno 17394 bound_to 11000
  141.2225  133.7153  156.8449 LP  0  0  0  0  0  0  0  0  0  0  0  0  # atno 17395 bound_to 11000

$$$$
