AV-unprocessed.smi:2277|AV-procd|sdf|9178|dock10
  -GOLD-   2272012393D 1   1.00000     0.00000
 Structure written by MMmdl.
 37 38  0  0  0  0  0  0  0  0  1 V2000
  151.6872  145.2666  159.9879 C   0  0  0  0  0  0  0  0  0  0  0  0
  151.7536  143.9420  159.2569 C   0  0  0  0  0  0  0  0  0  0  0  0
  152.4865  142.8572  159.7750 C   0  0  0  0  0  0  0  0  0  0  0  0
  152.5126  141.6491  159.0518 C   0  0  0  0  0  0  0  0  0  0  0  0
  151.8078  141.5534  157.8308 C   0  0  0  0  0  0  0  0  0  0  0  0
  151.8968  140.2930  157.1821 N   0  0  0  0  0  0  0  0  0  0  0  0
  151.0692  139.7741  156.2579 C   0  0  0  0  0  0  0  0  0  0  0  0
  150.0757  140.3346  155.7945 O   0  0  0  0  0  0  0  0  0  0  0  0
  151.4565  138.5415  155.8958 N   0  0  0  0  0  0  0  0  0  0  0  0
  150.7745  137.6956  154.9150 C   0  0  0  0  0  0  0  0  0  0  0  0
  150.5989  136.2261  155.3326 C   0  0  0  0  0  0  0  0  0  0  0  0
  151.1615  135.8235  156.3500 O   0  0  0  0  0  0  0  0  0  0  0  0
  149.8325  135.4327  154.5670 N   0  0  0  0  0  0  0  0  0  0  0  0
  149.5868  134.0213  154.8189 C   0  0  0  0  0  0  0  0  0  0  0  0
  148.6888  133.3645  153.7922 C   0  0  0  0  0  0  0  0  0  0  0  0
  147.2499  133.0449  154.1226 C   0  0  0  0  0  0  0  0  0  0  0  0
  148.2509  131.9272  153.9483 C   0  0  0  0  0  0  0  0  0  0  0  0
  151.1041  142.6043  157.3405 N   0  0  0  0  0  0  0  0  0  0  0  0
  151.0796  143.7618  158.0339 C   0  0  0  0  0  0  0  0  0  0  0  0
  152.2874  145.2483  160.8980 H   0  0  0  0  0  0  0  0  0  0  0  0
  150.6572  145.4949  160.2625 H   0  0  0  0  0  0  0  0  0  0  0  0
  152.0591  146.0691  159.3503 H   0  0  0  0  0  0  0  0  0  0  0  0
  153.0205  142.9445  160.7099 H   0  0  0  0  0  0  0  0  0  0  0  0
  153.0701  140.8067  159.4348 H   0  0  0  0  0  0  0  0  0  0  0  0
  152.6773  139.7169  157.4600 H   0  0  0  0  0  0  0  0  0  0  0  0
  152.2839  138.1563  156.3269 H   0  0  0  0  0  0  0  0  0  0  0  0
  149.7963  138.1161  154.6755 H   0  0  0  0  0  0  0  0  0  0  0  0
  151.3529  137.7200  153.9912 H   0  0  0  0  0  0  0  0  0  0  0  0
  149.4086  135.8323  153.7425 H   0  0  0  0  0  0  0  0  0  0  0  0
  150.5390  133.4892  154.8572 H   0  0  0  0  0  0  0  0  0  0  0  0
  149.1225  133.9123  155.8000 H   0  0  0  0  0  0  0  0  0  0  0  0
  148.8703  133.7022  152.7735 H   0  0  0  0  0  0  0  0  0  0  0  0
  146.9021  133.2533  155.1325 H   0  0  0  0  0  0  0  0  0  0  0  0
  146.5106  133.1846  153.3365 H   0  0  0  0  0  0  0  0  0  0  0  0
  148.1808  131.3240  153.0456 H   0  0  0  0  0  0  0  0  0  0  0  0
  148.5698  131.3939  154.8419 H   0  0  0  0  0  0  0  0  0  0  0  0
  150.5048  144.5663  157.5989 H   0  0  0  0  0  0  0  0  0  0  0  0
  1  2  1  0  0  0  0
  1 20  1  0  0  0  0
  1 21  1  0  0  0  0
  1 22  1  0  0  0  0
  2 19  1  0  0  0  0
  2  3  2  0  0  0  0
  3  4  1  0  0  0  0
  3 23  1  0  0  0  0
  4  5  2  0  0  0  0
  4 24  1  0  0  0  0
  5  6  1  0  0  0  0
  5 18  1  0  0  0  0
  6  7  1  0  0  0  0
  6 25  1  0  0  0  0
  7  8  2  0  0  0  0
  7  9  1  0  0  0  0
  9 10  1  0  0  0  0
  9 26  1  0  0  0  0
 10 11  1  0  0  0  0
 10 27  1  0  0  0  0
 10 28  1  0  0  0  0
 11 12  2  0  0  0  0
 11 13  1  0  0  0  0
 13 14  1  0  0  0  0
 13 29  1  0  0  0  0
 14 15  1  0  0  0  0
 14 30  1  0  0  0  0
 14 31  1  0  0  0  0
 15 17  1  0  0  0  0
 15 16  1  0  0  0  0
 15 32  1  0  0  0  0
 16 17  1  0  0  0  0
 16 33  1  0  0  0  0
 16 34  1  0  0  0  0
 17 35  1  0  0  0  0
 17 36  1  0  0  0  0
 18 19  2  0  0  0  0
 19 37  1  0  0  0  0
M  END
> <s_m_source_file>
AV-unprocessed.smi

> <i_m_source_file_index>
2277

> <i_lp_mmshare_version>
43012

> <i_f3d_flags>
0

> <s_epik_input>
W0NIM11jMVtjSF1bY0hdYyhuW2NIXTEpW05IXUMoPU8pW05IXVtDSDJdQyg9TylbTkhdW0NIMl1bQ0hdMltDSDJdW0NIMl0y

> <s_epik_cmdline>
J2VwaWtfcHl0aG9uJywgJy1waCcsICc3LjAnLCAnLXRuJywgJzgnLCAnLW1hJywgJzIwMCcsICctbWV0YWxfYmluZGluZycsICctaW1hZScsICc8aW5maWxlLm1hZT4nLCAnLW9tYWUnLCAnPG91dGZpbGUubWFlPic=

> <r_lp_tautomer_probability>
1

> <r_epik_Ionization_Penalty>
4.99402e-05

> <r_epik_Ionization_Penalty_Charging>
0

> <r_epik_Ionization_Penalty_Neutral>
4.99402e-05

> <r_epik_State_Penalty>
-0

> <r_epik_Charging_Adjusted_Penalty>
0

> <i_epik_Tot_Q>
0

> <i_epik_Tot_abs_Q>
0

> <r_epik_Metal_State_Penalty>
-0

> <b_epik_Metal_Only>
0

> <s_lp_Force_Field>
OPLS_2005

> <r_lp_Energy>
11.1939

> <b_lp_Chiralities_Consistent>
1

> <s_lp_Variant>
AV-unprocessed.smi:2277-1

> <Gold.Version>
5.8.1

> <Gold.Id.Protein>
6NUR|6NUR_protein|mol2

> <Gold.PLP.Fitness>
44.9801

> <Gold.PLP.PLP>
-36.4516

> <Gold.PLP.part.hbond>
-2.6499

> <Gold.PLP.part.metal>
0.0000

> <Gold.PLP.part.buried>
-5.0880

> <Gold.PLP.part.nonpolar>
-29.8799

> <Gold.PLP.part.repulsive>
0.4693

> <Gold.PLP.ligand.clash>
0.0000

> <Gold.PLP.ligand.torsion>
0.5859

> <Gold.PLP.Chemscore.Hbond>
2.0000

> <Gold.PLP.Chemscore.CHOScore>
1.0500

> <Gold.PLP.Chemscore.Metal>
0.0000

> <Gold.Chemscore.Hbonds>
donor molecule, donor type, donor heavy atom, donor atom, acceptor molecule, acceptor atom, score
      L1  H    13    29       P1  7948  1.00
      L1  C    19    37       P1  8028  1.00

> <Gold.PLP.Chemscore.Internal.Correction>
0.5503

> <Gold.Rescore>
     Score         DG    S(hbond)    S(metal)    S(lipo)     H(rot)  DE(clash)    DE(int)     intcor
     14.06     -15.98       1.56        0.00      84.72       1.81       0.17       1.75       ----

> <Gold.Chemscore.Fitness>
14.0554

> <Gold.Chemscore.DG>
-15.9831

> <Gold.Chemscore.ZeroCoef>
-5.4800

> <Gold.Chemscore.Hbond>
1.5612

> <Gold.Chemscore.Metal>
0.0000

> <Gold.Chemscore.Lipo>
84.7157

> <Gold.Chemscore.Internal_Hbond>
0.0000

> <Gold.Chemscore.DEClash>
0.1739

> <Gold.Chemscore.DEInternal>
1.7537

> <Gold.Chemscore.Rot>
1.8058

> <Gold.Chemscore.Internal.Correction>
   9.000000E+99

> <Gold.Chemscore.Hbonds>
donor molecule, donor type, donor heavy atom, donor atom, acceptor molecule, acceptor atom, score
      L1  H    13    29       P1  7948  0.55

> <Gold.Chemscore.Hbond.Weighted>
-5.2143

> <Gold.Chemscore.Metal.Weighted>
-0.0000

> <Gold.Chemscore.Lipo.Weighted>
-9.9117

> <Gold.Chemscore.Internal_Hbond.Weighted>
0.0000

> <Gold.Chemscore.DEClash.Weighted>
0.1739

> <Gold.Chemscore.DEInternal.Weighted>
1.7537

> <Gold.Chemscore.Rot.Weighted>
4.6230

> <Gold.Chemscore.Internal.Correction.Weighted>
   9.000000E+99

> <Gold.Protein.RotatedTorsions>
[ 6907 6896 6895 6894 ] final  149.07 input  -60.11 | X-H torsion
[ 7974 7965 7964 7962 ] final   52.78 input  175.53 | X-H torsion
[ 8008 7997 7996 7995 ] final   65.13 input   59.86 | X-H torsion
[ 10167 10162 10161 10158 ] final -109.42 input  -65.29 | X-H torsion
[ 10718 10713 10712 10709 ] final   88.29 input   66.30 | X-H torsion
[ 10763 10752 10751 10750 ] final  -15.74 input  -60.55 | X-H torsion
[ 11005 11000 10999 10996 ] final -178.48 input  -57.11 | X-H torsion

> <Gold.Protein.ActiveResidues>
 VAL166  LYS551  ARG553  GLY616  TRP617  ASP618  TYR619  PRO620  LYS621  CYS622 
 ASP623  PHE694  ASN695  SER759  ASP760  ASP761  ALA762  ILE779  LEU786  VAL792 
 PHE793  MET794  SER795  GLU796  ALA797  LYS798  CYS799  TRP800  GLU811  SER814 

> <Gold.Protein.RotatedAtoms>
  152.1330  133.4418  159.4729 H   0  0  0  0  0  0  0  0  0  0  0  0  # atno 6907 bound_to 6896
  150.6879  134.2398  159.4477 H   0  0  0  0  0  0  0  0  0  0  0  0  # atno 6908 bound_to 6896
  152.0283  134.9782  160.0622 H   0  0  0  0  0  0  0  0  0  0  0  0  # atno 6909 bound_to 6896
  145.9779  139.4213  143.0150 H   0  0  0  0  0  0  0  0  0  0  0  0  # atno 7974 bound_to 7965
  155.6569  140.3497  155.4768 H   0  0  0  0  0  0  0  0  0  0  0  0  # atno 8008 bound_to 7997
  155.9801  140.1173  157.0757 H   0  0  0  0  0  0  0  0  0  0  0  0  # atno 8009 bound_to 7997
  154.4189  140.1140  156.5410 H   0  0  0  0  0  0  0  0  0  0  0  0  # atno 8010 bound_to 7997
  140.1555  143.4163  152.1464 H   0  0  0  0  0  0  0  0  0  0  0  0  # atno 10167 bound_to 10162
  157.6948  131.0289  150.3253 H   0  0  0  0  0  0  0  0  0  0  0  0  # atno 10718 bound_to 10713
  153.5479  135.7012  153.5605 H   0  0  0  0  0  0  0  0  0  0  0  0  # atno 10763 bound_to 10752
  153.3542  135.3987  155.1669 H   0  0  0  0  0  0  0  0  0  0  0  0  # atno 10764 bound_to 10752
  154.8665  135.3773  154.4988 H   0  0  0  0  0  0  0  0  0  0  0  0  # atno 10765 bound_to 10752
  140.4293  134.6533  157.4704 H   0  0  0  0  0  0  0  0  0  0  0  0  # atno 11005 bound_to 11000
  145.7812  140.9855  143.1098 LP  0  0  0  0  0  0  0  0  0  0  0  0  # atno 17320 bound_to 7965
  144.6853  139.9567  143.7479 LP  0  0  0  0  0  0  0  0  0  0  0  0  # atno 17321 bound_to 7965
  139.5405  144.7252  151.4748 LP  0  0  0  0  0  0  0  0  0  0  0  0  # atno 17342 bound_to 10162
  140.6676  143.8364  150.6960 LP  0  0  0  0  0  0  0  0  0  0  0  0  # atno 17343 bound_to 10162
  156.3734  130.3867  149.7157 LP  0  0  0  0  0  0  0  0  0  0  0  0  # atno 17370 bound_to 10713
  156.4564  130.7931  151.2952 LP  0  0  0  0  0  0  0  0  0  0  0  0  # atno 17371 bound_to 10713
  140.0145  134.6640  155.9330 LP  0  0  0  0  0  0  0  0  0  0  0  0  # atno 17394 bound_to 11000
  141.1752  133.6540  156.4801 LP  0  0  0  0  0  0  0  0  0  0  0  0  # atno 17395 bound_to 11000

$$$$
