AV-unprocessed.smi:1340|AV-procd|sdf|5503|dock3
  -GOLD-   22720 5 83D 1   1.00000     0.00000
 Structure written by MMmdl.
 40 41  0  0  0  0  0  0  0  0  1 V2000
  152.0567  145.0739  158.5964 C   0  0  0  0  0  0  0  0  0  0  0  0
  152.2301  143.6550  159.1485 C   0  0  0  0  0  0  0  0  0  0  0  0
  151.4000  142.6120  158.3769 C   0  0  0  0  0  0  0  0  0  0  0  0
  151.3126  141.2425  159.0799 C   0  0  2  0  0  0  0  0  0  0  0  0
  152.6936  140.7389  159.5256 C   0  0  0  0  0  0  0  0  0  0  0  0
  150.6925  140.2703  158.1854 N   0  0  0  0  0  0  0  0  0  0  0  0
  150.4074  138.9919  158.4800 C   0  0  0  0  0  0  0  0  0  0  0  0
  150.7431  138.4427  159.5290 O   0  0  0  0  0  0  0  0  0  0  0  0
  149.5981  138.2226  157.4322 C   0  0  0  0  0  0  0  0  0  0  0  0
  149.2891  136.8421  157.9395 C   0  0  0  0  0  0  0  0  0  0  0  0
  149.5926  135.6502  157.3275 C   0  0  0  0  0  0  0  0  0  0  0  0
  149.1157  134.2797  158.2931 S   0  0  0  0  0  0  0  0  0  0  0  0
  148.5053  135.3967  159.5168 C   0  0  0  0  0  0  0  0  0  0  0  0
  147.9356  135.0489  160.7770 N   0  0  0  0  0  0  0  0  0  0  0  0
  147.7589  133.6572  161.1802 C   0  0  0  0  0  0  0  0  0  0  0  0
  147.0669  133.7541  162.5360 C   0  0  0  0  0  0  0  0  0  0  0  0
  146.9640  135.1823  162.7228 N   0  0  0  0  0  0  0  0  0  0  0  0
  147.4629  135.8970  161.7117 C   0  0  0  0  0  0  0  0  0  0  0  0
  147.4744  137.1259  161.6779 O   0  0  0  0  0  0  0  0  0  0  0  0
  148.6436  136.6800  159.1706 N   0  0  0  0  0  0  0  0  0  0  0  0
  152.6509  145.7873  159.1679 H   0  0  0  0  0  0  0  0  0  0  0  0
  151.0154  145.3929  158.6496 H   0  0  0  0  0  0  0  0  0  0  0  0
  152.3742  145.1335  157.5551 H   0  0  0  0  0  0  0  0  0  0  0  0
  153.2849  143.3806  159.1137 H   0  0  0  0  0  0  0  0  0  0  0  0
  151.9498  143.6569  160.2014 H   0  0  0  0  0  0  0  0  0  0  0  0
  150.3941  143.0013  158.2127 H   0  0  0  0  0  0  0  0  0  0  0  0
  151.8374  142.4773  157.3869 H   0  0  0  0  0  0  0  0  0  0  0  0
  150.6909  141.3628  159.9691 H   0  0  0  0  0  0  0  0  0  0  0  0
  153.1671  141.4465  160.2065 H   0  0  0  0  0  0  0  0  0  0  0  0
  153.3601  140.5997  158.6738 H   0  0  0  0  0  0  0  0  0  0  0  0
  152.6154  139.7846  160.0478 H   0  0  0  0  0  0  0  0  0  0  0  0
  150.3771  140.6211  157.2924 H   0  0  0  0  0  0  0  0  0  0  0  0
  148.6815  138.7709  157.2110 H   0  0  0  0  0  0  0  0  0  0  0  0
  150.1631  138.1741  156.5003 H   0  0  0  0  0  0  0  0  0  0  0  0
  150.0843  135.4959  156.3783 H   0  0  0  0  0  0  0  0  0  0  0  0
  147.1457  133.1173  160.4573 H   0  0  0  0  0  0  0  0  0  0  0  0
  148.7247  133.1560  161.2607 H   0  0  0  0  0  0  0  0  0  0  0  0
  146.0766  133.2970  162.5239 H   0  0  0  0  0  0  0  0  0  0  0  0
  147.6592  133.3025  163.3328 H   0  0  0  0  0  0  0  0  0  0  0  0
  146.5512  135.5912  163.5488 H   0  0  0  0  0  0  0  0  0  0  0  0
  1  2  1  0  0  0  0
  1 21  1  0  0  0  0
  1 22  1  0  0  0  0
  1 23  1  0  0  0  0
  2  3  1  0  0  0  0
  2 24  1  0  0  0  0
  2 25  1  0  0  0  0
  3  4  1  0  0  0  0
  3 26  1  0  0  0  0
  3 27  1  0  0  0  0
  4  5  1  0  0  0  0
  4  6  1  0  0  0  0
  4 28  1  0  0  0  0
  5 29  1  0  0  0  0
  5 30  1  0  0  0  0
  5 31  1  0  0  0  0
  6  7  1  0  0  0  0
  6 32  1  0  0  0  0
  7  8  2  0  0  0  0
  7  9  1  0  0  0  0
  9 10  1  0  0  0  0
  9 33  1  0  0  0  0
  9 34  1  0  0  0  0
 10 20  1  0  0  0  0
 10 11  2  0  0  0  0
 11 12  1  0  0  0  0
 11 35  1  0  0  0  0
 12 13  1  0  0  0  0
 13 14  1  0  0  0  0
 13 20  2  0  0  0  0
 14 18  1  0  0  0  0
 14 15  1  0  0  0  0
 15 16  1  0  0  0  0
 15 36  1  0  0  0  0
 15 37  1  0  0  0  0
 16 17  1  0  0  0  0
 16 38  1  0  0  0  0
 16 39  1  0  0  0  0
 17 18  1  0  0  0  0
 17 40  1  0  0  0  0
 18 19  2  0  0  0  0
M  END
> <s_m_source_file>
AV-unprocessed.smi

> <i_m_source_file_index>
1340

> <i_lp_mmshare_version>
43012

> <i_f3d_flags>
0

> <s_epik_input>
W0NIM11bQ0gyXVtDSDJdW0NASF0oW0NIM10pW05IXUMoPU8pW0NIMl1jMVtjSF1zYyhuMSlOMltDSDJdW0NIMl1bTkhdQzI9Tw==

> <s_epik_cmdline>
J2VwaWtfcHl0aG9uJywgJy1waCcsICc3LjAnLCAnLXRuJywgJzgnLCAnLW1hJywgJzIwMCcsICctbWV0YWxfYmluZGluZycsICctaW1hZScsICc8aW5maWxlLm1hZT4nLCAnLW9tYWUnLCAnPG91dGZpbGUubWFlPic=

> <r_lp_tautomer_probability>
1

> <r_epik_Ionization_Penalty>
0.00012151

> <r_epik_Ionization_Penalty_Charging>
0

> <r_epik_Ionization_Penalty_Neutral>
0.00012151

> <r_epik_State_Penalty>
-0

> <r_epik_Charging_Adjusted_Penalty>
0

> <i_epik_Tot_Q>
0

> <i_epik_Tot_abs_Q>
0

> <r_epik_Metal_State_Penalty>
-0

> <b_epik_Metal_Only>
0

> <s_lp_Force_Field>
OPLS_2005

> <r_lp_Energy>
29.8855

> <b_lp_Chiralities_Consistent>
1

> <s_lp_Variant>
AV-unprocessed.smi:1340-1

> <Gold.Version>
5.8.1

> <Gold.Id.Protein>
6NUR|6NUR_protein|mol2

> <Gold.PLP.Fitness>
39.7570

> <Gold.PLP.PLP>
-34.8864

> <Gold.PLP.part.hbond>
-2.7107

> <Gold.PLP.part.metal>
0.0000

> <Gold.PLP.part.buried>
-5.3445

> <Gold.PLP.part.nonpolar>
-26.3559

> <Gold.PLP.part.repulsive>
0.2525

> <Gold.PLP.ligand.clash>
0.0000

> <Gold.PLP.ligand.torsion>
0.1250

> <Gold.PLP.Chemscore.Hbond>
1.6978

> <Gold.PLP.Chemscore.CHOScore>
0.0000

> <Gold.PLP.Chemscore.Metal>
0.0000

> <Gold.Chemscore.Hbonds>
donor molecule, donor type, donor heavy atom, donor atom, acceptor molecule, acceptor atom, score
      P1  H  6931  6943       L1    19  0.98
      P1  H  6934  6947       L1    19  0.77

> <Gold.PLP.Chemscore.Internal.Correction>
0.0270

> <Gold.Rescore>
     Score         DG    S(hbond)    S(metal)    S(lipo)     H(rot)  DE(clash)    DE(int)     intcor
     12.27     -15.18       1.76        0.00      74.68       1.92       0.01       2.89       ----

> <Gold.Chemscore.Fitness>
12.2745

> <Gold.Chemscore.DG>
-15.1764

> <Gold.Chemscore.ZeroCoef>
-5.4800

> <Gold.Chemscore.Hbond>
1.7567

> <Gold.Chemscore.Metal>
0.0000

> <Gold.Chemscore.Lipo>
74.6836

> <Gold.Chemscore.Internal_Hbond>
0.0000

> <Gold.Chemscore.DEClash>
0.0086

> <Gold.Chemscore.DEInternal>
2.8933

> <Gold.Chemscore.Rot>
1.9176

> <Gold.Chemscore.Internal.Correction>
   9.000000E+99

> <Gold.Chemscore.Hbonds>
donor molecule, donor type, donor heavy atom, donor atom, acceptor molecule, acceptor atom, score
      P1  H  6931  6943       L1    19  0.93
      P1  H  6934  6947       L1    19  0.73

> <Gold.Chemscore.Hbond.Weighted>
-5.8675

> <Gold.Chemscore.Metal.Weighted>
-0.0000

> <Gold.Chemscore.Lipo.Weighted>
-8.7380

> <Gold.Chemscore.Internal_Hbond.Weighted>
0.0000

> <Gold.Chemscore.DEClash.Weighted>
0.0086

> <Gold.Chemscore.DEInternal.Weighted>
2.8933

> <Gold.Chemscore.Rot.Weighted>
4.9091

> <Gold.Chemscore.Internal.Correction.Weighted>
   9.000000E+99

> <Gold.Protein.RotatedTorsions>
[ 6907 6896 6895 6894 ] final  -95.65 input  -60.11 | X-H torsion
[ 7974 7965 7964 7962 ] final  170.15 input  175.53 | X-H torsion
[ 8008 7997 7996 7995 ] final   28.97 input   59.86 | X-H torsion
[ 10167 10162 10161 10158 ] final   92.78 input  -65.29 | X-H torsion
[ 10718 10713 10712 10709 ] final  -86.77 input   66.30 | X-H torsion
[ 10763 10752 10751 10750 ] final   -1.26 input  -60.55 | X-H torsion
[ 11005 11000 10999 10996 ] final  106.21 input  -57.11 | X-H torsion

> <Gold.Protein.ActiveResidues>
 VAL166  LYS551  ARG553  GLY616  TRP617  ASP618  TYR619  PRO620  LYS621  CYS622 
 ASP623  PHE694  ASN695  SER759  ASP760  ASP761  ALA762  ILE779  LEU786  VAL792 
 PHE793  MET794  SER795  GLU796  ALA797  LYS798  CYS799  TRP800  GLU811  SER814 

> <Gold.Protein.RotatedAtoms>
  150.6969  134.1625  159.4181 H   0  0  0  0  0  0  0  0  0  0  0  0  # atno 6907 bound_to 6896
  151.9605  135.0123  160.0556 H   0  0  0  0  0  0  0  0  0  0  0  0  # atno 6908 bound_to 6896
  152.1931  133.4752  159.5055 H   0  0  0  0  0  0  0  0  0  0  0  0  # atno 6909 bound_to 6896
  144.7333  139.9159  143.6417 H   0  0  0  0  0  0  0  0  0  0  0  0  # atno 7974 bound_to 7965
  155.0670  140.3196  155.4642 H   0  0  0  0  0  0  0  0  0  0  0  0  # atno 8008 bound_to 7997
  156.2799  140.2118  156.5742 H   0  0  0  0  0  0  0  0  0  0  0  0  # atno 8009 bound_to 7997
  154.7085  140.0500  157.0515 H   0  0  0  0  0  0  0  0  0  0  0  0  # atno 8010 bound_to 7997
  139.8243  144.6717  150.9479 H   0  0  0  0  0  0  0  0  0  0  0  0  # atno 10167 bound_to 10162
  155.9988  130.4776  150.4765 H   0  0  0  0  0  0  0  0  0  0  0  0  # atno 10718 bound_to 10713
  153.3425  135.6981  153.6855 H   0  0  0  0  0  0  0  0  0  0  0  0  # atno 10763 bound_to 10752
  153.5614  135.3534  155.2801 H   0  0  0  0  0  0  0  0  0  0  0  0  # atno 10764 bound_to 10752
  154.8639  135.4250  154.2641 H   0  0  0  0  0  0  0  0  0  0  0  0  # atno 10765 bound_to 10752
  139.8811  134.9361  156.5631 H   0  0  0  0  0  0  0  0  0  0  0  0  # atno 11005 bound_to 11000
  146.0966  139.3959  143.0373 LP  0  0  0  0  0  0  0  0  0  0  0  0  # atno 17320 bound_to 7965
  145.7637  140.9925  143.1186 LP  0  0  0  0  0  0  0  0  0  0  0  0  # atno 17321 bound_to 7965
  140.7811  143.4061  151.1069 LP  0  0  0  0  0  0  0  0  0  0  0  0  # atno 17342 bound_to 10162
  139.7719  143.8481  152.3122 LP  0  0  0  0  0  0  0  0  0  0  0  0  # atno 17343 bound_to 10162
  157.2775  131.0600  151.2219 LP  0  0  0  0  0  0  0  0  0  0  0  0  # atno 17370 bound_to 10713
  157.3278  130.6969  149.6306 LP  0  0  0  0  0  0  0  0  0  0  0  0  # atno 17371 bound_to 10713
  140.8154  133.8396  155.8847 LP  0  0  0  0  0  0  0  0  0  0  0  0  # atno 17394 bound_to 11000
  140.9467  134.1831  157.4758 LP  0  0  0  0  0  0  0  0  0  0  0  0  # atno 17395 bound_to 11000

$$$$
