AV-unprocessed.smi:2490|AV-procd|sdf|9807|dock1
  -GOLD-   2272013443D 1   1.00000     0.00000
 Structure written by MMmdl.
 33 34  0  0  0  0  0  0  0  0  1 V2000
  147.0188  138.9837  151.9547 C   0  0  0  0  0  0  0  0  0  0  0  0
  147.9871  138.9290  153.0389 N   0  0  0  0  0  0  0  0  0  0  0  0
  148.3707  139.9886  153.7665 C   0  0  0  0  0  0  0  0  0  0  0  0
  147.9249  141.1222  153.5826 O   0  0  0  0  0  0  0  0  0  0  0  0
  149.3947  139.7178  154.8777 C   0  0  2  0  0  0  0  0  0  0  0  0
  149.8167  141.0026  155.6259 C   0  0  0  0  0  0  0  0  0  0  0  0
  150.8553  140.7059  156.6040 N   0  0  0  0  0  0  0  0  0  0  0  0
  151.1348  141.6906  157.5326 C   0  0  0  0  0  0  0  0  0  0  0  0
  152.0532  141.4170  158.4672 N   0  0  0  0  0  0  0  0  0  0  0  0
  152.3161  142.3882  159.3681 C   0  0  0  0  0  0  0  0  0  0  0  0
  151.6548  143.6330  159.3287 C   0  0  0  0  0  0  0  0  0  0  0  0
  151.9506  144.7206  160.3389 C   0  0  0  0  0  0  0  0  0  0  0  0
  150.7071  143.8058  158.2982 C   0  0  0  0  0  0  0  0  0  0  0  0
  150.4493  142.8297  157.4014 N   0  0  0  0  0  0  0  0  0  0  0  0
  151.9963  140.0187  156.0157 C   0  0  0  0  0  0  0  0  0  0  0  0
  151.5274  138.7593  155.2696 C   0  0  0  0  0  0  0  0  0  0  0  0
  150.5527  139.1176  154.2953 O   0  0  0  0  0  0  0  0  0  0  0  0
  146.8729  137.9876  151.5371 H   0  0  0  0  0  0  0  0  0  0  0  0
  147.3670  139.6406  151.1567 H   0  0  0  0  0  0  0  0  0  0  0  0
  146.0548  139.3483  152.3119 H   0  0  0  0  0  0  0  0  0  0  0  0
  148.3977  138.0308  153.2502 H   0  0  0  0  0  0  0  0  0  0  0  0
  148.9409  139.0153  155.5792 H   0  0  0  0  0  0  0  0  0  0  0  0
  150.1893  141.7484  154.9218 H   0  0  0  0  0  0  0  0  0  0  0  0
  148.9578  141.4417  156.1358 H   0  0  0  0  0  0  0  0  0  0  0  0
  153.0568  142.1693  160.1230 H   0  0  0  0  0  0  0  0  0  0  0  0
  151.3192  145.5941  160.1732 H   0  0  0  0  0  0  0  0  0  0  0  0
  152.9927  145.0321  160.2639 H   0  0  0  0  0  0  0  0  0  0  0  0
  151.7713  144.3559  161.3504 H   0  0  0  0  0  0  0  0  0  0  0  0
  150.1532  144.7270  158.1906 H   0  0  0  0  0  0  0  0  0  0  0  0
  152.5110  140.6929  155.3298 H   0  0  0  0  0  0  0  0  0  0  0  0
  152.7081  139.7482  156.7967 H   0  0  0  0  0  0  0  0  0  0  0  0
  152.3703  138.2824  154.7697 H   0  0  0  0  0  0  0  0  0  0  0  0
  151.1116  138.0274  155.9639 H   0  0  0  0  0  0  0  0  0  0  0  0
  1  2  1  0  0  0  0
  1 18  1  0  0  0  0
  1 19  1  0  0  0  0
  1 20  1  0  0  0  0
  2  3  1  0  0  0  0
  2 21  1  0  0  0  0
  3  4  2  0  0  0  0
  3  5  1  0  0  0  0
  5 17  1  0  0  0  0
  5  6  1  0  0  0  0
  5 22  1  0  0  0  0
  6  7  1  0  0  0  0
  6 23  1  0  0  0  0
  6 24  1  0  0  0  0
  7  8  1  0  0  0  0
  7 15  1  0  0  0  0
  8 14  1  0  0  0  0
  8  9  2  0  0  0  0
  9 10  1  0  0  0  0
 10 11  2  0  0  0  0
 10 25  1  0  0  0  0
 11 12  1  0  0  0  0
 11 13  1  0  0  0  0
 12 26  1  0  0  0  0
 12 27  1  0  0  0  0
 12 28  1  0  0  0  0
 13 14  2  0  0  0  0
 13 29  1  0  0  0  0
 15 16  1  0  0  0  0
 15 30  1  0  0  0  0
 15 31  1  0  0  0  0
 16 17  1  0  0  0  0
 16 32  1  0  0  0  0
 16 33  1  0  0  0  0
M  END
> <s_m_source_file>
AV-unprocessed.smi

> <i_m_source_file_index>
2490

> <i_lp_mmshare_version>
43012

> <i_f3d_flags>
0

> <s_epik_input>
W0NIM11bTkhdQyg9TylbQ0BASF0xW0NIMl1OKFtDSDJdW0NIMl1PMSljMm5bY0hdYyhbQ0gzXSlbY0hdbjI=

> <s_epik_cmdline>
J2VwaWtfcHl0aG9uJywgJy1waCcsICc3LjAnLCAnLXRuJywgJzgnLCAnLW1hJywgJzIwMCcsICctbWV0YWxfYmluZGluZycsICctaW1hZScsICc8aW5maWxlLm1hZT4nLCAnLW9tYWUnLCAnPG91dGZpbGUubWFlPic=

> <r_lp_tautomer_probability>
1

> <r_epik_Ionization_Penalty>
8.72552e-06

> <r_epik_Ionization_Penalty_Charging>
0

> <r_epik_Ionization_Penalty_Neutral>
8.72552e-06

> <r_epik_State_Penalty>
-0

> <r_epik_Charging_Adjusted_Penalty>
0

> <i_epik_Tot_Q>
0

> <i_epik_Tot_abs_Q>
0

> <r_epik_Metal_State_Penalty>
-0

> <b_epik_Metal_Only>
0

> <s_lp_Force_Field>
OPLS_2005

> <r_lp_Energy>
12.5382

> <b_lp_Chiralities_Consistent>
1

> <s_lp_Variant>
AV-unprocessed.smi:2490-1

> <Gold.Version>
5.8.1

> <Gold.Id.Protein>
6NUR|6NUR_protein|mol2

> <Gold.PLP.Fitness>
36.0168

> <Gold.PLP.PLP>
-31.4160

> <Gold.PLP.part.hbond>
-3.0000

> <Gold.PLP.part.metal>
0.0000

> <Gold.PLP.part.buried>
1.2580

> <Gold.PLP.part.nonpolar>
-30.0817

> <Gold.PLP.part.repulsive>
1.4289

> <Gold.PLP.ligand.clash>
0.0000

> <Gold.PLP.ligand.torsion>
0.2111

> <Gold.PLP.Chemscore.Hbond>
0.9854

> <Gold.PLP.Chemscore.CHOScore>
0.5934

> <Gold.PLP.Chemscore.Metal>
0.0000

> <Gold.Chemscore.Hbonds>
donor molecule, donor type, donor heavy atom, donor atom, acceptor molecule, acceptor atom, score
      L1  H     2    21       P1  7948  0.16
      P1  H  7989  7998       L1    17  0.50
      L1  C    13    29       P1  8028  0.12
      L1  C    13    29       P1  8029  0.42

> <Gold.PLP.Chemscore.Internal.Correction>
0.2866

> <Gold.Rescore>
     Score         DG    S(hbond)    S(metal)    S(lipo)     H(rot)  DE(clash)    DE(int)     intcor
     12.80     -13.81       0.63        0.00      81.73       1.31       0.74       0.27       ----

> <Gold.Chemscore.Fitness>
12.7993

> <Gold.Chemscore.DG>
-13.8110

> <Gold.Chemscore.ZeroCoef>
-5.4800

> <Gold.Chemscore.Hbond>
0.6347

> <Gold.Chemscore.Metal>
0.0000

> <Gold.Chemscore.Lipo>
81.7260

> <Gold.Chemscore.Internal_Hbond>
0.0000

> <Gold.Chemscore.DEClash>
0.7431

> <Gold.Chemscore.DEInternal>
0.2686

> <Gold.Chemscore.Rot>
1.3089

> <Gold.Chemscore.Internal.Correction>
   9.000000E+99

> <Gold.Chemscore.Hbonds>
donor molecule, donor type, donor heavy atom, donor atom, acceptor molecule, acceptor atom, score
      L1  H     2    21       P1  7948  0.17
      P1  H  7989  7998       L1    17  0.03

> <Gold.Chemscore.Hbond.Weighted>
-2.1199

> <Gold.Chemscore.Metal.Weighted>
-0.0000

> <Gold.Chemscore.Lipo.Weighted>
-9.5619

> <Gold.Chemscore.Internal_Hbond.Weighted>
0.0000

> <Gold.Chemscore.DEClash.Weighted>
0.7431

> <Gold.Chemscore.DEInternal.Weighted>
0.2686

> <Gold.Chemscore.Rot.Weighted>
3.3509

> <Gold.Chemscore.Internal.Correction.Weighted>
   9.000000E+99

> <Gold.Protein.RotatedTorsions>
[ 6907 6896 6895 6894 ] final  -39.77 input  -60.11 | X-H torsion
[ 7974 7965 7964 7962 ] final  -94.90 input  175.53 | X-H torsion
[ 8008 7997 7996 7995 ] final -125.56 input   59.86 | X-H torsion
[ 10167 10162 10161 10158 ] final  -37.11 input  -65.29 | X-H torsion
[ 10718 10713 10712 10709 ] final  147.29 input   66.30 | X-H torsion
[ 10763 10752 10751 10750 ] final   23.22 input  -60.55 | X-H torsion
[ 11005 11000 10999 10996 ] final  158.57 input  -57.11 | X-H torsion

> <Gold.Protein.ActiveResidues>
 VAL166  LYS551  ARG553  GLY616  TRP617  ASP618  TYR619  PRO620  LYS621  CYS622 
 ASP623  PHE694  ASN695  SER759  ASP760  ASP761  ALA762  ILE779  LEU786  VAL792 
 PHE793  MET794  SER795  GLU796  ALA797  LYS798  CYS799  TRP800  GLU811  SER814 

> <Gold.Protein.RotatedAtoms>
  150.9864  134.9209  159.7873 H   0  0  0  0  0  0  0  0  0  0  0  0  # atno 6907 bound_to 6896
  152.5238  134.3340  159.9203 H   0  0  0  0  0  0  0  0  0  0  0  0  # atno 6908 bound_to 6896
  151.3347  133.3945  159.2700 H   0  0  0  0  0  0  0  0  0  0  0  0  # atno 6909 bound_to 6896
  145.3672  140.9500  143.2467 H   0  0  0  0  0  0  0  0  0  0  0  0  # atno 7974 bound_to 7965
  155.2153  140.0420  157.2940 H   0  0  0  0  0  0  0  0  0  0  0  0  # atno 8008 bound_to 7997
  154.5985  140.2445  155.7796 H   0  0  0  0  0  0  0  0  0  0  0  0  # atno 8009 bound_to 7997
  156.2305  140.2940  156.0186 H   0  0  0  0  0  0  0  0  0  0  0  0  # atno 8010 bound_to 7997
  140.7126  143.3363  151.2455 H   0  0  0  0  0  0  0  0  0  0  0  0  # atno 10167 bound_to 10162
  157.3228  131.0907  151.1226 H   0  0  0  0  0  0  0  0  0  0  0  0  # atno 10718 bound_to 10713
  153.0855  135.6631  153.9958 H   0  0  0  0  0  0  0  0  0  0  0  0  # atno 10763 bound_to 10752
  153.9568  135.2978  155.3437 H   0  0  0  0  0  0  0  0  0  0  0  0  # atno 10764 bound_to 10752
  154.7262  135.5143  153.8963 H   0  0  0  0  0  0  0  0  0  0  0  0  # atno 10765 bound_to 10752
  140.1878  134.8429  157.2877 H   0  0  0  0  0  0  0  0  0  0  0  0  # atno 11005 bound_to 11000
  144.8603  139.5188  143.6815 LP  0  0  0  0  0  0  0  0  0  0  0  0  # atno 17320 bound_to 7965
  146.2901  139.7116  142.9167 LP  0  0  0  0  0  0  0  0  0  0  0  0  # atno 17321 bound_to 7965
  139.6859  143.9774  152.2834 LP  0  0  0  0  0  0  0  0  0  0  0  0  # atno 17342 bound_to 10162
  139.9419  144.6676  150.8257 LP  0  0  0  0  0  0  0  0  0  0  0  0  # atno 17343 bound_to 10162
  157.2504  130.6611  149.5929 LP  0  0  0  0  0  0  0  0  0  0  0  0  # atno 17370 bound_to 10713
  155.9687  130.4540  150.5833 LP  0  0  0  0  0  0  0  0  0  0  0  0  # atno 17371 bound_to 10713
  140.2194  134.4041  155.7573 LP  0  0  0  0  0  0  0  0  0  0  0  0  # atno 17394 bound_to 11000
  141.2225  133.7158  156.8466 LP  0  0  0  0  0  0  0  0  0  0  0  0  # atno 17395 bound_to 11000

$$$$
