AV-unprocessed.smi:3234|AV-procd|sdf|12349|dock2
  -GOLD-   2272018213D 1   1.00000     0.00000
 Structure written by MMmdl.
 37 39  0  0  0  0  0  0  0  0  2 V2000
  144.2598  136.0832  151.9425 O   0  0  0  0  0  0  0  0  0  0  0  0
  145.4853  135.9808  151.9048 C   0  0  0  0  0  0  0  0  0  0  0  0
  146.1737  134.9532  151.3771 N   0  0  0  0  0  0  0  0  0  0  0  0
  145.6950  133.7586  150.7702 C   0  0  0  0  0  0  0  0  0  0  0  0
  144.2988  133.6233  150.6234 C   0  0  0  0  0  0  0  0  0  0  0  0
  143.7866  132.4588  150.0176 C   0  0  0  0  0  0  0  0  0  0  0  0
  144.5661  131.4566  149.5614 N   0  0  0  0  0  0  0  0  0  0  0  0
  145.9025  131.5896  149.6949 C   0  0  0  0  0  0  0  0  0  0  0  0
  146.5173  132.7125  150.2846 C   0  0  0  0  0  0  0  0  0  0  0  0
  146.3128  136.9173  152.3908 N   0  0  0  0  0  0  0  0  0  0  0  0
  145.8862  138.1486  153.0482 C   0  0  1  0  0  0  0  0  0  0  0  0
  146.2039  138.1821  154.5432 C   0  0  0  0  0  0  0  0  0  0  0  0
  146.3868  139.6752  154.8665 C   0  0  0  0  0  0  0  0  0  0  0  0
  146.3874  140.3989  153.5734 N   0  3  1  0  0  0  0  0  0  0  0  0
  147.3170  141.5465  153.5163 C   0  0  0  0  0  0  0  0  0  0  0  0
  148.6381  141.2879  154.2003 C   0  0  0  0  0  0  0  0  0  0  0  0
  147.5979  142.1626  154.8659 C   0  0  0  0  0  0  0  0  0  0  0  0
  146.6122  139.3885  152.5257 C   0  0  0  0  0  0  0  0  0  0  0  0
  147.1786  135.0473  151.3904 H   0  0  0  0  0  0  0  0  0  0  0  0
  143.6261  134.3947  150.9687 H   0  0  0  0  0  0  0  0  0  0  0  0
  142.7213  132.3305  149.8953 H   0  0  0  0  0  0  0  0  0  0  0  0
  146.5032  130.7761  149.3158 H   0  0  0  0  0  0  0  0  0  0  0  0
  147.5935  132.7429  150.3395 H   0  0  0  0  0  0  0  0  0  0  0  0
  147.3073  136.7584  152.3174 H   0  0  0  0  0  0  0  0  0  0  0  0
  144.8100  138.2784  152.9153 H   0  0  0  0  0  0  0  0  0  0  0  0
  145.4205  137.7176  155.1430 H   0  0  0  0  0  0  0  0  0  0  0  0
  147.1351  137.6511  154.7473 H   0  0  0  0  0  0  0  0  0  0  0  0
  145.5766  140.0531  155.4906 H   0  0  0  0  0  0  0  0  0  0  0  0
  147.3215  139.8301  155.4077 H   0  0  0  0  0  0  0  0  0  0  0  0
  147.2702  142.1668  152.6228 H   0  0  0  0  0  0  0  0  0  0  0  0
  148.8139  140.3018  154.6266 H   0  0  0  0  0  0  0  0  0  0  0  0
  149.5187  141.7823  153.7949 H   0  0  0  0  0  0  0  0  0  0  0  0
  147.7940  143.2325  154.8990 H   0  0  0  0  0  0  0  0  0  0  0  0
  147.0822  141.7577  155.7350 H   0  0  0  0  0  0  0  0  0  0  0  0
  147.6813  139.1920  152.4233 H   0  0  0  0  0  0  0  0  0  0  0  0
  146.2328  139.7259  151.5605 H   0  0  0  0  0  0  0  0  0  0  0  0
  145.4502  140.7508  153.4378 H   0  0  0  0  0  0  0  0  0  0  0  0
  1  2  2  0  0  0  0
  2  3  1  0  0  0  0
  2 10  1  0  0  0  0
  3  4  1  0  0  0  0
  3 19  1  0  0  0  0
  4  9  1  0  0  0  0
  4  5  2  0  0  0  0
  5  6  1  0  0  0  0
  5 20  1  0  0  0  0
  6  7  2  0  0  0  0
  6 21  1  0  0  0  0
  7  8  1  0  0  0  0
  8  9  2  0  0  0  0
  8 22  1  0  0  0  0
  9 23  1  0  0  0  0
 10 11  1  0  0  0  0
 10 24  1  0  0  0  0
 11 18  1  0  0  0  0
 11 12  1  0  0  0  0
 11 25  1  0  0  0  0
 12 13  1  0  0  0  0
 12 26  1  0  0  0  0
 12 27  1  0  0  0  0
 13 14  1  0  0  0  0
 13 28  1  0  0  0  0
 13 29  1  0  0  0  0
 14 15  1  0  0  0  0
 14 18  1  0  0  0  0
 14 37  1  0  0  0  0
 15 17  1  0  0  0  0
 15 16  1  0  0  0  0
 15 30  1  0  0  0  0
 16 17  1  0  0  0  0
 16 31  1  0  0  0  0
 16 32  1  0  0  0  0
 17 33  1  0  0  0  0
 17 34  1  0  0  0  0
 18 35  1  0  0  0  0
 18 36  1  0  0  0  0
M  CHG  1  14   1
M  END
> <s_m_source_file>
AV-unprocessed.smi

> <i_m_source_file_index>
3234

> <i_lp_mmshare_version>
43012

> <i_f3d_flags>
0

> <s_epik_input>
W2NIXTFbY0hdbltjSF1bY0hdYzFbTkhdQyg9TylbTkhdW0NAQEhdMltDSDJdW0NIMl1OKFtDSDJdMilbQ0hdM1tDSDJdW0NIMl0z

> <s_epik_cmdline>
J2VwaWtfcHl0aG9uJywgJy1waCcsICc3LjAnLCAnLXRuJywgJzgnLCAnLW1hJywgJzIwMCcsICctbWV0YWxfYmluZGluZycsICctaW1hZScsICc8aW5maWxlLm1hZT4nLCAnLW9tYWUnLCAnPG91dGZpbGUubWFlPic=

> <r_epik_Ionization_Penalty>
0.0934328

> <r_epik_Ionization_Penalty_Charging>
0.000606352

> <r_epik_Ionization_Penalty_Neutral>
0.0928265

> <r_epik_State_Penalty>
0.0830811

> <r_epik_Charging_Adjusted_Penalty>
0.0836875

> <i_epik_Tot_Q>
1

> <i_epik_Tot_abs_Q>
1

> <r_epik_Metal_State_Penalty>
0.0724491

> <b_epik_Metal_Only>
0

> <s_lp_Force_Field>
OPLS_2005

> <r_lp_Energy>
41.3186

> <b_lp_Chiralities_Consistent>
1

> <s_lp_Variant>
AV-unprocessed.smi:3234-2

> <Gold.Version>
5.8.1

> <Gold.Id.Protein>
6NUR|6NUR_protein|mol2

> <Gold.PLP.Fitness>
45.5948

> <Gold.PLP.PLP>
-29.5131

> <Gold.PLP.part.hbond>
-3.9339

> <Gold.PLP.part.metal>
0.0000

> <Gold.PLP.part.buried>
1.2105

> <Gold.PLP.part.nonpolar>
-28.1295

> <Gold.PLP.part.repulsive>
0.6526

> <Gold.PLP.ligand.clash>
0.0000

> <Gold.PLP.ligand.torsion>
0.7417

> <Gold.PLP.Chemscore.Hbond>
4.0037

> <Gold.PLP.Chemscore.CHOScore>
1.4303

> <Gold.PLP.Chemscore.Metal>
0.0000

> <Gold.Chemscore.Hbonds>
donor molecule, donor type, donor heavy atom, donor atom, acceptor molecule, acceptor atom, score
      L1  H     3    19       P1  7948  0.75
      L1  H    10    24       P1  7948  1.00
      L1  H    14    37       P1 10175  1.86
      P1  H 10785 10796       L1     7  0.37
      L1  C     6    21       P1 10186  0.46
      L1  C     6    21       P1 10952  0.43
      L1  C     8    22       P1 10747  0.50

> <Gold.PLP.Chemscore.Internal.Correction>
1.2632

> <Gold.Rescore>
     Score         DG    S(hbond)    S(metal)    S(lipo)     H(rot)  DE(clash)    DE(int)     intcor
     17.17     -20.21       2.42        0.00      83.25       1.21       0.85       2.19       ----

> <Gold.Chemscore.Fitness>
17.1728

> <Gold.Chemscore.DG>
-20.2103

> <Gold.Chemscore.ZeroCoef>
-5.4800

> <Gold.Chemscore.Hbond>
2.4222

> <Gold.Chemscore.Metal>
0.0000

> <Gold.Chemscore.Lipo>
83.2469

> <Gold.Chemscore.Internal_Hbond>
0.0000

> <Gold.Chemscore.DEClash>
0.8523

> <Gold.Chemscore.DEInternal>
2.1852

> <Gold.Chemscore.Rot>
1.2108

> <Gold.Chemscore.Internal.Correction>
   9.000000E+99

> <Gold.Chemscore.Hbonds>
donor molecule, donor type, donor heavy atom, donor atom, acceptor molecule, acceptor atom, score
      L1  H     3    19       P1  7948  0.53
      L1  H    10    24       P1  7948  1.00
      L1  H    14    37       P1 10175  0.71
      P1  H 10785 10796       L1     7  0.15

> <Gold.Chemscore.Hbond.Weighted>
-8.0900

> <Gold.Chemscore.Metal.Weighted>
-0.0000

> <Gold.Chemscore.Lipo.Weighted>
-9.7399

> <Gold.Chemscore.Internal_Hbond.Weighted>
0.0000

> <Gold.Chemscore.DEClash.Weighted>
0.8523

> <Gold.Chemscore.DEInternal.Weighted>
2.1852

> <Gold.Chemscore.Rot.Weighted>
3.0996

> <Gold.Chemscore.Internal.Correction.Weighted>
   9.000000E+99

> <Gold.Protein.RotatedTorsions>
[ 6907 6896 6895 6894 ] final  103.37 input  -60.11 | X-H torsion
[ 7974 7965 7964 7962 ] final  105.78 input  175.53 | X-H torsion
[ 8008 7997 7996 7995 ] final  101.24 input   59.86 | X-H torsion
[ 10167 10162 10161 10158 ] final -150.11 input  -65.29 | X-H torsion
[ 10718 10713 10712 10709 ] final   61.55 input   66.30 | X-H torsion
[ 10763 10752 10751 10750 ] final  -83.39 input  -60.55 | X-H torsion
[ 11005 11000 10999 10996 ] final  151.38 input  -57.11 | X-H torsion

> <Gold.Protein.ActiveResidues>
 VAL166  LYS551  ARG553  GLY616  TRP617  ASP618  TYR619  PRO620  LYS621  CYS622 
 ASP623  PHE694  ASN695  SER759  ASP760  ASP761  ALA762  ILE779  LEU786  VAL792 
 PHE793  MET794  SER795  GLU796  ALA797  LYS798  CYS799  TRP800  GLU811  SER814 

> <Gold.Protein.RotatedAtoms>
  152.5297  133.9836  159.7817 H   0  0  0  0  0  0  0  0  0  0  0  0  # atno 6907 bound_to 6896
  151.0085  133.5979  159.2693 H   0  0  0  0  0  0  0  0  0  0  0  0  # atno 6908 bound_to 6896
  151.3062  135.0788  159.9309 H   0  0  0  0  0  0  0  0  0  0  0  0  # atno 6909 bound_to 6896
  145.3152  139.2528  143.3741 H   0  0  0  0  0  0  0  0  0  0  0  0  # atno 7974 bound_to 7965
  156.1281  140.3200  155.8307 H   0  0  0  0  0  0  0  0  0  0  0  0  # atno 8008 bound_to 7997
  155.4383  140.0523  157.3030 H   0  0  0  0  0  0  0  0  0  0  0  0  # atno 8009 bound_to 7997
  154.4878  140.2080  155.9630 H   0  0  0  0  0  0  0  0  0  0  0  0  # atno 8010 bound_to 7997
  139.7383  143.8702  152.2555 H   0  0  0  0  0  0  0  0  0  0  0  0  # atno 10167 bound_to 10162
  157.5836  130.9001  149.9475 H   0  0  0  0  0  0  0  0  0  0  0  0  # atno 10718 bound_to 10713
  154.5871  135.5558  153.7242 H   0  0  0  0  0  0  0  0  0  0  0  0  # atno 10763 bound_to 10752
  153.0103  135.6334  154.1901 H   0  0  0  0  0  0  0  0  0  0  0  0  # atno 10764 bound_to 10752
  154.1842  135.2885  155.3022 H   0  0  0  0  0  0  0  0  0  0  0  0  # atno 10765 bound_to 10752
  140.1214  134.8861  157.2077 H   0  0  0  0  0  0  0  0  0  0  0  0  # atno 11005 bound_to 11000
  146.3103  140.3697  142.8673 LP  0  0  0  0  0  0  0  0  0  0  0  0  # atno 17320 bound_to 7965
  144.8983  140.7611  143.5883 LP  0  0  0  0  0  0  0  0  0  0  0  0  # atno 17321 bound_to 7965
  139.8645  144.7100  150.9060 LP  0  0  0  0  0  0  0  0  0  0  0  0  # atno 17342 bound_to 10162
  140.7782  143.3790  151.1511 LP  0  0  0  0  0  0  0  0  0  0  0  0  # atno 17343 bound_to 10162
  156.0883  130.3666  150.0444 LP  0  0  0  0  0  0  0  0  0  0  0  0  # atno 17370 bound_to 10713
  156.8579  130.9481  151.3620 LP  0  0  0  0  0  0  0  0  0  0  0  0  # atno 17371 bound_to 10713
  140.2961  134.3185  155.7302 LP  0  0  0  0  0  0  0  0  0  0  0  0  # atno 17394 bound_to 11000
  141.2152  133.7563  156.9573 LP  0  0  0  0  0  0  0  0  0  0  0  0  # atno 17395 bound_to 11000

$$$$
