AV-unprocessed.smi:2083|AV-procd|sdf|8491|dock6
  -GOLD-   2272011203D 1   1.00000     0.00000
 Structure written by MMmdl.
 45 46  0  0  0  0  0  0  0  0  2 V2000
  153.4180  137.2626  158.5225 C   0  0  0  0  0  0  0  0  0  0  0  0
  152.7241  137.1411  157.2094 C   0  0  0  0  0  0  0  0  0  0  0  0
  151.4278  136.8829  156.8624 C   0  0  0  0  0  0  0  0  0  0  0  0
  151.4646  136.9135  155.4431 C   0  0  0  0  0  0  0  0  0  0  0  0
  150.2908  136.6868  154.6799 N   0  0  0  0  0  0  0  0  0  0  0  0
  149.0419  136.4974  155.1377 C   0  0  0  0  0  0  0  0  0  0  0  0
  148.7174  136.4739  156.3252 O   0  0  0  0  0  0  0  0  0  0  0  0
  148.1730  136.3260  154.1301 N   0  0  0  0  0  0  0  0  0  0  0  0
  146.7342  136.1231  154.2802 C   0  0  0  0  0  0  0  0  0  0  0  0
  146.0150  135.9450  152.9181 C   0  0  1  0  0  0  0  0  0  0  0  0
  146.2833  137.0949  151.9279 C   0  0  0  0  0  0  0  0  0  0  0  0
  146.3004  134.6290  152.2742 N   0  3  1  0  0  0  0  0  0  0  0  0
  146.4526  133.4799  153.2078 C   0  0  0  0  0  0  0  0  0  0  0  0
  146.9903  132.2481  152.4637 C   0  0  0  0  0  0  0  0  0  0  0  0
  146.0742  131.8773  151.2895 C   0  0  0  0  0  0  0  0  0  0  0  0
  145.8861  133.0834  150.3527 C   0  0  1  0  0  0  0  0  0  0  0  0
  144.9457  132.7467  149.1867 C   0  0  0  0  0  0  0  0  0  0  0  0
  145.3839  134.3059  151.1479 C   0  0  0  0  0  0  0  0  0  0  0  0
  152.6739  137.1663  154.9663 N   0  0  0  0  0  0  0  0  0  0  0  0
  153.4874  137.3130  156.0960 O   0  0  0  0  0  0  0  0  0  0  0  0
  152.7117  137.1648  159.3474 H   0  0  0  0  0  0  0  0  0  0  0  0
  153.9095  138.2316  158.6115 H   0  0  0  0  0  0  0  0  0  0  0  0
  154.1756  136.4867  158.6327 H   0  0  0  0  0  0  0  0  0  0  0  0
  150.5909  136.7025  157.5203 H   0  0  0  0  0  0  0  0  0  0  0  0
  150.4165  136.6747  153.6787 H   0  0  0  0  0  0  0  0  0  0  0  0
  148.5307  136.3581  153.1865 H   0  0  0  0  0  0  0  0  0  0  0  0
  146.5467  135.2720  154.9358 H   0  0  0  0  0  0  0  0  0  0  0  0
  146.3437  136.9967  154.8016 H   0  0  0  0  0  0  0  0  0  0  0  0
  144.9414  135.9714  153.1102 H   0  0  0  0  0  0  0  0  0  0  0  0
  145.8756  138.0370  152.2943 H   0  0  0  0  0  0  0  0  0  0  0  0
  145.8147  136.9003  150.9626 H   0  0  0  0  0  0  0  0  0  0  0  0
  147.3491  137.2473  151.7580 H   0  0  0  0  0  0  0  0  0  0  0  0
  147.1353  133.7319  154.0187 H   0  0  0  0  0  0  0  0  0  0  0  0
  145.4920  133.2359  153.6629 H   0  0  0  0  0  0  0  0  0  0  0  0
  147.9972  132.4504  152.0962 H   0  0  0  0  0  0  0  0  0  0  0  0
  147.0746  131.4052  153.1504 H   0  0  0  0  0  0  0  0  0  0  0  0
  146.4963  131.0344  150.7413 H   0  0  0  0  0  0  0  0  0  0  0  0
  145.1068  131.5472  151.6710 H   0  0  0  0  0  0  0  0  0  0  0  0
  146.8590  133.3351  149.9270 H   0  0  0  0  0  0  0  0  0  0  0  0
  143.9489  132.4849  149.5430 H   0  0  0  0  0  0  0  0  0  0  0  0
  145.3239  131.9033  148.6082 H   0  0  0  0  0  0  0  0  0  0  0  0
  144.8440  133.5922  148.5057 H   0  0  0  0  0  0  0  0  0  0  0  0
  144.3800  134.1165  151.5300 H   0  0  0  0  0  0  0  0  0  0  0  0
  145.3114  135.1626  150.4768 H   0  0  0  0  0  0  0  0  0  0  0  0
  147.2065  134.7479  151.8438 H   0  0  0  0  0  0  0  0  0  0  0  0
  1  2  1  0  0  0  0
  1 21  1  0  0  0  0
  1 22  1  0  0  0  0
  1 23  1  0  0  0  0
  2 20  1  0  0  0  0
  2  3  2  0  0  0  0
  3  4  1  0  0  0  0
  3 24  1  0  0  0  0
  4  5  1  0  0  0  0
  4 19  2  0  0  0  0
  5  6  1  0  0  0  0
  5 25  1  0  0  0  0
  6  7  2  0  0  0  0
  6  8  1  0  0  0  0
  8  9  1  0  0  0  0
  8 26  1  0  0  0  0
  9 10  1  0  0  0  0
  9 27  1  0  0  0  0
  9 28  1  0  0  0  0
 10 11  1  0  0  0  0
 10 12  1  0  0  0  0
 10 29  1  0  0  0  0
 11 30  1  0  0  0  0
 11 31  1  0  0  0  0
 11 32  1  0  0  0  0
 12 18  1  0  0  0  0
 12 13  1  0  0  0  0
 12 45  1  0  0  0  0
 13 14  1  0  0  0  0
 13 33  1  0  0  0  0
 13 34  1  0  0  0  0
 14 15  1  0  0  0  0
 14 35  1  0  0  0  0
 14 36  1  0  0  0  0
 15 16  1  0  0  0  0
 15 37  1  0  0  0  0
 15 38  1  0  0  0  0
 16 17  1  0  0  0  0
 16 18  1  0  0  0  0
 16 39  1  0  0  0  0
 17 40  1  0  0  0  0
 17 41  1  0  0  0  0
 17 42  1  0  0  0  0
 18 43  1  0  0  0  0
 18 44  1  0  0  0  0
 19 20  1  0  0  0  0
M  CHG  1  12   1
M  END
> <s_m_source_file>
AV-unprocessed.smi

> <i_m_source_file_index>
2083

> <i_lp_mmshare_version>
43012

> <i_f3d_flags>
0

> <s_epik_input>
W0NIM11jMVtjSF1jKG5vMSlbTkhdQyg9TylbTkhdW0NIMl1bQ0BIXShbQ0gzXSlOMltDSDJdW0NIMl1bQ0gyXVtDQEBIXShbQ0gzXSlbQ0gyXTI=

> <s_epik_cmdline>
J2VwaWtfcHl0aG9uJywgJy1waCcsICc3LjAnLCAnLXRuJywgJzgnLCAnLW1hJywgJzIwMCcsICctbWV0YWxfYmluZGluZycsICctaW1hZScsICc8aW5maWxlLm1hZT4nLCAnLW9tYWUnLCAnPG91dGZpbGUubWFlPic=

> <r_epik_Ionization_Penalty>
0.00216453

> <r_epik_Ionization_Penalty_Charging>
0.00212879

> <r_epik_Ionization_Penalty_Neutral>
3.57418e-05

> <r_epik_State_Penalty>
0.00146033

> <r_epik_Charging_Adjusted_Penalty>
0.00358912

> <i_epik_Tot_Q>
1

> <i_epik_Tot_abs_Q>
1

> <r_epik_Metal_State_Penalty>
0.0215827

> <b_epik_Metal_Only>
0

> <s_lp_Force_Field>
OPLS_2005

> <r_lp_Energy>
17.3533

> <b_lp_Chiralities_Consistent>
1

> <s_lp_Variant>
AV-unprocessed.smi:2083-2

> <Gold.Version>
5.8.1

> <Gold.Id.Protein>
6NUR|6NUR_protein|mol2

> <Gold.PLP.Fitness>
43.0807

> <Gold.PLP.PLP>
-28.8435

> <Gold.PLP.part.hbond>
-4.2061

> <Gold.PLP.part.metal>
0.0000

> <Gold.PLP.part.buried>
1.0238

> <Gold.PLP.part.nonpolar>
-25.3857

> <Gold.PLP.part.repulsive>
0.1978

> <Gold.PLP.ligand.clash>
0.0000

> <Gold.PLP.ligand.torsion>
0.3044

> <Gold.PLP.Chemscore.Hbond>
4.9120

> <Gold.PLP.Chemscore.CHOScore>
0.0000

> <Gold.PLP.Chemscore.Metal>
0.0000

> <Gold.Chemscore.Hbonds>
donor molecule, donor type, donor heavy atom, donor atom, acceptor molecule, acceptor atom, score
      L1  H     5    25       P1  7948  0.10
      L1  H     8    26       P1  7948  0.65
      L1  H    12    45       P1  7948  0.74
      P1  H 10752 10765       L1    19  0.13

> <Gold.PLP.Chemscore.Internal.Correction>
0.1101

> <Gold.Rescore>
     Score         DG    S(hbond)    S(metal)    S(lipo)     H(rot)  DE(clash)    DE(int)     intcor
     16.38     -20.24       2.93        0.00      76.51       1.55       1.99       1.86       ----

> <Gold.Chemscore.Fitness>
16.3847

> <Gold.Chemscore.DG>
-20.2437

> <Gold.Chemscore.ZeroCoef>
-5.4800

> <Gold.Chemscore.Hbond>
2.9262

> <Gold.Chemscore.Metal>
0.0000

> <Gold.Chemscore.Lipo>
76.5088

> <Gold.Chemscore.Internal_Hbond>
0.0000

> <Gold.Chemscore.DEClash>
1.9942

> <Gold.Chemscore.DEInternal>
1.8648

> <Gold.Chemscore.Rot>
1.5474

> <Gold.Chemscore.Internal.Correction>
   9.000000E+99

> <Gold.Chemscore.Hbonds>
donor molecule, donor type, donor heavy atom, donor atom, acceptor molecule, acceptor atom, score
      L1  H     5    25       P1  7948  0.01
      L1  H     8    26       P1  7948  0.65
      L1  H    12    45       P1  7948  0.30
      P1  H 10752 10765       L1    19  0.08

> <Gold.Chemscore.Hbond.Weighted>
-9.7734

> <Gold.Chemscore.Metal.Weighted>
-0.0000

> <Gold.Chemscore.Lipo.Weighted>
-8.9515

> <Gold.Chemscore.Internal_Hbond.Weighted>
0.0000

> <Gold.Chemscore.DEClash.Weighted>
1.9942

> <Gold.Chemscore.DEInternal.Weighted>
1.8648

> <Gold.Chemscore.Rot.Weighted>
3.9612

> <Gold.Chemscore.Internal.Correction.Weighted>
   9.000000E+99

> <Gold.Protein.RotatedTorsions>
[ 6907 6896 6895 6894 ] final  -55.34 input  -60.11 | X-H torsion
[ 7974 7965 7964 7962 ] final  176.57 input  175.53 | X-H torsion
[ 8008 7997 7996 7995 ] final  -31.01 input   59.86 | X-H torsion
[ 10167 10162 10161 10158 ] final   94.27 input  -65.29 | X-H torsion
[ 10718 10713 10712 10709 ] final  -37.98 input   66.30 | X-H torsion
[ 10763 10752 10751 10750 ] final  131.08 input  -60.55 | X-H torsion
[ 11005 11000 10999 10996 ] final   94.71 input  -57.11 | X-H torsion

> <Gold.Protein.ActiveResidues>
 VAL166  LYS551  ARG553  GLY616  TRP617  ASP618  TYR619  PRO620  LYS621  CYS622 
 ASP623  PHE694  ASN695  SER759  ASP760  ASP761  ALA762  ILE779  LEU786  VAL792 
 PHE793  MET794  SER795  GLU796  ALA797  LYS798  CYS799  TRP800  GLU811  SER814 

> <Gold.Protein.RotatedAtoms>
  150.8260  134.7490  159.6812 H   0  0  0  0  0  0  0  0  0  0  0  0  # atno 6907 bound_to 6896
  152.4370  134.5663  159.9918 H   0  0  0  0  0  0  0  0  0  0  0  0  # atno 6908 bound_to 6896
  151.5835  133.3337  159.3049 H   0  0  0  0  0  0  0  0  0  0  0  0  # atno 6909 bound_to 6896
  144.7182  140.0117  143.6440 H   0  0  0  0  0  0  0  0  0  0  0  0  # atno 7974 bound_to 7965
  154.4229  140.1776  156.1499 H   0  0  0  0  0  0  0  0  0  0  0  0  # atno 8008 bound_to 7997
  155.9923  140.3368  155.6741 H   0  0  0  0  0  0  0  0  0  0  0  0  # atno 8009 bound_to 7997
  155.6355  140.0674  157.2626 H   0  0  0  0  0  0  0  0  0  0  0  0  # atno 8010 bound_to 7997
  139.8100  144.6777  150.9653 H   0  0  0  0  0  0  0  0  0  0  0  0  # atno 10167 bound_to 10162
  156.3090  130.4250  149.8069 H   0  0  0  0  0  0  0  0  0  0  0  0  # atno 10718 bound_to 10713
  153.7684  135.3185  155.3348 H   0  0  0  0  0  0  0  0  0  0  0  0  # atno 10763 bound_to 10752
  154.8205  135.4606  154.0768 H   0  0  0  0  0  0  0  0  0  0  0  0  # atno 10764 bound_to 10752
  153.2020  135.6924  153.8303 H   0  0  0  0  0  0  0  0  0  0  0  0  # atno 10765 bound_to 10752
  139.8796  134.8860  156.3903 H   0  0  0  0  0  0  0  0  0  0  0  0  # atno 11005 bound_to 11000
  146.0253  139.3286  143.0788 LP  0  0  0  0  0  0  0  0  0  0  0  0  # atno 17320 bound_to 7965
  145.8519  140.9524  143.0745 LP  0  0  0  0  0  0  0  0  0  0  0  0  # atno 17321 bound_to 7965
  140.7818  143.4195  151.0864 LP  0  0  0  0  0  0  0  0  0  0  0  0  # atno 17342 bound_to 10162
  139.7862  143.8284  152.3145 LP  0  0  0  0  0  0  0  0  0  0  0  0  # atno 17343 bound_to 10162
  156.5419  130.8304  151.3272 LP  0  0  0  0  0  0  0  0  0  0  0  0  # atno 17370 bound_to 10713
  157.7386  130.9817  150.2264 LP  0  0  0  0  0  0  0  0  0  0  0  0  # atno 17371 bound_to 10713
  140.9337  133.7561  156.0057 LP  0  0  0  0  0  0  0  0  0  0  0  0  # atno 17394 bound_to 11000
  140.8300  134.3189  157.5352 LP  0  0  0  0  0  0  0  0  0  0  0  0  # atno 17395 bound_to 11000

$$$$
