AV-unprocessed.smi:532|AV-procd|sdf|2853|dock2
  -GOLD-   2262023343D 1   1.00000     0.00000
 Structure written by MMmdl.
 48 50  0  0  0  0  0  0  0  0  2 V2000
  149.7997  141.3797  155.2256 C   0  0  0  0  0  0  0  0  0  0  0  0
  150.8589  140.4438  155.3195 O   0  0  0  0  0  0  0  0  0  0  0  0
  151.8428  140.8345  156.2620 C   0  0  0  0  0  0  0  0  0  0  0  0
  151.2176  140.8419  157.6619 C   0  0  0  0  0  0  0  0  0  0  0  0
  152.0873  140.1998  158.6386 N   0  0  0  0  0  0  0  0  0  0  0  0
  152.7456  140.7844  159.6714 C   0  0  0  0  0  0  0  0  0  0  0  0
  152.6566  142.1541  159.9054 N   0  0  0  0  0  0  0  0  0  0  0  0
  152.7777  143.1448  158.8351 C   0  0  0  0  0  0  0  0  0  0  0  0
  151.9452  144.4252  159.0713 C   0  0  1  0  0  0  0  0  0  0  0  0
  150.4417  144.2237  158.8211 C   0  0  0  0  0  0  0  0  0  0  0  0
  152.2416  145.0180  160.4596 C   0  0  0  0  0  0  0  0  0  0  0  0
  152.1309  143.9468  161.5567 C   0  0  2  0  0  0  0  0  0  0  0  0
  152.4985  144.5149  162.9342 C   0  0  0  0  0  0  0  0  0  0  0  0
  153.0162  142.7412  161.1934 C   0  0  0  0  0  0  0  0  0  0  0  0
  153.4621  139.9496  160.4263 N   0  0  0  0  0  0  0  0  0  0  0  0
  153.2524  138.7261  159.8064 C   0  0  0  0  0  0  0  0  0  0  0  0
  152.4354  138.8500  158.7269 C   0  0  0  0  0  0  0  0  0  0  0  0
  152.0393  137.7206  157.8601 C   0  0  0  0  0  0  0  0  0  0  0  0
  151.3102  137.8946  156.8856 O   0  0  0  0  0  0  0  0  0  0  0  0
  152.5795  136.5336  158.2827 N   0  5  0  0  0  0  0  0  0  0  0  0
  153.4087  136.3604  159.3713 C   0  0  0  0  0  0  0  0  0  0  0  0
  153.8494  135.2517  159.6750 O   0  0  0  0  0  0  0  0  0  0  0  0
  153.7574  137.4421  160.1403 N   0  0  0  0  0  0  0  0  0  0  0  0
  154.6358  137.3440  161.3100 C   0  0  0  0  0  0  0  0  0  0  0  0
  149.0716  141.0376  154.4904 H   0  0  0  0  0  0  0  0  0  0  0  0
  150.1650  142.3573  154.9082 H   0  0  0  0  0  0  0  0  0  0  0  0
  149.2858  141.4904  156.1812 H   0  0  0  0  0  0  0  0  0  0  0  0
  152.6899  140.1482  156.2297 H   0  0  0  0  0  0  0  0  0  0  0  0
  152.2201  141.8274  156.0151 H   0  0  0  0  0  0  0  0  0  0  0  0
  151.0134  141.8616  157.9849 H   0  0  0  0  0  0  0  0  0  0  0  0
  150.2490  140.3433  157.6559 H   0  0  0  0  0  0  0  0  0  0  0  0
  153.8318  143.4094  158.7424 H   0  0  0  0  0  0  0  0  0  0  0  0
  152.4966  142.6878  157.8857 H   0  0  0  0  0  0  0  0  0  0  0  0
  152.2725  145.1576  158.3324 H   0  0  0  0  0  0  0  0  0  0  0  0
  150.0026  143.5119  159.5172 H   0  0  0  0  0  0  0  0  0  0  0  0
  150.2582  143.8587  157.8106 H   0  0  0  0  0  0  0  0  0  0  0  0
  149.8990  145.1628  158.9299 H   0  0  0  0  0  0  0  0  0  0  0  0
  153.2529  145.4275  160.4610 H   0  0  0  0  0  0  0  0  0  0  0  0
  151.5734  145.8541  160.6689 H   0  0  0  0  0  0  0  0  0  0  0  0
  151.0963  143.6058  161.6100 H   0  0  0  0  0  0  0  0  0  0  0  0
  153.5318  144.8623  162.9577 H   0  0  0  0  0  0  0  0  0  0  0  0
  152.3827  143.7600  163.7125 H   0  0  0  0  0  0  0  0  0  0  0  0
  151.8573  145.3573  163.1949 H   0  0  0  0  0  0  0  0  0  0  0  0
  152.9272  141.9753  161.9651 H   0  0  0  0  0  0  0  0  0  0  0  0
  154.0666  143.0346  161.1679 H   0  0  0  0  0  0  0  0  0  0  0  0
  154.9886  136.3355  161.5267 H   0  0  0  0  0  0  0  0  0  0  0  0
  154.1118  137.7012  162.1970 H   0  0  0  0  0  0  0  0  0  0  0  0
  155.5157  137.9715  161.1654 H   0  0  0  0  0  0  0  0  0  0  0  0
  1  2  1  0  0  0  0
  1 25  1  0  0  0  0
  1 26  1  0  0  0  0
  1 27  1  0  0  0  0
  2  3  1  0  0  0  0
  3  4  1  0  0  0  0
  3 28  1  0  0  0  0
  3 29  1  0  0  0  0
  4  5  1  0  0  0  0
  4 30  1  0  0  0  0
  4 31  1  0  0  0  0
  5 17  1  0  0  0  0
  5  6  1  0  0  0  0
  6  7  1  0  0  0  0
  6 15  2  0  0  0  0
  7 14  1  0  0  0  0
  7  8  1  0  0  0  0
  8  9  1  0  0  0  0
  8 32  1  0  0  0  0
  8 33  1  0  0  0  0
  9 10  1  0  0  0  0
  9 11  1  0  0  0  0
  9 34  1  0  0  0  0
 10 35  1  0  0  0  0
 10 36  1  0  0  0  0
 10 37  1  0  0  0  0
 11 12  1  0  0  0  0
 11 38  1  0  0  0  0
 11 39  1  0  0  0  0
 12 13  1  0  0  0  0
 12 14  1  0  0  0  0
 12 40  1  0  0  0  0
 13 41  1  0  0  0  0
 13 42  1  0  0  0  0
 13 43  1  0  0  0  0
 14 44  1  0  0  0  0
 14 45  1  0  0  0  0
 15 16  1  0  0  0  0
 16 23  1  0  0  0  0
 16 17  2  0  0  0  0
 17 18  1  0  0  0  0
 18 19  2  0  0  0  0
 18 20  1  0  0  0  0
 20 21  1  0  0  0  0
 21 22  2  0  0  0  0
 21 23  1  0  0  0  0
 23 24  1  0  0  0  0
 24 46  1  0  0  0  0
 24 47  1  0  0  0  0
 24 48  1  0  0  0  0
M  CHG  1  20  -1
M  END
> <s_m_source_file>
AV-unprocessed.smi

> <i_m_source_file_index>
532

> <i_lp_mmshare_version>
43012

> <i_f3d_flags>
0

> <s_epik_input>
W0NIM11uMWMoPU8pW25IXWMoPU8pYyhjMTIpbihbQ0gyXVtDSDJdT1tDSDNdKWMobjIpTjNbQ0gyXVtDQEBIXShbQ0gzXSlbQ0gyXVtDQEBIXShbQ0gzXSlbQ0gyXTM=

> <s_epik_cmdline>
J2VwaWtfcHl0aG9uJywgJy1waCcsICc3LjAnLCAnLXRuJywgJzgnLCAnLW1hJywgJzIwMCcsICctbWV0YWxfYmluZGluZycsICctaW1hZScsICc8aW5maWxlLm1hZT4nLCAnLW9tYWUnLCAnPG91dGZpbGUubWFlPic=

> <r_lp_tautomer_probability>
1

> <r_epik_Ionization_Penalty>
5.12128

> <r_epik_Ionization_Penalty_Charging>
0.0789629

> <r_epik_Ionization_Penalty_Neutral>
5.04232

> <r_epik_State_Penalty>
5.03111

> <r_epik_Charging_Adjusted_Penalty>
5.11007

> <i_epik_Tot_Q>
-1

> <i_epik_Tot_abs_Q>
1

> <r_epik_Metal_State_Penalty>
1.14201

> <b_epik_Metal_Only>
1

> <s_lp_Force_Field>
OPLS_2005

> <r_lp_Energy>
48.0239

> <b_lp_Chiralities_Consistent>
1

> <s_lp_Variant>
AV-unprocessed.smi:532-6

> <Gold.Version>
5.8.1

> <Gold.Id.Protein>
6NUR|6NUR_protein|mol2

> <Gold.PLP.Fitness>
48.1730

> <Gold.PLP.PLP>
-42.9701

> <Gold.PLP.part.hbond>
-2.1895

> <Gold.PLP.part.metal>
0.0000

> <Gold.PLP.part.buried>
-2.5436

> <Gold.PLP.part.nonpolar>
-37.3397

> <Gold.PLP.part.repulsive>
0.0481

> <Gold.PLP.ligand.clash>
0.0000

> <Gold.PLP.ligand.torsion>
0.8410

> <Gold.PLP.Chemscore.Hbond>
1.9920

> <Gold.PLP.Chemscore.CHOScore>
0.0000

> <Gold.PLP.Chemscore.Metal>
0.0000

> <Gold.Chemscore.Hbonds>
donor molecule, donor type, donor heavy atom, donor atom, acceptor molecule, acceptor atom, score
      P1  H  6896  6908       L1    22  1.00
      P1  H  7989  7998       L1     2  0.75

> <Gold.PLP.Chemscore.Internal.Correction>
0.9090

> <Gold.Rescore>
     Score         DG    S(hbond)    S(metal)    S(lipo)     H(rot)  DE(clash)    DE(int)     intcor
     13.63     -18.76       1.07        0.00     113.94       1.41       3.37       1.76       ----

> <Gold.Chemscore.Fitness>
13.6296

> <Gold.Chemscore.DG>
-18.7591

> <Gold.Chemscore.ZeroCoef>
-5.4800

> <Gold.Chemscore.Hbond>
1.0689

> <Gold.Chemscore.Metal>
0.0000

> <Gold.Chemscore.Lipo>
113.9371

> <Gold.Chemscore.Internal_Hbond>
0.0000

> <Gold.Chemscore.DEClash>
3.3703

> <Gold.Chemscore.DEInternal>
1.7592

> <Gold.Chemscore.Rot>
1.4147

> <Gold.Chemscore.Internal.Correction>
   9.000000E+99

> <Gold.Chemscore.Hbonds>
donor molecule, donor type, donor heavy atom, donor atom, acceptor molecule, acceptor atom, score
      P1  H  6896  6908       L1    22  0.43
      P1  H  7989  7998       L1     2  0.05

> <Gold.Chemscore.Hbond.Weighted>
-3.5701

> <Gold.Chemscore.Metal.Weighted>
-0.0000

> <Gold.Chemscore.Lipo.Weighted>
-13.3306

> <Gold.Chemscore.Internal_Hbond.Weighted>
0.0000

> <Gold.Chemscore.DEClash.Weighted>
3.3703

> <Gold.Chemscore.DEInternal.Weighted>
1.7592

> <Gold.Chemscore.Rot.Weighted>
3.6216

> <Gold.Chemscore.Internal.Correction.Weighted>
   9.000000E+99

> <Gold.Protein.RotatedTorsions>
[ 6907 6896 6895 6894 ] final  -40.73 input  -60.11 | X-H torsion
[ 7974 7965 7964 7962 ] final  -64.70 input  175.53 | X-H torsion
[ 8008 7997 7996 7995 ] final  -38.20 input   59.86 | X-H torsion
[ 10167 10162 10161 10158 ] final  155.68 input  -65.29 | X-H torsion
[ 10718 10713 10712 10709 ] final   47.10 input   66.30 | X-H torsion
[ 10763 10752 10751 10750 ] final  108.03 input  -60.55 | X-H torsion
[ 11005 11000 10999 10996 ] final    5.19 input  -57.11 | X-H torsion

> <Gold.Protein.ActiveResidues>
 VAL166  LYS551  ARG553  GLY616  TRP617  ASP618  TYR619  PRO620  LYS621  CYS622 
 ASP623  PHE694  ASN695  SER759  ASP760  ASP761  ALA762  ILE779  LEU786  VAL792 
 PHE793  MET794  SER795  GLU796  ALA797  LYS798  CYS799  TRP800  GLU811  SER814 

> <Gold.Protein.RotatedAtoms>
  150.9750  134.9116  159.7809 H   0  0  0  0  0  0  0  0  0  0  0  0  # atno 6907 bound_to 6896
  152.5203  134.3489  159.9254 H   0  0  0  0  0  0  0  0  0  0  0  0  # atno 6908 bound_to 6896
  151.3497  133.3889  159.2713 H   0  0  0  0  0  0  0  0  0  0  0  0  # atno 6909 bound_to 6896
  145.7635  140.8849  143.0417 H   0  0  0  0  0  0  0  0  0  0  0  0  # atno 7974 bound_to 7965
  154.4040  140.1584  156.2661 H   0  0  0  0  0  0  0  0  0  0  0  0  # atno 8008 bound_to 7997
  155.8994  140.3434  155.5992 H   0  0  0  0  0  0  0  0  0  0  0  0  # atno 8009 bound_to 7997
  155.7466  140.0799  157.2211 H   0  0  0  0  0  0  0  0  0  0  0  0  # atno 8010 bound_to 7997
  139.4821  144.5077  151.8073 H   0  0  0  0  0  0  0  0  0  0  0  0  # atno 10167 bound_to 10162
  157.4550  130.8161  149.7827 H   0  0  0  0  0  0  0  0  0  0  0  0  # atno 10718 bound_to 10713
  153.4149  135.3825  155.2074 H   0  0  0  0  0  0  0  0  0  0  0  0  # atno 10763 bound_to 10752
  154.8740  135.3803  154.4455 H   0  0  0  0  0  0  0  0  0  0  0  0  # atno 10764 bound_to 10752
  153.4968  135.7088  153.5916 H   0  0  0  0  0  0  0  0  0  0  0  0  # atno 10765 bound_to 10752
  140.5735  134.0080  155.8018 H   0  0  0  0  0  0  0  0  0  0  0  0  # atno 11005 bound_to 11000
  144.6826  139.9755  143.7483 LP  0  0  0  0  0  0  0  0  0  0  0  0  # atno 17320 bound_to 7965
  146.0241  139.3277  143.0795 LP  0  0  0  0  0  0  0  0  0  0  0  0  # atno 17321 bound_to 7965
  140.4577  144.1767  150.5903 LP  0  0  0  0  0  0  0  0  0  0  0  0  # atno 17342 bound_to 10162
  140.4518  143.2483  151.9337 LP  0  0  0  0  0  0  0  0  0  0  0  0  # atno 17343 bound_to 10162
  156.0003  130.3884  150.2631 LP  0  0  0  0  0  0  0  0  0  0  0  0  # atno 17370 bound_to 10713
  157.0805  131.0142  151.3158 LP  0  0  0  0  0  0  0  0  0  0  0  0  # atno 17371 bound_to 10713
  141.1041  133.9721  157.3027 LP  0  0  0  0  0  0  0  0  0  0  0  0  # atno 17394 bound_to 11000
  139.9351  135.0197  156.8528 LP  0  0  0  0  0  0  0  0  0  0  0  0  # atno 17395 bound_to 11000

$$$$
