AV-unprocessed.smi:3153|AV-procd|sdf|12020|dock4
  -GOLD-   2272017433D 1   1.00000     0.00000
 Structure written by MMmdl.
 37 38  0  0  0  0  0  0  0  0  1 V2000
  150.0796  140.3387  153.7770 O   0  0  0  0  0  0  0  0  0  0  0  0
  149.1329  140.5442  154.8107 C   0  0  0  0  0  0  0  0  0  0  0  0
  149.8470  141.3321  155.9329 C   0  0  0  0  0  0  0  0  0  0  0  0
  150.9049  140.5587  156.5813 N   0  0  0  0  0  0  0  0  0  0  0  0
  151.6618  141.3253  157.5666 C   0  0  0  0  0  0  0  0  0  0  0  0
  150.7345  141.9823  158.6019 C   0  0  0  0  0  0  0  0  0  0  0  0
  151.1893  143.3047  158.9931 N   0  0  0  0  0  0  0  0  0  0  0  0
  151.2204  144.4587  158.2385 C   0  0  0  0  0  0  0  0  0  0  0  0
  151.7255  145.4490  159.0316 C   0  0  0  0  0  0  0  0  0  0  0  0
  151.9806  144.7940  160.2690 C   0  0  0  0  0  0  0  0  0  0  0  0
  151.6604  143.5103  160.2422 N   0  0  0  0  0  0  0  0  0  0  0  0
  147.9869  141.4058  154.2284 C   0  0  0  0  0  0  0  0  0  0  0  0
  147.1541  140.6668  153.1655 C   0  0  0  0  0  0  0  0  0  0  0  0
  146.6061  139.3405  153.7092 C   0  0  0  0  0  0  0  0  0  0  0  0
  147.7440  138.4531  154.2324 C   0  0  0  0  0  0  0  0  0  0  0  0
  148.5808  139.1808  155.3000 C   0  0  0  0  0  0  0  0  0  0  0  0
  149.6152  140.2612  152.9580 H   0  0  0  0  0  0  0  0  0  0  0  0
  150.2601  142.2555  155.5239 H   0  0  0  0  0  0  0  0  0  0  0  0
  149.1137  141.6330  156.6822 H   0  0  0  0  0  0  0  0  0  0  0  0
  151.5399  140.1983  155.8762 H   0  0  0  0  0  0  0  0  0  0  0  0
  152.3803  140.6807  158.0746 H   0  0  0  0  0  0  0  0  0  0  0  0
  152.2426  142.0986  157.0628 H   0  0  0  0  0  0  0  0  0  0  0  0
  149.7276  142.0746  158.1928 H   0  0  0  0  0  0  0  0  0  0  0  0
  150.6529  141.3580  159.4928 H   0  0  0  0  0  0  0  0  0  0  0  0
  150.8817  144.4792  157.2131 H   0  0  0  0  0  0  0  0  0  0  0  0
  151.8884  146.4835  158.7680 H   0  0  0  0  0  0  0  0  0  0  0  0
  152.3863  145.2103  161.1794 H   0  0  0  0  0  0  0  0  0  0  0  0
  147.3209  141.7111  155.0369 H   0  0  0  0  0  0  0  0  0  0  0  0
  148.3854  142.3287  153.8045 H   0  0  0  0  0  0  0  0  0  0  0  0
  146.3299  141.2999  152.8359 H   0  0  0  0  0  0  0  0  0  0  0  0
  147.7656  140.4761  152.2827 H   0  0  0  0  0  0  0  0  0  0  0  0
  145.8948  139.5374  154.5122 H   0  0  0  0  0  0  0  0  0  0  0  0
  146.0547  138.8170  152.9276 H   0  0  0  0  0  0  0  0  0  0  0  0
  147.3334  137.5332  154.6489 H   0  0  0  0  0  0  0  0  0  0  0  0
  148.3852  138.1537  153.4025 H   0  0  0  0  0  0  0  0  0  0  0  0
  149.3932  138.5276  155.6202 H   0  0  0  0  0  0  0  0  0  0  0  0
  147.9588  139.3434  156.1813 H   0  0  0  0  0  0  0  0  0  0  0  0
  1  2  1  0  0  0  0
  1 17  1  0  0  0  0
  2 16  1  0  0  0  0
  2  3  1  0  0  0  0
  2 12  1  0  0  0  0
  3  4  1  0  0  0  0
  3 18  1  0  0  0  0
  3 19  1  0  0  0  0
  4  5  1  0  0  0  0
  4 20  1  0  0  0  0
  5  6  1  0  0  0  0
  5 21  1  0  0  0  0
  5 22  1  0  0  0  0
  6  7  1  0  0  0  0
  6 23  1  0  0  0  0
  6 24  1  0  0  0  0
  7 11  1  0  0  0  0
  7  8  1  0  0  0  0
  8  9  2  0  0  0  0
  8 25  1  0  0  0  0
  9 10  1  0  0  0  0
  9 26  1  0  0  0  0
 10 11  2  0  0  0  0
 10 27  1  0  0  0  0
 12 13  1  0  0  0  0
 12 28  1  0  0  0  0
 12 29  1  0  0  0  0
 13 14  1  0  0  0  0
 13 30  1  0  0  0  0
 13 31  1  0  0  0  0
 14 15  1  0  0  0  0
 14 32  1  0  0  0  0
 14 33  1  0  0  0  0
 15 16  1  0  0  0  0
 15 34  1  0  0  0  0
 15 35  1  0  0  0  0
 16 36  1  0  0  0  0
 16 37  1  0  0  0  0
M  END
> <s_m_source_file>
AV-unprocessed.smi

> <i_m_source_file_index>
3153

> <i_lp_mmshare_version>
43012

> <i_f3d_flags>
0

> <s_epik_input>
W0NIMl0xW0NIMl1bQ0gyXVtDSDJdW0NIMl1DMShbT0hdKVtDSDJdW05IXVtDSDJdW0NIMl1uMltjSF1bY0hdW2NIXW4y

> <s_epik_cmdline>
J2VwaWtfcHl0aG9uJywgJy1waCcsICc3LjAnLCAnLXRuJywgJzgnLCAnLW1hJywgJzIwMCcsICctbWV0YWxfYmluZGluZycsICctaW1hZScsICc8aW5maWxlLm1hZT4nLCAnLW9tYWUnLCAnPG91dGZpbGUubWFlPic=

> <r_lp_tautomer_probability>
1

> <r_epik_Ionization_Penalty>
1.91265

> <r_epik_Ionization_Penalty_Charging>
0

> <r_epik_Ionization_Penalty_Neutral>
1.91265

> <r_epik_State_Penalty>
2.0334

> <r_epik_Charging_Adjusted_Penalty>
2.0334

> <i_epik_Tot_Q>
0

> <i_epik_Tot_abs_Q>
0

> <r_epik_Metal_State_Penalty>
2.03214

> <b_epik_Metal_Only>
0

> <s_lp_Force_Field>
OPLS_2005

> <r_lp_Energy>
22.2281

> <b_lp_Chiralities_Consistent>
1

> <s_lp_Variant>
AV-unprocessed.smi:3153-2

> <Gold.Version>
5.8.1

> <Gold.Id.Protein>
6NUR|6NUR_protein|mol2

> <Gold.PLP.Fitness>
40.4465

> <Gold.PLP.PLP>
-32.9620

> <Gold.PLP.part.hbond>
-1.9075

> <Gold.PLP.part.metal>
0.0000

> <Gold.PLP.part.buried>
-5.2671

> <Gold.PLP.part.nonpolar>
-26.9021

> <Gold.PLP.part.repulsive>
0.0557

> <Gold.PLP.ligand.clash>
0.0000

> <Gold.PLP.ligand.torsion>
0.3703

> <Gold.PLP.Chemscore.Hbond>
1.7520

> <Gold.PLP.Chemscore.CHOScore>
0.9685

> <Gold.PLP.Chemscore.Metal>
0.0000

> <Gold.Chemscore.Hbonds>
donor molecule, donor type, donor heavy atom, donor atom, acceptor molecule, acceptor atom, score
      L1  H     1    17       P1  7957  1.00
      P1  H  7989  7998       L1     1  0.72
      L1  C     8    25       P1  8028  1.00

> <Gold.PLP.Chemscore.Internal.Correction>
0.0635

> <Gold.Rescore>
     Score         DG    S(hbond)    S(metal)    S(lipo)     H(rot)  DE(clash)    DE(int)     intcor
     15.59     -16.11       1.53        0.00      94.77       2.18       0.19       0.32       ----

> <Gold.Chemscore.Fitness>
15.5868

> <Gold.Chemscore.DG>
-16.1055

> <Gold.Chemscore.ZeroCoef>
-5.4800

> <Gold.Chemscore.Hbond>
1.5289

> <Gold.Chemscore.Metal>
0.0000

> <Gold.Chemscore.Lipo>
94.7743

> <Gold.Chemscore.Internal_Hbond>
0.0000

> <Gold.Chemscore.DEClash>
0.1939

> <Gold.Chemscore.DEInternal>
0.3248

> <Gold.Chemscore.Rot>
2.1756

> <Gold.Chemscore.Internal.Correction>
   9.000000E+99

> <Gold.Chemscore.Hbonds>
donor molecule, donor type, donor heavy atom, donor atom, acceptor molecule, acceptor atom, score
      L1  H     1    17       P1  7957  0.94
      P1  H  7989  7998       L1     1  0.47

> <Gold.Chemscore.Hbond.Weighted>
-5.1065

> <Gold.Chemscore.Metal.Weighted>
-0.0000

> <Gold.Chemscore.Lipo.Weighted>
-11.0886

> <Gold.Chemscore.Internal_Hbond.Weighted>
0.0000

> <Gold.Chemscore.DEClash.Weighted>
0.1939

> <Gold.Chemscore.DEInternal.Weighted>
0.3248

> <Gold.Chemscore.Rot.Weighted>
5.5696

> <Gold.Chemscore.Internal.Correction.Weighted>
   9.000000E+99

> <Gold.Protein.RotatedTorsions>
[ 6907 6896 6895 6894 ] final   50.30 input  -60.11 | X-H torsion
[ 7974 7965 7964 7962 ] final -138.97 input  175.53 | X-H torsion
[ 8008 7997 7996 7995 ] final -169.49 input   59.86 | X-H torsion
[ 10167 10162 10161 10158 ] final   33.44 input  -65.29 | X-H torsion
[ 10718 10713 10712 10709 ] final   18.28 input   66.30 | X-H torsion
[ 10763 10752 10751 10750 ] final   59.00 input  -60.55 | X-H torsion
[ 11005 11000 10999 10996 ] final  164.99 input  -57.11 | X-H torsion

> <Gold.Protein.ActiveResidues>
 VAL166  LYS551  ARG553  GLY616  TRP617  ASP618  TYR619  PRO620  LYS621  CYS622 
 ASP623  PHE694  ASN695  SER759  ASP760  ASP761  ALA762  ILE779  LEU786  VAL792 
 PHE793  MET794  SER795  GLU796  ALA797  LYS798  CYS799  TRP800  GLU811  SER814 

> <Gold.Protein.RotatedAtoms>
  152.3003  134.7619  160.0359 H   0  0  0  0  0  0  0  0  0  0  0  0  # atno 6907 bound_to 6896
  151.8135  133.3379  159.3570 H   0  0  0  0  0  0  0  0  0  0  0  0  # atno 6908 bound_to 6896
  150.7270  134.5571  159.5868 H   0  0  0  0  0  0  0  0  0  0  0  0  # atno 6909 bound_to 6896
  144.8715  140.6373  143.5264 H   0  0  0  0  0  0  0  0  0  0  0  0  # atno 7974 bound_to 7965
  155.9057  140.1048  157.1317 H   0  0  0  0  0  0  0  0  0  0  0  0  # atno 8008 bound_to 7997
  154.4032  140.1284  156.4557 H   0  0  0  0  0  0  0  0  0  0  0  0  # atno 8009 bound_to 7997
  155.7370  140.3467  155.5088 H   0  0  0  0  0  0  0  0  0  0  0  0  # atno 8010 bound_to 7997
  140.4407  144.1191  150.6173 H   0  0  0  0  0  0  0  0  0  0  0  0  # atno 10167 bound_to 10162
  157.0940  130.6440  149.5856 H   0  0  0  0  0  0  0  0  0  0  0  0  # atno 10718 bound_to 10713
  152.9884  135.5587  154.5642 H   0  0  0  0  0  0  0  0  0  0  0  0  # atno 10763 bound_to 10752
  154.5055  135.2799  155.1388 H   0  0  0  0  0  0  0  0  0  0  0  0  # atno 10764 bound_to 10752
  154.2801  135.6346  153.5396 H   0  0  0  0  0  0  0  0  0  0  0  0  # atno 10765 bound_to 10752
  140.2515  134.7973  157.3506 H   0  0  0  0  0  0  0  0  0  0  0  0  # atno 11005 bound_to 11000
  145.4122  139.1578  143.4119 LP  0  0  0  0  0  0  0  0  0  0  0  0  # atno 17320 bound_to 7965
  146.2933  140.4227  142.8731 LP  0  0  0  0  0  0  0  0  0  0  0  0  # atno 17321 bound_to 7965
  140.4321  143.2563  151.9582 LP  0  0  0  0  0  0  0  0  0  0  0  0  # atno 17342 bound_to 10162
  139.4789  144.5734  151.8051 LP  0  0  0  0  0  0  0  0  0  0  0  0  # atno 17343 bound_to 10162
  155.9890  130.4936  150.7197 LP  0  0  0  0  0  0  0  0  0  0  0  0  # atno 17370 bound_to 10713
  157.4697  131.0892  151.0656 LP  0  0  0  0  0  0  0  0  0  0  0  0  # atno 17371 bound_to 10713
  140.1553  134.4797  155.7932 LP  0  0  0  0  0  0  0  0  0  0  0  0  # atno 17394 bound_to 11000
  141.2201  133.6879  156.7450 LP  0  0  0  0  0  0  0  0  0  0  0  0  # atno 17395 bound_to 11000

$$$$
