AV-unprocessed.smi:290|AV-procd|sdf|2246|dock6
  -GOLD-   2262022133D 1   1.00000     0.00000
 Structure written by MMmdl.
 59 62  0  0  0  0  0  0  0  0  2 V2000
  153.0404  142.1669  159.7026 C   0  0  0  0  0  0  0  0  0  0  0  0
  151.8226  143.0196  159.3130 C   0  0  1  0  0  0  0  0  0  0  0  0
  152.1513  144.3791  159.5920 O   0  0  0  0  0  0  0  0  0  0  0  0
  151.5122  145.2154  158.6440 C   0  0  0  0  0  0  0  0  0  0  0  0
  151.6493  144.4168  157.3571 C   0  0  0  0  0  0  0  0  0  0  0  0
  151.3966  142.9845  157.8177 C   0  0  2  0  0  0  0  0  0  0  0  0
  149.9973  142.7573  157.7740 O   0  0  0  0  0  0  0  0  0  0  0  0
  152.0804  141.9113  156.9300 C   0  0  0  0  0  0  0  0  0  0  0  0
  151.5345  140.5749  157.1129 N   0  0  0  0  0  0  0  0  0  0  0  0
  151.3988  139.8976  158.3035 C   0  0  0  0  0  0  0  0  0  0  0  0
  150.8761  138.7058  158.2093 N   0  0  0  0  0  0  0  0  0  0  0  0
  150.6396  138.5434  156.8491 C   0  0  0  0  0  0  0  0  0  0  0  0
  150.0947  137.4926  156.0560 C   0  0  0  0  0  0  0  0  0  0  0  0
  149.6406  136.3286  156.5934 N   0  0  0  0  0  0  0  0  0  0  0  0
  148.2008  136.0890  156.5010 C   0  0  0  0  0  0  0  0  0  0  0  0
  148.0296  134.6458  156.0079 C   0  0  0  0  0  0  0  0  0  0  0  0
  149.4110  134.2952  155.4369 C   0  0  2  0  0  0  0  0  0  0  0  0
  149.7012  132.8383  155.3082 N   0  3  2  0  0  0  0  0  0  0  0  0
  151.1476  132.5429  155.1522 C   0  0  0  0  0  0  0  0  0  0  0  0
  148.8546  132.1087  154.3200 C   0  0  0  0  0  0  0  0  0  0  0  0
  149.1121  130.5881  154.2194 C   0  0  0  0  0  0  0  0  0  0  0  0
  148.3543  129.9960  153.1864 O   0  0  0  0  0  0  0  0  0  0  0  0
  150.3434  135.0619  156.3942 C   0  0  2  0  0  0  0  0  0  0  0  0
  150.5682  134.3752  157.7584 C   0  0  0  0  0  0  0  0  0  0  0  0
  150.0356  137.6964  154.7131 N   0  0  0  0  0  0  0  0  0  0  0  0
  150.4695  138.8422  154.1802 C   0  0  0  0  0  0  0  0  0  0  0  0
  150.9916  139.9031  154.7971 N   0  0  0  0  0  0  0  0  0  0  0  0
  151.0586  139.7079  156.1446 C   0  0  0  0  0  0  0  0  0  0  0  0
  149.4995  134.7513  154.4493 H   0  0  0  0  0  0  0  0  0  0  0  0
  151.3197  135.1901  155.9288 H   0  0  0  0  0  0  0  0  0  0  0  0
  152.8572  141.1064  159.5296 H   0  0  0  0  0  0  0  0  0  0  0  0
  153.2713  142.2883  160.7612 H   0  0  0  0  0  0  0  0  0  0  0  0
  153.9282  142.4580  159.1405 H   0  0  0  0  0  0  0  0  0  0  0  0
  150.9857  142.7395  159.9557 H   0  0  0  0  0  0  0  0  0  0  0  0
  150.4641  145.3502  158.9156 H   0  0  0  0  0  0  0  0  0  0  0  0
  151.9857  146.1955  158.5864 H   0  0  0  0  0  0  0  0  0  0  0  0
  150.9780  144.7539  156.5661 H   0  0  0  0  0  0  0  0  0  0  0  0
  152.6718  144.5183  156.9918 H   0  0  0  0  0  0  0  0  0  0  0  0
  149.6355  143.2602  157.0604 H   0  0  0  0  0  0  0  0  0  0  0  0
  151.9833  142.1672  155.8747 H   0  0  0  0  0  0  0  0  0  0  0  0
  153.1501  141.8705  157.1402 H   0  0  0  0  0  0  0  0  0  0  0  0
  151.6974  140.3209  159.2517 H   0  0  0  0  0  0  0  0  0  0  0  0
  147.7213  136.2398  157.4688 H   0  0  0  0  0  0  0  0  0  0  0  0
  147.7386  136.7744  155.7888 H   0  0  0  0  0  0  0  0  0  0  0  0
  147.7838  133.9951  156.8479 H   0  0  0  0  0  0  0  0  0  0  0  0
  147.2267  134.5595  155.2762 H   0  0  0  0  0  0  0  0  0  0  0  0
  151.5702  133.0572  154.2891 H   0  0  0  0  0  0  0  0  0  0  0  0
  151.3150  131.4723  155.0299 H   0  0  0  0  0  0  0  0  0  0  0  0
  151.7131  132.8560  156.0290 H   0  0  0  0  0  0  0  0  0  0  0  0
  147.8181  132.2555  154.6259 H   0  0  0  0  0  0  0  0  0  0  0  0
  148.9225  132.5727  153.3358 H   0  0  0  0  0  0  0  0  0  0  0  0
  150.1669  130.3483  154.0923 H   0  0  0  0  0  0  0  0  0  0  0  0
  148.8029  130.1140  155.1513 H   0  0  0  0  0  0  0  0  0  0  0  0
  148.9314  129.7988  152.4637 H   0  0  0  0  0  0  0  0  0  0  0  0
  151.0745  133.4163  157.6535 H   0  0  0  0  0  0  0  0  0  0  0  0
  149.6349  134.1986  158.2929 H   0  0  0  0  0  0  0  0  0  0  0  0
  151.1940  134.9975  158.3988 H   0  0  0  0  0  0  0  0  0  0  0  0
  150.3849  138.9209  153.1062 H   0  0  0  0  0  0  0  0  0  0  0  0
  149.4435  132.4433  156.2013 H   0  0  0  0  0  0  0  0  0  0  0  0
  1  2  1  0  0  0  0
  1 31  1  0  0  0  0
  1 32  1  0  0  0  0
  1 33  1  0  0  0  0
  2  6  1  0  0  0  0
  2  3  1  0  0  0  0
  2 34  1  0  0  0  0
  3  4  1  0  0  0  0
  4  5  1  0  0  0  0
  4 35  1  0  0  0  0
  4 36  1  0  0  0  0
  5  6  1  0  0  0  0
  5 37  1  0  0  0  0
  5 38  1  0  0  0  0
  6  7  1  0  0  0  0
  6  8  1  0  0  0  0
  7 39  1  0  0  0  0
  8  9  1  0  0  0  0
  8 40  1  0  0  0  0
  8 41  1  0  0  0  0
  9 28  1  0  0  0  0
  9 10  1  0  0  0  0
 10 11  2  0  0  0  0
 10 42  1  0  0  0  0
 11 12  1  0  0  0  0
 12 28  2  0  0  0  0
 12 13  1  0  0  0  0
 13 14  1  0  0  0  0
 13 25  2  0  0  0  0
 14 23  1  0  0  0  0
 14 15  1  0  0  0  0
 15 16  1  0  0  0  0
 15 43  1  0  0  0  0
 15 44  1  0  0  0  0
 16 17  1  0  0  0  0
 16 45  1  0  0  0  0
 16 46  1  0  0  0  0
 17 29  1  0  0  0  0
 17 18  1  0  0  0  0
 17 23  1  0  0  0  0
 18 19  1  0  0  0  0
 18 20  1  0  0  0  0
 18 59  1  0  0  0  0
 19 47  1  0  0  0  0
 19 48  1  0  0  0  0
 19 49  1  0  0  0  0
 20 21  1  0  0  0  0
 20 50  1  0  0  0  0
 20 51  1  0  0  0  0
 21 22  1  0  0  0  0
 21 52  1  0  0  0  0
 21 53  1  0  0  0  0
 22 54  1  0  0  0  0
 23 30  1  0  0  0  0
 23 24  1  0  0  0  0
 24 55  1  0  0  0  0
 24 56  1  0  0  0  0
 24 57  1  0  0  0  0
 25 26  1  0  0  0  0
 26 27  2  0  0  0  0
 26 58  1  0  0  0  0
 27 28  1  0  0  0  0
M  CHG  1  18   1
M  END
> <s_m_source_file>
AV-unprocessed.smi

> <i_m_source_file_index>
290

> <i_lp_mmshare_version>
43012

> <i_f3d_flags>
0

> <s_epik_input>
W0NIMl0xW0NIMl1PW0NAQEhdKFtDSDNdKVtDQEBdMShbT0hdKVtDSDJdbihbY0hdbjIpYyhjMjMpbltjSF1uYzNONFtDSDJdW0NIMl1bQ0BIXShbQ0BIXTRbQ0gzXSlOKFtDSDNdKVtDSDJdW0NIMl1bT0hd

> <s_epik_cmdline>
J2VwaWtfcHl0aG9uJywgJy1waCcsICc3LjAnLCAnLXRuJywgJzgnLCAnLW1hJywgJzIwMCcsICctbWV0YWxfYmluZGluZycsICctaW1hZScsICc8aW5maWxlLm1hZT4nLCAnLW9tYWUnLCAnPG91dGZpbGUubWFlPic=

> <r_lp_tautomer_probability>
1

> <r_epik_Ionization_Penalty>
0.0036983

> <r_epik_Ionization_Penalty_Charging>
0.0032725

> <r_epik_Ionization_Penalty_Neutral>
0.000425798

> <r_epik_State_Penalty>
-0

> <r_epik_Charging_Adjusted_Penalty>
0.0032725

> <i_epik_Tot_Q>
1

> <i_epik_Tot_abs_Q>
1

> <r_epik_Metal_State_Penalty>
-0

> <b_epik_Metal_Only>
0

> <s_lp_Force_Field>
OPLS_2005

> <r_lp_Energy>
63.8525

> <b_lp_Chiralities_Consistent>
1

> <s_lp_Variant>
AV-unprocessed.smi:290-32

> <Gold.Version>
5.8.1

> <Gold.Id.Protein>
6NUR|6NUR_protein|mol2

> <Gold.PLP.Fitness>
47.2907

> <Gold.PLP.PLP>
-36.1975

> <Gold.PLP.part.hbond>
-3.0000

> <Gold.PLP.part.metal>
0.0000

> <Gold.PLP.part.buried>
-6.6797

> <Gold.PLP.part.nonpolar>
-26.9325

> <Gold.PLP.part.repulsive>
0.3505

> <Gold.PLP.ligand.clash>
0.0000

> <Gold.PLP.ligand.torsion>
0.5719

> <Gold.PLP.Chemscore.Hbond>
2.9000

> <Gold.PLP.Chemscore.CHOScore>
1.0000

> <Gold.PLP.Chemscore.Metal>
0.0000

> <Gold.Chemscore.Hbonds>
donor molecule, donor type, donor heavy atom, donor atom, acceptor molecule, acceptor atom, score
      L1  H     7    39       P1  8028  0.70
      L1  H    22    54       P1 10747  0.05
      P1  H  7989  7998       L1    27  1.00
      L1  C    26    58       P1  7957  1.00

> <Gold.PLP.Chemscore.Internal.Correction>
0.5370

> <Gold.Rescore>
     Score         DG    S(hbond)    S(metal)    S(lipo)     H(rot)  DE(clash)    DE(int)     intcor
      9.30     -10.18       0.98        0.00      92.44       3.67       0.18       0.70       ----

> <Gold.Chemscore.Fitness>
9.3047

> <Gold.Chemscore.DG>
-10.1831

> <Gold.Chemscore.ZeroCoef>
-5.4800

> <Gold.Chemscore.Hbond>
0.9796

> <Gold.Chemscore.Metal>
0.0000

> <Gold.Chemscore.Lipo>
92.4402

> <Gold.Chemscore.Internal_Hbond>
0.0000

> <Gold.Chemscore.DEClash>
0.1809

> <Gold.Chemscore.DEInternal>
0.6975

> <Gold.Chemscore.Rot>
3.6658

> <Gold.Chemscore.Internal.Correction>
   9.000000E+99

> <Gold.Chemscore.Hbonds>
donor molecule, donor type, donor heavy atom, donor atom, acceptor molecule, acceptor atom, score
      L1  H     7    39       P1  8028  0.67
      L1  H    22    54       P1 10747  0.01
      P1  H  7989  7998       L1    27  0.45

> <Gold.Chemscore.Hbond.Weighted>
-3.2720

> <Gold.Chemscore.Metal.Weighted>
-0.0000

> <Gold.Chemscore.Lipo.Weighted>
-10.8155

> <Gold.Chemscore.Internal_Hbond.Weighted>
0.0000

> <Gold.Chemscore.DEClash.Weighted>
0.1809

> <Gold.Chemscore.DEInternal.Weighted>
0.6975

> <Gold.Chemscore.Rot.Weighted>
9.3844

> <Gold.Chemscore.Internal.Correction.Weighted>
   9.000000E+99

> <Gold.Protein.RotatedTorsions>
[ 6907 6896 6895 6894 ] final  177.28 input  -60.11 | X-H torsion
[ 7974 7965 7964 7962 ] final  -45.97 input  175.53 | X-H torsion
[ 8008 7997 7996 7995 ] final  -64.38 input   59.86 | X-H torsion
[ 10167 10162 10161 10158 ] final  127.61 input  -65.29 | X-H torsion
[ 10718 10713 10712 10709 ] final   86.19 input   66.30 | X-H torsion
[ 10763 10752 10751 10750 ] final  175.66 input  -60.55 | X-H torsion
[ 11005 11000 10999 10996 ] final   48.15 input  -57.11 | X-H torsion

> <Gold.Protein.ActiveResidues>
 VAL166  LYS551  ARG553  GLY616  TRP617  ASP618  TYR619  PRO620  LYS621  CYS622 
 ASP623  PHE694  ASN695  SER759  ASP760  ASP761  ALA762  ILE779  LEU786  VAL792 
 PHE793  MET794  SER795  GLU796  ALA797  LYS798  CYS799  TRP800  GLU811  SER814 

> <Gold.Protein.RotatedAtoms>
  151.7066  133.3311  159.3279 H   0  0  0  0  0  0  0  0  0  0  0  0  # atno 6907 bound_to 6896
  150.7712  134.6569  159.6328 H   0  0  0  0  0  0  0  0  0  0  0  0  # atno 6908 bound_to 6896
  152.3737  134.6698  160.0219 H   0  0  0  0  0  0  0  0  0  0  0  0  # atno 6909 bound_to 6896
  145.9767  140.7327  142.9384 H   0  0  0  0  0  0  0  0  0  0  0  0  # atno 7974 bound_to 7965
  154.4608  140.0955  156.6888 H   0  0  0  0  0  0  0  0  0  0  0  0  # atno 8008 bound_to 7997
  155.4999  140.3473  155.4351 H   0  0  0  0  0  0  0  0  0  0  0  0  # atno 8009 bound_to 7997
  156.0867  140.1387  156.9633 H   0  0  0  0  0  0  0  0  0  0  0  0  # atno 8010 bound_to 7997
  139.5569  144.6855  151.4155 H   0  0  0  0  0  0  0  0  0  0  0  0  # atno 10167 bound_to 10162
  157.6925  131.0205  150.2936 H   0  0  0  0  0  0  0  0  0  0  0  0  # atno 10718 bound_to 10713
  154.4705  135.2771  155.1646 H   0  0  0  0  0  0  0  0  0  0  0  0  # atno 10763 bound_to 10752
  154.3396  135.6173  153.5594 H   0  0  0  0  0  0  0  0  0  0  0  0  # atno 10764 bound_to 10752
  152.9864  135.5785  154.5086 H   0  0  0  0  0  0  0  0  0  0  0  0  # atno 10765 bound_to 10752
  140.1216  134.4822  155.8593 H   0  0  0  0  0  0  0  0  0  0  0  0  # atno 11005 bound_to 11000
  144.6850  140.2839  143.7288 LP  0  0  0  0  0  0  0  0  0  0  0  0  # atno 17320 bound_to 7965
  145.7829  139.1898  143.2147 LP  0  0  0  0  0  0  0  0  0  0  0  0  # atno 17321 bound_to 7965
  140.6844  143.8008  150.7165 LP  0  0  0  0  0  0  0  0  0  0  0  0  # atno 17342 bound_to 10162
  140.1471  143.4390  152.2155 LP  0  0  0  0  0  0  0  0  0  0  0  0  # atno 17343 bound_to 10162
  156.3463  130.3823  149.7367 LP  0  0  0  0  0  0  0  0  0  0  0  0  # atno 17370 bound_to 10713
  156.4859  130.8062  151.3075 LP  0  0  0  0  0  0  0  0  0  0  0  0  # atno 17371 bound_to 10713
  141.2153  133.6762  156.6899 LP  0  0  0  0  0  0  0  0  0  0  0  0  # atno 17394 bound_to 11000
  140.2958  134.8204  157.4056 LP  0  0  0  0  0  0  0  0  0  0  0  0  # atno 17395 bound_to 11000

$$$$
