AV-unprocessed.smi:1208|AV-procd|sdf|5067|dock1
  -GOLD-   22720 4103D 1   1.00000     0.00000
 Structure written by MMmdl.
 36 37  0  0  0  0  0  0  0  0  1 V2000
  150.3997  142.2748  156.6191 C   0  0  0  0  0  0  0  0  0  0  0  0
  151.5611  141.8297  157.5227 C   0  0  2  0  0  0  0  0  0  0  0  0
  151.5161  140.3838  157.7138 N   0  0  0  0  0  0  0  0  0  0  0  0
  152.4993  139.6188  158.2171 C   0  0  0  0  0  0  0  0  0  0  0  0
  153.5912  140.0728  158.5565 O   0  0  0  0  0  0  0  0  0  0  0  0
  152.2312  138.1118  158.3772 C   0  0  0  0  0  0  0  0  0  0  0  0
  151.2361  137.5605  157.4424 N   0  0  0  0  0  0  0  0  0  0  0  0
  151.5553  137.7435  156.1052 N   0  0  0  0  0  0  0  0  0  0  0  0
  150.7759  137.2817  155.1869 C   0  0  0  0  0  0  0  0  0  0  0  0
  151.1325  137.4805  153.8759 O   0  0  0  0  0  0  0  0  0  0  0  0
  149.5603  136.5738  155.5236 C   0  0  0  0  0  0  0  0  0  0  0  0
  149.2575  136.4011  156.8288 C   0  0  0  0  0  0  0  0  0  0  0  0
  150.1237  136.9051  157.8960 C   0  0  0  0  0  0  0  0  0  0  0  0
  149.8827  136.7442  159.0918 O   0  0  0  0  0  0  0  0  0  0  0  0
  151.5217  142.5283  158.8955 C   0  0  1  0  0  0  0  0  0  0  0  0
  152.8317  142.4636  159.6839 C   0  0  0  0  0  0  0  0  0  0  0  0
  152.6828  143.6441  160.6154 C   0  0  0  0  0  0  0  0  0  0  0  0
  151.9940  144.6694  159.7187 C   0  0  0  0  0  0  0  0  0  0  0  0
  151.2674  143.9227  158.7450 O   0  0  0  0  0  0  0  0  0  0  0  0
  150.4324  137.1057  153.3641 H   0  0  0  0  0  0  0  0  0  0  0  0
  150.4226  143.3517  156.4512 H   0  0  0  0  0  0  0  0  0  0  0  0
  149.4346  142.0277  157.0624 H   0  0  0  0  0  0  0  0  0  0  0  0
  150.4508  141.7918  155.6429 H   0  0  0  0  0  0  0  0  0  0  0  0
  152.5025  142.0928  157.0368 H   0  0  0  0  0  0  0  0  0  0  0  0
  150.6539  139.9240  157.4595 H   0  0  0  0  0  0  0  0  0  0  0  0
  153.1783  137.5774  158.2870 H   0  0  0  0  0  0  0  0  0  0  0  0
  151.9022  137.9387  159.4033 H   0  0  0  0  0  0  0  0  0  0  0  0
  148.9150  136.1966  154.7439 H   0  0  0  0  0  0  0  0  0  0  0  0
  148.3527  135.8752  157.0950 H   0  0  0  0  0  0  0  0  0  0  0  0
  150.7223  142.1078  159.5082 H   0  0  0  0  0  0  0  0  0  0  0  0
  152.9675  141.5189  160.2115 H   0  0  0  0  0  0  0  0  0  0  0  0
  153.6869  142.6140  159.0234 H   0  0  0  0  0  0  0  0  0  0  0  0
  152.0341  143.3793  161.4513 H   0  0  0  0  0  0  0  0  0  0  0  0
  153.6323  143.9978  161.0177 H   0  0  0  0  0  0  0  0  0  0  0  0
  151.3366  145.3326  160.2811 H   0  0  0  0  0  0  0  0  0  0  0  0
  152.7322  145.2836  159.2016 H   0  0  0  0  0  0  0  0  0  0  0  0
  1  2  1  0  0  0  0
  1 21  1  0  0  0  0
  1 22  1  0  0  0  0
  1 23  1  0  0  0  0
  2  3  1  0  0  0  0
  2 15  1  0  0  0  0
  2 24  1  0  0  0  0
  3  4  1  0  0  0  0
  3 25  1  0  0  0  0
  4  5  2  0  0  0  0
  4  6  1  0  0  0  0
  6 26  1  0  0  0  0
  6 27  1  0  0  0  0
  6  7  1  0  0  0  0
  7  8  1  0  0  0  0
  7 13  1  0  0  0  0
  8  9  2  0  0  0  0
  9 10  1  0  0  0  0
  9 11  1  0  0  0  0
 10 20  1  0  0  0  0
 11 28  1  0  0  0  0
 11 12  2  0  0  0  0
 12 29  1  0  0  0  0
 12 13  1  0  0  0  0
 13 14  2  0  0  0  0
 15 19  1  0  0  0  0
 15 16  1  0  0  0  0
 15 30  1  0  0  0  0
 16 17  1  0  0  0  0
 16 31  1  0  0  0  0
 16 32  1  0  0  0  0
 17 18  1  0  0  0  0
 17 33  1  0  0  0  0
 17 34  1  0  0  0  0
 18 19  1  0  0  0  0
 18 35  1  0  0  0  0
 18 36  1  0  0  0  0
M  END
> <s_m_source_file>
AV-unprocessed.smi

> <i_m_source_file_index>
1208

> <i_lp_mmshare_version>
43012

> <i_f3d_flags>
0

> <s_epik_input>
TzFbQ0gyXVtDSDJdW0NIMl1bQ0BIXTFbQ0BIXShbQ0gzXSlbTkhdQyg9TylbQ0gyXW4yW25IXWMoPU8pW2NIXVtjSF1jMj1P

> <s_epik_cmdline>
J2VwaWtfcHl0aG9uJywgJy1waCcsICc3LjAnLCAnLXRuJywgJzgnLCAnLW1hJywgJzIwMCcsICctbWV0YWxfYmluZGluZycsICctaW1hZScsICc8aW5maWxlLm1hZT4nLCAnLW9tYWUnLCAnPG91dGZpbGUubWFlPic=

> <r_lp_tautomer_probability>
0.9996

> <r_epik_Ionization_Penalty>
2.12735

> <r_epik_Ionization_Penalty_Charging>
3.86665e-08

> <r_epik_Ionization_Penalty_Neutral>
2.12735

> <r_epik_State_Penalty>
1.70441

> <r_epik_Charging_Adjusted_Penalty>
1.70441

> <i_epik_Tot_Q>
0

> <i_epik_Tot_abs_Q>
0

> <r_epik_Metal_State_Penalty>
1.70441

> <b_epik_Metal_Only>
0

> <s_lp_Force_Field>
OPLS_2005

> <r_lp_Energy>
27.2877

> <b_lp_Chiralities_Consistent>
1

> <s_lp_Variant>
AV-unprocessed.smi:1208-7

> <Gold.Version>
5.8.1

> <Gold.Id.Protein>
6NUR|6NUR_protein|mol2

> <Gold.PLP.Fitness>
40.2442

> <Gold.PLP.PLP>
-30.6666

> <Gold.PLP.part.hbond>
-4.0000

> <Gold.PLP.part.metal>
0.0000

> <Gold.PLP.part.buried>
-5.6323

> <Gold.PLP.part.nonpolar>
-20.8706

> <Gold.PLP.part.repulsive>
0.1664

> <Gold.PLP.ligand.clash>
0.0000

> <Gold.PLP.ligand.torsion>
0.7243

> <Gold.PLP.Chemscore.Hbond>
3.6661

> <Gold.PLP.Chemscore.CHOScore>
0.0000

> <Gold.PLP.Chemscore.Metal>
0.0000

> <Gold.Chemscore.Hbonds>
donor molecule, donor type, donor heavy atom, donor atom, acceptor molecule, acceptor atom, score
      L1  H    10    20       P1  7948  0.25
      P1  H  6896  6908       L1    14  0.62
      P1  H  7997  8009       L1     5  0.98

> <Gold.PLP.Chemscore.Internal.Correction>
0.0279

> <Gold.Rescore>
     Score         DG    S(hbond)    S(metal)    S(lipo)     H(rot)  DE(clash)    DE(int)     intcor
     12.03     -15.74       2.69        0.00      68.45       2.63       1.48       2.23       ----

> <Gold.Chemscore.Fitness>
12.0344

> <Gold.Chemscore.DG>
-15.7389

> <Gold.Chemscore.ZeroCoef>
-5.4800

> <Gold.Chemscore.Hbond>
2.6869

> <Gold.Chemscore.Metal>
0.0000

> <Gold.Chemscore.Lipo>
68.4485

> <Gold.Chemscore.Internal_Hbond>
0.0000

> <Gold.Chemscore.DEClash>
1.4751

> <Gold.Chemscore.DEInternal>
2.2294

> <Gold.Chemscore.Rot>
2.6264

> <Gold.Chemscore.Internal.Correction>
   9.000000E+99

> <Gold.Chemscore.Hbonds>
donor molecule, donor type, donor heavy atom, donor atom, acceptor molecule, acceptor atom, score
      L1  H    10    20       P1  7948  0.01
      P1  H  6896  6908       L1    14  0.38
      P1  H  7997  8009       L1     5  0.80

> <Gold.Chemscore.Hbond.Weighted>
-8.9741

> <Gold.Chemscore.Metal.Weighted>
-0.0000

> <Gold.Chemscore.Lipo.Weighted>
-8.0085

> <Gold.Chemscore.Internal_Hbond.Weighted>
0.0000

> <Gold.Chemscore.DEClash.Weighted>
1.4751

> <Gold.Chemscore.DEInternal.Weighted>
2.2294

> <Gold.Chemscore.Rot.Weighted>
6.7237

> <Gold.Chemscore.Internal.Correction.Weighted>
   9.000000E+99

> <Gold.Protein.RotatedTorsions>
[ 6907 6896 6895 6894 ] final -167.92 input  -60.11 | X-H torsion
[ 7974 7965 7964 7962 ] final -105.27 input  175.53 | X-H torsion
[ 8008 7997 7996 7995 ] final  137.30 input   59.86 | X-H torsion
[ 10167 10162 10161 10158 ] final -167.78 input  -65.29 | X-H torsion
[ 10718 10713 10712 10709 ] final -119.20 input   66.30 | X-H torsion
[ 10763 10752 10751 10750 ] final  146.42 input  -60.55 | X-H torsion
[ 11005 11000 10999 10996 ] final  -73.60 input  -57.11 | X-H torsion

> <Gold.Protein.ActiveResidues>
 VAL166  LYS551  ARG553  GLY616  TRP617  ASP618  TYR619  PRO620  LYS621  CYS622 
 ASP623  PHE694  ASN695  SER759  ASP760  ASP761  ALA762  ILE779  LEU786  VAL792 
 PHE793  MET794  SER795  GLU796  ALA797  LYS798  CYS799  TRP800  GLU811  SER814 

> <Gold.Protein.RotatedAtoms>
  151.4672  133.3578  159.2817 H   0  0  0  0  0  0  0  0  0  0  0  0  # atno 6907 bound_to 6896
  150.8985  134.8397  159.7354 H   0  0  0  0  0  0  0  0  0  0  0  0  # atno 6908 bound_to 6896
  152.4865  134.4590  159.9651 H   0  0  0  0  0  0  0  0  0  0  0  0  # atno 6909 bound_to 6896
  145.2326  140.9176  143.3196 H   0  0  0  0  0  0  0  0  0  0  0  0  # atno 7974 bound_to 7965
  156.3002  140.2423  156.3887 H   0  0  0  0  0  0  0  0  0  0  0  0  # atno 8008 bound_to 7997
  154.8633  140.0419  157.1699 H   0  0  0  0  0  0  0  0  0  0  0  0  # atno 8009 bound_to 7997
  154.8873  140.2958  155.5395 H   0  0  0  0  0  0  0  0  0  0  0  0  # atno 8010 bound_to 7997
  139.6027  144.0976  152.1760 H   0  0  0  0  0  0  0  0  0  0  0  0  # atno 10167 bound_to 10162
  156.1163  130.6288  150.9386 H   0  0  0  0  0  0  0  0  0  0  0  0  # atno 10718 bound_to 10713
  154.0216  135.2905  155.3380 H   0  0  0  0  0  0  0  0  0  0  0  0  # atno 10763 bound_to 10752
  154.7043  135.5176  153.8575 H   0  0  0  0  0  0  0  0  0  0  0  0  # atno 10764 bound_to 10752
  153.0679  135.6637  154.0437 H   0  0  0  0  0  0  0  0  0  0  0  0  # atno 10765 bound_to 10752
  141.1625  133.6883  156.7237 H   0  0  0  0  0  0  0  0  0  0  0  0  # atno 11005 bound_to 11000
  144.9662  139.3927  143.6331 LP  0  0  0  0  0  0  0  0  0  0  0  0  # atno 17320 bound_to 7965
  146.3349  139.8739  142.8835 LP  0  0  0  0  0  0  0  0  0  0  0  0  # atno 17321 bound_to 7965
  140.0576  144.5882  150.7287 LP  0  0  0  0  0  0  0  0  0  0  0  0  # atno 17342 bound_to 10162
  140.7262  143.2639  151.4112 LP  0  0  0  0  0  0  0  0  0  0  0  0  # atno 17343 bound_to 10162
  157.6346  131.0917  150.8374 LP  0  0  0  0  0  0  0  0  0  0  0  0  # atno 17370 bound_to 10713
  156.8477  130.5069  149.5315 LP  0  0  0  0  0  0  0  0  0  0  0  0  # atno 17371 bound_to 10713
  140.2797  134.8326  157.3922 LP  0  0  0  0  0  0  0  0  0  0  0  0  # atno 17394 bound_to 11000
  140.1445  134.4929  155.8007 LP  0  0  0  0  0  0  0  0  0  0  0  0  # atno 17395 bound_to 11000

$$$$
