AV-unprocessed.smi:2721|AV-procd|sdf|10500|dock8
  -GOLD-   2272014543D 1   1.00000     0.00000
 Structure written by MMmdl.
 29 30  0  0  0  0  0  0  0  0  2 V2000
  151.4911  138.4430  155.2082 C   0  0  0  0  0  0  0  0  0  0  0  0
  151.2674  139.7176  155.8561 N   0  0  0  0  0  0  0  0  0  0  0  0
  151.4956  140.0674  157.1694 C   0  0  0  0  0  0  0  0  0  0  0  0
  151.1298  141.3766  157.3152 C   0  0  0  0  0  0  0  0  0  0  0  0
  151.2001  142.2466  158.5430 C   0  0  1  0  0  0  0  0  0  0  0  0
  152.5533  142.3603  158.9798 O   0  0  0  0  0  0  0  0  0  0  0  0
  152.7126  143.0859  160.1942 C   0  0  0  0  0  0  0  0  0  0  0  0
  152.2411  144.5333  159.9968 C   0  0  0  0  0  0  0  0  0  0  0  0
  150.7891  144.5534  159.5103 C   0  0  0  0  0  0  0  0  0  0  0  0
  150.6388  143.6636  158.2669 C   0  0  2  0  0  0  0  0  0  0  0  0
  149.2265  143.6146  157.8428 N   0  3  0  0  0  0  0  0  0  0  0  0
  150.6854  141.7410  156.0119 C   0  0  0  0  0  0  0  0  0  0  0  0
  150.7698  140.7482  155.1426 N   0  0  0  0  0  0  0  0  0  0  0  0
  150.6254  141.7854  159.3486 H   0  0  0  0  0  0  0  0  0  0  0  0
  151.2055  144.1127  157.4497 H   0  0  0  0  0  0  0  0  0  0  0  0
  152.0774  137.7918  155.8570 H   0  0  0  0  0  0  0  0  0  0  0  0
  152.0328  138.5904  154.2732 H   0  0  0  0  0  0  0  0  0  0  0  0
  150.5339  137.9656  154.9965 H   0  0  0  0  0  0  0  0  0  0  0  0
  151.8965  139.3645  157.8850 H   0  0  0  0  0  0  0  0  0  0  0  0
  152.1592  142.5996  160.9989 H   0  0  0  0  0  0  0  0  0  0  0  0
  153.7652  143.0705  160.4775 H   0  0  0  0  0  0  0  0  0  0  0  0
  152.3359  145.0924  160.9281 H   0  0  0  0  0  0  0  0  0  0  0  0
  152.8817  145.0296  159.2666 H   0  0  0  0  0  0  0  0  0  0  0  0
  150.1356  144.1952  160.3073 H   0  0  0  0  0  0  0  0  0  0  0  0
  150.4834  145.5769  159.2896 H   0  0  0  0  0  0  0  0  0  0  0  0
  149.1718  143.6797  156.8363 H   0  0  0  0  0  0  0  0  0  0  0  0
  148.7249  144.3874  158.2573 H   0  0  0  0  0  0  0  0  0  0  0  0
  150.3105  142.6953  155.6732 H   0  0  0  0  0  0  0  0  0  0  0  0
  148.8126  142.7449  158.1468 H   0  0  0  0  0  0  0  0  0  0  0  0
  1  2  1  0  0  0  0
  1 16  1  0  0  0  0
  1 17  1  0  0  0  0
  1 18  1  0  0  0  0
  2 13  1  0  0  0  0
  2  3  1  0  0  0  0
  3  4  2  0  0  0  0
  3 19  1  0  0  0  0
  4  5  1  0  0  0  0
  4 12  1  0  0  0  0
  5 14  1  0  0  0  0
  5 10  1  0  0  0  0
  5  6  1  0  0  0  0
  6  7  1  0  0  0  0
  7  8  1  0  0  0  0
  7 20  1  0  0  0  0
  7 21  1  0  0  0  0
  8  9  1  0  0  0  0
  8 22  1  0  0  0  0
  8 23  1  0  0  0  0
  9 10  1  0  0  0  0
  9 24  1  0  0  0  0
  9 25  1  0  0  0  0
 10 15  1  0  0  0  0
 10 11  1  0  0  0  0
 11 26  1  0  0  0  0
 11 27  1  0  0  0  0
 11 29  1  0  0  0  0
 12 13  2  0  0  0  0
 12 28  1  0  0  0  0
M  CHG  1  11   1
M  END
> <s_m_source_file>
AV-unprocessed.smi

> <i_m_source_file_index>
2721

> <i_lp_mmshare_version>
43012

> <i_f3d_flags>
0

> <s_epik_input>
W0NIM11uMVtjSF1jKFtjSF1uMSlbQ0BIXTJPW0NIMl1bQ0gyXVtDSDJdW0NAQEhdMltOSDJd

> <s_epik_cmdline>
J2VwaWtfcHl0aG9uJywgJy1waCcsICc3LjAnLCAnLXRuJywgJzgnLCAnLW1hJywgJzIwMCcsICctbWV0YWxfYmluZGluZycsICctaW1hZScsICc8aW5maWxlLm1hZT4nLCAnLW9tYWUnLCAnPG91dGZpbGUubWFlPic=

> <r_lp_tautomer_probability>
1

> <r_epik_Ionization_Penalty>
0.0061467

> <r_epik_Ionization_Penalty_Charging>
0.00611941

> <r_epik_Ionization_Penalty_Neutral>
2.72888e-05

> <r_epik_State_Penalty>
0.00451057

> <r_epik_Charging_Adjusted_Penalty>
0.01063

> <i_epik_Tot_Q>
1

> <i_epik_Tot_abs_Q>
1

> <r_epik_Metal_State_Penalty>
-0

> <b_epik_Metal_Only>
0

> <s_lp_Force_Field>
OPLS_2005

> <r_lp_Energy>
11.0235

> <b_lp_Chiralities_Consistent>
1

> <s_lp_Variant>
AV-unprocessed.smi:2721-1

> <Gold.Version>
5.8.1

> <Gold.Id.Protein>
6NUR|6NUR_protein|mol2

> <Gold.PLP.Fitness>
41.5009

> <Gold.PLP.PLP>
-27.9846

> <Gold.PLP.part.hbond>
-2.7655

> <Gold.PLP.part.metal>
0.0000

> <Gold.PLP.part.buried>
-1.9278

> <Gold.PLP.part.nonpolar>
-23.0499

> <Gold.PLP.part.repulsive>
0.0980

> <Gold.PLP.ligand.clash>
0.0488

> <Gold.PLP.ligand.torsion>
0.0090

> <Gold.PLP.Chemscore.Hbond>
3.5268

> <Gold.PLP.Chemscore.CHOScore>
1.0000

> <Gold.PLP.Chemscore.Metal>
0.0000

> <Gold.Chemscore.Hbonds>
donor molecule, donor type, donor heavy atom, donor atom, acceptor molecule, acceptor atom, score
      L1  H    11    26       P1  8028  1.63
      L1  H    11    27       P1  8029  1.02
      P1  H  7989  7998       L1    13  0.86
      L1  C    12    28       P1  8028  1.00

> <Gold.PLP.Chemscore.Internal.Correction>
0.0029

> <Gold.Rescore>
     Score         DG    S(hbond)    S(metal)    S(lipo)     H(rot)  DE(clash)    DE(int)     intcor
     16.23     -17.55       1.68        0.00      77.06       1.00       0.34       0.98       ----

> <Gold.Chemscore.Fitness>
16.2310

> <Gold.Chemscore.DG>
-17.5460

> <Gold.Chemscore.ZeroCoef>
-5.4800

> <Gold.Chemscore.Hbond>
1.6796

> <Gold.Chemscore.Metal>
0.0000

> <Gold.Chemscore.Lipo>
77.0604

> <Gold.Chemscore.Internal_Hbond>
0.0000

> <Gold.Chemscore.DEClash>
0.3369

> <Gold.Chemscore.DEInternal>
0.9781

> <Gold.Chemscore.Rot>
1.0000

> <Gold.Chemscore.Internal.Correction>
   9.000000E+99

> <Gold.Chemscore.Hbonds>
donor molecule, donor type, donor heavy atom, donor atom, acceptor molecule, acceptor atom, score
      L1  H    11    26       P1  8028  0.61
      L1  H    11    27       P1  8029  0.17
      P1  H  7989  7998       L1    13  0.66

> <Gold.Chemscore.Hbond.Weighted>
-5.6099

> <Gold.Chemscore.Metal.Weighted>
-0.0000

> <Gold.Chemscore.Lipo.Weighted>
-9.0161

> <Gold.Chemscore.Internal_Hbond.Weighted>
0.0000

> <Gold.Chemscore.DEClash.Weighted>
0.3369

> <Gold.Chemscore.DEInternal.Weighted>
0.9781

> <Gold.Chemscore.Rot.Weighted>
2.5600

> <Gold.Chemscore.Internal.Correction.Weighted>
   9.000000E+99

> <Gold.Protein.RotatedTorsions>
[ 6907 6896 6895 6894 ] final    6.04 input  -60.11 | X-H torsion
[ 7974 7965 7964 7962 ] final   16.51 input  175.53 | X-H torsion
[ 8008 7997 7996 7995 ] final  179.21 input   59.86 | X-H torsion
[ 10167 10162 10161 10158 ] final -164.20 input  -65.29 | X-H torsion
[ 10718 10713 10712 10709 ] final   29.88 input   66.30 | X-H torsion
[ 10763 10752 10751 10750 ] final -112.42 input  -60.55 | X-H torsion
[ 11005 11000 10999 10996 ] final   72.34 input  -57.11 | X-H torsion

> <Gold.Protein.ActiveResidues>
 VAL166  LYS551  ARG553  GLY616  TRP617  ASP618  TYR619  PRO620  LYS621  CYS622 
 ASP623  PHE694  ASN695  SER759  ASP760  ASP761  ALA762  ILE779  LEU786  VAL792 
 PHE793  MET794  SER795  GLU796  ALA797  LYS798  CYS799  TRP800  GLU811  SER814 

> <Gold.Protein.RotatedAtoms>
  151.6673  135.0981  160.0190 H   0  0  0  0  0  0  0  0  0  0  0  0  # atno 6907 bound_to 6896
  152.3912  133.6677  159.6247 H   0  0  0  0  0  0  0  0  0  0  0  0  # atno 6908 bound_to 6896
  150.7827  133.8868  159.3343 H   0  0  0  0  0  0  0  0  0  0  0  0  # atno 6909 bound_to 6896
  146.2247  139.8738  142.8583 H   0  0  0  0  0  0  0  0  0  0  0  0  # atno 7974 bound_to 7965
  156.0459  140.1314  157.0104 H   0  0  0  0  0  0  0  0  0  0  0  0  # atno 8008 bound_to 7997
  154.4412  140.1020  156.6376 H   0  0  0  0  0  0  0  0  0  0  0  0  # atno 8009 bound_to 7997
  155.5596  140.3464  155.4490 H   0  0  0  0  0  0  0  0  0  0  0  0  # atno 8010 bound_to 7997
  139.6267  144.0518  152.1981 H   0  0  0  0  0  0  0  0  0  0  0  0  # atno 10167 bound_to 10162
  157.2523  130.7121  149.6411 H   0  0  0  0  0  0  0  0  0  0  0  0  # atno 10718 bound_to 10713
  154.8348  135.4491  154.1190 H   0  0  0  0  0  0  0  0  0  0  0  0  # atno 10763 bound_to 10752
  153.2432  135.6918  153.7767 H   0  0  0  0  0  0  0  0  0  0  0  0  # atno 10764 bound_to 10752
  153.7107  135.3357  155.3221 H   0  0  0  0  0  0  0  0  0  0  0  0  # atno 10765 bound_to 10752
  139.9496  134.7251  156.0895 H   0  0  0  0  0  0  0  0  0  0  0  0  # atno 11005 bound_to 11000
  145.2582  141.0068  143.3842 LP  0  0  0  0  0  0  0  0  0  0  0  0  # atno 17320 bound_to 7965
  144.9320  139.4288  143.6490 LP  0  0  0  0  0  0  0  0  0  0  0  0  # atno 17321 bound_to 7965
  140.0173  144.6179  150.7596 LP  0  0  0  0  0  0  0  0  0  0  0  0  # atno 17342 bound_to 10162
  140.7415  143.2819  151.3574 LP  0  0  0  0  0  0  0  0  0  0  0  0  # atno 17343 bound_to 10162
  155.9666  130.4424  150.5378 LP  0  0  0  0  0  0  0  0  0  0  0  0  # atno 17370 bound_to 10713
  157.3265  131.0691  151.1893 LP  0  0  0  0  0  0  0  0  0  0  0  0  # atno 17371 bound_to 10713
  141.1155  133.6629  156.3084 LP  0  0  0  0  0  0  0  0  0  0  0  0  # atno 17394 bound_to 11000
  140.5752  134.5801  157.5467 LP  0  0  0  0  0  0  0  0  0  0  0  0  # atno 17395 bound_to 11000

$$$$
