AV-unprocessed.smi:3160|AV-procd|sdf|12053|dock1
  -GOLD-   2272017483D 1   1.00000     0.00000
 Structure written by MMmdl.
 40 41  0  0  0  0  0  0  0  0  2 V2000
  147.0345  140.5571  153.1568 C   0  0  0  0  0  0  0  0  0  0  0  0
  148.2974  140.3041  153.9287 C   0  0  0  0  0  0  0  0  0  0  0  0
  148.9687  139.0644  154.1247 C   0  0  0  0  0  0  0  0  0  0  0  0
  150.0607  139.1831  154.8614 N   0  0  0  0  0  0  0  0  0  0  0  0
  150.1283  140.4990  155.1624 N   0  0  0  0  0  0  0  0  0  0  0  0
  151.2167  141.0111  155.9882 C   0  0  2  0  0  0  0  0  0  0  0  0
  152.1073  139.8454  156.4589 C   0  0  0  0  0  0  0  0  0  0  0  0
  150.6794  141.8826  157.1556 C   0  0  1  0  0  0  0  0  0  0  0  0
  149.5649  141.1895  157.9573 C   0  0  0  0  0  0  0  0  0  0  0  0
  151.7835  142.2330  158.0805 N   0  3  0  0  0  0  0  0  0  0  0  0
  151.4642  143.2690  159.0861 C   0  0  0  0  0  0  0  0  0  0  0  0
  151.8027  144.6748  158.5939 C   0  0  0  0  0  0  0  0  0  0  0  0
  151.8815  145.5147  159.8726 C   0  0  0  0  0  0  0  0  0  0  0  0
  152.2401  144.5374  161.0046 C   0  0  0  0  0  0  0  0  0  0  0  0
  152.2848  143.1408  160.3718 C   0  0  0  0  0  0  0  0  0  0  0  0
  149.0772  141.1983  154.6060 C   0  0  0  0  0  0  0  0  0  0  0  0
  146.6286  139.6389  152.7311 H   0  0  0  0  0  0  0  0  0  0  0  0
  147.1999  141.2479  152.3300 H   0  0  0  0  0  0  0  0  0  0  0  0
  146.2572  140.9890  153.7874 H   0  0  0  0  0  0  0  0  0  0  0  0
  148.6947  138.0865  153.7568 H   0  0  0  0  0  0  0  0  0  0  0  0
  151.8276  141.6466  155.3449 H   0  0  0  0  0  0  0  0  0  0  0  0
  153.0228  140.2018  156.9302 H   0  0  0  0  0  0  0  0  0  0  0  0
  152.4073  139.2200  155.6174 H   0  0  0  0  0  0  0  0  0  0  0  0
  151.5881  139.2085  157.1758 H   0  0  0  0  0  0  0  0  0  0  0  0
  150.2580  142.7976  156.7356 H   0  0  0  0  0  0  0  0  0  0  0  0
  148.6816  141.0060  157.3465 H   0  0  0  0  0  0  0  0  0  0  0  0
  149.2450  141.8083  158.7964 H   0  0  0  0  0  0  0  0  0  0  0  0
  149.8993  140.2327  158.3595 H   0  0  0  0  0  0  0  0  0  0  0  0
  152.0933  141.3980  158.5568 H   0  0  0  0  0  0  0  0  0  0  0  0
  150.3999  143.2355  159.3240 H   0  0  0  0  0  0  0  0  0  0  0  0
  152.7752  144.6758  158.0990 H   0  0  0  0  0  0  0  0  0  0  0  0
  151.0684  145.0599  157.8852 H   0  0  0  0  0  0  0  0  0  0  0  0
  152.6087  146.3219  159.7798 H   0  0  0  0  0  0  0  0  0  0  0  0
  150.9122  145.9712  160.0770 H   0  0  0  0  0  0  0  0  0  0  0  0
  153.1938  144.7885  161.4703 H   0  0  0  0  0  0  0  0  0  0  0  0
  151.4776  144.5776  161.7834 H   0  0  0  0  0  0  0  0  0  0  0  0
  151.9023  142.3691  161.0404 H   0  0  0  0  0  0  0  0  0  0  0  0
  153.3188  142.8870  160.1321 H   0  0  0  0  0  0  0  0  0  0  0  0
  148.9682  142.2647  154.7392 H   0  0  0  0  0  0  0  0  0  0  0  0
  152.5463  142.5814  157.5179 H   0  0  0  0  0  0  0  0  0  0  0  0
  1  2  1  0  0  0  0
  1 17  1  0  0  0  0
  1 18  1  0  0  0  0
  1 19  1  0  0  0  0
  2 16  2  0  0  0  0
  2  3  1  0  0  0  0
  3  4  2  0  0  0  0
  3 20  1  0  0  0  0
  4  5  1  0  0  0  0
  5  6  1  0  0  0  0
  5 16  1  0  0  0  0
  6  7  1  0  0  0  0
  6  8  1  0  0  0  0
  6 21  1  0  0  0  0
  7 22  1  0  0  0  0
  7 23  1  0  0  0  0
  7 24  1  0  0  0  0
  8  9  1  0  0  0  0
  8 10  1  0  0  0  0
  8 25  1  0  0  0  0
  9 26  1  0  0  0  0
  9 27  1  0  0  0  0
  9 28  1  0  0  0  0
 10 11  1  0  0  0  0
 10 29  1  0  0  0  0
 10 40  1  0  0  0  0
 11 15  1  0  0  0  0
 11 12  1  0  0  0  0
 11 30  1  0  0  0  0
 12 13  1  0  0  0  0
 12 31  1  0  0  0  0
 12 32  1  0  0  0  0
 13 14  1  0  0  0  0
 13 33  1  0  0  0  0
 13 34  1  0  0  0  0
 14 15  1  0  0  0  0
 14 35  1  0  0  0  0
 14 36  1  0  0  0  0
 15 37  1  0  0  0  0
 15 38  1  0  0  0  0
 16 39  1  0  0  0  0
M  CHG  1  10   1
M  END
> <s_m_source_file>
AV-unprocessed.smi

> <i_m_source_file_index>
3160

> <i_lp_mmshare_version>
43012

> <i_f3d_flags>
0

> <s_epik_input>
W0NIM11jMVtjSF1ubihbY0hdMSlbQ0BIXShbQ0gzXSlbQ0BIXShbQ0gzXSlbTkhdW0NIXTJbQ0gyXVtDSDJdW0NIMl1bQ0gyXTI=

> <s_epik_cmdline>
J2VwaWtfcHl0aG9uJywgJy1waCcsICc3LjAnLCAnLXRuJywgJzgnLCAnLW1hJywgJzIwMCcsICctbWV0YWxfYmluZGluZycsICctaW1hZScsICc8aW5maWxlLm1hZT4nLCAnLW9tYWUnLCAnPG91dGZpbGUubWFlPic=

> <r_lp_tautomer_probability>
1

> <r_epik_Ionization_Penalty>
0.00117636

> <r_epik_Ionization_Penalty_Charging>
0.00115264

> <r_epik_Ionization_Penalty_Neutral>
2.37123e-05

> <r_epik_State_Penalty>
-0

> <r_epik_Charging_Adjusted_Penalty>
0.00115264

> <i_epik_Tot_Q>
1

> <i_epik_Tot_abs_Q>
1

> <r_epik_Metal_State_Penalty>
-0

> <b_epik_Metal_Only>
0

> <s_lp_Force_Field>
OPLS_2005

> <r_lp_Energy>
30.6135

> <b_lp_Chiralities_Consistent>
1

> <s_lp_Variant>
AV-unprocessed.smi:3160-3

> <Gold.Version>
5.8.1

> <Gold.Id.Protein>
6NUR|6NUR_protein|mol2

> <Gold.PLP.Fitness>
42.9965

> <Gold.PLP.PLP>
-39.0491

> <Gold.PLP.part.hbond>
0.0000

> <Gold.PLP.part.metal>
0.0000

> <Gold.PLP.part.buried>
-1.2995

> <Gold.PLP.part.nonpolar>
-37.2085

> <Gold.PLP.part.repulsive>
0.1722

> <Gold.PLP.ligand.clash>
0.0000

> <Gold.PLP.ligand.torsion>
0.6356

> <Gold.PLP.Chemscore.Hbond>
0.0000

> <Gold.PLP.Chemscore.CHOScore>
1.7091

> <Gold.PLP.Chemscore.Metal>
0.0000

> <Gold.Chemscore.Hbonds>
donor molecule, donor type, donor heavy atom, donor atom, acceptor molecule, acceptor atom, score
      L1  C     3    20       P1  7948  0.71
      L1  C    16    39       P1  8028  0.80

> <Gold.PLP.Chemscore.Internal.Correction>
0.0912

> <Gold.Rescore>
     Score         DG    S(hbond)    S(metal)    S(lipo)     H(rot)  DE(clash)    DE(int)     intcor
     14.23     -14.84       0.00        0.00     109.95       1.37       0.09       0.52       ----

> <Gold.Chemscore.Fitness>
14.2252

> <Gold.Chemscore.DG>
-14.8350

> <Gold.Chemscore.ZeroCoef>
-5.4800

> <Gold.Chemscore.Hbond>
0.0000

> <Gold.Chemscore.Metal>
0.0000

> <Gold.Chemscore.Lipo>
109.9532

> <Gold.Chemscore.Internal_Hbond>
0.0000

> <Gold.Chemscore.DEClash>
0.0946

> <Gold.Chemscore.DEInternal>
0.5152

> <Gold.Chemscore.Rot>
1.3709

> <Gold.Chemscore.Internal.Correction>
   9.000000E+99

> <Gold.Chemscore.Hbond.Weighted>
-0.0000

> <Gold.Chemscore.Metal.Weighted>
-0.0000

> <Gold.Chemscore.Lipo.Weighted>
-12.8645

> <Gold.Chemscore.Internal_Hbond.Weighted>
0.0000

> <Gold.Chemscore.DEClash.Weighted>
0.0946

> <Gold.Chemscore.DEInternal.Weighted>
0.5152

> <Gold.Chemscore.Rot.Weighted>
3.5095

> <Gold.Chemscore.Internal.Correction.Weighted>
   9.000000E+99

> <Gold.Protein.RotatedTorsions>
[ 6907 6896 6895 6894 ] final  -56.25 input  -60.11 | X-H torsion
[ 7974 7965 7964 7962 ] final  -99.58 input  175.53 | X-H torsion
[ 8008 7997 7996 7995 ] final  -81.60 input   59.86 | X-H torsion
[ 10167 10162 10161 10158 ] final  116.69 input  -65.29 | X-H torsion
[ 10718 10713 10712 10709 ] final -140.59 input   66.30 | X-H torsion
[ 10763 10752 10751 10750 ] final  -61.25 input  -60.55 | X-H torsion
[ 11005 11000 10999 10996 ] final -174.88 input  -57.11 | X-H torsion

> <Gold.Protein.ActiveResidues>
 VAL166  LYS551  ARG553  GLY616  TRP617  ASP618  TYR619  PRO620  LYS621  CYS622 
 ASP623  PHE694  ASN695  SER759  ASP760  ASP761  ALA762  ILE779  LEU786  VAL792 
 PHE793  MET794  SER795  GLU796  ALA797  LYS798  CYS799  TRP800  GLU811  SER814 

> <Gold.Protein.RotatedAtoms>
  150.8183  134.7377  159.6749 H   0  0  0  0  0  0  0  0  0  0  0  0  # atno 6907 bound_to 6896
  152.4300  134.5792  159.9953 H   0  0  0  0  0  0  0  0  0  0  0  0  # atno 6908 bound_to 6896
  151.5983  133.3322  159.3078 H   0  0  0  0  0  0  0  0  0  0  0  0  # atno 6909 bound_to 6896
  145.3057  140.9388  143.2798 H   0  0  0  0  0  0  0  0  0  0  0  0  # atno 7974 bound_to 7965
  154.6000  140.0645  156.9355 H   0  0  0  0  0  0  0  0  0  0  0  0  # atno 8008 bound_to 7997
  155.2149  140.3325  155.4305 H   0  0  0  0  0  0  0  0  0  0  0  0  # atno 8009 bound_to 7997
  156.2312  140.1841  156.7222 H   0  0  0  0  0  0  0  0  0  0  0  0  # atno 8010 bound_to 7997
  139.6230  144.7104  151.2594 H   0  0  0  0  0  0  0  0  0  0  0  0  # atno 10167 bound_to 10162
  156.3241  130.7550  151.1654 H   0  0  0  0  0  0  0  0  0  0  0  0  # atno 10718 bound_to 10713
  154.2818  135.6270  153.5350 H   0  0  0  0  0  0  0  0  0  0  0  0  # atno 10763 bound_to 10752
  152.9865  135.5635  154.5487 H   0  0  0  0  0  0  0  0  0  0  0  0  # atno 10764 bound_to 10752
  154.5079  135.2875  155.1342 H   0  0  0  0  0  0  0  0  0  0  0  0  # atno 10765 bound_to 10752
  140.4695  134.6178  157.4876 H   0  0  0  0  0  0  0  0  0  0  0  0  # atno 11005 bound_to 11000
  144.9057  139.4592  143.6611 LP  0  0  0  0  0  0  0  0  0  0  0  0  # atno 17320 bound_to 7965
  146.3136  139.7836  142.9001 LP  0  0  0  0  0  0  0  0  0  0  0  0  # atno 17321 bound_to 7965
  140.7393  143.6621  150.8155 LP  0  0  0  0  0  0  0  0  0  0  0  0  # atno 17342 bound_to 10162
  140.0234  143.5518  152.2791 LP  0  0  0  0  0  0  0  0  0  0  0  0  # atno 17343 bound_to 10162
  157.7418  131.0499  150.5073 LP  0  0  0  0  0  0  0  0  0  0  0  0  # atno 17370 bound_to 10713
  156.5230  130.4166  149.6241 LP  0  0  0  0  0  0  0  0  0  0  0  0  # atno 17371 bound_to 10713
  139.9894  134.7010  155.9717 LP  0  0  0  0  0  0  0  0  0  0  0  0  # atno 17394 bound_to 11000
  141.1583  133.6541  156.4235 LP  0  0  0  0  0  0  0  0  0  0  0  0  # atno 17395 bound_to 11000

$$$$
