AV-unprocessed.smi:247|AV-procd|sdf|1894|dock1
  -GOLD-   2262020563D 1   1.00000     0.00000
 Structure written by MMmdl.
 61 65  0  0  0  0  0  0  0  0  1 V2000
  152.6297  136.9041  165.6289 O   0  0  0  0  0  0  0  0  0  0  0  0
  152.6870  136.8761  164.2160 C   0  0  0  0  0  0  0  0  0  0  0  0
  154.0073  136.2715  163.6620 C   0  0  0  0  0  0  0  0  0  0  0  0
  153.9021  136.1909  162.1060 C   0  0  0  0  0  0  0  0  0  0  0  0
  153.7374  137.4704  161.4303 N   0  0  0  0  0  0  0  0  0  0  0  0
  154.5488  138.5767  161.5492 C   0  0  0  0  0  0  0  0  0  0  0  0
  154.1950  139.6075  160.8321 N   0  0  0  0  0  0  0  0  0  0  0  0
  153.0622  139.1764  160.1521 C   0  0  0  0  0  0  0  0  0  0  0  0
  152.1838  139.7796  159.2078 C   0  0  0  0  0  0  0  0  0  0  0  0
  152.3327  141.0625  158.7865 N   0  0  0  0  0  0  0  0  0  0  0  0
  153.2195  141.9058  159.5814 C   0  0  0  0  0  0  0  0  0  0  0  0
  152.5857  143.2998  159.6012 C   0  0  0  0  0  0  0  0  0  0  0  0
  151.6916  143.3070  158.3659 C   0  0  0  0  0  0  0  0  0  0  0  0
  151.1993  141.8550  158.3072 C   0  0  1  0  0  0  0  0  0  0  0  0
  150.6087  141.3878  156.9430 C   0  0  1  0  0  0  0  0  0  0  0  0
  151.7138  140.7513  156.0716 C   0  0  0  0  0  0  0  0  0  0  0  0
  151.2109  140.4041  154.7861 O   0  0  0  0  0  0  0  0  0  0  0  0
  150.1830  139.4228  154.8401 C   0  0  0  0  0  0  0  0  0  0  0  0
  148.9818  139.9827  155.6137 C   0  0  0  0  0  0  0  0  0  0  0  0
  149.4030  140.4170  157.0250 C   0  0  2  0  0  0  0  0  0  0  0  0
  148.2841  141.0246  157.6390 O   0  0  0  0  0  0  0  0  0  0  0  0
  151.1626  139.0186  158.7324 N   0  0  0  0  0  0  0  0  0  0  0  0
  151.0067  137.7588  159.1484 C   0  0  0  0  0  0  0  0  0  0  0  0
  151.7428  137.0724  160.0241 N   0  0  0  0  0  0  0  0  0  0  0  0
  152.7700  137.8289  160.5064 C   0  0  0  0  0  0  0  0  0  0  0  0
  155.2127  137.1335  164.1193 C   0  0  0  0  0  0  0  0  0  0  0  0
  156.5631  136.4661  163.8031 C   0  0  0  0  0  0  0  0  0  0  0  0
  156.6211  135.1822  164.4126 O   0  0  0  0  0  0  0  0  0  0  0  0
  155.6266  134.2883  163.9274 C   0  0  0  0  0  0  0  0  0  0  0  0
  154.2204  134.8430  164.2267 C   0  0  0  0  0  0  0  0  0  0  0  0
  151.7324  137.0443  165.8901 H   0  0  0  0  0  0  0  0  0  0  0  0
  151.8293  136.3069  163.8557 H   0  0  0  0  0  0  0  0  0  0  0  0
  152.5545  137.9010  163.8696 H   0  0  0  0  0  0  0  0  0  0  0  0
  154.7769  135.7098  161.6716 H   0  0  0  0  0  0  0  0  0  0  0  0
  153.0593  135.5566  161.8276 H   0  0  0  0  0  0  0  0  0  0  0  0
  155.4155  138.5974  162.1937 H   0  0  0  0  0  0  0  0  0  0  0  0
  153.3626  141.5260  160.5943 H   0  0  0  0  0  0  0  0  0  0  0  0
  154.1940  141.9394  159.0933 H   0  0  0  0  0  0  0  0  0  0  0  0
  151.9722  143.4110  160.4963 H   0  0  0  0  0  0  0  0  0  0  0  0
  153.3246  144.1014  159.5987 H   0  0  0  0  0  0  0  0  0  0  0  0
  150.8787  144.0296  158.4403 H   0  0  0  0  0  0  0  0  0  0  0  0
  152.2943  143.5631  157.4956 H   0  0  0  0  0  0  0  0  0  0  0  0
  150.4126  141.7625  159.0579 H   0  0  0  0  0  0  0  0  0  0  0  0
  150.2716  142.2728  156.4026 H   0  0  0  0  0  0  0  0  0  0  0  0
  152.5351  141.4554  155.9357 H   0  0  0  0  0  0  0  0  0  0  0  0
  152.1341  139.8658  156.5506 H   0  0  0  0  0  0  0  0  0  0  0  0
  149.8868  139.1657  153.8230 H   0  0  0  0  0  0  0  0  0  0  0  0
  150.5569  138.5091  155.3048 H   0  0  0  0  0  0  0  0  0  0  0  0
  148.5712  140.8336  155.0679 H   0  0  0  0  0  0  0  0  0  0  0  0
  148.1905  139.2338  155.6673 H   0  0  0  0  0  0  0  0  0  0  0  0
  149.6662  139.5265  157.5945 H   0  0  0  0  0  0  0  0  0  0  0  0
  148.5021  141.9233  157.8350 H   0  0  0  0  0  0  0  0  0  0  0  0
  150.1708  137.2252  158.7201 H   0  0  0  0  0  0  0  0  0  0  0  0
  155.1720  138.1321  163.6862 H   0  0  0  0  0  0  0  0  0  0  0  0
  155.1701  137.2852  165.1982 H   0  0  0  0  0  0  0  0  0  0  0  0
  156.7309  136.3827  162.7291 H   0  0  0  0  0  0  0  0  0  0  0  0
  157.3770  137.0740  164.1981 H   0  0  0  0  0  0  0  0  0  0  0  0
  155.7721  134.1045  162.8628 H   0  0  0  0  0  0  0  0  0  0  0  0
  155.7554  133.3269  164.4247 H   0  0  0  0  0  0  0  0  0  0  0  0
  154.0975  134.8435  165.3099 H   0  0  0  0  0  0  0  0  0  0  0  0
  153.4607  134.1626  163.8405 H   0  0  0  0  0  0  0  0  0  0  0  0
  1  2  1  0  0  0  0
  1 31  1  0  0  0  0
  2  3  1  0  0  0  0
  2 32  1  0  0  0  0
  2 33  1  0  0  0  0
  3 30  1  0  0  0  0
  3  4  1  0  0  0  0
  3 26  1  0  0  0  0
  4  5  1  0  0  0  0
  4 34  1  0  0  0  0
  4 35  1  0  0  0  0
  5 25  1  0  0  0  0
  5  6  1  0  0  0  0
  6  7  2  0  0  0  0
  6 36  1  0  0  0  0
  7  8  1  0  0  0  0
  8 25  2  0  0  0  0
  8  9  1  0  0  0  0
  9 10  1  0  0  0  0
  9 22  2  0  0  0  0
 10 14  1  0  0  0  0
 10 11  1  0  0  0  0
 11 12  1  0  0  0  0
 11 37  1  0  0  0  0
 11 38  1  0  0  0  0
 12 13  1  0  0  0  0
 12 39  1  0  0  0  0
 12 40  1  0  0  0  0
 13 14  1  0  0  0  0
 13 41  1  0  0  0  0
 13 42  1  0  0  0  0
 14 15  1  0  0  0  0
 14 43  1  0  0  0  0
 15 20  1  0  0  0  0
 15 16  1  0  0  0  0
 15 44  1  0  0  0  0
 16 17  1  0  0  0  0
 16 45  1  0  0  0  0
 16 46  1  0  0  0  0
 17 18  1  0  0  0  0
 18 19  1  0  0  0  0
 18 47  1  0  0  0  0
 18 48  1  0  0  0  0
 19 20  1  0  0  0  0
 19 49  1  0  0  0  0
 19 50  1  0  0  0  0
 20 21  1  0  0  0  0
 20 51  1  0  0  0  0
 21 52  1  0  0  0  0
 22 23  1  0  0  0  0
 23 24  2  0  0  0  0
 23 53  1  0  0  0  0
 24 25  1  0  0  0  0
 26 27  1  0  0  0  0
 26 54  1  0  0  0  0
 26 55  1  0  0  0  0
 27 28  1  0  0  0  0
 27 56  1  0  0  0  0
 27 57  1  0  0  0  0
 28 29  1  0  0  0  0
 29 30  1  0  0  0  0
 29 58  1  0  0  0  0
 29 59  1  0  0  0  0
 30 60  1  0  0  0  0
 30 61  1  0  0  0  0
M  END
> <s_m_source_file>
AV-unprocessed.smi

> <i_m_source_file_index>
247

> <i_lp_mmshare_version>
43012

> <i_f3d_flags>
0

> <s_epik_input>
W0NIMl0xW0NIMl1PW0NIMl1bQ0gyXUMxKFtDSDJdW09IXSlbQ0gyXW4oW2NIXW4yKWMoYzIzKW5bY0hdbmMzTjRbQ0gyXVtDSDJdW0NIMl1bQ0BIXTRbQ0BASF01W0NIMl1PW0NIMl1bQ0gyXVtDQEhdNVtPSF0=

> <s_epik_cmdline>
J2VwaWtfcHl0aG9uJywgJy1waCcsICc3LjAnLCAnLXRuJywgJzgnLCAnLW1hJywgJzIwMCcsICctbWV0YWxfYmluZGluZycsICctaW1hZScsICc8aW5maWxlLm1hZT4nLCAnLW9tYWUnLCAnPG91dGZpbGUubWFlPic=

> <r_lp_tautomer_probability>
1

> <r_epik_Ionization_Penalty>
0.00362597

> <r_epik_Ionization_Penalty_Charging>
0

> <r_epik_Ionization_Penalty_Neutral>
0.00362597

> <r_epik_State_Penalty>
0.00241433

> <r_epik_Charging_Adjusted_Penalty>
0.00241433

> <i_epik_Tot_Q>
0

> <i_epik_Tot_abs_Q>
0

> <r_epik_Metal_State_Penalty>
-0

> <b_epik_Metal_Only>
0

> <s_lp_Force_Field>
OPLS_2005

> <r_lp_Energy>
58.3113

> <b_lp_Chiralities_Consistent>
1

> <s_lp_Variant>
AV-unprocessed.smi:247-7

> <Gold.Version>
5.8.1

> <Gold.Id.Protein>
6NUR|6NUR_protein|mol2

> <Gold.PLP.Fitness>
49.9160

> <Gold.PLP.PLP>
-46.4793

> <Gold.PLP.part.hbond>
-4.9720

> <Gold.PLP.part.metal>
0.0000

> <Gold.PLP.part.buried>
-6.7216

> <Gold.PLP.part.nonpolar>
-33.5027

> <Gold.PLP.part.repulsive>
0.0683

> <Gold.PLP.ligand.clash>
0.0000

> <Gold.PLP.ligand.torsion>
1.4808

> <Gold.PLP.Chemscore.Hbond>
2.0000

> <Gold.PLP.Chemscore.CHOScore>
0.0000

> <Gold.PLP.Chemscore.Metal>
0.0000

> <Gold.Chemscore.Hbonds>
donor molecule, donor type, donor heavy atom, donor atom, acceptor molecule, acceptor atom, score
      P1  H  6896  6909       L1    24  1.00
      P1  H  7989  7998       L1    17  0.75

> <Gold.PLP.Chemscore.Internal.Correction>
0.3982

> <Gold.Rescore>
     Score         DG    S(hbond)    S(metal)    S(lipo)     H(rot)  DE(clash)    DE(int)     intcor
      8.98     -16.68       1.90        0.00     112.08       3.23       1.60       6.10       ----

> <Gold.Chemscore.Fitness>
8.9803

> <Gold.Chemscore.DG>
-16.6833

> <Gold.Chemscore.ZeroCoef>
-5.4800

> <Gold.Chemscore.Hbond>
1.9021

> <Gold.Chemscore.Metal>
0.0000

> <Gold.Chemscore.Lipo>
112.0826

> <Gold.Chemscore.Internal_Hbond>
0.0000

> <Gold.Chemscore.DEClash>
1.6011

> <Gold.Chemscore.DEInternal>
6.1019

> <Gold.Chemscore.Rot>
3.2278

> <Gold.Chemscore.Internal.Correction>
   9.000000E+99

> <Gold.Chemscore.Hbonds>
donor molecule, donor type, donor heavy atom, donor atom, acceptor molecule, acceptor atom, score
      P1  H  6896  6909       L1    24  0.97
      P1  H  7989  7998       L1    17  0.71

> <Gold.Chemscore.Hbond.Weighted>
-6.3529

> <Gold.Chemscore.Metal.Weighted>
-0.0000

> <Gold.Chemscore.Lipo.Weighted>
-13.1137

> <Gold.Chemscore.Internal_Hbond.Weighted>
0.0000

> <Gold.Chemscore.DEClash.Weighted>
1.6011

> <Gold.Chemscore.DEInternal.Weighted>
6.1019

> <Gold.Chemscore.Rot.Weighted>
8.2633

> <Gold.Chemscore.Internal.Correction.Weighted>
   9.000000E+99

> <Gold.Protein.RotatedTorsions>
[ 6907 6896 6895 6894 ] final  130.99 input  -60.11 | X-H torsion
[ 7974 7965 7964 7962 ] final -167.57 input  175.53 | X-H torsion
[ 8008 7997 7996 7995 ] final  -58.97 input   59.86 | X-H torsion
[ 10167 10162 10161 10158 ] final  -32.52 input  -65.29 | X-H torsion
[ 10718 10713 10712 10709 ] final   87.67 input   66.30 | X-H torsion
[ 10763 10752 10751 10750 ] final    7.09 input  -60.55 | X-H torsion
[ 11005 11000 10999 10996 ] final   24.65 input  -57.11 | X-H torsion

> <Gold.Protein.ActiveResidues>
 VAL166  LYS551  ARG553  GLY616  TRP617  ASP618  TYR619  PRO620  LYS621  CYS622 
 ASP623  PHE694  ASN695  SER759  ASP760  ASP761  ALA762  ILE779  LEU786  VAL792 
 PHE793  MET794  SER795  GLU796  ALA797  LYS798  CYS799  TRP800  GLU811  SER814 

> <Gold.Protein.RotatedAtoms>
  152.3471  133.6135  159.5917 H   0  0  0  0  0  0  0  0  0  0  0  0  # atno 6907 bound_to 6896
  150.7514  133.9633  159.3531 H   0  0  0  0  0  0  0  0  0  0  0  0  # atno 6908 bound_to 6896
  151.7489  135.0838  160.0379 H   0  0  0  0  0  0  0  0  0  0  0  0  # atno 6909 bound_to 6896
  144.7220  140.2499  143.6280 H   0  0  0  0  0  0  0  0  0  0  0  0  # atno 7974 bound_to 7965
  154.4332  140.1072  156.6041 H   0  0  0  0  0  0  0  0  0  0  0  0  # atno 8008 bound_to 7997
  155.5879  140.3491  155.4539 H   0  0  0  0  0  0  0  0  0  0  0  0  # atno 8009 bound_to 7997
  156.0269  140.1252  157.0289 H   0  0  0  0  0  0  0  0  0  0  0  0  # atno 8010 bound_to 7997
  140.7220  143.3688  151.1818 H   0  0  0  0  0  0  0  0  0  0  0  0  # atno 10167 bound_to 10162
  157.6942  131.0264  150.3158 H   0  0  0  0  0  0  0  0  0  0  0  0  # atno 10718 bound_to 10713
  153.2402  135.6902  153.7791 H   0  0  0  0  0  0  0  0  0  0  0  0  # atno 10763 bound_to 10752
  153.6924  135.3310  155.3206 H   0  0  0  0  0  0  0  0  0  0  0  0  # atno 10764 bound_to 10752
  154.8352  135.4548  154.1321 H   0  0  0  0  0  0  0  0  0  0  0  0  # atno 10765 bound_to 10752
  140.3564  134.2173  155.7675 H   0  0  0  0  0  0  0  0  0  0  0  0  # atno 11005 bound_to 11000
  145.8238  139.2055  143.1922 LP  0  0  0  0  0  0  0  0  0  0  0  0  # atno 17320 bound_to 7965
  146.0491  140.8088  142.9790 LP  0  0  0  0  0  0  0  0  0  0  0  0  # atno 17321 bound_to 7965
  139.7255  143.9155  152.3001 LP  0  0  0  0  0  0  0  0  0  0  0  0  # atno 17342 bound_to 10162
  139.8926  144.6957  150.8753 LP  0  0  0  0  0  0  0  0  0  0  0  0  # atno 17343 bound_to 10162
  156.3652  130.3854  149.7219 LP  0  0  0  0  0  0  0  0  0  0  0  0  # atno 17370 bound_to 10713
  156.4652  130.7970  151.2990 LP  0  0  0  0  0  0  0  0  0  0  0  0  # atno 17371 bound_to 10713
  141.1997  133.8005  157.0524 LP  0  0  0  0  0  0  0  0  0  0  0  0  # atno 17394 bound_to 11000
  140.0662  134.9728  157.1389 LP  0  0  0  0  0  0  0  0  0  0  0  0  # atno 17395 bound_to 11000

$$$$
