AV-unprocessed.smi:3316|AV-procd|sdf|12754|dock3
  -GOLD-   2272019 93D 1   1.00000     0.00000
 Structure written by MMmdl.
 41 43  0  0  0  0  0  0  0  0  2 V2000
  146.6975  146.3016  160.5795 C   0  0  0  0  0  0  0  0  0  0  0  0
  146.0970  145.0283  159.9631 C   0  0  1  0  0  0  0  0  0  0  0  0
  147.1389  143.8961  159.8777 C   0  0  0  0  0  0  0  0  0  0  0  0
  148.2930  144.2846  159.0417 N   0  3  0  0  0  0  0  0  0  0  0  0
  149.5301  144.5452  159.8020 C   0  0  0  0  0  0  0  0  0  0  0  0
  150.7711  144.4037  158.9010 C   0  0  2  0  0  0  0  0  0  0  0  0
  150.9799  142.9752  158.3072 C   0  0  0  0  0  0  0  0  0  0  0  0
  152.4339  142.6402  158.7117 C   0  0  2  0  0  0  0  0  0  0  0  0
  152.4618  142.4667  160.2147 C   0  0  0  0  0  0  0  0  0  0  0  0
  152.2787  143.6721  160.7560 C   0  0  0  0  0  0  0  0  0  0  0  0
  152.1236  144.6605  159.6171 C   0  0  1  0  0  0  0  0  0  0  0  0
  153.0727  144.0280  158.5920 C   0  0  0  0  0  0  0  0  0  0  0  0
  144.8417  144.5898  160.7086 C   0  0  0  0  0  0  0  0  0  0  0  0
  143.5705  144.7187  160.1098 C   0  0  0  0  0  0  0  0  0  0  0  0
  142.4384  144.2870  160.8299 C   0  0  0  0  0  0  0  0  0  0  0  0
  142.5069  143.7503  162.0667 N   0  0  0  0  0  0  0  0  0  0  0  0
  143.7244  143.6304  162.6367 C   0  0  0  0  0  0  0  0  0  0  0  0
  144.9177  144.0311  162.0032 C   0  0  0  0  0  0  0  0  0  0  0  0
  145.9680  147.1120  160.5910 H   0  0  0  0  0  0  0  0  0  0  0  0
  147.5600  146.6453  160.0078 H   0  0  0  0  0  0  0  0  0  0  0  0
  147.0271  146.1364  161.6055 H   0  0  0  0  0  0  0  0  0  0  0  0
  145.8038  145.2805  158.9428 H   0  0  0  0  0  0  0  0  0  0  0  0
  147.5001  143.6442  160.8757 H   0  0  0  0  0  0  0  0  0  0  0  0
  146.6837  142.9930  159.4684 H   0  0  0  0  0  0  0  0  0  0  0  0
  148.4761  143.5365  158.3880 H   0  0  0  0  0  0  0  0  0  0  0  0
  149.4843  145.5548  160.2121 H   0  0  0  0  0  0  0  0  0  0  0  0
  149.5846  143.8566  160.6461 H   0  0  0  0  0  0  0  0  0  0  0  0
  150.6837  145.1184  158.0806 H   0  0  0  0  0  0  0  0  0  0  0  0
  150.2754  142.2419  158.7032 H   0  0  0  0  0  0  0  0  0  0  0  0
  150.8678  142.9890  157.2224 H   0  0  0  0  0  0  0  0  0  0  0  0
  152.9231  141.8449  158.1488 H   0  0  0  0  0  0  0  0  0  0  0  0
  152.5765  141.5219  160.7249 H   0  0  0  0  0  0  0  0  0  0  0  0
  152.2108  143.9229  161.8043 H   0  0  0  0  0  0  0  0  0  0  0  0
  152.3442  145.6968  159.8750 H   0  0  0  0  0  0  0  0  0  0  0  0
  154.1171  144.0452  158.9107 H   0  0  0  0  0  0  0  0  0  0  0  0
  153.0030  144.4626  157.5928 H   0  0  0  0  0  0  0  0  0  0  0  0
  143.4571  145.1388  159.1211 H   0  0  0  0  0  0  0  0  0  0  0  0
  141.4517  144.3727  160.3993 H   0  0  0  0  0  0  0  0  0  0  0  0
  143.7496  143.1996  163.6267 H   0  0  0  0  0  0  0  0  0  0  0  0
  145.8659  143.9097  162.5058 H   0  0  0  0  0  0  0  0  0  0  0  0
  148.0511  145.1156  158.5209 H   0  0  0  0  0  0  0  0  0  0  0  0
  1  2  1  0  0  0  0
  1 19  1  0  0  0  0
  1 20  1  0  0  0  0
  1 21  1  0  0  0  0
  2  3  1  0  0  0  0
  2 13  1  0  0  0  0
  2 22  1  0  0  0  0
  3  4  1  0  0  0  0
  3 23  1  0  0  0  0
  3 24  1  0  0  0  0
  4  5  1  0  0  0  0
  4 25  1  0  0  0  0
  4 41  1  0  0  0  0
  5  6  1  0  0  0  0
  5 26  1  0  0  0  0
  5 27  1  0  0  0  0
  6 11  1  0  0  0  0
  6  7  1  0  0  0  0
  6 28  1  0  0  0  0
  7  8  1  0  0  0  0
  7 29  1  0  0  0  0
  7 30  1  0  0  0  0
  8 12  1  0  0  0  0
  8  9  1  0  0  0  0
  8 31  1  0  0  0  0
  9 10  2  0  0  0  0
  9 32  1  0  0  0  0
 10 11  1  0  0  0  0
 10 33  1  0  0  0  0
 11 12  1  0  0  0  0
 11 34  1  0  0  0  0
 12 35  1  0  0  0  0
 12 36  1  0  0  0  0
 13 18  1  0  0  0  0
 13 14  2  0  0  0  0
 14 15  1  0  0  0  0
 14 37  1  0  0  0  0
 15 16  2  0  0  0  0
 15 38  1  0  0  0  0
 16 17  1  0  0  0  0
 17 18  2  0  0  0  0
 17 39  1  0  0  0  0
 18 40  1  0  0  0  0
M  CHG  1   4   1
M  END
> <s_m_source_file>
AV-unprocessed.smi

> <i_m_source_file_index>
3316

> <i_lp_mmshare_version>
43012

> <i_f3d_flags>
0

> <s_epik_input>
W2NIXTFbY0hdbltjSF1bY0hdYzFbQ0BIXShbQ0gzXSlbQ0gyXVtOSF1bQ0gyXVtDQEhdKFtDSDJdW0NASF0yMylbQ0BIXShbQ0gyXTMpW0NIXT1bQ0hdMg==

> <s_epik_cmdline>
J2VwaWtfcHl0aG9uJywgJy1waCcsICc3LjAnLCAnLXRuJywgJzgnLCAnLW1hJywgJzIwMCcsICctbWV0YWxfYmluZGluZycsICctaW1hZScsICc8aW5maWxlLm1hZT4nLCAnLW9tYWUnLCAnPG91dGZpbGUubWFlPic=

> <r_lp_tautomer_probability>
1

> <r_epik_Ionization_Penalty>
0.00280406

> <r_epik_Ionization_Penalty_Charging>
0.000446589

> <r_epik_Ionization_Penalty_Neutral>
0.00235747

> <r_epik_State_Penalty>
-0

> <r_epik_Charging_Adjusted_Penalty>
0.000446589

> <i_epik_Tot_Q>
1

> <i_epik_Tot_abs_Q>
1

> <r_epik_Metal_State_Penalty>
-0

> <b_epik_Metal_Only>
0

> <s_lp_Force_Field>
OPLS_2005

> <r_lp_Energy>
65.6542

> <b_lp_Chiralities_Consistent>
1

> <s_lp_Variant>
AV-unprocessed.smi:3316-2

> <Gold.Version>
5.8.1

> <Gold.Id.Protein>
6NUR|6NUR_protein|mol2

> <Gold.PLP.Fitness>
48.4578

> <Gold.PLP.PLP>
-43.5430

> <Gold.PLP.part.hbond>
-1.7142

> <Gold.PLP.part.metal>
0.0000

> <Gold.PLP.part.buried>
-6.7043

> <Gold.PLP.part.nonpolar>
-36.0152

> <Gold.PLP.part.repulsive>
0.1760

> <Gold.PLP.ligand.clash>
0.0000

> <Gold.PLP.ligand.torsion>
0.6113

> <Gold.PLP.Chemscore.Hbond>
2.0000

> <Gold.PLP.Chemscore.CHOScore>
0.0000

> <Gold.PLP.Chemscore.Metal>
0.0000

> <Gold.Chemscore.Hbonds>
donor molecule, donor type, donor heavy atom, donor atom, acceptor molecule, acceptor atom, score
      L1  H     4    41       P1  8029  1.85

> <Gold.PLP.Chemscore.Internal.Correction>
0.1373

> <Gold.Rescore>
     Score         DG    S(hbond)    S(metal)    S(lipo)     H(rot)  DE(clash)    DE(int)     intcor
     20.13     -21.07       0.98        0.00     134.94       1.36       0.42       0.51       ----

> <Gold.Chemscore.Fitness>
20.1341

> <Gold.Chemscore.DG>
-21.0659

> <Gold.Chemscore.ZeroCoef>
-5.4800

> <Gold.Chemscore.Hbond>
0.9849

> <Gold.Chemscore.Metal>
0.0000

> <Gold.Chemscore.Lipo>
134.9422

> <Gold.Chemscore.Internal_Hbond>
0.0000

> <Gold.Chemscore.DEClash>
0.4197

> <Gold.Chemscore.DEInternal>
0.5121

> <Gold.Chemscore.Rot>
1.3640

> <Gold.Chemscore.Internal.Correction>
   9.000000E+99

> <Gold.Chemscore.Hbonds>
donor molecule, donor type, donor heavy atom, donor atom, acceptor molecule, acceptor atom, score
      L1  H     4    41       P1  8029  0.87

> <Gold.Chemscore.Hbond.Weighted>
-3.2896

> <Gold.Chemscore.Metal.Weighted>
-0.0000

> <Gold.Chemscore.Lipo.Weighted>
-15.7882

> <Gold.Chemscore.Internal_Hbond.Weighted>
0.0000

> <Gold.Chemscore.DEClash.Weighted>
0.4197

> <Gold.Chemscore.DEInternal.Weighted>
0.5121

> <Gold.Chemscore.Rot.Weighted>
3.4919

> <Gold.Chemscore.Internal.Correction.Weighted>
   9.000000E+99

> <Gold.Protein.RotatedTorsions>
[ 6907 6896 6895 6894 ] final  156.14 input  -60.11 | X-H torsion
[ 7974 7965 7964 7962 ] final  149.39 input  175.53 | X-H torsion
[ 8008 7997 7996 7995 ] final  -92.15 input   59.86 | X-H torsion
[ 10167 10162 10161 10158 ] final -169.93 input  -65.29 | X-H torsion
[ 10718 10713 10712 10709 ] final -145.51 input   66.30 | X-H torsion
[ 10763 10752 10751 10750 ] final   -5.67 input  -60.55 | X-H torsion
[ 11005 11000 10999 10996 ] final   69.97 input  -57.11 | X-H torsion

> <Gold.Protein.ActiveResidues>
 VAL166  LYS551  ARG553  GLY616  TRP617  ASP618  TYR619  PRO620  LYS621  CYS622 
 ASP623  PHE694  ASN695  SER759  ASP760  ASP761  ALA762  ILE779  LEU786  VAL792 
 PHE793  MET794  SER795  GLU796  ALA797  LYS798  CYS799  TRP800  GLU811  SER814 

> <Gold.Protein.RotatedAtoms>
  152.0340  133.3949  159.4308 H   0  0  0  0  0  0  0  0  0  0  0  0  # atno 6907 bound_to 6896
  150.6880  134.3489  159.4910 H   0  0  0  0  0  0  0  0  0  0  0  0  # atno 6908 bound_to 6896
  152.1279  134.9156  160.0611 H   0  0  0  0  0  0  0  0  0  0  0  0  # atno 6909 bound_to 6896
  144.8442  139.6274  143.6003 H   0  0  0  0  0  0  0  0  0  0  0  0  # atno 7974 bound_to 7965
  154.7195  140.0512  157.0626 H   0  0  0  0  0  0  0  0  0  0  0  0  # atno 8008 bound_to 7997
  155.0446  140.3172  155.4693 H   0  0  0  0  0  0  0  0  0  0  0  0  # atno 8009 bound_to 7997
  156.2812  140.2126  156.5570 H   0  0  0  0  0  0  0  0  0  0  0  0  # atno 8010 bound_to 7997
  139.5893  144.1249  152.1614 H   0  0  0  0  0  0  0  0  0  0  0  0  # atno 10167 bound_to 10162
  156.3834  130.7848  151.2043 H   0  0  0  0  0  0  0  0  0  0  0  0  # atno 10718 bound_to 10713
  153.4017  135.7005  153.6421 H   0  0  0  0  0  0  0  0  0  0  0  0  # atno 10763 bound_to 10752
  153.4952  135.3664  155.2512 H   0  0  0  0  0  0  0  0  0  0  0  0  # atno 10764 bound_to 10752
  154.8711  135.4098  154.3353 H   0  0  0  0  0  0  0  0  0  0  0  0  # atno 10765 bound_to 10752
  139.9624  134.7038  156.0618 H   0  0  0  0  0  0  0  0  0  0  0  0  # atno 11005 bound_to 11000
  146.2729  139.6680  142.9283 LP  0  0  0  0  0  0  0  0  0  0  0  0  # atno 17320 bound_to 7965
  145.4632  141.0433  143.2740 LP  0  0  0  0  0  0  0  0  0  0  0  0  # atno 17321 bound_to 7965
  140.0820  144.5693  150.7115 LP  0  0  0  0  0  0  0  0  0  0  0  0  # atno 17342 bound_to 10162
  140.7159  143.2544  151.4436 LP  0  0  0  0  0  0  0  0  0  0  0  0  # atno 17343 bound_to 10162
  157.7494  131.0337  150.4285 LP  0  0  0  0  0  0  0  0  0  0  0  0  # atno 17370 bound_to 10713
  156.4533  130.4016  149.6622 LP  0  0  0  0  0  0  0  0  0  0  0  0  # atno 17371 bound_to 10713
  141.1302  133.6588  156.3443 LP  0  0  0  0  0  0  0  0  0  0  0  0  # atno 17394 bound_to 11000
  140.5471  134.6064  157.5397 LP  0  0  0  0  0  0  0  0  0  0  0  0  # atno 17395 bound_to 11000

$$$$
