AV-unprocessed.smi:2083|AV-procd|sdf|8510|dock6
  -GOLD-   2272011223D 1   1.00000     0.00000
 Structure written by MMmdl.
 44 45  0  0  0  0  0  0  0  0  3 V2000
  147.4484  135.2535  162.6039 C   0  0  0  0  0  0  0  0  0  0  0  0
  147.8711  135.6983  161.2461 C   0  0  0  0  0  0  0  0  0  0  0  0
  148.1220  135.0267  160.0829 C   0  0  0  0  0  0  0  0  0  0  0  0
  148.4776  136.0659  159.1821 C   0  0  0  0  0  0  0  0  0  0  0  0
  148.8149  135.7715  157.8345 N   0  0  0  0  0  0  0  0  0  0  0  0
  149.2353  134.6075  157.3057 C   0  0  0  0  0  0  0  0  0  0  0  0
  149.3578  133.6052  158.0199 O   0  0  0  0  0  0  0  0  0  0  0  0
  149.4820  134.7084  155.9709 N   0  5  0  0  0  0  0  0  0  0  0  0
  148.4631  134.9884  154.9606 C   0  0  0  0  0  0  0  0  0  0  0  0
  148.1447  133.7111  154.1397 C   0  0  2  0  0  0  0  0  0  0  0  0
  149.3916  132.8868  153.7295 C   0  0  0  0  0  0  0  0  0  0  0  0
  147.2605  134.0435  152.9788 N   0  3  1  0  0  0  0  0  0  0  0  0
  147.0486  132.9562  151.9781 C   0  0  0  0  0  0  0  0  0  0  0  0
  146.3539  133.5004  150.7210 C   0  0  0  0  0  0  0  0  0  0  0  0
  145.0240  134.1785  151.0808 C   0  0  0  0  0  0  0  0  0  0  0  0
  145.2176  135.2519  152.1683 C   0  0  2  0  0  0  0  0  0  0  0  0
  145.8872  136.5291  151.6302 C   0  0  0  0  0  0  0  0  0  0  0  0
  145.9714  134.6691  153.3821 C   0  0  0  0  0  0  0  0  0  0  0  0
  148.4470  137.2639  159.7469 N   0  0  0  0  0  0  0  0  0  0  0  0
  148.0581  137.0345  161.0719 O   0  0  0  0  0  0  0  0  0  0  0  0
  147.4228  134.1655  162.6675 H   0  0  0  0  0  0  0  0  0  0  0  0
  146.4530  135.6295  162.8398 H   0  0  0  0  0  0  0  0  0  0  0  0
  148.1387  135.6205  163.3636 H   0  0  0  0  0  0  0  0  0  0  0  0
  148.0596  133.9634  159.9056 H   0  0  0  0  0  0  0  0  0  0  0  0
  148.7352  136.5420  157.1879 H   0  0  0  0  0  0  0  0  0  0  0  0
  147.5389  135.3370  155.4244 H   0  0  0  0  0  0  0  0  0  0  0  0
  148.7688  135.7848  154.2809 H   0  0  0  0  0  0  0  0  0  0  0  0
  147.5606  133.0761  154.8079 H   0  0  0  0  0  0  0  0  0  0  0  0
  149.9379  132.5176  154.5991 H   0  0  0  0  0  0  0  0  0  0  0  0
  150.0972  133.4583  153.1240 H   0  0  0  0  0  0  0  0  0  0  0  0
  149.1022  132.0084  153.1522 H   0  0  0  0  0  0  0  0  0  0  0  0
  147.9996  132.5070  151.6902 H   0  0  0  0  0  0  0  0  0  0  0  0
  146.4415  132.1611  152.4129 H   0  0  0  0  0  0  0  0  0  0  0  0
  147.0110  134.2071  150.2133 H   0  0  0  0  0  0  0  0  0  0  0  0
  146.1754  132.6886  150.0153 H   0  0  0  0  0  0  0  0  0  0  0  0
  144.5661  134.6118  150.1909 H   0  0  0  0  0  0  0  0  0  0  0  0
  144.3274  133.4219  151.4444 H   0  0  0  0  0  0  0  0  0  0  0  0
  144.2258  135.5481  152.5118 H   0  0  0  0  0  0  0  0  0  0  0  0
  146.9048  136.3428  151.2866 H   0  0  0  0  0  0  0  0  0  0  0  0
  145.9377  137.2981  152.4015 H   0  0  0  0  0  0  0  0  0  0  0  0
  145.3252  136.9436  150.7929 H   0  0  0  0  0  0  0  0  0  0  0  0
  145.3535  133.9221  153.8825 H   0  0  0  0  0  0  0  0  0  0  0  0
  146.1455  135.4654  154.1070 H   0  0  0  0  0  0  0  0  0  0  0  0
  147.7605  134.7733  152.4909 H   0  0  0  0  0  0  0  0  0  0  0  0
  1  2  1  0  0  0  0
  1 21  1  0  0  0  0
  1 22  1  0  0  0  0
  1 23  1  0  0  0  0
  2 20  1  0  0  0  0
  2  3  2  0  0  0  0
  3  4  1  0  0  0  0
  3 24  1  0  0  0  0
  4  5  1  0  0  0  0
  4 19  2  0  0  0  0
  5  6  1  0  0  0  0
  5 25  1  0  0  0  0
  6  7  2  0  0  0  0
  6  8  1  0  0  0  0
  8  9  1  0  0  0  0
  9 10  1  0  0  0  0
  9 26  1  0  0  0  0
  9 27  1  0  0  0  0
 10 11  1  0  0  0  0
 10 12  1  0  0  0  0
 10 28  1  0  0  0  0
 11 29  1  0  0  0  0
 11 30  1  0  0  0  0
 11 31  1  0  0  0  0
 12 18  1  0  0  0  0
 12 13  1  0  0  0  0
 12 44  1  0  0  0  0
 13 14  1  0  0  0  0
 13 32  1  0  0  0  0
 13 33  1  0  0  0  0
 14 15  1  0  0  0  0
 14 34  1  0  0  0  0
 14 35  1  0  0  0  0
 15 16  1  0  0  0  0
 15 36  1  0  0  0  0
 15 37  1  0  0  0  0
 16 17  1  0  0  0  0
 16 18  1  0  0  0  0
 16 38  1  0  0  0  0
 17 39  1  0  0  0  0
 17 40  1  0  0  0  0
 17 41  1  0  0  0  0
 18 42  1  0  0  0  0
 18 43  1  0  0  0  0
 19 20  1  0  0  0  0
M  CHG  1   8  -1
M  CHG  1  12   1
M  END
> <s_m_source_file>
AV-unprocessed.smi

> <i_m_source_file_index>
2083

> <i_lp_mmshare_version>
43012

> <i_f3d_flags>
0

> <s_epik_input>
W0NIM11jMVtjSF1jKG5vMSlbTkhdQyg9TylbTkhdW0NIMl1bQ0BIXShbQ0gzXSlOMltDSDJdW0NIMl1bQ0gyXVtDQEBIXShbQ0gzXSlbQ0gyXTI=

> <s_epik_cmdline>
J2VwaWtfcHl0aG9uJywgJy1waCcsICc3LjAnLCAnLXRuJywgJzgnLCAnLW1hJywgJzIwMCcsICctbWV0YWxfYmluZGluZycsICctaW1hZScsICc8aW5maWxlLm1hZT4nLCAnLW9tYWUnLCAnPG91dGZpbGUubWFlPic=

> <r_epik_Ionization_Penalty>
6.76934

> <r_epik_Ionization_Penalty_Charging>
6.76934

> <r_epik_Ionization_Penalty_Neutral>
5.77849e-06

> <r_epik_State_Penalty>
6.79457

> <r_epik_Charging_Adjusted_Penalty>
13.5639

> <i_epik_Tot_Q>
0

> <i_epik_Tot_abs_Q>
2

> <r_epik_Metal_State_Penalty>
2.72837

> <b_epik_Metal_Only>
1

> <s_lp_Force_Field>
OPLS_2005

> <r_lp_Energy>
20.9735

> <b_lp_Chiralities_Consistent>
1

> <s_lp_Variant>
AV-unprocessed.smi:2083-21

> <Gold.Version>
5.8.1

> <Gold.Id.Protein>
6NUR|6NUR_protein|mol2

> <Gold.PLP.Fitness>
43.9386

> <Gold.PLP.PLP>
-33.5599

> <Gold.PLP.part.hbond>
-6.0000

> <Gold.PLP.part.metal>
0.0000

> <Gold.PLP.part.buried>
-3.5641

> <Gold.PLP.part.nonpolar>
-24.3469

> <Gold.PLP.part.repulsive>
0.0894

> <Gold.PLP.ligand.clash>
0.0000

> <Gold.PLP.ligand.torsion>
1.0001

> <Gold.PLP.Chemscore.Hbond>
4.0728

> <Gold.PLP.Chemscore.CHOScore>
0.0000

> <Gold.PLP.Chemscore.Metal>
0.0000

> <Gold.Chemscore.Hbonds>
donor molecule, donor type, donor heavy atom, donor atom, acceptor molecule, acceptor atom, score
      L1  H    12    44       P1  7948  2.00
      P1  H  6896  6909       L1     7  1.00
      P1  H  6931  6943       L1    20  1.00
      P1  H  6934  6947       L1    20  0.10

> <Gold.PLP.Chemscore.Internal.Correction>
0.1605

> <Gold.Rescore>
     Score         DG    S(hbond)    S(metal)    S(lipo)     H(rot)  DE(clash)    DE(int)     intcor
     15.96     -18.44       2.64        0.00      68.49       1.52       0.09       2.39       ----

> <Gold.Chemscore.Fitness>
15.9574

> <Gold.Chemscore.DG>
-18.4354

> <Gold.Chemscore.ZeroCoef>
-5.4800

> <Gold.Chemscore.Hbond>
2.6438

> <Gold.Chemscore.Metal>
0.0000

> <Gold.Chemscore.Lipo>
68.4936

> <Gold.Chemscore.Internal_Hbond>
0.0000

> <Gold.Chemscore.DEClash>
0.0925

> <Gold.Chemscore.DEInternal>
2.3854

> <Gold.Chemscore.Rot>
1.5190

> <Gold.Chemscore.Internal.Correction>
   9.000000E+99

> <Gold.Chemscore.Hbonds>
donor molecule, donor type, donor heavy atom, donor atom, acceptor molecule, acceptor atom, score
      L1  H    12    44       P1  7948  0.84
      P1  H  6896  6909       L1     7  0.87
      P1  H  6931  6943       L1    20  0.25

> <Gold.Chemscore.Hbond.Weighted>
-8.8303

> <Gold.Chemscore.Metal.Weighted>
-0.0000

> <Gold.Chemscore.Lipo.Weighted>
-8.0138

> <Gold.Chemscore.Internal_Hbond.Weighted>
0.0000

> <Gold.Chemscore.DEClash.Weighted>
0.0925

> <Gold.Chemscore.DEInternal.Weighted>
2.3854

> <Gold.Chemscore.Rot.Weighted>
3.8886

> <Gold.Chemscore.Internal.Correction.Weighted>
   9.000000E+99

> <Gold.Protein.RotatedTorsions>
[ 6907 6896 6895 6894 ] final   -7.25 input  -60.11 | X-H torsion
[ 7974 7965 7964 7962 ] final  160.21 input  175.53 | X-H torsion
[ 8008 7997 7996 7995 ] final  151.73 input   59.86 | X-H torsion
[ 10167 10162 10161 10158 ] final  -27.86 input  -65.29 | X-H torsion
[ 10718 10713 10712 10709 ] final  161.98 input   66.30 | X-H torsion
[ 10763 10752 10751 10750 ] final -148.92 input  -60.55 | X-H torsion
[ 11005 11000 10999 10996 ] final -101.70 input  -57.11 | X-H torsion

> <Gold.Protein.ActiveResidues>
 VAL166  LYS551  ARG553  GLY616  TRP617  ASP618  TYR619  PRO620  LYS621  CYS622 
 ASP623  PHE694  ASN695  SER759  ASP760  ASP761  ALA762  ILE779  LEU786  VAL792 
 PHE793  MET794  SER795  GLU796  ALA797  LYS798  CYS799  TRP800  GLU811  SER814 

> <Gold.Protein.RotatedAtoms>
  151.4525  135.1031  159.9701 H   0  0  0  0  0  0  0  0  0  0  0  0  # atno 6907 bound_to 6896
  152.4883  133.8427  159.7171 H   0  0  0  0  0  0  0  0  0  0  0  0  # atno 6908 bound_to 6896
  150.9012  133.7056  159.2905 H   0  0  0  0  0  0  0  0  0  0  0  0  # atno 6909 bound_to 6896
  144.7749  139.7725  143.6282 H   0  0  0  0  0  0  0  0  0  0  0  0  # atno 7974 bound_to 7965
  156.2661  140.2040  156.6222 H   0  0  0  0  0  0  0  0  0  0  0  0  # atno 8008 bound_to 7997
  154.6748  140.0546  157.0228 H   0  0  0  0  0  0  0  0  0  0  0  0  # atno 8009 bound_to 7997
  155.1085  140.3213  155.4531 H   0  0  0  0  0  0  0  0  0  0  0  0  # atno 8010 bound_to 7997
  140.7274  143.4058  151.1188 H   0  0  0  0  0  0  0  0  0  0  0  0  # atno 10167 bound_to 10162
  157.1290  131.0511  151.2380 H   0  0  0  0  0  0  0  0  0  0  0  0  # atno 10718 bound_to 10713
  154.8206  135.3322  154.7049 H   0  0  0  0  0  0  0  0  0  0  0  0  # atno 10763 bound_to 10752
  153.7683  135.6927  153.4916 H   0  0  0  0  0  0  0  0  0  0  0  0  # atno 10764 bound_to 10752
  153.2062  135.4498  155.0275 H   0  0  0  0  0  0  0  0  0  0  0  0  # atno 10765 bound_to 10752
  141.1220  133.8499  157.1266 H   0  0  0  0  0  0  0  0  0  0  0  0  # atno 11005 bound_to 11000
  146.1921  139.5168  142.9798 LP  0  0  0  0  0  0  0  0  0  0  0  0  # atno 17320 bound_to 7965
  145.6215  141.0321  143.1912 LP  0  0  0  0  0  0  0  0  0  0  0  0  # atno 17321 bound_to 7965
  139.7684  143.8530  152.3115 LP  0  0  0  0  0  0  0  0  0  0  0  0  # atno 17342 bound_to 10162
  139.8440  144.7196  150.9295 LP  0  0  0  0  0  0  0  0  0  0  0  0  # atno 17343 bound_to 10162
  157.4409  130.7544  149.7069 LP  0  0  0  0  0  0  0  0  0  0  0  0  # atno 17370 bound_to 10713
  155.9812  130.4022  150.3485 LP  0  0  0  0  0  0  0  0  0  0  0  0  # atno 17371 bound_to 10713
  140.0185  134.9957  157.0542 LP  0  0  0  0  0  0  0  0  0  0  0  0  # atno 17394 bound_to 11000
  140.4480  134.1612  155.7179 LP  0  0  0  0  0  0  0  0  0  0  0  0  # atno 17395 bound_to 11000

$$$$
