AV-unprocessed.smi:546|AV-procd|sdf|2884|dock4
  -GOLD-   2262023373D 1   1.00000     0.00000
 Structure written by MMmdl.
 52 54  0  0  0  0  0  0  0  0  1 V2000
  153.4547  137.6607  160.7363 C   0  0  0  0  0  0  0  0  0  0  0  0
  152.4549  137.5549  159.5829 C   0  0  0  0  0  0  0  0  0  0  0  0
  152.7733  138.5425  158.6194 O   0  0  0  0  0  0  0  0  0  0  0  0
  151.9911  138.4428  157.4417 C   0  0  0  0  0  0  0  0  0  0  0  0
  152.2186  139.6744  156.5526 C   0  0  0  0  0  0  0  0  0  0  0  0
  150.9628  140.3277  156.2025 N   0  0  0  0  0  0  0  0  0  0  0  0
  150.4144  141.4329  156.7677 C   0  0  0  0  0  0  0  0  0  0  0  0
  151.0236  142.0726  157.8431 N   0  0  0  0  0  0  0  0  0  0  0  0
  151.5696  141.3140  158.9660 C   0  0  0  0  0  0  0  0  0  0  0  0
  152.8221  141.9709  159.5722 C   0  0  2  0  0  0  0  0  0  0  0  0
  153.3931  141.1290  160.7214 C   0  0  0  0  0  0  0  0  0  0  0  0
  152.4825  143.3966  160.0347 C   0  0  0  0  0  0  0  0  0  0  0  0
  151.8448  144.2103  158.8959 C   0  0  1  0  0  0  0  0  0  0  0  0
  152.8793  144.6914  157.8656 C   0  0  0  0  0  0  0  0  0  0  0  0
  150.6714  143.4307  158.2594 C   0  0  0  0  0  0  0  0  0  0  0  0
  149.2549  141.8233  156.2321 N   0  0  0  0  0  0  0  0  0  0  0  0
  149.0445  140.8789  155.2381 C   0  0  0  0  0  0  0  0  0  0  0  0
  150.0519  139.9702  155.2076 C   0  0  0  0  0  0  0  0  0  0  0  0
  150.0760  138.8543  154.2529 C   0  0  0  0  0  0  0  0  0  0  0  0
  150.9706  138.0127  154.2125 O   0  0  0  0  0  0  0  0  0  0  0  0
  149.0064  138.8458  153.4206 N   0  0  0  0  0  0  0  0  0  0  0  0
  147.9623  139.7298  153.3961 C   0  0  0  0  0  0  0  0  0  0  0  0
  147.0611  139.5854  152.5708 O   0  0  0  0  0  0  0  0  0  0  0  0
  147.9726  140.7532  154.3117 N   0  0  0  0  0  0  0  0  0  0  0  0
  146.9012  141.7494  154.3729 C   0  0  0  0  0  0  0  0  0  0  0  0
  148.9757  138.1000  152.7410 H   0  0  0  0  0  0  0  0  0  0  0  0
  153.2428  136.9177  161.5053 H   0  0  0  0  0  0  0  0  0  0  0  0
  153.4122  138.6463  161.2009 H   0  0  0  0  0  0  0  0  0  0  0  0
  154.4744  137.4999  160.3855 H   0  0  0  0  0  0  0  0  0  0  0  0
  152.5027  136.5617  159.1344 H   0  0  0  0  0  0  0  0  0  0  0  0
  151.4401  137.7031  159.9552 H   0  0  0  0  0  0  0  0  0  0  0  0
  152.2497  137.5350  156.8952 H   0  0  0  0  0  0  0  0  0  0  0  0
  150.9383  138.3750  157.7143 H   0  0  0  0  0  0  0  0  0  0  0  0
  152.8710  140.3906  157.0498 H   0  0  0  0  0  0  0  0  0  0  0  0
  152.7405  139.3898  155.6392 H   0  0  0  0  0  0  0  0  0  0  0  0
  150.7949  141.2007  159.7256 H   0  0  0  0  0  0  0  0  0  0  0  0
  151.8150  140.3080  158.6232 H   0  0  0  0  0  0  0  0  0  0  0  0
  153.5876  142.0261  158.7973 H   0  0  0  0  0  0  0  0  0  0  0  0
  152.6736  141.0270  161.5344 H   0  0  0  0  0  0  0  0  0  0  0  0
  154.2959  141.5836  161.1299 H   0  0  0  0  0  0  0  0  0  0  0  0
  153.6542  140.1268  160.3804 H   0  0  0  0  0  0  0  0  0  0  0  0
  151.7825  143.3461  160.8701 H   0  0  0  0  0  0  0  0  0  0  0  0
  153.3727  143.9008  160.4124 H   0  0  0  0  0  0  0  0  0  0  0  0
  151.4255  145.1131  159.3415 H   0  0  0  0  0  0  0  0  0  0  0  0
  153.3456  143.8615  157.3366 H   0  0  0  0  0  0  0  0  0  0  0  0
  153.6739  145.2612  158.3475 H   0  0  0  0  0  0  0  0  0  0  0  0
  152.4173  145.3439  157.1248 H   0  0  0  0  0  0  0  0  0  0  0  0
  150.2819  143.9809  157.4020 H   0  0  0  0  0  0  0  0  0  0  0  0
  149.8503  143.3616  158.9741 H   0  0  0  0  0  0  0  0  0  0  0  0
  146.0954  141.5809  153.6579 H   0  0  0  0  0  0  0  0  0  0  0  0
  147.3070  142.7432  154.1812 H   0  0  0  0  0  0  0  0  0  0  0  0
  146.4558  141.7560  155.3682 H   0  0  0  0  0  0  0  0  0  0  0  0
  1  2  1  0  0  0  0
  1 27  1  0  0  0  0
  1 28  1  0  0  0  0
  1 29  1  0  0  0  0
  2  3  1  0  0  0  0
  2 30  1  0  0  0  0
  2 31  1  0  0  0  0
  3  4  1  0  0  0  0
  4  5  1  0  0  0  0
  4 32  1  0  0  0  0
  4 33  1  0  0  0  0
  5  6  1  0  0  0  0
  5 34  1  0  0  0  0
  5 35  1  0  0  0  0
  6 18  1  0  0  0  0
  6  7  1  0  0  0  0
  7  8  1  0  0  0  0
  7 16  2  0  0  0  0
  8 15  1  0  0  0  0
  8  9  1  0  0  0  0
  9 10  1  0  0  0  0
  9 36  1  0  0  0  0
  9 37  1  0  0  0  0
 10 11  1  0  0  0  0
 10 12  1  0  0  0  0
 10 38  1  0  0  0  0
 11 39  1  0  0  0  0
 11 40  1  0  0  0  0
 11 41  1  0  0  0  0
 12 13  1  0  0  0  0
 12 42  1  0  0  0  0
 12 43  1  0  0  0  0
 13 14  1  0  0  0  0
 13 15  1  0  0  0  0
 13 44  1  0  0  0  0
 14 45  1  0  0  0  0
 14 46  1  0  0  0  0
 14 47  1  0  0  0  0
 15 48  1  0  0  0  0
 15 49  1  0  0  0  0
 16 17  1  0  0  0  0
 17 24  1  0  0  0  0
 17 18  2  0  0  0  0
 18 19  1  0  0  0  0
 19 20  2  0  0  0  0
 19 21  1  0  0  0  0
 21 26  1  0  0  0  0
 21 22  1  0  0  0  0
 22 23  2  0  0  0  0
 22 24  1  0  0  0  0
 24 25  1  0  0  0  0
 25 50  1  0  0  0  0
 25 51  1  0  0  0  0
 25 52  1  0  0  0  0
M  END
> <s_m_source_file>
AV-unprocessed.smi

> <i_m_source_file_index>
546

> <i_lp_mmshare_version>
43012

> <i_f3d_flags>
0

> <s_epik_input>
W0NIM11uMWMoPU8pW25IXWMoPU8pYyhjMTIpbihbQ0gyXVtDSDJdT1tDSDJdW0NIM10pYyhuMilOM1tDSDJdW0NAQEhdKFtDSDNdKVtDSDJdW0NAQEhdKFtDSDNdKVtDSDJdMw==

> <s_epik_cmdline>
J2VwaWtfcHl0aG9uJywgJy1waCcsICc3LjAnLCAnLXRuJywgJzgnLCAnLW1hJywgJzIwMCcsICctbWV0YWxfYmluZGluZycsICctaW1hZScsICc8aW5maWxlLm1hZT4nLCAnLW9tYWUnLCAnPG91dGZpbGUubWFlPic=

> <r_lp_tautomer_probability>
1

> <r_epik_Ionization_Penalty>
0.000576472

> <r_epik_Ionization_Penalty_Charging>
0.000118943

> <r_epik_Ionization_Penalty_Neutral>
0.000457529

> <r_epik_State_Penalty>
-0

> <r_epik_Charging_Adjusted_Penalty>
0.000118943

> <i_epik_Tot_Q>
0

> <i_epik_Tot_abs_Q>
0

> <r_epik_Metal_State_Penalty>
0.0916165

> <b_epik_Metal_Only>
0

> <s_lp_Force_Field>
OPLS_2005

> <r_lp_Energy>
41.9283

> <b_lp_Chiralities_Consistent>
1

> <s_lp_Variant>
AV-unprocessed.smi:546-2

> <Gold.Version>
5.8.1

> <Gold.Id.Protein>
6NUR|6NUR_protein|mol2

> <Gold.PLP.Fitness>
51.0473

> <Gold.PLP.PLP>
-49.7557

> <Gold.PLP.part.hbond>
-2.0000

> <Gold.PLP.part.metal>
0.0000

> <Gold.PLP.part.buried>
-5.6427

> <Gold.PLP.part.nonpolar>
-45.8953

> <Gold.PLP.part.repulsive>
2.7250

> <Gold.PLP.ligand.clash>
0.3664

> <Gold.PLP.ligand.torsion>
1.1250

> <Gold.PLP.Chemscore.Hbond>
1.0000

> <Gold.PLP.Chemscore.CHOScore>
0.0000

> <Gold.PLP.Chemscore.Metal>
0.0000

> <Gold.Chemscore.Hbonds>
donor molecule, donor type, donor heavy atom, donor atom, acceptor molecule, acceptor atom, score
      L1  H    21    26       P1  7948  0.99

> <Gold.PLP.Chemscore.Internal.Correction>
0.9080

> <Gold.Rescore>
     Score         DG    S(hbond)    S(metal)    S(lipo)     H(rot)  DE(clash)    DE(int)     intcor
     15.15     -17.87       0.99        0.00     111.40       1.55       0.61       2.12       ----

> <Gold.Chemscore.Fitness>
15.1526

> <Gold.Chemscore.DG>
-17.8739

> <Gold.Chemscore.ZeroCoef>
-5.4800

> <Gold.Chemscore.Hbond>
0.9937

> <Gold.Chemscore.Metal>
0.0000

> <Gold.Chemscore.Lipo>
111.4008

> <Gold.Chemscore.Internal_Hbond>
0.0000

> <Gold.Chemscore.DEClash>
0.6055

> <Gold.Chemscore.DEInternal>
2.1157

> <Gold.Chemscore.Rot>
1.5465

> <Gold.Chemscore.Internal.Correction>
   9.000000E+99

> <Gold.Chemscore.Hbonds>
donor molecule, donor type, donor heavy atom, donor atom, acceptor molecule, acceptor atom, score
      L1  H    21    26       P1  7948  0.92

> <Gold.Chemscore.Hbond.Weighted>
-3.3191

> <Gold.Chemscore.Metal.Weighted>
-0.0000

> <Gold.Chemscore.Lipo.Weighted>
-13.0339

> <Gold.Chemscore.Internal_Hbond.Weighted>
0.0000

> <Gold.Chemscore.DEClash.Weighted>
0.6055

> <Gold.Chemscore.DEInternal.Weighted>
2.1157

> <Gold.Chemscore.Rot.Weighted>
3.9591

> <Gold.Chemscore.Internal.Correction.Weighted>
   9.000000E+99

> <Gold.Protein.RotatedTorsions>
[ 6907 6896 6895 6894 ] final  157.55 input  -60.11 | X-H torsion
[ 7974 7965 7964 7962 ] final   81.18 input  175.53 | X-H torsion
[ 8008 7997 7996 7995 ] final  129.01 input   59.86 | X-H torsion
[ 10167 10162 10161 10158 ] final   45.04 input  -65.29 | X-H torsion
[ 10718 10713 10712 10709 ] final  -60.30 input   66.30 | X-H torsion
[ 10763 10752 10751 10750 ] final  118.92 input  -60.55 | X-H torsion
[ 11005 11000 10999 10996 ] final  122.54 input  -57.11 | X-H torsion

> <Gold.Protein.ActiveResidues>
 VAL166  LYS551  ARG553  GLY616  TRP617  ASP618  TYR619  PRO620  LYS621  CYS622 
 ASP623  PHE694  ASN695  SER759  ASP760  ASP761  ALA762  ILE779  LEU786  VAL792 
 PHE793  MET794  SER795  GLU796  ALA797  LYS798  CYS799  TRP800  GLU811  SER814 

> <Gold.Protein.RotatedAtoms>
  152.0134  133.3870  159.4228 H   0  0  0  0  0  0  0  0  0  0  0  0  # atno 6907 bound_to 6896
  150.6897  134.3705  159.4999 H   0  0  0  0  0  0  0  0  0  0  0  0  # atno 6908 bound_to 6896
  152.1469  134.9018  160.0601 H   0  0  0  0  0  0  0  0  0  0  0  0  # atno 6909 bound_to 6896
  145.6415  139.2426  143.2028 H   0  0  0  0  0  0  0  0  0  0  0  0  # atno 7974 bound_to 7965
  156.2927  140.2631  156.2528 H   0  0  0  0  0  0  0  0  0  0  0  0  # atno 8008 bound_to 7997
  154.9865  140.0389  157.2319 H   0  0  0  0  0  0  0  0  0  0  0  0  # atno 8009 bound_to 7997
  154.7724  140.2780  155.6132 H   0  0  0  0  0  0  0  0  0  0  0  0  # atno 8010 bound_to 7997
  140.3282  144.2621  150.6172 H   0  0  0  0  0  0  0  0  0  0  0  0  # atno 10167 bound_to 10162
  156.1000  130.4187  150.0835 H   0  0  0  0  0  0  0  0  0  0  0  0  # atno 10718 bound_to 10713
  153.5751  135.3495  155.2853 H   0  0  0  0  0  0  0  0  0  0  0  0  # atno 10763 bound_to 10752
  154.8676  135.4168  154.2683 H   0  0  0  0  0  0  0  0  0  0  0  0  # atno 10764 bound_to 10752
  153.3457  135.7052  153.6900 H   0  0  0  0  0  0  0  0  0  0  0  0  # atno 10765 bound_to 10752
  139.9273  134.9641  156.8125 H   0  0  0  0  0  0  0  0  0  0  0  0  # atno 11005 bound_to 11000
  146.1277  140.7227  142.9427 LP  0  0  0  0  0  0  0  0  0  0  0  0  # atno 17320 bound_to 7965
  144.7156  140.4196  143.7047 LP  0  0  0  0  0  0  0  0  0  0  0  0  # atno 17321 bound_to 7965
  140.5421  143.2221  151.8067 LP  0  0  0  0  0  0  0  0  0  0  0  0  # atno 17342 bound_to 10162
  139.4861  144.4586  151.9568 LP  0  0  0  0  0  0  0  0  0  0  0  0  # atno 17343 bound_to 10162
  156.8825  130.9561  151.3598 LP  0  0  0  0  0  0  0  0  0  0  0  0  # atno 17370 bound_to 10713
  157.6168  130.8625  149.9042 LP  0  0  0  0  0  0  0  0  0  0  0  0  # atno 17371 bound_to 10713
  140.6300  133.9914  155.7657 LP  0  0  0  0  0  0  0  0  0  0  0  0  # atno 17394 bound_to 11000
  141.0839  134.0020  157.3344 LP  0  0  0  0  0  0  0  0  0  0  0  0  # atno 17395 bound_to 11000

$$$$
