AV-unprocessed.smi:148|AV-procd|sdf|1209|dock2
  -GOLD-   2262018383D 1   1.00000     0.00000
 Structure written by MMmdl.
 63 67  0  0  0  0  0  0  0  0  1 V2000
  150.6472  133.0656  157.6703 O   0  0  0  0  0  0  0  0  0  0  0  0
  151.0717  133.7787  156.5277 C   0  0  0  0  0  0  0  0  0  0  0  0
  149.9915  133.7306  155.4213 C   0  0  1  0  0  0  0  0  0  0  0  0
  150.1010  134.9752  154.5049 C   0  0  0  0  0  0  0  0  0  0  0  0
  150.0832  136.2307  155.2341 N   0  0  0  0  0  0  0  0  0  0  0  0
  149.0987  136.6770  156.0878 C   0  0  0  0  0  0  0  0  0  0  0  0
  149.3205  137.8423  156.6323 N   0  0  0  0  0  0  0  0  0  0  0  0
  150.5465  138.2285  156.1068 C   0  0  0  0  0  0  0  0  0  0  0  0
  151.3698  139.3732  156.2639 C   0  0  0  0  0  0  0  0  0  0  0  0
  151.0215  140.3944  157.0759 N   0  0  0  0  0  0  0  0  0  0  0  0
  152.2024  140.9285  157.7573 C   0  0  0  0  0  0  0  0  0  0  0  0
  151.8076  141.8560  158.9102 C   0  0  0  0  0  0  0  0  0  0  0  0
  150.9019  142.9731  158.3893 C   0  0  0  0  0  0  0  0  0  0  0  0
  149.6844  142.3708  157.6750 C   0  0  0  0  0  0  0  0  0  0  0  0
  150.0792  141.3946  156.5333 C   0  0  2  0  0  0  0  0  0  0  0  0
  148.7992  140.7673  155.8760 C   0  0  1  0  0  0  0  0  0  0  0  0
  147.6176  141.7350  155.6766 C   0  0  0  0  0  0  0  0  0  0  0  0
  146.6764  141.0643  154.6696 C   0  0  0  0  0  0  0  0  0  0  0  0
  147.5084  139.9933  153.9552 C   0  0  0  0  0  0  0  0  0  0  0  0
  148.9456  140.1638  154.4592 C   0  0  1  0  0  0  0  0  0  0  0  0
  149.6301  141.0484  153.5916 O   0  0  0  0  0  0  0  0  0  0  0  0
  152.5396  139.4200  155.5730 N   0  0  0  0  0  0  0  0  0  0  0  0
  152.8758  138.4085  154.7664 C   0  0  0  0  0  0  0  0  0  0  0  0
  152.2062  137.2801  154.5178 N   0  0  0  0  0  0  0  0  0  0  0  0
  151.0368  137.2324  155.2187 C   0  0  0  0  0  0  0  0  0  0  0  0
  149.9805  132.3969  154.6221 C   0  0  2  0  0  0  0  0  0  0  0  0
  148.8942  132.2759  153.5515 C   0  0  0  0  0  0  0  0  0  0  0  0
  148.2311  130.9299  153.8423 C   0  0  0  0  0  0  0  0  0  0  0  0
  149.2217  130.2056  154.5532 O   0  0  0  0  0  0  0  0  0  0  0  0
  149.8177  131.1202  155.4576 C   0  0  0  0  0  0  0  0  0  0  0  0
  150.1662  132.3025  157.3885 H   0  0  0  0  0  0  0  0  0  0  0  0
  151.2938  134.8054  156.8187 H   0  0  0  0  0  0  0  0  0  0  0  0
  152.0090  133.3348  156.1960 H   0  0  0  0  0  0  0  0  0  0  0  0
  149.0225  133.7825  155.9203 H   0  0  0  0  0  0  0  0  0  0  0  0
  151.0233  134.9425  153.9241 H   0  0  0  0  0  0  0  0  0  0  0  0
  149.2831  134.9848  153.7834 H   0  0  0  0  0  0  0  0  0  0  0  0
  148.2090  136.1035  156.3033 H   0  0  0  0  0  0  0  0  0  0  0  0
  152.8129  140.1104  158.1437 H   0  0  0  0  0  0  0  0  0  0  0  0
  152.8191  141.4760  157.0428 H   0  0  0  0  0  0  0  0  0  0  0  0
  151.2891  141.2861  159.6823 H   0  0  0  0  0  0  0  0  0  0  0  0
  152.6988  142.2781  159.3752 H   0  0  0  0  0  0  0  0  0  0  0  0
  150.5786  143.6098  159.2131 H   0  0  0  0  0  0  0  0  0  0  0  0
  151.4577  143.6092  157.6994 H   0  0  0  0  0  0  0  0  0  0  0  0
  149.0637  141.8477  158.4040 H   0  0  0  0  0  0  0  0  0  0  0  0
  149.0838  143.1948  157.2913 H   0  0  0  0  0  0  0  0  0  0  0  0
  150.6142  141.9777  155.7831 H   0  0  0  0  0  0  0  0  0  0  0  0
  148.4402  139.9767  156.5378 H   0  0  0  0  0  0  0  0  0  0  0  0
  147.1039  141.9665  156.6103 H   0  0  0  0  0  0  0  0  0  0  0  0
  147.9762  142.6760  155.2563 H   0  0  0  0  0  0  0  0  0  0  0  0
  145.8316  140.6012  155.1809 H   0  0  0  0  0  0  0  0  0  0  0  0
  146.2735  141.7948  153.9677 H   0  0  0  0  0  0  0  0  0  0  0  0
  147.1409  139.0073  154.2428 H   0  0  0  0  0  0  0  0  0  0  0  0
  147.4301  140.0568  152.8691 H   0  0  0  0  0  0  0  0  0  0  0  0
  149.4549  139.2026  154.4485 H   0  0  0  0  0  0  0  0  0  0  0  0
  149.8364  140.5858  152.7939 H   0  0  0  0  0  0  0  0  0  0  0  0
  153.8146  138.5202  154.2443 H   0  0  0  0  0  0  0  0  0  0  0  0
  150.9233  132.3052  154.0821 H   0  0  0  0  0  0  0  0  0  0  0  0
  148.1705  133.0904  153.5544 H   0  0  0  0  0  0  0  0  0  0  0  0
  149.3539  132.2624  152.5622 H   0  0  0  0  0  0  0  0  0  0  0  0
  147.3542  131.0617  154.4780 H   0  0  0  0  0  0  0  0  0  0  0  0
  147.9214  130.4083  152.9365 H   0  0  0  0  0  0  0  0  0  0  0  0
  150.7678  130.7438  155.8369 H   0  0  0  0  0  0  0  0  0  0  0  0
  149.1468  131.2605  156.3049 H   0  0  0  0  0  0  0  0  0  0  0  0
  1  2  1  0  0  0  0
  1 31  1  0  0  0  0
  2  3  1  0  0  0  0
  2 32  1  0  0  0  0
  2 33  1  0  0  0  0
  3  4  1  0  0  0  0
  3 26  1  0  0  0  0
  3 34  1  0  0  0  0
  4  5  1  0  0  0  0
  4 35  1  0  0  0  0
  4 36  1  0  0  0  0
  5 25  1  0  0  0  0
  5  6  1  0  0  0  0
  6  7  2  0  0  0  0
  6 37  1  0  0  0  0
  7  8  1  0  0  0  0
  8 25  2  0  0  0  0
  8  9  1  0  0  0  0
  9 10  1  0  0  0  0
  9 22  2  0  0  0  0
 10 15  1  0  0  0  0
 10 11  1  0  0  0  0
 11 12  1  0  0  0  0
 11 38  1  0  0  0  0
 11 39  1  0  0  0  0
 12 13  1  0  0  0  0
 12 40  1  0  0  0  0
 12 41  1  0  0  0  0
 13 14  1  0  0  0  0
 13 42  1  0  0  0  0
 13 43  1  0  0  0  0
 14 15  1  0  0  0  0
 14 44  1  0  0  0  0
 14 45  1  0  0  0  0
 15 16  1  0  0  0  0
 15 46  1  0  0  0  0
 16 20  1  0  0  0  0
 16 17  1  0  0  0  0
 16 47  1  0  0  0  0
 17 18  1  0  0  0  0
 17 48  1  0  0  0  0
 17 49  1  0  0  0  0
 18 19  1  0  0  0  0
 18 50  1  0  0  0  0
 18 51  1  0  0  0  0
 19 20  1  0  0  0  0
 19 52  1  0  0  0  0
 19 53  1  0  0  0  0
 20 21  1  0  0  0  0
 20 54  1  0  0  0  0
 21 55  1  0  0  0  0
 22 23  1  0  0  0  0
 23 24  2  0  0  0  0
 23 56  1  0  0  0  0
 24 25  1  0  0  0  0
 26 30  1  0  0  0  0
 26 27  1  0  0  0  0
 26 57  1  0  0  0  0
 27 28  1  0  0  0  0
 27 58  1  0  0  0  0
 27 59  1  0  0  0  0
 28 29  1  0  0  0  0
 28 60  1  0  0  0  0
 28 61  1  0  0  0  0
 29 30  1  0  0  0  0
 30 62  1  0  0  0  0
 30 63  1  0  0  0  0
M  END
> <s_m_source_file>
AV-unprocessed.smi

> <i_m_source_file_index>
148

> <i_lp_mmshare_version>
43012

> <i_f3d_flags>
0

> <s_epik_input>
W0NIMl0xT1tDSDJdW0NIMl1bQ0BIXTFbQ0BIXShbQ0gyXVtPSF0pW0NIMl1uKFtjSF1uMiljKGMyMyluW2NIXW5jM040W0NIMl1bQ0gyXVtDSDJdW0NIMl1bQ0BIXTRbQ0BASF01W0NIMl1bQ0gyXVtDSDJdW0NASF01W09IXQ==

> <s_epik_cmdline>
J2VwaWtfcHl0aG9uJywgJy1waCcsICc3LjAnLCAnLXRuJywgJzgnLCAnLW1hJywgJzIwMCcsICctbWV0YWxfYmluZGluZycsICctaW1hZScsICc8aW5maWxlLm1hZT4nLCAnLW9tYWUnLCAnPG91dGZpbGUubWFlPic=

> <r_lp_tautomer_probability>
1

> <r_epik_Ionization_Penalty>
0.00556303

> <r_epik_Ionization_Penalty_Charging>
0

> <r_epik_Ionization_Penalty_Neutral>
0.00556303

> <r_epik_State_Penalty>
0.00401767

> <r_epik_Charging_Adjusted_Penalty>
0.00401767

> <i_epik_Tot_Q>
0

> <i_epik_Tot_abs_Q>
0

> <r_epik_Metal_State_Penalty>
-0

> <b_epik_Metal_Only>
0

> <s_lp_Force_Field>
OPLS_2005

> <r_lp_Energy>
71.0858

> <b_lp_Chiralities_Consistent>
1

> <s_lp_Variant>
AV-unprocessed.smi:148-8

> <Gold.Version>
5.8.1

> <Gold.Id.Protein>
6NUR|6NUR_protein|mol2

> <Gold.PLP.Fitness>
54.5805

> <Gold.PLP.PLP>
-44.8493

> <Gold.PLP.part.hbond>
-5.8534

> <Gold.PLP.part.metal>
0.0000

> <Gold.PLP.part.buried>
-3.9007

> <Gold.PLP.part.nonpolar>
-34.2696

> <Gold.PLP.part.repulsive>
0.1793

> <Gold.PLP.ligand.clash>
0.0000

> <Gold.PLP.ligand.torsion>
1.2380

> <Gold.PLP.Chemscore.Hbond>
3.7910

> <Gold.PLP.Chemscore.CHOScore>
0.0000

> <Gold.PLP.Chemscore.Metal>
0.0000

> <Gold.Chemscore.Hbonds>
donor molecule, donor type, donor heavy atom, donor atom, acceptor molecule, acceptor atom, score
      L1  H    21    55       P1  7957  1.00
      P1  H  6896  6908       L1     1  1.00
      P1  H  7997  8008       L1    22  0.96
      P1  H 10752 10764       L1    24  0.82

> <Gold.PLP.Chemscore.Internal.Correction>
0.8342

> <Gold.Rescore>
     Score         DG    S(hbond)    S(metal)    S(lipo)     H(rot)  DE(clash)    DE(int)     intcor
     15.44     -19.07       3.03        0.00     102.20       3.32       0.24       3.40       ----

> <Gold.Chemscore.Fitness>
15.4364

> <Gold.Chemscore.DG>
-19.0736

> <Gold.Chemscore.ZeroCoef>
-5.4800

> <Gold.Chemscore.Hbond>
3.0346

> <Gold.Chemscore.Metal>
0.0000

> <Gold.Chemscore.Lipo>
102.2042

> <Gold.Chemscore.Internal_Hbond>
0.0000

> <Gold.Chemscore.DEClash>
0.2356

> <Gold.Chemscore.DEInternal>
3.4016

> <Gold.Chemscore.Rot>
3.3203

> <Gold.Chemscore.Internal.Correction>
   9.000000E+99

> <Gold.Chemscore.Hbonds>
donor molecule, donor type, donor heavy atom, donor atom, acceptor molecule, acceptor atom, score
      L1  H    21    55       P1  7957  0.99
      P1  H  6896  6908       L1     1  0.95
      P1  H  7997  8008       L1    22  0.36
      P1  H 10752 10764       L1    24  0.68

> <Gold.Chemscore.Hbond.Weighted>
-10.1357

> <Gold.Chemscore.Metal.Weighted>
-0.0000

> <Gold.Chemscore.Lipo.Weighted>
-11.9579

> <Gold.Chemscore.Internal_Hbond.Weighted>
0.0000

> <Gold.Chemscore.DEClash.Weighted>
0.2356

> <Gold.Chemscore.DEInternal.Weighted>
3.4016

> <Gold.Chemscore.Rot.Weighted>
8.5000

> <Gold.Chemscore.Internal.Correction.Weighted>
   9.000000E+99

> <Gold.Protein.RotatedTorsions>
[ 6907 6896 6895 6894 ] final  108.05 input  -60.11 | X-H torsion
[ 7974 7965 7964 7962 ] final  -67.20 input  175.53 | X-H torsion
[ 8008 7997 7996 7995 ] final  -34.55 input   59.86 | X-H torsion
[ 10167 10162 10161 10158 ] final  171.84 input  -65.29 | X-H torsion
[ 10718 10713 10712 10709 ] final   -3.59 input   66.30 | X-H torsion
[ 10763 10752 10751 10750 ] final  -77.82 input  -60.55 | X-H torsion
[ 11005 11000 10999 10996 ] final   34.28 input  -57.11 | X-H torsion

> <Gold.Protein.ActiveResidues>
 VAL166  LYS551  ARG553  GLY616  TRP617  ASP618  TYR619  PRO620  LYS621  CYS622 
 ASP623  PHE694  ASN695  SER759  ASP760  ASP761  ALA762  ILE779  LEU786  VAL792 
 PHE793  MET794  SER795  GLU796  ALA797  LYS798  CYS799  TRP800  GLU811  SER814 

> <Gold.Protein.RotatedAtoms>
  152.5128  133.9145  159.7503 H   0  0  0  0  0  0  0  0  0  0  0  0  # atno 6907 bound_to 6896
  150.9531  133.6519  159.2775 H   0  0  0  0  0  0  0  0  0  0  0  0  # atno 6908 bound_to 6896
  151.3791  135.0941  159.9543 H   0  0  0  0  0  0  0  0  0  0  0  0  # atno 6909 bound_to 6896
  145.7322  140.8992  143.0574 H   0  0  0  0  0  0  0  0  0  0  0  0  # atno 7974 bound_to 7965
  154.4118  140.1681  156.2068 H   0  0  0  0  0  0  0  0  0  0  0  0  # atno 8008 bound_to 7997
  155.9478  140.3403  155.6358 H   0  0  0  0  0  0  0  0  0  0  0  0  # atno 8009 bound_to 7997
  155.6908  140.0733  157.2439 H   0  0  0  0  0  0  0  0  0  0  0  0  # atno 8010 bound_to 7997
  139.5058  144.3440  151.9989 H   0  0  0  0  0  0  0  0  0  0  0  0  # atno 10167 bound_to 10162
  156.7737  130.5308  149.5763 H   0  0  0  0  0  0  0  0  0  0  0  0  # atno 10718 bound_to 10713
  154.5179  135.5751  153.6657 H   0  0  0  0  0  0  0  0  0  0  0  0  # atno 10763 bound_to 10752
  152.9911  135.6174  154.2793 H   0  0  0  0  0  0  0  0  0  0  0  0  # atno 10764 bound_to 10752
  154.2712  135.2853  155.2717 H   0  0  0  0  0  0  0  0  0  0  0  0  # atno 10765 bound_to 10752
  140.2545  134.3264  155.7879 H   0  0  0  0  0  0  0  0  0  0  0  0  # atno 11005 bound_to 11000
  144.6890  139.9346  143.7473 LP  0  0  0  0  0  0  0  0  0  0  0  0  # atno 17320 bound_to 7965
  146.0527  139.3527  143.0629 LP  0  0  0  0  0  0  0  0  0  0  0  0  # atno 17321 bound_to 7965
  140.2878  144.3788  150.6098 LP  0  0  0  0  0  0  0  0  0  0  0  0  # atno 17342 bound_to 10162
  140.5970  143.2167  151.7146 LP  0  0  0  0  0  0  0  0  0  0  0  0  # atno 17343 bound_to 10162
  156.1261  130.6145  151.0266 LP  0  0  0  0  0  0  0  0  0  0  0  0  # atno 17370 bound_to 10713
  157.6679  131.0868  150.7684 LP  0  0  0  0  0  0  0  0  0  0  0  0  # atno 17371 bound_to 10713
  141.2197  133.7373  156.9089 LP  0  0  0  0  0  0  0  0  0  0  0  0  # atno 17394 bound_to 11000
  140.1525  134.9220  157.2611 LP  0  0  0  0  0  0  0  0  0  0  0  0  # atno 17395 bound_to 11000

$$$$
