AV-unprocessed.smi:907|AV-procd|sdf|4108|dock8
  -GOLD-   22720 2 03D 1   1.00000     0.00000
 Structure written by MMmdl.
 53 56  0  0  0  0  0  0  0  0  2 V2000
  152.5620  139.8968  156.0505 O   0  0  0  0  0  0  0  0  0  0  0  0
  151.4581  139.9676  155.5093 C   0  0  0  0  0  0  0  0  0  0  0  0
  150.6151  140.9869  155.7394 N   0  0  0  0  0  0  0  0  0  0  0  0
  150.9002  142.1184  156.6108 C   0  0  0  0  0  0  0  0  0  0  0  0
  150.7020  141.7282  158.0821 C   0  0  0  0  0  0  0  0  0  0  0  0
  151.2067  142.7959  159.0342 C   0  0  0  0  0  0  0  0  0  0  0  0
  150.9767  144.1632  158.7716 C   0  0  0  0  0  0  0  0  0  0  0  0
  151.4605  145.1133  159.6916 C   0  0  0  0  0  0  0  0  0  0  0  0
  152.1513  144.6621  160.8327 C   0  0  0  0  0  0  0  0  0  0  0  0
  152.3287  143.2747  161.0038 C   0  0  0  0  0  0  0  0  0  0  0  0
  151.8691  142.3554  160.1277 N   0  0  0  0  0  0  0  0  0  0  0  0
  150.9851  139.0193  154.6617 N   0  0  0  0  0  0  0  0  0  0  0  0
  151.7417  137.8952  154.0973 C   0  0  0  0  0  0  0  0  0  0  0  0
  151.2952  136.6013  154.7988 C   0  0  0  0  0  0  0  0  0  0  0  0
  149.8233  136.3765  154.6802 N   0  3  0  0  0  0  0  0  0  0  0  0
  149.4024  135.1132  155.3610 C   0  0  2  0  0  0  0  0  0  0  0  0
  150.4879  134.0089  155.2492 C   0  0  0  0  0  0  0  0  0  0  0  0
  149.7300  132.8111  154.6544 C   0  0  1  0  0  0  0  0  0  0  0  0
  148.7513  132.2513  155.6996 C   0  0  0  0  0  0  0  0  0  0  0  0
  147.6607  133.3351  155.7466 C   0  0  0  0  0  0  0  0  0  0  0  0
  148.1729  134.3882  154.7432 C   0  0  2  0  0  0  0  0  0  0  0  0
  148.7962  133.5029  153.6704 C   0  0  0  0  0  0  0  0  0  0  0  0
  149.0404  137.5845  155.0772 C   0  0  0  0  0  0  0  0  0  0  0  0
  149.5564  138.8615  154.3867 C   0  0  0  0  0  0  0  0  0  0  0  0
  149.7171  140.9787  155.2783 H   0  0  0  0  0  0  0  0  0  0  0  0
  151.9260  142.4506  156.4441 H   0  0  0  0  0  0  0  0  0  0  0  0
  150.2440  142.9518  156.3540 H   0  0  0  0  0  0  0  0  0  0  0  0
  149.6442  141.5498  158.2822 H   0  0  0  0  0  0  0  0  0  0  0  0
  151.2162  140.7891  158.2916 H   0  0  0  0  0  0  0  0  0  0  0  0
  150.4408  144.4786  157.8884 H   0  0  0  0  0  0  0  0  0  0  0  0
  151.3033  146.1689  159.5258 H   0  0  0  0  0  0  0  0  0  0  0  0
  152.5355  145.3619  161.5598 H   0  0  0  0  0  0  0  0  0  0  0  0
  152.8527  142.8933  161.8676 H   0  0  0  0  0  0  0  0  0  0  0  0
  151.5396  137.8279  153.0272 H   0  0  0  0  0  0  0  0  0  0  0  0
  152.8232  138.0027  154.1798 H   0  0  0  0  0  0  0  0  0  0  0  0
  151.8501  135.7653  154.3750 H   0  0  0  0  0  0  0  0  0  0  0  0
  151.5664  136.6493  155.8548 H   0  0  0  0  0  0  0  0  0  0  0  0
  149.1976  135.3484  156.4070 H   0  0  0  0  0  0  0  0  0  0  0  0
  151.2885  134.2910  154.5642 H   0  0  0  0  0  0  0  0  0  0  0  0
  150.9444  133.7766  156.2121 H   0  0  0  0  0  0  0  0  0  0  0  0
  150.3826  132.0550  154.2168 H   0  0  0  0  0  0  0  0  0  0  0  0
  148.3328  131.2990  155.3714 H   0  0  0  0  0  0  0  0  0  0  0  0
  149.2262  132.0934  156.6686 H   0  0  0  0  0  0  0  0  0  0  0  0
  146.7040  132.9249  155.4205 H   0  0  0  0  0  0  0  0  0  0  0  0
  147.5209  133.7435  156.7483 H   0  0  0  0  0  0  0  0  0  0  0  0
  147.3593  135.0225  154.3992 H   0  0  0  0  0  0  0  0  0  0  0  0
  149.3197  134.0648  152.8948 H   0  0  0  0  0  0  0  0  0  0  0  0
  148.0826  132.8232  153.2009 H   0  0  0  0  0  0  0  0  0  0  0  0
  147.9940  137.4744  154.8016 H   0  0  0  0  0  0  0  0  0  0  0  0
  149.0808  137.7034  156.1613 H   0  0  0  0  0  0  0  0  0  0  0  0
  148.9668  139.7218  154.7076 H   0  0  0  0  0  0  0  0  0  0  0  0
  149.4048  138.7899  153.3087 H   0  0  0  0  0  0  0  0  0  0  0  0
  149.6357  136.2436  153.6966 H   0  0  0  0  0  0  0  0  0  0  0  0
  1  2  2  0  0  0  0
  2  3  1  0  0  0  0
  2 12  1  0  0  0  0
  3  4  1  0  0  0  0
  3 25  1  0  0  0  0
  4  5  1  0  0  0  0
  4 26  1  0  0  0  0
  4 27  1  0  0  0  0
  5  6  1  0  0  0  0
  5 28  1  0  0  0  0
  5 29  1  0  0  0  0
  6 11  1  0  0  0  0
  6  7  2  0  0  0  0
  7  8  1  0  0  0  0
  7 30  1  0  0  0  0
  8  9  2  0  0  0  0
  8 31  1  0  0  0  0
  9 10  1  0  0  0  0
  9 32  1  0  0  0  0
 10 11  2  0  0  0  0
 10 33  1  0  0  0  0
 12 24  1  0  0  0  0
 12 13  1  0  0  0  0
 13 14  1  0  0  0  0
 13 34  1  0  0  0  0
 13 35  1  0  0  0  0
 14 15  1  0  0  0  0
 14 36  1  0  0  0  0
 14 37  1  0  0  0  0
 15 16  1  0  0  0  0
 15 23  1  0  0  0  0
 15 53  1  0  0  0  0
 16 21  1  0  0  0  0
 16 17  1  0  0  0  0
 16 38  1  0  0  0  0
 17 18  1  0  0  0  0
 17 39  1  0  0  0  0
 17 40  1  0  0  0  0
 18 22  1  0  0  0  0
 18 19  1  0  0  0  0
 18 41  1  0  0  0  0
 19 20  1  0  0  0  0
 19 42  1  0  0  0  0
 19 43  1  0  0  0  0
 20 21  1  0  0  0  0
 20 44  1  0  0  0  0
 20 45  1  0  0  0  0
 21 22  1  0  0  0  0
 21 46  1  0  0  0  0
 22 47  1  0  0  0  0
 22 48  1  0  0  0  0
 23 24  1  0  0  0  0
 23 49  1  0  0  0  0
 23 50  1  0  0  0  0
 24 51  1  0  0  0  0
 24 52  1  0  0  0  0
M  CHG  1  15   1
M  END
> <s_m_source_file>
AV-unprocessed.smi

> <i_m_source_file_index>
907

> <i_lp_mmshare_version>
43012

> <i_f3d_flags>
0

> <s_epik_input>
W0NIMl0xW0NIMl1bQ0BASF0oW0NIMl0yKVtDQEBIXShbQ0gyXVtDQEhdMTIpTihbQ0gyXVtDSDJdMylbQ0gyXVtDSDJdTjNDKD1PKVtOSF1bQ0gyXVtDSDJdYzRbY0hdW2NIXVtjSF1bY0hdbjQ=

> <s_epik_cmdline>
J2VwaWtfcHl0aG9uJywgJy1waCcsICc3LjAnLCAnLXRuJywgJzgnLCAnLW1hJywgJzIwMCcsICctbWV0YWxfYmluZGluZycsICctaW1hZScsICc8aW5maWxlLm1hZT4nLCAnLW9tYWUnLCAnPG91dGZpbGUubWFlPic=

> <r_epik_Ionization_Penalty>
0.0419258

> <r_epik_Ionization_Penalty_Charging>
0.00262064

> <r_epik_Ionization_Penalty_Neutral>
0.0393052

> <r_epik_State_Penalty>
0.0329887

> <r_epik_Charging_Adjusted_Penalty>
0.0356093

> <i_epik_Tot_Q>
1

> <i_epik_Tot_abs_Q>
1

> <r_epik_Metal_State_Penalty>
0.0309172

> <b_epik_Metal_Only>
0

> <s_lp_Force_Field>
OPLS_2005

> <r_lp_Energy>
96.3886

> <b_lp_Chiralities_Consistent>
1

> <s_lp_Variant>
AV-unprocessed.smi:907-3

> <Gold.Version>
5.8.1

> <Gold.Id.Protein>
6NUR|6NUR_protein|mol2

> <Gold.PLP.Fitness>
53.2977

> <Gold.PLP.PLP>
-46.9289

> <Gold.PLP.part.hbond>
-2.4934

> <Gold.PLP.part.metal>
0.0000

> <Gold.PLP.part.buried>
-4.7743

> <Gold.PLP.part.nonpolar>
-39.6652

> <Gold.PLP.part.repulsive>
0.1919

> <Gold.PLP.ligand.clash>
0.6244

> <Gold.PLP.ligand.torsion>
1.0517

> <Gold.PLP.Chemscore.Hbond>
3.0000

> <Gold.PLP.Chemscore.CHOScore>
0.0000

> <Gold.PLP.Chemscore.Metal>
0.0000

> <Gold.Chemscore.Hbonds>
donor molecule, donor type, donor heavy atom, donor atom, acceptor molecule, acceptor atom, score
      L1  H    15    53       P1  7948  2.00
      P1  H  7997  8008       L1     1  1.00

> <Gold.PLP.Chemscore.Internal.Correction>
0.0966

> <Gold.Rescore>
     Score         DG    S(hbond)    S(metal)    S(lipo)     H(rot)  DE(clash)    DE(int)     intcor
     21.07     -21.91       1.88        0.00     116.78       1.37       0.02       0.82       ----

> <Gold.Chemscore.Fitness>
21.0709

> <Gold.Chemscore.DG>
-21.9134

> <Gold.Chemscore.ZeroCoef>
-5.4800

> <Gold.Chemscore.Hbond>
1.8818

> <Gold.Chemscore.Metal>
0.0000

> <Gold.Chemscore.Lipo>
116.7798

> <Gold.Chemscore.Internal_Hbond>
0.0000

> <Gold.Chemscore.DEClash>
0.0213

> <Gold.Chemscore.DEInternal>
0.8212

> <Gold.Chemscore.Rot>
1.3731

> <Gold.Chemscore.Internal.Correction>
   9.000000E+99

> <Gold.Chemscore.Hbonds>
donor molecule, donor type, donor heavy atom, donor atom, acceptor molecule, acceptor atom, score
      L1  H    15    53       P1  7948  0.45
      P1  H  7997  8008       L1     1  1.00

> <Gold.Chemscore.Hbond.Weighted>
-6.2853

> <Gold.Chemscore.Metal.Weighted>
-0.0000

> <Gold.Chemscore.Lipo.Weighted>
-13.6632

> <Gold.Chemscore.Internal_Hbond.Weighted>
0.0000

> <Gold.Chemscore.DEClash.Weighted>
0.0213

> <Gold.Chemscore.DEInternal.Weighted>
0.8212

> <Gold.Chemscore.Rot.Weighted>
3.5152

> <Gold.Chemscore.Internal.Correction.Weighted>
   9.000000E+99

> <Gold.Protein.RotatedTorsions>
[ 6907 6896 6895 6894 ] final  -27.59 input  -60.11 | X-H torsion
[ 7974 7965 7964 7962 ] final -113.50 input  175.53 | X-H torsion
[ 8008 7997 7996 7995 ] final  -31.36 input   59.86 | X-H torsion
[ 10167 10162 10161 10158 ] final  -80.10 input  -65.29 | X-H torsion
[ 10718 10713 10712 10709 ] final    2.43 input   66.30 | X-H torsion
[ 10763 10752 10751 10750 ] final  -26.88 input  -60.55 | X-H torsion
[ 11005 11000 10999 10996 ] final  -57.79 input  -57.11 | X-H torsion

> <Gold.Protein.ActiveResidues>
 VAL166  LYS551  ARG553  GLY616  TRP617  ASP618  TYR619  PRO620  LYS621  CYS622 
 ASP623  PHE694  ASN695  SER759  ASP760  ASP761  ALA762  ILE779  LEU786  VAL792 
 PHE793  MET794  SER795  GLU796  ALA797  LYS798  CYS799  TRP800  GLU811  SER814 

> <Gold.Protein.RotatedAtoms>
  151.1448  135.0198  159.8641 H   0  0  0  0  0  0  0  0  0  0  0  0  # atno 6907 bound_to 6896
  152.5453  134.1457  159.8507 H   0  0  0  0  0  0  0  0  0  0  0  0  # atno 6908 bound_to 6896
  151.1536  133.4845  159.2627 H   0  0  0  0  0  0  0  0  0  0  0  0  # atno 6909 bound_to 6896
  145.1313  140.8726  143.3756 H   0  0  0  0  0  0  0  0  0  0  0  0  # atno 7974 bound_to 7965
  154.4216  140.1766  156.1555 H   0  0  0  0  0  0  0  0  0  0  0  0  # atno 8008 bound_to 7997
  155.9881  140.3371  155.6702 H   0  0  0  0  0  0  0  0  0  0  0  0  # atno 8009 bound_to 7997
  155.6410  140.0680  157.2609 H   0  0  0  0  0  0  0  0  0  0  0  0  # atno 8010 bound_to 7997
  140.4534  143.2476  151.8456 H   0  0  0  0  0  0  0  0  0  0  0  0  # atno 10167 bound_to 10162
  156.8628  130.5593  149.5662 H   0  0  0  0  0  0  0  0  0  0  0  0  # atno 10718 bound_to 10713
  153.7231  135.6943  153.5008 H   0  0  0  0  0  0  0  0  0  0  0  0  # atno 10763 bound_to 10752
  153.2189  135.4376  155.0466 H   0  0  0  0  0  0  0  0  0  0  0  0  # atno 10764 bound_to 10752
  154.8278  135.3455  154.6764 H   0  0  0  0  0  0  0  0  0  0  0  0  # atno 10765 bound_to 10752
  141.1180  133.6611  156.4822 H   0  0  0  0  0  0  0  0  0  0  0  0  # atno 11005 bound_to 11000
  145.0632  139.3089  143.5869 LP  0  0  0  0  0  0  0  0  0  0  0  0  # atno 17320 bound_to 7965
  146.3513  140.0081  142.8669 LP  0  0  0  0  0  0  0  0  0  0  0  0  # atno 17321 bound_to 7965
  139.4799  144.5093  151.8954 LP  0  0  0  0  0  0  0  0  0  0  0  0  # atno 17342 bound_to 10162
  140.4180  144.2281  150.5887 LP  0  0  0  0  0  0  0  0  0  0  0  0  # atno 17343 bound_to 10162
  156.0767  130.5788  150.9487 LP  0  0  0  0  0  0  0  0  0  0  0  0  # atno 17370 bound_to 10713
  157.6240  131.0927  150.8569 LP  0  0  0  0  0  0  0  0  0  0  0  0  # atno 17371 bound_to 10713
  140.4591  134.6858  157.5077 LP  0  0  0  0  0  0  0  0  0  0  0  0  # atno 17394 bound_to 11000
  140.0115  134.6683  155.9373 LP  0  0  0  0  0  0  0  0  0  0  0  0  # atno 17395 bound_to 11000

$$$$
