AV-unprocessed.smi:1429|AV-procd|sdf|5821|dock4
  -GOLD-   22720 5473D 1   1.00000     0.00000
 Structure written by MMmdl.
 29 30  0  0  0  0  0  0  0  0  2 V2000
  149.1454  141.2739  154.8315 C   0  0  0  0  0  0  0  0  0  0  0  0
  150.0353  140.0801  154.7692 C   0  0  0  0  0  0  0  0  0  0  0  0
  151.3624  140.1639  154.8873 N   0  0  0  0  0  0  0  0  0  0  0  0
  151.9744  138.9221  154.7978 N   0  0  0  0  0  0  0  0  0  0  0  0
  151.1053  137.9200  154.6036 C   0  0  0  0  0  0  0  0  0  0  0  0
  151.4974  136.6398  154.4939 N   0  5  0  0  0  0  0  0  0  0  0  0
  150.7905  135.6612  155.1037 C   0  0  0  0  0  0  0  0  0  0  0  0
  151.0088  135.1887  156.2219 O   0  0  0  0  0  0  0  0  0  0  0  0
  149.7668  135.2000  154.3733 N   0  0  0  0  0  0  0  0  0  0  0  0
  148.8402  134.1542  154.7883 C   0  0  0  0  0  0  0  0  0  0  0  0
  149.1004  132.8515  154.0144 C   0  0  1  0  0  0  0  0  0  0  0  0
  150.2183  132.0064  154.5891 C   0  0  0  0  0  0  0  0  0  0  0  0
  149.9359  130.6466  153.9590 C   0  0  0  0  0  0  0  0  0  0  0  0
  148.5197  130.5696  153.8269 O   0  0  0  0  0  0  0  0  0  0  0  0
  147.9384  131.8552  154.0298 C   0  0  0  0  0  0  0  0  0  0  0  0
  149.4248  138.4507  154.5362 S   0  0  0  0  0  0  0  0  0  0  0  0
  149.3245  141.9182  153.9707 H   0  0  0  0  0  0  0  0  0  0  0  0
  149.3410  141.8397  155.7427 H   0  0  0  0  0  0  0  0  0  0  0  0
  148.0992  140.9682  154.8277 H   0  0  0  0  0  0  0  0  0  0  0  0
  149.6199  135.6112  153.4632 H   0  0  0  0  0  0  0  0  0  0  0  0
  148.9581  133.9817  155.8589 H   0  0  0  0  0  0  0  0  0  0  0  0
  147.8135  134.4877  154.6280 H   0  0  0  0  0  0  0  0  0  0  0  0
  149.3460  133.0879  152.9774 H   0  0  0  0  0  0  0  0  0  0  0  0
  151.2116  132.3873  154.3496 H   0  0  0  0  0  0  0  0  0  0  0  0
  150.1290  131.9409  155.6744 H   0  0  0  0  0  0  0  0  0  0  0  0
  150.3806  130.5891  152.9647 H   0  0  0  0  0  0  0  0  0  0  0  0
  150.3272  129.8211  154.5540 H   0  0  0  0  0  0  0  0  0  0  0  0
  147.4406  131.8558  155.0006 H   0  0  0  0  0  0  0  0  0  0  0  0
  147.1902  132.0767  153.2682 H   0  0  0  0  0  0  0  0  0  0  0  0
  1  2  1  0  0  0  0
  1 17  1  0  0  0  0
  1 18  1  0  0  0  0
  1 19  1  0  0  0  0
  2 16  1  0  0  0  0
  2  3  2  0  0  0  0
  3  4  1  0  0  0  0
  4  5  2  0  0  0  0
  5  6  1  0  0  0  0
  5 16  1  0  0  0  0
  6  7  1  0  0  0  0
  7  8  2  0  0  0  0
  7  9  1  0  0  0  0
  9 10  1  0  0  0  0
  9 20  1  0  0  0  0
 10 11  1  0  0  0  0
 10 21  1  0  0  0  0
 10 22  1  0  0  0  0
 11 15  1  0  0  0  0
 11 12  1  0  0  0  0
 11 23  1  0  0  0  0
 12 13  1  0  0  0  0
 12 24  1  0  0  0  0
 12 25  1  0  0  0  0
 13 14  1  0  0  0  0
 13 26  1  0  0  0  0
 13 27  1  0  0  0  0
 14 15  1  0  0  0  0
 15 28  1  0  0  0  0
 15 29  1  0  0  0  0
M  CHG  1   6  -1
M  END
> <s_m_source_file>
AV-unprocessed.smi

> <i_m_source_file_index>
1429

> <i_lp_mmshare_version>
43012

> <i_f3d_flags>
0

> <s_epik_input>
W0NIM11jMW5uYyhzMSlbTkhdQyg9TylbTkhdW0NIMl1bQ0BASF0yW0NIMl1bQ0gyXU9bQ0gyXTI=

> <s_epik_cmdline>
J2VwaWtfcHl0aG9uJywgJy1waCcsICc3LjAnLCAnLXRuJywgJzgnLCAnLW1hJywgJzIwMCcsICctbWV0YWxfYmluZGluZycsICctaW1hZScsICc8aW5maWxlLm1hZT4nLCAnLW9tYWUnLCAnPG91dGZpbGUubWFlPic=

> <r_lp_tautomer_probability>
1

> <r_epik_Ionization_Penalty>
4.4122

> <r_epik_Ionization_Penalty_Charging>
4.26477

> <r_epik_Ionization_Penalty_Neutral>
0.147429

> <r_epik_State_Penalty>
4.26433

> <r_epik_Charging_Adjusted_Penalty>
8.5291

> <i_epik_Tot_Q>
-1

> <i_epik_Tot_abs_Q>
1

> <r_epik_Metal_State_Penalty>
0.713483

> <b_epik_Metal_Only>
1

> <s_lp_Force_Field>
OPLS_2005

> <r_lp_Energy>
16.2384

> <b_lp_Chiralities_Consistent>
1

> <s_lp_Variant>
AV-unprocessed.smi:1429-4

> <Gold.Version>
5.8.1

> <Gold.Id.Protein>
6NUR|6NUR_protein|mol2

> <Gold.PLP.Fitness>
36.5403

> <Gold.PLP.PLP>
-27.6392

> <Gold.PLP.part.hbond>
-3.2332

> <Gold.PLP.part.metal>
0.0000

> <Gold.PLP.part.buried>
-4.0364

> <Gold.PLP.part.nonpolar>
-20.7389

> <Gold.PLP.part.repulsive>
0.4186

> <Gold.PLP.ligand.clash>
0.0000

> <Gold.PLP.ligand.torsion>
1.3405

> <Gold.PLP.Chemscore.Hbond>
3.8500

> <Gold.PLP.Chemscore.CHOScore>
0.0000

> <Gold.PLP.Chemscore.Metal>
0.0000

> <Gold.Chemscore.Hbonds>
donor molecule, donor type, donor heavy atom, donor atom, acceptor molecule, acceptor atom, score
      L1  H     9    20       P1  7948  0.75
      P1  H  7989  7998       L1     3  0.90
      P1  H 10752 10764       L1     6  1.60

> <Gold.PLP.Chemscore.Internal.Correction>
0.0322

> <Gold.Rescore>
     Score         DG    S(hbond)    S(metal)    S(lipo)     H(rot)  DE(clash)    DE(int)     intcor
     11.97     -13.19       1.74        0.00      44.71       1.30       0.08       1.14       ----

> <Gold.Chemscore.Fitness>
11.9698

> <Gold.Chemscore.DG>
-13.1894

> <Gold.Chemscore.ZeroCoef>
-5.4800

> <Gold.Chemscore.Hbond>
1.7370

> <Gold.Chemscore.Metal>
0.0000

> <Gold.Chemscore.Lipo>
44.7073

> <Gold.Chemscore.Internal_Hbond>
0.0000

> <Gold.Chemscore.DEClash>
0.0801

> <Gold.Chemscore.DEInternal>
1.1396

> <Gold.Chemscore.Rot>
1.2980

> <Gold.Chemscore.Internal.Correction>
   9.000000E+99

> <Gold.Chemscore.Hbonds>
donor molecule, donor type, donor heavy atom, donor atom, acceptor molecule, acceptor atom, score
      L1  H     9    20       P1  7948  0.09
      P1  H  7989  7998       L1     3  0.09
      P1  H 10752 10764       L1     6  0.12

> <Gold.Chemscore.Hbond.Weighted>
-5.8016

> <Gold.Chemscore.Metal.Weighted>
-0.0000

> <Gold.Chemscore.Lipo.Weighted>
-5.2308

> <Gold.Chemscore.Internal_Hbond.Weighted>
0.0000

> <Gold.Chemscore.DEClash.Weighted>
0.0801

> <Gold.Chemscore.DEInternal.Weighted>
1.1396

> <Gold.Chemscore.Rot.Weighted>
3.3229

> <Gold.Chemscore.Internal.Correction.Weighted>
   9.000000E+99

> <Gold.Protein.RotatedTorsions>
[ 6907 6896 6895 6894 ] final   71.68 input  -60.11 | X-H torsion
[ 7974 7965 7964 7962 ] final   37.67 input  175.53 | X-H torsion
[ 8008 7997 7996 7995 ] final  103.70 input   59.86 | X-H torsion
[ 10167 10162 10161 10158 ] final -145.98 input  -65.29 | X-H torsion
[ 10718 10713 10712 10709 ] final  -90.21 input   66.30 | X-H torsion
[ 10763 10752 10751 10750 ] final  -83.82 input  -60.55 | X-H torsion
[ 11005 11000 10999 10996 ] final   87.15 input  -57.11 | X-H torsion

> <Gold.Protein.ActiveResidues>
 VAL166  LYS551  ARG553  GLY616  TRP617  ASP618  TYR619  PRO620  LYS621  CYS622 
 ASP623  PHE694  ASN695  SER759  ASP760  ASP761  ALA762  ILE779  LEU786  VAL792 
 PHE793  MET794  SER795  GLU796  ALA797  LYS798  CYS799  TRP800  GLU811  SER814 

> <Gold.Protein.RotatedAtoms>
  152.4824  134.4683  159.9627 H   0  0  0  0  0  0  0  0  0  0  0  0  # atno 6907 bound_to 6896
  151.4687  133.3568  159.2828 H   0  0  0  0  0  0  0  0  0  0  0  0  # atno 6908 bound_to 6896
  150.8907  134.8336  159.7352 H   0  0  0  0  0  0  0  0  0  0  0  0  # atno 6909 bound_to 6896
  146.1120  139.5866  142.9346 H   0  0  0  0  0  0  0  0  0  0  0  0  # atno 7974 bound_to 7965
  156.1507  140.3160  155.8643 H   0  0  0  0  0  0  0  0  0  0  0  0  # atno 8008 bound_to 7997
  155.3977  140.0497  157.3055 H   0  0  0  0  0  0  0  0  0  0  0  0  # atno 8009 bound_to 7997
  154.5056  140.2145  155.9270 H   0  0  0  0  0  0  0  0  0  0  0  0  # atno 8010 bound_to 7997
  139.7755  143.8176  152.2631 H   0  0  0  0  0  0  0  0  0  0  0  0  # atno 10167 bound_to 10162
  155.9987  130.4901  150.5289 H   0  0  0  0  0  0  0  0  0  0  0  0  # atno 10718 bound_to 10713
  154.5922  135.5542  153.7290 H   0  0  0  0  0  0  0  0  0  0  0  0  # atno 10763 bound_to 10752
  153.0121  135.6346  154.1832 H   0  0  0  0  0  0  0  0  0  0  0  0  # atno 10764 bound_to 10752
  154.1773  135.2889  155.3043 H   0  0  0  0  0  0  0  0  0  0  0  0  # atno 10765 bound_to 10752
  139.8927  134.8403  156.2819 H   0  0  0  0  0  0  0  0  0  0  0  0  # atno 11005 bound_to 11000
  145.5644  141.0401  143.2208 LP  0  0  0  0  0  0  0  0  0  0  0  0  # atno 17320 bound_to 7965
  144.7520  139.7170  143.7269 LP  0  0  0  0  0  0  0  0  0  0  0  0  # atno 17321 bound_to 7965
  139.8223  144.7290  150.9557 LP  0  0  0  0  0  0  0  0  0  0  0  0  # atno 17342 bound_to 10162
  140.7816  143.4147  151.0936 LP  0  0  0  0  0  0  0  0  0  0  0  0  # atno 17343 bound_to 10162
  157.3241  131.0687  151.1910 LP  0  0  0  0  0  0  0  0  0  0  0  0  # atno 17370 bound_to 10713
  157.2813  130.6751  149.6067 LP  0  0  0  0  0  0  0  0  0  0  0  0  # atno 17371 bound_to 10713
  141.0033  133.7138  156.0994 LP  0  0  0  0  0  0  0  0  0  0  0  0  # atno 17394 bound_to 11000
  140.7468  134.4089  157.5547 LP  0  0  0  0  0  0  0  0  0  0  0  0  # atno 17395 bound_to 11000

$$$$
