AV-unprocessed.smi:290|AV-procd|sdf|2219|dock1
  -GOLD-   2262022 63D 1   1.00000     0.00000
 Structure written by MMmdl.
 59 62  0  0  0  0  0  0  0  0  2 V2000
  153.0746  137.5625  157.5650 C   0  0  0  0  0  0  0  0  0  0  0  0
  152.7247  137.9239  156.1131 C   0  0  2  0  0  0  0  0  0  0  0  0
  152.6531  139.3447  156.0257 O   0  0  0  0  0  0  0  0  0  0  0  0
  151.7242  139.6927  155.0149 C   0  0  0  0  0  0  0  0  0  0  0  0
  150.6088  138.6834  155.2377 C   0  0  0  0  0  0  0  0  0  0  0  0
  151.3668  137.3993  155.5655 C   0  0  1  0  0  0  0  0  0  0  0  0
  151.6246  136.7299  154.3423 O   0  0  0  0  0  0  0  0  0  0  0  0
  150.5775  136.4333  156.4883 C   0  0  0  0  0  0  0  0  0  0  0  0
  149.5095  135.7227  155.8020 N   0  0  0  0  0  0  0  0  0  0  0  0
  149.3956  134.3595  155.6397 C   0  0  0  0  0  0  0  0  0  0  0  0
  148.3360  133.9616  154.9892 N   0  0  0  0  0  0  0  0  0  0  0  0
  147.6754  135.1414  154.6734 C   0  0  0  0  0  0  0  0  0  0  0  0
  146.4701  135.4415  153.9886 C   0  0  0  0  0  0  0  0  0  0  0  0
  145.6815  134.4667  153.4817 N   0  0  0  0  0  0  0  0  0  0  0  0
  146.4021  133.3834  152.8400 C   0  0  0  0  0  0  0  0  0  0  0  0
  145.3614  132.6381  152.0053 C   0  0  0  0  0  0  0  0  0  0  0  0
  144.1486  133.5862  151.8888 C   0  0  2  0  0  0  0  0  0  0  0  0
  143.6723  133.6877  150.4727 N   0  3  1  0  0  0  0  0  0  0  0  0
  144.3495  134.8031  149.7611 C   0  0  0  0  0  0  0  0  0  0  0  0
  143.7056  132.4166  149.6935 C   0  0  0  0  0  0  0  0  0  0  0  0
  143.5237  132.6089  148.1759 C   0  0  0  0  0  0  0  0  0  0  0  0
  142.3166  132.0147  147.7464 O   0  0  0  0  0  0  0  0  0  0  0  0
  144.6475  134.8960  152.5479 C   0  0  1  0  0  0  0  0  0  0  0  0
  143.5502  135.6849  153.2963 C   0  0  0  0  0  0  0  0  0  0  0  0
  146.1146  136.7479  153.8656 N   0  0  0  0  0  0  0  0  0  0  0  0
  146.8983  137.7023  154.3778 C   0  0  0  0  0  0  0  0  0  0  0  0
  148.0499  137.5710  155.0403 N   0  0  0  0  0  0  0  0  0  0  0  0
  148.4014  136.2590  155.1699 C   0  0  0  0  0  0  0  0  0  0  0  0
  143.3381  133.1865  152.5015 H   0  0  0  0  0  0  0  0  0  0  0  0
  145.1114  135.5303  151.7908 H   0  0  0  0  0  0  0  0  0  0  0  0
  153.1587  136.4840  157.6980 H   0  0  0  0  0  0  0  0  0  0  0  0
  152.3264  137.9370  158.2637 H   0  0  0  0  0  0  0  0  0  0  0  0
  154.0320  138.0007  157.8481 H   0  0  0  0  0  0  0  0  0  0  0  0
  153.5452  137.5961  155.4717 H   0  0  0  0  0  0  0  0  0  0  0  0
  151.3873  140.7247  155.1125 H   0  0  0  0  0  0  0  0  0  0  0  0
  152.1810  139.5665  154.0321 H   0  0  0  0  0  0  0  0  0  0  0  0
  150.0174  139.0004  156.0976 H   0  0  0  0  0  0  0  0  0  0  0  0
  149.9336  138.5936  154.3855 H   0  0  0  0  0  0  0  0  0  0  0  0
  150.8775  136.1905  154.1314 H   0  0  0  0  0  0  0  0  0  0  0  0
  151.2470  135.6955  156.9323 H   0  0  0  0  0  0  0  0  0  0  0  0
  150.1269  136.9800  157.3171 H   0  0  0  0  0  0  0  0  0  0  0  0
  150.1253  133.6633  156.0273 H   0  0  0  0  0  0  0  0  0  0  0  0
  147.1928  133.7690  152.1946 H   0  0  0  0  0  0  0  0  0  0  0  0
  146.8624  132.7296  153.5814 H   0  0  0  0  0  0  0  0  0  0  0  0
  145.7882  132.3724  151.0374 H   0  0  0  0  0  0  0  0  0  0  0  0
  145.0661  131.7108  152.4974 H   0  0  0  0  0  0  0  0  0  0  0  0
  145.3809  134.5416  149.5207 H   0  0  0  0  0  0  0  0  0  0  0  0
  144.3699  135.7137  150.3593 H   0  0  0  0  0  0  0  0  0  0  0  0
  143.8349  135.0611  148.8366 H   0  0  0  0  0  0  0  0  0  0  0  0
  144.6462  131.9005  149.8903 H   0  0  0  0  0  0  0  0  0  0  0  0
  142.9047  131.7536  150.0150 H   0  0  0  0  0  0  0  0  0  0  0  0
  143.5505  133.6571  147.8815 H   0  0  0  0  0  0  0  0  0  0  0  0
  144.3446  132.1251  147.6455 H   0  0  0  0  0  0  0  0  0  0  0  0
  142.1311  132.3050  146.8660 H   0  0  0  0  0  0  0  0  0  0  0  0
  142.7266  135.9817  152.6506 H   0  0  0  0  0  0  0  0  0  0  0  0
  143.9510  136.5984  153.7367 H   0  0  0  0  0  0  0  0  0  0  0  0
  143.1266  135.0912  154.1072 H   0  0  0  0  0  0  0  0  0  0  0  0
  146.5528  138.7162  154.2389 H   0  0  0  0  0  0  0  0  0  0  0  0
  142.6953  133.9374  150.5337 H   0  0  0  0  0  0  0  0  0  0  0  0
  1  2  1  0  0  0  0
  1 31  1  0  0  0  0
  1 32  1  0  0  0  0
  1 33  1  0  0  0  0
  2  6  1  0  0  0  0
  2  3  1  0  0  0  0
  2 34  1  0  0  0  0
  3  4  1  0  0  0  0
  4  5  1  0  0  0  0
  4 35  1  0  0  0  0
  4 36  1  0  0  0  0
  5  6  1  0  0  0  0
  5 37  1  0  0  0  0
  5 38  1  0  0  0  0
  6  7  1  0  0  0  0
  6  8  1  0  0  0  0
  7 39  1  0  0  0  0
  8  9  1  0  0  0  0
  8 40  1  0  0  0  0
  8 41  1  0  0  0  0
  9 28  1  0  0  0  0
  9 10  1  0  0  0  0
 10 11  2  0  0  0  0
 10 42  1  0  0  0  0
 11 12  1  0  0  0  0
 12 28  2  0  0  0  0
 12 13  1  0  0  0  0
 13 14  1  0  0  0  0
 13 25  2  0  0  0  0
 14 23  1  0  0  0  0
 14 15  1  0  0  0  0
 15 16  1  0  0  0  0
 15 43  1  0  0  0  0
 15 44  1  0  0  0  0
 16 17  1  0  0  0  0
 16 45  1  0  0  0  0
 16 46  1  0  0  0  0
 17 29  1  0  0  0  0
 17 18  1  0  0  0  0
 17 23  1  0  0  0  0
 18 19  1  0  0  0  0
 18 20  1  0  0  0  0
 18 59  1  0  0  0  0
 19 47  1  0  0  0  0
 19 48  1  0  0  0  0
 19 49  1  0  0  0  0
 20 21  1  0  0  0  0
 20 50  1  0  0  0  0
 20 51  1  0  0  0  0
 21 22  1  0  0  0  0
 21 52  1  0  0  0  0
 21 53  1  0  0  0  0
 22 54  1  0  0  0  0
 23 30  1  0  0  0  0
 23 24  1  0  0  0  0
 24 55  1  0  0  0  0
 24 56  1  0  0  0  0
 24 57  1  0  0  0  0
 25 26  1  0  0  0  0
 26 27  2  0  0  0  0
 26 58  1  0  0  0  0
 27 28  1  0  0  0  0
M  CHG  1  18   1
M  END
> <s_m_source_file>
AV-unprocessed.smi

> <i_m_source_file_index>
290

> <i_lp_mmshare_version>
43012

> <i_f3d_flags>
0

> <s_epik_input>
W0NIMl0xW0NIMl1PW0NAQEhdKFtDSDNdKVtDQEBdMShbT0hdKVtDSDJdbihbY0hdbjIpYyhjMjMpbltjSF1uYzNONFtDSDJdW0NIMl1bQ0BIXShbQ0BIXTRbQ0gzXSlOKFtDSDNdKVtDSDJdW0NIMl1bT0hd

> <s_epik_cmdline>
J2VwaWtfcHl0aG9uJywgJy1waCcsICc3LjAnLCAnLXRuJywgJzgnLCAnLW1hJywgJzIwMCcsICctbWV0YWxfYmluZGluZycsICctaW1hZScsICc8aW5maWxlLm1hZT4nLCAnLW9tYWUnLCAnPG91dGZpbGUubWFlPic=

> <r_lp_tautomer_probability>
1

> <r_epik_Ionization_Penalty>
0.0036983

> <r_epik_Ionization_Penalty_Charging>
0.0032725

> <r_epik_Ionization_Penalty_Neutral>
0.000425798

> <r_epik_State_Penalty>
-0

> <r_epik_Charging_Adjusted_Penalty>
0.0032725

> <i_epik_Tot_Q>
1

> <i_epik_Tot_abs_Q>
1

> <r_epik_Metal_State_Penalty>
-0

> <b_epik_Metal_Only>
0

> <s_lp_Force_Field>
OPLS_2005

> <r_lp_Energy>
64.8136

> <b_lp_Chiralities_Consistent>
1

> <s_lp_Variant>
AV-unprocessed.smi:290-5

> <Gold.Version>
5.8.1

> <Gold.Id.Protein>
6NUR|6NUR_protein|mol2

> <Gold.PLP.Fitness>
49.3218

> <Gold.PLP.PLP>
-37.7355

> <Gold.PLP.part.hbond>
-7.0936

> <Gold.PLP.part.metal>
0.0000

> <Gold.PLP.part.buried>
-2.2151

> <Gold.PLP.part.nonpolar>
-29.8355

> <Gold.PLP.part.repulsive>
0.3367

> <Gold.PLP.ligand.clash>
0.0000

> <Gold.PLP.ligand.torsion>
1.7593

> <Gold.PLP.Chemscore.Hbond>
4.9425

> <Gold.PLP.Chemscore.CHOScore>
0.0000

> <Gold.PLP.Chemscore.Metal>
0.0000

> <Gold.Chemscore.Hbonds>
donor molecule, donor type, donor heavy atom, donor atom, acceptor molecule, acceptor atom, score
      L1  H    18    59       P1 10186  1.92
      L1  H    22    54       P1 10195  1.00
      P1  H  7997  8010       L1     3  1.00
      P1  H 10752 10765       L1     7  1.00
      P1  H 10785 10796       L1    22  0.05

> <Gold.PLP.Chemscore.Internal.Correction>
0.2774

> <Gold.Rescore>
     Score         DG    S(hbond)    S(metal)    S(lipo)     H(rot)  DE(clash)    DE(int)     intcor
     11.93     -19.03       3.65        0.00      91.81       3.67       1.74       5.36       ----

> <Gold.Chemscore.Fitness>
11.9303

> <Gold.Chemscore.DG>
-19.0308

> <Gold.Chemscore.ZeroCoef>
-5.4800

> <Gold.Chemscore.Hbond>
3.6508

> <Gold.Chemscore.Metal>
0.0000

> <Gold.Chemscore.Lipo>
91.8073

> <Gold.Chemscore.Internal_Hbond>
0.0000

> <Gold.Chemscore.DEClash>
1.7418

> <Gold.Chemscore.DEInternal>
5.3587

> <Gold.Chemscore.Rot>
3.6658

> <Gold.Chemscore.Internal.Correction>
   9.000000E+99

> <Gold.Chemscore.Hbonds>
donor molecule, donor type, donor heavy atom, donor atom, acceptor molecule, acceptor atom, score
      L1  H    18    59       P1 10186  0.80
      L1  H    22    54       P1 10195  0.99
      P1  H  7997  8010       L1     3  0.78
      P1  H 10752 10765       L1     7  0.49

> <Gold.Chemscore.Hbond.Weighted>
-12.1938

> <Gold.Chemscore.Metal.Weighted>
-0.0000

> <Gold.Chemscore.Lipo.Weighted>
-10.7415

> <Gold.Chemscore.Internal_Hbond.Weighted>
0.0000

> <Gold.Chemscore.DEClash.Weighted>
1.7418

> <Gold.Chemscore.DEInternal.Weighted>
5.3587

> <Gold.Chemscore.Rot.Weighted>
9.3844

> <Gold.Chemscore.Internal.Correction.Weighted>
   9.000000E+99

> <Gold.Protein.RotatedTorsions>
[ 6907 6896 6895 6894 ] final  119.82 input  -60.11 | X-H torsion
[ 7974 7965 7964 7962 ] final   84.67 input  175.53 | X-H torsion
[ 8008 7997 7996 7995 ] final   81.82 input   59.86 | X-H torsion
[ 10167 10162 10161 10158 ] final  -83.82 input  -65.29 | X-H torsion
[ 10718 10713 10712 10709 ] final  -55.18 input   66.30 | X-H torsion
[ 10763 10752 10751 10750 ] final  151.30 input  -60.55 | X-H torsion
[ 11005 11000 10999 10996 ] final  130.53 input  -57.11 | X-H torsion

> <Gold.Protein.ActiveResidues>
 VAL166  LYS551  ARG553  GLY616  TRP617  ASP618  TYR619  PRO620  LYS621  CYS622 
 ASP623  PHE694  ASN695  SER759  ASP760  ASP761  ALA762  ILE779  LEU786  VAL792 
 PHE793  MET794  SER795  GLU796  ALA797  LYS798  CYS799  TRP800  GLU811  SER814 

> <Gold.Protein.RotatedAtoms>
  152.4444  133.7508  159.6692 H   0  0  0  0  0  0  0  0  0  0  0  0  # atno 6907 bound_to 6896
  150.8341  133.8032  159.3093 H   0  0  0  0  0  0  0  0  0  0  0  0  # atno 6908 bound_to 6896
  151.5677  135.1066  160.0039 H   0  0  0  0  0  0  0  0  0  0  0  0  # atno 6909 bound_to 6896
  145.5957  139.2344  143.2274 H   0  0  0  0  0  0  0  0  0  0  0  0  # atno 7974 bound_to 7965
  155.9023  140.3432  155.6035 H   0  0  0  0  0  0  0  0  0  0  0  0  # atno 8008 bound_to 7997
  155.7486  140.0817  157.2231 H   0  0  0  0  0  0  0  0  0  0  0  0  # atno 8009 bound_to 7997
  154.4045  140.1557  156.2685 H   0  0  0  0  0  0  0  0  0  0  0  0  # atno 8010 bound_to 7997
  140.4191  143.2592  151.8914 H   0  0  0  0  0  0  0  0  0  0  0  0  # atno 10167 bound_to 10162
  156.1390  130.4155  150.0136 H   0  0  0  0  0  0  0  0  0  0  0  0  # atno 10718 bound_to 10713
  154.1015  135.2845  155.3250 H   0  0  0  0  0  0  0  0  0  0  0  0  # atno 10763 bound_to 10752
  154.6552  135.5354  153.7953 H   0  0  0  0  0  0  0  0  0  0  0  0  # atno 10764 bound_to 10752
  153.0377  135.6520  154.1178 H   0  0  0  0  0  0  0  0  0  0  0  0  # atno 10765 bound_to 10752
  139.9677  134.9586  156.9308 H   0  0  0  0  0  0  0  0  0  0  0  0  # atno 11005 bound_to 11000
  146.1614  140.6783  142.9276 LP  0  0  0  0  0  0  0  0  0  0  0  0  # atno 17320 bound_to 7965
  144.7332  140.4731  143.6923 LP  0  0  0  0  0  0  0  0  0  0  0  0  # atno 17321 bound_to 7965
  139.4782  144.5456  151.8462 LP  0  0  0  0  0  0  0  0  0  0  0  0  # atno 17342 bound_to 10162
  140.4554  144.1797  150.5901 LP  0  0  0  0  0  0  0  0  0  0  0  0  # atno 17343 bound_to 10162
  156.8027  130.9296  151.3645 LP  0  0  0  0  0  0  0  0  0  0  0  0  # atno 17370 bound_to 10713
  157.6558  130.8923  149.9727 LP  0  0  0  0  0  0  0  0  0  0  0  0  # atno 17371 bound_to 10713
  140.5360  134.0767  155.7328 LP  0  0  0  0  0  0  0  0  0  0  0  0  # atno 17394 bound_to 11000
  141.1357  133.9225  157.2438 LP  0  0  0  0  0  0  0  0  0  0  0  0  # atno 17395 bound_to 11000

$$$$
