AV-unprocessed.smi:2772|AV-procd|sdf|10665|dock6
  -GOLD-   2272015113D 1   1.00000     0.00000
 Structure written by MMmdl.
 55 57  0  0  0  0  0  0  0  0  3 V2000
  154.8718  142.6404  163.6637 C   0  0  0  0  0  0  0  0  0  0  0  0
  154.0959  142.6081  162.3636 C   0  0  0  0  0  0  0  0  0  0  0  0
  154.3389  141.6086  161.3989 C   0  0  0  0  0  0  0  0  0  0  0  0
  153.5887  141.6265  160.2074 C   0  0  0  0  0  0  0  0  0  0  0  0
  152.6272  142.6486  160.0193 C   0  0  0  0  0  0  0  0  0  0  0  0
  151.7950  142.7616  158.8732 N   0  0  0  0  0  0  0  0  0  0  0  0
  151.1827  141.7826  158.1856 C   0  0  0  0  0  0  0  0  0  0  0  0
  151.2773  140.5791  158.4244 O   0  0  0  0  0  0  0  0  0  0  0  0
  150.4580  142.2846  157.1752 N   0  0  0  0  0  0  0  0  0  0  0  0
  149.6694  141.5083  156.2216 C   0  0  2  0  0  0  0  0  0  0  0  0
  149.6466  142.2197  154.8557 C   0  0  0  0  0  0  0  0  0  0  0  0
  148.6754  141.5251  153.8810 C   0  0  0  0  0  0  0  0  0  0  0  0
  147.2946  141.4394  154.4389 N   0  3  2  0  0  0  0  0  0  0  0  0
  146.5468  142.7429  154.5094 C   0  0  2  0  0  0  0  0  0  0  0  0
  145.2280  142.6220  155.3151 C   0  0  0  0  0  0  0  0  0  0  0  0
  144.4180  143.9298  155.3226 C   0  0  0  0  0  0  0  0  0  0  0  0
  144.1205  144.3830  153.9448 N   0  3  1  0  0  0  0  0  0  0  0  0
  143.2382  145.5697  153.9186 C   0  0  0  0  0  0  0  0  0  0  0  0
  145.3630  144.5847  153.1651 C   0  0  0  0  0  0  0  0  0  0  0  0
  146.1962  143.2930  153.1032 C   0  0  0  0  0  0  0  0  0  0  0  0
  147.3326  140.6537  155.7060 C   0  0  0  0  0  0  0  0  0  0  0  0
  148.2405  141.3142  156.7614 C   0  0  0  0  0  0  0  0  0  0  0  0
  152.4566  143.5894  161.0568 C   0  0  0  0  0  0  0  0  0  0  0  0
  153.1722  143.5798  162.2018 N   0  0  0  0  0  0  0  0  0  0  0  0
  155.5962  141.8271  163.7136 H   0  0  0  0  0  0  0  0  0  0  0  0
  154.1940  142.5445  164.5124 H   0  0  0  0  0  0  0  0  0  0  0  0
  155.4116  143.5828  163.7600 H   0  0  0  0  0  0  0  0  0  0  0  0
  155.0793  140.8403  161.5668 H   0  0  0  0  0  0  0  0  0  0  0  0
  153.7545  140.8525  159.4743 H   0  0  0  0  0  0  0  0  0  0  0  0
  151.6946  143.6960  158.5043 H   0  0  0  0  0  0  0  0  0  0  0  0
  150.4507  143.2874  157.0592 H   0  0  0  0  0  0  0  0  0  0  0  0
  150.1076  140.5188  156.0777 H   0  0  0  0  0  0  0  0  0  0  0  0
  149.3662  143.2664  154.9779 H   0  0  0  0  0  0  0  0  0  0  0  0
  150.6502  142.2248  154.4288 H   0  0  0  0  0  0  0  0  0  0  0  0
  148.6971  142.0008  152.9030 H   0  0  0  0  0  0  0  0  0  0  0  0
  149.0288  140.5094  153.6968 H   0  0  0  0  0  0  0  0  0  0  0  0
  147.1742  143.4809  155.0093 H   0  0  0  0  0  0  0  0  0  0  0  0
  144.6157  141.8168  154.9065 H   0  0  0  0  0  0  0  0  0  0  0  0
  145.4261  142.3698  156.3557 H   0  0  0  0  0  0  0  0  0  0  0  0
  143.4841  143.7754  155.8648 H   0  0  0  0  0  0  0  0  0  0  0  0
  144.9670  144.7092  155.8541 H   0  0  0  0  0  0  0  0  0  0  0  0
  143.7195  146.4277  154.3901 H   0  0  0  0  0  0  0  0  0  0  0  0
  142.3054  145.3676  154.4462 H   0  0  0  0  0  0  0  0  0  0  0  0
  142.9860  145.8395  152.8925 H   0  0  0  0  0  0  0  0  0  0  0  0
  145.1101  144.9025  152.1526 H   0  0  0  0  0  0  0  0  0  0  0  0
  145.9494  145.3895  153.6118 H   0  0  0  0  0  0  0  0  0  0  0  0
  147.0967  143.5263  152.5372 H   0  0  0  0  0  0  0  0  0  0  0  0
  145.6539  142.5368  152.5338 H   0  0  0  0  0  0  0  0  0  0  0  0
  146.3387  140.4663  156.1065 H   0  0  0  0  0  0  0  0  0  0  0  0
  147.7239  139.6612  155.4772 H   0  0  0  0  0  0  0  0  0  0  0  0
  148.2690  140.6942  157.6582 H   0  0  0  0  0  0  0  0  0  0  0  0
  147.8180  142.2711  157.0701 H   0  0  0  0  0  0  0  0  0  0  0  0
  151.7257  144.3795  160.9650 H   0  0  0  0  0  0  0  0  0  0  0  0
  146.7736  140.8715  153.7856 H   0  0  0  0  0  0  0  0  0  0  0  0
  143.6083  143.6379  153.4943 H   0  0  0  0  0  0  0  0  0  0  0  0
  1  2  1  0  0  0  0
  1 25  1  0  0  0  0
  1 26  1  0  0  0  0
  1 27  1  0  0  0  0
  2 24  1  0  0  0  0
  2  3  2  0  0  0  0
  3  4  1  0  0  0  0
  3 28  1  0  0  0  0
  4  5  2  0  0  0  0
  4 29  1  0  0  0  0
  5  6  1  0  0  0  0
  5 23  1  0  0  0  0
  6  7  1  0  0  0  0
  6 30  1  0  0  0  0
  7  8  2  0  0  0  0
  7  9  1  0  0  0  0
  9 10  1  0  0  0  0
  9 31  1  0  0  0  0
 10 22  1  0  0  0  0
 10 11  1  0  0  0  0
 10 32  1  0  0  0  0
 11 12  1  0  0  0  0
 11 33  1  0  0  0  0
 11 34  1  0  0  0  0
 12 13  1  0  0  0  0
 12 35  1  0  0  0  0
 12 36  1  0  0  0  0
 13 14  1  0  0  0  0
 13 21  1  0  0  0  0
 13 54  1  0  0  0  0
 14 20  1  0  0  0  0
 14 15  1  0  0  0  0
 14 37  1  0  0  0  0
 15 16  1  0  0  0  0
 15 38  1  0  0  0  0
 15 39  1  0  0  0  0
 16 17  1  0  0  0  0
 16 40  1  0  0  0  0
 16 41  1  0  0  0  0
 17 18  1  0  0  0  0
 17 19  1  0  0  0  0
 17 55  1  0  0  0  0
 18 42  1  0  0  0  0
 18 43  1  0  0  0  0
 18 44  1  0  0  0  0
 19 20  1  0  0  0  0
 19 45  1  0  0  0  0
 19 46  1  0  0  0  0
 20 47  1  0  0  0  0
 20 48  1  0  0  0  0
 21 22  1  0  0  0  0
 21 49  1  0  0  0  0
 21 50  1  0  0  0  0
 22 51  1  0  0  0  0
 22 52  1  0  0  0  0
 23 24  2  0  0  0  0
 23 53  1  0  0  0  0
M  CHG  1  13   1
M  CHG  1  17   1
M  END
> <s_m_source_file>
AV-unprocessed.smi

> <i_m_source_file_index>
2772

> <i_lp_mmshare_version>
43012

> <i_f3d_flags>
0

> <s_epik_input>
W0NIM11jMVtjSF1bY0hdYyhbY0hdbjEpW05IXUMoPU8pW05IXVtDSF0yW0NIMl1bQ0gyXU4oW0NIMl1bQ0gyXTIpW0NIXTNbQ0gyXVtDSDJdTihbQ0gzXSlbQ0gyXVtDSDJdMw==

> <s_epik_cmdline>
J2VwaWtfcHl0aG9uJywgJy1waCcsICc3LjAnLCAnLXRuJywgJzgnLCAnLW1hJywgJzIwMCcsICctbWV0YWxfYmluZGluZycsICctaW1hZScsICc8aW5maWxlLm1hZT4nLCAnLW9tYWUnLCAnPG91dGZpbGUubWFlPic=

> <r_epik_Ionization_Penalty>
0.196786

> <r_epik_Ionization_Penalty_Charging>
0.180787

> <r_epik_Ionization_Penalty_Neutral>
0.0159988

> <r_epik_State_Penalty>
0.163322

> <r_epik_Charging_Adjusted_Penalty>
0.344109

> <i_epik_Tot_Q>
2

> <i_epik_Tot_abs_Q>
2

> <r_epik_Metal_State_Penalty>
0.163596

> <b_epik_Metal_Only>
0

> <s_lp_Force_Field>
OPLS_2005

> <r_lp_Energy>
45.3322

> <b_lp_Chiralities_Consistent>
1

> <s_lp_Variant>
AV-unprocessed.smi:2772-2

> <Gold.Version>
5.8.1

> <Gold.Id.Protein>
6NUR|6NUR_protein|mol2

> <Gold.PLP.Fitness>
49.7639

> <Gold.PLP.PLP>
-45.4821

> <Gold.PLP.part.hbond>
-1.0000

> <Gold.PLP.part.metal>
0.0000

> <Gold.PLP.part.buried>
-1.9177

> <Gold.PLP.part.nonpolar>
-41.1771

> <Gold.PLP.part.repulsive>
0.3862

> <Gold.PLP.ligand.clash>
0.0000

> <Gold.PLP.ligand.torsion>
0.8802

> <Gold.PLP.Chemscore.Hbond>
2.0000

> <Gold.PLP.Chemscore.CHOScore>
0.0000

> <Gold.PLP.Chemscore.Metal>
0.0000

> <Gold.Chemscore.Hbonds>
donor molecule, donor type, donor heavy atom, donor atom, acceptor molecule, acceptor atom, score
      L1  H    17    55       P1 10174  2.00

> <Gold.PLP.Chemscore.Internal.Correction>
0.0421

> <Gold.Rescore>
     Score         DG    S(hbond)    S(metal)    S(lipo)     H(rot)  DE(clash)    DE(int)     intcor
     16.36     -19.23       0.77        0.00     121.98       1.21       2.09       0.78       ----

> <Gold.Chemscore.Fitness>
16.3604

> <Gold.Chemscore.DG>
-19.2327

> <Gold.Chemscore.ZeroCoef>
-5.4800

> <Gold.Chemscore.Hbond>
0.7713

> <Gold.Chemscore.Metal>
0.0000

> <Gold.Chemscore.Lipo>
121.9839

> <Gold.Chemscore.Internal_Hbond>
0.0000

> <Gold.Chemscore.DEClash>
2.0940

> <Gold.Chemscore.DEInternal>
0.7783

> <Gold.Chemscore.Rot>
1.2092

> <Gold.Chemscore.Internal.Correction>
   9.000000E+99

> <Gold.Chemscore.Hbonds>
donor molecule, donor type, donor heavy atom, donor atom, acceptor molecule, acceptor atom, score
      L1  H    17    55       P1 10174  0.81

> <Gold.Chemscore.Hbond.Weighted>
-2.5760

> <Gold.Chemscore.Metal.Weighted>
-0.0000

> <Gold.Chemscore.Lipo.Weighted>
-14.2721

> <Gold.Chemscore.Internal_Hbond.Weighted>
0.0000

> <Gold.Chemscore.DEClash.Weighted>
2.0940

> <Gold.Chemscore.DEInternal.Weighted>
0.7783

> <Gold.Chemscore.Rot.Weighted>
3.0955

> <Gold.Chemscore.Internal.Correction.Weighted>
   9.000000E+99

> <Gold.Protein.RotatedTorsions>
[ 6907 6896 6895 6894 ] final -165.70 input  -60.11 | X-H torsion
[ 7974 7965 7964 7962 ] final  113.53 input  175.53 | X-H torsion
[ 8008 7997 7996 7995 ] final -100.49 input   59.86 | X-H torsion
[ 10167 10162 10161 10158 ] final -100.56 input  -65.29 | X-H torsion
[ 10718 10713 10712 10709 ] final   72.16 input   66.30 | X-H torsion
[ 10763 10752 10751 10750 ] final -105.24 input  -60.55 | X-H torsion
[ 11005 11000 10999 10996 ] final   37.84 input  -57.11 | X-H torsion

> <Gold.Protein.ActiveResidues>
 VAL166  LYS551  ARG553  GLY616  TRP617  ASP618  TYR619  PRO620  LYS621  CYS622 
 ASP623  PHE694  ASN695  SER759  ASP760  ASP761  ALA762  ILE779  LEU786  VAL792 
 PHE793  MET794  SER795  GLU796  ALA797  LYS798  CYS799  TRP800  GLU811  SER814 

> <Gold.Protein.RotatedAtoms>
  151.4319  133.3668  159.2769 H   0  0  0  0  0  0  0  0  0  0  0  0  # atno 6907 bound_to 6896
  150.9219  134.8638  159.7505 H   0  0  0  0  0  0  0  0  0  0  0  0  # atno 6908 bound_to 6896
  152.4986  134.4257  159.9547 H   0  0  0  0  0  0  0  0  0  0  0  0  # atno 6909 bound_to 6896
  145.2158  139.2885  143.4244 H   0  0  0  0  0  0  0  0  0  0  0  0  # atno 7974 bound_to 7965
  154.8293  140.0440  157.1465 H   0  0  0  0  0  0  0  0  0  0  0  0  # atno 8008 bound_to 7997
  154.9171  140.3021  155.5215 H   0  0  0  0  0  0  0  0  0  0  0  0  # atno 8009 bound_to 7997
  156.2986  140.2347  156.4216 H   0  0  0  0  0  0  0  0  0  0  0  0  # atno 8010 bound_to 7997
  140.2505  143.3475  152.0719 H   0  0  0  0  0  0  0  0  0  0  0  0  # atno 10167 bound_to 10162
  157.6487  130.9564  150.0889 H   0  0  0  0  0  0  0  0  0  0  0  0  # atno 10718 bound_to 10713
  154.7933  135.4756  154.0103 H   0  0  0  0  0  0  0  0  0  0  0  0  # atno 10763 bound_to 10752
  153.1664  135.6817  153.8676 H   0  0  0  0  0  0  0  0  0  0  0  0  # atno 10764 bound_to 10752
  153.8273  135.3196  155.3393 H   0  0  0  0  0  0  0  0  0  0  0  0  # atno 10765 bound_to 10752
  140.2186  134.3669  155.8015 H   0  0  0  0  0  0  0  0  0  0  0  0  # atno 11005 bound_to 11000
  146.3387  140.2448  142.8597 LP  0  0  0  0  0  0  0  0  0  0  0  0  # atno 17320 bound_to 7965
  144.9812  140.8461  143.5396 LP  0  0  0  0  0  0  0  0  0  0  0  0  # atno 17321 bound_to 7965
  139.5048  144.6782  151.6076 LP  0  0  0  0  0  0  0  0  0  0  0  0  # atno 17342 bound_to 10162
  140.6044  143.9552  150.6408 LP  0  0  0  0  0  0  0  0  0  0  0  0  # atno 17343 bound_to 10162
  156.1844  130.3651  149.8992 LP  0  0  0  0  0  0  0  0  0  0  0  0  # atno 17370 bound_to 10713
  156.6936  130.8905  151.3591 LP  0  0  0  0  0  0  0  0  0  0  0  0  # atno 17371 bound_to 10713
  141.2224  133.7181  156.8537 LP  0  0  0  0  0  0  0  0  0  0  0  0  # atno 17394 bound_to 11000
  140.1874  134.8990  157.3020 LP  0  0  0  0  0  0  0  0  0  0  0  0  # atno 17395 bound_to 11000

$$$$
