AV-unprocessed.smi:224|AV-procd|sdf|1713|dock2
  -GOLD-   2262020183D 1   1.00000     0.00000
 Structure written by MMmdl.
 56 59  0  0  0  0  0  0  0  0  2 V2000
  144.6668  134.5538  150.5280 C   0  0  0  0  0  0  0  0  0  0  0  0
  145.5935  134.8570  151.7125 C   0  0  2  0  0  0  0  0  0  0  0  0
  146.4353  135.9294  151.3392 O   0  0  0  0  0  0  0  0  0  0  0  0
  146.4535  133.6341  152.0912 C   0  0  0  0  0  0  0  0  0  0  0  0
  147.5705  133.9722  153.0124 N   0  3  1  0  0  0  0  0  0  0  0  0
  147.1549  134.7664  154.2002 C   0  0  0  0  0  0  0  0  0  0  0  0
  148.3800  135.2049  155.0223 C   0  0  0  0  0  0  0  0  0  0  0  0
  149.2228  134.0612  155.3658 N   0  0  0  0  0  0  0  0  0  0  0  0
  149.0225  133.4117  156.5449 C   0  0  0  0  0  0  0  0  0  0  0  0
  149.4159  132.1159  156.6718 N   0  0  0  0  0  0  0  0  0  0  0  0
  149.2399  131.4614  157.8228 C   0  0  0  0  0  0  0  0  0  0  0  0
  148.6950  131.9027  158.9567 N   0  0  0  0  0  0  0  0  0  0  0  0
  148.2872  133.1981  158.8382 C   0  0  0  0  0  0  0  0  0  0  0  0
  148.4098  134.0184  157.6800 C   0  0  0  0  0  0  0  0  0  0  0  0
  147.8639  135.2716  157.9345 N   0  0  0  0  0  0  0  0  0  0  0  0
  147.4552  135.2001  159.1716 C   0  0  0  0  0  0  0  0  0  0  0  0
  147.6733  133.9912  159.7918 N   0  0  0  0  0  0  0  0  0  0  0  0
  147.3128  133.6378  161.1563 C   0  0  0  0  0  0  0  0  0  0  0  0
  146.8441  134.8445  162.0018 C   0  0  2  0  0  0  0  0  0  0  0  0
  146.6165  134.4132  163.3329 O   0  0  0  0  0  0  0  0  0  0  0  0
  145.5754  135.5163  161.4847 C   0  0  0  0  0  0  0  0  0  0  0  0
  145.7765  136.9715  161.8827 C   0  0  0  0  0  0  0  0  0  0  0  0
  147.1572  137.1714  161.6331 O   0  0  0  0  0  0  0  0  0  0  0  0
  147.8638  136.0010  162.0314 C   0  0  0  0  0  0  0  0  0  0  0  0
  149.6426  133.2601  154.2170 C   0  0  0  0  0  0  0  0  0  0  0  0
  148.4382  132.8071  153.3610 C   0  0  1  0  0  0  0  0  0  0  0  0
  147.6651  131.6411  154.0146 C   0  0  0  0  0  0  0  0  0  0  0  0
  143.9768  133.7445  150.7679 H   0  0  0  0  0  0  0  0  0  0  0  0
  145.2330  134.2574  149.6443 H   0  0  0  0  0  0  0  0  0  0  0  0
  144.0693  135.4265  150.2624 H   0  0  0  0  0  0  0  0  0  0  0  0
  144.9779  135.1785  152.5518 H   0  0  0  0  0  0  0  0  0  0  0  0
  147.3001  135.7777  151.6875 H   0  0  0  0  0  0  0  0  0  0  0  0
  145.8324  132.8633  152.5503 H   0  0  0  0  0  0  0  0  0  0  0  0
  146.8535  133.1981  151.1741 H   0  0  0  0  0  0  0  0  0  0  0  0
  146.6062  135.6553  153.8925 H   0  0  0  0  0  0  0  0  0  0  0  0
  146.4716  134.1810  154.8160 H   0  0  0  0  0  0  0  0  0  0  0  0
  148.9815  135.8995  154.4346 H   0  0  0  0  0  0  0  0  0  0  0  0
  148.0740  135.7562  155.9123 H   0  0  0  0  0  0  0  0  0  0  0  0
  149.5852  130.4382  157.8374 H   0  0  0  0  0  0  0  0  0  0  0  0
  146.9802  136.0328  159.6702 H   0  0  0  0  0  0  0  0  0  0  0  0
  146.5304  132.8786  161.1178 H   0  0  0  0  0  0  0  0  0  0  0  0
  148.1750  133.1623  161.6256 H   0  0  0  0  0  0  0  0  0  0  0  0
  147.3991  134.5750  163.8374 H   0  0  0  0  0  0  0  0  0  0  0  0
  145.5344  135.4575  160.3967 H   0  0  0  0  0  0  0  0  0  0  0  0
  144.6540  135.0830  161.8760 H   0  0  0  0  0  0  0  0  0  0  0  0
  145.1586  137.6585  161.3041 H   0  0  0  0  0  0  0  0  0  0  0  0
  145.5663  137.1233  162.9425 H   0  0  0  0  0  0  0  0  0  0  0  0
  148.2885  136.1504  163.0256 H   0  0  0  0  0  0  0  0  0  0  0  0
  148.6950  135.8387  161.3444 H   0  0  0  0  0  0  0  0  0  0  0  0
  150.3034  133.8805  153.6107 H   0  0  0  0  0  0  0  0  0  0  0  0
  150.2334  132.3930  154.5060 H   0  0  0  0  0  0  0  0  0  0  0  0
  148.8487  132.4256  152.4251 H   0  0  0  0  0  0  0  0  0  0  0  0
  148.3427  130.8260  154.2704 H   0  0  0  0  0  0  0  0  0  0  0  0
  146.9116  131.2286  153.3441 H   0  0  0  0  0  0  0  0  0  0  0  0
  147.1604  131.9412  154.9320 H   0  0  0  0  0  0  0  0  0  0  0  0
  148.1742  134.5822  152.4805 H   0  0  0  0  0  0  0  0  0  0  0  0
  1  2  1  0  0  0  0
  1 28  1  0  0  0  0
  1 29  1  0  0  0  0
  1 30  1  0  0  0  0
  2  3  1  0  0  0  0
  2  4  1  0  0  0  0
  2 31  1  0  0  0  0
  3 32  1  0  0  0  0
  4  5  1  0  0  0  0
  4 33  1  0  0  0  0
  4 34  1  0  0  0  0
  5 26  1  0  0  0  0
  5  6  1  0  0  0  0
  5 56  1  0  0  0  0
  6  7  1  0  0  0  0
  6 35  1  0  0  0  0
  6 36  1  0  0  0  0
  7  8  1  0  0  0  0
  7 37  1  0  0  0  0
  7 38  1  0  0  0  0
  8  9  1  0  0  0  0
  8 25  1  0  0  0  0
  9 14  1  0  0  0  0
  9 10  2  0  0  0  0
 10 11  1  0  0  0  0
 11 12  2  0  0  0  0
 11 39  1  0  0  0  0
 12 13  1  0  0  0  0
 13 17  1  0  0  0  0
 13 14  2  0  0  0  0
 14 15  1  0  0  0  0
 15 16  2  0  0  0  0
 16 17  1  0  0  0  0
 16 40  1  0  0  0  0
 17 18  1  0  0  0  0
 18 19  1  0  0  0  0
 18 41  1  0  0  0  0
 18 42  1  0  0  0  0
 19 24  1  0  0  0  0
 19 20  1  0  0  0  0
 19 21  1  0  0  0  0
 20 43  1  0  0  0  0
 21 22  1  0  0  0  0
 21 44  1  0  0  0  0
 21 45  1  0  0  0  0
 22 23  1  0  0  0  0
 22 46  1  0  0  0  0
 22 47  1  0  0  0  0
 23 24  1  0  0  0  0
 24 48  1  0  0  0  0
 24 49  1  0  0  0  0
 25 26  1  0  0  0  0
 25 50  1  0  0  0  0
 25 51  1  0  0  0  0
 26 27  1  0  0  0  0
 26 52  1  0  0  0  0
 27 53  1  0  0  0  0
 27 54  1  0  0  0  0
 27 55  1  0  0  0  0
M  CHG  1   5   1
M  END
> <s_m_source_file>
AV-unprocessed.smi

> <i_m_source_file_index>
224

> <i_lp_mmshare_version>
43012

> <i_f3d_flags>
0

> <s_epik_input>
W0NIM11bQ0BIXShbT0hdKVtDSDJdTjFbQ0gyXVtDSDJdTihbQ0gyXVtDQEhdMVtDSDNdKWMobltjSF1uMiljKGMyMyluW2NIXW4zW0NIMl1bQ0BAXTQoW09IXSlbQ0gyXVtDSDJdT1tDSDJdNA==

> <s_epik_cmdline>
J2VwaWtfcHl0aG9uJywgJy1waCcsICc3LjAnLCAnLXRuJywgJzgnLCAnLW1hJywgJzIwMCcsICctbWV0YWxfYmluZGluZycsICctaW1hZScsICc8aW5maWxlLm1hZT4nLCAnLW9tYWUnLCAnPG91dGZpbGUubWFlPic=

> <r_lp_tautomer_probability>
1

> <r_epik_Ionization_Penalty>
0.00516958

> <r_epik_Ionization_Penalty_Charging>
0.00509693

> <r_epik_Ionization_Penalty_Neutral>
7.26542e-05

> <r_epik_State_Penalty>
-0

> <r_epik_Charging_Adjusted_Penalty>
0.00509693

> <i_epik_Tot_Q>
1

> <i_epik_Tot_abs_Q>
1

> <r_epik_Metal_State_Penalty>
-0

> <b_epik_Metal_Only>
0

> <s_lp_Force_Field>
OPLS_2005

> <r_lp_Energy>
51.1284

> <b_lp_Chiralities_Consistent>
1

> <s_lp_Variant>
AV-unprocessed.smi:224-7

> <Gold.Version>
5.8.1

> <Gold.Id.Protein>
6NUR|6NUR_protein|mol2

> <Gold.PLP.Fitness>
51.1820

> <Gold.PLP.PLP>
-39.1508

> <Gold.PLP.part.hbond>
-5.0000

> <Gold.PLP.part.metal>
0.0000

> <Gold.PLP.part.buried>
-6.4528

> <Gold.PLP.part.nonpolar>
-28.0682

> <Gold.PLP.part.repulsive>
0.0000

> <Gold.PLP.ligand.clash>
0.1613

> <Gold.PLP.ligand.torsion>
0.3567

> <Gold.PLP.Chemscore.Hbond>
4.1744

> <Gold.PLP.Chemscore.CHOScore>
0.0000

> <Gold.PLP.Chemscore.Metal>
0.0000

> <Gold.Chemscore.Hbonds>
donor molecule, donor type, donor heavy atom, donor atom, acceptor molecule, acceptor atom, score
      L1  H     3    32       P1  7948  1.00
      L1  H     5    56       P1  7948  2.00
      P1  H  6931  6943       L1    23  0.19
      P1  H  6934  6947       L1    23  0.94

> <Gold.PLP.Chemscore.Internal.Correction>
0.3827

> <Gold.Rescore>
     Score         DG    S(hbond)    S(metal)    S(lipo)     H(rot)  DE(clash)    DE(int)     intcor
     12.05     -15.35       2.71        0.00      73.16       3.02       0.47       2.83       ----

> <Gold.Chemscore.Fitness>
12.0455

> <Gold.Chemscore.DG>
-15.3455

> <Gold.Chemscore.ZeroCoef>
-5.4800

> <Gold.Chemscore.Hbond>
2.7079

> <Gold.Chemscore.Metal>
0.0000

> <Gold.Chemscore.Lipo>
73.1645

> <Gold.Chemscore.Internal_Hbond>
0.0000

> <Gold.Chemscore.DEClash>
0.4660

> <Gold.Chemscore.DEInternal>
2.8340

> <Gold.Chemscore.Rot>
3.0231

> <Gold.Chemscore.Internal.Correction>
   9.000000E+99

> <Gold.Chemscore.Hbonds>
donor molecule, donor type, donor heavy atom, donor atom, acceptor molecule, acceptor atom, score
      L1  H     3    32       P1  7948  0.94
      L1  H     5    56       P1  7948  0.35
      P1  H  6934  6947       L1    23  0.31

> <Gold.Chemscore.Hbond.Weighted>
-9.0444

> <Gold.Chemscore.Metal.Weighted>
-0.0000

> <Gold.Chemscore.Lipo.Weighted>
-8.5602

> <Gold.Chemscore.Internal_Hbond.Weighted>
0.0000

> <Gold.Chemscore.DEClash.Weighted>
0.4660

> <Gold.Chemscore.DEInternal.Weighted>
2.8340

> <Gold.Chemscore.Rot.Weighted>
7.7391

> <Gold.Chemscore.Internal.Correction.Weighted>
   9.000000E+99

> <Gold.Protein.RotatedTorsions>
[ 6907 6896 6895 6894 ] final  -21.11 input  -60.11 | X-H torsion
[ 7974 7965 7964 7962 ] final  -26.73 input  175.53 | X-H torsion
[ 8008 7997 7996 7995 ] final -172.66 input   59.86 | X-H torsion
[ 10167 10162 10161 10158 ] final   90.80 input  -65.29 | X-H torsion
[ 10718 10713 10712 10709 ] final -162.19 input   66.30 | X-H torsion
[ 10763 10752 10751 10750 ] final  -55.45 input  -60.55 | X-H torsion
[ 11005 11000 10999 10996 ] final  178.96 input  -57.11 | X-H torsion

> <Gold.Protein.ActiveResidues>
 VAL166  LYS551  ARG553  GLY616  TRP617  ASP618  TYR619  PRO620  LYS621  CYS622 
 ASP623  PHE694  ASN695  SER759  ASP760  ASP761  ALA762  ILE779  LEU786  VAL792 
 PHE793  MET794  SER795  GLU796  ALA797  LYS798  CYS799  TRP800  GLU811  SER814 

> <Gold.Protein.RotatedAtoms>
  151.2381  135.0579  159.9014 H   0  0  0  0  0  0  0  0  0  0  0  0  # atno 6907 bound_to 6896
  152.5396  134.0464  159.8100 H   0  0  0  0  0  0  0  0  0  0  0  0  # atno 6908 bound_to 6896
  151.0653  133.5461  159.2662 H   0  0  0  0  0  0  0  0  0  0  0  0  # atno 6909 bound_to 6896
  146.1406  140.5058  142.8654 H   0  0  0  0  0  0  0  0  0  0  0  0  # atno 7974 bound_to 7965
  155.9475  140.1120  157.1005 H   0  0  0  0  0  0  0  0  0  0  0  0  # atno 8008 bound_to 7997
  154.4102  140.1207  156.5074 H   0  0  0  0  0  0  0  0  0  0  0  0  # atno 8009 bound_to 7997
  155.6885  140.3473  155.4886 H   0  0  0  0  0  0  0  0  0  0  0  0  # atno 8010 bound_to 7997
  139.8437  144.6628  150.9252 H   0  0  0  0  0  0  0  0  0  0  0  0  # atno 10167 bound_to 10162
  156.6069  130.8834  151.2927 H   0  0  0  0  0  0  0  0  0  0  0  0  # atno 10718 bound_to 10713
  154.1910  135.6427  153.5060 H   0  0  0  0  0  0  0  0  0  0  0  0  # atno 10763 bound_to 10752
  153.0035  135.5428  154.6415 H   0  0  0  0  0  0  0  0  0  0  0  0  # atno 10764 bound_to 10752
  154.5804  135.2924  155.0711 H   0  0  0  0  0  0  0  0  0  0  0  0  # atno 10765 bound_to 10752
  140.4009  134.6778  157.4561 H   0  0  0  0  0  0  0  0  0  0  0  0  # atno 11005 bound_to 11000
  144.7788  140.5796  143.6620 LP  0  0  0  0  0  0  0  0  0  0  0  0  # atno 17320 bound_to 7965
  145.5056  139.1481  143.3633 LP  0  0  0  0  0  0  0  0  0  0  0  0  # atno 17321 bound_to 7965
  140.7795  143.3889  151.1344 LP  0  0  0  0  0  0  0  0  0  0  0  0  # atno 17342 bound_to 10162
  139.7533  143.8745  152.3082 LP  0  0  0  0  0  0  0  0  0  0  0  0  # atno 17343 bound_to 10162
  157.7264  130.9629  150.1657 LP  0  0  0  0  0  0  0  0  0  0  0  0  # atno 17370 bound_to 10713
  156.2422  130.3692  149.8325 LP  0  0  0  0  0  0  0  0  0  0  0  0  # atno 17371 bound_to 10713
  140.0337  134.6368  155.9072 LP  0  0  0  0  0  0  0  0  0  0  0  0  # atno 17394 bound_to 11000
  141.1857  133.6555  156.5209 LP  0  0  0  0  0  0  0  0  0  0  0  0  # atno 17395 bound_to 11000

$$$$
