AV-unprocessed.smi:1965|AV-procd|sdf|7942|dock5
  -GOLD-   2272010113D 1   1.00000     0.00000
 Structure written by MMmdl.
 36 38  0  0  0  0  0  0  0  0  3 V2000
  150.3291  140.5835  157.4170 O   0  0  0  0  0  0  0  0  0  0  0  0
  150.1961  141.6339  156.7904 C   0  0  0  0  0  0  0  0  0  0  0  0
  150.0877  141.6908  155.4375 N   0  5  0  0  0  0  0  0  0  0  0  0
  148.9122  141.5446  154.7983 C   0  0  0  0  0  0  0  0  0  0  0  0
  148.8129  141.1212  153.5329 N   0  0  0  0  0  0  0  0  0  0  0  0
  147.4961  141.0407  153.0762 C   0  0  0  0  0  0  0  0  0  0  0  0
  146.5716  141.4141  154.0152 C   0  0  0  0  0  0  0  0  0  0  0  0
  147.3317  141.8838  155.5087 S   0  0  0  0  0  0  0  0  0  0  0  0
  150.1535  142.7947  157.4702 N   0  0  0  0  0  0  0  0  0  0  0  0
  150.2851  142.9485  158.9132 C   0  0  2  0  0  0  0  0  0  0  0  0
  150.0929  144.3914  159.4190 C   0  0  0  0  0  0  0  0  0  0  0  0
  151.1225  144.5651  160.5533 C   0  0  0  0  0  0  0  0  0  0  0  0
  151.7691  143.2466  160.6994 N   0  3  2  0  0  0  0  0  0  0  0  0
  153.1301  143.2210  161.2780 C   0  0  0  0  0  0  0  0  0  0  0  0
  153.5990  141.7576  161.4131 C   0  0  0  0  0  0  0  0  0  0  0  0
  153.4812  140.9912  160.0792 C   0  0  0  0  0  0  0  0  0  0  0  0
  152.0670  141.1290  159.4828 C   0  0  0  0  0  0  0  0  0  0  0  0
  151.7024  142.6179  159.3724 C   0  0  1  0  0  0  0  0  0  0  0  0
  147.3087  140.7079  152.0661 H   0  0  0  0  0  0  0  0  0  0  0  0
  145.4966  141.4450  153.9203 H   0  0  0  0  0  0  0  0  0  0  0  0
  150.0328  143.6394  156.9305 H   0  0  0  0  0  0  0  0  0  0  0  0
  149.5789  142.2881  159.4206 H   0  0  0  0  0  0  0  0  0  0  0  0
  150.2881  145.1183  158.6289 H   0  0  0  0  0  0  0  0  0  0  0  0
  149.0717  144.5523  159.7665 H   0  0  0  0  0  0  0  0  0  0  0  0
  151.8612  145.3183  160.2746 H   0  0  0  0  0  0  0  0  0  0  0  0
  150.6602  144.8742  161.4912 H   0  0  0  0  0  0  0  0  0  0  0  0
  153.8146  143.7848  160.6423 H   0  0  0  0  0  0  0  0  0  0  0  0
  153.1219  143.7059  162.2547 H   0  0  0  0  0  0  0  0  0  0  0  0
  154.6280  141.7263  161.7725 H   0  0  0  0  0  0  0  0  0  0  0  0
  152.9944  141.2546  162.1690 H   0  0  0  0  0  0  0  0  0  0  0  0
  154.2129  141.3821  159.3706 H   0  0  0  0  0  0  0  0  0  0  0  0
  153.7262  139.9389  160.2266 H   0  0  0  0  0  0  0  0  0  0  0  0
  152.0244  140.6556  158.5012 H   0  0  0  0  0  0  0  0  0  0  0  0
  151.3447  140.6096  160.1141 H   0  0  0  0  0  0  0  0  0  0  0  0
  152.4176  143.1188  158.7150 H   0  0  0  0  0  0  0  0  0  0  0  0
  151.1720  142.6992  161.3025 H   0  0  0  0  0  0  0  0  0  0  0  0
  1  2  2  0  0  0  0
  2  3  1  0  0  0  0
  2  9  1  0  0  0  0
  3  4  1  0  0  0  0
  4  8  1  0  0  0  0
  4  5  2  0  0  0  0
  5  6  1  0  0  0  0
  6  7  2  0  0  0  0
  6 19  1  0  0  0  0
  7  8  1  0  0  0  0
  7 20  1  0  0  0  0
  9 10  1  0  0  0  0
  9 21  1  0  0  0  0
 10 18  1  0  0  0  0
 10 11  1  0  0  0  0
 10 22  1  0  0  0  0
 11 12  1  0  0  0  0
 11 23  1  0  0  0  0
 11 24  1  0  0  0  0
 12 13  1  0  0  0  0
 12 25  1  0  0  0  0
 12 26  1  0  0  0  0
 13 18  1  0  0  0  0
 13 14  1  0  0  0  0
 13 36  1  0  0  0  0
 14 15  1  0  0  0  0
 14 27  1  0  0  0  0
 14 28  1  0  0  0  0
 15 16  1  0  0  0  0
 15 29  1  0  0  0  0
 15 30  1  0  0  0  0
 16 17  1  0  0  0  0
 16 31  1  0  0  0  0
 16 32  1  0  0  0  0
 17 18  1  0  0  0  0
 17 33  1  0  0  0  0
 17 34  1  0  0  0  0
 18 35  1  0  0  0  0
M  CHG  1   3  -1
M  CHG  1  13   1
M  END
> <s_m_source_file>
AV-unprocessed.smi

> <i_m_source_file_index>
1965

> <i_lp_mmshare_version>
43012

> <i_f3d_flags>
0

> <s_epik_input>
czFbY0hdW2NIXW5jMVtOSF1DKD1PKVtOSF1bQ0BIXShbQ0gyXVtDSDJdMilbQ0BASF0oTjIzKVtDSDJdW0NIMl1bQ0gyXVtDSDJdMw==

> <s_epik_cmdline>
J2VwaWtfcHl0aG9uJywgJy1waCcsICc3LjAnLCAnLXRuJywgJzgnLCAnLW1hJywgJzIwMCcsICctbWV0YWxfYmluZGluZycsICctaW1hZScsICc8aW5maWxlLm1hZT4nLCAnLW9tYWUnLCAnPG91dGZpbGUubWFlPic=

> <r_lp_tautomer_probability>
1

> <r_epik_Ionization_Penalty>
7.4116

> <r_epik_Ionization_Penalty_Charging>
6.13869

> <r_epik_Ionization_Penalty_Neutral>
1.27291

> <r_epik_State_Penalty>
6.13761

> <r_epik_Charging_Adjusted_Penalty>
12.2763

> <i_epik_Tot_Q>
0

> <i_epik_Tot_abs_Q>
2

> <r_epik_Metal_State_Penalty>
2.08142

> <b_epik_Metal_Only>
1

> <s_lp_Force_Field>
OPLS_2005

> <r_lp_Energy>
26.2692

> <b_lp_Chiralities_Consistent>
1

> <s_lp_Variant>
AV-unprocessed.smi:1965-11

> <Gold.Version>
5.8.1

> <Gold.Id.Protein>
6NUR|6NUR_protein|mol2

> <Gold.PLP.Fitness>
37.7893

> <Gold.PLP.PLP>
-29.1612

> <Gold.PLP.part.hbond>
-2.3987

> <Gold.PLP.part.metal>
0.0000

> <Gold.PLP.part.buried>
-4.9174

> <Gold.PLP.part.nonpolar>
-25.5450

> <Gold.PLP.part.repulsive>
2.9374

> <Gold.PLP.ligand.clash>
0.0000

> <Gold.PLP.ligand.torsion>
0.9229

> <Gold.PLP.Chemscore.Hbond>
1.9680

> <Gold.PLP.Chemscore.CHOScore>
1.5197

> <Gold.PLP.Chemscore.Metal>
0.0000

> <Gold.Chemscore.Hbonds>
donor molecule, donor type, donor heavy atom, donor atom, acceptor molecule, acceptor atom, score
      L1  H     9    21       P1  8028  0.98
      P1  H  8011  8017       L1     5  0.96
      L1  C     6    19       P1  7957  0.52
      L1  C     7    20       P1 10175  1.00

> <Gold.PLP.Chemscore.Internal.Correction>
0.0110

> <Gold.Rescore>
     Score         DG    S(hbond)    S(metal)    S(lipo)     H(rot)  DE(clash)    DE(int)     intcor
     14.18     -18.10       1.45        0.00      88.24       1.00       1.53       2.39       ----

> <Gold.Chemscore.Fitness>
14.1811

> <Gold.Chemscore.DG>
-18.0966

> <Gold.Chemscore.ZeroCoef>
-5.4800

> <Gold.Chemscore.Hbond>
1.4528

> <Gold.Chemscore.Metal>
0.0000

> <Gold.Chemscore.Lipo>
88.2402

> <Gold.Chemscore.Internal_Hbond>
0.0000

> <Gold.Chemscore.DEClash>
1.5300

> <Gold.Chemscore.DEInternal>
2.3855

> <Gold.Chemscore.Rot>
1.0000

> <Gold.Chemscore.Internal.Correction>
   9.000000E+99

> <Gold.Chemscore.Hbonds>
donor molecule, donor type, donor heavy atom, donor atom, acceptor molecule, acceptor atom, score
      L1  H     9    21       P1  8028  0.89
      P1  H  8011  8017       L1     5  0.37

> <Gold.Chemscore.Hbond.Weighted>
-4.8525

> <Gold.Chemscore.Metal.Weighted>
-0.0000

> <Gold.Chemscore.Lipo.Weighted>
-10.3241

> <Gold.Chemscore.Internal_Hbond.Weighted>
0.0000

> <Gold.Chemscore.DEClash.Weighted>
1.5300

> <Gold.Chemscore.DEInternal.Weighted>
2.3855

> <Gold.Chemscore.Rot.Weighted>
2.5600

> <Gold.Chemscore.Internal.Correction.Weighted>
   9.000000E+99

> <Gold.Protein.RotatedTorsions>
[ 6907 6896 6895 6894 ] final  -93.56 input  -60.11 | X-H torsion
[ 7974 7965 7964 7962 ] final   11.94 input  175.53 | X-H torsion
[ 8008 7997 7996 7995 ] final  109.15 input   59.86 | X-H torsion
[ 10167 10162 10161 10158 ] final -129.51 input  -65.29 | X-H torsion
[ 10718 10713 10712 10709 ] final    5.19 input   66.30 | X-H torsion
[ 10763 10752 10751 10750 ] final   44.90 input  -60.55 | X-H torsion
[ 11005 11000 10999 10996 ] final  -81.26 input  -57.11 | X-H torsion

> <Gold.Protein.ActiveResidues>
 VAL166  LYS551  ARG553  GLY616  TRP617  ASP618  TYR619  PRO620  LYS621  CYS622 
 ASP623  PHE694  ASN695  SER759  ASP760  ASP761  ALA762  ILE779  LEU786  VAL792 
 PHE793  MET794  SER795  GLU796  ALA797  LYS798  CYS799  TRP800  GLU811  SER814 

> <Gold.Protein.RotatedAtoms>
  150.6925  134.1948  159.4298 H   0  0  0  0  0  0  0  0  0  0  0  0  # atno 6907 bound_to 6896
  151.9917  134.9973  160.0571 H   0  0  0  0  0  0  0  0  0  0  0  0  # atno 6908 bound_to 6896
  152.1661  133.4578  159.4922 H   0  0  0  0  0  0  0  0  0  0  0  0  # atno 6909 bound_to 6896
  146.2361  139.9410  142.8483 H   0  0  0  0  0  0  0  0  0  0  0  0  # atno 7974 bound_to 7965
  156.1957  140.3063  155.9423 H   0  0  0  0  0  0  0  0  0  0  0  0  # atno 8008 bound_to 7997
  155.3070  140.0449  157.3050 H   0  0  0  0  0  0  0  0  0  0  0  0  # atno 8009 bound_to 7997
  154.5507  140.2290  155.8499 H   0  0  0  0  0  0  0  0  0  0  0  0  # atno 8010 bound_to 7997
  139.9390  143.6185  152.2509 H   0  0  0  0  0  0  0  0  0  0  0  0  # atno 10167 bound_to 10162
  156.9037  130.5731  149.5647 H   0  0  0  0  0  0  0  0  0  0  0  0  # atno 10718 bound_to 10713
  152.9833  135.6056  154.3349 H   0  0  0  0  0  0  0  0  0  0  0  0  # atno 10763 bound_to 10752
  154.3050  135.2772  155.2595 H   0  0  0  0  0  0  0  0  0  0  0  0  # atno 10764 bound_to 10752
  154.4830  135.5912  153.6459 H   0  0  0  0  0  0  0  0  0  0  0  0  # atno 10765 bound_to 10752
  141.1667  133.7188  156.8397 H   0  0  0  0  0  0  0  0  0  0  0  0  # atno 11005 bound_to 11000
  145.1952  140.9830  143.4187 LP  0  0  0  0  0  0  0  0  0  0  0  0  # atno 17320 bound_to 7965
  144.9822  139.3772  143.6256 LP  0  0  0  0  0  0  0  0  0  0  0  0  # atno 17321 bound_to 7965
  139.6720  144.7660  151.1765 LP  0  0  0  0  0  0  0  0  0  0  0  0  # atno 17342 bound_to 10162
  140.7616  143.5851  150.8854 LP  0  0  0  0  0  0  0  0  0  0  0  0  # atno 17343 bound_to 10162
  156.0569  130.5629  150.9111 LP  0  0  0  0  0  0  0  0  0  0  0  0  # atno 17370 bound_to 10713
  157.6010  131.0941  150.8960 LP  0  0  0  0  0  0  0  0  0  0  0  0  # atno 17371 bound_to 10713
  140.1992  134.8909  157.3150 LP  0  0  0  0  0  0  0  0  0  0  0  0  # atno 17394 bound_to 11000
  140.2205  134.4028  155.7568 LP  0  0  0  0  0  0  0  0  0  0  0  0  # atno 17395 bound_to 11000

$$$$
