AV-unprocessed.smi:334|AV-procd|sdf|2368|dock8
  -GOLD-   2262022283D 1   1.00000     0.00000
 Structure written by MMmdl.
 44 46  0  0  0  0  0  0  0  0  3 V2000
  149.1244  141.5069  157.9336 C   0  0  0  0  0  0  0  0  0  0  0  0
  150.4752  141.2755  157.2312 C   0  0  2  0  0  0  0  0  0  0  0  0
  150.9661  139.9422  157.5766 N   0  0  0  0  0  0  0  0  0  0  0  0
  151.2322  138.9577  156.7046 C   0  0  0  0  0  0  0  0  0  0  0  0
  151.0923  139.0774  155.4866 O   0  0  0  0  0  0  0  0  0  0  0  0
  151.7512  137.6468  157.3123 C   0  0  0  0  0  0  0  0  0  0  0  0
  150.6963  136.6377  157.5068 N   0  0  0  0  0  0  0  0  0  0  0  0
  149.7475  136.8895  158.5175 C   0  0  0  0  0  0  0  0  0  0  0  0
  148.7441  136.0315  158.7872 C   0  0  0  0  0  0  0  0  0  0  0  0
  147.7817  136.3039  159.8321 N   0  3  0  0  0  0  0  0  0  0  0  0
  147.9581  137.2795  160.5548 O   0  0  0  0  0  0  0  0  0  0  0  0
  146.8196  135.5536  159.9663 O   0  5  0  0  0  0  0  0  0  0  0  0
  148.6624  134.8192  157.9955 C   0  0  0  0  0  0  0  0  0  0  0  0
  149.5685  134.5714  157.0295 C   0  0  0  0  0  0  0  0  0  0  0  0
  150.6617  135.5051  156.7400 C   0  0  0  0  0  0  0  0  0  0  0  0
  151.4950  135.2826  155.8615 O   0  0  0  0  0  0  0  0  0  0  0  0
  151.5401  142.3333  157.6143 C   0  0  1  0  0  0  0  0  0  0  0  0
  151.2525  143.7438  157.0392 C   0  0  0  0  0  0  0  0  0  0  0  0
  151.3072  144.6528  158.2792 C   0  0  2  0  0  0  0  0  0  0  0  0
  152.7561  144.7425  158.7911 C   0  0  0  0  0  0  0  0  0  0  0  0
  152.9826  143.3499  159.4078 C   0  0  0  0  0  0  0  0  0  0  0  0
  151.6463  142.6335  159.1315 C   0  0  1  0  0  0  0  0  0  0  0  0
  150.6492  143.7706  159.3308 C   0  0  0  0  0  0  0  0  0  0  0  0
  148.6726  142.4544  157.6439 H   0  0  0  0  0  0  0  0  0  0  0  0
  149.2368  141.5090  159.0182 H   0  0  0  0  0  0  0  0  0  0  0  0
  148.4089  140.7247  157.6776 H   0  0  0  0  0  0  0  0  0  0  0  0
  150.3147  141.3240  156.1529 H   0  0  0  0  0  0  0  0  0  0  0  0
  151.1150  139.7559  158.5578 H   0  0  0  0  0  0  0  0  0  0  0  0
  152.5373  137.2596  156.6625 H   0  0  0  0  0  0  0  0  0  0  0  0
  152.2470  137.8591  158.2615 H   0  0  0  0  0  0  0  0  0  0  0  0
  149.8999  137.8146  159.0545 H   0  0  0  0  0  0  0  0  0  0  0  0
  147.8751  134.1010  158.1722 H   0  0  0  0  0  0  0  0  0  0  0  0
  149.4892  133.6611  156.4532 H   0  0  0  0  0  0  0  0  0  0  0  0
  152.5057  141.9829  157.2456 H   0  0  0  0  0  0  0  0  0  0  0  0
  151.9754  144.0369  156.2768 H   0  0  0  0  0  0  0  0  0  0  0  0
  150.2600  143.7991  156.5894 H   0  0  0  0  0  0  0  0  0  0  0  0
  150.8341  145.6238  158.1300 H   0  0  0  0  0  0  0  0  0  0  0  0
  153.4630  144.9644  157.9909 H   0  0  0  0  0  0  0  0  0  0  0  0
  152.8543  145.5190  159.5510 H   0  0  0  0  0  0  0  0  0  0  0  0
  153.8355  142.8314  158.9684 H   0  0  0  0  0  0  0  0  0  0  0  0
  153.1615  143.4324  160.4808 H   0  0  0  0  0  0  0  0  0  0  0  0
  151.4895  141.7738  159.7814 H   0  0  0  0  0  0  0  0  0  0  0  0
  150.6769  144.2000  160.3339 H   0  0  0  0  0  0  0  0  0  0  0  0
  149.6208  143.4993  159.0879 H   0  0  0  0  0  0  0  0  0  0  0  0
  1  2  1  0  0  0  0
  1 24  1  0  0  0  0
  1 25  1  0  0  0  0
  1 26  1  0  0  0  0
  2  3  1  0  0  0  0
  2 17  1  0  0  0  0
  2 27  1  0  0  0  0
  3  4  1  0  0  0  0
  3 28  1  0  0  0  0
  4  5  2  0  0  0  0
  4  6  1  0  0  0  0
  6  7  1  0  0  0  0
  6 29  1  0  0  0  0
  6 30  1  0  0  0  0
  7 15  1  0  0  0  0
  7  8  1  0  0  0  0
  8  9  2  0  0  0  0
  8 31  1  0  0  0  0
  9 10  1  0  0  0  0
  9 13  1  0  0  0  0
 10 11  2  0  0  0  0
 10 12  1  0  0  0  0
 13 14  2  0  0  0  0
 13 32  1  0  0  0  0
 14 15  1  0  0  0  0
 14 33  1  0  0  0  0
 15 16  2  0  0  0  0
 17 22  1  0  0  0  0
 17 18  1  0  0  0  0
 17 34  1  0  0  0  0
 18 19  1  0  0  0  0
 18 35  1  0  0  0  0
 18 36  1  0  0  0  0
 19 23  1  0  0  0  0
 19 20  1  0  0  0  0
 19 37  1  0  0  0  0
 20 21  1  0  0  0  0
 20 38  1  0  0  0  0
 20 39  1  0  0  0  0
 21 22  1  0  0  0  0
 21 40  1  0  0  0  0
 21 41  1  0  0  0  0
 22 23  1  0  0  0  0
 22 42  1  0  0  0  0
 23 43  1  0  0  0  0
 23 44  1  0  0  0  0
M  CHG  1  10   1
M  CHG  1  12  -1
M  END
> <s_m_source_file>
AV-unprocessed.smi

> <i_m_source_file_index>
334

> <i_lp_mmshare_version>
43012

> <i_f3d_flags>
0

> <s_epik_input>
W0NIMl0xW0NIMl1bQ0BIXShbQ0gyXTIpW0NAQEhdKFtDSDJdW0NAQEhdMTIpW0NASF0oW0NIM10pW05IXUMoPU8pW0NIMl1uM1tjSF1jKFtOK10oPU8pW08tXSlbY0hdW2NIXWMzPU8=

> <s_epik_cmdline>
J2VwaWtfcHl0aG9uJywgJy1waCcsICc3LjAnLCAnLXRuJywgJzgnLCAnLW1hJywgJzIwMCcsICctbWV0YWxfYmluZGluZycsICctaW1hZScsICc8aW5maWxlLm1hZT4nLCAnLW9tYWUnLCAnPG91dGZpbGUubWFlPic=

> <r_lp_tautomer_probability>
1

> <r_epik_Ionization_Penalty>
2.17081e-08

> <r_epik_Ionization_Penalty_Charging>
8.1195e-11

> <r_epik_Ionization_Penalty_Neutral>
2.16269e-08

> <r_epik_State_Penalty>
-0

> <r_epik_Charging_Adjusted_Penalty>
8.1195e-11

> <i_epik_Tot_Q>
0

> <i_epik_Tot_abs_Q>
2

> <r_epik_Metal_State_Penalty>
-0

> <b_epik_Metal_Only>
0

> <s_lp_Force_Field>
OPLS_2005

> <r_lp_Energy>
62.5387

> <b_lp_Chiralities_Consistent>
1

> <s_lp_Variant>
AV-unprocessed.smi:334-7

> <Gold.Version>
5.8.1

> <Gold.Id.Protein>
6NUR|6NUR_protein|mol2

> <Gold.PLP.Fitness>
39.2158

> <Gold.PLP.PLP>
-32.7945

> <Gold.PLP.part.hbond>
-3.0000

> <Gold.PLP.part.metal>
0.0000

> <Gold.PLP.part.buried>
-3.1262

> <Gold.PLP.part.nonpolar>
-26.4835

> <Gold.PLP.part.repulsive>
0.1086

> <Gold.PLP.ligand.clash>
0.0000

> <Gold.PLP.ligand.torsion>
0.6193

> <Gold.PLP.Chemscore.Hbond>
2.5360

> <Gold.PLP.Chemscore.CHOScore>
0.0000

> <Gold.PLP.Chemscore.Metal>
0.0000

> <Gold.Chemscore.Hbonds>
donor molecule, donor type, donor heavy atom, donor atom, acceptor molecule, acceptor atom, score
      P1  H  6931  6943       L1    11  0.74
      P1  H  6934  6947       L1    11  0.77
      P1  H 10752 10765       L1    16  1.00

> <Gold.PLP.Chemscore.Internal.Correction>
0.0519

> <Gold.Rescore>
     Score         DG    S(hbond)    S(metal)    S(lipo)     H(rot)  DE(clash)    DE(int)     intcor
     19.40     -20.99       2.43        0.00     101.52       1.75       0.49       1.10       ----

> <Gold.Chemscore.Fitness>
19.3987

> <Gold.Chemscore.DG>
-20.9891

> <Gold.Chemscore.ZeroCoef>
-5.4800

> <Gold.Chemscore.Hbond>
2.4266

> <Gold.Chemscore.Metal>
0.0000

> <Gold.Chemscore.Lipo>
101.5192

> <Gold.Chemscore.Internal_Hbond>
0.0000

> <Gold.Chemscore.DEClash>
0.4912

> <Gold.Chemscore.DEInternal>
1.0991

> <Gold.Chemscore.Rot>
1.7474

> <Gold.Chemscore.Internal.Correction>
   9.000000E+99

> <Gold.Chemscore.Hbonds>
donor molecule, donor type, donor heavy atom, donor atom, acceptor molecule, acceptor atom, score
      P1  H  6931  6943       L1    11  0.72
      P1  H  6934  6947       L1    11  0.75
      P1  H 10752 10765       L1    16  0.98

> <Gold.Chemscore.Hbond.Weighted>
-8.1047

> <Gold.Chemscore.Metal.Weighted>
-0.0000

> <Gold.Chemscore.Lipo.Weighted>
-11.8777

> <Gold.Chemscore.Internal_Hbond.Weighted>
0.0000

> <Gold.Chemscore.DEClash.Weighted>
0.4912

> <Gold.Chemscore.DEInternal.Weighted>
1.0991

> <Gold.Chemscore.Rot.Weighted>
4.4733

> <Gold.Chemscore.Internal.Correction.Weighted>
   9.000000E+99

> <Gold.Protein.RotatedTorsions>
[ 6907 6896 6895 6894 ] final  -98.35 input  -60.11 | X-H torsion
[ 7974 7965 7964 7962 ] final   24.93 input  175.53 | X-H torsion
[ 8008 7997 7996 7995 ] final    9.81 input   59.86 | X-H torsion
[ 10167 10162 10161 10158 ] final   83.55 input  -65.29 | X-H torsion
[ 10718 10713 10712 10709 ] final  113.00 input   66.30 | X-H torsion
[ 10763 10752 10751 10750 ] final -155.62 input  -60.55 | X-H torsion
[ 11005 11000 10999 10996 ] final -147.23 input  -57.11 | X-H torsion

> <Gold.Protein.ActiveResidues>
 VAL166  LYS551  ARG553  GLY616  TRP617  ASP618  TYR619  PRO620  LYS621  CYS622 
 ASP623  PHE694  ASN695  SER759  ASP760  ASP761  ALA762  ILE779  LEU786  VAL792 
 PHE793  MET794  SER795  GLU796  ALA797  LYS798  CYS799  TRP800  GLU811  SER814 

> <Gold.Protein.RotatedAtoms>
  150.7044  134.1208  159.4033 H   0  0  0  0  0  0  0  0  0  0  0  0  # atno 6907 bound_to 6896
  151.9195  135.0302  160.0530 H   0  0  0  0  0  0  0  0  0  0  0  0  # atno 6908 bound_to 6896
  152.2268  133.4991  159.5230 H   0  0  0  0  0  0  0  0  0  0  0  0  # atno 6909 bound_to 6896
  146.1914  139.7537  142.8829 H   0  0  0  0  0  0  0  0  0  0  0  0  # atno 7974 bound_to 7965
  154.7850  140.2825  155.6035 H   0  0  0  0  0  0  0  0  0  0  0  0  # atno 8008 bound_to 7997
  156.2956  140.2616  156.2612 H   0  0  0  0  0  0  0  0  0  0  0  0  # atno 8009 bound_to 7997
  154.9739  140.0375  157.2236 H   0  0  0  0  0  0  0  0  0  0  0  0  # atno 8010 bound_to 7997
  139.9172  144.6235  150.8477 H   0  0  0  0  0  0  0  0  0  0  0  0  # atno 10167 bound_to 10162
  157.6362  131.0976  150.6977 H   0  0  0  0  0  0  0  0  0  0  0  0  # atno 10718 bound_to 10713
  154.7773  135.3163  154.8064 H   0  0  0  0  0  0  0  0  0  0  0  0  # atno 10763 bound_to 10752
  153.8785  135.6837  153.4773 H   0  0  0  0  0  0  0  0  0  0  0  0  # atno 10764 bound_to 10752
  153.1400  135.4743  154.9418 H   0  0  0  0  0  0  0  0  0  0  0  0  # atno 10765 bound_to 10752
  140.7738  134.3158  157.5067 H   0  0  0  0  0  0  0  0  0  0  0  0  # atno 11005 bound_to 11000
  145.3781  141.0354  143.3193 LP  0  0  0  0  0  0  0  0  0  0  0  0  # atno 17320 bound_to 7965
  144.8494  139.5346  143.6863 LP  0  0  0  0  0  0  0  0  0  0  0  0  # atno 17321 bound_to 7965
  140.7671  143.3323  151.2384 LP  0  0  0  0  0  0  0  0  0  0  0  0  # atno 17342 bound_to 10162
  139.6892  143.9721  152.2850 LP  0  0  0  0  0  0  0  0  0  0  0  0  # atno 17343 bound_to 10162
  156.7308  130.4709  149.5500 LP  0  0  0  0  0  0  0  0  0  0  0  0  # atno 17370 bound_to 10713
  156.1604  130.6370  151.0711 LP  0  0  0  0  0  0  0  0  0  0  0  0  # atno 17371 bound_to 10713
  139.8752  134.9277  156.3431 LP  0  0  0  0  0  0  0  0  0  0  0  0  # atno 17394 bound_to 11000
  140.9548  133.7427  156.0321 LP  0  0  0  0  0  0  0  0  0  0  0  0  # atno 17395 bound_to 11000

$$$$
