AV-unprocessed.smi:1144|AV-procd|sdf|4881|dock10
  -GOLD-   22720 3453D 1   1.00000     0.00000
 Structure written by MMmdl.
 34 35  0  0  0  0  0  0  0  0  1 V2000
  153.7336  141.7460  160.8186 C   0  0  0  0  0  0  0  0  0  0  0  0
  153.1360  142.6100  159.8122 N   0  0  0  0  0  0  0  0  0  0  0  0
  152.5055  143.7778  160.4125 C   0  0  0  0  0  0  0  0  0  0  0  0
  151.8611  144.6829  159.3493 C   0  0  0  0  0  0  0  0  0  0  0  0
  150.9325  143.9248  158.5801 O   0  0  0  0  0  0  0  0  0  0  0  0
  151.5267  142.8037  157.9272 C   0  0  2  0  0  0  0  0  0  0  0  0
  150.4366  142.0704  157.1345 C   0  0  0  0  0  0  0  0  0  0  0  0
  150.9688  141.4642  155.9233 N   0  0  0  0  0  0  0  0  0  0  0  0
  150.7611  140.1479  155.5584 C   0  0  0  0  0  0  0  0  0  0  0  0
  150.4169  139.8878  154.2919 N   0  0  0  0  0  0  0  0  0  0  0  0
  150.2209  138.5931  153.9629 C   0  0  0  0  0  0  0  0  0  0  0  0
  150.3695  137.5568  154.9057 C   0  0  0  0  0  0  0  0  0  0  0  0
  150.7353  137.9479  156.2132 C   0  0  0  0  0  0  0  0  0  0  0  0
  150.9337  136.9381  157.3337 C   0  0  0  0  0  0  0  0  0  0  0  0
  149.8271  136.2269  157.5533 F   0  0  0  0  0  0  0  0  0  0  0  0
  151.9186  136.0989  157.0137 F   0  0  0  0  0  0  0  0  0  0  0  0
  151.2580  137.5738  158.4597 F   0  0  0  0  0  0  0  0  0  0  0  0
  150.9290  139.2492  156.5310 N   0  0  0  0  0  0  0  0  0  0  0  0
  152.1626  141.8937  158.9973 C   0  0  0  0  0  0  0  0  0  0  0  0
  154.4807  142.2887  161.3986 H   0  0  0  0  0  0  0  0  0  0  0  0
  154.2302  140.8952  160.3514 H   0  0  0  0  0  0  0  0  0  0  0  0
  152.9800  141.3633  161.5080 H   0  0  0  0  0  0  0  0  0  0  0  0
  151.7429  143.4609  161.1257 H   0  0  0  0  0  0  0  0  0  0  0  0
  153.2432  144.3486  160.9774 H   0  0  0  0  0  0  0  0  0  0  0  0
  151.3387  145.5135  159.8240 H   0  0  0  0  0  0  0  0  0  0  0  0
  152.6207  145.1133  158.6948 H   0  0  0  0  0  0  0  0  0  0  0  0
  152.3033  143.1503  157.2423 H   0  0  0  0  0  0  0  0  0  0  0  0
  150.0039  141.2812  157.7506 H   0  0  0  0  0  0  0  0  0  0  0  0
  149.6291  142.7568  156.8773 H   0  0  0  0  0  0  0  0  0  0  0  0
  151.4715  142.0524  155.2748 H   0  0  0  0  0  0  0  0  0  0  0  0
  149.9438  138.3821  152.9406 H   0  0  0  0  0  0  0  0  0  0  0  0
  150.2109  136.5240  154.6335 H   0  0  0  0  0  0  0  0  0  0  0  0
  152.6453  141.0447  158.5117 H   0  0  0  0  0  0  0  0  0  0  0  0
  151.3788  141.4828  159.6357 H   0  0  0  0  0  0  0  0  0  0  0  0
  1  2  1  0  0  0  0
  1 20  1  0  0  0  0
  1 21  1  0  0  0  0
  1 22  1  0  0  0  0
  2 19  1  0  0  0  0
  2  3  1  0  0  0  0
  3  4  1  0  0  0  0
  3 23  1  0  0  0  0
  3 24  1  0  0  0  0
  4  5  1  0  0  0  0
  4 25  1  0  0  0  0
  4 26  1  0  0  0  0
  5  6  1  0  0  0  0
  6  7  1  0  0  0  0
  6 19  1  0  0  0  0
  6 27  1  0  0  0  0
  7  8  1  0  0  0  0
  7 28  1  0  0  0  0
  7 29  1  0  0  0  0
  8  9  1  0  0  0  0
  8 30  1  0  0  0  0
  9 18  1  0  0  0  0
  9 10  2  0  0  0  0
 10 11  1  0  0  0  0
 11 12  2  0  0  0  0
 11 31  1  0  0  0  0
 12 13  1  0  0  0  0
 12 32  1  0  0  0  0
 13 14  1  0  0  0  0
 13 18  2  0  0  0  0
 14 15  1  0  0  0  0
 14 16  1  0  0  0  0
 14 17  1  0  0  0  0
 19 33  1  0  0  0  0
 19 34  1  0  0  0  0
M  END
> <s_m_source_file>
AV-unprocessed.smi

> <i_m_source_file_index>
1144

> <i_lp_mmshare_version>
43012

> <i_f3d_flags>
0

> <s_epik_input>
W0NIM11OMVtDSDJdW0NIMl1PW0NASF0oW0NIMl0xKVtDSDJdW05IXWMybltjSF1bY0hdYyhuMilDKEYpKEYpRg==

> <s_epik_cmdline>
J2VwaWtfcHl0aG9uJywgJy1waCcsICc3LjAnLCAnLXRuJywgJzgnLCAnLW1hJywgJzIwMCcsICctbWV0YWxfYmluZGluZycsICctaW1hZScsICc8aW5maWxlLm1hZT4nLCAnLW9tYWUnLCAnPG91dGZpbGUubWFlPic=

> <r_lp_tautomer_probability>
1

> <r_epik_Ionization_Penalty>
0.797829

> <r_epik_Ionization_Penalty_Charging>
0

> <r_epik_Ionization_Penalty_Neutral>
0.797829

> <r_epik_State_Penalty>
0.828842

> <r_epik_Charging_Adjusted_Penalty>
0.828842

> <i_epik_Tot_Q>
0

> <i_epik_Tot_abs_Q>
0

> <r_epik_Metal_State_Penalty>
0.828842

> <b_epik_Metal_Only>
0

> <s_lp_Force_Field>
OPLS_2005

> <r_lp_Energy>
14.496

> <b_lp_Chiralities_Consistent>
1

> <s_lp_Variant>
AV-unprocessed.smi:1144-6

> <Gold.Version>
5.8.1

> <Gold.Id.Protein>
6NUR|6NUR_protein|mol2

> <Gold.PLP.Fitness>
39.3001

> <Gold.PLP.PLP>
-32.2473

> <Gold.PLP.part.hbond>
-1.0000

> <Gold.PLP.part.metal>
0.0000

> <Gold.PLP.part.buried>
-6.0996

> <Gold.PLP.part.nonpolar>
-26.4582

> <Gold.PLP.part.repulsive>
0.4158

> <Gold.PLP.ligand.clash>
0.0000

> <Gold.PLP.ligand.torsion>
0.8608

> <Gold.PLP.Chemscore.Hbond>
1.0000

> <Gold.PLP.Chemscore.CHOScore>
1.9185

> <Gold.PLP.Chemscore.Metal>
0.0000

> <Gold.Chemscore.Hbonds>
donor molecule, donor type, donor heavy atom, donor atom, acceptor molecule, acceptor atom, score
      P1  H  7989  7998       L1    10  0.95
      L1  C    11    31       P1  7948  0.95
      L1  C    11    31       P1  7957  0.94

> <Gold.PLP.Chemscore.Internal.Correction>
0.0189

> <Gold.Rescore>
     Score         DG    S(hbond)    S(metal)    S(lipo)     H(rot)  DE(clash)    DE(int)     intcor
     13.88     -14.78       0.88        0.00      83.15       1.31       0.00       0.89       ----

> <Gold.Chemscore.Fitness>
13.8759

> <Gold.Chemscore.DG>
-14.7754

> <Gold.Chemscore.ZeroCoef>
-5.4800

> <Gold.Chemscore.Hbond>
0.8781

> <Gold.Chemscore.Metal>
0.0000

> <Gold.Chemscore.Lipo>
83.1524

> <Gold.Chemscore.Internal_Hbond>
0.0000

> <Gold.Chemscore.DEClash>
0.0048

> <Gold.Chemscore.DEInternal>
0.8947

> <Gold.Chemscore.Rot>
1.3149

> <Gold.Chemscore.Internal.Correction>
   9.000000E+99

> <Gold.Chemscore.Hbonds>
donor molecule, donor type, donor heavy atom, donor atom, acceptor molecule, acceptor atom, score
      P1  H  7989  7998       L1    10  0.21

> <Gold.Chemscore.Hbond.Weighted>
-2.9327

> <Gold.Chemscore.Metal.Weighted>
-0.0000

> <Gold.Chemscore.Lipo.Weighted>
-9.7288

> <Gold.Chemscore.Internal_Hbond.Weighted>
0.0000

> <Gold.Chemscore.DEClash.Weighted>
0.0048

> <Gold.Chemscore.DEInternal.Weighted>
0.8947

> <Gold.Chemscore.Rot.Weighted>
3.3662

> <Gold.Chemscore.Internal.Correction.Weighted>
   9.000000E+99

> <Gold.Protein.RotatedTorsions>
[ 6907 6896 6895 6894 ] final  -92.49 input  -60.11 | X-H torsion
[ 7974 7965 7964 7962 ] final  -64.68 input  175.53 | X-H torsion
[ 8008 7997 7996 7995 ] final  175.55 input   59.86 | X-H torsion
[ 10167 10162 10161 10158 ] final   42.42 input  -65.29 | X-H torsion
[ 10718 10713 10712 10709 ] final  103.44 input   66.30 | X-H torsion
[ 10763 10752 10751 10750 ] final -108.51 input  -60.55 | X-H torsion
[ 11005 11000 10999 10996 ] final  130.30 input  -57.11 | X-H torsion

> <Gold.Protein.ActiveResidues>
 VAL166  LYS551  ARG553  GLY616  TRP617  ASP618  TYR619  PRO620  LYS621  CYS622 
 ASP623  PHE694  ASN695  SER759  ASP760  ASP761  ALA762  ILE779  LEU786  VAL792 
 PHE793  MET794  SER795  GLU796  ALA797  LYS798  CYS799  TRP800  GLU811  SER814 

> <Gold.Protein.RotatedAtoms>
  150.6907  134.2114  159.4360 H   0  0  0  0  0  0  0  0  0  0  0  0  # atno 6907 bound_to 6896
  152.0075  134.9892  160.0576 H   0  0  0  0  0  0  0  0  0  0  0  0  # atno 6908 bound_to 6896
  152.1520  133.4493  159.4855 H   0  0  0  0  0  0  0  0  0  0  0  0  # atno 6909 bound_to 6896
  145.7637  140.8848  143.0416 H   0  0  0  0  0  0  0  0  0  0  0  0  # atno 7974 bound_to 7965
  156.0858  140.1406  156.9655 H   0  0  0  0  0  0  0  0  0  0  0  0  # atno 8008 bound_to 7997
  154.4612  140.0942  156.6946 H   0  0  0  0  0  0  0  0  0  0  0  0  # atno 8009 bound_to 7997
  155.5001  140.3450  155.4372 H   0  0  0  0  0  0  0  0  0  0  0  0  # atno 8010 bound_to 7997
  140.3545  144.2307  150.6143 H   0  0  0  0  0  0  0  0  0  0  0  0  # atno 10167 bound_to 10162
  157.6772  131.0779  150.5555 H   0  0  0  0  0  0  0  0  0  0  0  0  # atno 10718 bound_to 10713
  154.8140  135.4635  154.0592 H   0  0  0  0  0  0  0  0  0  0  0  0  # atno 10763 bound_to 10752
  153.2000  135.6867  153.8250 H   0  0  0  0  0  0  0  0  0  0  0  0  # atno 10764 bound_to 10752
  153.7737  135.3266  155.3333 H   0  0  0  0  0  0  0  0  0  0  0  0  # atno 10765 bound_to 10752
  139.9664  134.9589  156.9273 H   0  0  0  0  0  0  0  0  0  0  0  0  # atno 11005 bound_to 11000
  144.6825  139.9759  143.7483 LP  0  0  0  0  0  0  0  0  0  0  0  0  # atno 17320 bound_to 7965
  146.0238  139.3274  143.0796 LP  0  0  0  0  0  0  0  0  0  0  0  0  # atno 17321 bound_to 7965
  140.5187  143.2271  151.8423 LP  0  0  0  0  0  0  0  0  0  0  0  0  # atno 17342 bound_to 10162
  139.4822  144.4863  151.9242 LP  0  0  0  0  0  0  0  0  0  0  0  0  # atno 17343 bound_to 10162
  156.5859  130.4316  149.5957 LP  0  0  0  0  0  0  0  0  0  0  0  0  # atno 17370 bound_to 10713
  156.2623  130.6969  151.1742 LP  0  0  0  0  0  0  0  0  0  0  0  0  # atno 17371 bound_to 10713
  140.5388  134.0741  155.7335 LP  0  0  0  0  0  0  0  0  0  0  0  0  # atno 17394 bound_to 11000
  141.1343  133.9248  157.2467 LP  0  0  0  0  0  0  0  0  0  0  0  0  # atno 17395 bound_to 11000

$$$$
