AV-unprocessed.smi:2945|AV-procd|sdf|11279|dock5
  -GOLD-   2272016173D 1   1.00000     0.00000
 Structure written by MMmdl.
 36 37  0  0  0  0  0  0  0  0  1 V2000
  150.2470  134.0368  155.3539 C   0  0  0  0  0  0  0  0  0  0  0  0
  150.5639  135.4685  155.6193 C   0  0  0  0  0  0  0  0  0  0  0  0
  150.3805  136.2756  156.7068 C   0  0  0  0  0  0  0  0  0  0  0  0
  150.9112  137.5200  156.2744 C   0  0  0  0  0  0  0  0  0  0  0  0
  150.9108  138.6481  157.1339 N   0  0  0  0  0  0  0  0  0  0  0  0
  151.7091  139.7273  157.0706 C   0  0  0  0  0  0  0  0  0  0  0  0
  152.5863  139.9104  156.2262 O   0  0  0  0  0  0  0  0  0  0  0  0
  151.4287  140.5944  158.0551 N   0  0  0  0  0  0  0  0  0  0  0  0
  152.0827  141.8837  158.2781 C   0  0  1  0  0  0  0  0  0  0  0  0
  151.1265  143.0050  157.8257 C   0  0  0  0  0  0  0  0  0  0  0  0
  151.7142  144.3980  158.0924 C   0  0  0  0  0  0  0  0  0  0  0  0
  152.0815  144.5625  159.5728 C   0  0  0  0  0  0  0  0  0  0  0  0
  153.0517  143.4608  160.0240 C   0  0  0  0  0  0  0  0  0  0  0  0
  152.4836  142.0498  159.7670 C   0  0  2  0  0  0  0  0  0  0  0  0
  153.4813  140.9764  160.2373 C   0  0  0  0  0  0  0  0  0  0  0  0
  151.3776  137.4764  155.0358 N   0  0  0  0  0  0  0  0  0  0  0  0
  151.1576  136.1612  154.6097 O   0  0  0  0  0  0  0  0  0  0  0  0
  149.6745  133.6057  156.1753 H   0  0  0  0  0  0  0  0  0  0  0  0
  151.1610  133.4545  155.2362 H   0  0  0  0  0  0  0  0  0  0  0  0
  149.6594  133.9333  154.4416 H   0  0  0  0  0  0  0  0  0  0  0  0
  149.9373  136.0150  157.6563 H   0  0  0  0  0  0  0  0  0  0  0  0
  150.2279  138.6316  157.8767 H   0  0  0  0  0  0  0  0  0  0  0  0
  150.6935  140.3487  158.7016 H   0  0  0  0  0  0  0  0  0  0  0  0
  152.9871  141.9565  157.6710 H   0  0  0  0  0  0  0  0  0  0  0  0
  150.9055  142.9006  156.7628 H   0  0  0  0  0  0  0  0  0  0  0  0
  150.1736  142.9118  158.3491 H   0  0  0  0  0  0  0  0  0  0  0  0
  152.6007  144.5471  157.4745 H   0  0  0  0  0  0  0  0  0  0  0  0
  150.9984  145.1665  157.7993 H   0  0  0  0  0  0  0  0  0  0  0  0
  152.5289  145.5431  159.7381 H   0  0  0  0  0  0  0  0  0  0  0  0
  151.1772  144.5279  160.1817 H   0  0  0  0  0  0  0  0  0  0  0  0
  154.0000  143.5766  159.4972 H   0  0  0  0  0  0  0  0  0  0  0  0
  153.2731  143.5861  161.0846 H   0  0  0  0  0  0  0  0  0  0  0  0
  151.5820  141.9447  160.3728 H   0  0  0  0  0  0  0  0  0  0  0  0
  154.3959  141.0014  159.6440 H   0  0  0  0  0  0  0  0  0  0  0  0
  153.0622  139.9733  160.1598 H   0  0  0  0  0  0  0  0  0  0  0  0
  153.7581  141.1288  161.2807 H   0  0  0  0  0  0  0  0  0  0  0  0
  1  2  1  0  0  0  0
  1 18  1  0  0  0  0
  1 19  1  0  0  0  0
  1 20  1  0  0  0  0
  2 17  1  0  0  0  0
  2  3  2  0  0  0  0
  3  4  1  0  0  0  0
  3 21  1  0  0  0  0
  4  5  1  0  0  0  0
  4 16  2  0  0  0  0
  5  6  1  0  0  0  0
  5 22  1  0  0  0  0
  6  7  2  0  0  0  0
  6  8  1  0  0  0  0
  8  9  1  0  0  0  0
  8 23  1  0  0  0  0
  9 14  1  0  0  0  0
  9 10  1  0  0  0  0
  9 24  1  0  0  0  0
 10 11  1  0  0  0  0
 10 25  1  0  0  0  0
 10 26  1  0  0  0  0
 11 12  1  0  0  0  0
 11 27  1  0  0  0  0
 11 28  1  0  0  0  0
 12 13  1  0  0  0  0
 12 29  1  0  0  0  0
 12 30  1  0  0  0  0
 13 14  1  0  0  0  0
 13 31  1  0  0  0  0
 13 32  1  0  0  0  0
 14 15  1  0  0  0  0
 14 33  1  0  0  0  0
 15 34  1  0  0  0  0
 15 35  1  0  0  0  0
 15 36  1  0  0  0  0
 16 17  1  0  0  0  0
M  END
> <s_m_source_file>
AV-unprocessed.smi

> <i_m_source_file_index>
2945

> <i_lp_mmshare_version>
43012

> <i_f3d_flags>
0

> <s_epik_input>
W0NIM11jMVtjSF1jKG5vMSlbTkhdQyg9TylbTkhdW0NAQEhdMltDSDJdW0NIMl1bQ0gyXVtDSDJdW0NASF0yW0NIM10=

> <s_epik_cmdline>
J2VwaWtfcHl0aG9uJywgJy1waCcsICc3LjAnLCAnLXRuJywgJzgnLCAnLW1hJywgJzIwMCcsICctbWV0YWxfYmluZGluZycsICctaW1hZScsICc8aW5maWxlLm1hZT4nLCAnLW9tYWUnLCAnPG91dGZpbGUubWFlPic=

> <r_lp_tautomer_probability>
1

> <r_epik_Ionization_Penalty>
2.357e-05

> <r_epik_Ionization_Penalty_Charging>
0

> <r_epik_Ionization_Penalty_Neutral>
2.357e-05

> <r_epik_State_Penalty>
-0

> <r_epik_Charging_Adjusted_Penalty>
0

> <i_epik_Tot_Q>
0

> <i_epik_Tot_abs_Q>
0

> <r_epik_Metal_State_Penalty>
-0

> <b_epik_Metal_Only>
0

> <s_lp_Force_Field>
OPLS_2005

> <r_lp_Energy>
8.52615

> <b_lp_Chiralities_Consistent>
1

> <s_lp_Variant>
AV-unprocessed.smi:2945-4

> <Gold.Version>
5.8.1

> <Gold.Id.Protein>
6NUR|6NUR_protein|mol2

> <Gold.PLP.Fitness>
38.0645

> <Gold.PLP.PLP>
-32.6128

> <Gold.PLP.part.hbond>
-2.1249

> <Gold.PLP.part.metal>
0.0000

> <Gold.PLP.part.buried>
-4.3270

> <Gold.PLP.part.nonpolar>
-26.3327

> <Gold.PLP.part.repulsive>
0.3622

> <Gold.PLP.ligand.clash>
0.0000

> <Gold.PLP.ligand.torsion>
0.2761

> <Gold.PLP.Chemscore.Hbond>
2.0000

> <Gold.PLP.Chemscore.CHOScore>
0.0000

> <Gold.PLP.Chemscore.Metal>
0.0000

> <Gold.Chemscore.Hbonds>
donor molecule, donor type, donor heavy atom, donor atom, acceptor molecule, acceptor atom, score
      P1  H  7997  8010       L1     7  1.00
      P1  H 10752 10764       L1    17  0.95

> <Gold.PLP.Chemscore.Internal.Correction>
0.0038

> <Gold.Rescore>
     Score         DG    S(hbond)    S(metal)    S(lipo)     H(rot)  DE(clash)    DE(int)     intcor
     17.78     -19.19       1.79        0.00      87.86       1.00       0.07       1.34       ----

> <Gold.Chemscore.Fitness>
17.7788

> <Gold.Chemscore.DG>
-19.1939

> <Gold.Chemscore.ZeroCoef>
-5.4800

> <Gold.Chemscore.Hbond>
1.7946

> <Gold.Chemscore.Metal>
0.0000

> <Gold.Chemscore.Lipo>
87.8618

> <Gold.Chemscore.Internal_Hbond>
0.0000

> <Gold.Chemscore.DEClash>
0.0727

> <Gold.Chemscore.DEInternal>
1.3423

> <Gold.Chemscore.Rot>
1.0000

> <Gold.Chemscore.Internal.Correction>
   9.000000E+99

> <Gold.Chemscore.Hbonds>
donor molecule, donor type, donor heavy atom, donor atom, acceptor molecule, acceptor atom, score
      P1  H  7997  8010       L1     7  0.94
      P1  H 10752 10764       L1    17  0.17

> <Gold.Chemscore.Hbond.Weighted>
-5.9940

> <Gold.Chemscore.Metal.Weighted>
-0.0000

> <Gold.Chemscore.Lipo.Weighted>
-10.2798

> <Gold.Chemscore.Internal_Hbond.Weighted>
0.0000

> <Gold.Chemscore.DEClash.Weighted>
0.0727

> <Gold.Chemscore.DEInternal.Weighted>
1.3423

> <Gold.Chemscore.Rot.Weighted>
2.5600

> <Gold.Chemscore.Internal.Correction.Weighted>
   9.000000E+99

> <Gold.Protein.RotatedTorsions>
[ 6907 6896 6895 6894 ] final   20.87 input  -60.11 | X-H torsion
[ 7974 7965 7964 7962 ] final -168.17 input  175.53 | X-H torsion
[ 8008 7997 7996 7995 ] final   60.63 input   59.86 | X-H torsion
[ 10167 10162 10161 10158 ] final  172.89 input  -65.29 | X-H torsion
[ 10718 10713 10712 10709 ] final   19.65 input   66.30 | X-H torsion
[ 10763 10752 10751 10750 ] final  -71.54 input  -60.55 | X-H torsion
[ 11005 11000 10999 10996 ] final  151.63 input  -57.11 | X-H torsion

> <Gold.Protein.ActiveResidues>
 VAL166  LYS551  ARG553  GLY616  TRP617  ASP618  TYR619  PRO620  LYS621  CYS622 
 ASP623  PHE694  ASN695  SER759  ASP760  ASP761  ALA762  ILE779  LEU786  VAL792 
 PHE793  MET794  SER795  GLU796  ALA797  LYS798  CYS799  TRP800  GLU811  SER814 

> <Gold.Protein.RotatedAtoms>
  151.9031  135.0370  160.0507 H   0  0  0  0  0  0  0  0  0  0  0  0  # atno 6907 bound_to 6896
  152.2342  133.5078  159.5241 H   0  0  0  0  0  0  0  0  0  0  0  0  # atno 6908 bound_to 6896
  150.7034  134.1093  159.4037 H   0  0  0  0  0  0  0  0  0  0  0  0  # atno 6909 bound_to 6896
  144.7208  140.2410  143.6291 H   0  0  0  0  0  0  0  0  0  0  0  0  # atno 7974 bound_to 7965
  155.5853  140.3492  155.4551 H   0  0  0  0  0  0  0  0  0  0  0  0  # atno 8008 bound_to 7997
  156.0342  140.1281  157.0250 H   0  0  0  0  0  0  0  0  0  0  0  0  # atno 8009 bound_to 7997
  154.4365  140.1037  156.6129 H   0  0  0  0  0  0  0  0  0  0  0  0  # atno 8010 bound_to 7997
  139.5091  144.3323  152.0099 H   0  0  0  0  0  0  0  0  0  0  0  0  # atno 10167 bound_to 10162
  157.1134  130.6518  149.5904 H   0  0  0  0  0  0  0  0  0  0  0  0  # atno 10718 bound_to 10713
  154.4332  135.5959  153.6082 H   0  0  0  0  0  0  0  0  0  0  0  0  # atno 10763 bound_to 10752
  152.9800  135.5980  154.3813 H   0  0  0  0  0  0  0  0  0  0  0  0  # atno 10764 bound_to 10752
  154.3654  135.2841  155.2275 H   0  0  0  0  0  0  0  0  0  0  0  0  # atno 10765 bound_to 10752
  140.1236  134.8848  157.2106 H   0  0  0  0  0  0  0  0  0  0  0  0  # atno 11005 bound_to 11000
  145.8319  139.2090  143.1878 LP  0  0  0  0  0  0  0  0  0  0  0  0  # atno 17320 bound_to 7965
  146.0423  140.8152  142.9822 LP  0  0  0  0  0  0  0  0  0  0  0  0  # atno 17321 bound_to 7965
  140.2762  144.3910  150.6134 LP  0  0  0  0  0  0  0  0  0  0  0  0  # atno 17342 bound_to 10162
  140.6052  143.2167  151.6995 LP  0  0  0  0  0  0  0  0  0  0  0  0  # atno 17343 bound_to 10162
  155.9845  130.4870  150.6986 LP  0  0  0  0  0  0  0  0  0  0  0  0  # atno 17370 bound_to 10713
  157.4539  131.0875  151.0817 LP  0  0  0  0  0  0  0  0  0  0  0  0  # atno 17371 bound_to 10713
  140.2933  134.3215  155.7309 LP  0  0  0  0  0  0  0  0  0  0  0  0  # atno 17394 bound_to 11000
  141.2156  133.7548  156.9535 LP  0  0  0  0  0  0  0  0  0  0  0  0  # atno 17395 bound_to 11000

$$$$
