AV-unprocessed.smi:322|AV-procd|sdf|2338|dock7
  -GOLD-   2262022253D 1   1.00000     0.00000
 Structure written by MMmdl.
 44 46  0  0  0  0  0  0  0  0  2 V2000
  145.7547  139.1718  153.9357 O   0  0  0  0  0  0  0  0  0  0  0  0
  146.8083  139.2745  153.0010 C   0  0  0  0  0  0  0  0  0  0  0  0
  148.1622  139.2837  153.6366 C   0  0  0  0  0  0  0  0  0  0  0  0
  149.1421  138.3503  153.4673 N   0  3  0  0  0  0  0  0  0  0  0  0
  150.2669  138.7022  154.2136 C   0  0  0  0  0  0  0  0  0  0  0  0
  151.4980  138.0703  154.3586 C   0  0  0  0  0  0  0  0  0  0  0  0
  152.4357  138.6982  155.2045 C   0  0  0  0  0  0  0  0  0  0  0  0
  152.1334  139.9056  155.8672 C   0  0  0  0  0  0  0  0  0  0  0  0
  150.8818  140.5372  155.7114 C   0  0  0  0  0  0  0  0  0  0  0  0
  149.9602  139.9105  154.8722 C   0  0  0  0  0  0  0  0  0  0  0  0
  148.6526  140.2311  154.4865 N   0  0  0  0  0  0  0  0  0  0  0  0
  148.0225  141.4578  155.0002 C   0  0  0  0  0  0  0  0  0  0  0  0
  148.0767  141.5621  156.5385 C   0  0  1  0  0  0  0  0  0  0  0  0
  147.6045  142.8110  157.0013 O   0  0  0  0  0  0  0  0  0  0  0  0
  147.3142  140.4354  157.2531 C   0  0  0  0  0  0  0  0  0  0  0  0
  148.0262  139.2114  157.1274 O   0  0  0  0  0  0  0  0  0  0  0  0
  147.2096  138.0561  157.2531 C   0  0  0  0  0  0  0  0  0  0  0  0
  147.2562  137.4441  158.6425 C   0  0  0  0  0  0  0  0  0  0  0  0
  146.0871  137.3888  159.4307 C   0  0  0  0  0  0  0  0  0  0  0  0
  146.1293  136.8267  160.7213 C   0  0  0  0  0  0  0  0  0  0  0  0
  147.3423  136.3240  161.2314 C   0  0  0  0  0  0  0  0  0  0  0  0
  147.3946  135.6333  162.8115 Cl  0  0  0  0  0  0  0  0  0  0  0  0
  148.5132  136.3868  160.4511 C   0  0  0  0  0  0  0  0  0  0  0  0
  148.4712  136.9484  159.1600 C   0  0  0  0  0  0  0  0  0  0  0  0
  144.9564  139.4651  153.5228 H   0  0  0  0  0  0  0  0  0  0  0  0
  146.7483  138.4377  152.3050 H   0  0  0  0  0  0  0  0  0  0  0  0
  146.6751  140.1885  152.4221 H   0  0  0  0  0  0  0  0  0  0  0  0
  151.7311  137.1448  153.8525 H   0  0  0  0  0  0  0  0  0  0  0  0
  153.4055  138.2444  155.3487 H   0  0  0  0  0  0  0  0  0  0  0  0
  152.8762  140.3570  156.5089 H   0  0  0  0  0  0  0  0  0  0  0  0
  150.6604  141.4595  156.2283 H   0  0  0  0  0  0  0  0  0  0  0  0
  148.4866  142.3210  154.5231 H   0  0  0  0  0  0  0  0  0  0  0  0
  146.9838  141.4544  154.6670 H   0  0  0  0  0  0  0  0  0  0  0  0
  149.1196  141.5041  156.8518 H   0  0  0  0  0  0  0  0  0  0  0  0
  148.2238  143.4777  156.7475 H   0  0  0  0  0  0  0  0  0  0  0  0
  147.2176  140.6958  158.3078 H   0  0  0  0  0  0  0  0  0  0  0  0
  146.3028  140.3362  156.8557 H   0  0  0  0  0  0  0  0  0  0  0  0
  146.1829  138.2828  156.9609 H   0  0  0  0  0  0  0  0  0  0  0  0
  147.5746  137.3092  156.5481 H   0  0  0  0  0  0  0  0  0  0  0  0
  145.1542  137.7740  159.0453 H   0  0  0  0  0  0  0  0  0  0  0  0
  145.2304  136.7823  161.3187 H   0  0  0  0  0  0  0  0  0  0  0  0
  149.4449  136.0050  160.8415 H   0  0  0  0  0  0  0  0  0  0  0  0
  149.3739  136.9935  158.5686 H   0  0  0  0  0  0  0  0  0  0  0  0
  149.0404  137.5319  152.8808 H   0  0  0  0  0  0  0  0  0  0  0  0
  1  2  1  0  0  0  0
  1 25  1  0  0  0  0
  2  3  1  0  0  0  0
  2 26  1  0  0  0  0
  2 27  1  0  0  0  0
  3 11  1  0  0  0  0
  3  4  2  0  0  0  0
  4  5  1  0  0  0  0
  4 44  1  0  0  0  0
  5 10  2  0  0  0  0
  5  6  1  0  0  0  0
  6  7  2  0  0  0  0
  6 28  1  0  0  0  0
  7  8  1  0  0  0  0
  7 29  1  0  0  0  0
  8  9  2  0  0  0  0
  8 30  1  0  0  0  0
  9 10  1  0  0  0  0
  9 31  1  0  0  0  0
 10 11  1  0  0  0  0
 11 12  1  0  0  0  0
 12 13  1  0  0  0  0
 12 32  1  0  0  0  0
 12 33  1  0  0  0  0
 13 14  1  0  0  0  0
 13 15  1  0  0  0  0
 13 34  1  0  0  0  0
 14 35  1  0  0  0  0
 15 16  1  0  0  0  0
 15 36  1  0  0  0  0
 15 37  1  0  0  0  0
 16 17  1  0  0  0  0
 17 18  1  0  0  0  0
 17 38  1  0  0  0  0
 17 39  1  0  0  0  0
 18 24  1  0  0  0  0
 18 19  2  0  0  0  0
 19 20  1  0  0  0  0
 19 40  1  0  0  0  0
 20 21  2  0  0  0  0
 20 41  1  0  0  0  0
 21 22  1  0  0  0  0
 21 23  1  0  0  0  0
 23 24  2  0  0  0  0
 23 42  1  0  0  0  0
 24 43  1  0  0  0  0
M  CHG  1   4   1
M  END
> <s_m_source_file>
AV-unprocessed.smi

> <i_m_source_file_index>
322

> <i_lp_mmshare_version>
43012

> <i_f3d_flags>
0

> <s_epik_input>
W2NIXTFbY0hdW2NIXVtjSF1jKGMxMiluKGMobjIpW0NIMl1bT0hdKVtDSDJdW0NASF0oW09IXSlbQ0gyXU9bQ0gyXWMzW2NIXVtjSF1jKENsKVtjSF1bY0hdMw==

> <s_epik_cmdline>
J2VwaWtfcHl0aG9uJywgJy1waCcsICc3LjAnLCAnLXRuJywgJzgnLCAnLW1hJywgJzIwMCcsICctbWV0YWxfYmluZGluZycsICctaW1hZScsICc8aW5maWxlLm1hZT4nLCAnLW9tYWUnLCAnPG91dGZpbGUubWFlPic=

> <r_epik_Ionization_Penalty>
1.34314

> <r_epik_Ionization_Penalty_Charging>
1.34228

> <r_epik_Ionization_Penalty_Neutral>
0.000856898

> <r_epik_State_Penalty>
1.41963

> <r_epik_Charging_Adjusted_Penalty>
2.76191

> <i_epik_Tot_Q>
1

> <i_epik_Tot_abs_Q>
1

> <r_epik_Metal_State_Penalty>
5.45585

> <b_epik_Metal_Only>
0

> <s_lp_Force_Field>
OPLS_2005

> <r_lp_Energy>
18.1593

> <b_lp_Chiralities_Consistent>
1

> <s_lp_Variant>
AV-unprocessed.smi:322-4

> <Gold.Version>
5.8.1

> <Gold.Id.Protein>
6NUR|6NUR_protein|mol2

> <Gold.PLP.Fitness>
54.0416

> <Gold.PLP.PLP>
-43.3711

> <Gold.PLP.part.hbond>
-4.7013

> <Gold.PLP.part.metal>
0.0000

> <Gold.PLP.part.buried>
-0.9169

> <Gold.PLP.part.nonpolar>
-38.0466

> <Gold.PLP.part.repulsive>
0.0658

> <Gold.PLP.ligand.clash>
0.0000

> <Gold.PLP.ligand.torsion>
0.5969

> <Gold.PLP.Chemscore.Hbond>
3.9000

> <Gold.PLP.Chemscore.CHOScore>
0.0000

> <Gold.PLP.Chemscore.Metal>
0.0000

> <Gold.Chemscore.Hbonds>
donor molecule, donor type, donor heavy atom, donor atom, acceptor molecule, acceptor atom, score
      L1  H     1    25       P1 10175  1.00
      L1  H     4    44       P1  7948  2.00
      L1  H    14    35       P1  8028  0.75

> <Gold.PLP.Chemscore.Internal.Correction>
0.1642

> <Gold.Rescore>
     Score         DG    S(hbond)    S(metal)    S(lipo)     H(rot)  DE(clash)    DE(int)     intcor
     13.66     -16.24       2.30        0.00      97.07       3.24       0.75       1.82       ----

> <Gold.Chemscore.Fitness>
13.6647

> <Gold.Chemscore.DG>
-16.2391

> <Gold.Chemscore.ZeroCoef>
-5.4800

> <Gold.Chemscore.Hbond>
2.3029

> <Gold.Chemscore.Metal>
0.0000

> <Gold.Chemscore.Lipo>
97.0715

> <Gold.Chemscore.Internal_Hbond>
0.0000

> <Gold.Chemscore.DEClash>
0.7526

> <Gold.Chemscore.DEInternal>
1.8218

> <Gold.Chemscore.Rot>
3.2383

> <Gold.Chemscore.Internal.Correction>
   9.000000E+99

> <Gold.Chemscore.Hbonds>
donor molecule, donor type, donor heavy atom, donor atom, acceptor molecule, acceptor atom, score
      L1  H     1    25       P1 10175  0.99
      L1  H     4    44       P1  7948  0.99
      L1  H    14    35       P1  8028  0.09

> <Gold.Chemscore.Hbond.Weighted>
-7.6918

> <Gold.Chemscore.Metal.Weighted>
-0.0000

> <Gold.Chemscore.Lipo.Weighted>
-11.3574

> <Gold.Chemscore.Internal_Hbond.Weighted>
0.0000

> <Gold.Chemscore.DEClash.Weighted>
0.7526

> <Gold.Chemscore.DEInternal.Weighted>
1.8218

> <Gold.Chemscore.Rot.Weighted>
8.2901

> <Gold.Chemscore.Internal.Correction.Weighted>
   9.000000E+99

> <Gold.Protein.RotatedTorsions>
[ 6907 6896 6895 6894 ] final  113.80 input  -60.11 | X-H torsion
[ 7974 7965 7964 7962 ] final -152.28 input  175.53 | X-H torsion
[ 8008 7997 7996 7995 ] final   88.98 input   59.86 | X-H torsion
[ 10167 10162 10161 10158 ] final  153.38 input  -65.29 | X-H torsion
[ 10718 10713 10712 10709 ] final  -98.88 input   66.30 | X-H torsion
[ 10763 10752 10751 10750 ] final  -10.44 input  -60.55 | X-H torsion
[ 11005 11000 10999 10996 ] final  -98.14 input  -57.11 | X-H torsion

> <Gold.Protein.ActiveResidues>
 VAL166  LYS551  ARG553  GLY616  TRP617  ASP618  TYR619  PRO620  LYS621  CYS622 
 ASP623  PHE694  ASN695  SER759  ASP760  ASP761  ALA762  ILE779  LEU786  VAL792 
 PHE793  MET794  SER795  GLU796  ALA797  LYS798  CYS799  TRP800  GLU811  SER814 

> <Gold.Protein.RotatedAtoms>
  152.4840  133.8325  159.7110 H   0  0  0  0  0  0  0  0  0  0  0  0  # atno 6907 bound_to 6896
  150.8911  133.7233  159.2911 H   0  0  0  0  0  0  0  0  0  0  0  0  # atno 6908 bound_to 6896
  151.4705  135.1049  159.9802 H   0  0  0  0  0  0  0  0  0  0  0  0  # atno 6909 bound_to 6896
  144.7803  140.4684  143.5844 H   0  0  0  0  0  0  0  0  0  0  0  0  # atno 7974 bound_to 7965
  155.9944  140.3365  155.6784 H   0  0  0  0  0  0  0  0  0  0  0  0  # atno 8008 bound_to 7997
  155.6376  140.0692  157.2647 H   0  0  0  0  0  0  0  0  0  0  0  0  # atno 8009 bound_to 7997
  154.4229  140.1748  156.1526 H   0  0  0  0  0  0  0  0  0  0  0  0  # atno 8010 bound_to 7997
  139.4827  144.5278  151.7773 H   0  0  0  0  0  0  0  0  0  0  0  0  # atno 10167 bound_to 10162
  156.0119  130.5258  150.6588 H   0  0  0  0  0  0  0  0  0  0  0  0  # atno 10718 bound_to 10713
  153.4693  135.7016  153.6003 H   0  0  0  0  0  0  0  0  0  0  0  0  # atno 10763 bound_to 10752
  153.4264  135.3813  155.2143 H   0  0  0  0  0  0  0  0  0  0  0  0  # atno 10764 bound_to 10752
  154.8725  135.3940  154.4129 H   0  0  0  0  0  0  0  0  0  0  0  0  # atno 10765 bound_to 10752
  141.1355  133.8223  157.0800 H   0  0  0  0  0  0  0  0  0  0  0  0  # atno 11005 bound_to 11000
  145.6069  139.1509  143.3097 LP  0  0  0  0  0  0  0  0  0  0  0  0  # atno 17320 bound_to 7965
  146.2007  140.6187  142.9103 LP  0  0  0  0  0  0  0  0  0  0  0  0  # atno 17321 bound_to 7965
  140.4800  144.1463  150.5931 LP  0  0  0  0  0  0  0  0  0  0  0  0  # atno 17342 bound_to 10162
  140.4288  143.2577  151.9622 LP  0  0  0  0  0  0  0  0  0  0  0  0  # atno 17343 bound_to 10162
  157.4335  131.0852  151.1015 LP  0  0  0  0  0  0  0  0  0  0  0  0  # atno 17370 bound_to 10713
  157.1581  130.6213  149.5602 LP  0  0  0  0  0  0  0  0  0  0  0  0  # atno 17371 bound_to 10713
  140.0457  134.9831  157.1045 LP  0  0  0  0  0  0  0  0  0  0  0  0  # atno 17394 bound_to 11000
  140.4066  134.2025  155.7163 LP  0  0  0  0  0  0  0  0  0  0  0  0  # atno 17395 bound_to 11000

$$$$
