AV-unprocessed.smi:1258|AV-procd|sdf|5289|dock1
  -GOLD-   22720 4403D 1   1.00000     0.00000
 Structure written by MMmdl.
 33 34  0  0  0  0  0  0  0  0  1 V2000
  153.1378  141.1838  160.3157 C   0  0  0  0  0  0  0  0  0  0  0  0
  152.8905  142.3100  159.3021 C   0  0  2  0  0  0  0  0  0  0  0  0
  152.5839  143.6452  160.0071 C   0  0  0  0  0  0  0  0  0  0  0  0
  152.3361  144.7726  158.9929 C   0  0  0  0  0  0  0  0  0  0  0  0
  151.2100  144.4038  158.0153 C   0  0  0  0  0  0  0  0  0  0  0  0
  151.5056  143.0744  157.2972 C   0  0  2  0  0  0  0  0  0  0  0  0
  150.3907  142.7372  156.4168 N   0  0  0  0  0  0  0  0  0  0  0  0
  150.3265  141.6564  155.6243 C   0  0  0  0  0  0  0  0  0  0  0  0
  151.2180  140.8077  155.5695 O   0  0  0  0  0  0  0  0  0  0  0  0
  149.0573  141.5329  154.7722 C   0  0  0  0  0  0  0  0  0  0  0  0
  148.4082  140.2406  154.9114 N   0  0  0  0  0  0  0  0  0  0  0  0
  148.1121  139.3054  154.0065 C   0  0  0  0  0  0  0  0  0  0  0  0
  147.5087  138.2641  154.5589 N   0  0  0  0  0  0  0  0  0  0  0  0
  147.4430  138.6123  155.8977 N   0  0  0  0  0  0  0  0  0  0  0  0
  147.9756  139.7839  156.1130 N   0  0  0  0  0  0  0  0  0  0  0  0
  151.7599  141.9462  158.3194 C   0  0  0  0  0  0  0  0  0  0  0  0
  152.2565  141.0040  160.9322 H   0  0  0  0  0  0  0  0  0  0  0  0
  153.9655  141.4297  160.9814 H   0  0  0  0  0  0  0  0  0  0  0  0
  153.3877  140.2502  159.8113 H   0  0  0  0  0  0  0  0  0  0  0  0
  153.8075  142.4379  158.7249 H   0  0  0  0  0  0  0  0  0  0  0  0
  151.7073  143.5331  160.6466 H   0  0  0  0  0  0  0  0  0  0  0  0
  153.4108  143.9199  160.6630 H   0  0  0  0  0  0  0  0  0  0  0  0
  152.0861  145.6953  159.5169 H   0  0  0  0  0  0  0  0  0  0  0  0
  153.2528  144.9721  158.4364 H   0  0  0  0  0  0  0  0  0  0  0  0
  150.2685  144.3294  158.5618 H   0  0  0  0  0  0  0  0  0  0  0  0
  151.0824  145.2038  157.2849 H   0  0  0  0  0  0  0  0  0  0  0  0
  152.4037  143.2103  156.6913 H   0  0  0  0  0  0  0  0  0  0  0  0
  149.6145  143.3829  156.4008 H   0  0  0  0  0  0  0  0  0  0  0  0
  148.3467  142.3082  155.0615 H   0  0  0  0  0  0  0  0  0  0  0  0
  149.3064  141.6974  153.7227 H   0  0  0  0  0  0  0  0  0  0  0  0
  148.3353  139.3876  152.9529 H   0  0  0  0  0  0  0  0  0  0  0  0
  152.0149  141.0229  157.7977 H   0  0  0  0  0  0  0  0  0  0  0  0
  150.8441  141.7415  158.8762 H   0  0  0  0  0  0  0  0  0  0  0  0
  1  2  1  0  0  0  0
  1 17  1  0  0  0  0
  1 18  1  0  0  0  0
  1 19  1  0  0  0  0
  2 16  1  0  0  0  0
  2  3  1  0  0  0  0
  2 20  1  0  0  0  0
  3  4  1  0  0  0  0
  3 21  1  0  0  0  0
  3 22  1  0  0  0  0
  4  5  1  0  0  0  0
  4 23  1  0  0  0  0
  4 24  1  0  0  0  0
  5  6  1  0  0  0  0
  5 25  1  0  0  0  0
  5 26  1  0  0  0  0
  6  7  1  0  0  0  0
  6 16  1  0  0  0  0
  6 27  1  0  0  0  0
  7  8  1  0  0  0  0
  7 28  1  0  0  0  0
  8  9  2  0  0  0  0
  8 10  1  0  0  0  0
 10 11  1  0  0  0  0
 10 29  1  0  0  0  0
 10 30  1  0  0  0  0
 11 15  1  0  0  0  0
 11 12  1  0  0  0  0
 12 13  2  0  0  0  0
 12 31  1  0  0  0  0
 13 14  1  0  0  0  0
 14 15  2  0  0  0  0
 16 32  1  0  0  0  0
 16 33  1  0  0  0  0
M  END
> <s_m_source_file>
AV-unprocessed.smi

> <i_m_source_file_index>
1258

> <i_lp_mmshare_version>
43012

> <i_f3d_flags>
0

> <s_epik_input>
W0NIM11bQ0BASF0xW0NIMl1bQ0gyXVtDSDJdW0NASF0oW0NIMl0xKVtOSF1DKD1PKVtDSDJdbjJbY0hdbm5uMg==

> <s_epik_cmdline>
J2VwaWtfcHl0aG9uJywgJy1waCcsICc3LjAnLCAnLXRuJywgJzgnLCAnLW1hJywgJzIwMCcsICctbWV0YWxfYmluZGluZycsICctaW1hZScsICc8aW5maWxlLm1hZT4nLCAnLW9tYWUnLCAnPG91dGZpbGUubWFlPic=

> <r_lp_tautomer_probability>
1

> <r_epik_Ionization_Penalty>
5.03816e-07

> <r_epik_Ionization_Penalty_Charging>
0

> <r_epik_Ionization_Penalty_Neutral>
5.03816e-07

> <r_epik_State_Penalty>
-0

> <r_epik_Charging_Adjusted_Penalty>
0

> <i_epik_Tot_Q>
0

> <i_epik_Tot_abs_Q>
0

> <r_epik_Metal_State_Penalty>
-0

> <b_epik_Metal_Only>
0

> <s_lp_Force_Field>
OPLS_2005

> <r_lp_Energy>
11.1566

> <b_lp_Chiralities_Consistent>
1

> <s_lp_Variant>
AV-unprocessed.smi:1258-3

> <Gold.Version>
5.8.1

> <Gold.Id.Protein>
6NUR|6NUR_protein|mol2

> <Gold.PLP.Fitness>
41.2246

> <Gold.PLP.PLP>
-33.4703

> <Gold.PLP.part.hbond>
-2.0000

> <Gold.PLP.part.metal>
0.0000

> <Gold.PLP.part.buried>
-2.5721

> <Gold.PLP.part.nonpolar>
-28.5038

> <Gold.PLP.part.repulsive>
0.2358

> <Gold.PLP.ligand.clash>
0.0000

> <Gold.PLP.ligand.torsion>
0.0676

> <Gold.PLP.Chemscore.Hbond>
1.6283

> <Gold.PLP.Chemscore.CHOScore>
1.0000

> <Gold.PLP.Chemscore.Metal>
0.0000

> <Gold.Chemscore.Hbonds>
donor molecule, donor type, donor heavy atom, donor atom, acceptor molecule, acceptor atom, score
      L1  H     7    28       P1  8028  0.94
      P1  H  7989  7998       L1     9  0.58
      L1  C    12    31       P1  7957  1.00

> <Gold.PLP.Chemscore.Internal.Correction>
0.0047

> <Gold.Rescore>
     Score         DG    S(hbond)    S(metal)    S(lipo)     H(rot)  DE(clash)    DE(int)     intcor
     14.14     -15.17       1.36        0.00      85.94       1.92       0.13       0.89       ----

> <Gold.Chemscore.Fitness>
14.1405

> <Gold.Chemscore.DG>
-15.1657

> <Gold.Chemscore.ZeroCoef>
-5.4800

> <Gold.Chemscore.Hbond>
1.3587

> <Gold.Chemscore.Metal>
0.0000

> <Gold.Chemscore.Lipo>
85.9385

> <Gold.Chemscore.Internal_Hbond>
0.0000

> <Gold.Chemscore.DEClash>
0.1331

> <Gold.Chemscore.DEInternal>
0.8921

> <Gold.Chemscore.Rot>
1.9169

> <Gold.Chemscore.Internal.Correction>
   9.000000E+99

> <Gold.Chemscore.Hbonds>
donor molecule, donor type, donor heavy atom, donor atom, acceptor molecule, acceptor atom, score
      L1  H     7    28       P1  8028  0.92
      P1  H  7989  7998       L1     9  0.13

> <Gold.Chemscore.Hbond.Weighted>
-4.5382

> <Gold.Chemscore.Metal.Weighted>
-0.0000

> <Gold.Chemscore.Lipo.Weighted>
-10.0548

> <Gold.Chemscore.Internal_Hbond.Weighted>
0.0000

> <Gold.Chemscore.DEClash.Weighted>
0.1331

> <Gold.Chemscore.DEInternal.Weighted>
0.8921

> <Gold.Chemscore.Rot.Weighted>
4.9073

> <Gold.Chemscore.Internal.Correction.Weighted>
   9.000000E+99

> <Gold.Protein.RotatedTorsions>
[ 6907 6896 6895 6894 ] final   92.69 input  -60.11 | X-H torsion
[ 7974 7965 7964 7962 ] final   40.24 input  175.53 | X-H torsion
[ 8008 7997 7996 7995 ] final  -52.28 input   59.86 | X-H torsion
[ 10167 10162 10161 10158 ] final   66.51 input  -65.29 | X-H torsion
[ 10718 10713 10712 10709 ] final  113.30 input   66.30 | X-H torsion
[ 10763 10752 10751 10750 ] final  -41.75 input  -60.55 | X-H torsion
[ 11005 11000 10999 10996 ] final   72.01 input  -57.11 | X-H torsion

> <Gold.Protein.ActiveResidues>
 VAL166  LYS551  ARG553  GLY616  TRP617  ASP618  TYR619  PRO620  LYS621  CYS622 
 ASP623  PHE694  ASN695  SER759  ASP760  ASP761  ALA762  ILE779  LEU786  VAL792 
 PHE793  MET794  SER795  GLU796  ALA797  LYS798  CYS799  TRP800  GLU811  SER814 

> <Gold.Protein.RotatedAtoms>
  152.5453  134.1463  159.8499 H   0  0  0  0  0  0  0  0  0  0  0  0  # atno 6907 bound_to 6896
  151.1494  133.4910  159.2603 H   0  0  0  0  0  0  0  0  0  0  0  0  # atno 6908 bound_to 6896
  151.1488  135.0227  159.8714 H   0  0  0  0  0  0  0  0  0  0  0  0  # atno 6909 bound_to 6896
  146.0921  139.5556  142.9469 H   0  0  0  0  0  0  0  0  0  0  0  0  # atno 7974 bound_to 7965
  154.4103  140.1228  156.4965 H   0  0  0  0  0  0  0  0  0  0  0  0  # atno 8008 bound_to 7997
  155.6937  140.3495  155.4885 H   0  0  0  0  0  0  0  0  0  0  0  0  # atno 8009 bound_to 7997
  155.9446  140.1093  157.1017 H   0  0  0  0  0  0  0  0  0  0  0  0  # atno 8010 bound_to 7997
  140.0996  144.4916  150.7046 H   0  0  0  0  0  0  0  0  0  0  0  0  # atno 10167 bound_to 10162
  157.6346  131.0981  150.7020 H   0  0  0  0  0  0  0  0  0  0  0  0  # atno 10718 bound_to 10713
  153.9677  135.6732  153.4746 H   0  0  0  0  0  0  0  0  0  0  0  0  # atno 10763 bound_to 10752
  153.0808  135.4924  154.8495 H   0  0  0  0  0  0  0  0  0  0  0  0  # atno 10764 bound_to 10752
  154.7237  135.3122  154.8966 H   0  0  0  0  0  0  0  0  0  0  0  0  # atno 10765 bound_to 10752
  139.9513  134.7222  156.0856 H   0  0  0  0  0  0  0  0  0  0  0  0  # atno 11005 bound_to 11000
  145.6019  141.0354  143.2013 LP  0  0  0  0  0  0  0  0  0  0  0  0  # atno 17320 bound_to 7965
  144.7368  139.7564  143.7326 LP  0  0  0  0  0  0  0  0  0  0  0  0  # atno 17321 bound_to 7965
  140.6985  143.2419  151.4932 LP  0  0  0  0  0  0  0  0  0  0  0  0  # atno 17342 bound_to 10162
  139.5679  144.1999  152.1792 LP  0  0  0  0  0  0  0  0  0  0  0  0  # atno 17343 bound_to 10162
  156.7354  130.4722  149.5490 LP  0  0  0  0  0  0  0  0  0  0  0  0  # atno 17370 bound_to 10713
  156.1575  130.6351  151.0675 LP  0  0  0  0  0  0  0  0  0  0  0  0  # atno 17371 bound_to 10713
  141.1176  133.6622  156.3134 LP  0  0  0  0  0  0  0  0  0  0  0  0  # atno 17394 bound_to 11000
  140.5712  134.5838  157.5458 LP  0  0  0  0  0  0  0  0  0  0  0  0  # atno 17395 bound_to 11000

$$$$
