AV-unprocessed.smi:265|AV-procd|sdf|2030|dock7
  -GOLD-   2262021233D 1   1.00000     0.00000
 Structure written by MMmdl.
 52 56  0  0  0  0  0  0  0  0  1 V2000
  151.1699  140.8004  157.5122 C   0  0  0  0  0  0  0  0  0  0  0  0
  151.4584  140.3971  156.0578 C   0  0  1  0  0  0  0  0  0  0  0  0
  152.6454  139.6077  156.0563 O   0  0  0  0  0  0  0  0  0  0  0  0
  152.5758  138.6741  154.9934 C   0  0  0  0  0  0  0  0  0  0  0  0
  151.1202  138.2368  155.0383 C   0  0  0  0  0  0  0  0  0  0  0  0
  150.3794  139.5367  155.3411 C   0  0  2  0  0  0  0  0  0  0  0  0
  150.0826  140.1633  154.1044 O   0  0  0  0  0  0  0  0  0  0  0  0
  149.0456  139.3255  156.1053 C   0  0  0  0  0  0  0  0  0  0  0  0
  148.1232  138.4304  155.4235 N   0  0  0  0  0  0  0  0  0  0  0  0
  147.6682  137.2131  155.8776 C   0  0  0  0  0  0  0  0  0  0  0  0
  146.8440  136.5937  155.0780 N   0  0  0  0  0  0  0  0  0  0  0  0
  146.7072  137.4556  153.9957 C   0  0  0  0  0  0  0  0  0  0  0  0
  145.9677  137.4108  152.7797 C   0  0  0  0  0  0  0  0  0  0  0  0
  145.1455  136.3797  152.4575 N   0  0  0  0  0  0  0  0  0  0  0  0
  144.6167  135.5609  153.5543 C   0  0  0  0  0  0  0  0  0  0  0  0
  143.4522  134.6699  153.0802 C   0  0  0  0  0  0  0  0  0  0  0  0
  143.8849  133.8479  151.8592 C   0  0  1  0  0  0  0  0  0  0  0  0
  142.8146  133.0857  151.3219 O   0  0  0  0  0  0  0  0  0  0  0  0
  143.2229  132.1900  150.2820 C   0  0  0  0  0  0  0  0  0  0  0  0
  144.1312  132.8659  149.2327 C   0  0  0  0  0  0  0  0  0  0  0  0
  144.3559  132.3031  148.1637 O   0  0  0  0  0  0  0  0  0  0  0  0
  144.6893  134.0472  149.5440 N   0  0  0  0  0  0  0  0  0  0  0  0
  144.3518  134.7979  150.7458 C   0  0  2  0  0  0  0  0  0  0  0  0
  145.5276  135.6506  151.2454 C   0  0  0  0  0  0  0  0  0  0  0  0
  146.1060  138.4605  151.9260 N   0  0  0  0  0  0  0  0  0  0  0  0
  146.8981  139.4892  152.2425 C   0  0  0  0  0  0  0  0  0  0  0  0
  147.6319  139.6696  153.3419 N   0  0  0  0  0  0  0  0  0  0  0  0
  147.5096  138.6143  154.1966 C   0  0  0  0  0  0  0  0  0  0  0  0
  144.6934  133.1764  152.1570 H   0  0  0  0  0  0  0  0  0  0  0  0
  143.5299  135.4643  150.4776 H   0  0  0  0  0  0  0  0  0  0  0  0
  150.2774  141.4222  157.5844 H   0  0  0  0  0  0  0  0  0  0  0  0
  152.0003  141.3759  157.9219 H   0  0  0  0  0  0  0  0  0  0  0  0
  151.0329  139.9273  158.1502 H   0  0  0  0  0  0  0  0  0  0  0  0
  151.6644  141.3037  155.4855 H   0  0  0  0  0  0  0  0  0  0  0  0
  152.8115  139.1678  154.0494 H   0  0  0  0  0  0  0  0  0  0  0  0
  153.2708  137.8467  155.1368 H   0  0  0  0  0  0  0  0  0  0  0  0
  150.7903  137.7415  154.1238 H   0  0  0  0  0  0  0  0  0  0  0  0
  150.9931  137.5327  155.8618 H   0  0  0  0  0  0  0  0  0  0  0  0
  149.2120  139.9082  153.8402 H   0  0  0  0  0  0  0  0  0  0  0  0
  149.2348  138.9071  157.0941 H   0  0  0  0  0  0  0  0  0  0  0  0
  148.5407  140.2789  156.2647 H   0  0  0  0  0  0  0  0  0  0  0  0
  147.9730  136.7930  156.8250 H   0  0  0  0  0  0  0  0  0  0  0  0
  145.4181  134.9385  153.9552 H   0  0  0  0  0  0  0  0  0  0  0  0
  144.2716  136.2032  154.3658 H   0  0  0  0  0  0  0  0  0  0  0  0
  143.1321  134.0099  153.8866 H   0  0  0  0  0  0  0  0  0  0  0  0
  142.5932  135.2916  152.8240 H   0  0  0  0  0  0  0  0  0  0  0  0
  143.7635  131.3515  150.7229 H   0  0  0  0  0  0  0  0  0  0  0  0
  142.3367  131.7822  149.7953 H   0  0  0  0  0  0  0  0  0  0  0  0
  145.3122  134.4808  148.8783 H   0  0  0  0  0  0  0  0  0  0  0  0
  145.8440  136.3282  150.4534 H   0  0  0  0  0  0  0  0  0  0  0  0
  146.3842  135.0146  151.4730 H   0  0  0  0  0  0  0  0  0  0  0  0
  146.9509  140.2821  151.5112 H   0  0  0  0  0  0  0  0  0  0  0  0
  1  2  1  0  0  0  0
  1 31  1  0  0  0  0
  1 32  1  0  0  0  0
  1 33  1  0  0  0  0
  2  6  1  0  0  0  0
  2  3  1  0  0  0  0
  2 34  1  0  0  0  0
  3  4  1  0  0  0  0
  4  5  1  0  0  0  0
  4 35  1  0  0  0  0
  4 36  1  0  0  0  0
  5  6  1  0  0  0  0
  5 37  1  0  0  0  0
  5 38  1  0  0  0  0
  6  7  1  0  0  0  0
  6  8  1  0  0  0  0
  7 39  1  0  0  0  0
  8  9  1  0  0  0  0
  8 40  1  0  0  0  0
  8 41  1  0  0  0  0
  9 28  1  0  0  0  0
  9 10  1  0  0  0  0
 10 11  2  0  0  0  0
 10 42  1  0  0  0  0
 11 12  1  0  0  0  0
 12 28  2  0  0  0  0
 12 13  1  0  0  0  0
 13 14  1  0  0  0  0
 13 25  2  0  0  0  0
 14 24  1  0  0  0  0
 14 15  1  0  0  0  0
 15 16  1  0  0  0  0
 15 43  1  0  0  0  0
 15 44  1  0  0  0  0
 16 17  1  0  0  0  0
 16 45  1  0  0  0  0
 16 46  1  0  0  0  0
 17 29  1  0  0  0  0
 17 23  1  0  0  0  0
 17 18  1  0  0  0  0
 18 19  1  0  0  0  0
 19 20  1  0  0  0  0
 19 47  1  0  0  0  0
 19 48  1  0  0  0  0
 20 21  2  0  0  0  0
 20 22  1  0  0  0  0
 22 23  1  0  0  0  0
 22 49  1  0  0  0  0
 23 30  1  0  0  0  0
 23 24  1  0  0  0  0
 24 50  1  0  0  0  0
 24 51  1  0  0  0  0
 25 26  1  0  0  0  0
 26 27  2  0  0  0  0
 26 52  1  0  0  0  0
 27 28  1  0  0  0  0
M  END
> <s_m_source_file>
AV-unprocessed.smi

> <i_m_source_file_index>
265

> <i_lp_mmshare_version>
43012

> <i_f3d_flags>
0

> <s_epik_input>
W0NIMl0xW0NIMl1PW0NAQEhdKFtDSDNdKVtDQEBdMShbT0hdKVtDSDJdbihbY0hdbjIpYyhjMjMpbltjSF1uYzNOKFtDSDJdW0NIMl00KVtDSDJdW0NAQEhdKFtDQEhdNDUpW05IXUMoPU8pW0NIMl1PNQ==

> <s_epik_cmdline>
J2VwaWtfcHl0aG9uJywgJy1waCcsICc3LjAnLCAnLXRuJywgJzgnLCAnLW1hJywgJzIwMCcsICctbWV0YWxfYmluZGluZycsICctaW1hZScsICc8aW5maWxlLm1hZT4nLCAnLW9tYWUnLCAnPG91dGZpbGUubWFlPic=

> <r_lp_tautomer_probability>
1

> <r_epik_Ionization_Penalty>
0.00221504

> <r_epik_Ionization_Penalty_Charging>
0

> <r_epik_Ionization_Penalty_Neutral>
0.00221504

> <r_epik_State_Penalty>
-0

> <r_epik_Charging_Adjusted_Penalty>
0

> <i_epik_Tot_Q>
0

> <i_epik_Tot_abs_Q>
0

> <r_epik_Metal_State_Penalty>
-0

> <b_epik_Metal_Only>
0

> <s_lp_Force_Field>
OPLS_2005

> <r_lp_Energy>
44.2788

> <b_lp_Chiralities_Consistent>
1

> <s_lp_Variant>
AV-unprocessed.smi:265-16

> <Gold.Version>
5.8.1

> <Gold.Id.Protein>
6NUR|6NUR_protein|mol2

> <Gold.PLP.Fitness>
48.5413

> <Gold.PLP.PLP>
-39.0948

> <Gold.PLP.part.hbond>
-6.0000

> <Gold.PLP.part.metal>
0.0000

> <Gold.PLP.part.buried>
-6.9335

> <Gold.PLP.part.nonpolar>
-32.9179

> <Gold.PLP.part.repulsive>
4.7065

> <Gold.PLP.ligand.clash>
0.0000

> <Gold.PLP.ligand.torsion>
0.3577

> <Gold.PLP.Chemscore.Hbond>
2.9480

> <Gold.PLP.Chemscore.CHOScore>
0.2992

> <Gold.PLP.Chemscore.Metal>
0.0000

> <Gold.Chemscore.Hbonds>
donor molecule, donor type, donor heavy atom, donor atom, acceptor molecule, acceptor atom, score
      L1  H    22    49       P1  7921  0.99
      P1  H  7989  7998       L1     7  0.93
      P1  H  7997  8009       L1     3  1.00
      L1  C    26    52       P1  7957  0.21

> <Gold.PLP.Chemscore.Internal.Correction>
0.4203

> <Gold.Rescore>
     Score         DG    S(hbond)    S(metal)    S(lipo)     H(rot)  DE(clash)    DE(int)     intcor
     14.10     -17.33       2.85        0.00      69.05       2.25       0.17       3.06       ----

> <Gold.Chemscore.Fitness>
14.1002

> <Gold.Chemscore.DG>
-17.3306

> <Gold.Chemscore.ZeroCoef>
-5.4800

> <Gold.Chemscore.Hbond>
2.8501

> <Gold.Chemscore.Metal>
0.0000

> <Gold.Chemscore.Lipo>
69.0545

> <Gold.Chemscore.Internal_Hbond>
0.0000

> <Gold.Chemscore.DEClash>
0.1706

> <Gold.Chemscore.DEInternal>
3.0598

> <Gold.Chemscore.Rot>
2.2453

> <Gold.Chemscore.Internal.Correction>
   9.000000E+99

> <Gold.Chemscore.Hbonds>
donor molecule, donor type, donor heavy atom, donor atom, acceptor molecule, acceptor atom, score
      L1  H    22    49       P1  7921  0.92
      P1  H  7918  7932       L1    21  0.01
      P1  H  7989  7998       L1     7  0.58
      P1  H  7997  8009       L1     3  0.82

> <Gold.Chemscore.Hbond.Weighted>
-9.5192

> <Gold.Chemscore.Metal.Weighted>
-0.0000

> <Gold.Chemscore.Lipo.Weighted>
-8.0794

> <Gold.Chemscore.Internal_Hbond.Weighted>
0.0000

> <Gold.Chemscore.DEClash.Weighted>
0.1706

> <Gold.Chemscore.DEInternal.Weighted>
3.0598

> <Gold.Chemscore.Rot.Weighted>
5.7479

> <Gold.Chemscore.Internal.Correction.Weighted>
   9.000000E+99

> <Gold.Protein.RotatedTorsions>
[ 6907 6896 6895 6894 ] final -136.01 input  -60.11 | X-H torsion
[ 7974 7965 7964 7962 ] final  146.01 input  175.53 | X-H torsion
[ 8008 7997 7996 7995 ] final -165.12 input   59.86 | X-H torsion
[ 10167 10162 10161 10158 ] final  -73.39 input  -65.29 | X-H torsion
[ 10718 10713 10712 10709 ] final  -48.02 input   66.30 | X-H torsion
[ 10763 10752 10751 10750 ] final   -6.18 input  -60.55 | X-H torsion
[ 11005 11000 10999 10996 ] final  -92.67 input  -57.11 | X-H torsion

> <Gold.Protein.ActiveResidues>
 VAL166  LYS551  ARG553  GLY616  TRP617  ASP618  TYR619  PRO620  LYS621  CYS622 
 ASP623  PHE694  ASN695  SER759  ASP760  ASP761  ALA762  ILE779  LEU786  VAL792 
 PHE793  MET794  SER795  GLU796  ALA797  LYS798  CYS799  TRP800  GLU811  SER814 

> <Gold.Protein.RotatedAtoms>
  151.0048  133.6021  159.2690 H   0  0  0  0  0  0  0  0  0  0  0  0  # atno 6907 bound_to 6896
  151.3194  135.0814  159.9310 H   0  0  0  0  0  0  0  0  0  0  0  0  # atno 6908 bound_to 6896
  152.5284  133.9698  159.7811 H   0  0  0  0  0  0  0  0  0  0  0  0  # atno 6909 bound_to 6896
  144.8705  139.5853  143.5889 H   0  0  0  0  0  0  0  0  0  0  0  0  # atno 7974 bound_to 7965
  155.8452  140.0954  157.1709 H   0  0  0  0  0  0  0  0  0  0  0  0  # atno 8008 bound_to 7997
  154.3983  140.1393  156.3839 H   0  0  0  0  0  0  0  0  0  0  0  0  # atno 8009 bound_to 7997
  155.8021  140.3452  155.5411 H   0  0  0  0  0  0  0  0  0  0  0  0  # atno 8010 bound_to 7997
  140.5114  143.2344  151.7587 H   0  0  0  0  0  0  0  0  0  0  0  0  # atno 10167 bound_to 10162
  156.2028  130.4157  149.9217 H   0  0  0  0  0  0  0  0  0  0  0  0  # atno 10718 bound_to 10713
  153.4087  135.7007  153.6374 H   0  0  0  0  0  0  0  0  0  0  0  0  # atno 10763 bound_to 10752
  153.4877  135.3679  155.2476 H   0  0  0  0  0  0  0  0  0  0  0  0  # atno 10764 bound_to 10752
  154.8715  135.4081  154.3436 H   0  0  0  0  0  0  0  0  0  0  0  0  # atno 10765 bound_to 10752
  141.1516  133.7836  157.0053 H   0  0  0  0  0  0  0  0  0  0  0  0  # atno 11005 bound_to 11000
  146.2927  139.7186  142.9149 LP  0  0  0  0  0  0  0  0  0  0  0  0  # atno 17320 bound_to 7965
  145.4139  141.0399  143.3002 LP  0  0  0  0  0  0  0  0  0  0  0  0  # atno 17321 bound_to 7965
  139.4897  144.4385  151.9791 LP  0  0  0  0  0  0  0  0  0  0  0  0  # atno 17342 bound_to 10162
  140.3478  144.3126  150.5955 LP  0  0  0  0  0  0  0  0  0  0  0  0  # atno 17343 bound_to 10162
  156.6921  130.8900  151.3589 LP  0  0  0  0  0  0  0  0  0  0  0  0  # atno 17370 bound_to 10713
  157.6995  130.9318  150.0744 LP  0  0  0  0  0  0  0  0  0  0  0  0  # atno 17371 bound_to 10713
  140.0913  134.9590  157.1781 LP  0  0  0  0  0  0  0  0  0  0  0  0  # atno 17394 bound_to 11000
  140.3442  134.2670  155.7207 LP  0  0  0  0  0  0  0  0  0  0  0  0  # atno 17395 bound_to 11000

$$$$
