AV-unprocessed.smi:1397|AV-procd|sdf|5679|dock4
  -GOLD-   22720 5303D 1   1.00000     0.00000
 Structure written by MMmdl.
 37 38  0  0  0  0  0  0  0  0  1 V2000
  149.0480  136.1584  156.2440 C   0  0  0  0  0  0  0  0  0  0  0  0
  150.1718  136.8436  155.4632 C   0  0  0  0  0  0  0  0  0  0  0  0
  151.2912  136.3322  155.4934 O   0  0  0  0  0  0  0  0  0  0  0  0
  149.9022  137.9759  154.7693 N   0  0  0  0  0  0  0  0  0  0  0  0
  148.5823  138.6183  154.7799 C   0  0  0  0  0  0  0  0  0  0  0  0
  148.6784  139.9510  155.5442 C   0  0  0  0  0  0  0  0  0  0  0  0
  149.7662  140.8672  154.9390 C   0  0  0  0  0  0  0  0  0  0  0  0
  149.9760  142.0446  155.7765 N   0  0  0  0  0  0  0  0  0  0  0  0
  150.5348  142.0365  156.9959 C   0  0  0  0  0  0  0  0  0  0  0  0
  150.9476  141.0152  157.5465 O   0  0  0  0  0  0  0  0  0  0  0  0
  150.5785  143.2744  157.5195 N   0  0  0  0  0  0  0  0  0  0  0  0
  151.0800  143.6753  158.7870 C   0  0  0  0  0  0  0  0  0  0  0  0
  151.2952  145.0646  158.9334 C   0  0  0  0  0  0  0  0  0  0  0  0
  151.7900  145.5644  160.1537 C   0  0  0  0  0  0  0  0  0  0  0  0
  152.0577  144.6609  161.1974 C   0  0  0  0  0  0  0  0  0  0  0  0
  151.8165  143.2935  160.9691 C   0  0  0  0  0  0  0  0  0  0  0  0
  151.3421  142.8124  159.8006 N   0  0  0  0  0  0  0  0  0  0  0  0
  151.0994  140.1104  154.7611 C   0  0  0  0  0  0  0  0  0  0  0  0
  150.8873  138.7737  154.0279 C   0  0  0  0  0  0  0  0  0  0  0  0
  148.2310  135.8760  155.5795 H   0  0  0  0  0  0  0  0  0  0  0  0
  148.6620  136.8164  157.0229 H   0  0  0  0  0  0  0  0  0  0  0  0
  149.4128  135.2511  156.7266 H   0  0  0  0  0  0  0  0  0  0  0  0
  148.2601  138.7983  153.7533 H   0  0  0  0  0  0  0  0  0  0  0  0
  147.8097  137.9914  155.2271 H   0  0  0  0  0  0  0  0  0  0  0  0
  147.7110  140.4548  155.5315 H   0  0  0  0  0  0  0  0  0  0  0  0
  148.9068  139.7463  156.5914 H   0  0  0  0  0  0  0  0  0  0  0  0
  149.4351  141.1873  153.9489 H   0  0  0  0  0  0  0  0  0  0  0  0
  149.6677  142.9293  155.4004 H   0  0  0  0  0  0  0  0  0  0  0  0
  150.2031  144.0164  156.9479 H   0  0  0  0  0  0  0  0  0  0  0  0
  151.0840  145.7452  158.1212 H   0  0  0  0  0  0  0  0  0  0  0  0
  151.9609  146.6227  160.2855 H   0  0  0  0  0  0  0  0  0  0  0  0
  152.4382  145.0063  162.1472 H   0  0  0  0  0  0  0  0  0  0  0  0
  152.0105  142.5664  161.7438 H   0  0  0  0  0  0  0  0  0  0  0  0
  151.8092  140.7283  154.2100 H   0  0  0  0  0  0  0  0  0  0  0  0
  151.5496  139.9155  155.7360 H   0  0  0  0  0  0  0  0  0  0  0  0
  151.8440  138.2722  153.8910 H   0  0  0  0  0  0  0  0  0  0  0  0
  150.5104  138.9582  153.0208 H   0  0  0  0  0  0  0  0  0  0  0  0
  1  2  1  0  0  0  0
  1 20  1  0  0  0  0
  1 21  1  0  0  0  0
  1 22  1  0  0  0  0
  2  3  2  0  0  0  0
  2  4  1  0  0  0  0
  4 19  1  0  0  0  0
  4  5  1  0  0  0  0
  5  6  1  0  0  0  0
  5 23  1  0  0  0  0
  5 24  1  0  0  0  0
  6  7  1  0  0  0  0
  6 25  1  0  0  0  0
  6 26  1  0  0  0  0
  7  8  1  0  0  0  0
  7 18  1  0  0  0  0
  7 27  1  0  0  0  0
  8  9  1  0  0  0  0
  8 28  1  0  0  0  0
  9 10  2  0  0  0  0
  9 11  1  0  0  0  0
 11 12  1  0  0  0  0
 11 29  1  0  0  0  0
 12 17  1  0  0  0  0
 12 13  2  0  0  0  0
 13 14  1  0  0  0  0
 13 30  1  0  0  0  0
 14 15  2  0  0  0  0
 14 31  1  0  0  0  0
 15 16  1  0  0  0  0
 15 32  1  0  0  0  0
 16 17  2  0  0  0  0
 16 33  1  0  0  0  0
 18 19  1  0  0  0  0
 18 34  1  0  0  0  0
 18 35  1  0  0  0  0
 19 36  1  0  0  0  0
 19 37  1  0  0  0  0
M  END
> <s_m_source_file>
AV-unprocessed.smi

> <i_m_source_file_index>
1397

> <i_lp_mmshare_version>
43012

> <i_f3d_flags>
0

> <s_epik_input>
W0NIM11DKD1PKU4xW0NIMl1bQ0gyXVtDSF0oW0NIMl1bQ0gyXTEpW05IXUMoPU8pW05IXWMyW2NIXVtjSF1bY0hdW2NIXW4y

> <s_epik_cmdline>
J2VwaWtfcHl0aG9uJywgJy1waCcsICc3LjAnLCAnLXRuJywgJzgnLCAnLW1hJywgJzIwMCcsICctbWV0YWxfYmluZGluZycsICctaW1hZScsICc8aW5maWxlLm1hZT4nLCAnLW9tYWUnLCAnPG91dGZpbGUubWFlPic=

> <r_lp_tautomer_probability>
1

> <r_epik_Ionization_Penalty>
4.8787e-05

> <r_epik_Ionization_Penalty_Charging>
0

> <r_epik_Ionization_Penalty_Neutral>
4.8787e-05

> <r_epik_State_Penalty>
-0

> <r_epik_Charging_Adjusted_Penalty>
0

> <i_epik_Tot_Q>
0

> <i_epik_Tot_abs_Q>
0

> <r_epik_Metal_State_Penalty>
-0

> <b_epik_Metal_Only>
0

> <s_lp_Force_Field>
OPLS_2005

> <r_lp_Energy>
25.5882

> <b_lp_Chiralities_Consistent>
1

> <s_lp_Variant>
AV-unprocessed.smi:1397-1

> <Gold.Version>
5.8.1

> <Gold.Id.Protein>
6NUR|6NUR_protein|mol2

> <Gold.PLP.Fitness>
43.0391

> <Gold.PLP.PLP>
-34.2479

> <Gold.PLP.part.hbond>
-3.1013

> <Gold.PLP.part.metal>
0.0000

> <Gold.PLP.part.buried>
-1.9667

> <Gold.PLP.part.nonpolar>
-28.2065

> <Gold.PLP.part.repulsive>
0.2377

> <Gold.PLP.ligand.clash>
0.0000

> <Gold.PLP.ligand.torsion>
0.1110

> <Gold.PLP.Chemscore.Hbond>
3.0000

> <Gold.PLP.Chemscore.CHOScore>
0.0000

> <Gold.PLP.Chemscore.Metal>
0.0000

> <Gold.Chemscore.Hbonds>
donor molecule, donor type, donor heavy atom, donor atom, acceptor molecule, acceptor atom, score
      L1  H     8    28       P1  8028  1.00
      L1  H    11    29       P1  8028  1.00
      P1  H 10752 10764       L1     3  0.86

> <Gold.PLP.Chemscore.Internal.Correction>
0.0132

> <Gold.Rescore>
     Score         DG    S(hbond)    S(metal)    S(lipo)     H(rot)  DE(clash)    DE(int)     intcor
     17.87     -21.64       2.87        0.00      77.96       1.00       1.36       2.41       ----

> <Gold.Chemscore.Fitness>
17.8719

> <Gold.Chemscore.DG>
-21.6358

> <Gold.Chemscore.ZeroCoef>
-5.4800

> <Gold.Chemscore.Hbond>
2.8725

> <Gold.Chemscore.Metal>
0.0000

> <Gold.Chemscore.Lipo>
77.9616

> <Gold.Chemscore.Internal_Hbond>
0.0000

> <Gold.Chemscore.DEClash>
1.3562

> <Gold.Chemscore.DEInternal>
2.4076

> <Gold.Chemscore.Rot>
1.0000

> <Gold.Chemscore.Internal.Correction>
   9.000000E+99

> <Gold.Chemscore.Hbonds>
donor molecule, donor type, donor heavy atom, donor atom, acceptor molecule, acceptor atom, score
      L1  H     8    28       P1  8028  0.94
      L1  H    11    29       P1  8028  0.93
      P1  H 10752 10764       L1     3  0.79

> <Gold.Chemscore.Hbond.Weighted>
-9.5943

> <Gold.Chemscore.Metal.Weighted>
-0.0000

> <Gold.Chemscore.Lipo.Weighted>
-9.1215

> <Gold.Chemscore.Internal_Hbond.Weighted>
0.0000

> <Gold.Chemscore.DEClash.Weighted>
1.3562

> <Gold.Chemscore.DEInternal.Weighted>
2.4076

> <Gold.Chemscore.Rot.Weighted>
2.5600

> <Gold.Chemscore.Internal.Correction.Weighted>
   9.000000E+99

> <Gold.Protein.RotatedTorsions>
[ 6907 6896 6895 6894 ] final  106.13 input  -60.11 | X-H torsion
[ 7974 7965 7964 7962 ] final   68.50 input  175.53 | X-H torsion
[ 8008 7997 7996 7995 ] final -147.57 input   59.86 | X-H torsion
[ 10167 10162 10161 10158 ] final  155.38 input  -65.29 | X-H torsion
[ 10718 10713 10712 10709 ] final   -5.90 input   66.30 | X-H torsion
[ 10763 10752 10751 10750 ] final  -28.92 input  -60.55 | X-H torsion
[ 11005 11000 10999 10996 ] final -112.24 input  -57.11 | X-H torsion

> <Gold.Protein.ActiveResidues>
 VAL166  LYS551  ARG553  GLY616  TRP617  ASP618  TYR619  PRO620  LYS621  CYS622 
 ASP623  PHE694  ASN695  SER759  ASP760  ASP761  ALA762  ILE779  LEU786  VAL792 
 PHE793  MET794  SER795  GLU796  ALA797  LYS798  CYS799  TRP800  GLU811  SER814 

> <Gold.Protein.RotatedAtoms>
  152.5205  133.9426  159.7633 H   0  0  0  0  0  0  0  0  0  0  0  0  # atno 6907 bound_to 6896
  150.9753  133.6293  159.2738 H   0  0  0  0  0  0  0  0  0  0  0  0  # atno 6908 bound_to 6896
  151.3490  135.0886  159.9449 H   0  0  0  0  0  0  0  0  0  0  0  0  # atno 6909 bound_to 6896
  145.8018  139.2986  143.1150 H   0  0  0  0  0  0  0  0  0  0  0  0  # atno 7974 bound_to 7965
  155.5777  140.0640  157.2791 H   0  0  0  0  0  0  0  0  0  0  0  0  # atno 8008 bound_to 7997
  154.4342  140.1857  156.0990 H   0  0  0  0  0  0  0  0  0  0  0  0  # atno 8009 bound_to 7997
  156.0329  140.3304  155.7163 H   0  0  0  0  0  0  0  0  0  0  0  0  # atno 8010 bound_to 7997
  139.4821  144.5103  151.8034 H   0  0  0  0  0  0  0  0  0  0  0  0  # atno 10167 bound_to 10162
  156.7397  130.5206  149.5827 H   0  0  0  0  0  0  0  0  0  0  0  0  # atno 10718 bound_to 10713
  153.7561  135.6922  153.4935 H   0  0  0  0  0  0  0  0  0  0  0  0  # atno 10763 bound_to 10752
  153.1970  135.4450  155.0218 H   0  0  0  0  0  0  0  0  0  0  0  0  # atno 10764 bound_to 10752
  154.8170  135.3403  154.7079 H   0  0  0  0  0  0  0  0  0  0  0  0  # atno 10765 bound_to 10752
  141.0687  133.9416  157.2528 H   0  0  0  0  0  0  0  0  0  0  0  0  # atno 11005 bound_to 11000
  145.9869  140.8635  143.0086 LP  0  0  0  0  0  0  0  0  0  0  0  0  # atno 17320 bound_to 7965
  144.6768  140.2160  143.7371 LP  0  0  0  0  0  0  0  0  0  0  0  0  # atno 17321 bound_to 7965
  140.4606  144.1727  150.5906 LP  0  0  0  0  0  0  0  0  0  0  0  0  # atno 17342 bound_to 10162
  140.4489  143.2495  151.9375 LP  0  0  0  0  0  0  0  0  0  0  0  0  # atno 17343 bound_to 10162
  156.1473  130.6285  151.0548 LP  0  0  0  0  0  0  0  0  0  0  0  0  # atno 17370 bound_to 10713
  157.6823  131.0834  150.7335 LP  0  0  0  0  0  0  0  0  0  0  0  0  # atno 17371 bound_to 10713
  139.9502  135.0177  156.8970 LP  0  0  0  0  0  0  0  0  0  0  0  0  # atno 17394 bound_to 11000
  140.5719  134.0435  155.7433 LP  0  0  0  0  0  0  0  0  0  0  0  0  # atno 17395 bound_to 11000

$$$$
