AV-unprocessed.smi:711|AV-procd|sdf|3467|dock9
  -GOLD-   22720 0453D 1   1.00000     0.00000
 Structure written by MMmdl.
 28 29  0  0  0  0  0  0  0  0  2 V2000
  146.9806  139.4737  155.5185 O   0  0  0  0  0  0  0  0  0  0  0  0
  147.9875  140.0883  155.8675 C   0  0  0  0  0  0  0  0  0  0  0  0
  148.7419  139.7160  156.9426 N   0  5  0  0  0  0  0  0  0  0  0  0
  149.8671  140.3840  157.3447 C   0  0  0  0  0  0  0  0  0  0  0  0
  150.5289  140.0271  158.3194 O   0  0  0  0  0  0  0  0  0  0  0  0
  150.2672  141.4820  156.6374 N   0  0  0  0  0  0  0  0  0  0  0  0
  151.4600  142.2634  156.9944 C   0  0  0  0  0  0  0  0  0  0  0  0
  151.1257  143.4316  157.9458 C   0  0  1  0  0  0  0  0  0  0  0  0
  149.7211  143.5815  158.0157 O   0  0  0  0  0  0  0  0  0  0  0  0
  151.7305  143.1919  159.3238 C   0  0  0  0  0  0  0  0  0  0  0  0
  152.3972  141.9792  159.6110 C   0  0  0  0  0  0  0  0  0  0  0  0
  152.9698  141.7634  160.8793 C   0  0  0  0  0  0  0  0  0  0  0  0
  152.8841  142.7606  161.8689 C   0  0  0  0  0  0  0  0  0  0  0  0
  153.4359  142.5549  163.0882 F   0  0  0  0  0  0  0  0  0  0  0  0
  152.2276  143.9737  161.5883 C   0  0  0  0  0  0  0  0  0  0  0  0
  151.6547  144.1921  160.3200 C   0  0  0  0  0  0  0  0  0  0  0  0
  151.0371  145.3709  160.0652 F   0  0  0  0  0  0  0  0  0  0  0  0
  149.5227  141.9108  155.5252 C   0  0  0  0  0  0  0  0  0  0  0  0
  148.4123  141.2674  155.1159 C   0  0  0  0  0  0  0  0  0  0  0  0
  147.5156  141.8196  153.7462 Cl  0  0  0  0  0  0  0  0  0  0  0  0
  152.2648  141.6462  157.3981 H   0  0  0  0  0  0  0  0  0  0  0  0
  151.8660  142.6676  156.0655 H   0  0  0  0  0  0  0  0  0  0  0  0
  151.5273  144.3630  157.5455 H   0  0  0  0  0  0  0  0  0  0  0  0
  149.4030  143.8325  157.1622 H   0  0  0  0  0  0  0  0  0  0  0  0
  152.4765  141.2097  158.8569 H   0  0  0  0  0  0  0  0  0  0  0  0
  153.4768  140.8337  161.0913 H   0  0  0  0  0  0  0  0  0  0  0  0
  152.1659  144.7401  162.3466 H   0  0  0  0  0  0  0  0  0  0  0  0
  149.9073  142.7923  155.0327 H   0  0  0  0  0  0  0  0  0  0  0  0
  1  2  2  0  0  0  0
  2 19  1  0  0  0  0
  2  3  1  0  0  0  0
  3  4  1  0  0  0  0
  4  5  2  0  0  0  0
  4  6  1  0  0  0  0
  6  7  1  0  0  0  0
  6 18  1  0  0  0  0
  7  8  1  0  0  0  0
  7 21  1  0  0  0  0
  7 22  1  0  0  0  0
  8  9  1  0  0  0  0
  8 10  1  0  0  0  0
  8 23  1  0  0  0  0
  9 24  1  0  0  0  0
 10 16  1  0  0  0  0
 10 11  2  0  0  0  0
 11 12  1  0  0  0  0
 11 25  1  0  0  0  0
 12 13  2  0  0  0  0
 12 26  1  0  0  0  0
 13 14  1  0  0  0  0
 13 15  1  0  0  0  0
 15 16  2  0  0  0  0
 15 27  1  0  0  0  0
 16 17  1  0  0  0  0
 18 19  2  0  0  0  0
 18 28  1  0  0  0  0
 19 20  1  0  0  0  0
M  CHG  1   3  -1
M  END
> <s_m_source_file>
AV-unprocessed.smi

> <i_m_source_file_index>
711

> <i_lp_mmshare_version>
43012

> <i_f3d_flags>
0

> <s_epik_input>
Tz1jMVtuSF1jKD1PKW4oW2NIXWMxQ2wpW0NIMl1bQ0BIXShbT0hdKWMyW2NIXVtjSF1jKEYpW2NIXWMyRg==

> <s_epik_cmdline>
J2VwaWtfcHl0aG9uJywgJy1waCcsICc3LjAnLCAnLXRuJywgJzgnLCAnLW1hJywgJzIwMCcsICctbWV0YWxfYmluZGluZycsICctaW1hZScsICc8aW5maWxlLm1hZT4nLCAnLW9tYWUnLCAnPG91dGZpbGUubWFlPic=

> <r_epik_Ionization_Penalty>
1.7979

> <r_epik_Ionization_Penalty_Charging>
3.23819e-08

> <r_epik_Ionization_Penalty_Neutral>
1.7979

> <r_epik_State_Penalty>
1.91135

> <r_epik_Charging_Adjusted_Penalty>
1.91135

> <i_epik_Tot_Q>
-1

> <i_epik_Tot_abs_Q>
1

> <r_epik_Metal_State_Penalty>
0.014155

> <b_epik_Metal_Only>
0

> <s_lp_Force_Field>
OPLS_2005

> <r_lp_Energy>
21.7913

> <b_lp_Chiralities_Consistent>
1

> <s_lp_Variant>
AV-unprocessed.smi:711-4

> <Gold.Version>
5.8.1

> <Gold.Id.Protein>
6NUR|6NUR_protein|mol2

> <Gold.PLP.Fitness>
47.2925

> <Gold.PLP.PLP>
-44.1054

> <Gold.PLP.part.hbond>
-1.5943

> <Gold.PLP.part.metal>
0.0000

> <Gold.PLP.part.buried>
-5.0739

> <Gold.PLP.part.nonpolar>
-37.9155

> <Gold.PLP.part.repulsive>
0.0040

> <Gold.PLP.ligand.clash>
0.0000

> <Gold.PLP.ligand.torsion>
1.1171

> <Gold.PLP.Chemscore.Hbond>
1.0000

> <Gold.PLP.Chemscore.CHOScore>
0.8038

> <Gold.PLP.Chemscore.Metal>
0.0000

> <Gold.Chemscore.Hbonds>
donor molecule, donor type, donor heavy atom, donor atom, acceptor molecule, acceptor atom, score
      L1  H     9    24       P1  8028  1.00
      L1  C    18    28       P1  8028  0.69

> <Gold.PLP.Chemscore.Internal.Correction>
0.0100

> <Gold.Rescore>
     Score         DG    S(hbond)    S(metal)    S(lipo)     H(rot)  DE(clash)    DE(int)     intcor
     11.20     -14.29       0.85        0.00     101.77       2.32       0.35       2.74       ----

> <Gold.Chemscore.Fitness>
11.2013

> <Gold.Chemscore.DG>
-14.2945

> <Gold.Chemscore.ZeroCoef>
-5.4800

> <Gold.Chemscore.Hbond>
0.8495

> <Gold.Chemscore.Metal>
0.0000

> <Gold.Chemscore.Lipo>
101.7711

> <Gold.Chemscore.Internal_Hbond>
0.0000

> <Gold.Chemscore.DEClash>
0.3524

> <Gold.Chemscore.DEInternal>
2.7408

> <Gold.Chemscore.Rot>
2.3164

> <Gold.Chemscore.Internal.Correction>
   9.000000E+99

> <Gold.Chemscore.Hbonds>
donor molecule, donor type, donor heavy atom, donor atom, acceptor molecule, acceptor atom, score
      L1  H     9    24       P1  8028  0.60

> <Gold.Chemscore.Hbond.Weighted>
-2.8374

> <Gold.Chemscore.Metal.Weighted>
-0.0000

> <Gold.Chemscore.Lipo.Weighted>
-11.9072

> <Gold.Chemscore.Internal_Hbond.Weighted>
0.0000

> <Gold.Chemscore.DEClash.Weighted>
0.3524

> <Gold.Chemscore.DEInternal.Weighted>
2.7408

> <Gold.Chemscore.Rot.Weighted>
5.9301

> <Gold.Chemscore.Internal.Correction.Weighted>
   9.000000E+99

> <Gold.Protein.RotatedTorsions>
[ 6907 6896 6895 6894 ] final  129.02 input  -60.11 | X-H torsion
[ 7974 7965 7964 7962 ] final -106.73 input  175.53 | X-H torsion
[ 8008 7997 7996 7995 ] final   75.03 input   59.86 | X-H torsion
[ 10167 10162 10161 10158 ] final  177.25 input  -65.29 | X-H torsion
[ 10718 10713 10712 10709 ] final  -23.97 input   66.30 | X-H torsion
[ 10763 10752 10751 10750 ] final -101.25 input  -60.55 | X-H torsion
[ 11005 11000 10999 10996 ] final   -8.53 input  -57.11 | X-H torsion

> <Gold.Protein.ActiveResidues>
 VAL166  LYS551  ARG553  GLY616  TRP617  ASP618  TYR619  PRO620  LYS621  CYS622 
 ASP623  PHE694  ASN695  SER759  ASP760  ASP761  ALA762  ILE779  LEU786  VAL792 
 PHE793  MET794  SER795  GLU796  ALA797  LYS798  CYS799  TRP800  GLU811  SER814 

> <Gold.Protein.RotatedAtoms>
  152.3664  133.6362  159.6053 H   0  0  0  0  0  0  0  0  0  0  0  0  # atno 6907 bound_to 6896
  150.7637  133.9341  159.3445 H   0  0  0  0  0  0  0  0  0  0  0  0  # atno 6908 bound_to 6896
  151.7171  135.0902  160.0329 H   0  0  0  0  0  0  0  0  0  0  0  0  # atno 6909 bound_to 6896
  145.2142  140.9108  143.3297 H   0  0  0  0  0  0  0  0  0  0  0  0  # atno 7974 bound_to 7965
  155.8069  140.3474  155.5435 H   0  0  0  0  0  0  0  0  0  0  0  0  # atno 8008 bound_to 7997
  155.8480  140.0952  157.1713 H   0  0  0  0  0  0  0  0  0  0  0  0  # atno 8009 bound_to 7997
  154.4007  140.1382  156.3797 H   0  0  0  0  0  0  0  0  0  0  0  0  # atno 8010 bound_to 7997
  139.5246  144.2821  152.0538 H   0  0  0  0  0  0  0  0  0  0  0  0  # atno 10167 bound_to 10162
  156.4839  130.4551  149.6795 H   0  0  0  0  0  0  0  0  0  0  0  0  # atno 10718 bound_to 10713
  154.7643  135.4905  153.9523 H   0  0  0  0  0  0  0  0  0  0  0  0  # atno 10763 bound_to 10752
  153.1288  135.6748  153.9219 H   0  0  0  0  0  0  0  0  0  0  0  0  # atno 10764 bound_to 10752
  153.8929  135.3119  155.3426 H   0  0  0  0  0  0  0  0  0  0  0  0  # atno 10765 bound_to 10752
  140.7245  133.8801  155.8845 H   0  0  0  0  0  0  0  0  0  0  0  0  # atno 11005 bound_to 11000
  144.9827  139.3767  143.6254 LP  0  0  0  0  0  0  0  0  0  0  0  0  # atno 17320 bound_to 7965
  146.3391  139.8975  142.8799 LP  0  0  0  0  0  0  0  0  0  0  0  0  # atno 17321 bound_to 7965
  140.2275  144.4402  150.6314 LP  0  0  0  0  0  0  0  0  0  0  0  0  # atno 17342 bound_to 10162
  140.6377  143.2198  151.6358 LP  0  0  0  0  0  0  0  0  0  0  0  0  # atno 17343 bound_to 10162
  156.3493  130.7424  151.2381 LP  0  0  0  0  0  0  0  0  0  0  0  0  # atno 17370 bound_to 10713
  157.7480  131.0381  150.4489 LP  0  0  0  0  0  0  0  0  0  0  0  0  # atno 17371 bound_to 10713
  140.9975  134.1195  157.4349 LP  0  0  0  0  0  0  0  0  0  0  0  0  # atno 17394 bound_to 11000
  139.8840  135.0059  156.6342 LP  0  0  0  0  0  0  0  0  0  0  0  0  # atno 17395 bound_to 11000

$$$$
