AV-unprocessed.smi:1815|AV-procd|sdf|7360|dock7
  -GOLD-   22720 9 23D 1   1.00000     0.00000
 Structure written by MMmdl.
 39 40  0  0  0  0  0  0  0  0  3 V2000
  145.9550  132.0794  149.8604 C   0  0  0  0  0  0  0  0  0  0  0  0
  146.2778  133.2831  150.7528 C   0  0  2  0  0  0  0  0  0  0  0  0
  147.1359  132.8873  151.9675 C   0  0  0  0  0  0  0  0  0  0  0  0
  147.3566  134.0573  152.8480 N   0  3  2  0  0  0  0  0  0  0  0  0
  148.2706  133.7549  153.9768 C   0  0  0  0  0  0  0  0  0  0  0  0
  148.3074  134.8878  155.0137 C   0  0  0  0  0  0  0  0  0  0  0  0
  149.0166  136.0413  154.4792 N   0  0  0  0  0  0  0  0  0  0  0  0
  149.3330  137.1403  155.1760 C   0  0  0  0  0  0  0  0  0  0  0  0
  149.0260  137.2206  156.3677 O   0  0  0  0  0  0  0  0  0  0  0  0
  149.9840  138.0751  154.4481 N   0  5  0  0  0  0  0  0  0  0  0  0
  150.0249  139.3487  154.8722 C   0  0  0  0  0  0  0  0  0  0  0  0
  150.9712  139.8130  155.6963 N   0  0  0  0  0  0  0  0  0  0  0  0
  150.8168  141.1634  156.0140 C   0  0  0  0  0  0  0  0  0  0  0  0
  149.7222  141.7386  155.4251 C   0  0  0  0  0  0  0  0  0  0  0  0
  148.8488  140.5950  154.4463 S   0  0  0  0  0  0  0  0  0  0  0  0
  146.0567  134.6317  153.2740 C   0  0  0  0  0  0  0  0  0  0  0  0
  145.1757  134.9759  152.0570 C   0  0  1  0  0  0  0  0  0  0  0  0
  145.6428  136.2285  151.2942 C   0  0  0  0  0  0  0  0  0  0  0  0
  145.0451  133.8388  151.2033 O   0  0  0  0  0  0  0  0  0  0  0  0
  146.8660  131.6210  149.4746 H   0  0  0  0  0  0  0  0  0  0  0  0
  145.3475  132.3796  149.0064 H   0  0  0  0  0  0  0  0  0  0  0  0
  145.4027  131.3164  150.4095 H   0  0  0  0  0  0  0  0  0  0  0  0
  146.8133  134.0157  150.1485 H   0  0  0  0  0  0  0  0  0  0  0  0
  146.6504  132.0908  152.5344 H   0  0  0  0  0  0  0  0  0  0  0  0
  148.0951  132.4975  151.6237 H   0  0  0  0  0  0  0  0  0  0  0  0
  147.9870  132.8096  154.4425 H   0  0  0  0  0  0  0  0  0  0  0  0
  149.2818  133.6178  153.5902 H   0  0  0  0  0  0  0  0  0  0  0  0
  147.2915  135.1803  155.2844 H   0  0  0  0  0  0  0  0  0  0  0  0
  148.8083  134.5681  155.9274 H   0  0  0  0  0  0  0  0  0  0  0  0
  149.2865  136.0123  153.5067 H   0  0  0  0  0  0  0  0  0  0  0  0
  151.5331  141.6346  156.6704 H   0  0  0  0  0  0  0  0  0  0  0  0
  149.3771  142.7581  155.5069 H   0  0  0  0  0  0  0  0  0  0  0  0
  145.5390  133.9077  153.9050 H   0  0  0  0  0  0  0  0  0  0  0  0
  146.2050  135.5247  153.8801 H   0  0  0  0  0  0  0  0  0  0  0  0
  144.1724  135.1907  152.4264 H   0  0  0  0  0  0  0  0  0  0  0  0
  145.6124  137.1064  151.9401 H   0  0  0  0  0  0  0  0  0  0  0  0
  144.9957  136.4273  150.4397 H   0  0  0  0  0  0  0  0  0  0  0  0
  146.6641  136.1344  150.9263 H   0  0  0  0  0  0  0  0  0  0  0  0
  147.8208  134.7550  152.2836 H   0  0  0  0  0  0  0  0  0  0  0  0
  1  2  1  0  0  0  0
  1 20  1  0  0  0  0
  1 21  1  0  0  0  0
  1 22  1  0  0  0  0
  2 19  1  0  0  0  0
  2  3  1  0  0  0  0
  2 23  1  0  0  0  0
  3  4  1  0  0  0  0
  3 24  1  0  0  0  0
  3 25  1  0  0  0  0
  4  5  1  0  0  0  0
  4 16  1  0  0  0  0
  4 39  1  0  0  0  0
  5  6  1  0  0  0  0
  5 26  1  0  0  0  0
  5 27  1  0  0  0  0
  6  7  1  0  0  0  0
  6 28  1  0  0  0  0
  6 29  1  0  0  0  0
  7  8  1  0  0  0  0
  7 30  1  0  0  0  0
  8  9  2  0  0  0  0
  8 10  1  0  0  0  0
 10 11  1  0  0  0  0
 11 15  1  0  0  0  0
 11 12  2  0  0  0  0
 12 13  1  0  0  0  0
 13 14  2  0  0  0  0
 13 31  1  0  0  0  0
 14 15  1  0  0  0  0
 14 32  1  0  0  0  0
 16 17  1  0  0  0  0
 16 33  1  0  0  0  0
 16 34  1  0  0  0  0
 17 18  1  0  0  0  0
 17 19  1  0  0  0  0
 17 35  1  0  0  0  0
 18 36  1  0  0  0  0
 18 37  1  0  0  0  0
 18 38  1  0  0  0  0
M  CHG  1   4   1
M  CHG  1  10  -1
M  END
> <s_m_source_file>
AV-unprocessed.smi

> <i_m_source_file_index>
1815

> <i_lp_mmshare_version>
43012

> <i_f3d_flags>
0

> <s_epik_input>
W0NIM11bQ0BASF0xW0NIMl1OKFtDSDJdW0NASF0oTzEpW0NIM10pW0NIMl1bQ0gyXVtOSF1DKD1PKVtOSF1jMm5bY0hdW2NIXXMy

> <s_epik_cmdline>
J2VwaWtfcHl0aG9uJywgJy1waCcsICc3LjAnLCAnLXRuJywgJzgnLCAnLW1hJywgJzIwMCcsICctbWV0YWxfYmluZGluZycsICctaW1hZScsICc8aW5maWxlLm1hZT4nLCAnLW9tYWUnLCAnPG91dGZpbGUubWFlPic=

> <r_lp_tautomer_probability>
0.999

> <r_epik_Ionization_Penalty>
6.71699

> <r_epik_Ionization_Penalty_Charging>
5.88592

> <r_epik_Ionization_Penalty_Neutral>
0.831074

> <r_epik_State_Penalty>
6.08365

> <r_epik_Charging_Adjusted_Penalty>
11.9696

> <i_epik_Tot_Q>
0

> <i_epik_Tot_abs_Q>
2

> <r_epik_Metal_State_Penalty>
2.0947

> <b_epik_Metal_Only>
1

> <s_lp_Force_Field>
OPLS_2005

> <r_lp_Energy>
8.1919

> <b_lp_Chiralities_Consistent>
1

> <s_lp_Variant>
AV-unprocessed.smi:1815-11

> <Gold.Version>
5.8.1

> <Gold.Id.Protein>
6NUR|6NUR_protein|mol2

> <Gold.PLP.Fitness>
40.8766

> <Gold.PLP.PLP>
-30.8045

> <Gold.PLP.part.hbond>
-1.9935

> <Gold.PLP.part.metal>
0.0000

> <Gold.PLP.part.buried>
-3.0614

> <Gold.PLP.part.nonpolar>
-26.0394

> <Gold.PLP.part.repulsive>
0.3916

> <Gold.PLP.ligand.clash>
0.0000

> <Gold.PLP.ligand.torsion>
0.9720

> <Gold.PLP.Chemscore.Hbond>
3.0000

> <Gold.PLP.Chemscore.CHOScore>
1.0000

> <Gold.PLP.Chemscore.Metal>
0.0000

> <Gold.Chemscore.Hbonds>
donor molecule, donor type, donor heavy atom, donor atom, acceptor molecule, acceptor atom, score
      L1  H     4    39       P1  7948  2.00
      L1  H     7    30       P1  7948  1.00
      L1  C    14    32       P1  8028  0.99

> <Gold.PLP.Chemscore.Internal.Correction>
0.0160

> <Gold.Rescore>
     Score         DG    S(hbond)    S(metal)    S(lipo)     H(rot)  DE(clash)    DE(int)     intcor
     14.01     -14.98       1.92        0.00      61.56       1.61       0.06       0.91       ----

> <Gold.Chemscore.Fitness>
14.0085

> <Gold.Chemscore.DG>
-14.9811

> <Gold.Chemscore.ZeroCoef>
-5.4800

> <Gold.Chemscore.Hbond>
1.9190

> <Gold.Chemscore.Metal>
0.0000

> <Gold.Chemscore.Lipo>
61.5617

> <Gold.Chemscore.Internal_Hbond>
0.0000

> <Gold.Chemscore.DEClash>
0.0641

> <Gold.Chemscore.DEInternal>
0.9085

> <Gold.Chemscore.Rot>
1.6060

> <Gold.Chemscore.Internal.Correction>
   9.000000E+99

> <Gold.Chemscore.Hbonds>
donor molecule, donor type, donor heavy atom, donor atom, acceptor molecule, acceptor atom, score
      L1  H     4    39       P1  7948  0.70
      L1  H     7    30       P1  7948  0.72

> <Gold.Chemscore.Hbond.Weighted>
-6.4096

> <Gold.Chemscore.Metal.Weighted>
-0.0000

> <Gold.Chemscore.Lipo.Weighted>
-7.2027

> <Gold.Chemscore.Internal_Hbond.Weighted>
0.0000

> <Gold.Chemscore.DEClash.Weighted>
0.0641

> <Gold.Chemscore.DEInternal.Weighted>
0.9085

> <Gold.Chemscore.Rot.Weighted>
4.1112

> <Gold.Chemscore.Internal.Correction.Weighted>
   9.000000E+99

> <Gold.Protein.RotatedTorsions>
[ 6907 6896 6895 6894 ] final  -55.42 input  -60.11 | X-H torsion
[ 7974 7965 7964 7962 ] final  130.35 input  175.53 | X-H torsion
[ 8008 7997 7996 7995 ] final  128.31 input   59.86 | X-H torsion
[ 10167 10162 10161 10158 ] final -176.26 input  -65.29 | X-H torsion
[ 10718 10713 10712 10709 ] final    3.74 input   66.30 | X-H torsion
[ 10763 10752 10751 10750 ] final  140.52 input  -60.55 | X-H torsion
[ 11005 11000 10999 10996 ] final -145.91 input  -57.11 | X-H torsion

> <Gold.Protein.ActiveResidues>
 VAL166  LYS551  ARG553  GLY616  TRP617  ASP618  TYR619  PRO620  LYS621  CYS622 
 ASP623  PHE694  ASN695  SER759  ASP760  ASP761  ALA762  ILE779  LEU786  VAL792 
 PHE793  MET794  SER795  GLU796  ALA797  LYS798  CYS799  TRP800  GLU811  SER814 

> <Gold.Protein.RotatedAtoms>
  150.8253  134.7481  159.6807 H   0  0  0  0  0  0  0  0  0  0  0  0  # atno 6907 bound_to 6896
  152.4364  134.5674  159.9921 H   0  0  0  0  0  0  0  0  0  0  0  0  # atno 6908 bound_to 6896
  151.5848  133.3336  159.3051 H   0  0  0  0  0  0  0  0  0  0  0  0  # atno 6909 bound_to 6896
  145.0188  139.4151  143.5208 H   0  0  0  0  0  0  0  0  0  0  0  0  # atno 7974 bound_to 7965
  156.2912  140.2648  156.2415 H   0  0  0  0  0  0  0  0  0  0  0  0  # atno 8008 bound_to 7997
  154.9972  140.0388  157.2363 H   0  0  0  0  0  0  0  0  0  0  0  0  # atno 8009 bound_to 7997
  154.7633  140.2765  155.6201 H   0  0  0  0  0  0  0  0  0  0  0  0  # atno 8010 bound_to 7997
  139.5538  144.2040  152.1124 H   0  0  0  0  0  0  0  0  0  0  0  0  # atno 10167 bound_to 10162
  156.8823  130.5658  149.5652 H   0  0  0  0  0  0  0  0  0  0  0  0  # atno 10718 bound_to 10713
  153.9241  135.2997  155.3447 H   0  0  0  0  0  0  0  0  0  0  0  0  # atno 10763 bound_to 10752
  154.7560  135.4957  153.9379 H   0  0  0  0  0  0  0  0  0  0  0  0  # atno 10764 bound_to 10752
  153.1126  135.6763  153.9577 H   0  0  0  0  0  0  0  0  0  0  0  0  # atno 10765 bound_to 10752
  140.7874  134.3008  157.5025 H   0  0  0  0  0  0  0  0  0  0  0  0  # atno 11005 bound_to 11000
  146.3482  139.9674  142.8710 LP  0  0  0  0  0  0  0  0  0  0  0  0  # atno 17320 bound_to 7965
  145.1923  140.9817  143.4203 LP  0  0  0  0  0  0  0  0  0  0  0  0  # atno 17321 bound_to 7965
  140.1540  144.5088  150.6670 LP  0  0  0  0  0  0  0  0  0  0  0  0  # atno 17342 bound_to 10162
  140.6807  143.2325  151.5391 LP  0  0  0  0  0  0  0  0  0  0  0  0  # atno 17343 bound_to 10162
  156.0671  130.5712  150.9310 LP  0  0  0  0  0  0  0  0  0  0  0  0  # atno 17370 bound_to 10713
  157.6133  131.0935  150.8756 LP  0  0  0  0  0  0  0  0  0  0  0  0  # atno 17371 bound_to 10713
  139.8735  134.9354  156.3634 LP  0  0  0  0  0  0  0  0  0  0  0  0  # atno 17394 bound_to 11000
  140.9423  133.7506  156.0162 LP  0  0  0  0  0  0  0  0  0  0  0  0  # atno 17395 bound_to 11000

$$$$
