AV-unprocessed.smi:53|AV-procd|sdf|528|dock3
  -GOLD-   2262016403D 1   1.00000     0.00000
 Structure written by MMmdl.
 30 31  0  0  0  0  0  0  0  0  1 V2000
  153.1849  143.8290  159.5757 N   0  0  0  0  0  0  0  0  0  0  0  0
  152.5004  142.9181  158.8695 C   0  0  0  0  0  0  0  0  0  0  0  0
  151.4673  143.3337  157.9477 C   0  0  0  0  0  0  0  0  0  0  0  0
  150.8210  142.3559  157.2754 C   0  0  0  0  0  0  0  0  0  0  0  0
  151.1187  141.0128  157.4577 N   0  0  0  0  0  0  0  0  0  0  0  0
  150.3745  139.9446  156.6854 C   0  0  1  0  0  0  0  0  0  0  0  0
  149.2259  140.5144  156.1430 O   0  0  0  0  0  0  0  0  0  0  0  0
  148.9107  139.8347  154.9384 C   0  0  1  0  0  0  0  0  0  0  0  0
  147.9868  140.7058  154.0741 C   0  0  0  0  0  0  0  0  0  0  0  0
  147.6523  140.0221  152.8855 O   0  0  0  0  0  0  0  0  0  0  0  0
  150.2905  139.5982  154.3138 C   0  0  2  0  0  0  0  0  0  0  0  0
  150.2554  138.4684  153.4638 O   0  0  0  0  0  0  0  0  0  0  0  0
  151.1926  139.3432  155.5193 C   0  0  1  0  0  0  0  0  0  0  0  0
  152.4634  139.9389  155.3263 O   0  0  0  0  0  0  0  0  0  0  0  0
  152.1488  140.6370  158.3524 C   0  0  0  0  0  0  0  0  0  0  0  0
  152.4725  139.4611  158.5151 O   0  0  0  0  0  0  0  0  0  0  0  0
  152.7898  141.6408  159.0279 N   0  0  0  0  0  0  0  0  0  0  0  0
  150.0493  139.1894  157.4034 H   0  0  0  0  0  0  0  0  0  0  0  0
  148.4421  138.8784  155.1822 H   0  0  0  0  0  0  0  0  0  0  0  0
  150.6132  140.4844  153.7643 H   0  0  0  0  0  0  0  0  0  0  0  0
  151.3177  138.2772  155.7158 H   0  0  0  0  0  0  0  0  0  0  0  0
  153.9086  143.5370  160.2165 H   0  0  0  0  0  0  0  0  0  0  0  0
  152.9741  144.8105  159.4646 H   0  0  0  0  0  0  0  0  0  0  0  0
  151.2004  144.3672  157.7790 H   0  0  0  0  0  0  0  0  0  0  0  0
  150.0536  142.6442  156.5717 H   0  0  0  0  0  0  0  0  0  0  0  0
  147.0850  140.9901  154.6175 H   0  0  0  0  0  0  0  0  0  0  0  0
  148.4974  141.6260  153.7885 H   0  0  0  0  0  0  0  0  0  0  0  0
  148.4324  139.9411  152.3578 H   0  0  0  0  0  0  0  0  0  0  0  0
  150.2302  138.7663  152.5675 H   0  0  0  0  0  0  0  0  0  0  0  0
  152.3428  140.7526  154.8607 H   0  0  0  0  0  0  0  0  0  0  0  0
  1  2  1  0  0  0  0
  1 22  1  0  0  0  0
  1 23  1  0  0  0  0
  2 17  2  0  0  0  0
  2  3  1  0  0  0  0
  3  4  2  0  0  0  0
  3 24  1  0  0  0  0
  4  5  1  0  0  0  0
  4 25  1  0  0  0  0
  5  6  1  0  0  0  0
  5 15  1  0  0  0  0
  6 18  1  0  0  0  0
  6 13  1  0  0  0  0
  6  7  1  0  0  0  0
  7  8  1  0  0  0  0
  8 19  1  0  0  0  0
  8  9  1  0  0  0  0
  8 11  1  0  0  0  0
  9 10  1  0  0  0  0
  9 26  1  0  0  0  0
  9 27  1  0  0  0  0
 10 28  1  0  0  0  0
 11 20  1  0  0  0  0
 11 12  1  0  0  0  0
 11 13  1  0  0  0  0
 12 29  1  0  0  0  0
 13 21  1  0  0  0  0
 13 14  1  0  0  0  0
 14 30  1  0  0  0  0
 15 16  2  0  0  0  0
 15 17  1  0  0  0  0
M  END
> <s_m_source_file>
AV-unprocessed.smi

> <i_m_source_file_index>
53

> <i_lp_mmshare_version>
43012

> <i_f3d_flags>
0

> <s_epik_input>
W05IMl1jMVtjSF1bY0hdbihjKD1PKW4xKVtDQEBIXTJPW0NASF0oW0NIMl1bT0hdKVtDQEBIXShbT0hdKVtDQEBIXTJbT0hd

> <s_epik_cmdline>
J2VwaWtfcHl0aG9uJywgJy1waCcsICc3LjAnLCAnLXRuJywgJzgnLCAnLW1hJywgJzIwMCcsICctbWV0YWxfYmluZGluZycsICctaW1hZScsICc8aW5maWxlLm1hZT4nLCAnLW9tYWUnLCAnPG91dGZpbGUubWFlPic=

> <r_lp_tautomer_probability>
0.99996

> <r_epik_Ionization_Penalty>
0.00069087

> <r_epik_Ionization_Penalty_Charging>
2.61959e-08

> <r_epik_Ionization_Penalty_Neutral>
0.000690844

> <r_epik_State_Penalty>
1.15523e-05

> <r_epik_Charging_Adjusted_Penalty>
1.15785e-05

> <i_epik_Tot_Q>
0

> <i_epik_Tot_abs_Q>
0

> <r_epik_Metal_State_Penalty>
-0

> <b_epik_Metal_Only>
0

> <s_epik_Chemistry_Notes>
This compound contains an acetal/aminal-like group ( X-CH(R)-Y where X, Y are N, S, or O) that may be acid/base labile, releasing an aldehyde.

> <s_lp_Force_Field>
OPLS_2005

> <r_lp_Energy>
34.4985

> <b_lp_Chiralities_Consistent>
1

> <s_lp_Variant>
AV-unprocessed.smi:53-16

> <Gold.Version>
5.8.1

> <Gold.Id.Protein>
6NUR|6NUR_protein|mol2

> <Gold.PLP.Fitness>
38.8595

> <Gold.PLP.PLP>
-27.6145

> <Gold.PLP.part.hbond>
-5.0865

> <Gold.PLP.part.metal>
0.0000

> <Gold.PLP.part.buried>
-1.4290

> <Gold.PLP.part.nonpolar>
-20.9172

> <Gold.PLP.part.repulsive>
0.0376

> <Gold.PLP.ligand.clash>
0.0000

> <Gold.PLP.ligand.torsion>
0.3950

> <Gold.PLP.Chemscore.Hbond>
2.9750

> <Gold.PLP.Chemscore.CHOScore>
0.9524

> <Gold.PLP.Chemscore.Metal>
0.0000

> <Gold.Chemscore.Hbonds>
donor molecule, donor type, donor heavy atom, donor atom, acceptor molecule, acceptor atom, score
      L1  H    10    28       P1  7957  1.00
      L1  H    12    29       P1  7957  1.00
      P1  H  7997  8010       L1    14  0.93
      L1  C     4    25       P1  8028  0.95

> <Gold.PLP.Chemscore.Internal.Correction>
0.2529

> <Gold.Rescore>
     Score         DG    S(hbond)    S(metal)    S(lipo)     H(rot)  DE(clash)    DE(int)     intcor
      7.94      -9.56       2.56        0.00      42.85       3.71       1.28       0.35       ----

> <Gold.Chemscore.Fitness>
7.9390

> <Gold.Chemscore.DG>
-9.5634

> <Gold.Chemscore.ZeroCoef>
-5.4800

> <Gold.Chemscore.Hbond>
2.5647

> <Gold.Chemscore.Metal>
0.0000

> <Gold.Chemscore.Lipo>
42.8525

> <Gold.Chemscore.Internal_Hbond>
0.0000

> <Gold.Chemscore.DEClash>
1.2788

> <Gold.Chemscore.DEInternal>
0.3456

> <Gold.Chemscore.Rot>
3.7095

> <Gold.Chemscore.Internal.Correction>
   9.000000E+99

> <Gold.Chemscore.Hbonds>
donor molecule, donor type, donor heavy atom, donor atom, acceptor molecule, acceptor atom, score
      L1  H    10    28       P1  7957  1.00
      L1  H    12    29       P1  7957  0.24
      P1  H  7997  8010       L1    14  0.27

> <Gold.Chemscore.Hbond.Weighted>
-8.5661

> <Gold.Chemscore.Metal.Weighted>
-0.0000

> <Gold.Chemscore.Lipo.Weighted>
-5.0137

> <Gold.Chemscore.Internal_Hbond.Weighted>
0.0000

> <Gold.Chemscore.DEClash.Weighted>
1.2788

> <Gold.Chemscore.DEInternal.Weighted>
0.3456

> <Gold.Chemscore.Rot.Weighted>
9.4964

> <Gold.Chemscore.Internal.Correction.Weighted>
   9.000000E+99

> <Gold.Protein.RotatedTorsions>
[ 6907 6896 6895 6894 ] final   45.97 input  -60.11 | X-H torsion
[ 7974 7965 7964 7962 ] final  138.42 input  175.53 | X-H torsion
[ 8008 7997 7996 7995 ] final   94.79 input   59.86 | X-H torsion
[ 10167 10162 10161 10158 ] final   62.25 input  -65.29 | X-H torsion
[ 10718 10713 10712 10709 ] final   -8.56 input   66.30 | X-H torsion
[ 10763 10752 10751 10750 ] final  144.53 input  -60.55 | X-H torsion
[ 11005 11000 10999 10996 ] final  166.19 input  -57.11 | X-H torsion

> <Gold.Protein.ActiveResidues>
 VAL166  LYS551  ARG553  GLY616  TRP617  ASP618  TYR619  PRO620  LYS621  CYS622 
 ASP623  PHE694  ASN695  SER759  ASP760  ASP761  ALA762  ILE779  LEU786  VAL792 
 PHE793  MET794  SER795  GLU796  ALA797  LYS798  CYS799  TRP800  GLU811  SER814 

> <Gold.Protein.RotatedAtoms>
  152.2509  134.8134  160.0445 H   0  0  0  0  0  0  0  0  0  0  0  0  # atno 6907 bound_to 6896
  151.8814  133.3491  159.3776 H   0  0  0  0  0  0  0  0  0  0  0  0  # atno 6908 bound_to 6896
  150.7083  134.4941  159.5574 H   0  0  0  0  0  0  0  0  0  0  0  0  # atno 6909 bound_to 6896
  144.9374  139.4973  143.5588 H   0  0  0  0  0  0  0  0  0  0  0  0  # atno 7974 bound_to 7965
  156.0618  140.3295  155.7471 H   0  0  0  0  0  0  0  0  0  0  0  0  # atno 8008 bound_to 7997
  155.5443  140.0604  157.2881 H   0  0  0  0  0  0  0  0  0  0  0  0  # atno 8009 bound_to 7997
  154.4485  140.1905  156.0610 H   0  0  0  0  0  0  0  0  0  0  0  0  # atno 8010 bound_to 7997
  140.1460  144.4508  150.6785 H   0  0  0  0  0  0  0  0  0  0  0  0  # atno 10167 bound_to 10162
  156.7008  130.5092  149.5918 H   0  0  0  0  0  0  0  0  0  0  0  0  # atno 10718 bound_to 10713
  153.9903  135.2933  155.3412 H   0  0  0  0  0  0  0  0  0  0  0  0  # atno 10763 bound_to 10752
  154.7218  135.5106  153.8827 H   0  0  0  0  0  0  0  0  0  0  0  0  # atno 10764 bound_to 10752
  153.0813  135.6679  154.0156 H   0  0  0  0  0  0  0  0  0  0  0  0  # atno 10765 bound_to 10752
  140.2638  134.7881  157.3614 H   0  0  0  0  0  0  0  0  0  0  0  0  # atno 11005 bound_to 11000
  146.3272  139.8368  142.8898 LP  0  0  0  0  0  0  0  0  0  0  0  0  # atno 17320 bound_to 7965
  145.3046  141.0203  143.3589 LP  0  0  0  0  0  0  0  0  0  0  0  0  # atno 17321 bound_to 7965
  140.6732  143.2294  151.5574 LP  0  0  0  0  0  0  0  0  0  0  0  0  # atno 17342 bound_to 10162
  139.5449  144.2548  152.1423 LP  0  0  0  0  0  0  0  0  0  0  0  0  # atno 17343 bound_to 10162
  156.1730  130.6449  151.0861 LP  0  0  0  0  0  0  0  0  0  0  0  0  # atno 17370 bound_to 10713
  157.6974  131.0789  150.6927 LP  0  0  0  0  0  0  0  0  0  0  0  0  # atno 17371 bound_to 10713
  140.1439  134.4937  155.8011 LP  0  0  0  0  0  0  0  0  0  0  0  0  # atno 17394 bound_to 11000
  141.2187  133.6836  156.7258 LP  0  0  0  0  0  0  0  0  0  0  0  0  # atno 17395 bound_to 11000

$$$$
