AV-unprocessed.smi:966|AV-procd|sdf|4283|dock6
  -GOLD-   22720 2193D 1   1.00000     0.00000
 Structure written by MMmdl.
 30 31  0  0  0  0  0  0  0  0  2 V2000
  154.4943  136.7216  162.6605 C   0  0  0  0  0  0  0  0  0  0  0  0
  154.4101  138.0412  161.9149 C   0  0  0  0  0  0  0  0  0  0  0  0
  154.5691  139.2798  162.6430 C   0  0  0  0  0  0  0  0  0  0  0  0
  154.4789  140.4735  161.9536 C   0  0  0  0  0  0  0  0  0  0  0  0
  154.5995  141.6463  162.3797 O   0  5  0  0  0  0  0  0  0  0  0  0
  154.2265  140.4882  160.5407 N   0  0  0  0  0  0  0  0  0  0  0  0
  154.1060  141.7669  159.7806 C   0  0  0  0  0  0  0  0  0  0  0  0
  152.7215  142.4203  159.9657 C   0  0  2  0  0  0  0  0  0  0  0  0
  152.5292  143.6858  159.1309 C   0  0  0  0  0  0  0  0  0  0  0  0
  151.4738  144.4206  159.9246 C   0  0  0  0  0  0  0  0  0  0  0  0
  151.9089  144.1233  161.3553 C   0  0  0  0  0  0  0  0  0  0  0  0
  152.5212  142.8375  161.3155 O   0  0  0  0  0  0  0  0  0  0  0  0
  154.1047  139.3256  159.8237 C   0  0  0  0  0  0  0  0  0  0  0  0
  153.9262  139.3220  158.6030 O   0  0  0  0  0  0  0  0  0  0  0  0
  154.1952  138.0753  160.5836 C   0  0  0  0  0  0  0  0  0  0  0  0
  154.0392  136.8770  159.8210 C   0  0  0  0  0  0  0  0  0  0  0  0
  153.9265  135.8942  159.2185 N   0  0  0  0  0  0  0  0  0  0  0  0
  154.6585  136.8805  163.7266 H   0  0  0  0  0  0  0  0  0  0  0  0
  155.3195  136.1200  162.2782 H   0  0  0  0  0  0  0  0  0  0  0  0
  153.5694  136.1563  162.5425 H   0  0  0  0  0  0  0  0  0  0  0  0
  154.7651  139.2721  163.7053 H   0  0  0  0  0  0  0  0  0  0  0  0
  154.8798  142.4846  160.0572 H   0  0  0  0  0  0  0  0  0  0  0  0
  154.3044  141.6148  158.7187 H   0  0  0  0  0  0  0  0  0  0  0  0
  151.9273  141.7148  159.7178 H   0  0  0  0  0  0  0  0  0  0  0  0
  153.4484  144.2731  159.1032 H   0  0  0  0  0  0  0  0  0  0  0  0
  152.2260  143.4750  158.1051 H   0  0  0  0  0  0  0  0  0  0  0  0
  151.4312  145.4873  159.7026 H   0  0  0  0  0  0  0  0  0  0  0  0
  150.4907  143.9894  159.7316 H   0  0  0  0  0  0  0  0  0  0  0  0
  152.6532  144.8491  161.6850 H   0  0  0  0  0  0  0  0  0  0  0  0
  151.0761  144.1489  162.0583 H   0  0  0  0  0  0  0  0  0  0  0  0
  1  2  1  0  0  0  0
  1 18  1  0  0  0  0
  1 19  1  0  0  0  0
  1 20  1  0  0  0  0
  2 15  2  0  0  0  0
  2  3  1  0  0  0  0
  3  4  2  0  0  0  0
  3 21  1  0  0  0  0
  4  5  1  0  0  0  0
  4  6  1  0  0  0  0
  6  7  1  0  0  0  0
  6 13  1  0  0  0  0
  7  8  1  0  0  0  0
  7 22  1  0  0  0  0
  7 23  1  0  0  0  0
  8 12  1  0  0  0  0
  8  9  1  0  0  0  0
  8 24  1  0  0  0  0
  9 10  1  0  0  0  0
  9 25  1  0  0  0  0
  9 26  1  0  0  0  0
 10 11  1  0  0  0  0
 10 27  1  0  0  0  0
 10 28  1  0  0  0  0
 11 12  1  0  0  0  0
 11 29  1  0  0  0  0
 11 30  1  0  0  0  0
 13 14  2  0  0  0  0
 13 15  1  0  0  0  0
 15 16  1  0  0  0  0
 16 17  3  0  0  0  0
M  CHG  1   5  -1
M  END
> <s_m_source_file>
AV-unprocessed.smi

> <i_m_source_file_index>
966

> <i_lp_mmshare_version>
43012

> <i_f3d_flags>
0

> <s_epik_input>
W0NIM11jMVtjSF1jKFtPSF0pbihjKD1PKWMxQyNOKVtDSDJdW0NAQEhdMltDSDJdW0NIMl1bQ0gyXU8y

> <s_epik_cmdline>
J2VwaWtfcHl0aG9uJywgJy1waCcsICc3LjAnLCAnLXRuJywgJzgnLCAnLW1hJywgJzIwMCcsICctbWV0YWxfYmluZGluZycsICctaW1hZScsICc8aW5maWxlLm1hZT4nLCAnLW9tYWUnLCAnPG91dGZpbGUubWFlPic=

> <r_lp_tautomer_probability>
1

> <r_epik_Ionization_Penalty>
3.48555e-06

> <r_epik_Ionization_Penalty_Charging>
3.48554e-06

> <r_epik_Ionization_Penalty_Neutral>
1.71861e-11

> <r_epik_State_Penalty>
-0

> <r_epik_Charging_Adjusted_Penalty>
3.48554e-06

> <i_epik_Tot_Q>
-1

> <i_epik_Tot_abs_Q>
1

> <r_epik_Metal_State_Penalty>
-0

> <b_epik_Metal_Only>
0

> <s_lp_Force_Field>
OPLS_2005

> <r_lp_Energy>
36.1557

> <b_lp_Chiralities_Consistent>
1

> <s_lp_Variant>
AV-unprocessed.smi:966-1

> <Gold.Version>
5.8.1

> <Gold.Id.Protein>
6NUR|6NUR_protein|mol2

> <Gold.PLP.Fitness>
42.4695

> <Gold.PLP.PLP>
-37.5010

> <Gold.PLP.part.hbond>
-3.0000

> <Gold.PLP.part.metal>
0.0000

> <Gold.PLP.part.buried>
-3.6214

> <Gold.PLP.part.nonpolar>
-30.4287

> <Gold.PLP.part.repulsive>
0.0741

> <Gold.PLP.ligand.clash>
0.0000

> <Gold.PLP.ligand.torsion>
0.2647

> <Gold.PLP.Chemscore.Hbond>
1.8320

> <Gold.PLP.Chemscore.CHOScore>
0.0000

> <Gold.PLP.Chemscore.Metal>
0.0000

> <Gold.Chemscore.Hbonds>
donor molecule, donor type, donor heavy atom, donor atom, acceptor molecule, acceptor atom, score
      P1  H  6896  6907       L1    17  0.75
      P1  H  7997  8010       L1    14  1.00

> <Gold.PLP.Chemscore.Internal.Correction>
0.0018

> <Gold.Rescore>
     Score         DG    S(hbond)    S(metal)    S(lipo)     H(rot)  DE(clash)    DE(int)     intcor
     14.89     -19.44       1.98        0.00      90.22       1.25       2.72       1.82       ----

> <Gold.Chemscore.Fitness>
14.8934

> <Gold.Chemscore.DG>
-19.4357

> <Gold.Chemscore.ZeroCoef>
-5.4800

> <Gold.Chemscore.Hbond>
1.9771

> <Gold.Chemscore.Metal>
0.0000

> <Gold.Chemscore.Lipo>
90.2198

> <Gold.Chemscore.Internal_Hbond>
0.0000

> <Gold.Chemscore.DEClash>
2.7241

> <Gold.Chemscore.DEInternal>
1.8183

> <Gold.Chemscore.Rot>
1.2514

> <Gold.Chemscore.Internal.Correction>
   9.000000E+99

> <Gold.Chemscore.Hbonds>
donor molecule, donor type, donor heavy atom, donor atom, acceptor molecule, acceptor atom, score
      P1  H  6896  6907       L1    17  0.39
      P1  H  7997  8010       L1    14  1.00

> <Gold.Chemscore.Hbond.Weighted>
-6.6036

> <Gold.Chemscore.Metal.Weighted>
-0.0000

> <Gold.Chemscore.Lipo.Weighted>
-10.5557

> <Gold.Chemscore.Internal_Hbond.Weighted>
0.0000

> <Gold.Chemscore.DEClash.Weighted>
2.7241

> <Gold.Chemscore.DEInternal.Weighted>
1.8183

> <Gold.Chemscore.Rot.Weighted>
3.2036

> <Gold.Chemscore.Internal.Correction.Weighted>
   9.000000E+99

> <Gold.Protein.RotatedTorsions>
[ 6907 6896 6895 6894 ] final   41.14 input  -60.11 | X-H torsion
[ 7974 7965 7964 7962 ] final   74.68 input  175.53 | X-H torsion
[ 8008 7997 7996 7995 ] final   28.63 input   59.86 | X-H torsion
[ 10167 10162 10161 10158 ] final -115.79 input  -65.29 | X-H torsion
[ 10718 10713 10712 10709 ] final  -88.63 input   66.30 | X-H torsion
[ 10763 10752 10751 10750 ] final  -86.32 input  -60.55 | X-H torsion
[ 11005 11000 10999 10996 ] final   60.99 input  -57.11 | X-H torsion

> <Gold.Protein.ActiveResidues>
 VAL166  LYS551  ARG553  GLY616  TRP617  ASP618  TYR619  PRO620  LYS621  CYS622 
 ASP623  PHE694  ASN695  SER759  ASP760  ASP761  ALA762  ILE779  LEU786  VAL792 
 PHE793  MET794  SER795  GLU796  ALA797  LYS798  CYS799  TRP800  GLU811  SER814 

> <Gold.Protein.RotatedAtoms>
  152.1914  134.8668  160.0516 H   0  0  0  0  0  0  0  0  0  0  0  0  # atno 6907 bound_to 6896
  151.9556  133.3674  159.4024 H   0  0  0  0  0  0  0  0  0  0  0  0  # atno 6908 bound_to 6896
  150.6936  134.4218  159.5252 H   0  0  0  0  0  0  0  0  0  0  0  0  # atno 6909 bound_to 6896
  145.7252  139.2663  143.1573 H   0  0  0  0  0  0  0  0  0  0  0  0  # atno 7974 bound_to 7965
  155.0617  140.3191  155.4658 H   0  0  0  0  0  0  0  0  0  0  0  0  # atno 8008 bound_to 7997
  156.2811  140.2127  156.5689 H   0  0  0  0  0  0  0  0  0  0  0  0  # atno 8009 bound_to 7997
  154.7126  140.0496  157.0552 H   0  0  0  0  0  0  0  0  0  0  0  0  # atno 8010 bound_to 7997
  140.0863  143.4741  152.1896 H   0  0  0  0  0  0  0  0  0  0  0  0  # atno 10167 bound_to 10162
  155.9983  130.4843  150.5049 H   0  0  0  0  0  0  0  0  0  0  0  0  # atno 10718 bound_to 10713
  154.6212  135.5453  153.7577 H   0  0  0  0  0  0  0  0  0  0  0  0  # atno 10763 bound_to 10752
  153.0239  135.6413  154.1438 H   0  0  0  0  0  0  0  0  0  0  0  0  # atno 10764 bound_to 10752
  154.1372  135.2910  155.3150 H   0  0  0  0  0  0  0  0  0  0  0  0  # atno 10765 bound_to 10752
  140.0193  134.6177  155.9663 H   0  0  0  0  0  0  0  0  0  0  0  0  # atno 11005 bound_to 11000
  146.0589  140.7991  142.9744 LP  0  0  0  0  0  0  0  0  0  0  0  0  # atno 17320 bound_to 7965
  144.6906  140.3166  143.7239 LP  0  0  0  0  0  0  0  0  0  0  0  0  # atno 17321 bound_to 7965
  139.5750  144.7483  151.3788 LP  0  0  0  0  0  0  0  0  0  0  0  0  # atno 17342 bound_to 10162
  140.7052  143.7532  150.7469 LP  0  0  0  0  0  0  0  0  0  0  0  0  # atno 17343 bound_to 10162
  157.3029  131.0648  151.2056 LP  0  0  0  0  0  0  0  0  0  0  0  0  # atno 17370 bound_to 10713
  157.3029  130.6851  149.6173 LP  0  0  0  0  0  0  0  0  0  0  0  0  # atno 17371 bound_to 10713
  141.1763  133.6541  156.4842 LP  0  0  0  0  0  0  0  0  0  0  0  0  # atno 17394 bound_to 11000
  140.4416  134.7010  157.4994 LP  0  0  0  0  0  0  0  0  0  0  0  0  # atno 17395 bound_to 11000

$$$$
