AV-unprocessed.smi:1093|AV-procd|sdf|4745|dock5
  -GOLD-   22720 3283D 1   1.00000     0.00000
 Structure written by MMmdl.
 47 48  0  0  0  0  0  0  0  0  2 V2000
  147.1977  141.9685  154.0285 C   0  0  0  0  0  0  0  0  0  0  0  0
  147.8429  140.6396  153.6087 C   0  0  0  0  0  0  0  0  0  0  0  0
  149.1894  140.4452  154.2035 N   0  3  2  0  0  0  0  0  0  0  0  0
  149.5628  139.0088  154.2829 C   0  0  0  0  0  0  0  0  0  0  0  0
  151.0099  138.8347  154.7730 C   0  0  0  0  0  0  0  0  0  0  0  0
  151.2205  139.5268  156.1255 C   0  0  0  0  0  0  0  0  0  0  0  0
  150.8068  141.0031  156.0280 C   0  0  2  0  0  0  0  0  0  0  0  0
  150.9567  141.6483  157.3290 N   0  0  0  0  0  0  0  0  0  0  0  0
  151.9547  141.4150  158.1933 C   0  0  0  0  0  0  0  0  0  0  0  0
  152.8793  140.6354  157.9649 O   0  0  0  0  0  0  0  0  0  0  0  0
  151.8197  142.1554  159.3063 N   0  0  0  0  0  0  0  0  0  0  0  0
  152.6339  142.1484  160.4704 C   0  0  0  0  0  0  0  0  0  0  0  0
  153.7387  141.2873  160.6609 C   0  0  0  0  0  0  0  0  0  0  0  0
  154.4553  141.3525  161.8712 C   0  0  0  0  0  0  0  0  0  0  0  0
  154.0510  142.2731  162.8703 C   0  0  0  0  0  0  0  0  0  0  0  0
  154.7380  142.3754  164.1016 N   0  0  0  0  0  0  0  0  0  0  0  0
  155.6323  141.3084  164.5332 C   0  0  0  0  0  0  0  0  0  0  0  0
  154.6022  143.5821  164.9108 C   0  0  0  0  0  0  0  0  0  0  0  0
  152.9838  143.0881  162.6840 N   0  0  0  0  0  0  0  0  0  0  0  0
  152.2977  143.0199  161.5244 C   0  0  0  0  0  0  0  0  0  0  0  0
  149.3558  141.1252  155.5161 C   0  0  0  0  0  0  0  0  0  0  0  0
  146.2594  142.1223  153.4951 H   0  0  0  0  0  0  0  0  0  0  0  0
  147.8488  142.8125  153.7993 H   0  0  0  0  0  0  0  0  0  0  0  0
  146.9696  141.9974  155.0934 H   0  0  0  0  0  0  0  0  0  0  0  0
  147.1953  139.7992  153.8625 H   0  0  0  0  0  0  0  0  0  0  0  0
  147.9298  140.6446  152.5215 H   0  0  0  0  0  0  0  0  0  0  0  0
  148.8738  138.4890  154.9508 H   0  0  0  0  0  0  0  0  0  0  0  0
  149.4619  138.5456  153.3007 H   0  0  0  0  0  0  0  0  0  0  0  0
  151.2504  137.7744  154.8558 H   0  0  0  0  0  0  0  0  0  0  0  0
  151.6990  139.2512  154.0367 H   0  0  0  0  0  0  0  0  0  0  0  0
  150.6304  139.0212  156.8915 H   0  0  0  0  0  0  0  0  0  0  0  0
  152.2651  139.4438  156.4285 H   0  0  0  0  0  0  0  0  0  0  0  0
  151.4737  141.4938  155.3160 H   0  0  0  0  0  0  0  0  0  0  0  0
  150.2419  142.3093  157.5963 H   0  0  0  0  0  0  0  0  0  0  0  0
  151.0685  142.8301  159.3078 H   0  0  0  0  0  0  0  0  0  0  0  0
  154.0396  140.5698  159.9134 H   0  0  0  0  0  0  0  0  0  0  0  0
  155.2970  140.6911  162.0093 H   0  0  0  0  0  0  0  0  0  0  0  0
  156.4432  141.1742  163.8168 H   0  0  0  0  0  0  0  0  0  0  0  0
  155.0888  140.3679  164.6275 H   0  0  0  0  0  0  0  0  0  0  0  0
  156.0785  141.5314  165.5026 H   0  0  0  0  0  0  0  0  0  0  0  0
  154.9446  144.4549  164.3539 H   0  0  0  0  0  0  0  0  0  0  0  0
  155.1926  143.5171  165.8246 H   0  0  0  0  0  0  0  0  0  0  0  0
  153.5616  143.7391  165.1968 H   0  0  0  0  0  0  0  0  0  0  0  0
  151.4538  143.6886  161.4359 H   0  0  0  0  0  0  0  0  0  0  0  0
  149.0979  142.1795  155.4220 H   0  0  0  0  0  0  0  0  0  0  0  0
  148.6606  140.6946  156.2391 H   0  0  0  0  0  0  0  0  0  0  0  0
  149.8471  140.8718  153.5663 H   0  0  0  0  0  0  0  0  0  0  0  0
  1  2  1  0  0  0  0
  1 22  1  0  0  0  0
  1 23  1  0  0  0  0
  1 24  1  0  0  0  0
  2  3  1  0  0  0  0
  2 25  1  0  0  0  0
  2 26  1  0  0  0  0
  3 21  1  0  0  0  0
  3  4  1  0  0  0  0
  3 47  1  0  0  0  0
  4  5  1  0  0  0  0
  4 27  1  0  0  0  0
  4 28  1  0  0  0  0
  5  6  1  0  0  0  0
  5 29  1  0  0  0  0
  5 30  1  0  0  0  0
  6  7  1  0  0  0  0
  6 31  1  0  0  0  0
  6 32  1  0  0  0  0
  7  8  1  0  0  0  0
  7 21  1  0  0  0  0
  7 33  1  0  0  0  0
  8  9  1  0  0  0  0
  8 34  1  0  0  0  0
  9 10  2  0  0  0  0
  9 11  1  0  0  0  0
 11 12  1  0  0  0  0
 11 35  1  0  0  0  0
 12 20  1  0  0  0  0
 12 13  2  0  0  0  0
 13 14  1  0  0  0  0
 13 36  1  0  0  0  0
 14 15  2  0  0  0  0
 14 37  1  0  0  0  0
 15 16  1  0  0  0  0
 15 19  1  0  0  0  0
 16 17  1  0  0  0  0
 16 18  1  0  0  0  0
 17 38  1  0  0  0  0
 17 39  1  0  0  0  0
 17 40  1  0  0  0  0
 18 41  1  0  0  0  0
 18 42  1  0  0  0  0
 18 43  1  0  0  0  0
 19 20  2  0  0  0  0
 20 44  1  0  0  0  0
 21 45  1  0  0  0  0
 21 46  1  0  0  0  0
M  CHG  1   3   1
M  END
> <s_m_source_file>
AV-unprocessed.smi

> <i_m_source_file_index>
1093

> <i_lp_mmshare_version>
43012

> <i_f3d_flags>
0

> <s_epik_input>
W0NIM11bQ0gyXU4xW0NIMl1bQ0gyXVtDSDJdW0NASF0oW0NIMl0xKVtOSF1DKD1PKVtOSF1jMltjSF1bY0hdYyhOKFtDSDNdKVtDSDNdKW5bY0hdMg==

> <s_epik_cmdline>
J2VwaWtfcHl0aG9uJywgJy1waCcsICc3LjAnLCAnLXRuJywgJzgnLCAnLW1hJywgJzIwMCcsICctbWV0YWxfYmluZGluZycsICctaW1hZScsICc8aW5maWxlLm1hZT4nLCAnLW9tYWUnLCAnPG91dGZpbGUubWFlPic=

> <r_lp_tautomer_probability>
1

> <r_epik_Ionization_Penalty>
0.489418

> <r_epik_Ionization_Penalty_Charging>
0.00268196

> <r_epik_Ionization_Penalty_Neutral>
0.486736

> <r_epik_State_Penalty>
0.491157

> <r_epik_Charging_Adjusted_Penalty>
0.493839

> <i_epik_Tot_Q>
1

> <i_epik_Tot_abs_Q>
1

> <r_epik_Metal_State_Penalty>
0.266953

> <b_epik_Metal_Only>
0

> <s_lp_Force_Field>
OPLS_2005

> <r_lp_Energy>
20.183

> <b_lp_Chiralities_Consistent>
1

> <s_lp_Variant>
AV-unprocessed.smi:1093-8

> <Gold.Version>
5.8.1

> <Gold.Id.Protein>
6NUR|6NUR_protein|mol2

> <Gold.PLP.Fitness>
45.8092

> <Gold.PLP.PLP>
-46.3228

> <Gold.PLP.part.hbond>
-1.9758

> <Gold.PLP.part.metal>
0.0000

> <Gold.PLP.part.buried>
1.5592

> <Gold.PLP.part.nonpolar>
-44.2929

> <Gold.PLP.part.repulsive>
0.4456

> <Gold.PLP.ligand.clash>
1.3126

> <Gold.PLP.ligand.torsion>
0.7669

> <Gold.PLP.Chemscore.Hbond>
0.7691

> <Gold.PLP.Chemscore.CHOScore>
0.0000

> <Gold.PLP.Chemscore.Metal>
0.0000

> <Gold.Chemscore.Hbonds>
donor molecule, donor type, donor heavy atom, donor atom, acceptor molecule, acceptor atom, score
      P1  H  7997  8009       L1    10  0.75

> <Gold.PLP.Chemscore.Internal.Correction>
0.0255

> <Gold.Rescore>
     Score         DG    S(hbond)    S(metal)    S(lipo)     H(rot)  DE(clash)    DE(int)     intcor
     14.02     -17.98       0.95        0.00     105.68       1.18       0.25       3.70       ----

> <Gold.Chemscore.Fitness>
14.0189

> <Gold.Chemscore.DG>
-17.9750

> <Gold.Chemscore.ZeroCoef>
-5.4800

> <Gold.Chemscore.Hbond>
0.9466

> <Gold.Chemscore.Metal>
0.0000

> <Gold.Chemscore.Lipo>
105.6832

> <Gold.Chemscore.Internal_Hbond>
0.0000

> <Gold.Chemscore.DEClash>
0.2532

> <Gold.Chemscore.DEInternal>
3.7030

> <Gold.Chemscore.Rot>
1.1842

> <Gold.Chemscore.Internal.Correction>
   9.000000E+99

> <Gold.Chemscore.Hbonds>
donor molecule, donor type, donor heavy atom, donor atom, acceptor molecule, acceptor atom, score
      P1  H  7997  8009       L1    10  0.70

> <Gold.Chemscore.Hbond.Weighted>
-3.1617

> <Gold.Chemscore.Metal.Weighted>
-0.0000

> <Gold.Chemscore.Lipo.Weighted>
-12.3649

> <Gold.Chemscore.Internal_Hbond.Weighted>
0.0000

> <Gold.Chemscore.DEClash.Weighted>
0.2532

> <Gold.Chemscore.DEInternal.Weighted>
3.7030

> <Gold.Chemscore.Rot.Weighted>
3.0317

> <Gold.Chemscore.Internal.Correction.Weighted>
   9.000000E+99

> <Gold.Protein.RotatedTorsions>
[ 6907 6896 6895 6894 ] final   53.78 input  -60.11 | X-H torsion
[ 7974 7965 7964 7962 ] final  127.68 input  175.53 | X-H torsion
[ 8008 7997 7996 7995 ] final  164.22 input   59.86 | X-H torsion
[ 10167 10162 10161 10158 ] final   56.77 input  -65.29 | X-H torsion
[ 10718 10713 10712 10709 ] final  -96.18 input   66.30 | X-H torsion
[ 10763 10752 10751 10750 ] final  -25.18 input  -60.55 | X-H torsion
[ 11005 11000 10999 10996 ] final  -17.77 input  -57.11 | X-H torsion

> <Gold.Protein.ActiveResidues>
 VAL166  LYS551  ARG553  GLY616  TRP617  ASP618  TYR619  PRO620  LYS621  CYS622 
 ASP623  PHE694  ASN695  SER759  ASP760  ASP761  ALA762  ILE779  LEU786  VAL792 
 PHE793  MET794  SER795  GLU796  ALA797  LYS798  CYS799  TRP800  GLU811  SER814 

> <Gold.Protein.RotatedAtoms>
  152.3372  134.7182  160.0273 H   0  0  0  0  0  0  0  0  0  0  0  0  # atno 6907 bound_to 6896
  151.7579  133.3326  159.3417 H   0  0  0  0  0  0  0  0  0  0  0  0  # atno 6908 bound_to 6896
  150.7458  134.6065  159.6108 H   0  0  0  0  0  0  0  0  0  0  0  0  # atno 6909 bound_to 6896
  145.0479  139.3908  143.5069 H   0  0  0  0  0  0  0  0  0  0  0  0  # atno 7974 bound_to 7965
  156.1897  140.1702  156.8117 H   0  0  0  0  0  0  0  0  0  0  0  0  # atno 8008 bound_to 7997
  154.5456  140.0728  156.8615 H   0  0  0  0  0  0  0  0  0  0  0  0  # atno 8009 bound_to 7997
  155.3128  140.3368  155.4246 H   0  0  0  0  0  0  0  0  0  0  0  0  # atno 8010 bound_to 7997
  140.2052  144.3947  150.6512 H   0  0  0  0  0  0  0  0  0  0  0  0  # atno 10167 bound_to 10162
  156.0057  130.5140  150.6187 H   0  0  0  0  0  0  0  0  0  0  0  0  # atno 10718 bound_to 10713
  153.6956  135.6959  153.5077 H   0  0  0  0  0  0  0  0  0  0  0  0  # atno 10763 bound_to 10752
  153.2380  135.4315  155.0666 H   0  0  0  0  0  0  0  0  0  0  0  0  # atno 10764 bound_to 10752
  154.8359  135.3501  154.6497 H   0  0  0  0  0  0  0  0  0  0  0  0  # atno 10765 bound_to 10752
  140.8202  133.8074  155.9651 H   0  0  0  0  0  0  0  0  0  0  0  0  # atno 11005 bound_to 11000
  146.3515  140.0113  142.8667 LP  0  0  0  0  0  0  0  0  0  0  0  0  # atno 17320 bound_to 7965
  145.1565  140.9650  143.4402 LP  0  0  0  0  0  0  0  0  0  0  0  0  # atno 17321 bound_to 7965
  140.6362  143.2195  151.6389 LP  0  0  0  0  0  0  0  0  0  0  0  0  # atno 17342 bound_to 10162
  139.5201  144.3232  152.0892 LP  0  0  0  0  0  0  0  0  0  0  0  0  # atno 17343 bound_to 10162
  157.4007  131.0809  151.1311 LP  0  0  0  0  0  0  0  0  0  0  0  0  # atno 17370 bound_to 10713
  157.1974  130.6379  149.5726 LP  0  0  0  0  0  0  0  0  0  0  0  0  # atno 17371 bound_to 10713
  140.9107  134.2264  157.4987 LP  0  0  0  0  0  0  0  0  0  0  0  0  # atno 17394 bound_to 11000
  139.8709  134.9749  156.4862 LP  0  0  0  0  0  0  0  0  0  0  0  0  # atno 17395 bound_to 11000

$$$$
