AV-unprocessed.smi:3013|AV-procd|sdf|11465|dock2
  -GOLD-   2272016403D 1   1.00000     0.00000
 Structure written by MMmdl.
 45 46  0  0  0  0  0  0  0  0  2 V2000
  143.7453  135.9282  152.0574 C   0  0  0  0  0  0  0  0  0  0  0  0
  145.0384  135.7490  151.2404 C   0  0  1  0  0  0  0  0  0  0  0  0
  146.2453  136.4931  151.8622 C   0  0  0  0  0  0  0  0  0  0  0  0
  146.1142  138.0278  151.8258 C   0  0  0  0  0  0  0  0  0  0  0  0
  147.3459  138.6847  152.2490 N   0  0  0  0  0  0  0  0  0  0  0  0
  147.5552  139.2152  153.4627 C   0  0  0  0  0  0  0  0  0  0  0  0
  146.7191  139.1906  154.3664 O   0  0  0  0  0  0  0  0  0  0  0  0
  148.7783  139.7645  153.5522 N   0  0  0  0  0  0  0  0  0  0  0  0
  149.3614  140.4120  154.6745 C   0  0  0  0  0  0  0  0  0  0  0  0
  150.5957  140.2265  155.1319 N   0  0  0  0  0  0  0  0  0  0  0  0
  150.5801  141.0929  156.1876 C   0  0  0  0  0  0  0  0  0  0  0  0
  149.4433  141.7633  156.3772 N   0  0  0  0  0  0  0  0  0  0  0  0
  148.6560  141.3038  155.3762 N   0  0  0  0  0  0  0  0  0  0  0  0
  147.2989  141.7868  155.2119 C   0  0  0  0  0  0  0  0  0  0  0  0
  145.3035  134.2994  151.0019 N   0  3  0  0  0  0  0  0  0  0  0  0
  144.2147  133.5596  150.3052 C   0  0  0  0  0  0  0  0  0  0  0  0
  144.6852  132.1543  149.8947 C   0  0  0  0  0  0  0  0  0  0  0  0
  145.1880  131.3671  151.1124 C   0  0  0  0  0  0  0  0  0  0  0  0
  146.2774  132.1646  151.8423 C   0  0  0  0  0  0  0  0  0  0  0  0
  145.7797  133.5731  152.2096 C   0  0  0  0  0  0  0  0  0  0  0  0
  143.4224  136.9690  152.0684 H   0  0  0  0  0  0  0  0  0  0  0  0
  143.8699  135.6155  153.0941 H   0  0  0  0  0  0  0  0  0  0  0  0
  142.9280  135.3468  151.6297 H   0  0  0  0  0  0  0  0  0  0  0  0
  144.8401  136.1948  150.2645 H   0  0  0  0  0  0  0  0  0  0  0  0
  146.3857  136.1684  152.8937 H   0  0  0  0  0  0  0  0  0  0  0  0
  147.1579  136.2207  151.3318 H   0  0  0  0  0  0  0  0  0  0  0  0
  145.8882  138.3583  150.8117 H   0  0  0  0  0  0  0  0  0  0  0  0
  145.2908  138.3675  152.4551 H   0  0  0  0  0  0  0  0  0  0  0  0
  148.0856  138.7514  151.5649 H   0  0  0  0  0  0  0  0  0  0  0  0
  149.3577  139.7175  152.7271 H   0  0  0  0  0  0  0  0  0  0  0  0
  151.4322  141.2343  156.8359 H   0  0  0  0  0  0  0  0  0  0  0  0
  146.6080  140.9431  155.1978 H   0  0  0  0  0  0  0  0  0  0  0  0
  147.2162  142.3314  154.2710 H   0  0  0  0  0  0  0  0  0  0  0  0
  147.0264  142.4522  156.0323 H   0  0  0  0  0  0  0  0  0  0  0  0
  143.3435  133.4744  150.9560 H   0  0  0  0  0  0  0  0  0  0  0  0
  143.8951  134.1013  149.4155 H   0  0  0  0  0  0  0  0  0  0  0  0
  143.8698  131.6139  149.4130 H   0  0  0  0  0  0  0  0  0  0  0  0
  145.4824  132.2358  149.1547 H   0  0  0  0  0  0  0  0  0  0  0  0
  144.3582  131.1691  151.7921 H   0  0  0  0  0  0  0  0  0  0  0  0
  145.5754  130.3966  150.8010 H   0  0  0  0  0  0  0  0  0  0  0  0
  146.5885  131.6326  152.7419 H   0  0  0  0  0  0  0  0  0  0  0  0
  147.1613  132.2428  151.2076 H   0  0  0  0  0  0  0  0  0  0  0  0
  146.5939  134.1249  152.6808 H   0  0  0  0  0  0  0  0  0  0  0  0
  144.9770  133.5024  152.9445 H   0  0  0  0  0  0  0  0  0  0  0  0
  146.0897  134.2843  150.3677 H   0  0  0  0  0  0  0  0  0  0  0  0
  1  2  1  0  0  0  0
  1 21  1  0  0  0  0
  1 22  1  0  0  0  0
  1 23  1  0  0  0  0
  2  3  1  0  0  0  0
  2 15  1  0  0  0  0
  2 24  1  0  0  0  0
  3  4  1  0  0  0  0
  3 25  1  0  0  0  0
  3 26  1  0  0  0  0
  4  5  1  0  0  0  0
  4 27  1  0  0  0  0
  4 28  1  0  0  0  0
  5  6  1  0  0  0  0
  5 29  1  0  0  0  0
  6  7  2  0  0  0  0
  6  8  1  0  0  0  0
  8  9  1  0  0  0  0
  8 30  1  0  0  0  0
  9 13  1  0  0  0  0
  9 10  2  0  0  0  0
 10 11  1  0  0  0  0
 11 12  2  0  0  0  0
 11 31  1  0  0  0  0
 12 13  1  0  0  0  0
 13 14  1  0  0  0  0
 14 32  1  0  0  0  0
 14 33  1  0  0  0  0
 14 34  1  0  0  0  0
 15 20  1  0  0  0  0
 15 16  1  0  0  0  0
 15 45  1  0  0  0  0
 16 17  1  0  0  0  0
 16 35  1  0  0  0  0
 16 36  1  0  0  0  0
 17 18  1  0  0  0  0
 17 37  1  0  0  0  0
 17 38  1  0  0  0  0
 18 19  1  0  0  0  0
 18 39  1  0  0  0  0
 18 40  1  0  0  0  0
 19 20  1  0  0  0  0
 19 41  1  0  0  0  0
 19 42  1  0  0  0  0
 20 43  1  0  0  0  0
 20 44  1  0  0  0  0
M  CHG  1  15   1
M  END
> <s_m_source_file>
AV-unprocessed.smi

> <i_m_source_file_index>
3013

> <i_lp_mmshare_version>
43012

> <i_f3d_flags>
0

> <s_epik_input>
W0NIMl0xW0NIMl1bQ0gyXVtDSDJdW0NIMl1OMVtDQEhdKFtDSDNdKVtDSDJdW0NIMl1bTkhdQyg9TylbTkhdYzJuW2NIXW5uMltDSDNd

> <s_epik_cmdline>
J2VwaWtfcHl0aG9uJywgJy1waCcsICc3LjAnLCAnLXRuJywgJzgnLCAnLW1hJywgJzIwMCcsICctbWV0YWxfYmluZGluZycsICctaW1hZScsICc8aW5maWxlLm1hZT4nLCAnLW9tYWUnLCAnPG91dGZpbGUubWFlPic=

> <r_lp_tautomer_probability>
1

> <r_epik_Ionization_Penalty>
0.000375855

> <r_epik_Ionization_Penalty_Charging>
0.000355659

> <r_epik_Ionization_Penalty_Neutral>
2.01955e-05

> <r_epik_State_Penalty>
0.000216264

> <r_epik_Charging_Adjusted_Penalty>
0.000571923

> <i_epik_Tot_Q>
1

> <i_epik_Tot_abs_Q>
1

> <r_epik_Metal_State_Penalty>
-0

> <b_epik_Metal_Only>
0

> <s_lp_Force_Field>
OPLS_2005

> <r_lp_Energy>
21.9092

> <b_lp_Chiralities_Consistent>
1

> <s_lp_Variant>
AV-unprocessed.smi:3013-2

> <Gold.Version>
5.8.1

> <Gold.Id.Protein>
6NUR|6NUR_protein|mol2

> <Gold.PLP.Fitness>
42.8693

> <Gold.PLP.PLP>
-36.0690

> <Gold.PLP.part.hbond>
-3.6765

> <Gold.PLP.part.metal>
0.0000

> <Gold.PLP.part.buried>
-2.6124

> <Gold.PLP.part.nonpolar>
-32.3017

> <Gold.PLP.part.repulsive>
0.7148

> <Gold.PLP.ligand.clash>
0.0000

> <Gold.PLP.ligand.torsion>
0.6402

> <Gold.PLP.Chemscore.Hbond>
2.6463

> <Gold.PLP.Chemscore.CHOScore>
0.0000

> <Gold.PLP.Chemscore.Metal>
0.0000

> <Gold.Chemscore.Hbonds>
donor molecule, donor type, donor heavy atom, donor atom, acceptor molecule, acceptor atom, score
      L1  H     5    29       P1  7957  0.75
      L1  H     8    30       P1  7957  1.00
      P1  H  7989  7998       L1    10  0.93

> <Gold.PLP.Chemscore.Internal.Correction>
0.1420

> <Gold.Rescore>
     Score         DG    S(hbond)    S(metal)    S(lipo)     H(rot)  DE(clash)    DE(int)     intcor
     12.32     -16.96       2.56        0.00      69.04       2.01       1.97       2.68       ----

> <Gold.Chemscore.Fitness>
12.3169

> <Gold.Chemscore.DG>
-16.9637

> <Gold.Chemscore.ZeroCoef>
-5.4800

> <Gold.Chemscore.Hbond>
2.5639

> <Gold.Chemscore.Metal>
0.0000

> <Gold.Chemscore.Lipo>
69.0431

> <Gold.Chemscore.Internal_Hbond>
0.0000

> <Gold.Chemscore.DEClash>
1.9670

> <Gold.Chemscore.DEInternal>
2.6799

> <Gold.Chemscore.Rot>
2.0148

> <Gold.Chemscore.Internal.Correction>
   9.000000E+99

> <Gold.Chemscore.Hbonds>
donor molecule, donor type, donor heavy atom, donor atom, acceptor molecule, acceptor atom, score
      L1  H     5    29       P1  7957  0.48
      L1  H     8    30       P1  7957  0.95
      P1  H  7989  7998       L1    10  0.18

> <Gold.Chemscore.Hbond.Weighted>
-8.5636

> <Gold.Chemscore.Metal.Weighted>
-0.0000

> <Gold.Chemscore.Lipo.Weighted>
-8.0780

> <Gold.Chemscore.Internal_Hbond.Weighted>
0.0000

> <Gold.Chemscore.DEClash.Weighted>
1.9670

> <Gold.Chemscore.DEInternal.Weighted>
2.6799

> <Gold.Chemscore.Rot.Weighted>
5.1579

> <Gold.Chemscore.Internal.Correction.Weighted>
   9.000000E+99

> <Gold.Protein.RotatedTorsions>
[ 6907 6896 6895 6894 ] final  134.85 input  -60.11 | X-H torsion
[ 7974 7965 7964 7962 ] final   66.34 input  175.53 | X-H torsion
[ 8008 7997 7996 7995 ] final  179.21 input   59.86 | X-H torsion
[ 10167 10162 10161 10158 ] final   92.80 input  -65.29 | X-H torsion
[ 10718 10713 10712 10709 ] final   99.96 input   66.30 | X-H torsion
[ 10763 10752 10751 10750 ] final -135.89 input  -60.55 | X-H torsion
[ 11005 11000 10999 10996 ] final   31.03 input  -57.11 | X-H torsion

> <Gold.Protein.ActiveResidues>
 VAL166  LYS551  ARG553  GLY616  TRP617  ASP618  TYR619  PRO620  LYS621  CYS622 
 ASP623  PHE694  ASN695  SER759  ASP760  ASP761  ALA762  ILE779  LEU786  VAL792 
 PHE793  MET794  SER795  GLU796  ALA797  LYS798  CYS799  TRP800  GLU811  SER814 

> <Gold.Protein.RotatedAtoms>
  152.3068  133.5711  159.5654 H   0  0  0  0  0  0  0  0  0  0  0  0  # atno 6907 bound_to 6896
  150.7303  134.0211  159.3710 H   0  0  0  0  0  0  0  0  0  0  0  0  # atno 6908 bound_to 6896
  151.8106  135.0682  160.0463 H   0  0  0  0  0  0  0  0  0  0  0  0  # atno 6909 bound_to 6896
  145.8277  139.3121  143.1006 H   0  0  0  0  0  0  0  0  0  0  0  0  # atno 7974 bound_to 7965
  156.0460  140.1314  157.0104 H   0  0  0  0  0  0  0  0  0  0  0  0  # atno 8008 bound_to 7997
  154.4412  140.1020  156.6376 H   0  0  0  0  0  0  0  0  0  0  0  0  # atno 8009 bound_to 7997
  155.5596  140.3464  155.4490 H   0  0  0  0  0  0  0  0  0  0  0  0  # atno 8010 bound_to 7997
  139.8241  144.6717  150.9481 H   0  0  0  0  0  0  0  0  0  0  0  0  # atno 10167 bound_to 10162
  157.6864  131.0685  150.5028 H   0  0  0  0  0  0  0  0  0  0  0  0  # atno 10718 bound_to 10713
  154.8694  135.3689  154.4972 H   0  0  0  0  0  0  0  0  0  0  0  0  # atno 10763 bound_to 10752
  153.5615  135.7023  153.5550 H   0  0  0  0  0  0  0  0  0  0  0  0  # atno 10764 bound_to 10752
  153.3623  135.4043  155.1691 H   0  0  0  0  0  0  0  0  0  0  0  0  # atno 10765 bound_to 10752
  140.2881  134.2895  155.7783 H   0  0  0  0  0  0  0  0  0  0  0  0  # atno 11005 bound_to 11000
  145.9605  140.8839  143.0213 LP  0  0  0  0  0  0  0  0  0  0  0  0  # atno 17320 bound_to 7965
  144.6742  140.1806  143.7406 LP  0  0  0  0  0  0  0  0  0  0  0  0  # atno 17321 bound_to 7965
  140.7811  143.4063  151.1066 LP  0  0  0  0  0  0  0  0  0  0  0  0  # atno 17342 bound_to 10162
  139.7721  143.8478  152.3122 LP  0  0  0  0  0  0  0  0  0  0  0  0  # atno 17343 bound_to 10162
  156.5349  130.4194  149.6183 LP  0  0  0  0  0  0  0  0  0  0  0  0  # atno 17370 bound_to 10713
  156.3036  130.7190  151.2068 LP  0  0  0  0  0  0  0  0  0  0  0  0  # atno 17371 bound_to 10713
  141.2151  133.7568  156.9583 LP  0  0  0  0  0  0  0  0  0  0  0  0  # atno 17394 bound_to 11000
  140.1221  134.9410  157.2217 LP  0  0  0  0  0  0  0  0  0  0  0  0  # atno 17395 bound_to 11000

$$$$
