AV-unprocessed.smi:1401|AV-procd|sdf|5694|dock10
  -GOLD-   22720 5323D 1   1.00000     0.00000
 Structure written by MMmdl.
 48 50  0  0  0  0  0  0  0  0  1 V2000
  152.2377  144.0197  161.5070 C   0  0  0  0  0  0  0  0  0  0  0  0
  152.5199  142.8238  160.6385 C   0  0  0  0  0  0  0  0  0  0  0  0
  151.9702  142.8138  159.4693 N   0  0  0  0  0  0  0  0  0  0  0  0
  152.1826  141.7764  158.5807 N   0  0  0  0  0  0  0  0  0  0  0  0
  151.5651  141.9949  157.2610 C   0  0  0  0  0  0  0  0  0  0  0  0
  150.7087  140.8130  156.7722 C   0  0  0  0  0  0  0  0  0  0  0  0
  150.3009  139.9846  157.5850 O   0  0  0  0  0  0  0  0  0  0  0  0
  150.4061  140.7651  155.4644 N   0  0  0  0  0  0  0  0  0  0  0  0
  149.4611  139.8592  154.8236 C   0  0  2  0  0  0  0  0  0  0  0  0
  150.2049  138.8567  153.9249 C   0  0  0  0  0  0  0  0  0  0  0  0
  148.4265  140.6923  154.0299 C   0  0  1  0  0  0  0  0  0  0  0  0
  147.1868  139.9030  153.5545 C   0  0  0  0  0  0  0  0  0  0  0  0
  146.0148  140.7881  154.0208 C   0  0  1  0  0  0  0  0  0  0  0  0
  145.8684  140.6680  155.5492 C   0  0  0  0  0  0  0  0  0  0  0  0
  147.0830  141.4585  156.0690 C   0  0  0  0  0  0  0  0  0  0  0  0
  147.7849  141.8966  154.7677 C   0  0  2  0  0  0  0  0  0  0  0  0
  146.5888  142.1920  153.8696 C   0  0  0  0  0  0  0  0  0  0  0  0
  152.9513  140.6795  158.8396 C   0  0  0  0  0  0  0  0  0  0  0  0
  153.1292  139.7844  158.0127 O   0  0  0  0  0  0  0  0  0  0  0  0
  153.5583  140.6899  160.1725 C   0  0  0  0  0  0  0  0  0  0  0  0
  154.3751  139.5611  160.4829 C   0  0  0  0  0  0  0  0  0  0  0  0
  155.0278  138.6437  160.7522 N   0  0  0  0  0  0  0  0  0  0  0  0
  153.3687  141.7098  161.0467 C   0  0  0  0  0  0  0  0  0  0  0  0
  153.9900  141.7767  162.4349 C   0  0  0  0  0  0  0  0  0  0  0  0
  151.7489  143.7191  162.4338 H   0  0  0  0  0  0  0  0  0  0  0  0
  151.5861  144.7394  161.0090 H   0  0  0  0  0  0  0  0  0  0  0  0
  153.1624  144.5378  161.7623 H   0  0  0  0  0  0  0  0  0  0  0  0
  150.9505  142.8964  157.2526 H   0  0  0  0  0  0  0  0  0  0  0  0
  152.3498  142.1763  156.5242 H   0  0  0  0  0  0  0  0  0  0  0  0
  150.8029  141.4817  154.8740 H   0  0  0  0  0  0  0  0  0  0  0  0
  148.9398  139.2989  155.6016 H   0  0  0  0  0  0  0  0  0  0  0  0
  149.5100  138.1688  153.4430 H   0  0  0  0  0  0  0  0  0  0  0  0
  150.9101  138.2556  154.4996 H   0  0  0  0  0  0  0  0  0  0  0  0
  150.7655  139.3661  153.1404 H   0  0  0  0  0  0  0  0  0  0  0  0
  148.9314  141.0938  153.1491 H   0  0  0  0  0  0  0  0  0  0  0  0
  147.1929  139.8009  152.4686 H   0  0  0  0  0  0  0  0  0  0  0  0
  147.1286  138.9001  153.9795 H   0  0  0  0  0  0  0  0  0  0  0  0
  145.0869  140.6069  153.4778 H   0  0  0  0  0  0  0  0  0  0  0  0
  144.9389  141.1264  155.8894 H   0  0  0  0  0  0  0  0  0  0  0  0
  145.8724  139.6305  155.8851 H   0  0  0  0  0  0  0  0  0  0  0  0
  146.7537  142.3311  156.6349 H   0  0  0  0  0  0  0  0  0  0  0  0
  147.7209  140.8695  156.7270 H   0  0  0  0  0  0  0  0  0  0  0  0
  148.4627  142.7400  154.9012 H   0  0  0  0  0  0  0  0  0  0  0  0
  146.8660  142.4391  152.8431 H   0  0  0  0  0  0  0  0  0  0  0  0
  145.9345  142.9730  154.2613 H   0  0  0  0  0  0  0  0  0  0  0  0
  154.5973  140.9000  162.6581 H   0  0  0  0  0  0  0  0  0  0  0  0
  153.2149  141.8412  163.1995 H   0  0  0  0  0  0  0  0  0  0  0  0
  154.6342  142.6526  162.5230 H   0  0  0  0  0  0  0  0  0  0  0  0
  1  2  1  0  0  0  0
  1 25  1  0  0  0  0
  1 26  1  0  0  0  0
  1 27  1  0  0  0  0
  2 23  1  0  0  0  0
  2  3  2  0  0  0  0
  3  4  1  0  0  0  0
  4  5  1  0  0  0  0
  4 18  1  0  0  0  0
  5  6  1  0  0  0  0
  5 28  1  0  0  0  0
  5 29  1  0  0  0  0
  6  7  2  0  0  0  0
  6  8  1  0  0  0  0
  8  9  1  0  0  0  0
  8 30  1  0  0  0  0
  9 10  1  0  0  0  0
  9 11  1  0  0  0  0
  9 31  1  0  0  0  0
 10 32  1  0  0  0  0
 10 33  1  0  0  0  0
 10 34  1  0  0  0  0
 11 16  1  0  0  0  0
 11 12  1  0  0  0  0
 11 35  1  0  0  0  0
 12 13  1  0  0  0  0
 12 36  1  0  0  0  0
 12 37  1  0  0  0  0
 13 17  1  0  0  0  0
 13 14  1  0  0  0  0
 13 38  1  0  0  0  0
 14 15  1  0  0  0  0
 14 39  1  0  0  0  0
 14 40  1  0  0  0  0
 15 16  1  0  0  0  0
 15 41  1  0  0  0  0
 15 42  1  0  0  0  0
 16 17  1  0  0  0  0
 16 43  1  0  0  0  0
 17 44  1  0  0  0  0
 17 45  1  0  0  0  0
 18 19  2  0  0  0  0
 18 20  1  0  0  0  0
 20 21  1  0  0  0  0
 20 23  2  0  0  0  0
 21 22  3  0  0  0  0
 23 24  1  0  0  0  0
 24 46  1  0  0  0  0
 24 47  1  0  0  0  0
 24 48  1  0  0  0  0
M  END
> <s_m_source_file>
AV-unprocessed.smi

> <i_m_source_file_index>
1401

> <i_lp_mmshare_version>
43012

> <i_f3d_flags>
0

> <s_epik_input>
TiNDYyhjMVtDSDNdKWMoPU8pbihuYzFbQ0gzXSlbQ0gyXUMoPU8pW05IXVtDQEhdKFtDSDNdKVtDQEhdKFtDSDJdW0NASF0yMylbQ0BIXShbQ0gyXTMpW0NIMl1bQ0gyXTI=

> <s_epik_cmdline>
J2VwaWtfcHl0aG9uJywgJy1waCcsICc3LjAnLCAnLXRuJywgJzgnLCAnLW1hJywgJzIwMCcsICctbWV0YWxfYmluZGluZycsICctaW1hZScsICc8aW5maWxlLm1hZT4nLCAnLW9tYWUnLCAnPG91dGZpbGUubWFlPic=

> <r_lp_tautomer_probability>
1

> <r_epik_Ionization_Penalty>
2.16501e-08

> <r_epik_Ionization_Penalty_Charging>
2.29436e-11

> <r_epik_Ionization_Penalty_Neutral>
2.16271e-08

> <r_epik_State_Penalty>
-0

> <r_epik_Charging_Adjusted_Penalty>
2.29436e-11

> <i_epik_Tot_Q>
0

> <i_epik_Tot_abs_Q>
0

> <r_epik_Metal_State_Penalty>
-0

> <b_epik_Metal_Only>
0

> <s_lp_Force_Field>
OPLS_2005

> <r_lp_Energy>
65.485

> <b_lp_Chiralities_Consistent>
1

> <s_lp_Variant>
AV-unprocessed.smi:1401-7

> <Gold.Version>
5.8.1

> <Gold.Id.Protein>
6NUR|6NUR_protein|mol2

> <Gold.PLP.Fitness>
45.9445

> <Gold.PLP.PLP>
-43.8855

> <Gold.PLP.part.hbond>
-1.0000

> <Gold.PLP.part.metal>
0.0000

> <Gold.PLP.part.buried>
-1.6521

> <Gold.PLP.part.nonpolar>
-38.9218

> <Gold.PLP.part.repulsive>
0.1388

> <Gold.PLP.ligand.clash>
0.0000

> <Gold.PLP.ligand.torsion>
0.4897

> <Gold.PLP.Chemscore.Hbond>
1.0000

> <Gold.PLP.Chemscore.CHOScore>
0.0000

> <Gold.PLP.Chemscore.Metal>
0.0000

> <Gold.Chemscore.Hbonds>
donor molecule, donor type, donor heavy atom, donor atom, acceptor molecule, acceptor atom, score
      P1  H  7997  8009       L1    19  0.99

> <Gold.PLP.Chemscore.Internal.Correction>
0.0383

> <Gold.Rescore>
     Score         DG    S(hbond)    S(metal)    S(lipo)     H(rot)  DE(clash)    DE(int)     intcor
     15.57     -16.99       0.90        0.00     108.19       1.63       0.15       1.26       ----

> <Gold.Chemscore.Fitness>
15.5731

> <Gold.Chemscore.DG>
-16.9886

> <Gold.Chemscore.ZeroCoef>
-5.4800

> <Gold.Chemscore.Hbond>
0.9038

> <Gold.Chemscore.Metal>
0.0000

> <Gold.Chemscore.Lipo>
108.1866

> <Gold.Chemscore.Internal_Hbond>
0.0000

> <Gold.Chemscore.DEClash>
0.1520

> <Gold.Chemscore.DEInternal>
1.2636

> <Gold.Chemscore.Rot>
1.6281

> <Gold.Chemscore.Internal.Correction>
   9.000000E+99

> <Gold.Chemscore.Hbonds>
donor molecule, donor type, donor heavy atom, donor atom, acceptor molecule, acceptor atom, score
      P1  H  7997  8009       L1    19  0.69

> <Gold.Chemscore.Hbond.Weighted>
-3.0186

> <Gold.Chemscore.Metal.Weighted>
-0.0000

> <Gold.Chemscore.Lipo.Weighted>
-12.6578

> <Gold.Chemscore.Internal_Hbond.Weighted>
0.0000

> <Gold.Chemscore.DEClash.Weighted>
0.1520

> <Gold.Chemscore.DEInternal.Weighted>
1.2636

> <Gold.Chemscore.Rot.Weighted>
4.1678

> <Gold.Chemscore.Internal.Correction.Weighted>
   9.000000E+99

> <Gold.Protein.RotatedTorsions>
[ 6907 6896 6895 6894 ] final   85.17 input  -60.11 | X-H torsion
[ 7974 7965 7964 7962 ] final  155.12 input  175.53 | X-H torsion
[ 8008 7997 7996 7995 ] final  142.52 input   59.86 | X-H torsion
[ 10167 10162 10161 10158 ] final -149.64 input  -65.29 | X-H torsion
[ 10718 10713 10712 10709 ] final  113.69 input   66.30 | X-H torsion
[ 10763 10752 10751 10750 ] final -160.50 input  -60.55 | X-H torsion
[ 11005 11000 10999 10996 ] final  142.73 input  -57.11 | X-H torsion

> <Gold.Protein.ActiveResidues>
 VAL166  LYS551  ARG553  GLY616  TRP617  ASP618  TYR619  PRO620  LYS621  CYS622 
 ASP623  PHE694  ASN695  SER759  ASP760  ASP761  ALA762  ILE779  LEU786  VAL792 
 PHE793  MET794  SER795  GLU796  ALA797  LYS798  CYS799  TRP800  GLU811  SER814 

> <Gold.Protein.RotatedAtoms>
  152.5369  134.2627  159.8941 H   0  0  0  0  0  0  0  0  0  0  0  0  # atno 6907 bound_to 6896
  151.2586  133.4307  159.2622 H   0  0  0  0  0  0  0  0  0  0  0  0  # atno 6908 bound_to 6896
  151.0473  134.9663  159.8249 H   0  0  0  0  0  0  0  0  0  0  0  0  # atno 6909 bound_to 6896
  144.8045  139.7026  143.6168 H   0  0  0  0  0  0  0  0  0  0  0  0  # atno 7974 bound_to 7965
  156.2948  140.2286  156.4741 H   0  0  0  0  0  0  0  0  0  0  0  0  # atno 8008 bound_to 7997
  154.7910  140.0454  157.1221 H   0  0  0  0  0  0  0  0  0  0  0  0  # atno 8009 bound_to 7997
  154.9646  140.3058  155.5019 H   0  0  0  0  0  0  0  0  0  0  0  0  # atno 8010 bound_to 7997
  139.7425  143.8641  152.2566 H   0  0  0  0  0  0  0  0  0  0  0  0  # atno 10167 bound_to 10162
  157.6324  131.0987  150.7078 H   0  0  0  0  0  0  0  0  0  0  0  0  # atno 10718 bound_to 10713
  154.7384  135.3063  154.8770 H   0  0  0  0  0  0  0  0  0  0  0  0  # atno 10763 bound_to 10752
  153.9592  135.6755  153.4749 H   0  0  0  0  0  0  0  0  0  0  0  0  # atno 10764 bound_to 10752
  153.0985  135.4923  154.8747 H   0  0  0  0  0  0  0  0  0  0  0  0  # atno 10765 bound_to 10752
  140.0499  134.9261  157.0998 H   0  0  0  0  0  0  0  0  0  0  0  0  # atno 11005 bound_to 11000
  146.2333  139.5856  142.9540 LP  0  0  0  0  0  0  0  0  0  0  0  0  # atno 17320 bound_to 7965
  145.5472  141.0416  143.2298 LP  0  0  0  0  0  0  0  0  0  0  0  0  # atno 17321 bound_to 7965
  139.8595  144.7124  150.9116 LP  0  0  0  0  0  0  0  0  0  0  0  0  # atno 17342 bound_to 10162
  140.7788  143.3829  151.1444 LP  0  0  0  0  0  0  0  0  0  0  0  0  # atno 17343 bound_to 10162
  156.7415  130.4740  149.5476 LP  0  0  0  0  0  0  0  0  0  0  0  0  # atno 17370 bound_to 10713
  156.1536  130.6327  151.0628 LP  0  0  0  0  0  0  0  0  0  0  0  0  # atno 17371 bound_to 10713
  140.3934  134.2160  155.7165 LP  0  0  0  0  0  0  0  0  0  0  0  0  # atno 17394 bound_to 11000
  141.1925  133.8171  157.0836 LP  0  0  0  0  0  0  0  0  0  0  0  0  # atno 17395 bound_to 11000

$$$$
