AV-unprocessed.smi:1879|AV-procd|sdf|7634|dock5
  -GOLD-   22720 9363D 1   1.00000     0.00000
 Structure written by MMmdl.
 47 49  0  0  0  0  0  0  0  0  2 V2000
  150.6440  140.7876  156.6479 O   0  0  0  0  0  0  0  0  0  0  0  0
  150.0516  141.8562  156.4987 C   0  0  0  0  0  0  0  0  0  0  0  0
  149.0029  142.0530  155.6822 N   0  0  0  0  0  0  0  0  0  0  0  0
  148.3576  141.1119  154.8299 C   0  0  0  0  0  0  0  0  0  0  0  0
  148.9806  139.8879  154.4733 C   0  0  0  0  0  0  0  0  0  0  0  0
  148.3233  138.9887  153.6127 C   0  0  0  0  0  0  0  0  0  0  0  0
  147.0496  139.3235  153.1233 C   0  0  0  0  0  0  0  0  0  0  0  0
  146.4748  140.4850  153.4970 N   0  3  0  0  0  0  0  0  0  0  0  0
  147.0495  141.3849  154.3336 C   0  0  0  0  0  0  0  0  0  0  0  0
  146.3178  142.5527  154.6492 N   0  0  0  0  0  0  0  0  0  0  0  0
  145.7781  143.3950  153.5879 C   0  0  0  0  0  0  0  0  0  0  0  0
  144.7734  144.3108  154.2813 C   0  0  0  0  0  0  0  0  0  0  0  0
  144.1935  143.4023  155.3608 C   0  0  0  0  0  0  0  0  0  0  0  0
  145.3772  142.5168  155.7647 C   0  0  0  0  0  0  0  0  0  0  0  0
  150.3945  142.9899  157.1264 N   0  0  0  0  0  0  0  0  0  0  0  0
  151.4960  143.1312  158.0739 C   0  0  2  0  0  0  0  0  0  0  0  0
  151.5332  141.9019  159.0003 C   0  0  0  0  0  0  0  0  0  0  0  0
  152.6389  142.0244  160.0633 C   0  0  0  0  0  0  0  0  0  0  0  0
  152.5241  143.3277  160.8756 C   0  0  2  0  0  0  0  0  0  0  0  0
  151.3852  143.2770  161.7121 O   0  0  0  0  0  0  0  0  0  0  0  0
  152.4495  144.5609  159.9562 C   0  0  0  0  0  0  0  0  0  0  0  0
  151.3452  144.4298  158.8924 C   0  0  0  0  0  0  0  0  0  0  0  0
  148.6885  143.0078  155.5918 H   0  0  0  0  0  0  0  0  0  0  0  0
  149.9545  139.6181  154.8522 H   0  0  0  0  0  0  0  0  0  0  0  0
  148.7917  138.0566  153.3321 H   0  0  0  0  0  0  0  0  0  0  0  0
  146.4725  138.6989  152.4570 H   0  0  0  0  0  0  0  0  0  0  0  0
  146.5647  143.9616  153.0888 H   0  0  0  0  0  0  0  0  0  0  0  0
  145.2635  142.7880  152.8416 H   0  0  0  0  0  0  0  0  0  0  0  0
  145.2904  145.1538  154.7424 H   0  0  0  0  0  0  0  0  0  0  0  0
  144.0174  144.7053  153.6019 H   0  0  0  0  0  0  0  0  0  0  0  0
  143.7706  143.9545  156.2004 H   0  0  0  0  0  0  0  0  0  0  0  0
  143.4028  142.7853  154.9322 H   0  0  0  0  0  0  0  0  0  0  0  0
  145.0513  141.5018  155.9967 H   0  0  0  0  0  0  0  0  0  0  0  0
  145.8656  142.9288  156.6482 H   0  0  0  0  0  0  0  0  0  0  0  0
  149.8547  143.8217  156.9373 H   0  0  0  0  0  0  0  0  0  0  0  0
  152.4376  143.1684  157.5222 H   0  0  0  0  0  0  0  0  0  0  0  0
  150.5678  141.7811  159.4943 H   0  0  0  0  0  0  0  0  0  0  0  0
  151.6915  140.9968  158.4128 H   0  0  0  0  0  0  0  0  0  0  0  0
  152.6164  141.1605  160.7286 H   0  0  0  0  0  0  0  0  0  0  0  0
  153.6099  141.9998  159.5671 H   0  0  0  0  0  0  0  0  0  0  0  0
  153.3938  143.4195  161.5272 H   0  0  0  0  0  0  0  0  0  0  0  0
  151.0158  144.1448  161.7696 H   0  0  0  0  0  0  0  0  0  0  0  0
  152.2958  145.4650  160.5466 H   0  0  0  0  0  0  0  0  0  0  0  0
  153.4092  144.6868  159.4533 H   0  0  0  0  0  0  0  0  0  0  0  0
  151.3758  145.2973  158.2322 H   0  0  0  0  0  0  0  0  0  0  0  0
  150.3685  144.4492  159.3780 H   0  0  0  0  0  0  0  0  0  0  0  0
  145.5449  140.6946  153.1338 H   0  0  0  0  0  0  0  0  0  0  0  0
  1  2  2  0  0  0  0
  2  3  1  0  0  0  0
  2 15  1  0  0  0  0
  3  4  1  0  0  0  0
  3 23  1  0  0  0  0
  4  9  1  0  0  0  0
  4  5  2  0  0  0  0
  5  6  1  0  0  0  0
  5 24  1  0  0  0  0
  6  7  2  0  0  0  0
  6 25  1  0  0  0  0
  7  8  1  0  0  0  0
  7 26  1  0  0  0  0
  8  9  2  0  0  0  0
  8 47  1  0  0  0  0
  9 10  1  0  0  0  0
 10 14  1  0  0  0  0
 10 11  1  0  0  0  0
 11 12  1  0  0  0  0
 11 27  1  0  0  0  0
 11 28  1  0  0  0  0
 12 13  1  0  0  0  0
 12 29  1  0  0  0  0
 12 30  1  0  0  0  0
 13 14  1  0  0  0  0
 13 31  1  0  0  0  0
 13 32  1  0  0  0  0
 14 33  1  0  0  0  0
 14 34  1  0  0  0  0
 15 16  1  0  0  0  0
 15 35  1  0  0  0  0
 16 22  1  0  0  0  0
 16 17  1  0  0  0  0
 16 36  1  0  0  0  0
 17 18  1  0  0  0  0
 17 37  1  0  0  0  0
 17 38  1  0  0  0  0
 18 19  1  0  0  0  0
 18 39  1  0  0  0  0
 18 40  1  0  0  0  0
 19 20  1  0  0  0  0
 19 21  1  0  0  0  0
 19 41  1  0  0  0  0
 20 42  1  0  0  0  0
 21 22  1  0  0  0  0
 21 43  1  0  0  0  0
 21 44  1  0  0  0  0
 22 45  1  0  0  0  0
 22 46  1  0  0  0  0
M  CHG  1   8   1
M  END
> <s_m_source_file>
AV-unprocessed.smi

> <i_m_source_file_index>
1879

> <i_lp_mmshare_version>
43012

> <i_f3d_flags>
0

> <s_epik_input>
W0NIMl0xW0NIMl1bQ0BIXShbT0hdKVtDSDJdW0NIMl1bQ0BIXTFbTkhdQyg9TylbTkhdYzJbY0hdW2NIXVtjSF1uYzJOM1tDSDJdW0NIMl1bQ0gyXVtDSDJdMw==

> <s_epik_cmdline>
J2VwaWtfcHl0aG9uJywgJy1waCcsICc3LjAnLCAnLXRuJywgJzgnLCAnLW1hJywgJzIwMCcsICctbWV0YWxfYmluZGluZycsICctaW1hZScsICc8aW5maWxlLm1hZT4nLCAnLW9tYWUnLCAnPG91dGZpbGUubWFlPic=

> <r_lp_tautomer_probability>
0.999994

> <r_epik_Ionization_Penalty>
1.08454

> <r_epik_Ionization_Penalty_Charging>
1.08452

> <r_epik_Ionization_Penalty_Neutral>
2.17987e-05

> <r_epik_State_Penalty>
1.14025

> <r_epik_Charging_Adjusted_Penalty>
2.22477

> <i_epik_Tot_Q>
1

> <i_epik_Tot_abs_Q>
1

> <r_epik_Metal_State_Penalty>
1.22973

> <b_epik_Metal_Only>
0

> <s_lp_Force_Field>
OPLS_2005

> <r_lp_Energy>
43.5089

> <b_lp_Chiralities_Consistent>
1

> <s_lp_Variant>
AV-unprocessed.smi:1879-4

> <Gold.Version>
5.8.1

> <Gold.Id.Protein>
6NUR|6NUR_protein|mol2

> <Gold.PLP.Fitness>
59.2473

> <Gold.PLP.PLP>
-46.8746

> <Gold.PLP.part.hbond>
-5.0000

> <Gold.PLP.part.metal>
0.0000

> <Gold.PLP.part.buried>
-5.9640

> <Gold.PLP.part.nonpolar>
-36.3006

> <Gold.PLP.part.repulsive>
0.3753

> <Gold.PLP.ligand.clash>
0.0000

> <Gold.PLP.ligand.torsion>
0.7093

> <Gold.PLP.Chemscore.Hbond>
4.4720

> <Gold.PLP.Chemscore.CHOScore>
0.0000

> <Gold.PLP.Chemscore.Metal>
0.0000

> <Gold.Chemscore.Hbonds>
donor molecule, donor type, donor heavy atom, donor atom, acceptor molecule, acceptor atom, score
      L1  H     3    23       P1  8028  1.00
      L1  H     8    47       P1 10175  2.00
      L1  H    15    35       P1  8028  0.91
      P1  H  6933  6945       L1    20  0.46

> <Gold.PLP.Chemscore.Internal.Correction>
0.3753

> <Gold.Rescore>
     Score         DG    S(hbond)    S(metal)    S(lipo)     H(rot)  DE(clash)    DE(int)     intcor
     20.94     -24.31       3.24        0.00     105.35       1.69       0.03       3.35       ----

> <Gold.Chemscore.Fitness>
20.9390

> <Gold.Chemscore.DG>
-24.3103

> <Gold.Chemscore.ZeroCoef>
-5.4800

> <Gold.Chemscore.Hbond>
3.2449

> <Gold.Chemscore.Metal>
0.0000

> <Gold.Chemscore.Lipo>
105.3498

> <Gold.Chemscore.Internal_Hbond>
0.0000

> <Gold.Chemscore.DEClash>
0.0253

> <Gold.Chemscore.DEInternal>
3.3460

> <Gold.Chemscore.Rot>
1.6929

> <Gold.Chemscore.Internal.Correction>
   9.000000E+99

> <Gold.Chemscore.Hbonds>
donor molecule, donor type, donor heavy atom, donor atom, acceptor molecule, acceptor atom, score
      L1  H     3    23       P1  8028  0.98
      L1  H     8    47       P1 10175  0.72
      L1  H    15    35       P1  8028  0.87
      P1  H  6933  6945       L1    20  0.38

> <Gold.Chemscore.Hbond.Weighted>
-10.8381

> <Gold.Chemscore.Metal.Weighted>
-0.0000

> <Gold.Chemscore.Lipo.Weighted>
-12.3259

> <Gold.Chemscore.Internal_Hbond.Weighted>
0.0000

> <Gold.Chemscore.DEClash.Weighted>
0.0253

> <Gold.Chemscore.DEInternal.Weighted>
3.3460

> <Gold.Chemscore.Rot.Weighted>
4.3338

> <Gold.Chemscore.Internal.Correction.Weighted>
   9.000000E+99

> <Gold.Protein.RotatedTorsions>
[ 6907 6896 6895 6894 ] final  134.35 input  -60.11 | X-H torsion
[ 7974 7965 7964 7962 ] final  -72.76 input  175.53 | X-H torsion
[ 8008 7997 7996 7995 ] final -137.59 input   59.86 | X-H torsion
[ 10167 10162 10161 10158 ] final   16.84 input  -65.29 | X-H torsion
[ 10718 10713 10712 10709 ] final  165.00 input   66.30 | X-H torsion
[ 10763 10752 10751 10750 ] final  -74.52 input  -60.55 | X-H torsion
[ 11005 11000 10999 10996 ] final -129.73 input  -57.11 | X-H torsion

> <Gold.Protein.ActiveResidues>
 VAL166  LYS551  ARG553  GLY616  TRP617  ASP618  TYR619  PRO620  LYS621  CYS622 
 ASP623  PHE694  ASN695  SER759  ASP760  ASP761  ALA762  ILE779  LEU786  VAL792 
 PHE793  MET794  SER795  GLU796  ALA797  LYS798  CYS799  TRP800  GLU811  SER814 

> <Gold.Protein.RotatedAtoms>
  152.3122  133.5764  159.5688 H   0  0  0  0  0  0  0  0  0  0  0  0  # atno 6907 bound_to 6896
  150.7328  134.0135  159.3686 H   0  0  0  0  0  0  0  0  0  0  0  0  # atno 6908 bound_to 6896
  151.8027  135.0704  160.0453 H   0  0  0  0  0  0  0  0  0  0  0  0  # atno 6909 bound_to 6896
  145.6609  140.9253  143.0934 H   0  0  0  0  0  0  0  0  0  0  0  0  # atno 7974 bound_to 7965
  155.4144  140.0514  157.3030 H   0  0  0  0  0  0  0  0  0  0  0  0  # atno 8008 bound_to 7997
  154.4931  140.2128  155.9464 H   0  0  0  0  0  0  0  0  0  0  0  0  # atno 8009 bound_to 7997
  156.1369  140.3161  155.8440 H   0  0  0  0  0  0  0  0  0  0  0  0  # atno 8010 bound_to 7997
  140.5769  143.9056  150.6757 H   0  0  0  0  0  0  0  0  0  0  0  0  # atno 10167 bound_to 10162
  157.0864  131.0406  151.2555 H   0  0  0  0  0  0  0  0  0  0  0  0  # atno 10718 bound_to 10713
  154.4742  135.5862  153.6343 H   0  0  0  0  0  0  0  0  0  0  0  0  # atno 10763 bound_to 10752
  152.9838  135.6074  154.3328 H   0  0  0  0  0  0  0  0  0  0  0  0  # atno 10764 bound_to 10752
  154.3213  135.2843  155.2497 H   0  0  0  0  0  0  0  0  0  0  0  0  # atno 10765 bound_to 10752
  140.9406  134.1198  157.4154 H   0  0  0  0  0  0  0  0  0  0  0  0  # atno 11005 bound_to 11000
  144.7089  139.8448  143.7421 LP  0  0  0  0  0  0  0  0  0  0  0  0  # atno 17320 bound_to 7965
  146.1126  139.4132  143.0278 LP  0  0  0  0  0  0  0  0  0  0  0  0  # atno 17321 bound_to 7965
  140.2545  143.3568  152.1376 LP  0  0  0  0  0  0  0  0  0  0  0  0  # atno 17342 bound_to 10162
  139.5147  144.6952  151.5649 LP  0  0  0  0  0  0  0  0  0  0  0  0  # atno 17343 bound_to 10162
  157.4757  130.7735  149.7366 LP  0  0  0  0  0  0  0  0  0  0  0  0  # atno 17370 bound_to 10713
  155.9909  130.3941  150.3005 LP  0  0  0  0  0  0  0  0  0  0  0  0  # atno 17371 bound_to 10713
  139.8819  135.0035  156.6193 LP  0  0  0  0  0  0  0  0  0  0  0  0  # atno 17394 bound_to 11000
  140.7739  133.8716  155.8513 LP  0  0  0  0  0  0  0  0  0  0  0  0  # atno 17395 bound_to 11000

$$$$
