AV-unprocessed.smi:2902|AV-procd|sdf|11155|dock9
  -GOLD-   2272016 43D 1   1.00000     0.00000
 Structure written by MMmdl.
 47 48  0  0  0  0  0  0  0  0  1 V2000
  153.4645  140.1047  160.0540 C   0  0  0  0  0  0  0  0  0  0  0  0
  152.2927  139.8623  159.0903 C   0  0  0  0  0  0  0  0  0  0  0  0
  152.1573  140.9302  157.9863 C   0  0  2  0  0  0  0  0  0  0  0  0
  151.7807  142.1486  158.6211 O   0  0  0  0  0  0  0  0  0  0  0  0
  152.8492  142.9398  159.1367 C   0  0  0  0  0  0  0  0  0  0  0  0
  152.5168  143.3233  160.5788 C   0  0  0  0  0  0  0  0  0  0  0  0
  151.5704  144.5264  160.4777 C   0  0  0  0  0  0  0  0  0  0  0  0
  151.7544  145.1073  159.0668 C   0  0  0  0  0  0  0  0  0  0  0  0
  152.8634  144.2824  158.4059 C   0  0  0  0  0  0  0  0  0  0  0  0
  151.1055  140.5529  156.9285 C   0  0  0  0  0  0  0  0  0  0  0  0
  150.5624  141.4277  156.2538 O   0  0  0  0  0  0  0  0  0  0  0  0
  150.8448  139.2435  156.7954 N   0  0  0  0  0  0  0  0  0  0  0  0
  149.8953  138.6358  155.8633 C   0  0  2  0  0  0  0  0  0  0  0  0
  148.7630  137.9713  156.6642 C   0  0  0  0  0  0  0  0  0  0  0  0
  150.6075  137.6661  154.8828 C   0  0  1  0  0  0  0  0  0  0  0  0
  151.9986  138.1614  154.4432 C   0  0  0  0  0  0  0  0  0  0  0  0
  150.6584  136.2941  155.3783 N   0  0  0  0  0  0  0  0  0  0  0  0
  150.0479  135.1951  154.9299 C   0  0  0  0  0  0  0  0  0  0  0  0
  150.2991  134.1087  155.6469 N   0  0  0  0  0  0  0  0  0  0  0  0
  151.1258  134.6455  156.5923 C   0  0  0  0  0  0  0  0  0  0  0  0
  151.3690  135.9512  156.4817 N   0  0  0  0  0  0  0  0  0  0  0  0
  153.4781  139.3511  160.8415 H   0  0  0  0  0  0  0  0  0  0  0  0
  153.3846  141.0818  160.5309 H   0  0  0  0  0  0  0  0  0  0  0  0
  154.4248  140.0590  159.5402 H   0  0  0  0  0  0  0  0  0  0  0  0
  152.3873  138.8708  158.6451 H   0  0  0  0  0  0  0  0  0  0  0  0
  151.3690  139.8397  159.6693 H   0  0  0  0  0  0  0  0  0  0  0  0
  153.1340  141.0629  157.5160 H   0  0  0  0  0  0  0  0  0  0  0  0
  153.8156  142.4365  159.0765 H   0  0  0  0  0  0  0  0  0  0  0  0
  152.0889  142.4961  161.1463 H   0  0  0  0  0  0  0  0  0  0  0  0
  153.4321  143.6287  161.0875 H   0  0  0  0  0  0  0  0  0  0  0  0
  150.5361  144.2076  160.6144 H   0  0  0  0  0  0  0  0  0  0  0  0
  151.7892  145.2636  161.2512 H   0  0  0  0  0  0  0  0  0  0  0  0
  150.8269  144.9986  158.5029 H   0  0  0  0  0  0  0  0  0  0  0  0
  152.0006  146.1694  159.0869 H   0  0  0  0  0  0  0  0  0  0  0  0
  153.8238  144.7721  158.5709 H   0  0  0  0  0  0  0  0  0  0  0  0
  152.7289  144.1792  157.3286 H   0  0  0  0  0  0  0  0  0  0  0  0
  151.3585  138.6057  157.3867 H   0  0  0  0  0  0  0  0  0  0  0  0
  149.4338  139.4157  155.2556 H   0  0  0  0  0  0  0  0  0  0  0  0
  148.0357  137.5037  155.9999 H   0  0  0  0  0  0  0  0  0  0  0  0
  148.2301  138.7072  157.2673 H   0  0  0  0  0  0  0  0  0  0  0  0
  149.1401  137.2038  157.3407 H   0  0  0  0  0  0  0  0  0  0  0  0
  149.9972  137.6363  153.9787 H   0  0  0  0  0  0  0  0  0  0  0  0
  151.9391  139.1620  154.0145 H   0  0  0  0  0  0  0  0  0  0  0  0
  152.4258  137.5037  153.6857 H   0  0  0  0  0  0  0  0  0  0  0  0
  152.7003  138.2017  155.2754 H   0  0  0  0  0  0  0  0  0  0  0  0
  149.4022  135.1907  154.0640 H   0  0  0  0  0  0  0  0  0  0  0  0
  151.5581  134.0578  157.3889 H   0  0  0  0  0  0  0  0  0  0  0  0
  1  2  1  0  0  0  0
  1 22  1  0  0  0  0
  1 23  1  0  0  0  0
  1 24  1  0  0  0  0
  2  3  1  0  0  0  0
  2 25  1  0  0  0  0
  2 26  1  0  0  0  0
  3  4  1  0  0  0  0
  3 10  1  0  0  0  0
  3 27  1  0  0  0  0
  4  5  1  0  0  0  0
  5  9  1  0  0  0  0
  5  6  1  0  0  0  0
  5 28  1  0  0  0  0
  6  7  1  0  0  0  0
  6 29  1  0  0  0  0
  6 30  1  0  0  0  0
  7  8  1  0  0  0  0
  7 31  1  0  0  0  0
  7 32  1  0  0  0  0
  8  9  1  0  0  0  0
  8 33  1  0  0  0  0
  8 34  1  0  0  0  0
  9 35  1  0  0  0  0
  9 36  1  0  0  0  0
 10 11  2  0  0  0  0
 10 12  1  0  0  0  0
 12 13  1  0  0  0  0
 12 37  1  0  0  0  0
 13 14  1  0  0  0  0
 13 15  1  0  0  0  0
 13 38  1  0  0  0  0
 14 39  1  0  0  0  0
 14 40  1  0  0  0  0
 14 41  1  0  0  0  0
 15 16  1  0  0  0  0
 15 17  1  0  0  0  0
 15 42  1  0  0  0  0
 16 43  1  0  0  0  0
 16 44  1  0  0  0  0
 16 45  1  0  0  0  0
 17 21  1  0  0  0  0
 17 18  1  0  0  0  0
 18 19  2  0  0  0  0
 18 46  1  0  0  0  0
 19 20  1  0  0  0  0
 20 21  2  0  0  0  0
 20 47  1  0  0  0  0
M  END
> <s_m_source_file>
AV-unprocessed.smi

> <i_m_source_file_index>
2902

> <i_lp_mmshare_version>
43012

> <i_f3d_flags>
0

> <s_epik_input>
W0NIMl0xW0NIMl1bQ0gyXVtDSDJdW0NIXTFPW0NAQEhdKFtDSDJdW0NIM10pQyg9TylbTkhdW0NASF0oW0NIM10pW0NASF0oW0NIM10pbjJbY0hdbltjSF1uMg==

> <s_epik_cmdline>
J2VwaWtfcHl0aG9uJywgJy1waCcsICc3LjAnLCAnLXRuJywgJzgnLCAnLW1hJywgJzIwMCcsICctbWV0YWxfYmluZGluZycsICctaW1hZScsICc8aW5maWxlLm1hZT4nLCAnLW9tYWUnLCAnPG91dGZpbGUubWFlPic=

> <r_lp_tautomer_probability>
1

> <r_epik_Ionization_Penalty>
6.95617e-05

> <r_epik_Ionization_Penalty_Charging>
0

> <r_epik_Ionization_Penalty_Neutral>
6.95617e-05

> <r_epik_State_Penalty>
-0

> <r_epik_Charging_Adjusted_Penalty>
0

> <i_epik_Tot_Q>
0

> <i_epik_Tot_abs_Q>
0

> <r_epik_Metal_State_Penalty>
-0

> <b_epik_Metal_Only>
0

> <s_lp_Force_Field>
OPLS_2005

> <r_lp_Energy>
29.711

> <b_lp_Chiralities_Consistent>
1

> <s_lp_Variant>
AV-unprocessed.smi:2902-5

> <Gold.Version>
5.8.1

> <Gold.Id.Protein>
6NUR|6NUR_protein|mol2

> <Gold.PLP.Fitness>
39.5046

> <Gold.PLP.PLP>
-40.5094

> <Gold.PLP.part.hbond>
-0.4652

> <Gold.PLP.part.metal>
0.0000

> <Gold.PLP.part.buried>
-6.9136

> <Gold.PLP.part.nonpolar>
-34.1338

> <Gold.PLP.part.repulsive>
0.1438

> <Gold.PLP.ligand.clash>
0.0000

> <Gold.PLP.ligand.torsion>
2.3460

> <Gold.PLP.Chemscore.Hbond>
0.1082

> <Gold.PLP.Chemscore.CHOScore>
1.0000

> <Gold.PLP.Chemscore.Metal>
0.0000

> <Gold.Chemscore.Hbonds>
donor molecule, donor type, donor heavy atom, donor atom, acceptor molecule, acceptor atom, score
      P1  H 10752 10763       L1    21  0.05
      L1  C    18    46       P1  7948  1.00

> <Gold.PLP.Chemscore.Internal.Correction>
0.3625

> <Gold.Rescore>
     Score         DG    S(hbond)    S(metal)    S(lipo)     H(rot)  DE(clash)    DE(int)     intcor
      8.83     -11.19       0.00        0.00     107.75       2.69       0.05       2.31       ----

> <Gold.Chemscore.Fitness>
8.8292

> <Gold.Chemscore.DG>
-11.1913

> <Gold.Chemscore.ZeroCoef>
-5.4800

> <Gold.Chemscore.Hbond>
0.0000

> <Gold.Chemscore.Metal>
0.0000

> <Gold.Chemscore.Lipo>
107.7488

> <Gold.Chemscore.Internal_Hbond>
0.0000

> <Gold.Chemscore.DEClash>
0.0484

> <Gold.Chemscore.DEInternal>
2.3137

> <Gold.Chemscore.Rot>
2.6935

> <Gold.Chemscore.Internal.Correction>
   9.000000E+99

> <Gold.Chemscore.Hbond.Weighted>
-0.0000

> <Gold.Chemscore.Metal.Weighted>
-0.0000

> <Gold.Chemscore.Lipo.Weighted>
-12.6066

> <Gold.Chemscore.Internal_Hbond.Weighted>
0.0000

> <Gold.Chemscore.DEClash.Weighted>
0.0484

> <Gold.Chemscore.DEInternal.Weighted>
2.3137

> <Gold.Chemscore.Rot.Weighted>
6.8954

> <Gold.Chemscore.Internal.Correction.Weighted>
   9.000000E+99

> <Gold.Protein.RotatedTorsions>
[ 6907 6896 6895 6894 ] final  -83.18 input  -60.11 | X-H torsion
[ 7974 7965 7964 7962 ] final -154.91 input  175.53 | X-H torsion
[ 8008 7997 7996 7995 ] final   12.05 input   59.86 | X-H torsion
[ 10167 10162 10161 10158 ] final  -79.06 input  -65.29 | X-H torsion
[ 10718 10713 10712 10709 ] final  -57.06 input   66.30 | X-H torsion
[ 10763 10752 10751 10750 ] final   93.36 input  -60.55 | X-H torsion
[ 11005 11000 10999 10996 ] final  -41.51 input  -57.11 | X-H torsion

> <Gold.Protein.ActiveResidues>
 VAL166  LYS551  ARG553  GLY616  TRP617  ASP618  TYR619  PRO620  LYS621  CYS622 
 ASP623  PHE694  ASN695  SER759  ASP760  ASP761  ALA762  ILE779  LEU786  VAL792 
 PHE793  MET794  SER795  GLU796  ALA797  LYS798  CYS799  TRP800  GLU811  SER814 

> <Gold.Protein.RotatedAtoms>
  150.6888  134.3551  159.4925 H   0  0  0  0  0  0  0  0  0  0  0  0  # atno 6907 bound_to 6896
  152.1387  134.9076  160.0564 H   0  0  0  0  0  0  0  0  0  0  0  0  # atno 6908 bound_to 6896
  152.0218  133.3867  159.4298 H   0  0  0  0  0  0  0  0  0  0  0  0  # atno 6909 bound_to 6896
  144.7666  140.4323  143.5937 H   0  0  0  0  0  0  0  0  0  0  0  0  # atno 7974 bound_to 7965
  154.8152  140.2875  155.5825 H   0  0  0  0  0  0  0  0  0  0  0  0  # atno 8008 bound_to 7997
  156.2992  140.2560  156.2979 H   0  0  0  0  0  0  0  0  0  0  0  0  # atno 8009 bound_to 7997
  154.9401  140.0381  157.2082 H   0  0  0  0  0  0  0  0  0  0  0  0  # atno 8010 bound_to 7997
  140.4627  143.2449  151.8324 H   0  0  0  0  0  0  0  0  0  0  0  0  # atno 10167 bound_to 10162
  156.1240  130.4164  150.0390 H   0  0  0  0  0  0  0  0  0  0  0  0  # atno 10718 bound_to 10713
  153.2295  135.4328  155.0579 H   0  0  0  0  0  0  0  0  0  0  0  0  # atno 10763 bound_to 10752
  154.8289  135.3376  154.6809 H   0  0  0  0  0  0  0  0  0  0  0  0  # atno 10764 bound_to 10752
  153.7237  135.7015  153.5062 H   0  0  0  0  0  0  0  0  0  0  0  0  # atno 10765 bound_to 10752
  141.0251  133.6845  156.2468 H   0  0  0  0  0  0  0  0  0  0  0  0  # atno 11005 bound_to 11000
  145.6451  139.1556  143.2893 LP  0  0  0  0  0  0  0  0  0  0  0  0  # atno 17320 bound_to 7965
  146.1778  140.6545  142.9203 LP  0  0  0  0  0  0  0  0  0  0  0  0  # atno 17321 bound_to 7965
  139.4808  144.4988  151.9088 LP  0  0  0  0  0  0  0  0  0  0  0  0  # atno 17342 bound_to 10162
  140.4074  144.2414  150.5890 LP  0  0  0  0  0  0  0  0  0  0  0  0  # atno 17343 bound_to 10162
  156.8320  130.9396  151.3636 LP  0  0  0  0  0  0  0  0  0  0  0  0  # atno 17370 bound_to 10713
  157.6422  130.8815  149.9470 LP  0  0  0  0  0  0  0  0  0  0  0  0  # atno 17371 bound_to 10713
  140.6505  134.5072  157.5577 LP  0  0  0  0  0  0  0  0  0  0  0  0  # atno 17394 bound_to 11000
  139.9171  134.8224  156.1331 LP  0  0  0  0  0  0  0  0  0  0  0  0  # atno 17395 bound_to 11000

$$$$
