AV-unprocessed.smi:961|AV-procd|sdf|4274|dock1
  -GOLD-   22720 2183D 1   1.00000     0.00000
 Structure written by MMmdl.
 37 38  0  0  0  0  0  0  0  0  1 V2000
  153.1630  142.6009  160.1176 C   0  0  0  0  0  0  0  0  0  0  0  0
  152.0730  143.4307  159.4109 C   0  0  0  0  0  0  0  0  0  0  0  0
  151.3926  144.3738  160.4226 C   0  0  0  0  0  0  0  0  0  0  0  0
  152.7590  144.3012  158.3360 C   0  0  0  0  0  0  0  0  0  0  0  0
  151.0426  142.5076  158.7911 C   0  0  0  0  0  0  0  0  0  0  0  0
  149.9088  142.8502  158.0899 C   0  0  0  0  0  0  0  0  0  0  0  0
  149.0093  141.4554  157.5615 S   0  0  0  0  0  0  0  0  0  0  0  0
  150.2254  140.4297  158.3062 C   0  0  0  0  0  0  0  0  0  0  0  0
  150.1426  138.9408  158.3176 C   0  0  0  0  0  0  0  0  0  0  0  0
  148.8069  138.4262  157.7576 C   0  0  0  0  0  0  0  0  0  0  0  0
  147.9891  137.8112  158.7967 N   0  0  0  0  0  0  0  0  0  0  0  0
  148.3314  136.7234  159.5035 C   0  0  0  0  0  0  0  0  0  0  0  0
  149.3949  136.1239  159.3389 O   0  0  0  0  0  0  0  0  0  0  0  0
  147.3092  136.3079  160.5102 C   0  0  0  0  0  0  0  0  0  0  0  0
  147.7345  136.2665  161.9640 C   0  0  0  0  0  0  0  0  0  0  0  0
  147.5095  134.9793  161.2109 C   0  0  0  0  0  0  0  0  0  0  0  0
  151.1971  141.1194  158.9078 N   0  0  0  0  0  0  0  0  0  0  0  0
  153.9261  143.2416  160.5608 H   0  0  0  0  0  0  0  0  0  0  0  0
  153.6629  141.9280  159.4198 H   0  0  0  0  0  0  0  0  0  0  0  0
  152.7475  141.9908  160.9204 H   0  0  0  0  0  0  0  0  0  0  0  0
  150.9265  143.8202  161.2384 H   0  0  0  0  0  0  0  0  0  0  0  0
  150.6148  144.9713  159.9456 H   0  0  0  0  0  0  0  0  0  0  0  0
  152.1102  145.0633  160.8687 H   0  0  0  0  0  0  0  0  0  0  0  0
  153.5006  144.9669  158.7789 H   0  0  0  0  0  0  0  0  0  0  0  0
  152.0386  144.9268  157.8074 H   0  0  0  0  0  0  0  0  0  0  0  0
  153.2756  143.6902  157.5947 H   0  0  0  0  0  0  0  0  0  0  0  0
  149.5421  143.8373  157.8512 H   0  0  0  0  0  0  0  0  0  0  0  0
  150.9770  138.5473  157.7360 H   0  0  0  0  0  0  0  0  0  0  0  0
  150.2825  138.5891  159.3408 H   0  0  0  0  0  0  0  0  0  0  0  0
  148.2422  139.2535  157.3272 H   0  0  0  0  0  0  0  0  0  0  0  0
  148.9804  137.7142  156.9487 H   0  0  0  0  0  0  0  0  0  0  0  0
  147.0984  138.2444  158.9928 H   0  0  0  0  0  0  0  0  0  0  0  0
  146.2803  136.6049  160.3107 H   0  0  0  0  0  0  0  0  0  0  0  0
  148.7620  136.5271  162.2132 H   0  0  0  0  0  0  0  0  0  0  0  0
  146.9935  136.5635  162.7031 H   0  0  0  0  0  0  0  0  0  0  0  0
  146.6155  134.4028  161.4395 H   0  0  0  0  0  0  0  0  0  0  0  0
  148.3878  134.3856  160.9622 H   0  0  0  0  0  0  0  0  0  0  0  0
  1  2  1  0  0  0  0
  1 18  1  0  0  0  0
  1 19  1  0  0  0  0
  1 20  1  0  0  0  0
  2  3  1  0  0  0  0
  2  4  1  0  0  0  0
  2  5  1  0  0  0  0
  3 21  1  0  0  0  0
  3 22  1  0  0  0  0
  3 23  1  0  0  0  0
  4 24  1  0  0  0  0
  4 25  1  0  0  0  0
  4 26  1  0  0  0  0
  5 17  1  0  0  0  0
  5  6  2  0  0  0  0
  6  7  1  0  0  0  0
  6 27  1  0  0  0  0
  7  8  1  0  0  0  0
  8  9  1  0  0  0  0
  8 17  2  0  0  0  0
  9 10  1  0  0  0  0
  9 28  1  0  0  0  0
  9 29  1  0  0  0  0
 10 11  1  0  0  0  0
 10 30  1  0  0  0  0
 10 31  1  0  0  0  0
 11 12  1  0  0  0  0
 11 32  1  0  0  0  0
 12 13  2  0  0  0  0
 12 14  1  0  0  0  0
 14 16  1  0  0  0  0
 14 15  1  0  0  0  0
 14 33  1  0  0  0  0
 15 16  1  0  0  0  0
 15 34  1  0  0  0  0
 15 35  1  0  0  0  0
 16 36  1  0  0  0  0
 16 37  1  0  0  0  0
M  END
> <s_m_source_file>
AV-unprocessed.smi

> <i_m_source_file_index>
961

> <i_lp_mmshare_version>
43012

> <i_f3d_flags>
0

> <s_epik_input>
W0NIM11DKFtDSDNdKShbQ0gzXSljMVtjSF1zYyhuMSlbQ0gyXVtDSDJdW05IXUMoPU8pW0NIXTJbQ0gyXVtDSDJdMg==

> <s_epik_cmdline>
J2VwaWtfcHl0aG9uJywgJy1waCcsICc3LjAnLCAnLXRuJywgJzgnLCAnLW1hJywgJzIwMCcsICctbWV0YWxfYmluZGluZycsICctaW1hZScsICc8aW5maWxlLm1hZT4nLCAnLW9tYWUnLCAnPG91dGZpbGUubWFlPic=

> <r_epik_Ionization_Penalty>
0.000842111

> <r_epik_Ionization_Penalty_Charging>
0

> <r_epik_Ionization_Penalty_Neutral>
0.000842111

> <r_epik_State_Penalty>
0.000542609

> <r_epik_Charging_Adjusted_Penalty>
0.000542609

> <i_epik_Tot_Q>
0

> <i_epik_Tot_abs_Q>
0

> <r_epik_Metal_State_Penalty>
-0

> <b_epik_Metal_Only>
0

> <s_lp_Force_Field>
OPLS_2005

> <r_lp_Energy>
-3.24501

> <b_lp_Chiralities_Consistent>
1

> <s_lp_Variant>
AV-unprocessed.smi:961-1

> <Gold.Version>
5.8.1

> <Gold.Id.Protein>
6NUR|6NUR_protein|mol2

> <Gold.PLP.Fitness>
39.3515

> <Gold.PLP.PLP>
-33.8239

> <Gold.PLP.part.hbond>
-1.0000

> <Gold.PLP.part.metal>
0.0000

> <Gold.PLP.part.buried>
-4.5490

> <Gold.PLP.part.nonpolar>
-28.8331

> <Gold.PLP.part.repulsive>
0.2138

> <Gold.PLP.ligand.clash>
0.0000

> <Gold.PLP.ligand.torsion>
0.5126

> <Gold.PLP.Chemscore.Hbond>
1.0000

> <Gold.PLP.Chemscore.CHOScore>
1.1342

> <Gold.PLP.Chemscore.Metal>
0.0000

> <Gold.Chemscore.Hbonds>
donor molecule, donor type, donor heavy atom, donor atom, acceptor molecule, acceptor atom, score
      P1  H  6896  6909       L1    13  1.00
      L1  C     6    27       P1  8028  0.97
      L1  C     6    27       P1  8029  0.15

> <Gold.PLP.Chemscore.Internal.Correction>
0.1504

> <Gold.Rescore>
     Score         DG    S(hbond)    S(metal)    S(lipo)     H(rot)  DE(clash)    DE(int)     intcor
     16.04     -16.49       1.00        0.00      99.15       1.54       0.03       0.42       ----

> <Gold.Chemscore.Fitness>
16.0397

> <Gold.Chemscore.DG>
-16.4863

> <Gold.Chemscore.ZeroCoef>
-5.4800

> <Gold.Chemscore.Hbond>
0.9999

> <Gold.Chemscore.Metal>
0.0000

> <Gold.Chemscore.Lipo>
99.1453

> <Gold.Chemscore.Internal_Hbond>
0.0000

> <Gold.Chemscore.DEClash>
0.0263

> <Gold.Chemscore.DEInternal>
0.4203

> <Gold.Chemscore.Rot>
1.5364

> <Gold.Chemscore.Internal.Correction>
   9.000000E+99

> <Gold.Chemscore.Hbonds>
donor molecule, donor type, donor heavy atom, donor atom, acceptor molecule, acceptor atom, score
      P1  H  6896  6909       L1    13  0.99

> <Gold.Chemscore.Hbond.Weighted>
-3.3395

> <Gold.Chemscore.Metal.Weighted>
-0.0000

> <Gold.Chemscore.Lipo.Weighted>
-11.6000

> <Gold.Chemscore.Internal_Hbond.Weighted>
0.0000

> <Gold.Chemscore.DEClash.Weighted>
0.0263

> <Gold.Chemscore.DEInternal.Weighted>
0.4203

> <Gold.Chemscore.Rot.Weighted>
3.9332

> <Gold.Chemscore.Internal.Correction.Weighted>
   9.000000E+99

> <Gold.Protein.RotatedTorsions>
[ 6907 6896 6895 6894 ] final   62.30 input  -60.11 | X-H torsion
[ 7974 7965 7964 7962 ] final  -96.71 input  175.53 | X-H torsion
[ 8008 7997 7996 7995 ] final  -65.31 input   59.86 | X-H torsion
[ 10167 10162 10161 10158 ] final -147.51 input  -65.29 | X-H torsion
[ 10718 10713 10712 10709 ] final -160.45 input   66.30 | X-H torsion
[ 10763 10752 10751 10750 ] final  -18.28 input  -60.55 | X-H torsion
[ 11005 11000 10999 10996 ] final  -95.54 input  -57.11 | X-H torsion

> <Gold.Protein.ActiveResidues>
 VAL166  LYS551  ARG553  GLY616  TRP617  ASP618  TYR619  PRO620  LYS621  CYS622 
 ASP623  PHE694  ASN695  SER759  ASP760  ASP761  ALA762  ILE779  LEU786  VAL792 
 PHE793  MET794  SER795  GLU796  ALA797  LYS798  CYS799  TRP800  GLU811  SER814 

> <Gold.Protein.RotatedAtoms>
  152.4161  134.6039  160.0007 H   0  0  0  0  0  0  0  0  0  0  0  0  # atno 6907 bound_to 6896
  151.6203  133.3334  159.3094 H   0  0  0  0  0  0  0  0  0  0  0  0  # atno 6908 bound_to 6896
  150.8049  134.7207  159.6701 H   0  0  0  0  0  0  0  0  0  0  0  0  # atno 6909 bound_to 6896
  145.3433  140.9464  143.2595 H   0  0  0  0  0  0  0  0  0  0  0  0  # atno 7974 bound_to 7965
  154.4664  140.0936  156.7031 H   0  0  0  0  0  0  0  0  0  0  0  0  # atno 8008 bound_to 7997
  155.4847  140.3469  155.4327 H   0  0  0  0  0  0  0  0  0  0  0  0  # atno 8009 bound_to 7997
  156.0963  140.1410  156.9515 H   0  0  0  0  0  0  0  0  0  0  0  0  # atno 8010 bound_to 7997
  139.7615  143.8369  152.2608 H   0  0  0  0  0  0  0  0  0  0  0  0  # atno 10167 bound_to 10162
  156.5823  130.8735  151.2868 H   0  0  0  0  0  0  0  0  0  0  0  0  # atno 10718 bound_to 10713
  153.5869  135.7003  153.5439 H   0  0  0  0  0  0  0  0  0  0  0  0  # atno 10763 bound_to 10752
  153.3212  135.4073  155.1418 H   0  0  0  0  0  0  0  0  0  0  0  0  # atno 10764 bound_to 10752
  154.8607  135.3696  154.5399 H   0  0  0  0  0  0  0  0  0  0  0  0  # atno 10765 bound_to 10752
  141.1439  133.8033  157.0449 H   0  0  0  0  0  0  0  0  0  0  0  0  # atno 11005 bound_to 11000
  144.8773  139.4953  143.6739 LP  0  0  0  0  0  0  0  0  0  0  0  0  # atno 17320 bound_to 7965
  146.2998  139.7392  142.9099 LP  0  0  0  0  0  0  0  0  0  0  0  0  # atno 17321 bound_to 7965
  139.8377  144.7224  150.9370 LP  0  0  0  0  0  0  0  0  0  0  0  0  # atno 17342 bound_to 10162
  140.7807  143.4012  151.1147 LP  0  0  0  0  0  0  0  0  0  0  0  0  # atno 17343 bound_to 10162
  157.7323  130.9714  150.1923 LP  0  0  0  0  0  0  0  0  0  0  0  0  # atno 17370 bound_to 10713
  156.2620  130.3712  149.8120 LP  0  0  0  0  0  0  0  0  0  0  0  0  # atno 17371 bound_to 10713
  140.0669  134.9724  157.1401 LP  0  0  0  0  0  0  0  0  0  0  0  0  # atno 17394 bound_to 11000
  140.3767  134.2332  155.7174 LP  0  0  0  0  0  0  0  0  0  0  0  0  # atno 17395 bound_to 11000

$$$$
