AV-unprocessed.smi:968|AV-procd|sdf|4289|dock2
  -GOLD-   22720 2193D 1   1.00000     0.00000
 Structure written by MMmdl.
 20 20  0  0  0  0  0  0  0  0  1 V2000
  146.1301  137.8321  152.0597 C   0  0  0  0  0  0  0  0  0  0  0  0
  146.3058  136.3896  151.9889 N   0  0  0  0  0  0  0  0  0  0  0  0
  145.3084  135.5163  151.7894 C   0  0  0  0  0  0  0  0  0  0  0  0
  144.1335  135.8606  151.6496 O   0  0  0  0  0  0  0  0  0  0  0  0
  145.7167  134.0380  151.7482 C   0  0  0  0  0  0  0  0  0  0  0  0
  145.2432  133.3501  150.5583 N   0  0  0  0  0  0  0  0  0  0  0  0
  145.8747  132.5185  149.7260 C   0  0  0  0  0  0  0  0  0  0  0  0
  145.1162  132.0767  148.7317 N   0  0  0  0  0  0  0  0  0  0  0  0
  143.9508  132.7205  149.0352 C   0  0  0  0  0  0  0  0  0  0  0  0
  142.8056  132.5627  148.2372 N   0  0  0  0  0  0  0  0  0  0  0  0
  143.9708  133.4972  150.1176 N   0  0  0  0  0  0  0  0  0  0  0  0
  147.0842  138.3122  152.2769 H   0  0  0  0  0  0  0  0  0  0  0  0
  145.4261  138.1021  152.8479 H   0  0  0  0  0  0  0  0  0  0  0  0
  145.7592  138.2241  151.1119 H   0  0  0  0  0  0  0  0  0  0  0  0
  147.2444  136.0326  152.0949 H   0  0  0  0  0  0  0  0  0  0  0  0
  146.8038  133.9578  151.7988 H   0  0  0  0  0  0  0  0  0  0  0  0
  145.3143  133.5279  152.6242 H   0  0  0  0  0  0  0  0  0  0  0  0
  146.9078  132.2295  149.8518 H   0  0  0  0  0  0  0  0  0  0  0  0
  142.8298  131.9666  147.4226 H   0  0  0  0  0  0  0  0  0  0  0  0
  141.9593  133.0687  148.4542 H   0  0  0  0  0  0  0  0  0  0  0  0
  1  2  1  0  0  0  0
  1 12  1  0  0  0  0
  1 13  1  0  0  0  0
  1 14  1  0  0  0  0
  2  3  1  0  0  0  0
  2 15  1  0  0  0  0
  3  4  2  0  0  0  0
  3  5  1  0  0  0  0
  5  6  1  0  0  0  0
  5 16  1  0  0  0  0
  5 17  1  0  0  0  0
  6 11  1  0  0  0  0
  6  7  1  0  0  0  0
  7  8  2  0  0  0  0
  7 18  1  0  0  0  0
  8  9  1  0  0  0  0
  9 10  1  0  0  0  0
  9 11  2  0  0  0  0
 10 19  1  0  0  0  0
 10 20  1  0  0  0  0
M  END
> <s_m_source_file>
AV-unprocessed.smi

> <i_m_source_file_index>
968

> <i_lp_mmshare_version>
43012

> <i_f3d_flags>
0

> <s_epik_input>
W0NIM11bTkhdQyg9TylbQ0gyXW4xW2NIXW5jKG4xKVtOSDJd

> <s_epik_cmdline>
J2VwaWtfcHl0aG9uJywgJy1waCcsICc3LjAnLCAnLXRuJywgJzgnLCAnLW1hJywgJzIwMCcsICctbWV0YWxfYmluZGluZycsICctaW1hZScsICc8aW5maWxlLm1hZT4nLCAnLW9tYWUnLCAnPG91dGZpbGUubWFlPic=

> <r_lp_tautomer_probability>
1

> <r_epik_Ionization_Penalty>
0.000377128

> <r_epik_Ionization_Penalty_Charging>
0

> <r_epik_Ionization_Penalty_Neutral>
0.000377128

> <r_epik_State_Penalty>
-0

> <r_epik_Charging_Adjusted_Penalty>
0

> <i_epik_Tot_Q>
0

> <i_epik_Tot_abs_Q>
0

> <r_epik_Metal_State_Penalty>
-0

> <b_epik_Metal_Only>
0

> <s_lp_Force_Field>
OPLS_2005

> <r_lp_Energy>
2.7463

> <b_lp_Chiralities_Consistent>
1

> <s_lp_Variant>
AV-unprocessed.smi:968-1

> <Gold.Version>
5.8.1

> <Gold.Id.Protein>
6NUR|6NUR_protein|mol2

> <Gold.PLP.Fitness>
30.5211

> <Gold.PLP.PLP>
-21.9688

> <Gold.PLP.part.hbond>
-4.8539

> <Gold.PLP.part.metal>
0.0000

> <Gold.PLP.part.buried>
-3.3858

> <Gold.PLP.part.nonpolar>
-15.0562

> <Gold.PLP.part.repulsive>
0.8729

> <Gold.PLP.ligand.clash>
0.0000

> <Gold.PLP.ligand.torsion>
0.2240

> <Gold.PLP.Chemscore.Hbond>
2.0000

> <Gold.PLP.Chemscore.CHOScore>
1.0000

> <Gold.PLP.Chemscore.Metal>
0.0000

> <Gold.Chemscore.Hbonds>
donor molecule, donor type, donor heavy atom, donor atom, acceptor molecule, acceptor atom, score
      L1  H     2    15       P1  7948  0.99
      L1  H    10    20       P1 10186  1.00
      L1  C     7    18       P1 10747  1.00

> <Gold.PLP.Chemscore.Internal.Correction>
0.0003

> <Gold.Rescore>
     Score         DG    S(hbond)    S(metal)    S(lipo)     H(rot)  DE(clash)    DE(int)     intcor
      7.74      -9.29       1.97        0.00      12.56       1.65       0.00       1.55       ----

> <Gold.Chemscore.Fitness>
7.7434

> <Gold.Chemscore.DG>
-9.2910

> <Gold.Chemscore.ZeroCoef>
-5.4800

> <Gold.Chemscore.Hbond>
1.9684

> <Gold.Chemscore.Metal>
0.0000

> <Gold.Chemscore.Lipo>
12.5571

> <Gold.Chemscore.Internal_Hbond>
0.0000

> <Gold.Chemscore.DEClash>
0.0021

> <Gold.Chemscore.DEInternal>
1.5455

> <Gold.Chemscore.Rot>
1.6534

> <Gold.Chemscore.Internal.Correction>
   9.000000E+99

> <Gold.Chemscore.Hbonds>
donor molecule, donor type, donor heavy atom, donor atom, acceptor molecule, acceptor atom, score
      L1  H     2    15       P1  7948  0.93
      L1  H    10    19       P1 10195  0.01
      L1  H    10    20       P1 10186  0.94

> <Gold.Chemscore.Hbond.Weighted>
-6.5746

> <Gold.Chemscore.Metal.Weighted>
-0.0000

> <Gold.Chemscore.Lipo.Weighted>
-1.4692

> <Gold.Chemscore.Internal_Hbond.Weighted>
0.0000

> <Gold.Chemscore.DEClash.Weighted>
0.0021

> <Gold.Chemscore.DEInternal.Weighted>
1.5455

> <Gold.Chemscore.Rot.Weighted>
4.2327

> <Gold.Chemscore.Internal.Correction.Weighted>
   9.000000E+99

> <Gold.Protein.RotatedTorsions>
[ 6907 6896 6895 6894 ] final  125.60 input  -60.11 | X-H torsion
[ 7974 7965 7964 7962 ] final  -81.20 input  175.53 | X-H torsion
[ 8008 7997 7996 7995 ] final  108.46 input   59.86 | X-H torsion
[ 10167 10162 10161 10158 ] final  110.58 input  -65.29 | X-H torsion
[ 10718 10713 10712 10709 ] final  -82.68 input   66.30 | X-H torsion
[ 10763 10752 10751 10750 ] final  120.89 input  -60.55 | X-H torsion
[ 11005 11000 10999 10996 ] final -107.18 input  -57.11 | X-H torsion

> <Gold.Protein.ActiveResidues>
 VAL166  LYS551  ARG553  GLY616  TRP617  ASP618  TYR619  PRO620  LYS621  CYS622 
 ASP623  PHE694  ASN695  SER759  ASP760  ASP761  ALA762  ILE779  LEU786  VAL792 
 PHE793  MET794  SER795  GLU796  ALA797  LYS798  CYS799  TRP800  GLU811  SER814 

> <Gold.Protein.RotatedAtoms>
  152.3977  133.6772  159.6290 H   0  0  0  0  0  0  0  0  0  0  0  0  # atno 6907 bound_to 6896
  150.7874  133.8845  159.3304 H   0  0  0  0  0  0  0  0  0  0  0  0  # atno 6908 bound_to 6896
  151.6617  135.0990  160.0232 H   0  0  0  0  0  0  0  0  0  0  0  0  # atno 6909 bound_to 6896
  145.5498  140.9498  143.1505 H   0  0  0  0  0  0  0  0  0  0  0  0  # atno 7974 bound_to 7965
  156.1905  140.3076  155.9323 H   0  0  0  0  0  0  0  0  0  0  0  0  # atno 8008 bound_to 7997
  155.3184  140.0454  157.3055 H   0  0  0  0  0  0  0  0  0  0  0  0  # atno 8009 bound_to 7997
  154.5446  140.2272  155.8593 H   0  0  0  0  0  0  0  0  0  0  0  0  # atno 8010 bound_to 7997
  139.6677  144.7127  151.1745 H   0  0  0  0  0  0  0  0  0  0  0  0  # atno 10167 bound_to 10162
  156.0029  130.4642  150.4142 H   0  0  0  0  0  0  0  0  0  0  0  0  # atno 10718 bound_to 10713
  153.6056  135.3440  155.2960 H   0  0  0  0  0  0  0  0  0  0  0  0  # atno 10763 bound_to 10752
  154.8628  135.4238  154.2366 H   0  0  0  0  0  0  0  0  0  0  0  0  # atno 10764 bound_to 10752
  153.3204  135.7038  153.7107 H   0  0  0  0  0  0  0  0  0  0  0  0  # atno 10765 bound_to 10752
  141.0967  133.8958  157.1945 H   0  0  0  0  0  0  0  0  0  0  0  0  # atno 11005 bound_to 11000
  144.7535  139.7133  143.7263 LP  0  0  0  0  0  0  0  0  0  0  0  0  # atno 17320 bound_to 7965
  146.1925  139.5173  142.9796 LP  0  0  0  0  0  0  0  0  0  0  0  0  # atno 17321 bound_to 7965
  140.7606  143.5892  150.8813 LP  0  0  0  0  0  0  0  0  0  0  0  0  # atno 17342 bound_to 10162
  139.9555  143.6223  152.3017 LP  0  0  0  0  0  0  0  0  0  0  0  0  # atno 17343 bound_to 10162
  157.2203  131.0481  151.2550 LP  0  0  0  0  0  0  0  0  0  0  0  0  # atno 17370 bound_to 10713
  157.3807  130.7230  149.6628 LP  0  0  0  0  0  0  0  0  0  0  0  0  # atno 17371 bound_to 10713
  139.9806  135.0099  156.9739 LP  0  0  0  0  0  0  0  0  0  0  0  0  # atno 17394 bound_to 11000
  140.5123  134.0990  155.7273 LP  0  0  0  0  0  0  0  0  0  0  0  0  # atno 17395 bound_to 11000

$$$$
