AV-unprocessed.smi:750|AV-procd|sdf|3591|dock4
  -GOLD-   22720 0583D 1   1.00000     0.00000
 Structure written by MMmdl.
 22 23  0  0  0  0  0  0  0  0  2 V2000
  149.9783  139.7149  158.1644 C   0  0  0  0  0  0  0  0  0  0  0  0
  150.6062  140.7408  157.1977 C   0  0  2  0  0  0  0  0  0  0  0  0
  151.4035  141.8280  157.9383 C   0  0  0  0  0  0  0  0  0  0  0  0
  152.4350  141.5157  158.8568 C   0  0  0  0  0  0  0  0  0  0  0  0
  153.1257  142.5604  159.5001 C   0  0  0  0  0  0  0  0  0  0  0  0
  152.7608  143.8873  159.2050 C   0  0  0  0  0  0  0  0  0  0  0  0
  151.7824  144.2080  158.3339 N   0  0  0  0  0  0  0  0  0  0  0  0
  151.1252  143.1992  157.7222 C   0  0  0  0  0  0  0  0  0  0  0  0
  149.5709  141.2695  156.3297 N   0  0  0  0  0  0  0  0  0  0  0  0
  149.8105  140.9884  155.0502 C   0  0  0  0  0  0  0  0  0  0  0  0
  149.0572  141.3630  154.1544 O   0  0  0  0  0  0  0  0  0  0  0  0
  150.9444  140.2708  154.9380 N   0  5  0  0  0  0  0  0  0  0  0  0
  151.4951  140.0505  156.1519 C   0  0  0  0  0  0  0  0  0  0  0  0
  152.5065  139.4188  156.4559 O   0  0  0  0  0  0  0  0  0  0  0  0
  150.7321  139.1999  158.7605 H   0  0  0  0  0  0  0  0  0  0  0  0
  149.4174  138.9493  157.6261 H   0  0  0  0  0  0  0  0  0  0  0  0
  149.2879  140.2003  158.8547 H   0  0  0  0  0  0  0  0  0  0  0  0
  152.7068  140.4949  159.0791 H   0  0  0  0  0  0  0  0  0  0  0  0
  153.9162  142.3485  160.2045 H   0  0  0  0  0  0  0  0  0  0  0  0
  153.2681  144.7129  159.6814 H   0  0  0  0  0  0  0  0  0  0  0  0
  150.3472  143.5032  157.0381 H   0  0  0  0  0  0  0  0  0  0  0  0
  148.7786  141.7968  156.6651 H   0  0  0  0  0  0  0  0  0  0  0  0
  1  2  1  0  0  0  0
  1 15  1  0  0  0  0
  1 16  1  0  0  0  0
  1 17  1  0  0  0  0
  2 13  1  0  0  0  0
  2  3  1  0  0  0  0
  2  9  1  0  0  0  0
  3  8  1  0  0  0  0
  3  4  2  0  0  0  0
  4  5  1  0  0  0  0
  4 18  1  0  0  0  0
  5  6  2  0  0  0  0
  5 19  1  0  0  0  0
  6  7  1  0  0  0  0
  6 20  1  0  0  0  0
  7  8  2  0  0  0  0
  8 21  1  0  0  0  0
  9 10  1  0  0  0  0
  9 22  1  0  0  0  0
 10 11  2  0  0  0  0
 10 12  1  0  0  0  0
 12 13  1  0  0  0  0
 13 14  2  0  0  0  0
M  CHG  1  12  -1
M  END
> <s_m_source_file>
AV-unprocessed.smi

> <i_m_source_file_index>
750

> <i_lp_mmshare_version>
43012

> <i_f3d_flags>
0

> <s_epik_input>
Tz1DMVtOSF1DKD1PKVtOSF1bQ0BAXTEoW0NIM10pYzJbY0hdW2NIXVtjSF1uW2NIXTI=

> <s_epik_cmdline>
J2VwaWtfcHl0aG9uJywgJy1waCcsICc3LjAnLCAnLXRuJywgJzgnLCAnLW1hJywgJzIwMCcsICctbWV0YWxfYmluZGluZycsICctaW1hZScsICc8aW5maWxlLm1hZT4nLCAnLW9tYWUnLCAnPG91dGZpbGUubWFlPic=

> <r_epik_Ionization_Penalty>
1.82311

> <r_epik_Ionization_Penalty_Charging>
1.82122

> <r_epik_Ionization_Penalty_Neutral>
0.00188516

> <r_epik_State_Penalty>
1.93645

> <r_epik_Charging_Adjusted_Penalty>
3.75767

> <i_epik_Tot_Q>
-1

> <i_epik_Tot_abs_Q>
1

> <r_epik_Metal_State_Penalty>
0.533589

> <b_epik_Metal_Only>
0

> <s_lp_Force_Field>
OPLS_2005

> <r_lp_Energy>
8.30846

> <b_lp_Chiralities_Consistent>
1

> <s_lp_Variant>
AV-unprocessed.smi:750-4

> <Gold.Version>
5.8.1

> <Gold.Id.Protein>
6NUR|6NUR_protein|mol2

> <Gold.PLP.Fitness>
38.6816

> <Gold.PLP.PLP>
-27.8171

> <Gold.PLP.part.hbond>
-3.7619

> <Gold.PLP.part.metal>
0.0000

> <Gold.PLP.part.buried>
-3.6723

> <Gold.PLP.part.nonpolar>
-21.0930

> <Gold.PLP.part.repulsive>
0.4018

> <Gold.PLP.ligand.clash>
0.0000

> <Gold.PLP.ligand.torsion>
0.1411

> <Gold.PLP.Chemscore.Hbond>
2.6880

> <Gold.PLP.Chemscore.CHOScore>
1.0000

> <Gold.PLP.Chemscore.Metal>
0.0000

> <Gold.Chemscore.Hbonds>
donor molecule, donor type, donor heavy atom, donor atom, acceptor molecule, acceptor atom, score
      P1  H  7989  7998       L1    12  1.00
      P1  H  7997  8008       L1    14  1.00
      P1  H  8011  8017       L1    11  0.35
      L1  C     8    21       P1  8028  1.00

> <Gold.PLP.Chemscore.Internal.Correction>
0.0826

> <Gold.Rescore>
     Score         DG    S(hbond)    S(metal)    S(lipo)     H(rot)  DE(clash)    DE(int)     intcor
     16.19     -16.23       1.92        0.00      58.92       1.00       0.00       0.05       ----

> <Gold.Chemscore.Fitness>
16.1862

> <Gold.Chemscore.DG>
-16.2330

> <Gold.Chemscore.ZeroCoef>
-5.4800

> <Gold.Chemscore.Hbond>
1.9221

> <Gold.Chemscore.Metal>
0.0000

> <Gold.Chemscore.Lipo>
58.9176

> <Gold.Chemscore.Internal_Hbond>
0.0000

> <Gold.Chemscore.DEClash>
0.0000

> <Gold.Chemscore.DEInternal>
0.0468

> <Gold.Chemscore.Rot>
1.0000

> <Gold.Chemscore.Internal.Correction>
   9.000000E+99

> <Gold.Chemscore.Hbonds>
donor molecule, donor type, donor heavy atom, donor atom, acceptor molecule, acceptor atom, score
      P1  H  7989  7998       L1    12  0.39
      P1  H  7997  8008       L1    14  0.98
      P1  H  8011  8017       L1    11  0.35

> <Gold.Chemscore.Hbond.Weighted>
-6.4197

> <Gold.Chemscore.Metal.Weighted>
-0.0000

> <Gold.Chemscore.Lipo.Weighted>
-6.8934

> <Gold.Chemscore.Internal_Hbond.Weighted>
0.0000

> <Gold.Chemscore.DEClash.Weighted>
0.0000

> <Gold.Chemscore.DEInternal.Weighted>
0.0468

> <Gold.Chemscore.Rot.Weighted>
2.5600

> <Gold.Chemscore.Internal.Correction.Weighted>
   9.000000E+99

> <Gold.Protein.RotatedTorsions>
[ 6907 6896 6895 6894 ] final   55.13 input  -60.11 | X-H torsion
[ 7974 7965 7964 7962 ] final  100.52 input  175.53 | X-H torsion
[ 8008 7997 7996 7995 ] final  -45.85 input   59.86 | X-H torsion
[ 10167 10162 10161 10158 ] final   79.16 input  -65.29 | X-H torsion
[ 10718 10713 10712 10709 ] final  -61.27 input   66.30 | X-H torsion
[ 10763 10752 10751 10750 ] final -167.35 input  -60.55 | X-H torsion
[ 11005 11000 10999 10996 ] final   -5.54 input  -57.11 | X-H torsion

> <Gold.Protein.ActiveResidues>
 VAL166  LYS551  ARG553  GLY616  TRP617  ASP618  TYR619  PRO620  LYS621  CYS622 
 ASP623  PHE694  ASN695  SER759  ASP760  ASP761  ALA762  ILE779  LEU786  VAL792 
 PHE793  MET794  SER795  GLU796  ALA797  LYS798  CYS799  TRP800  GLU811  SER814 

> <Gold.Protein.RotatedAtoms>
  152.3508  134.7008  160.0236 H   0  0  0  0  0  0  0  0  0  0  0  0  # atno 6907 bound_to 6896
  151.7363  133.3314  159.3362 H   0  0  0  0  0  0  0  0  0  0  0  0  # atno 6908 bound_to 6896
  150.7539  134.6251  159.6201 H   0  0  0  0  0  0  0  0  0  0  0  0  # atno 6909 bound_to 6896
  145.3845  139.2374  143.3385 H   0  0  0  0  0  0  0  0  0  0  0  0  # atno 7974 bound_to 7965
  154.4003  140.1386  156.3915 H   0  0  0  0  0  0  0  0  0  0  0  0  # atno 8008 bound_to 7997
  155.7909  140.3479  155.5328 H   0  0  0  0  0  0  0  0  0  0  0  0  # atno 8009 bound_to 7997
  155.8580  140.0952  157.1622 H   0  0  0  0  0  0  0  0  0  0  0  0  # atno 8010 bound_to 7997
  139.9633  144.5946  150.8052 H   0  0  0  0  0  0  0  0  0  0  0  0  # atno 10167 bound_to 10162
  156.0933  130.4196  150.0970 H   0  0  0  0  0  0  0  0  0  0  0  0  # atno 10718 bound_to 10713
  154.6741  135.2944  154.9702 H   0  0  0  0  0  0  0  0  0  0  0  0  # atno 10763 bound_to 10752
  154.0719  135.6617  153.4829 H   0  0  0  0  0  0  0  0  0  0  0  0  # atno 10764 bound_to 10752
  153.0505  135.5177  154.7751 H   0  0  0  0  0  0  0  0  0  0  0  0  # atno 10765 bound_to 10752
  140.6923  133.9061  155.8626 H   0  0  0  0  0  0  0  0  0  0  0  0  # atno 11005 bound_to 11000
  146.2827  140.4518  142.8770 LP  0  0  0  0  0  0  0  0  0  0  0  0  # atno 17320 bound_to 7965
  144.8484  140.6964  143.6184 LP  0  0  0  0  0  0  0  0  0  0  0  0  # atno 17321 bound_to 7965
  140.7546  143.3030  151.3032 LP  0  0  0  0  0  0  0  0  0  0  0  0  # atno 17342 bound_to 10162
  139.6537  144.0315  152.2644 LP  0  0  0  0  0  0  0  0  0  0  0  0  # atno 17343 bound_to 10162
  156.8975  130.9609  151.3580 LP  0  0  0  0  0  0  0  0  0  0  0  0  # atno 17370 bound_to 10713
  157.6088  130.8567  149.8918 LP  0  0  0  0  0  0  0  0  0  0  0  0  # atno 17371 bound_to 10713
  141.0231  134.0861  157.4098 LP  0  0  0  0  0  0  0  0  0  0  0  0  # atno 17394 bound_to 11000
  139.8920  135.0122  156.6822 LP  0  0  0  0  0  0  0  0  0  0  0  0  # atno 17395 bound_to 11000

$$$$
