AV-unprocessed.smi:1244|AV-procd|sdf|5226|dock7
  -GOLD-   22720 4323D 1   1.00000     0.00000
 Structure written by MMmdl.
 55 57  0  0  0  0  0  0  0  0  2 V2000
  151.8595  139.1496  155.0734 C   0  0  0  0  0  0  0  0  0  0  0  0
  151.3132  140.0663  156.1732 C   0  0  2  0  0  0  0  0  0  0  0  0
  150.7030  141.3607  155.5980 C   0  0  0  0  0  0  0  0  0  0  0  0
  150.2529  142.2708  156.6792 N   0  3  1  0  0  0  0  0  0  0  0  0
  148.9666  141.8633  157.3035 C   0  0  0  0  0  0  0  0  0  0  0  0
  148.7999  142.4350  158.7239 C   0  0  0  0  0  0  0  0  0  0  0  0
  147.8818  143.5678  158.7363 N   0  0  0  0  0  0  0  0  0  0  0  0
  146.6695  143.5614  159.3084 C   0  0  0  0  0  0  0  0  0  0  0  0
  146.2011  142.5824  159.8898 O   0  0  0  0  0  0  0  0  0  0  0  0
  146.0603  144.7508  159.1703 N   0  0  0  0  0  0  0  0  0  0  0  0
  144.7983  145.1635  159.6854 C   0  0  0  0  0  0  0  0  0  0  0  0
  143.9387  144.2656  160.3652 C   0  0  0  0  0  0  0  0  0  0  0  0
  142.6769  144.7102  160.7957 C   0  0  0  0  0  0  0  0  0  0  0  0
  142.3088  146.0368  160.5166 C   0  0  0  0  0  0  0  0  0  0  0  0
  143.1077  146.8993  159.8574 N   0  0  0  0  0  0  0  0  0  0  0  0
  144.3336  146.4892  159.4488 C   0  0  0  0  0  0  0  0  0  0  0  0
  145.1353  147.4406  158.7779 N   0  0  0  0  0  0  0  0  0  0  0  0
  144.8007  147.8673  157.4233 C   0  0  0  0  0  0  0  0  0  0  0  0
  145.6159  149.1374  157.1983 C   0  0  0  0  0  0  0  0  0  0  0  0
  145.5949  149.7855  158.5793 C   0  0  0  0  0  0  0  0  0  0  0  0
  145.6080  148.5922  159.5411 C   0  0  0  0  0  0  0  0  0  0  0  0
  151.3584  142.5171  157.6404 C   0  0  0  0  0  0  0  0  0  0  0  0
  151.9779  141.1972  158.1503 C   0  0  2  0  0  0  0  0  0  0  0  0
  153.2025  141.4430  159.0382 C   0  0  0  0  0  0  0  0  0  0  0  0
  152.3905  140.4113  157.0373 O   0  0  0  0  0  0  0  0  0  0  0  0
  151.0690  138.8469  154.3864 H   0  0  0  0  0  0  0  0  0  0  0  0
  152.2925  138.2445  155.5002 H   0  0  0  0  0  0  0  0  0  0  0  0
  152.6359  139.6480  154.4925 H   0  0  0  0  0  0  0  0  0  0  0  0
  150.5600  139.5139  156.7373 H   0  0  0  0  0  0  0  0  0  0  0  0
  151.4537  141.8837  155.0037 H   0  0  0  0  0  0  0  0  0  0  0  0
  149.8795  141.1367  154.9186 H   0  0  0  0  0  0  0  0  0  0  0  0
  148.1407  142.2360  156.6959 H   0  0  0  0  0  0  0  0  0  0  0  0
  148.8721  140.7775  157.3063 H   0  0  0  0  0  0  0  0  0  0  0  0
  148.4430  141.6781  159.4229 H   0  0  0  0  0  0  0  0  0  0  0  0
  149.7641  142.7750  159.1029 H   0  0  0  0  0  0  0  0  0  0  0  0
  148.1924  144.4157  158.2842 H   0  0  0  0  0  0  0  0  0  0  0  0
  146.6064  145.4825  158.7389 H   0  0  0  0  0  0  0  0  0  0  0  0
  144.2144  143.2377  160.5446 H   0  0  0  0  0  0  0  0  0  0  0  0
  142.0028  144.0463  161.3163 H   0  0  0  0  0  0  0  0  0  0  0  0
  141.3451  146.4143  160.8246 H   0  0  0  0  0  0  0  0  0  0  0  0
  145.0427  147.0948  156.6926 H   0  0  0  0  0  0  0  0  0  0  0  0
  143.7383  148.0996  157.3396 H   0  0  0  0  0  0  0  0  0  0  0  0
  146.6400  148.8812  156.9226 H   0  0  0  0  0  0  0  0  0  0  0  0
  145.2016  149.7762  156.4178 H   0  0  0  0  0  0  0  0  0  0  0  0
  146.4271  150.4708  158.7421 H   0  0  0  0  0  0  0  0  0  0  0  0
  144.6681  150.3470  158.7047 H   0  0  0  0  0  0  0  0  0  0  0  0
  144.9925  148.7835  160.4214 H   0  0  0  0  0  0  0  0  0  0  0  0
  146.6269  148.3978  159.8765 H   0  0  0  0  0  0  0  0  0  0  0  0
  152.1245  143.0991  157.1259 H   0  0  0  0  0  0  0  0  0  0  0  0
  151.0235  143.1314  158.4755 H   0  0  0  0  0  0  0  0  0  0  0  0
  151.2469  140.6352  158.7330 H   0  0  0  0  0  0  0  0  0  0  0  0
  152.9393  142.0367  159.9141 H   0  0  0  0  0  0  0  0  0  0  0  0
  153.9848  141.9750  158.4958 H   0  0  0  0  0  0  0  0  0  0  0  0
  153.6233  140.5010  159.3907 H   0  0  0  0  0  0  0  0  0  0  0  0
  150.0580  143.1543  156.2298 H   0  0  0  0  0  0  0  0  0  0  0  0
  1  2  1  0  0  0  0
  1 26  1  0  0  0  0
  1 27  1  0  0  0  0
  1 28  1  0  0  0  0
  2 25  1  0  0  0  0
  2  3  1  0  0  0  0
  2 29  1  0  0  0  0
  3  4  1  0  0  0  0
  3 30  1  0  0  0  0
  3 31  1  0  0  0  0
  4  5  1  0  0  0  0
  4 22  1  0  0  0  0
  4 55  1  0  0  0  0
  5  6  1  0  0  0  0
  5 32  1  0  0  0  0
  5 33  1  0  0  0  0
  6  7  1  0  0  0  0
  6 34  1  0  0  0  0
  6 35  1  0  0  0  0
  7  8  1  0  0  0  0
  7 36  1  0  0  0  0
  8  9  2  0  0  0  0
  8 10  1  0  0  0  0
 10 11  1  0  0  0  0
 10 37  1  0  0  0  0
 11 16  1  0  0  0  0
 11 12  2  0  0  0  0
 12 13  1  0  0  0  0
 12 38  1  0  0  0  0
 13 14  2  0  0  0  0
 13 39  1  0  0  0  0
 14 15  1  0  0  0  0
 14 40  1  0  0  0  0
 15 16  2  0  0  0  0
 16 17  1  0  0  0  0
 17 21  1  0  0  0  0
 17 18  1  0  0  0  0
 18 19  1  0  0  0  0
 18 41  1  0  0  0  0
 18 42  1  0  0  0  0
 19 20  1  0  0  0  0
 19 43  1  0  0  0  0
 19 44  1  0  0  0  0
 20 21  1  0  0  0  0
 20 45  1  0  0  0  0
 20 46  1  0  0  0  0
 21 47  1  0  0  0  0
 21 48  1  0  0  0  0
 22 23  1  0  0  0  0
 22 49  1  0  0  0  0
 22 50  1  0  0  0  0
 23 24  1  0  0  0  0
 23 25  1  0  0  0  0
 23 51  1  0  0  0  0
 24 52  1  0  0  0  0
 24 53  1  0  0  0  0
 24 54  1  0  0  0  0
M  CHG  1   4   1
M  END
> <s_m_source_file>
AV-unprocessed.smi

> <i_m_source_file_index>
1244

> <i_lp_mmshare_version>
43012

> <i_f3d_flags>
0

> <s_epik_input>
W0NIM11bQ0BASF0xW0NIMl1OKFtDSDJdW0NASF0oTzEpW0NIM10pW0NIMl1bQ0gyXVtOSF1DKD1PKVtOSF1jMltjSF1bY0hdW2NIXW5jMk4zW0NIMl1bQ0gyXVtDSDJdW0NIMl0z

> <s_epik_cmdline>
J2VwaWtfcHl0aG9uJywgJy1waCcsICc3LjAnLCAnLXRuJywgJzgnLCAnLW1hJywgJzIwMCcsICctbWV0YWxfYmluZGluZycsICctaW1hZScsICc8aW5maWxlLm1hZT4nLCAnLW9tYWUnLCAnPG91dGZpbGUubWFlPic=

> <r_lp_tautomer_probability>
1

> <r_epik_Ionization_Penalty>
0.684913

> <r_epik_Ionization_Penalty_Charging>
0.602531

> <r_epik_Ionization_Penalty_Neutral>
0.0823829

> <r_epik_State_Penalty>
0.678827

> <r_epik_Charging_Adjusted_Penalty>
1.28136

> <i_epik_Tot_Q>
1

> <i_epik_Tot_abs_Q>
1

> <r_epik_Metal_State_Penalty>
0.67806

> <b_epik_Metal_Only>
0

> <s_lp_Force_Field>
OPLS_2005

> <r_lp_Energy>
44.826

> <b_lp_Chiralities_Consistent>
1

> <s_lp_Variant>
AV-unprocessed.smi:1244-6

> <Gold.Version>
5.8.1

> <Gold.Id.Protein>
6NUR|6NUR_protein|mol2

> <Gold.PLP.Fitness>
54.0700

> <Gold.PLP.PLP>
-37.8941

> <Gold.PLP.part.hbond>
-5.9534

> <Gold.PLP.part.metal>
0.0000

> <Gold.PLP.part.buried>
-0.6995

> <Gold.PLP.part.nonpolar>
-31.2248

> <Gold.PLP.part.repulsive>
0.3795

> <Gold.PLP.ligand.clash>
0.0000

> <Gold.PLP.ligand.torsion>
0.8209

> <Gold.PLP.Chemscore.Hbond>
5.8209

> <Gold.PLP.Chemscore.CHOScore>
0.0000

> <Gold.PLP.Chemscore.Metal>
0.0000

> <Gold.Chemscore.Hbonds>
donor molecule, donor type, donor heavy atom, donor atom, acceptor molecule, acceptor atom, score
      L1  H     4    55       P1  8028  1.98
      L1  H     7    36       P1  8029  1.00
      L1  H    10    37       P1  8029  0.93
      P1  H  6934  6946       L1     9  0.99
      P1  H  7997  8010       L1    25  0.92

> <Gold.PLP.Chemscore.Internal.Correction>
0.3550

> <Gold.Rescore>
     Score         DG    S(hbond)    S(metal)    S(lipo)     H(rot)  DE(clash)    DE(int)     intcor
     23.21     -28.67       4.26        0.00     111.55       1.60       3.37       2.10       ----

> <Gold.Chemscore.Fitness>
23.2100

> <Gold.Chemscore.DG>
-28.6739

> <Gold.Chemscore.ZeroCoef>
-5.4800

> <Gold.Chemscore.Hbond>
4.2615

> <Gold.Chemscore.Metal>
0.0000

> <Gold.Chemscore.Lipo>
111.5459

> <Gold.Chemscore.Internal_Hbond>
0.0000

> <Gold.Chemscore.DEClash>
3.3672

> <Gold.Chemscore.DEInternal>
2.0967

> <Gold.Chemscore.Rot>
1.5978

> <Gold.Chemscore.Internal.Correction>
   9.000000E+99

> <Gold.Chemscore.Hbonds>
donor molecule, donor type, donor heavy atom, donor atom, acceptor molecule, acceptor atom, score
      L1  H     4    55       P1  8028  0.91
      L1  H     7    36       P1  8029  0.58
      L1  H    10    37       P1  8029  0.88
      P1  H  6934  6946       L1     9  0.92
      P1  H  7997  8010       L1    25  0.82

> <Gold.Chemscore.Hbond.Weighted>
-14.2335

> <Gold.Chemscore.Metal.Weighted>
-0.0000

> <Gold.Chemscore.Lipo.Weighted>
-13.0509

> <Gold.Chemscore.Internal_Hbond.Weighted>
0.0000

> <Gold.Chemscore.DEClash.Weighted>
3.3672

> <Gold.Chemscore.DEInternal.Weighted>
2.0967

> <Gold.Chemscore.Rot.Weighted>
4.0905

> <Gold.Chemscore.Internal.Correction.Weighted>
   9.000000E+99

> <Gold.Protein.RotatedTorsions>
[ 6907 6896 6895 6894 ] final -176.66 input  -60.11 | X-H torsion
[ 7974 7965 7964 7962 ] final  105.78 input  175.53 | X-H torsion
[ 8008 7997 7996 7995 ] final   62.66 input   59.86 | X-H torsion
[ 10167 10162 10161 10158 ] final -129.65 input  -65.29 | X-H torsion
[ 10718 10713 10712 10709 ] final   34.70 input   66.30 | X-H torsion
[ 10763 10752 10751 10750 ] final -169.80 input  -60.55 | X-H torsion
[ 11005 11000 10999 10996 ] final   11.87 input  -57.11 | X-H torsion

> <Gold.Protein.ActiveResidues>
 VAL166  LYS551  ARG553  GLY616  TRP617  ASP618  TYR619  PRO620  LYS621  CYS622 
 ASP623  PHE694  ASN695  SER759  ASP760  ASP761  ALA762  ILE779  LEU786  VAL792 
 PHE793  MET794  SER795  GLU796  ALA797  LYS798  CYS799  TRP800  GLU811  SER814 

> <Gold.Protein.RotatedAtoms>
  151.6084  133.3349  159.3061 H   0  0  0  0  0  0  0  0  0  0  0  0  # atno 6907 bound_to 6896
  150.8170  134.7360  159.6750 H   0  0  0  0  0  0  0  0  0  0  0  0  # atno 6908 bound_to 6896
  152.4265  134.5863  160.0013 H   0  0  0  0  0  0  0  0  0  0  0  0  # atno 6909 bound_to 6896
  145.3151  139.2529  143.3742 H   0  0  0  0  0  0  0  0  0  0  0  0  # atno 7974 bound_to 7965
  155.6178  140.3495  155.4642 H   0  0  0  0  0  0  0  0  0  0  0  0  # atno 8008 bound_to 7997
  156.0103  140.1232  157.0484 H   0  0  0  0  0  0  0  0  0  0  0  0  # atno 8009 bound_to 7997
  154.4278  140.1083  156.5806 H   0  0  0  0  0  0  0  0  0  0  0  0  # atno 8010 bound_to 7997
  139.9376  143.6200  152.2512 H   0  0  0  0  0  0  0  0  0  0  0  0  # atno 10167 bound_to 10162
  157.3136  130.7412  149.6740 H   0  0  0  0  0  0  0  0  0  0  0  0  # atno 10718 bound_to 10713
  154.6484  135.2908  155.0018 H   0  0  0  0  0  0  0  0  0  0  0  0  # atno 10763 bound_to 10752
  154.1119  135.6561  153.4890 H   0  0  0  0  0  0  0  0  0  0  0  0  # atno 10764 bound_to 10752
  153.0363  135.5267  154.7381 H   0  0  0  0  0  0  0  0  0  0  0  0  # atno 10765 bound_to 10752
  140.4984  134.0770  155.7787 H   0  0  0  0  0  0  0  0  0  0  0  0  # atno 11005 bound_to 11000
  146.3103  140.3696  142.8673 LP  0  0  0  0  0  0  0  0  0  0  0  0  # atno 17320 bound_to 7965
  144.8984  140.7612  143.5882 LP  0  0  0  0  0  0  0  0  0  0  0  0  # atno 17321 bound_to 7965
  139.6731  144.7660  151.1746 LP  0  0  0  0  0  0  0  0  0  0  0  0  # atno 17342 bound_to 10162
  140.7620  143.5836  150.8869 LP  0  0  0  0  0  0  0  0  0  0  0  0  # atno 17343 bound_to 10162
  155.9680  130.4244  150.4607 LP  0  0  0  0  0  0  0  0  0  0  0  0  # atno 17370 bound_to 10713
  157.2609  131.0567  151.2320 LP  0  0  0  0  0  0  0  0  0  0  0  0  # atno 17371 bound_to 10713
  141.1448  133.9074  157.2241 LP  0  0  0  0  0  0  0  0  0  0  0  0  # atno 17394 bound_to 11000
  139.9728  135.0123  156.9555 LP  0  0  0  0  0  0  0  0  0  0  0  0  # atno 17395 bound_to 11000

$$$$
