AV-unprocessed.smi:1994|AV-procd|sdf|8072|dock1
  -GOLD-   2272010283D 1   1.00000     0.00000
 Structure written by MMmdl.
 39 41  0  0  0  0  0  0  0  0  1 V2000
  152.1751  138.4891  154.7398 C   0  0  0  0  0  0  0  0  0  0  0  0
  150.9562  139.3235  154.9752 C   0  0  0  0  0  0  0  0  0  0  0  0
  150.2264  139.8146  153.9734 N   0  0  0  0  0  0  0  0  0  0  0  0
  149.2341  140.5119  154.6351 C   0  0  0  0  0  0  0  0  0  0  0  0
  148.1459  141.2605  154.1320 C   0  0  0  0  0  0  0  0  0  0  0  0
  147.2487  141.8972  155.0145 C   0  0  0  0  0  0  0  0  0  0  0  0
  147.4250  141.7932  156.4096 C   0  0  0  0  0  0  0  0  0  0  0  0
  148.5013  141.0504  156.9318 C   0  0  0  0  0  0  0  0  0  0  0  0
  149.3952  140.4183  156.0469 C   0  0  0  0  0  0  0  0  0  0  0  0
  150.5289  139.6305  156.2245 N   0  0  0  0  0  0  0  0  0  0  0  0
  151.1201  139.2344  157.4957 C   0  0  0  0  0  0  0  0  0  0  0  0
  152.4406  139.9726  157.7957 C   0  0  2  0  0  0  0  0  0  0  0  0
  153.5034  139.0442  157.8811 O   0  0  0  0  0  0  0  0  0  0  0  0
  152.3841  140.7640  159.1103 C   0  0  0  0  0  0  0  0  0  0  0  0
  152.0859  142.1234  158.8203 O   0  0  0  0  0  0  0  0  0  0  0  0
  152.1086  143.0333  159.8561 C   0  0  0  0  0  0  0  0  0  0  0  0
  152.4260  142.7025  161.1984 C   0  0  0  0  0  0  0  0  0  0  0  0
  152.4282  143.6959  162.1970 C   0  0  0  0  0  0  0  0  0  0  0  0
  152.1135  145.0276  161.8698 C   0  0  0  0  0  0  0  0  0  0  0  0
  151.7969  145.3655  160.5413 C   0  0  0  0  0  0  0  0  0  0  0  0
  151.7956  144.3733  159.5416 C   0  0  0  0  0  0  0  0  0  0  0  0
  151.4894  144.7119  158.2663 F   0  0  0  0  0  0  0  0  0  0  0  0
  152.3295  138.3318  153.6717 H   0  0  0  0  0  0  0  0  0  0  0  0
  152.0689  137.5152  155.2167 H   0  0  0  0  0  0  0  0  0  0  0  0
  153.0572  138.9870  155.1429 H   0  0  0  0  0  0  0  0  0  0  0  0
  148.0021  141.3458  153.0650 H   0  0  0  0  0  0  0  0  0  0  0  0
  146.4213  142.4681  154.6190 H   0  0  0  0  0  0  0  0  0  0  0  0
  146.7334  142.2842  157.0786 H   0  0  0  0  0  0  0  0  0  0  0  0
  148.6375  140.9666  157.9997 H   0  0  0  0  0  0  0  0  0  0  0  0
  150.3948  139.4144  158.2895 H   0  0  0  0  0  0  0  0  0  0  0  0
  151.2854  138.1565  157.4808 H   0  0  0  0  0  0  0  0  0  0  0  0
  152.6730  140.6586  156.9808 H   0  0  0  0  0  0  0  0  0  0  0  0
  153.5469  138.7201  158.7679 H   0  0  0  0  0  0  0  0  0  0  0  0
  151.6295  140.3356  159.7725 H   0  0  0  0  0  0  0  0  0  0  0  0
  153.3504  140.7053  159.6143 H   0  0  0  0  0  0  0  0  0  0  0  0
  152.6734  141.6929  161.4891 H   0  0  0  0  0  0  0  0  0  0  0  0
  152.6726  143.4349  163.2163 H   0  0  0  0  0  0  0  0  0  0  0  0
  152.1151  145.7886  162.6363 H   0  0  0  0  0  0  0  0  0  0  0  0
  151.5550  146.3872  160.2875 H   0  0  0  0  0  0  0  0  0  0  0  0
  1  2  1  0  0  0  0
  1 23  1  0  0  0  0
  1 24  1  0  0  0  0
  1 25  1  0  0  0  0
  2 10  1  0  0  0  0
  2  3  2  0  0  0  0
  3  4  1  0  0  0  0
  4  9  2  0  0  0  0
  4  5  1  0  0  0  0
  5  6  2  0  0  0  0
  5 26  1  0  0  0  0
  6  7  1  0  0  0  0
  6 27  1  0  0  0  0
  7  8  2  0  0  0  0
  7 28  1  0  0  0  0
  8  9  1  0  0  0  0
  8 29  1  0  0  0  0
  9 10  1  0  0  0  0
 10 11  1  0  0  0  0
 11 12  1  0  0  0  0
 11 30  1  0  0  0  0
 11 31  1  0  0  0  0
 12 13  1  0  0  0  0
 12 14  1  0  0  0  0
 12 32  1  0  0  0  0
 13 33  1  0  0  0  0
 14 15  1  0  0  0  0
 14 34  1  0  0  0  0
 14 35  1  0  0  0  0
 15 16  1  0  0  0  0
 16 21  1  0  0  0  0
 16 17  2  0  0  0  0
 17 18  1  0  0  0  0
 17 36  1  0  0  0  0
 18 19  2  0  0  0  0
 18 37  1  0  0  0  0
 19 20  1  0  0  0  0
 19 38  1  0  0  0  0
 20 21  2  0  0  0  0
 20 39  1  0  0  0  0
 21 22  1  0  0  0  0
M  END
> <s_m_source_file>
AV-unprocessed.smi

> <i_m_source_file_index>
1994

> <i_lp_mmshare_version>
43012

> <i_f3d_flags>
0

> <s_epik_input>
W2NIXTFbY0hdW2NIXVtjSF1jKGMxMiluKGMobjIpW0NIM10pW0NIMl1bQ0BIXShbT0hdKVtDSDJdT2MzW2NIXVtjSF1bY0hdW2NIXWMzRg==

> <s_epik_cmdline>
J2VwaWtfcHl0aG9uJywgJy1waCcsICc3LjAnLCAnLXRuJywgJzgnLCAnLW1hJywgJzIwMCcsICctbWV0YWxfYmluZGluZycsICctaW1hZScsICc8aW5maWxlLm1hZT4nLCAnLW9tYWUnLCAnPG91dGZpbGUubWFlPic=

> <r_lp_tautomer_probability>
1

> <r_epik_Ionization_Penalty>
0.112614

> <r_epik_Ionization_Penalty_Charging>
0

> <r_epik_Ionization_Penalty_Neutral>
0.112614

> <r_epik_State_Penalty>
0.10231

> <r_epik_Charging_Adjusted_Penalty>
0.10231

> <i_epik_Tot_Q>
0

> <i_epik_Tot_abs_Q>
0

> <r_epik_Metal_State_Penalty>
0.000111664

> <b_epik_Metal_Only>
0

> <s_lp_Force_Field>
OPLS_2005

> <r_lp_Energy>
14.6988

> <b_lp_Chiralities_Consistent>
1

> <s_lp_Variant>
AV-unprocessed.smi:1994-1

> <Gold.Version>
5.8.1

> <Gold.Id.Protein>
6NUR|6NUR_protein|mol2

> <Gold.PLP.Fitness>
48.7101

> <Gold.PLP.PLP>
-46.8535

> <Gold.PLP.part.hbond>
-2.0000

> <Gold.PLP.part.metal>
0.0000

> <Gold.PLP.part.buried>
-2.1014

> <Gold.PLP.part.nonpolar>
-44.0435

> <Gold.PLP.part.repulsive>
1.7301

> <Gold.PLP.ligand.clash>
0.0000

> <Gold.PLP.ligand.torsion>
1.4318

> <Gold.PLP.Chemscore.Hbond>
1.5500

> <Gold.PLP.Chemscore.CHOScore>
0.0000

> <Gold.PLP.Chemscore.Metal>
0.0000

> <Gold.Chemscore.Hbonds>
donor molecule, donor type, donor heavy atom, donor atom, acceptor molecule, acceptor atom, score
      P1  H  7989  7998       L1     3  0.50
      P1  H  7997  8008       L1    13  0.99

> <Gold.PLP.Chemscore.Internal.Correction>
0.0702

> <Gold.Rescore>
     Score         DG    S(hbond)    S(metal)    S(lipo)     H(rot)  DE(clash)    DE(int)     intcor
     12.91     -16.19       0.55        0.00     123.71       2.19       1.95       1.33       ----

> <Gold.Chemscore.Fitness>
12.9056

> <Gold.Chemscore.DG>
-16.1851

> <Gold.Chemscore.ZeroCoef>
-5.4800

> <Gold.Chemscore.Hbond>
0.5490

> <Gold.Chemscore.Metal>
0.0000

> <Gold.Chemscore.Lipo>
123.7132

> <Gold.Chemscore.Internal_Hbond>
0.0000

> <Gold.Chemscore.DEClash>
1.9529

> <Gold.Chemscore.DEInternal>
1.3266

> <Gold.Chemscore.Rot>
2.1886

> <Gold.Chemscore.Internal.Correction>
   9.000000E+99

> <Gold.Chemscore.Hbonds>
donor molecule, donor type, donor heavy atom, donor atom, acceptor molecule, acceptor atom, score
      P1  H  7989  7998       L1     3  0.02
      P1  H  7997  8008       L1    13  0.27

> <Gold.Chemscore.Hbond.Weighted>
-1.8335

> <Gold.Chemscore.Metal.Weighted>
-0.0000

> <Gold.Chemscore.Lipo.Weighted>
-14.4744

> <Gold.Chemscore.Internal_Hbond.Weighted>
0.0000

> <Gold.Chemscore.DEClash.Weighted>
1.9529

> <Gold.Chemscore.DEInternal.Weighted>
1.3266

> <Gold.Chemscore.Rot.Weighted>
5.6028

> <Gold.Chemscore.Internal.Correction.Weighted>
   9.000000E+99

> <Gold.Protein.RotatedTorsions>
[ 6907 6896 6895 6894 ] final  -88.00 input  -60.11 | X-H torsion
[ 7974 7965 7964 7962 ] final  118.63 input  175.53 | X-H torsion
[ 8008 7997 7996 7995 ] final -106.09 input   59.86 | X-H torsion
[ 10167 10162 10161 10158 ] final    0.89 input  -65.29 | X-H torsion
[ 10718 10713 10712 10709 ] final   97.52 input   66.30 | X-H torsion
[ 10763 10752 10751 10750 ] final  -54.08 input  -60.55 | X-H torsion
[ 11005 11000 10999 10996 ] final   71.36 input  -57.11 | X-H torsion

> <Gold.Protein.ActiveResidues>
 VAL166  LYS551  ARG553  GLY616  TRP617  ASP618  TYR619  PRO620  LYS621  CYS622 
 ASP623  PHE694  ASN695  SER759  ASP760  ASP761  ALA762  ILE779  LEU786  VAL792 
 PHE793  MET794  SER795  GLU796  ALA797  LYS798  CYS799  TRP800  GLU811  SER814 

> <Gold.Protein.RotatedAtoms>
  150.6867  134.2809  159.4626 H   0  0  0  0  0  0  0  0  0  0  0  0  # atno 6907 bound_to 6896
  152.0723  134.9523  160.0583 H   0  0  0  0  0  0  0  0  0  0  0  0  # atno 6908 bound_to 6896
  152.0908  133.4165  159.4580 H   0  0  0  0  0  0  0  0  0  0  0  0  # atno 6909 bound_to 6896
  145.1528  139.3200  143.4557 H   0  0  0  0  0  0  0  0  0  0  0  0  # atno 7974 bound_to 7965
  154.9094  140.0410  157.1938 H   0  0  0  0  0  0  0  0  0  0  0  0  # atno 8008 bound_to 7997
  154.8363  140.2907  155.5667 H   0  0  0  0  0  0  0  0  0  0  0  0  # atno 8009 bound_to 7997
  156.2990  140.2491  156.3297 H   0  0  0  0  0  0  0  0  0  0  0  0  # atno 8010 bound_to 7997
  140.6708  143.7054  150.7919 H   0  0  0  0  0  0  0  0  0  0  0  0  # atno 10167 bound_to 10162
  157.6911  131.0612  150.4656 H   0  0  0  0  0  0  0  0  0  0  0  0  # atno 10718 bound_to 10713
  154.1691  135.6462  153.5005 H   0  0  0  0  0  0  0  0  0  0  0  0  # atno 10763 bound_to 10752
  153.0089  135.5379  154.6631 H   0  0  0  0  0  0  0  0  0  0  0  0  # atno 10764 bound_to 10752
  154.5966  135.2939  155.0552 H   0  0  0  0  0  0  0  0  0  0  0  0  # atno 10765 bound_to 10752
  139.9548  134.7164  156.0779 H   0  0  0  0  0  0  0  0  0  0  0  0  # atno 11005 bound_to 11000
  146.3492  140.1609  142.8591 LP  0  0  0  0  0  0  0  0  0  0  0  0  # atno 17320 bound_to 7965
  145.0412  140.8947  143.5051 LP  0  0  0  0  0  0  0  0  0  0  0  0  # atno 17321 bound_to 7965
  140.0739  143.5034  152.2565 LP  0  0  0  0  0  0  0  0  0  0  0  0  # atno 17342 bound_to 10162
  139.5975  144.7572  151.3250 LP  0  0  0  0  0  0  0  0  0  0  0  0  # atno 17343 bound_to 10162
  156.4997  130.4114  149.6360 LP  0  0  0  0  0  0  0  0  0  0  0  0  # atno 17370 bound_to 10713
  156.3340  130.7346  151.2281 LP  0  0  0  0  0  0  0  0  0  0  0  0  # atno 17371 bound_to 10713
  141.1217  133.6611  156.3232 LP  0  0  0  0  0  0  0  0  0  0  0  0  # atno 17394 bound_to 11000
  140.5635  134.5910  157.5440 LP  0  0  0  0  0  0  0  0  0  0  0  0  # atno 17395 bound_to 11000

$$$$
