AV-unprocessed.smi:1748|AV-procd|sdf|7036|dock10
  -GOLD-   22720 8253D 1   1.00000     0.00000
 Structure written by MMmdl.
 40 41  0  0  0  0  0  0  0  0  2 V2000
  143.7832  132.2812  150.5292 C   0  0  0  0  0  0  0  0  0  0  0  0
  144.7701  132.2484  151.6300 N   0  3  1  0  0  0  0  0  0  0  0  0
  145.7144  131.1095  151.5099 C   0  0  0  0  0  0  0  0  0  0  0  0
  146.6410  131.0308  152.7347 C   0  0  0  0  0  0  0  0  0  0  0  0
  147.3917  132.3532  152.9451 C   0  0  0  0  0  0  0  0  0  0  0  0
  146.3948  133.5202  153.0343 C   0  0  1  0  0  0  0  0  0  0  0  0
  147.1174  134.7812  153.1703 N   0  0  0  0  0  0  0  0  0  0  0  0
  147.0836  135.5772  154.2485 C   0  0  0  0  0  0  0  0  0  0  0  0
  146.4144  135.3241  155.2498 O   0  0  0  0  0  0  0  0  0  0  0  0
  147.8495  136.6682  154.0646 N   0  0  0  0  0  0  0  0  0  0  0  0
  148.1124  137.7295  154.9473 C   0  0  0  0  0  0  0  0  0  0  0  0
  149.3225  138.3272  155.1058 C   0  0  0  0  0  0  0  0  0  0  0  0
  149.5219  139.4321  156.0294 C   0  0  0  0  0  0  0  0  0  0  0  0
  150.8643  140.1356  156.1587 C   0  0  0  0  0  0  0  0  0  0  0  0
  151.7750  139.5831  155.3560 F   0  0  0  0  0  0  0  0  0  0  0  0
  150.7377  141.4179  155.8207 F   0  0  0  0  0  0  0  0  0  0  0  0
  151.3205  140.0784  157.4101 F   0  0  0  0  0  0  0  0  0  0  0  0
  148.4361  139.8550  156.7025 C   0  0  0  0  0  0  0  0  0  0  0  0
  147.1894  139.2451  156.5468 N   0  0  0  0  0  0  0  0  0  0  0  0
  146.9490  138.2099  155.7113 C   0  0  0  0  0  0  0  0  0  0  0  0
  145.8190  137.7300  155.6254 O   0  0  0  0  0  0  0  0  0  0  0  0
  145.4780  133.5425  151.7924 C   0  0  0  0  0  0  0  0  0  0  0  0
  146.4258  139.6146  157.0948 H   0  0  0  0  0  0  0  0  0  0  0  0
  144.2738  132.4399  149.5680 H   0  0  0  0  0  0  0  0  0  0  0  0
  143.0621  133.0847  150.6824 H   0  0  0  0  0  0  0  0  0  0  0  0
  143.2292  131.3433  150.4806 H   0  0  0  0  0  0  0  0  0  0  0  0
  145.1545  130.1781  151.4169 H   0  0  0  0  0  0  0  0  0  0  0  0
  146.3044  131.2178  150.5983 H   0  0  0  0  0  0  0  0  0  0  0  0
  146.0536  130.7981  153.6241 H   0  0  0  0  0  0  0  0  0  0  0  0
  147.3527  130.2140  152.6121 H   0  0  0  0  0  0  0  0  0  0  0  0
  147.9944  132.2985  153.8527 H   0  0  0  0  0  0  0  0  0  0  0  0
  148.0850  132.5149  152.1181 H   0  0  0  0  0  0  0  0  0  0  0  0
  145.7800  133.3730  153.9248 H   0  0  0  0  0  0  0  0  0  0  0  0
  147.6903  135.0652  152.3888 H   0  0  0  0  0  0  0  0  0  0  0  0
  148.2791  136.7665  153.1561 H   0  0  0  0  0  0  0  0  0  0  0  0
  150.1779  138.0075  154.5339 H   0  0  0  0  0  0  0  0  0  0  0  0
  148.4358  140.6821  157.3971 H   0  0  0  0  0  0  0  0  0  0  0  0
  146.0591  133.7553  150.8933 H   0  0  0  0  0  0  0  0  0  0  0  0
  144.7408  134.3408  151.8894 H   0  0  0  0  0  0  0  0  0  0  0  0
  144.2454  132.1000  152.4803 H   0  0  0  0  0  0  0  0  0  0  0  0
  1  2  1  0  0  0  0
  1 24  1  0  0  0  0
  1 25  1  0  0  0  0
  1 26  1  0  0  0  0
  2 22  1  0  0  0  0
  2  3  1  0  0  0  0
  2 40  1  0  0  0  0
  3  4  1  0  0  0  0
  3 27  1  0  0  0  0
  3 28  1  0  0  0  0
  4  5  1  0  0  0  0
  4 29  1  0  0  0  0
  4 30  1  0  0  0  0
  5  6  1  0  0  0  0
  5 31  1  0  0  0  0
  5 32  1  0  0  0  0
  6  7  1  0  0  0  0
  6 22  1  0  0  0  0
  6 33  1  0  0  0  0
  7  8  1  0  0  0  0
  7 34  1  0  0  0  0
  8  9  2  0  0  0  0
  8 10  1  0  0  0  0
 10 11  1  0  0  0  0
 10 35  1  0  0  0  0
 11 20  1  0  0  0  0
 11 12  2  0  0  0  0
 12 13  1  0  0  0  0
 12 36  1  0  0  0  0
 13 14  1  0  0  0  0
 13 18  2  0  0  0  0
 14 15  1  0  0  0  0
 14 16  1  0  0  0  0
 14 17  1  0  0  0  0
 18 19  1  0  0  0  0
 18 37  1  0  0  0  0
 19 23  1  0  0  0  0
 19 20  1  0  0  0  0
 20 21  2  0  0  0  0
 22 38  1  0  0  0  0
 22 39  1  0  0  0  0
M  CHG  1   2   1
M  END
> <s_m_source_file>
AV-unprocessed.smi

> <i_m_source_file_index>
1748

> <i_lp_mmshare_version>
43012

> <i_f3d_flags>
0

> <s_epik_input>
W0NIM11OMVtDSDJdW0NIMl1bQ0gyXVtDQEhdKFtDSDJdMSlbTkhdQyg9TylbTkhdYzJbY0hdYyhDKEYpKEYpRilbY0hdW25IXWMyPU8=

> <s_epik_cmdline>
J2VwaWtfcHl0aG9uJywgJy1waCcsICc3LjAnLCAnLXRuJywgJzgnLCAnLW1hJywgJzIwMCcsICctbWV0YWxfYmluZGluZycsICctaW1hZScsICc8aW5maWxlLm1hZT4nLCAnLW9tYWUnLCAnPG91dGZpbGUubWFlPic=

> <r_lp_tautomer_probability>
1

> <r_epik_Ionization_Penalty>
0.00746315

> <r_epik_Ionization_Penalty_Charging>
0.00744398

> <r_epik_Ionization_Penalty_Neutral>
1.91704e-05

> <r_epik_State_Penalty>
-0

> <r_epik_Charging_Adjusted_Penalty>
0.00744398

> <i_epik_Tot_Q>
1

> <i_epik_Tot_abs_Q>
1

> <r_epik_Metal_State_Penalty>
0.379332

> <b_epik_Metal_Only>
0

> <s_lp_Force_Field>
OPLS_2005

> <r_lp_Energy>
25.304

> <b_lp_Chiralities_Consistent>
1

> <s_lp_Variant>
AV-unprocessed.smi:1748-1

> <Gold.Version>
5.8.1

> <Gold.Id.Protein>
6NUR|6NUR_protein|mol2

> <Gold.PLP.Fitness>
32.4977

> <Gold.PLP.PLP>
-27.4923

> <Gold.PLP.part.hbond>
-1.8445

> <Gold.PLP.part.metal>
0.0000

> <Gold.PLP.part.buried>
-2.5695

> <Gold.PLP.part.nonpolar>
-22.1348

> <Gold.PLP.part.repulsive>
0.0806

> <Gold.PLP.ligand.clash>
0.0000

> <Gold.PLP.ligand.torsion>
0.3574

> <Gold.PLP.Chemscore.Hbond>
1.8960

> <Gold.PLP.Chemscore.CHOScore>
0.0000

> <Gold.PLP.Chemscore.Metal>
0.0000

> <Gold.Chemscore.Hbonds>
donor molecule, donor type, donor heavy atom, donor atom, acceptor molecule, acceptor atom, score
      L1  H     7    34       P1  7948  0.91
      L1  H    10    35       P1  7948  1.00

> <Gold.PLP.Chemscore.Internal.Correction>
0.0322

> <Gold.Rescore>
     Score         DG    S(hbond)    S(metal)    S(lipo)     H(rot)  DE(clash)    DE(int)     intcor
     14.57     -15.31       1.89        0.00      51.89       1.00       0.03       0.72       ----

> <Gold.Chemscore.Fitness>
14.5681

> <Gold.Chemscore.DG>
-15.3135

> <Gold.Chemscore.ZeroCoef>
-5.4800

> <Gold.Chemscore.Hbond>
1.8930

> <Gold.Chemscore.Metal>
0.0000

> <Gold.Chemscore.Lipo>
51.8878

> <Gold.Chemscore.Internal_Hbond>
0.0000

> <Gold.Chemscore.DEClash>
0.0261

> <Gold.Chemscore.DEInternal>
0.7194

> <Gold.Chemscore.Rot>
1.0000

> <Gold.Chemscore.Internal.Correction>
   9.000000E+99

> <Gold.Chemscore.Hbonds>
donor molecule, donor type, donor heavy atom, donor atom, acceptor molecule, acceptor atom, score
      L1  H     7    34       P1  7948  0.87
      L1  H    10    35       P1  7948  0.93

> <Gold.Chemscore.Hbond.Weighted>
-6.3226

> <Gold.Chemscore.Metal.Weighted>
-0.0000

> <Gold.Chemscore.Lipo.Weighted>
-6.0709

> <Gold.Chemscore.Internal_Hbond.Weighted>
0.0000

> <Gold.Chemscore.DEClash.Weighted>
0.0261

> <Gold.Chemscore.DEInternal.Weighted>
0.7194

> <Gold.Chemscore.Rot.Weighted>
2.5600

> <Gold.Chemscore.Internal.Correction.Weighted>
   9.000000E+99

> <Gold.Protein.RotatedTorsions>
[ 6907 6896 6895 6894 ] final   84.08 input  -60.11 | X-H torsion
[ 7974 7965 7964 7962 ] final   -6.84 input  175.53 | X-H torsion
[ 8008 7997 7996 7995 ] final  -34.87 input   59.86 | X-H torsion
[ 10167 10162 10161 10158 ] final   67.38 input  -65.29 | X-H torsion
[ 10718 10713 10712 10709 ] final  -23.86 input   66.30 | X-H torsion
[ 10763 10752 10751 10750 ] final  141.93 input  -60.55 | X-H torsion
[ 11005 11000 10999 10996 ] final  -81.22 input  -57.11 | X-H torsion

> <Gold.Protein.ActiveResidues>
 VAL166  LYS551  ARG553  GLY616  TRP617  ASP618  TYR619  PRO620  LYS621  CYS622 
 ASP623  PHE694  ASN695  SER759  ASP760  ASP761  ALA762  ILE779  LEU786  VAL792 
 PHE793  MET794  SER795  GLU796  ALA797  LYS798  CYS799  TRP800  GLU811  SER814 

> <Gold.Protein.RotatedAtoms>
  152.5343  134.2795  159.9001 H   0  0  0  0  0  0  0  0  0  0  0  0  # atno 6907 bound_to 6896
  151.2750  133.4230  159.2631 H   0  0  0  0  0  0  0  0  0  0  0  0  # atno 6908 bound_to 6896
  151.0334  134.9571  159.8180 H   0  0  0  0  0  0  0  0  0  0  0  0  # atno 6909 bound_to 6896
  146.2321  140.2230  142.8338 H   0  0  0  0  0  0  0  0  0  0  0  0  # atno 7974 bound_to 7965
  154.4109  140.1672  156.2119 H   0  0  0  0  0  0  0  0  0  0  0  0  # atno 8008 bound_to 7997
  155.9437  140.3406  155.6325 H   0  0  0  0  0  0  0  0  0  0  0  0  # atno 8009 bound_to 7997
  155.6957  140.0739  157.2421 H   0  0  0  0  0  0  0  0  0  0  0  0  # atno 8010 bound_to 7997
  140.0902  144.4995  150.7104 H   0  0  0  0  0  0  0  0  0  0  0  0  # atno 10167 bound_to 10162
  156.4854  130.4554  149.6786 H   0  0  0  0  0  0  0  0  0  0  0  0  # atno 10718 bound_to 10713
  153.9475  135.2973  155.3440 H   0  0  0  0  0  0  0  0  0  0  0  0  # atno 10763 bound_to 10752
  154.7444  135.5009  153.9182 H   0  0  0  0  0  0  0  0  0  0  0  0  # atno 10764 bound_to 10752
  153.1011  135.6734  153.9779 H   0  0  0  0  0  0  0  0  0  0  0  0  # atno 10765 bound_to 10752
  141.1667  133.7186  156.8390 H   0  0  0  0  0  0  0  0  0  0  0  0  # atno 11005 bound_to 11000
  144.9617  140.8282  143.5509 LP  0  0  0  0  0  0  0  0  0  0  0  0  # atno 17320 bound_to 7965
  145.2201  139.2163  143.5097 LP  0  0  0  0  0  0  0  0  0  0  0  0  # atno 17321 bound_to 7965
  140.7033  143.2450  151.4802 LP  0  0  0  0  0  0  0  0  0  0  0  0  # atno 17342 bound_to 10162
  139.5729  144.1886  152.1862 LP  0  0  0  0  0  0  0  0  0  0  0  0  # atno 17343 bound_to 10162
  156.3479  130.7417  151.2372 LP  0  0  0  0  0  0  0  0  0  0  0  0  # atno 17370 bound_to 10713
  157.7479  131.0385  150.4507 LP  0  0  0  0  0  0  0  0  0  0  0  0  # atno 17371 bound_to 10713
  140.1997  134.8906  157.3155 LP  0  0  0  0  0  0  0  0  0  0  0  0  # atno 17394 bound_to 11000
  140.2201  134.4034  155.7570 LP  0  0  0  0  0  0  0  0  0  0  0  0  # atno 17395 bound_to 11000

$$$$
