AV-unprocessed.smi:2344|AV-procd|sdf|9358|dock10
  -GOLD-   2272012583D 1   1.00000     0.00000
 Structure written by MMmdl.
 35 36  0  0  0  0  0  0  0  0  1 V2000
  151.0190  142.1446  156.3947 C   0  0  0  0  0  0  0  0  0  0  0  0
  150.2418  141.1158  155.6009 C   0  0  0  0  0  0  0  0  0  0  0  0
  150.8073  139.8676  155.2789 C   0  0  0  0  0  0  0  0  0  0  0  0
  150.0413  138.9463  154.5390 C   0  0  0  0  0  0  0  0  0  0  0  0
  148.7303  139.2924  154.1402 C   0  0  0  0  0  0  0  0  0  0  0  0
  148.0455  138.2947  153.3969 N   0  0  0  0  0  0  0  0  0  0  0  0
  146.7261  138.0374  153.3675 C   0  0  0  0  0  0  0  0  0  0  0  0
  145.8656  138.6455  154.0047 O   0  0  0  0  0  0  0  0  0  0  0  0
  146.4508  137.0144  152.5458 N   0  0  0  0  0  0  0  0  0  0  0  0
  145.1175  136.4760  152.3023 C   0  0  1  0  0  0  0  0  0  0  0  0
  144.8626  136.3479  150.8259 C   0  0  0  0  0  0  0  0  0  0  0  0
  144.6015  135.0964  150.4555 C   0  0  0  0  0  0  0  0  0  0  0  0
  144.6519  134.1222  151.6031 C   0  0  2  0  0  0  0  0  0  0  0  0
  143.3527  133.3099  151.7276 C   0  0  0  0  0  0  0  0  0  0  0  0
  143.0314  132.7091  150.4910 O   0  0  0  0  0  0  0  0  0  0  0  0
  144.9499  135.0262  152.8282 C   0  0  0  0  0  0  0  0  0  0  0  0
  148.1934  140.4967  154.4582 N   0  0  0  0  0  0  0  0  0  0  0  0
  148.9280  141.3790  155.1673 C   0  0  0  0  0  0  0  0  0  0  0  0
  144.3599  137.1350  152.7300 H   0  0  0  0  0  0  0  0  0  0  0  0
  145.4916  133.4497  151.4233 H   0  0  0  0  0  0  0  0  0  0  0  0
  152.0931  141.9839  156.2972 H   0  0  0  0  0  0  0  0  0  0  0  0
  150.7558  142.0820  157.4509 H   0  0  0  0  0  0  0  0  0  0  0  0
  150.7943  143.1520  156.0428 H   0  0  0  0  0  0  0  0  0  0  0  0
  151.8104  139.6167  155.5914 H   0  0  0  0  0  0  0  0  0  0  0  0
  150.4609  137.9846  154.2821 H   0  0  0  0  0  0  0  0  0  0  0  0
  148.6289  137.7072  152.8202 H   0  0  0  0  0  0  0  0  0  0  0  0
  147.2168  136.5698  152.0619 H   0  0  0  0  0  0  0  0  0  0  0  0
  144.8843  137.1999  150.1623 H   0  0  0  0  0  0  0  0  0  0  0  0
  144.3901  134.7808  149.4445 H   0  0  0  0  0  0  0  0  0  0  0  0
  143.4458  132.5379  152.4923 H   0  0  0  0  0  0  0  0  0  0  0  0
  142.5258  133.9576  152.0204 H   0  0  0  0  0  0  0  0  0  0  0  0
  142.2740  133.1459  150.1324 H   0  0  0  0  0  0  0  0  0  0  0  0
  145.8392  134.6733  153.3524 H   0  0  0  0  0  0  0  0  0  0  0  0
  144.1330  134.9925  153.5499 H   0  0  0  0  0  0  0  0  0  0  0  0
  148.4517  142.3214  155.3940 H   0  0  0  0  0  0  0  0  0  0  0  0
  1  2  1  0  0  0  0
  1 21  1  0  0  0  0
  1 22  1  0  0  0  0
  1 23  1  0  0  0  0
  2 18  1  0  0  0  0
  2  3  2  0  0  0  0
  3  4  1  0  0  0  0
  3 24  1  0  0  0  0
  4  5  2  0  0  0  0
  4 25  1  0  0  0  0
  5  6  1  0  0  0  0
  5 17  1  0  0  0  0
  6  7  1  0  0  0  0
  6 26  1  0  0  0  0
  7  8  2  0  0  0  0
  7  9  1  0  0  0  0
  9 10  1  0  0  0  0
  9 27  1  0  0  0  0
 10 19  1  0  0  0  0
 10 16  1  0  0  0  0
 10 11  1  0  0  0  0
 11 12  2  0  0  0  0
 11 28  1  0  0  0  0
 12 13  1  0  0  0  0
 12 29  1  0  0  0  0
 13 20  1  0  0  0  0
 13 14  1  0  0  0  0
 13 16  1  0  0  0  0
 14 15  1  0  0  0  0
 14 30  1  0  0  0  0
 14 31  1  0  0  0  0
 15 32  1  0  0  0  0
 16 33  1  0  0  0  0
 16 34  1  0  0  0  0
 17 18  2  0  0  0  0
 18 35  1  0  0  0  0
M  END
> <s_m_source_file>
AV-unprocessed.smi

> <i_m_source_file_index>
2344

> <i_lp_mmshare_version>
43012

> <i_f3d_flags>
0

> <s_epik_input>
W0NIM11jMVtjSF1bY0hdYyhuW2NIXTEpW05IXUMoPU8pW05IXVtDQEBIXTJbQ0hdPVtDSF1bQ0BASF0oW0NIMl0yKVtDSDJdW09IXQ==

> <s_epik_cmdline>
J2VwaWtfcHl0aG9uJywgJy1waCcsICc3LjAnLCAnLXRuJywgJzgnLCAnLW1hJywgJzIwMCcsICctbWV0YWxfYmluZGluZycsICctaW1hZScsICc8aW5maWxlLm1hZT4nLCAnLW9tYWUnLCAnPG91dGZpbGUubWFlPic=

> <r_lp_tautomer_probability>
1

> <r_epik_Ionization_Penalty>
5.7643e-05

> <r_epik_Ionization_Penalty_Charging>
0

> <r_epik_Ionization_Penalty_Neutral>
5.7643e-05

> <r_epik_State_Penalty>
-0

> <r_epik_Charging_Adjusted_Penalty>
0

> <i_epik_Tot_Q>
0

> <i_epik_Tot_abs_Q>
0

> <r_epik_Metal_State_Penalty>
-0

> <b_epik_Metal_Only>
0

> <s_lp_Force_Field>
OPLS_2005

> <r_lp_Energy>
17.6743

> <b_lp_Chiralities_Consistent>
1

> <s_lp_Variant>
AV-unprocessed.smi:2344-2

> <Gold.Version>
5.8.1

> <Gold.Id.Protein>
6NUR|6NUR_protein|mol2

> <Gold.PLP.Fitness>
41.5323

> <Gold.PLP.PLP>
-30.1540

> <Gold.PLP.part.hbond>
-3.3986

> <Gold.PLP.part.metal>
0.0000

> <Gold.PLP.part.buried>
-0.2705

> <Gold.PLP.part.nonpolar>
-26.1357

> <Gold.PLP.part.repulsive>
0.3253

> <Gold.PLP.ligand.clash>
0.0000

> <Gold.PLP.ligand.torsion>
0.3177

> <Gold.PLP.Chemscore.Hbond>
3.0000

> <Gold.PLP.Chemscore.CHOScore>
1.0000

> <Gold.PLP.Chemscore.Metal>
0.0000

> <Gold.Chemscore.Hbonds>
donor molecule, donor type, donor heavy atom, donor atom, acceptor molecule, acceptor atom, score
      L1  H     6    26       P1  7948  1.00
      L1  H     9    27       P1  7948  1.00
      L1  H    15    32       P1 10186  1.00
      L1  C    18    35       P1  8028  1.00

> <Gold.PLP.Chemscore.Internal.Correction>
0.0137

> <Gold.Rescore>
     Score         DG    S(hbond)    S(metal)    S(lipo)     H(rot)  DE(clash)    DE(int)     intcor
     16.31     -18.84       2.95        0.00      69.79       1.82       1.33       1.20       ----

> <Gold.Chemscore.Fitness>
16.3129

> <Gold.Chemscore.DG>
-18.8407

> <Gold.Chemscore.ZeroCoef>
-5.4800

> <Gold.Chemscore.Hbond>
2.9491

> <Gold.Chemscore.Metal>
0.0000

> <Gold.Chemscore.Lipo>
69.7916

> <Gold.Chemscore.Internal_Hbond>
0.0000

> <Gold.Chemscore.DEClash>
1.3269

> <Gold.Chemscore.DEInternal>
1.2009

> <Gold.Chemscore.Rot>
1.8184

> <Gold.Chemscore.Internal.Correction>
   9.000000E+99

> <Gold.Chemscore.Hbonds>
donor molecule, donor type, donor heavy atom, donor atom, acceptor molecule, acceptor atom, score
      L1  H     6    26       P1  7948  0.98
      L1  H     9    27       P1  7948  0.97
      L1  H    15    32       P1 10186  1.00

> <Gold.Chemscore.Hbond.Weighted>
-9.8502

> <Gold.Chemscore.Metal.Weighted>
-0.0000

> <Gold.Chemscore.Lipo.Weighted>
-8.1656

> <Gold.Chemscore.Internal_Hbond.Weighted>
0.0000

> <Gold.Chemscore.DEClash.Weighted>
1.3269

> <Gold.Chemscore.DEInternal.Weighted>
1.2009

> <Gold.Chemscore.Rot.Weighted>
4.6551

> <Gold.Chemscore.Internal.Correction.Weighted>
   9.000000E+99

> <Gold.Protein.RotatedTorsions>
[ 6907 6896 6895 6894 ] final  164.71 input  -60.11 | X-H torsion
[ 7974 7965 7964 7962 ] final   27.04 input  175.53 | X-H torsion
[ 8008 7997 7996 7995 ] final  -43.35 input   59.86 | X-H torsion
[ 10167 10162 10161 10158 ] final  119.50 input  -65.29 | X-H torsion
[ 10718 10713 10712 10709 ] final -120.52 input   66.30 | X-H torsion
[ 10763 10752 10751 10750 ] final -147.08 input  -60.55 | X-H torsion
[ 11005 11000 10999 10996 ] final   99.07 input  -57.11 | X-H torsion

> <Gold.Protein.ActiveResidues>
 VAL166  LYS551  ARG553  GLY616  TRP617  ASP618  TYR619  PRO620  LYS621  CYS622 
 ASP623  PHE694  ASN695  SER759  ASP760  ASP761  ALA762  ILE779  LEU786  VAL792 
 PHE793  MET794  SER795  GLU796  ALA797  LYS798  CYS799  TRP800  GLU811  SER814 

> <Gold.Protein.RotatedAtoms>
  151.9057  133.3548  159.3845 H   0  0  0  0  0  0  0  0  0  0  0  0  # atno 6907 bound_to 6896
  150.7070  134.4783  159.5467 H   0  0  0  0  0  0  0  0  0  0  0  0  # atno 6908 bound_to 6896
  152.2380  134.8257  160.0515 H   0  0  0  0  0  0  0  0  0  0  0  0  # atno 6909 bound_to 6896
  146.1805  139.7246  142.8903 H   0  0  0  0  0  0  0  0  0  0  0  0  # atno 7974 bound_to 7965
  154.3997  140.1450  156.3504 H   0  0  0  0  0  0  0  0  0  0  0  0  # atno 8008 bound_to 7997
  155.8274  140.3467  155.5530 H   0  0  0  0  0  0  0  0  0  0  0  0  # atno 8009 bound_to 7997
  155.8224  140.0900  157.1831 H   0  0  0  0  0  0  0  0  0  0  0  0  # atno 8010 bound_to 7997
  139.6042  144.7065  151.2992 H   0  0  0  0  0  0  0  0  0  0  0  0  # atno 10167 bound_to 10162
  156.1265  130.6363  150.9551 H   0  0  0  0  0  0  0  0  0  0  0  0  # atno 10718 bound_to 10713
  154.8304  135.3369  154.6763 H   0  0  0  0  0  0  0  0  0  0  0  0  # atno 10763 bound_to 10752
  153.7383  135.6947  153.4977 H   0  0  0  0  0  0  0  0  0  0  0  0  # atno 10764 bound_to 10752
  153.2262  135.4432  155.0496 H   0  0  0  0  0  0  0  0  0  0  0  0  # atno 10765 bound_to 10752
  139.8771  134.9079  156.4551 H   0  0  0  0  0  0  0  0  0  0  0  0  # atno 11005 bound_to 11000
  145.4088  141.0394  143.3029 LP  0  0  0  0  0  0  0  0  0  0  0  0  # atno 17320 bound_to 7965
  144.8308  139.5632  143.6944 LP  0  0  0  0  0  0  0  0  0  0  0  0  # atno 17321 bound_to 7965
  140.7272  143.6969  150.7877 LP  0  0  0  0  0  0  0  0  0  0  0  0  # atno 17342 bound_to 10162
  140.0551  143.5211  152.2655 LP  0  0  0  0  0  0  0  0  0  0  0  0  # atno 17343 bound_to 10162
  157.6446  131.0906  150.8180 LP  0  0  0  0  0  0  0  0  0  0  0  0  # atno 17370 bound_to 10713
  156.8270  130.5003  149.5336 LP  0  0  0  0  0  0  0  0  0  0  0  0  # atno 17371 bound_to 10713
  140.8904  133.7852  155.9565 LP  0  0  0  0  0  0  0  0  0  0  0  0  # atno 17394 bound_to 11000
  140.8760  134.2669  157.5168 LP  0  0  0  0  0  0  0  0  0  0  0  0  # atno 17395 bound_to 11000

$$$$
