AV-unprocessed.smi:2708|AV-procd|sdf|10459|dock4
  -GOLD-   2272014493D 1   1.00000     0.00000
 Structure written by MMmdl.
 35 35  0  0  0  0  0  0  0  0  2 V2000
  153.5342  137.4497  156.2907 C   0  0  0  0  0  0  0  0  0  0  0  0
  152.1342  137.8493  155.7936 C   0  0  1  0  0  0  0  0  0  0  0  0
  151.2728  138.0351  156.9593 N   0  0  0  0  0  0  0  0  0  0  0  0
  151.0403  137.1224  157.9165 C   0  0  0  0  0  0  0  0  0  0  0  0
  151.5502  136.0017  157.9301 O   0  0  0  0  0  0  0  0  0  0  0  0
  150.0887  137.5432  159.0370 C   0  0  0  0  0  0  0  0  0  0  0  0
  148.8944  136.6345  159.0664 C   0  0  0  0  0  0  0  0  0  0  0  0
  148.4198  135.8653  158.0342 C   0  0  0  0  0  0  0  0  0  0  0  0
  147.0163  134.9473  158.5015 S   0  0  0  0  0  0  0  0  0  0  0  0
  147.1151  135.6555  160.1180 C   0  0  0  0  0  0  0  0  0  0  0  0
  146.1818  135.3396  161.2618 C   0  0  0  0  0  0  0  0  0  0  0  0
  146.2969  133.8476  161.6300 C   0  0  0  0  0  0  0  0  0  0  0  0
  144.7116  135.6171  160.8795 C   0  0  0  0  0  0  0  0  0  0  0  0
  146.5214  136.2263  162.4757 C   0  0  0  0  0  0  0  0  0  0  0  0
  148.1375  136.5102  160.2359 N   0  0  0  0  0  0  0  0  0  0  0  0
  152.2544  139.1614  155.0020 C   0  0  0  0  0  0  0  0  0  0  0  0
  151.1986  139.6334  154.5263 O   0  0  0  0  0  0  0  0  0  0  0  0
  153.3927  139.6680  154.8798 O   0  5  0  0  0  0  0  0  0  0  0  0
  151.7363  137.0610  155.1515 H   0  0  0  0  0  0  0  0  0  0  0  0
  154.2255  137.3134  155.4580 H   0  0  0  0  0  0  0  0  0  0  0  0
  153.4961  136.5075  156.8384 H   0  0  0  0  0  0  0  0  0  0  0  0
  153.9606  138.2003  156.9584 H   0  0  0  0  0  0  0  0  0  0  0  0
  150.7992  138.9237  157.0305 H   0  0  0  0  0  0  0  0  0  0  0  0
  150.6166  137.5242  159.9914 H   0  0  0  0  0  0  0  0  0  0  0  0
  149.7819  138.5776  158.8766 H   0  0  0  0  0  0  0  0  0  0  0  0
  148.8151  135.7785  157.0331 H   0  0  0  0  0  0  0  0  0  0  0  0
  145.6212  133.5847  162.4445 H   0  0  0  0  0  0  0  0  0  0  0  0
  147.3075  133.5914  161.9510 H   0  0  0  0  0  0  0  0  0  0  0  0
  146.0520  133.2102  160.7797 H   0  0  0  0  0  0  0  0  0  0  0  0
  144.3922  135.0049  160.0353 H   0  0  0  0  0  0  0  0  0  0  0  0
  144.5565  136.6629  160.6110 H   0  0  0  0  0  0  0  0  0  0  0  0
  144.0380  135.3952  161.7081 H   0  0  0  0  0  0  0  0  0  0  0  0
  145.8502  136.0300  163.3125 H   0  0  0  0  0  0  0  0  0  0  0  0
  146.4398  137.2855  162.2282 H   0  0  0  0  0  0  0  0  0  0  0  0
  147.5380  136.0487  162.8286 H   0  0  0  0  0  0  0  0  0  0  0  0
  1  2  1  0  0  0  0
  1 20  1  0  0  0  0
  1 21  1  0  0  0  0
  1 22  1  0  0  0  0
  2 19  1  0  0  0  0
  2  3  1  0  0  0  0
  2 16  1  0  0  0  0
  3  4  1  0  0  0  0
  3 23  1  0  0  0  0
  4  5  2  0  0  0  0
  4  6  1  0  0  0  0
  6  7  1  0  0  0  0
  6 24  1  0  0  0  0
  6 25  1  0  0  0  0
  7 15  1  0  0  0  0
  7  8  2  0  0  0  0
  8  9  1  0  0  0  0
  8 26  1  0  0  0  0
  9 10  1  0  0  0  0
 10 11  1  0  0  0  0
 10 15  2  0  0  0  0
 11 12  1  0  0  0  0
 11 13  1  0  0  0  0
 11 14  1  0  0  0  0
 12 27  1  0  0  0  0
 12 28  1  0  0  0  0
 12 29  1  0  0  0  0
 13 30  1  0  0  0  0
 13 31  1  0  0  0  0
 13 32  1  0  0  0  0
 14 33  1  0  0  0  0
 14 34  1  0  0  0  0
 14 35  1  0  0  0  0
 16 17  2  0  0  0  0
 16 18  1  0  0  0  0
M  CHG  1  18  -1
M  END
> <s_m_source_file>
AV-unprocessed.smi

> <i_m_source_file_index>
2708

> <i_lp_mmshare_version>
43012

> <i_f3d_flags>
0

> <s_epik_input>
Tz1DKFtPSF0pW0NASF0oW0NIM10pW05IXUMoPU8pW0NIMl1jMVtjSF1zYyhuMSlDKFtDSDNdKShbQ0gzXSlbQ0gzXQ==

> <s_epik_cmdline>
J2VwaWtfcHl0aG9uJywgJy1waCcsICc3LjAnLCAnLXRuJywgJzgnLCAnLW1hJywgJzIwMCcsICctbWV0YWxfYmluZGluZycsICctaW1hZScsICc8aW5maWxlLm1hZT4nLCAnLW9tYWUnLCAnPG91dGZpbGUubWFlPic=

> <r_lp_tautomer_probability>
1

> <r_epik_Ionization_Penalty>
0.000214174

> <r_epik_Ionization_Penalty_Charging>
0.000167453

> <r_epik_Ionization_Penalty_Neutral>
4.67216e-05

> <r_epik_State_Penalty>
-0

> <r_epik_Charging_Adjusted_Penalty>
0.000167453

> <i_epik_Tot_Q>
-1

> <i_epik_Tot_abs_Q>
1

> <r_epik_Metal_State_Penalty>
-0

> <b_epik_Metal_Only>
0

> <s_lp_Force_Field>
OPLS_2005

> <r_lp_Energy>
-5.21837

> <b_lp_Chiralities_Consistent>
1

> <s_lp_Variant>
AV-unprocessed.smi:2708-2

> <Gold.Version>
5.8.1

> <Gold.Id.Protein>
6NUR|6NUR_protein|mol2

> <Gold.PLP.Fitness>
41.8881

> <Gold.PLP.PLP>
-30.1395

> <Gold.PLP.part.hbond>
-5.0000

> <Gold.PLP.part.metal>
0.0000

> <Gold.PLP.part.buried>
-0.3080

> <Gold.PLP.part.nonpolar>
-25.3771

> <Gold.PLP.part.repulsive>
0.1380

> <Gold.PLP.ligand.clash>
0.0000

> <Gold.PLP.ligand.torsion>
0.3827

> <Gold.PLP.Chemscore.Hbond>
4.1545

> <Gold.PLP.Chemscore.CHOScore>
0.0000

> <Gold.PLP.Chemscore.Metal>
0.0000

> <Gold.Chemscore.Hbonds>
donor molecule, donor type, donor heavy atom, donor atom, acceptor molecule, acceptor atom, score
      P1  H  6896  6907       L1     5  0.22
      P1  H  7989  7998       L1    17  1.00
      P1  H  7997  8009       L1    18  2.00

> <Gold.PLP.Chemscore.Internal.Correction>
0.0506

> <Gold.Rescore>
     Score         DG    S(hbond)    S(metal)    S(lipo)     H(rot)  DE(clash)    DE(int)     intcor
     13.90     -17.18       3.01        0.00      63.15       2.25       1.64       1.64       ----

> <Gold.Chemscore.Fitness>
13.8995

> <Gold.Chemscore.DG>
-17.1794

> <Gold.Chemscore.ZeroCoef>
-5.4800

> <Gold.Chemscore.Hbond>
3.0134

> <Gold.Chemscore.Metal>
0.0000

> <Gold.Chemscore.Lipo>
63.1542

> <Gold.Chemscore.Internal_Hbond>
0.0000

> <Gold.Chemscore.DEClash>
1.6354

> <Gold.Chemscore.DEInternal>
1.6446

> <Gold.Chemscore.Rot>
2.2478

> <Gold.Chemscore.Internal.Correction>
   9.000000E+99

> <Gold.Chemscore.Hbonds>
donor molecule, donor type, donor heavy atom, donor atom, acceptor molecule, acceptor atom, score
      P1  H  6896  6907       L1     5  0.16
      P1  H  7989  7998       L1    17  0.60
      P1  H  7997  8009       L1    18  0.96

> <Gold.Chemscore.Hbond.Weighted>
-10.0648

> <Gold.Chemscore.Metal.Weighted>
-0.0000

> <Gold.Chemscore.Lipo.Weighted>
-7.3890

> <Gold.Chemscore.Internal_Hbond.Weighted>
0.0000

> <Gold.Chemscore.DEClash.Weighted>
1.6354

> <Gold.Chemscore.DEInternal.Weighted>
1.6446

> <Gold.Chemscore.Rot.Weighted>
5.7544

> <Gold.Chemscore.Internal.Correction.Weighted>
   9.000000E+99

> <Gold.Protein.RotatedTorsions>
[ 6907 6896 6895 6894 ] final  -30.15 input  -60.11 | X-H torsion
[ 7974 7965 7964 7962 ] final  -12.58 input  175.53 | X-H torsion
[ 8008 7997 7996 7995 ] final -138.58 input   59.86 | X-H torsion
[ 10167 10162 10161 10158 ] final  -56.06 input  -65.29 | X-H torsion
[ 10718 10713 10712 10709 ] final  144.57 input   66.30 | X-H torsion
[ 10763 10752 10751 10750 ] final -108.42 input  -60.55 | X-H torsion
[ 11005 11000 10999 10996 ] final   -1.51 input  -57.11 | X-H torsion

> <Gold.Protein.ActiveResidues>
 VAL166  LYS551  ARG553  GLY616  TRP617  ASP618  TYR619  PRO620  LYS621  CYS622 
 ASP623  PHE694  ASN695  SER759  ASP760  ASP761  ALA762  ILE779  LEU786  VAL792 
 PHE793  MET794  SER795  GLU796  ALA797  LYS798  CYS799  TRP800  GLU811  SER814 

> <Gold.Protein.RotatedAtoms>
  151.1094  135.0018  159.8486 H   0  0  0  0  0  0  0  0  0  0  0  0  # atno 6907 bound_to 6896
  152.5442  134.1854  159.8662 H   0  0  0  0  0  0  0  0  0  0  0  0  # atno 6908 bound_to 6896
  151.1903  133.4627  159.2628 H   0  0  0  0  0  0  0  0  0  0  0  0  # atno 6909 bound_to 6896
  146.2147  140.3078  142.8380 H   0  0  0  0  0  0  0  0  0  0  0  0  # atno 7974 bound_to 7965
  155.4307  140.0525  157.3019 H   0  0  0  0  0  0  0  0  0  0  0  0  # atno 8008 bound_to 7997
  154.4861  140.2101  155.9610 H   0  0  0  0  0  0  0  0  0  0  0  0  # atno 8009 bound_to 7997
  156.1276  140.3177  155.8306 H   0  0  0  0  0  0  0  0  0  0  0  0  # atno 8010 bound_to 7997
  140.6339  143.2472  151.5170 H   0  0  0  0  0  0  0  0  0  0  0  0  # atno 10167 bound_to 10162
  157.3557  131.0957  151.0961 H   0  0  0  0  0  0  0  0  0  0  0  0  # atno 10718 bound_to 10713
  154.8134  135.4638  154.0578 H   0  0  0  0  0  0  0  0  0  0  0  0  # atno 10763 bound_to 10752
  153.1990  135.6866  153.8262 H   0  0  0  0  0  0  0  0  0  0  0  0  # atno 10764 bound_to 10752
  153.7753  135.3264  155.3335 H   0  0  0  0  0  0  0  0  0  0  0  0  # atno 10765 bound_to 10752
  140.6481  133.9429  155.8364 H   0  0  0  0  0  0  0  0  0  0  0  0  # atno 11005 bound_to 11000
  144.9010  140.7643  143.5867 LP  0  0  0  0  0  0  0  0  0  0  0  0  # atno 17320 bound_to 7965
  145.3004  139.1852  143.4693 LP  0  0  0  0  0  0  0  0  0  0  0  0  # atno 17321 bound_to 7965
  139.5550  144.2298  152.1597 LP  0  0  0  0  0  0  0  0  0  0  0  0  # atno 17342 bound_to 10162
  140.1549  144.5080  150.6666 LP  0  0  0  0  0  0  0  0  0  0  0  0  # atno 17343 bound_to 10162
  157.2120  130.6442  149.5777 LP  0  0  0  0  0  0  0  0  0  0  0  0  # atno 17370 bound_to 10713
  155.9729  130.4657  150.6262 LP  0  0  0  0  0  0  0  0  0  0  0  0  # atno 17371 bound_to 10713
  141.0557  134.0420  157.3726 LP  0  0  0  0  0  0  0  0  0  0  0  0  # atno 17394 bound_to 11000
  139.9055  135.0178  156.7468 LP  0  0  0  0  0  0  0  0  0  0  0  0  # atno 17395 bound_to 11000

$$$$
