AV-unprocessed.smi:1360|AV-procd|sdf|5551|dock9
  -GOLD-   22720 5143D 1   1.00000     0.00000
 Structure written by MMmdl.
 36 37  0  0  0  0  0  0  0  0  1 V2000
  152.7924  137.2658  156.7323 C   0  0  0  0  0  0  0  0  0  0  0  0
  151.6650  138.2712  156.4524 C   0  0  2  0  0  0  0  0  0  0  0  0
  151.3029  138.3115  154.9552 C   0  0  0  0  0  0  0  0  0  0  0  0
  150.2327  139.2520  154.6721 N   0  0  0  0  0  0  0  0  0  0  0  0
  148.9929  138.9964  154.1254 C   0  0  0  0  0  0  0  0  0  0  0  0
  148.3261  140.1860  154.0573 C   0  0  0  0  0  0  0  0  0  0  0  0
  149.2526  141.1239  154.5925 C   0  0  0  0  0  0  0  0  0  0  0  0
  150.3935  140.5623  154.9587 N   0  0  0  0  0  0  0  0  0  0  0  0
  152.0616  139.6015  156.9082 N   0  0  0  0  0  0  0  0  0  0  0  0
  151.3577  140.3837  157.7407 C   0  0  0  0  0  0  0  0  0  0  0  0
  150.2825  140.0467  158.2378 O   0  0  0  0  0  0  0  0  0  0  0  0
  151.9598  141.7589  158.0571 C   0  0  2  0  0  0  0  0  0  0  0  0
  152.2501  141.9077  159.5687 C   0  0  0  0  0  0  0  0  0  0  0  0
  152.5974  143.3365  159.9482 C   0  0  0  0  0  0  0  0  0  0  0  0
  152.3548  144.3927  159.1531 C   0  0  0  0  0  0  0  0  0  0  0  0
  151.7007  144.2779  157.7873 C   0  0  0  0  0  0  0  0  0  0  0  0
  151.0463  142.9006  157.5677 C   0  0  0  0  0  0  0  0  0  0  0  0
  152.5074  136.2610  156.4196 H   0  0  0  0  0  0  0  0  0  0  0  0
  153.0283  137.2223  157.7961 H   0  0  0  0  0  0  0  0  0  0  0  0
  153.7048  137.5342  156.1988 H   0  0  0  0  0  0  0  0  0  0  0  0
  150.7793  137.9487  157.0034 H   0  0  0  0  0  0  0  0  0  0  0  0
  152.1758  138.5670  154.3520 H   0  0  0  0  0  0  0  0  0  0  0  0
  150.9748  137.3256  154.6234 H   0  0  0  0  0  0  0  0  0  0  0  0
  148.6919  138.0002  153.8365 H   0  0  0  0  0  0  0  0  0  0  0  0
  147.3281  140.3597  153.6834 H   0  0  0  0  0  0  0  0  0  0  0  0
  149.1306  142.1890  154.7245 H   0  0  0  0  0  0  0  0  0  0  0  0
  152.9303  139.9650  156.5432 H   0  0  0  0  0  0  0  0  0  0  0  0
  152.9075  141.8453  157.5219 H   0  0  0  0  0  0  0  0  0  0  0  0
  151.3947  141.5991  160.1715 H   0  0  0  0  0  0  0  0  0  0  0  0
  153.0838  141.2623  159.8479 H   0  0  0  0  0  0  0  0  0  0  0  0
  153.0508  143.4867  160.9173 H   0  0  0  0  0  0  0  0  0  0  0  0
  152.6387  145.3836  159.4755 H   0  0  0  0  0  0  0  0  0  0  0  0
  150.9544  145.0650  157.6778 H   0  0  0  0  0  0  0  0  0  0  0  0
  152.4652  144.4569  157.0308 H   0  0  0  0  0  0  0  0  0  0  0  0
  150.8014  142.7758  156.5119 H   0  0  0  0  0  0  0  0  0  0  0  0
  150.0993  142.8668  158.1089 H   0  0  0  0  0  0  0  0  0  0  0  0
  1  2  1  0  0  0  0
  1 18  1  0  0  0  0
  1 19  1  0  0  0  0
  1 20  1  0  0  0  0
  2  3  1  0  0  0  0
  2  9  1  0  0  0  0
  2 21  1  0  0  0  0
  3  4  1  0  0  0  0
  3 22  1  0  0  0  0
  3 23  1  0  0  0  0
  4  8  1  0  0  0  0
  4  5  1  0  0  0  0
  5  6  2  0  0  0  0
  5 24  1  0  0  0  0
  6  7  1  0  0  0  0
  6 25  1  0  0  0  0
  7  8  2  0  0  0  0
  7 26  1  0  0  0  0
  9 10  1  0  0  0  0
  9 27  1  0  0  0  0
 10 11  2  0  0  0  0
 10 12  1  0  0  0  0
 12 17  1  0  0  0  0
 12 13  1  0  0  0  0
 12 28  1  0  0  0  0
 13 14  1  0  0  0  0
 13 29  1  0  0  0  0
 13 30  1  0  0  0  0
 14 15  2  0  0  0  0
 14 31  1  0  0  0  0
 15 16  1  0  0  0  0
 15 32  1  0  0  0  0
 16 17  1  0  0  0  0
 16 33  1  0  0  0  0
 16 34  1  0  0  0  0
 17 35  1  0  0  0  0
 17 36  1  0  0  0  0
M  END
> <s_m_source_file>
AV-unprocessed.smi

> <i_m_source_file_index>
1360

> <i_lp_mmshare_version>
43012

> <i_f3d_flags>
0

> <s_epik_input>
bjFbY0hdW2NIXVtjSF1uMVtDSDJdW0NAQEhdKFtDSDNdKVtOSF1DKD1PKVtDQEBIXTJbQ0gyXVtDSF09W0NIXVtDSDJdW0NIMl0y

> <s_epik_cmdline>
J2VwaWtfcHl0aG9uJywgJy1waCcsICc3LjAnLCAnLXRuJywgJzgnLCAnLW1hJywgJzIwMCcsICctbWV0YWxfYmluZGluZycsICctaW1hZScsICc8aW5maWxlLm1hZT4nLCAnLW9tYWUnLCAnPG91dGZpbGUubWFlPic=

> <r_lp_tautomer_probability>
1

> <r_epik_Ionization_Penalty>
0.000315076

> <r_epik_Ionization_Penalty_Charging>
0

> <r_epik_Ionization_Penalty_Neutral>
0.000315076

> <r_epik_State_Penalty>
-0

> <r_epik_Charging_Adjusted_Penalty>
0

> <i_epik_Tot_Q>
0

> <i_epik_Tot_abs_Q>
0

> <r_epik_Metal_State_Penalty>
-0

> <b_epik_Metal_Only>
0

> <s_lp_Force_Field>
OPLS_2005

> <r_lp_Energy>
8.39031

> <b_lp_Chiralities_Consistent>
1

> <s_lp_Variant>
AV-unprocessed.smi:1360-1

> <Gold.Version>
5.8.1

> <Gold.Id.Protein>
6NUR|6NUR_protein|mol2

> <Gold.PLP.Fitness>
43.1401

> <Gold.PLP.PLP>
-37.0648

> <Gold.PLP.part.hbond>
-1.0000

> <Gold.PLP.part.metal>
0.0000

> <Gold.PLP.part.buried>
-3.2140

> <Gold.PLP.part.nonpolar>
-33.8050

> <Gold.PLP.part.repulsive>
0.1913

> <Gold.PLP.ligand.clash>
0.0000

> <Gold.PLP.ligand.torsion>
0.0746

> <Gold.PLP.Chemscore.Hbond>
0.7808

> <Gold.PLP.Chemscore.CHOScore>
1.2868

> <Gold.PLP.Chemscore.Metal>
0.0000

> <Gold.Chemscore.Hbonds>
donor molecule, donor type, donor heavy atom, donor atom, acceptor molecule, acceptor atom, score
      P1  H  7989  7998       L1     8  0.72
      L1  C     5    24       P1  7948  0.71
      L1  C     7    26       P1  8028  0.59

> <Gold.PLP.Chemscore.Internal.Correction>
0.0218

> <Gold.Rescore>
     Score         DG    S(hbond)    S(metal)    S(lipo)     H(rot)  DE(clash)    DE(int)     intcor
     16.24     -16.60       0.81        0.00     104.83       1.51       0.05       0.31       ----

> <Gold.Chemscore.Fitness>
16.2378

> <Gold.Chemscore.DG>
-16.5958

> <Gold.Chemscore.ZeroCoef>
-5.4800

> <Gold.Chemscore.Hbond>
0.8101

> <Gold.Chemscore.Metal>
0.0000

> <Gold.Chemscore.Lipo>
104.8270

> <Gold.Chemscore.Internal_Hbond>
0.0000

> <Gold.Chemscore.DEClash>
0.0478

> <Gold.Chemscore.DEInternal>
0.3102

> <Gold.Chemscore.Rot>
1.5057

> <Gold.Chemscore.Internal.Correction>
   9.000000E+99

> <Gold.Chemscore.Hbonds>
donor molecule, donor type, donor heavy atom, donor atom, acceptor molecule, acceptor atom, score
      P1  H  7989  7998       L1     8  0.04

> <Gold.Chemscore.Hbond.Weighted>
-2.7056

> <Gold.Chemscore.Metal.Weighted>
-0.0000

> <Gold.Chemscore.Lipo.Weighted>
-12.2648

> <Gold.Chemscore.Internal_Hbond.Weighted>
0.0000

> <Gold.Chemscore.DEClash.Weighted>
0.0478

> <Gold.Chemscore.DEInternal.Weighted>
0.3102

> <Gold.Chemscore.Rot.Weighted>
3.8546

> <Gold.Chemscore.Internal.Correction.Weighted>
   9.000000E+99

> <Gold.Protein.RotatedTorsions>
[ 6907 6896 6895 6894 ] final -124.39 input  -60.11 | X-H torsion
[ 7974 7965 7964 7962 ] final -151.21 input  175.53 | X-H torsion
[ 8008 7997 7996 7995 ] final   -7.01 input   59.86 | X-H torsion
[ 10167 10162 10161 10158 ] final  162.73 input  -65.29 | X-H torsion
[ 10718 10713 10712 10709 ] final  -80.96 input   66.30 | X-H torsion
[ 10763 10752 10751 10750 ] final -162.55 input  -60.55 | X-H torsion
[ 11005 11000 10999 10996 ] final -167.80 input  -57.11 | X-H torsion

> <Gold.Protein.ActiveResidues>
 VAL166  LYS551  ARG553  GLY616  TRP617  ASP618  TYR619  PRO620  LYS621  CYS622 
 ASP623  PHE694  ASN695  SER759  ASP760  ASP761  ALA762  ILE779  LEU786  VAL792 
 PHE793  MET794  SER795  GLU796  ALA797  LYS798  CYS799  TRP800  GLU811  SER814 

> <Gold.Protein.RotatedAtoms>
  150.8763  133.7434  159.2945 H   0  0  0  0  0  0  0  0  0  0  0  0  # atno 6907 bound_to 6896
  151.5030  135.1061  159.9843 H   0  0  0  0  0  0  0  0  0  0  0  0  # atno 6908 bound_to 6896
  152.4730  133.8027  159.7017 H   0  0  0  0  0  0  0  0  0  0  0  0  # atno 6909 bound_to 6896
  144.7863  140.4828  143.5804 H   0  0  0  0  0  0  0  0  0  0  0  0  # atno 7974 bound_to 7965
  154.5880  140.2418  155.7960 H   0  0  0  0  0  0  0  0  0  0  0  0  # atno 8008 bound_to 7997
  156.2227  140.2992  155.9947 H   0  0  0  0  0  0  0  0  0  0  0  0  # atno 8009 bound_to 7997
  155.2423  140.0407  157.2967 H   0  0  0  0  0  0  0  0  0  0  0  0  # atno 8010 bound_to 7997
  139.4864  144.4408  151.8954 H   0  0  0  0  0  0  0  0  0  0  0  0  # atno 10167 bound_to 10162
  156.0059  130.4589  150.3880 H   0  0  0  0  0  0  0  0  0  0  0  0  # atno 10718 bound_to 10713
  154.7204  135.3024  154.9057 H   0  0  0  0  0  0  0  0  0  0  0  0  # atno 10763 bound_to 10752
  153.9930  135.6716  153.4759 H   0  0  0  0  0  0  0  0  0  0  0  0  # atno 10764 bound_to 10752
  153.0829  135.4999  154.8456 H   0  0  0  0  0  0  0  0  0  0  0  0  # atno 10765 bound_to 10752
  140.5491  134.5446  157.5118 H   0  0  0  0  0  0  0  0  0  0  0  0  # atno 11005 bound_to 11000
  145.5913  139.1496  143.3180 LP  0  0  0  0  0  0  0  0  0  0  0  0  # atno 17320 bound_to 7965
  146.2096  140.6039  142.9065 LP  0  0  0  0  0  0  0  0  0  0  0  0  # atno 17321 bound_to 7965
  140.3860  144.2676  150.5904 LP  0  0  0  0  0  0  0  0  0  0  0  0  # atno 17342 bound_to 10162
  140.5190  143.2270  151.8418 LP  0  0  0  0  0  0  0  0  0  0  0  0  # atno 17343 bound_to 10162
  157.1956  131.0426  151.2677 LP  0  0  0  0  0  0  0  0  0  0  0  0  # atno 17370 bound_to 10713
  157.4022  130.7339  149.6775 LP  0  0  0  0  0  0  0  0  0  0  0  0  # atno 17371 bound_to 10713
  139.9464  134.7694  156.0552 LP  0  0  0  0  0  0  0  0  0  0  0  0  # atno 17394 bound_to 11000
  141.1182  133.6621  156.3147 LP  0  0  0  0  0  0  0  0  0  0  0  0  # atno 17395 bound_to 11000

$$$$
