AV-unprocessed.smi:2362|AV-procd|sdf|9414|dock5
  -GOLD-   2272013 53D 1   1.00000     0.00000
 Structure written by MMmdl.
 45 46  0  0  0  0  0  0  0  0  2 V2000
  151.8476  145.7691  159.9571 C   0  0  0  0  0  0  0  0  0  0  0  0
  151.8283  144.4147  159.2799 C   0  0  0  0  0  0  0  0  0  0  0  0
  152.3851  143.2799  159.9000 C   0  0  0  0  0  0  0  0  0  0  0  0
  152.3372  142.0453  159.2242 C   0  0  0  0  0  0  0  0  0  0  0  0
  151.7366  141.9741  157.9472 C   0  0  0  0  0  0  0  0  0  0  0  0
  151.7363  140.6837  157.3528 N   0  0  0  0  0  0  0  0  0  0  0  0
  151.2391  140.3225  156.1570 C   0  0  0  0  0  0  0  0  0  0  0  0
  150.7202  141.0854  155.3418 O   0  0  0  0  0  0  0  0  0  0  0  0
  151.3654  139.0020  155.9531 N   0  0  0  0  0  0  0  0  0  0  0  0
  150.9512  138.2766  154.7508 C   0  0  1  0  0  0  0  0  0  0  0  0
  152.1808  137.6088  154.1205 C   0  0  0  0  0  0  0  0  0  0  0  0
  149.8507  137.2363  155.0661 C   0  0  0  0  0  0  0  0  0  0  0  0
  148.6302  137.4032  154.2356 N   0  3  0  0  0  0  0  0  0  0  0  0
  148.2447  138.8267  154.0575 C   0  0  0  0  0  0  0  0  0  0  0  0
  147.0789  138.9623  153.0629 C   0  0  0  0  0  0  0  0  0  0  0  0
  145.8760  138.1181  153.5040 C   0  0  0  0  0  0  0  0  0  0  0  0
  146.3081  136.6619  153.7201 C   0  0  0  0  0  0  0  0  0  0  0  0
  147.4851  136.5795  154.7060 C   0  0  0  0  0  0  0  0  0  0  0  0
  151.2009  143.0727  157.3589 N   0  0  0  0  0  0  0  0  0  0  0  0
  151.2475  144.2557  158.0070 C   0  0  0  0  0  0  0  0  0  0  0  0
  152.3708  145.7278  160.9129 H   0  0  0  0  0  0  0  0  0  0  0  0
  150.8296  146.1140  160.1393 H   0  0  0  0  0  0  0  0  0  0  0  0
  152.3506  146.5012  159.3248 H   0  0  0  0  0  0  0  0  0  0  0  0
  152.8416  143.3493  160.8764 H   0  0  0  0  0  0  0  0  0  0  0  0
  152.7598  141.1651  159.6865 H   0  0  0  0  0  0  0  0  0  0  0  0
  152.1513  139.9509  157.9094 H   0  0  0  0  0  0  0  0  0  0  0  0
  151.8051  138.4548  156.6793 H   0  0  0  0  0  0  0  0  0  0  0  0
  150.5733  138.9900  154.0172 H   0  0  0  0  0  0  0  0  0  0  0  0
  151.9168  137.0981  153.1939 H   0  0  0  0  0  0  0  0  0  0  0  0
  152.6227  136.8712  154.7915 H   0  0  0  0  0  0  0  0  0  0  0  0
  152.9492  138.3447  153.8807 H   0  0  0  0  0  0  0  0  0  0  0  0
  150.2338  136.2212  154.9499 H   0  0  0  0  0  0  0  0  0  0  0  0
  149.5852  137.3385  156.1196 H   0  0  0  0  0  0  0  0  0  0  0  0
  147.9720  139.2556  155.0230 H   0  0  0  0  0  0  0  0  0  0  0  0
  149.0966  139.3965  153.6848 H   0  0  0  0  0  0  0  0  0  0  0  0
  146.7862  140.0086  152.9706 H   0  0  0  0  0  0  0  0  0  0  0  0
  147.4054  138.6435  152.0720 H   0  0  0  0  0  0  0  0  0  0  0  0
  145.4615  138.5213  154.4288 H   0  0  0  0  0  0  0  0  0  0  0  0
  145.0837  138.1697  152.7567 H   0  0  0  0  0  0  0  0  0  0  0  0
  145.4678  136.0745  154.0914 H   0  0  0  0  0  0  0  0  0  0  0  0
  146.5985  136.2188  152.7664 H   0  0  0  0  0  0  0  0  0  0  0  0
  147.7864  135.5378  154.8119 H   0  0  0  0  0  0  0  0  0  0  0  0
  147.1715  136.9185  155.6946 H   0  0  0  0  0  0  0  0  0  0  0  0
  150.8074  145.0983  157.4939 H   0  0  0  0  0  0  0  0  0  0  0  0
  148.8708  137.0630  153.3152 H   0  0  0  0  0  0  0  0  0  0  0  0
  1  2  1  0  0  0  0
  1 21  1  0  0  0  0
  1 22  1  0  0  0  0
  1 23  1  0  0  0  0
  2 20  1  0  0  0  0
  2  3  2  0  0  0  0
  3  4  1  0  0  0  0
  3 24  1  0  0  0  0
  4  5  2  0  0  0  0
  4 25  1  0  0  0  0
  5  6  1  0  0  0  0
  5 19  1  0  0  0  0
  6  7  1  0  0  0  0
  6 26  1  0  0  0  0
  7  8  2  0  0  0  0
  7  9  1  0  0  0  0
  9 10  1  0  0  0  0
  9 27  1  0  0  0  0
 10 11  1  0  0  0  0
 10 12  1  0  0  0  0
 10 28  1  0  0  0  0
 11 29  1  0  0  0  0
 11 30  1  0  0  0  0
 11 31  1  0  0  0  0
 12 13  1  0  0  0  0
 12 32  1  0  0  0  0
 12 33  1  0  0  0  0
 13 18  1  0  0  0  0
 13 14  1  0  0  0  0
 13 45  1  0  0  0  0
 14 15  1  0  0  0  0
 14 34  1  0  0  0  0
 14 35  1  0  0  0  0
 15 16  1  0  0  0  0
 15 36  1  0  0  0  0
 15 37  1  0  0  0  0
 16 17  1  0  0  0  0
 16 38  1  0  0  0  0
 16 39  1  0  0  0  0
 17 18  1  0  0  0  0
 17 40  1  0  0  0  0
 17 41  1  0  0  0  0
 18 42  1  0  0  0  0
 18 43  1  0  0  0  0
 19 20  2  0  0  0  0
 20 44  1  0  0  0  0
M  CHG  1  13   1
M  END
> <s_m_source_file>
AV-unprocessed.smi

> <i_m_source_file_index>
2362

> <i_lp_mmshare_version>
43012

> <i_f3d_flags>
0

> <s_epik_input>
W0NIM11jMVtjSF1bY0hdYyhuW2NIXTEpW05IXUMoPU8pW05IXVtDQEhdKFtDSDNdKVtDSDJdTjJbQ0gyXVtDSDJdW0NIMl1bQ0gyXVtDSDJdMg==

> <s_epik_cmdline>
J2VwaWtfcHl0aG9uJywgJy1waCcsICc3LjAnLCAnLXRuJywgJzgnLCAnLW1hJywgJzIwMCcsICctbWV0YWxfYmluZGluZycsICctaW1hZScsICc8aW5maWxlLm1hZT4nLCAnLW9tYWUnLCAnPG91dGZpbGUubWFlPic=

> <r_epik_Ionization_Penalty>
0.00215987

> <r_epik_Ionization_Penalty_Charging>
0.00211816

> <r_epik_Ionization_Penalty_Neutral>
4.17101e-05

> <r_epik_State_Penalty>
0.00145254

> <r_epik_Charging_Adjusted_Penalty>
0.0035707

> <i_epik_Tot_Q>
1

> <i_epik_Tot_abs_Q>
1

> <r_epik_Metal_State_Penalty>
-0

> <b_epik_Metal_Only>
0

> <s_lp_Force_Field>
OPLS_2005

> <r_lp_Energy>
24.6446

> <b_lp_Chiralities_Consistent>
1

> <s_lp_Variant>
AV-unprocessed.smi:2362-2

> <Gold.Version>
5.8.1

> <Gold.Id.Protein>
6NUR|6NUR_protein|mol2

> <Gold.PLP.Fitness>
43.3860

> <Gold.PLP.PLP>
-35.2720

> <Gold.PLP.part.hbond>
-2.0000

> <Gold.PLP.part.metal>
0.0000

> <Gold.PLP.part.buried>
-0.7667

> <Gold.PLP.part.nonpolar>
-32.5345

> <Gold.PLP.part.repulsive>
0.3891

> <Gold.PLP.ligand.clash>
0.0000

> <Gold.PLP.ligand.torsion>
0.8474

> <Gold.PLP.Chemscore.Hbond>
2.6661

> <Gold.PLP.Chemscore.CHOScore>
0.5819

> <Gold.PLP.Chemscore.Metal>
0.0000

> <Gold.Chemscore.Hbonds>
donor molecule, donor type, donor heavy atom, donor atom, acceptor molecule, acceptor atom, score
      L1  H    13    45       P1  7948  2.00
      P1  H  7989  7998       L1     8  0.63
      L1  C    20    44       P1  8028  0.61

> <Gold.PLP.Chemscore.Internal.Correction>
0.0646

> <Gold.Rescore>
     Score         DG    S(hbond)    S(metal)    S(lipo)     H(rot)  DE(clash)    DE(int)     intcor
     15.75     -18.57       1.55        0.00      99.21       1.44       0.60       2.23       ----

> <Gold.Chemscore.Fitness>
15.7459

> <Gold.Chemscore.DG>
-18.5715

> <Gold.Chemscore.ZeroCoef>
-5.4800

> <Gold.Chemscore.Hbond>
1.5482

> <Gold.Chemscore.Metal>
0.0000

> <Gold.Chemscore.Lipo>
99.2149

> <Gold.Chemscore.Internal_Hbond>
0.0000

> <Gold.Chemscore.DEClash>
0.5963

> <Gold.Chemscore.DEInternal>
2.2293

> <Gold.Chemscore.Rot>
1.4404

> <Gold.Chemscore.Internal.Correction>
   9.000000E+99

> <Gold.Chemscore.Hbonds>
donor molecule, donor type, donor heavy atom, donor atom, acceptor molecule, acceptor atom, score
      L1  H    13    45       P1  7948  1.00
      P1  H  7989  7998       L1     8  0.48

> <Gold.Chemscore.Hbond.Weighted>
-5.1709

> <Gold.Chemscore.Metal.Weighted>
-0.0000

> <Gold.Chemscore.Lipo.Weighted>
-11.6081

> <Gold.Chemscore.Internal_Hbond.Weighted>
0.0000

> <Gold.Chemscore.DEClash.Weighted>
0.5963

> <Gold.Chemscore.DEInternal.Weighted>
2.2293

> <Gold.Chemscore.Rot.Weighted>
3.6875

> <Gold.Chemscore.Internal.Correction.Weighted>
   9.000000E+99

> <Gold.Protein.RotatedTorsions>
[ 6907 6896 6895 6894 ] final  177.49 input  -60.11 | X-H torsion
[ 7974 7965 7964 7962 ] final  143.07 input  175.53 | X-H torsion
[ 8008 7997 7996 7995 ] final -149.22 input   59.86 | X-H torsion
[ 10167 10162 10161 10158 ] final  -53.90 input  -65.29 | X-H torsion
[ 10718 10713 10712 10709 ] final  -53.15 input   66.30 | X-H torsion
[ 10763 10752 10751 10750 ] final   93.55 input  -60.55 | X-H torsion
[ 11005 11000 10999 10996 ] final  -92.71 input  -57.11 | X-H torsion

> <Gold.Protein.ActiveResidues>
 VAL166  LYS551  ARG553  GLY616  TRP617  ASP618  TYR619  PRO620  LYS621  CYS622 
 ASP623  PHE694  ASN695  SER759  ASP760  ASP761  ALA762  ILE779  LEU786  VAL792 
 PHE793  MET794  SER795  GLU796  ALA797  LYS798  CYS799  TRP800  GLU811  SER814 

> <Gold.Protein.RotatedAtoms>
  151.7031  133.3311  159.3271 H   0  0  0  0  0  0  0  0  0  0  0  0  # atno 6907 bound_to 6896
  150.7727  134.6598  159.6343 H   0  0  0  0  0  0  0  0  0  0  0  0  # atno 6908 bound_to 6896
  152.3758  134.6669  160.0212 H   0  0  0  0  0  0  0  0  0  0  0  0  # atno 6909 bound_to 6896
  144.8953  139.5500  143.5779 H   0  0  0  0  0  0  0  0  0  0  0  0  # atno 7974 bound_to 7965
  155.6042  140.0665  157.2724 H   0  0  0  0  0  0  0  0  0  0  0  0  # atno 8008 bound_to 7997
  154.4271  140.1813  156.1252 H   0  0  0  0  0  0  0  0  0  0  0  0  # atno 8009 bound_to 7997
  156.0136  140.3324  155.6969 H   0  0  0  0  0  0  0  0  0  0  0  0  # atno 8010 bound_to 7997
  140.6460  143.2535  151.4859 H   0  0  0  0  0  0  0  0  0  0  0  0  # atno 10167 bound_to 10162
  156.1560  130.4150  149.9869 H   0  0  0  0  0  0  0  0  0  0  0  0  # atno 10718 bound_to 10713
  153.2316  135.4321  155.0601 H   0  0  0  0  0  0  0  0  0  0  0  0  # atno 10763 bound_to 10752
  154.8299  135.3381  154.6779 H   0  0  0  0  0  0  0  0  0  0  0  0  # atno 10764 bound_to 10752
  153.7206  135.7017  153.5070 H   0  0  0  0  0  0  0  0  0  0  0  0  # atno 10765 bound_to 10752
  141.1515  133.7839  157.0058 H   0  0  0  0  0  0  0  0  0  0  0  0  # atno 11005 bound_to 11000
  146.3077  139.7638  142.9043 LP  0  0  0  0  0  0  0  0  0  0  0  0  # atno 17320 bound_to 7965
  145.3711  141.0343  143.3230 LP  0  0  0  0  0  0  0  0  0  0  0  0  # atno 17321 bound_to 7965
  139.5670  144.2018  152.1780 LP  0  0  0  0  0  0  0  0  0  0  0  0  # atno 17342 bound_to 10162
  140.1303  144.5295  150.6807 LP  0  0  0  0  0  0  0  0  0  0  0  0  # atno 17343 bound_to 10162
  156.7713  130.9187  151.3644 LP  0  0  0  0  0  0  0  0  0  0  0  0  # atno 17370 bound_to 10713
  157.6695  130.9038  150.0007 LP  0  0  0  0  0  0  0  0  0  0  0  0  # atno 17371 bound_to 10713
  140.0910  134.9592  157.1776 LP  0  0  0  0  0  0  0  0  0  0  0  0  # atno 17394 bound_to 11000
  140.3446  134.2666  155.7207 LP  0  0  0  0  0  0  0  0  0  0  0  0  # atno 17395 bound_to 11000

$$$$
