AV-unprocessed.smi:1007|AV-procd|sdf|4401|dock4
  -GOLD-   22720 2333D 1   1.00000     0.00000
 Structure written by MMmdl.
 56 58  0  0  0  0  0  0  0  0  2 V2000
  148.3678  132.9718  152.9459 C   0  0  0  0  0  0  0  0  0  0  0  0
  149.4664  133.2375  153.8042 O   0  0  0  0  0  0  0  0  0  0  0  0
  149.1180  133.3877  155.1746 C   0  0  0  0  0  0  0  0  0  0  0  0
  148.0271  134.4566  155.3818 C   0  0  0  0  0  0  0  0  0  0  0  0
  148.5453  135.6852  156.0350 N   0  3  0  0  0  0  0  0  0  0  0  0
  147.4979  136.7046  156.3128 C   0  0  0  0  0  0  0  0  0  0  0  0
  148.1163  137.9202  157.0319 C   0  0  0  0  0  0  0  0  0  0  0  0
  149.2056  138.5421  156.2790 N   0  0  0  0  0  0  0  0  0  0  0  0
  148.7986  139.2520  155.0588 C   0  0  0  0  0  0  0  0  0  0  0  0
  149.8143  140.2776  154.5083 C   0  0  1  0  0  0  0  0  0  0  0  0
  149.2630  140.8556  153.3411 O   0  0  0  0  0  0  0  0  0  0  0  0
  150.1168  141.4263  155.4957 C   0  0  0  0  0  0  0  0  0  0  0  0
  151.0810  141.0436  156.5113 N   0  0  0  0  0  0  0  0  0  0  0  0
  151.9006  139.9747  156.4973 C   0  0  0  0  0  0  0  0  0  0  0  0
  152.7129  139.8174  157.5386 N   0  0  0  0  0  0  0  0  0  0  0  0
  152.3856  140.9147  158.3166 C   0  0  0  0  0  0  0  0  0  0  0  0
  152.8914  141.3381  159.5651 C   0  0  0  0  0  0  0  0  0  0  0  0
  152.4018  142.5095  160.1859 C   0  0  0  0  0  0  0  0  0  0  0  0
  152.9735  142.9271  161.5294 C   0  0  0  0  0  0  0  0  0  0  0  0
  151.3892  143.2774  159.5565 C   0  0  0  0  0  0  0  0  0  0  0  0
  150.8451  144.5372  160.2065 C   0  0  0  0  0  0  0  0  0  0  0  0
  150.8738  142.8694  158.3085 C   0  0  0  0  0  0  0  0  0  0  0  0
  151.3689  141.7020  157.7014 C   0  0  0  0  0  0  0  0  0  0  0  0
  150.2256  137.5250  156.0241 C   0  0  0  0  0  0  0  0  0  0  0  0
  149.6788  136.2859  155.2843 C   0  0  0  0  0  0  0  0  0  0  0  0
  148.7337  132.8062  151.9326 H   0  0  0  0  0  0  0  0  0  0  0  0
  147.6685  133.8068  152.9106 H   0  0  0  0  0  0  0  0  0  0  0  0
  147.8293  132.0753  153.2560 H   0  0  0  0  0  0  0  0  0  0  0  0
  148.7964  132.4310  155.5893 H   0  0  0  0  0  0  0  0  0  0  0  0
  150.0196  133.6571  155.7237 H   0  0  0  0  0  0  0  0  0  0  0  0
  147.5923  134.7133  154.4158 H   0  0  0  0  0  0  0  0  0  0  0  0
  147.2087  134.0467  155.9755 H   0  0  0  0  0  0  0  0  0  0  0  0
  147.0133  137.0065  155.3834 H   0  0  0  0  0  0  0  0  0  0  0  0
  146.7207  136.2821  156.9484 H   0  0  0  0  0  0  0  0  0  0  0  0
  147.3516  138.6558  157.2737 H   0  0  0  0  0  0  0  0  0  0  0  0
  148.5024  137.5903  157.9974 H   0  0  0  0  0  0  0  0  0  0  0  0
  148.6415  138.4955  154.2880 H   0  0  0  0  0  0  0  0  0  0  0  0
  147.8273  139.7293  155.1859 H   0  0  0  0  0  0  0  0  0  0  0  0
  150.7336  139.7689  154.2150 H   0  0  0  0  0  0  0  0  0  0  0  0
  149.3108  140.2222  152.6410 H   0  0  0  0  0  0  0  0  0  0  0  0
  150.4997  142.2963  154.9598 H   0  0  0  0  0  0  0  0  0  0  0  0
  149.2160  141.7598  156.0076 H   0  0  0  0  0  0  0  0  0  0  0  0
  151.8989  139.2703  155.6783 H   0  0  0  0  0  0  0  0  0  0  0  0
  153.6619  140.7525  160.0444 H   0  0  0  0  0  0  0  0  0  0  0  0
  153.4121  143.9230  161.4656 H   0  0  0  0  0  0  0  0  0  0  0  0
  153.7518  142.2398  161.8624 H   0  0  0  0  0  0  0  0  0  0  0  0
  152.1913  142.9402  162.2889 H   0  0  0  0  0  0  0  0  0  0  0  0
  150.0643  144.9939  159.5974 H   0  0  0  0  0  0  0  0  0  0  0  0
  151.6394  145.2722  160.3393 H   0  0  0  0  0  0  0  0  0  0  0  0
  150.4167  144.3091  161.1827 H   0  0  0  0  0  0  0  0  0  0  0  0
  150.1018  143.4439  157.8188 H   0  0  0  0  0  0  0  0  0  0  0  0
  151.0510  137.9595  155.4589 H   0  0  0  0  0  0  0  0  0  0  0  0
  150.6548  137.2064  156.9751 H   0  0  0  0  0  0  0  0  0  0  0  0
  150.4772  135.5501  155.1822 H   0  0  0  0  0  0  0  0  0  0  0  0
  149.3607  136.5437  154.2734 H   0  0  0  0  0  0  0  0  0  0  0  0
  148.9212  135.4000  156.9284 H   0  0  0  0  0  0  0  0  0  0  0  0
  1  2  1  0  0  0  0
  1 26  1  0  0  0  0
  1 27  1  0  0  0  0
  1 28  1  0  0  0  0
  2  3  1  0  0  0  0
  3  4  1  0  0  0  0
  3 29  1  0  0  0  0
  3 30  1  0  0  0  0
  4  5  1  0  0  0  0
  4 31  1  0  0  0  0
  4 32  1  0  0  0  0
  5 25  1  0  0  0  0
  5  6  1  0  0  0  0
  5 56  1  0  0  0  0
  6  7  1  0  0  0  0
  6 33  1  0  0  0  0
  6 34  1  0  0  0  0
  7  8  1  0  0  0  0
  7 35  1  0  0  0  0
  7 36  1  0  0  0  0
  8  9  1  0  0  0  0
  8 24  1  0  0  0  0
  9 10  1  0  0  0  0
  9 37  1  0  0  0  0
  9 38  1  0  0  0  0
 10 11  1  0  0  0  0
 10 12  1  0  0  0  0
 10 39  1  0  0  0  0
 11 40  1  0  0  0  0
 12 13  1  0  0  0  0
 12 41  1  0  0  0  0
 12 42  1  0  0  0  0
 13 23  1  0  0  0  0
 13 14  1  0  0  0  0
 14 15  2  0  0  0  0
 14 43  1  0  0  0  0
 15 16  1  0  0  0  0
 16 23  2  0  0  0  0
 16 17  1  0  0  0  0
 17 18  2  0  0  0  0
 17 44  1  0  0  0  0
 18 19  1  0  0  0  0
 18 20  1  0  0  0  0
 19 45  1  0  0  0  0
 19 46  1  0  0  0  0
 19 47  1  0  0  0  0
 20 21  1  0  0  0  0
 20 22  2  0  0  0  0
 21 48  1  0  0  0  0
 21 49  1  0  0  0  0
 21 50  1  0  0  0  0
 22 23  1  0  0  0  0
 22 51  1  0  0  0  0
 24 25  1  0  0  0  0
 24 52  1  0  0  0  0
 24 53  1  0  0  0  0
 25 54  1  0  0  0  0
 25 55  1  0  0  0  0
M  CHG  1   5   1
M  END
> <s_m_source_file>
AV-unprocessed.smi

> <i_m_source_file_index>
1007

> <i_lp_mmshare_version>
43012

> <i_f3d_flags>
0

> <s_epik_input>
W0NIM11PW0NIMl1bQ0gyXU4xW0NIMl1bQ0gyXU4oW0NIMl1bQ0gyXTEpW0NIMl1bQ0BIXShbT0hdKVtDSDJdbihbY0hdbjIpYyhjMjMpW2NIXWMoW0NIM10pYyhbY0hdMylbQ0gzXQ==

> <s_epik_cmdline>
J2VwaWtfcHl0aG9uJywgJy1waCcsICc3LjAnLCAnLXRuJywgJzgnLCAnLW1hJywgJzIwMCcsICctbWV0YWxfYmluZGluZycsICctaW1hZScsICc8aW5maWxlLm1hZT4nLCAnLW9tYWUnLCAnPG91dGZpbGUubWFlPic=

> <r_epik_Ionization_Penalty>
0.186009

> <r_epik_Ionization_Penalty_Charging>
0.0613973

> <r_epik_Ionization_Penalty_Neutral>
0.124612

> <r_epik_State_Penalty>
1.21927

> <r_epik_Charging_Adjusted_Penalty>
1.28067

> <i_epik_Tot_Q>
1

> <i_epik_Tot_abs_Q>
1

> <r_epik_Metal_State_Penalty>
1.13901

> <b_epik_Metal_Only>
0

> <s_lp_Force_Field>
OPLS_2005

> <r_lp_Energy>
38.7105

> <b_lp_Chiralities_Consistent>
1

> <s_lp_Variant>
AV-unprocessed.smi:1007-4

> <Gold.Version>
5.8.1

> <Gold.Id.Protein>
6NUR|6NUR_protein|mol2

> <Gold.PLP.Fitness>
50.0381

> <Gold.PLP.PLP>
-43.0083

> <Gold.PLP.part.hbond>
-3.4788

> <Gold.PLP.part.metal>
0.0000

> <Gold.PLP.part.buried>
-5.2363

> <Gold.PLP.part.nonpolar>
-33.9927

> <Gold.PLP.part.repulsive>
0.1801

> <Gold.PLP.ligand.clash>
0.0000

> <Gold.PLP.ligand.torsion>
0.8769

> <Gold.PLP.Chemscore.Hbond>
2.7460

> <Gold.PLP.Chemscore.CHOScore>
0.0000

> <Gold.PLP.Chemscore.Metal>
0.0000

> <Gold.Chemscore.Hbonds>
donor molecule, donor type, donor heavy atom, donor atom, acceptor molecule, acceptor atom, score
      L1  H    11    40       P1  7957  0.86
      P1  H  7997  8008       L1    15  0.90
      P1  H  8011  8017       L1    11  0.90

> <Gold.PLP.Chemscore.Internal.Correction>
0.5457

> <Gold.Rescore>
     Score         DG    S(hbond)    S(metal)    S(lipo)     H(rot)  DE(clash)    DE(int)     intcor
     17.35     -18.35       1.90        0.00     111.76       2.56       0.05       0.95       ----

> <Gold.Chemscore.Fitness>
17.3495

> <Gold.Chemscore.DG>
-18.3466

> <Gold.Chemscore.ZeroCoef>
-5.4800

> <Gold.Chemscore.Hbond>
1.8989

> <Gold.Chemscore.Metal>
0.0000

> <Gold.Chemscore.Lipo>
111.7644

> <Gold.Chemscore.Internal_Hbond>
0.0000

> <Gold.Chemscore.DEClash>
0.0515

> <Gold.Chemscore.DEInternal>
0.9456

> <Gold.Chemscore.Rot>
2.5594

> <Gold.Chemscore.Internal.Correction>
   9.000000E+99

> <Gold.Chemscore.Hbonds>
donor molecule, donor type, donor heavy atom, donor atom, acceptor molecule, acceptor atom, score
      L1  H    11    40       P1  7957  0.79
      P1  H  7997  8008       L1    15  0.14
      P1  H  8011  8017       L1    11  0.18

> <Gold.Chemscore.Hbond.Weighted>
-6.3423

> <Gold.Chemscore.Metal.Weighted>
-0.0000

> <Gold.Chemscore.Lipo.Weighted>
-13.0764

> <Gold.Chemscore.Internal_Hbond.Weighted>
0.0000

> <Gold.Chemscore.DEClash.Weighted>
0.0515

> <Gold.Chemscore.DEInternal.Weighted>
0.9456

> <Gold.Chemscore.Rot.Weighted>
6.5522

> <Gold.Chemscore.Internal.Correction.Weighted>
   9.000000E+99

> <Gold.Protein.RotatedTorsions>
[ 6907 6896 6895 6894 ] final  100.85 input  -60.11 | X-H torsion
[ 7974 7965 7964 7962 ] final -102.76 input  175.53 | X-H torsion
[ 8008 7997 7996 7995 ] final  -58.14 input   59.86 | X-H torsion
[ 10167 10162 10161 10158 ] final  -96.70 input  -65.29 | X-H torsion
[ 10718 10713 10712 10709 ] final   -7.81 input   66.30 | X-H torsion
[ 10763 10752 10751 10750 ] final   15.65 input  -60.55 | X-H torsion
[ 11005 11000 10999 10996 ] final -162.15 input  -57.11 | X-H torsion

> <Gold.Protein.ActiveResidues>
 VAL166  LYS551  ARG553  GLY616  TRP617  ASP618  TYR619  PRO620  LYS621  CYS622 
 ASP623  PHE694  ASN695  SER759  ASP760  ASP761  ALA762  ILE779  LEU786  VAL792 
 PHE793  MET794  SER795  GLU796  ALA797  LYS798  CYS799  TRP800  GLU811  SER814 

> <Gold.Protein.RotatedAtoms>
  152.5363  134.0214  159.7983 H   0  0  0  0  0  0  0  0  0  0  0  0  # atno 6907 bound_to 6896
  151.0400  133.5707  159.2659 H   0  0  0  0  0  0  0  0  0  0  0  0  # atno 6908 bound_to 6896
  151.2680  135.0683  159.9177 H   0  0  0  0  0  0  0  0  0  0  0  0  # atno 6909 bound_to 6896
  145.2645  140.9279  143.3021 H   0  0  0  0  0  0  0  0  0  0  0  0  # atno 7974 bound_to 7965
  154.4296  140.1091  156.5910 H   0  0  0  0  0  0  0  0  0  0  0  0  # atno 8008 bound_to 7997
  155.6012  140.3493  155.4575 H   0  0  0  0  0  0  0  0  0  0  0  0  # atno 8009 bound_to 7997
  156.0172  140.1231  157.0384 H   0  0  0  0  0  0  0  0  0  0  0  0  # atno 8010 bound_to 7997
  140.2911  143.3221  152.0345 H   0  0  0  0  0  0  0  0  0  0  0  0  # atno 10167 bound_to 10162
  156.7117  130.5124  149.5890 H   0  0  0  0  0  0  0  0  0  0  0  0  # atno 10718 bound_to 10713
  153.1505  135.6777  153.8889 H   0  0  0  0  0  0  0  0  0  0  0  0  # atno 10763 bound_to 10752
  153.8317  135.3117  155.3420 H   0  0  0  0  0  0  0  0  0  0  0  0  # atno 10764 bound_to 10752
  154.7859  135.4862  154.0030 H   0  0  0  0  0  0  0  0  0  0  0  0  # atno 10765 bound_to 10752
  140.6124  134.4835  157.5216 H   0  0  0  0  0  0  0  0  0  0  0  0  # atno 11005 bound_to 11000
  144.9389  139.4212  143.6459 LP  0  0  0  0  0  0  0  0  0  0  0  0  # atno 17320 bound_to 7965
  146.3265  139.8338  142.8903 LP  0  0  0  0  0  0  0  0  0  0  0  0  # atno 17321 bound_to 7965
  139.4938  144.6524  151.6646 LP  0  0  0  0  0  0  0  0  0  0  0  0  # atno 17342 bound_to 10162
  140.5731  144.0074  150.6227 LP  0  0  0  0  0  0  0  0  0  0  0  0  # atno 17343 bound_to 10162
  156.1656  130.6403  151.0774 LP  0  0  0  0  0  0  0  0  0  0  0  0  # atno 17370 bound_to 10713
  157.6933  131.0802  150.7043 LP  0  0  0  0  0  0  0  0  0  0  0  0  # atno 17371 bound_to 10713
  139.9186  134.8194  156.1283 LP  0  0  0  0  0  0  0  0  0  0  0  0  # atno 17394 bound_to 11000
  141.0799  133.6759  156.2313 LP  0  0  0  0  0  0  0  0  0  0  0  0  # atno 17395 bound_to 11000

$$$$
