AV-unprocessed.smi:109|AV-procd|sdf|1062|dock3
  -GOLD-   2262018143D 1   1.00000     0.00000
 Structure written by MMmdl.
 58 61  0  0  0  0  0  0  0  0  1 V2000
  152.3535  136.0742  160.8909 O   0  0  0  0  0  0  0  0  0  0  0  0
  152.5018  136.9594  159.8019 C   0  0  0  0  0  0  0  0  0  0  0  0
  152.3032  138.4094  160.2757 C   0  0  0  0  0  0  0  0  0  0  0  0
  151.9594  139.4097  159.1438 C   0  0  1  0  0  0  0  0  0  0  0  0
  150.7456  138.9693  158.4521 N   0  0  0  0  0  0  0  0  0  0  0  0
  150.7831  138.2780  157.2912 C   0  0  0  0  0  0  0  0  0  0  0  0
  151.7312  138.5193  156.3489 N   0  0  0  0  0  0  0  0  0  0  0  0
  151.7451  137.8104  155.2165 C   0  0  0  0  0  0  0  0  0  0  0  0
  150.9199  136.8337  154.8345 N   0  0  0  0  0  0  0  0  0  0  0  0
  149.9629  136.5888  155.7755 C   0  0  0  0  0  0  0  0  0  0  0  0
  149.8286  137.2642  157.0203 C   0  0  0  0  0  0  0  0  0  0  0  0
  148.7435  136.7520  157.7193 N   0  0  0  0  0  0  0  0  0  0  0  0
  148.2653  135.8298  156.9278 C   0  0  0  0  0  0  0  0  0  0  0  0
  148.9432  135.6593  155.7412 N   0  0  0  0  0  0  0  0  0  0  0  0
  148.6309  134.6916  154.6473 C   0  0  1  0  0  0  0  0  0  0  0  0
  148.9998  133.4222  155.0809 O   0  0  0  0  0  0  0  0  0  0  0  0
  148.1237  132.4295  154.5431 C   0  0  1  0  0  0  0  0  0  0  0  0
  147.5953  131.5681  155.7032 C   0  0  0  0  0  0  0  0  0  0  0  0
  148.6622  130.8853  156.3263 O   0  0  0  0  0  0  0  0  0  0  0  0
  147.0045  133.2074  153.8219 C   0  0  2  0  0  0  0  0  0  0  0  0
  147.2308  133.1360  152.4235 O   0  0  0  0  0  0  0  0  0  0  0  0
  147.1335  134.6286  154.3638 C   0  0  2  0  0  0  0  0  0  0  0  0
  146.6957  135.5996  153.4317 O   0  0  0  0  0  0  0  0  0  0  0  0
  151.7614  140.8699  159.6439 C   0  0  0  0  0  0  0  0  0  0  0  0
  151.5618  141.8451  158.4548 C   0  0  0  0  0  0  0  0  0  0  0  0
  151.3567  143.2974  158.9126 C   0  0  0  0  0  0  0  0  0  0  0  0
  152.5291  143.7751  159.7772 C   0  0  0  0  0  0  0  0  0  0  0  0
  152.7320  142.8384  160.9740 C   0  0  0  0  0  0  0  0  0  0  0  0
  152.9300  141.3816  160.5235 C   0  0  0  0  0  0  0  0  0  0  0  0
  149.2335  134.9930  153.7890 H   0  0  0  0  0  0  0  0  0  0  0  0
  148.6695  131.7994  153.8378 H   0  0  0  0  0  0  0  0  0  0  0  0
  146.0130  132.7975  154.0177 H   0  0  0  0  0  0  0  0  0  0  0  0
  146.5743  134.7179  155.2953 H   0  0  0  0  0  0  0  0  0  0  0  0
  152.4519  136.5648  161.6926 H   0  0  0  0  0  0  0  0  0  0  0  0
  153.4952  136.8282  159.3720 H   0  0  0  0  0  0  0  0  0  0  0  0
  151.7740  136.6890  159.0370 H   0  0  0  0  0  0  0  0  0  0  0  0
  151.5288  138.4428  161.0435 H   0  0  0  0  0  0  0  0  0  0  0  0
  153.2307  138.7069  160.7616 H   0  0  0  0  0  0  0  0  0  0  0  0
  152.8042  139.4318  158.4557 H   0  0  0  0  0  0  0  0  0  0  0  0
  149.8774  139.2429  158.8898 H   0  0  0  0  0  0  0  0  0  0  0  0
  152.5300  138.0600  154.5181 H   0  0  0  0  0  0  0  0  0  0  0  0
  147.3992  135.2408  157.1929 H   0  0  0  0  0  0  0  0  0  0  0  0
  147.0479  132.1643  156.4323 H   0  0  0  0  0  0  0  0  0  0  0  0
  146.9069  130.8108  155.3273 H   0  0  0  0  0  0  0  0  0  0  0  0
  148.3502  130.0421  156.6176 H   0  0  0  0  0  0  0  0  0  0  0  0
  147.5609  132.2756  152.2152 H   0  0  0  0  0  0  0  0  0  0  0  0
  147.4272  135.8378  152.8828 H   0  0  0  0  0  0  0  0  0  0  0  0
  150.8567  140.8955  160.2540 H   0  0  0  0  0  0  0  0  0  0  0  0
  152.4266  141.7938  157.7917 H   0  0  0  0  0  0  0  0  0  0  0  0
  150.7008  141.5532  157.8532 H   0  0  0  0  0  0  0  0  0  0  0  0
  151.2467  143.9481  158.0446 H   0  0  0  0  0  0  0  0  0  0  0  0
  150.4272  143.3757  159.4779 H   0  0  0  0  0  0  0  0  0  0  0  0
  153.4396  143.8090  159.1775 H   0  0  0  0  0  0  0  0  0  0  0  0
  152.3468  144.7923  160.1252 H   0  0  0  0  0  0  0  0  0  0  0  0
  153.5920  143.1655  161.5591 H   0  0  0  0  0  0  0  0  0  0  0  0
  151.8673  142.9002  161.6360 H   0  0  0  0  0  0  0  0  0  0  0  0
  153.0333  140.7766  161.4227 H   0  0  0  0  0  0  0  0  0  0  0  0
  153.8693  141.2921  159.9764 H   0  0  0  0  0  0  0  0  0  0  0  0
  1  2  1  0  0  0  0
  1 34  1  0  0  0  0
  2  3  1  0  0  0  0
  2 35  1  0  0  0  0
  2 36  1  0  0  0  0
  3  4  1  0  0  0  0
  3 37  1  0  0  0  0
  3 38  1  0  0  0  0
  4  5  1  0  0  0  0
  4 24  1  0  0  0  0
  4 39  1  0  0  0  0
  5  6  1  0  0  0  0
  5 40  1  0  0  0  0
  6 11  1  0  0  0  0
  6  7  2  0  0  0  0
  7  8  1  0  0  0  0
  8  9  2  0  0  0  0
  8 41  1  0  0  0  0
  9 10  1  0  0  0  0
 10 14  1  0  0  0  0
 10 11  2  0  0  0  0
 11 12  1  0  0  0  0
 12 13  2  0  0  0  0
 13 14  1  0  0  0  0
 13 42  1  0  0  0  0
 14 15  1  0  0  0  0
 15 30  1  0  0  0  0
 15 22  1  0  0  0  0
 15 16  1  0  0  0  0
 16 17  1  0  0  0  0
 17 31  1  0  0  0  0
 17 18  1  0  0  0  0
 17 20  1  0  0  0  0
 18 19  1  0  0  0  0
 18 43  1  0  0  0  0
 18 44  1  0  0  0  0
 19 45  1  0  0  0  0
 20 32  1  0  0  0  0
 20 21  1  0  0  0  0
 20 22  1  0  0  0  0
 21 46  1  0  0  0  0
 22 33  1  0  0  0  0
 22 23  1  0  0  0  0
 23 47  1  0  0  0  0
 24 29  1  0  0  0  0
 24 25  1  0  0  0  0
 24 48  1  0  0  0  0
 25 26  1  0  0  0  0
 25 49  1  0  0  0  0
 25 50  1  0  0  0  0
 26 27  1  0  0  0  0
 26 51  1  0  0  0  0
 26 52  1  0  0  0  0
 27 28  1  0  0  0  0
 27 53  1  0  0  0  0
 27 54  1  0  0  0  0
 28 29  1  0  0  0  0
 28 55  1  0  0  0  0
 28 56  1  0  0  0  0
 29 57  1  0  0  0  0
 29 58  1  0  0  0  0
M  END
> <s_m_source_file>
AV-unprocessed.smi

> <i_m_source_file_index>
109

> <i_lp_mmshare_version>
43012

> <i_f3d_flags>
0

> <s_epik_input>
W0NIMl0xW0NIMl1bQ0gyXVtDSDJdW0NIMl1bQ0hdMVtDQEhdKFtDSDJdW0NIMl1bT0hdKVtOSF1jKG5bY0hdbjIpYyhjMjMpbltjSF1uM1tDQEBIXTRPW0NASF0oW0NIMl1bT0hdKVtDQEBIXShbT0hdKVtDQEhdNFtPSF0=

> <s_epik_cmdline>
J2VwaWtfcHl0aG9uJywgJy1waCcsICc3LjAnLCAnLXRuJywgJzgnLCAnLW1hJywgJzIwMCcsICctbWV0YWxfYmluZGluZycsICctaW1hZScsICc8aW5maWxlLm1hZT4nLCAnLW9tYWUnLCAnPG91dGZpbGUubWFlPic=

> <r_lp_tautomer_probability>
1

> <r_epik_Ionization_Penalty>
0.000793976

> <r_epik_Ionization_Penalty_Charging>
0

> <r_epik_Ionization_Penalty_Neutral>
0.000793976

> <r_epik_State_Penalty>
-0

> <r_epik_Charging_Adjusted_Penalty>
0

> <i_epik_Tot_Q>
0

> <i_epik_Tot_abs_Q>
0

> <r_epik_Metal_State_Penalty>
-0

> <b_epik_Metal_Only>
0

> <s_epik_Chemistry_Notes>
This compound contains an acetal/aminal-like group ( X-CH(R)-Y where X, Y are N, S, or O) that may be acid/base labile, releasing an aldehyde.

> <s_lp_Force_Field>
OPLS_2005

> <r_lp_Energy>
55.705

> <b_lp_Chiralities_Consistent>
1

> <s_lp_Variant>
AV-unprocessed.smi:109-32

> <Gold.Version>
5.8.1

> <Gold.Id.Protein>
6NUR|6NUR_protein|mol2

> <Gold.PLP.Fitness>
54.2409

> <Gold.PLP.PLP>
-44.7136

> <Gold.PLP.part.hbond>
-3.8145

> <Gold.PLP.part.metal>
0.0000

> <Gold.PLP.part.buried>
-5.8136

> <Gold.PLP.part.nonpolar>
-35.2209

> <Gold.PLP.part.repulsive>
0.3115

> <Gold.PLP.ligand.clash>
0.0000

> <Gold.PLP.ligand.torsion>
1.0400

> <Gold.PLP.Chemscore.Hbond>
3.7840

> <Gold.PLP.Chemscore.CHOScore>
0.0000

> <Gold.PLP.Chemscore.Metal>
0.0000

> <Gold.Chemscore.Hbonds>
donor molecule, donor type, donor heavy atom, donor atom, acceptor molecule, acceptor atom, score
      L1  H    23    47       P1  7948  1.00
      P1  H  6896  6909       L1     1  0.42

> <Gold.PLP.Chemscore.Internal.Correction>
0.2553

> <Gold.Rescore>
     Score         DG    S(hbond)    S(metal)    S(lipo)     H(rot)  DE(clash)    DE(int)     intcor
     11.75     -13.21       3.00        0.00     100.14       5.47       0.09       1.38       ----

> <Gold.Chemscore.Fitness>
11.7456

> <Gold.Chemscore.DG>
-13.2125

> <Gold.Chemscore.ZeroCoef>
-5.4800

> <Gold.Chemscore.Hbond>
2.9970

> <Gold.Chemscore.Metal>
0.0000

> <Gold.Chemscore.Lipo>
100.1360

> <Gold.Chemscore.Internal_Hbond>
0.0000

> <Gold.Chemscore.DEClash>
0.0859

> <Gold.Chemscore.DEInternal>
1.3811

> <Gold.Chemscore.Rot>
5.4662

> <Gold.Chemscore.Internal.Correction>
   9.000000E+99

> <Gold.Chemscore.Hbonds>
donor molecule, donor type, donor heavy atom, donor atom, acceptor molecule, acceptor atom, score
      L1  H    23    47       P1  7948  1.00
      P1  H  6896  6909       L1     1  0.07

> <Gold.Chemscore.Hbond.Weighted>
-10.0101

> <Gold.Chemscore.Metal.Weighted>
-0.0000

> <Gold.Chemscore.Lipo.Weighted>
-11.7159

> <Gold.Chemscore.Internal_Hbond.Weighted>
0.0000

> <Gold.Chemscore.DEClash.Weighted>
0.0859

> <Gold.Chemscore.DEInternal.Weighted>
1.3811

> <Gold.Chemscore.Rot.Weighted>
13.9935

> <Gold.Chemscore.Internal.Correction.Weighted>
   9.000000E+99

> <Gold.Protein.RotatedTorsions>
[ 6907 6896 6895 6894 ] final  171.40 input  -60.11 | X-H torsion
[ 7974 7965 7964 7962 ] final  117.05 input  175.53 | X-H torsion
[ 8008 7997 7996 7995 ] final  165.07 input   59.86 | X-H torsion
[ 10167 10162 10161 10158 ] final -149.66 input  -65.29 | X-H torsion
[ 10718 10713 10712 10709 ] final  176.12 input   66.30 | X-H torsion
[ 10763 10752 10751 10750 ] final  150.72 input  -60.55 | X-H torsion
[ 11005 11000 10999 10996 ] final -101.82 input  -57.11 | X-H torsion

> <Gold.Protein.ActiveResidues>
 VAL166  LYS551  ARG553  GLY616  TRP617  ASP618  TYR619  PRO620  LYS621  CYS622 
 ASP623  PHE694  ASN695  SER759  ASP760  ASP761  ALA762  ILE779  LEU786  VAL792 
 PHE793  MET794  SER795  GLU796  ALA797  LYS798  CYS799  TRP800  GLU811  SER814 

> <Gold.Protein.RotatedAtoms>
  151.8009  133.3370  159.3526 H   0  0  0  0  0  0  0  0  0  0  0  0  # atno 6907 bound_to 6896
  150.7359  134.5755  159.5921 H   0  0  0  0  0  0  0  0  0  0  0  0  # atno 6908 bound_to 6896
  152.3144  134.7459  160.0380 H   0  0  0  0  0  0  0  0  0  0  0  0  # atno 6909 bound_to 6896
  145.1722  139.3095  143.4462 H   0  0  0  0  0  0  0  0  0  0  0  0  # atno 7974 bound_to 7965
  156.1830  140.1680  156.8239 H   0  0  0  0  0  0  0  0  0  0  0  0  # atno 8008 bound_to 7997
  154.5381  140.0742  156.8496 H   0  0  0  0  0  0  0  0  0  0  0  0  # atno 8009 bound_to 7997
  155.3269  140.3377  155.4242 H   0  0  0  0  0  0  0  0  0  0  0  0  # atno 8010 bound_to 7997
  139.7423  143.8644  152.2565 H   0  0  0  0  0  0  0  0  0  0  0  0  # atno 10167 bound_to 10162
  156.9248  130.9952  151.2998 H   0  0  0  0  0  0  0  0  0  0  0  0  # atno 10718 bound_to 10713
  154.0920  135.2852  155.3269 H   0  0  0  0  0  0  0  0  0  0  0  0  # atno 10763 bound_to 10752
  154.6613  135.5333  153.8025 H   0  0  0  0  0  0  0  0  0  0  0  0  # atno 10764 bound_to 10752
  153.0410  135.6534  154.1089 H   0  0  0  0  0  0  0  0  0  0  0  0  # atno 10765 bound_to 10752
  141.1215  133.8508  157.1280 H   0  0  0  0  0  0  0  0  0  0  0  0  # atno 11005 bound_to 11000
  146.3467  140.1871  142.8589 LP  0  0  0  0  0  0  0  0  0  0  0  0  # atno 17320 bound_to 7965
  145.0221  140.8802  143.5160 LP  0  0  0  0  0  0  0  0  0  0  0  0  # atno 17321 bound_to 7965
  139.8598  144.7123  150.9113 LP  0  0  0  0  0  0  0  0  0  0  0  0  # atno 17342 bound_to 10162
  140.7787  143.3827  151.1447 LP  0  0  0  0  0  0  0  0  0  0  0  0  # atno 17343 bound_to 10162
  157.5884  130.8426  149.8623 LP  0  0  0  0  0  0  0  0  0  0  0  0  # atno 17370 bound_to 10713
  156.0474  130.3725  150.1284 LP  0  0  0  0  0  0  0  0  0  0  0  0  # atno 17371 bound_to 10713
  140.0176  134.9960  157.0526 LP  0  0  0  0  0  0  0  0  0  0  0  0  # atno 17394 bound_to 11000
  140.4493  134.1599  155.7180 LP  0  0  0  0  0  0  0  0  0  0  0  0  # atno 17395 bound_to 11000

$$$$
