AV-unprocessed.smi:3273|AV-procd|sdf|12521|dock1
  -GOLD-   2272018433D 1   1.00000     0.00000
 Structure written by MMmdl.
 41 42  0  0  0  0  0  0  0  0  1 V2000
  151.4634  139.9275  159.1623 C   0  0  0  0  0  0  0  0  0  0  0  0
  151.0220  138.4619  158.9748 C   0  0  0  0  0  0  0  0  0  0  0  0
  152.2757  137.5736  158.8637 C   0  0  0  0  0  0  0  0  0  0  0  0
  150.0455  138.2949  157.7711 C   0  0  1  0  0  0  0  0  0  0  0  0
  148.5814  138.0091  158.1967 C   0  0  0  0  0  0  0  0  0  0  0  0
  148.4038  136.6616  158.7334 N   0  0  0  0  0  0  0  0  0  0  0  0
  147.8636  136.3651  159.9256 C   0  0  0  0  0  0  0  0  0  0  0  0
  147.3908  137.2100  160.6858 O   0  0  0  0  0  0  0  0  0  0  0  0
  147.8754  134.8913  160.3306 C   0  0  0  0  0  0  0  0  0  0  0  0
  147.4442  134.6998  161.7742 C   0  0  0  0  0  0  0  0  0  0  0  0
  146.5525  133.5465  162.1733 C   0  0  0  0  0  0  0  0  0  0  0  0
  146.0179  134.9570  162.2084 C   0  0  0  0  0  0  0  0  0  0  0  0
  150.1069  139.4472  156.7982 C   0  0  0  0  0  0  0  0  0  0  0  0
  149.6524  140.7343  156.9106 C   0  0  0  0  0  0  0  0  0  0  0  0
  149.9556  141.3267  155.6553 C   0  0  0  0  0  0  0  0  0  0  0  0
  150.5457  140.4835  154.8282 N   0  0  0  0  0  0  0  0  0  0  0  0
  150.6338  139.3288  155.5223 N   0  0  0  0  0  0  0  0  0  0  0  0
  151.2355  138.1724  154.8849 C   0  0  0  0  0  0  0  0  0  0  0  0
  151.9704  140.3029  158.2728 H   0  0  0  0  0  0  0  0  0  0  0  0
  152.1537  140.0252  160.0005 H   0  0  0  0  0  0  0  0  0  0  0  0
  150.6243  140.5909  159.3684 H   0  0  0  0  0  0  0  0  0  0  0  0
  150.5003  138.1645  159.8854 H   0  0  0  0  0  0  0  0  0  0  0  0
  152.8049  137.7484  157.9265 H   0  0  0  0  0  0  0  0  0  0  0  0
  152.0304  136.5137  158.9219 H   0  0  0  0  0  0  0  0  0  0  0  0
  152.9721  137.7747  159.6784 H   0  0  0  0  0  0  0  0  0  0  0  0
  150.3816  137.4029  157.2414 H   0  0  0  0  0  0  0  0  0  0  0  0
  148.2530  138.7530  158.9235 H   0  0  0  0  0  0  0  0  0  0  0  0
  147.9020  138.1297  157.3543 H   0  0  0  0  0  0  0  0  0  0  0  0
  148.7605  135.8999  158.1747 H   0  0  0  0  0  0  0  0  0  0  0  0
  147.1986  134.3457  159.6719 H   0  0  0  0  0  0  0  0  0  0  0  0
  148.8677  134.4591  160.1948 H   0  0  0  0  0  0  0  0  0  0  0  0
  148.2105  134.9789  162.4955 H   0  0  0  0  0  0  0  0  0  0  0  0
  146.1839  132.8914  161.3866 H   0  0  0  0  0  0  0  0  0  0  0  0
  146.7565  133.0618  163.1257 H   0  0  0  0  0  0  0  0  0  0  0  0
  145.8673  135.4170  163.1830 H   0  0  0  0  0  0  0  0  0  0  0  0
  145.2960  135.2381  161.4440 H   0  0  0  0  0  0  0  0  0  0  0  0
  149.1643  141.1844  157.7622 H   0  0  0  0  0  0  0  0  0  0  0  0
  149.7615  142.3353  155.3219 H   0  0  0  0  0  0  0  0  0  0  0  0
  150.5029  137.3694  154.8092 H   0  0  0  0  0  0  0  0  0  0  0  0
  152.0863  137.8284  155.4732 H   0  0  0  0  0  0  0  0  0  0  0  0
  151.5833  138.4230  153.8819 H   0  0  0  0  0  0  0  0  0  0  0  0
  1  2  1  0  0  0  0
  1 19  1  0  0  0  0
  1 20  1  0  0  0  0
  1 21  1  0  0  0  0
  2  3  1  0  0  0  0
  2  4  1  0  0  0  0
  2 22  1  0  0  0  0
  3 23  1  0  0  0  0
  3 24  1  0  0  0  0
  3 25  1  0  0  0  0
  4  5  1  0  0  0  0
  4 13  1  0  0  0  0
  4 26  1  0  0  0  0
  5  6  1  0  0  0  0
  5 27  1  0  0  0  0
  5 28  1  0  0  0  0
  6  7  1  0  0  0  0
  6 29  1  0  0  0  0
  7  8  2  0  0  0  0
  7  9  1  0  0  0  0
  9 10  1  0  0  0  0
  9 30  1  0  0  0  0
  9 31  1  0  0  0  0
 10 12  1  0  0  0  0
 10 11  1  0  0  0  0
 10 32  1  0  0  0  0
 11 12  1  0  0  0  0
 11 33  1  0  0  0  0
 11 34  1  0  0  0  0
 12 35  1  0  0  0  0
 12 36  1  0  0  0  0
 13 17  1  0  0  0  0
 13 14  2  0  0  0  0
 14 15  1  0  0  0  0
 14 37  1  0  0  0  0
 15 16  2  0  0  0  0
 15 38  1  0  0  0  0
 16 17  1  0  0  0  0
 17 18  1  0  0  0  0
 18 39  1  0  0  0  0
 18 40  1  0  0  0  0
 18 41  1  0  0  0  0
M  END
> <s_m_source_file>
AV-unprocessed.smi

> <i_m_source_file_index>
3273

> <i_lp_mmshare_version>
43012

> <i_f3d_flags>
0

> <s_epik_input>
W0NIM11uMW5bY0hdW2NIXWMxW0NASF0oW0NIXShbQ0gzXSlbQ0gzXSlbQ0gyXVtOSF1DKD1PKVtDSDJdW0NIXTJbQ0gyXVtDSDJdMg==

> <s_epik_cmdline>
J2VwaWtfcHl0aG9uJywgJy1waCcsICc3LjAnLCAnLXRuJywgJzgnLCAnLW1hJywgJzIwMCcsICctbWV0YWxfYmluZGluZycsICctaW1hZScsICc8aW5maWxlLm1hZT4nLCAnLW9tYWUnLCAnPG91dGZpbGUubWFlPic=

> <r_lp_tautomer_probability>
1

> <r_epik_Ionization_Penalty>
0.00116261

> <r_epik_Ionization_Penalty_Charging>
0

> <r_epik_Ionization_Penalty_Neutral>
0.00116261

> <r_epik_State_Penalty>
-0

> <r_epik_Charging_Adjusted_Penalty>
0

> <i_epik_Tot_Q>
0

> <i_epik_Tot_abs_Q>
0

> <r_epik_Metal_State_Penalty>
-0

> <b_epik_Metal_Only>
0

> <s_lp_Force_Field>
OPLS_2005

> <r_lp_Energy>
15.0656

> <b_lp_Chiralities_Consistent>
1

> <s_lp_Variant>
AV-unprocessed.smi:3273-2

> <Gold.Version>
5.8.1

> <Gold.Id.Protein>
6NUR|6NUR_protein|mol2

> <Gold.PLP.Fitness>
39.9630

> <Gold.PLP.PLP>
-31.7357

> <Gold.PLP.part.hbond>
-3.0000

> <Gold.PLP.part.metal>
0.0000

> <Gold.PLP.part.buried>
-5.0086

> <Gold.PLP.part.nonpolar>
-24.1644

> <Gold.PLP.part.repulsive>
0.2252

> <Gold.PLP.ligand.clash>
0.0000

> <Gold.PLP.ligand.torsion>
1.9372

> <Gold.PLP.Chemscore.Hbond>
2.7280

> <Gold.PLP.Chemscore.CHOScore>
0.9998

> <Gold.PLP.Chemscore.Metal>
0.0000

> <Gold.Chemscore.Hbonds>
donor molecule, donor type, donor heavy atom, donor atom, acceptor molecule, acceptor atom, score
      P1  H  6931  6943       L1     8  0.27
      P1  H  6934  6947       L1     8  1.00
      P1  H  7989  7998       L1    16  1.00
      L1  C    15    38       P1  8028  0.93

> <Gold.PLP.Chemscore.Internal.Correction>
0.9184

> <Gold.Rescore>
     Score         DG    S(hbond)    S(metal)    S(lipo)     H(rot)  DE(clash)    DE(int)     intcor
     17.24     -18.59       2.69        0.00      71.15       1.64       0.01       1.34       ----

> <Gold.Chemscore.Fitness>
17.2417

> <Gold.Chemscore.DG>
-18.5933

> <Gold.Chemscore.ZeroCoef>
-5.4800

> <Gold.Chemscore.Hbond>
2.6931

> <Gold.Chemscore.Metal>
0.0000

> <Gold.Chemscore.Lipo>
71.1483

> <Gold.Chemscore.Internal_Hbond>
0.0000

> <Gold.Chemscore.DEClash>
0.0148

> <Gold.Chemscore.DEInternal>
1.3368

> <Gold.Chemscore.Rot>
1.6430

> <Gold.Chemscore.Internal.Correction>
   9.000000E+99

> <Gold.Chemscore.Hbonds>
donor molecule, donor type, donor heavy atom, donor atom, acceptor molecule, acceptor atom, score
      P1  H  6931  6943       L1     8  0.22
      P1  H  6934  6947       L1     8  0.98
      P1  H  7989  7998       L1    16  0.95

> <Gold.Chemscore.Hbond.Weighted>
-8.9951

> <Gold.Chemscore.Metal.Weighted>
-0.0000

> <Gold.Chemscore.Lipo.Weighted>
-8.3244

> <Gold.Chemscore.Internal_Hbond.Weighted>
0.0000

> <Gold.Chemscore.DEClash.Weighted>
0.0148

> <Gold.Chemscore.DEInternal.Weighted>
1.3368

> <Gold.Chemscore.Rot.Weighted>
4.2062

> <Gold.Chemscore.Internal.Correction.Weighted>
   9.000000E+99

> <Gold.Protein.RotatedTorsions>
[ 6907 6896 6895 6894 ] final -165.28 input  -60.11 | X-H torsion
[ 7974 7965 7964 7962 ] final  -75.53 input  175.53 | X-H torsion
[ 8008 7997 7996 7995 ] final -179.92 input   59.86 | X-H torsion
[ 10167 10162 10161 10158 ] final  -60.29 input  -65.29 | X-H torsion
[ 10718 10713 10712 10709 ] final  -86.97 input   66.30 | X-H torsion
[ 10763 10752 10751 10750 ] final  137.86 input  -60.55 | X-H torsion
[ 11005 11000 10999 10996 ] final  -87.26 input  -57.11 | X-H torsion

> <Gold.Protein.ActiveResidues>
 VAL166  LYS551  ARG553  GLY616  TRP617  ASP618  TYR619  PRO620  LYS621  CYS622 
 ASP623  PHE694  ASN695  SER759  ASP760  ASP761  ALA762  ILE779  LEU786  VAL792 
 PHE793  MET794  SER795  GLU796  ALA797  LYS798  CYS799  TRP800  GLU811  SER814 

> <Gold.Protein.RotatedAtoms>
  151.4252  133.3686  159.2761 H   0  0  0  0  0  0  0  0  0  0  0  0  # atno 6907 bound_to 6896
  150.9264  134.8682  159.7533 H   0  0  0  0  0  0  0  0  0  0  0  0  # atno 6908 bound_to 6896
  152.5007  134.4194  159.9527 H   0  0  0  0  0  0  0  0  0  0  0  0  # atno 6909 bound_to 6896
  145.6248  140.9353  143.1119 H   0  0  0  0  0  0  0  0  0  0  0  0  # atno 7974 bound_to 7965
  156.0361  140.1293  157.0206 H   0  0  0  0  0  0  0  0  0  0  0  0  # atno 8008 bound_to 7997
  154.4370  140.1039  156.6240 H   0  0  0  0  0  0  0  0  0  0  0  0  # atno 8009 bound_to 7997
  155.5735  140.3467  155.4524 H   0  0  0  0  0  0  0  0  0  0  0  0  # atno 8010 bound_to 7997
  140.6080  143.2379  151.5775 H   0  0  0  0  0  0  0  0  0  0  0  0  # atno 10167 bound_to 10162
  155.9987  130.4783  150.4796 H   0  0  0  0  0  0  0  0  0  0  0  0  # atno 10718 bound_to 10713
  153.8800  135.3045  155.3445 H   0  0  0  0  0  0  0  0  0  0  0  0  # atno 10763 bound_to 10752
  154.7766  135.4858  153.9760 H   0  0  0  0  0  0  0  0  0  0  0  0  # atno 10764 bound_to 10752
  153.1357  135.6813  153.9203 H   0  0  0  0  0  0  0  0  0  0  0  0  # atno 10765 bound_to 10752
  141.1619  133.7501  156.9280 H   0  0  0  0  0  0  0  0  0  0  0  0  # atno 11005 bound_to 11000
  144.7217  139.8009  143.7379 LP  0  0  0  0  0  0  0  0  0  0  0  0  # atno 17320 bound_to 7965
  146.1403  139.4458  143.0113 LP  0  0  0  0  0  0  0  0  0  0  0  0  # atno 17321 bound_to 7965
  139.5340  144.2835  152.1210 LP  0  0  0  0  0  0  0  0  0  0  0  0  # atno 17342 bound_to 10162
  140.2028  144.4640  150.6423 LP  0  0  0  0  0  0  0  0  0  0  0  0  # atno 17343 bound_to 10162
  157.2803  131.0605  151.2202 LP  0  0  0  0  0  0  0  0  0  0  0  0  # atno 17370 bound_to 10713
  157.3251  130.6956  149.6291 LP  0  0  0  0  0  0  0  0  0  0  0  0  # atno 17371 bound_to 10713
  140.1405  134.9296  157.2461 LP  0  0  0  0  0  0  0  0  0  0  0  0  # atno 17394 bound_to 11000
  140.2842  134.3315  155.7334 LP  0  0  0  0  0  0  0  0  0  0  0  0  # atno 17395 bound_to 11000

$$$$
