AV-unprocessed.smi:1021|AV-procd|sdf|4457|dock8
  -GOLD-   22720 2433D 1   1.00000     0.00000
 Structure written by MMmdl.
 43 45  0  0  0  0  0  0  0  0  2 V2000
  149.2976  141.0472  153.3693 O   0  0  0  0  0  0  0  0  0  0  0  0
  148.6563  140.4629  154.4831 C   0  0  0  0  0  0  0  0  0  0  0  0
  149.0908  141.1612  155.7802 C   0  0  0  0  0  0  0  0  0  0  0  0
  150.5563  141.6332  155.7505 C   0  0  0  0  0  0  0  0  0  0  0  0
  150.9890  142.3157  157.0124 C   0  0  0  0  0  0  0  0  0  0  0  0
  150.7267  143.6028  157.3822 N   0  3  0  0  0  0  0  0  0  0  0  0
  151.2934  143.8639  158.6300 C   0  0  0  0  0  0  0  0  0  0  0  0
  151.2937  145.0188  159.4062 C   0  0  0  0  0  0  0  0  0  0  0  0
  151.9716  144.9509  160.6410 C   0  0  0  0  0  0  0  0  0  0  0  0
  152.6160  143.7690  161.0604 C   0  0  0  0  0  0  0  0  0  0  0  0
  152.6087  142.6046  160.2642 C   0  0  0  0  0  0  0  0  0  0  0  0
  151.9339  142.6788  159.0456 C   0  0  0  0  0  0  0  0  0  0  0  0
  151.7186  141.7522  158.0178 N   0  0  0  0  0  0  0  0  0  0  0  0
  152.2612  140.3892  158.1372 C   0  0  0  0  0  0  0  0  0  0  0  0
  151.6176  139.5847  159.2842 C   0  0  1  0  0  0  0  0  0  0  0  0
  150.6809  138.6601  158.7659 O   0  0  0  0  0  0  0  0  0  0  0  0
  152.6740  138.9104  160.1451 C   0  0  0  0  0  0  0  0  0  0  0  0
  152.6207  137.5168  160.3632 C   0  0  0  0  0  0  0  0  0  0  0  0
  153.5908  136.8861  161.1664 C   0  0  0  0  0  0  0  0  0  0  0  0
  154.6181  137.6455  161.7584 C   0  0  0  0  0  0  0  0  0  0  0  0
  155.5493  137.0388  162.5316 F   0  0  0  0  0  0  0  0  0  0  0  0
  154.6750  139.0365  161.5471 C   0  0  0  0  0  0  0  0  0  0  0  0
  153.7052  139.6678  160.7439 C   0  0  0  0  0  0  0  0  0  0  0  0
  149.3137  140.4166  152.6654 H   0  0  0  0  0  0  0  0  0  0  0  0
  147.5752  140.5195  154.3520 H   0  0  0  0  0  0  0  0  0  0  0  0
  148.9222  139.4061  154.5194 H   0  0  0  0  0  0  0  0  0  0  0  0
  148.4428  142.0233  155.9422 H   0  0  0  0  0  0  0  0  0  0  0  0
  148.9281  140.4896  156.6247 H   0  0  0  0  0  0  0  0  0  0  0  0
  151.2187  140.7844  155.5781 H   0  0  0  0  0  0  0  0  0  0  0  0
  150.7047  142.3197  154.9167 H   0  0  0  0  0  0  0  0  0  0  0  0
  150.8024  145.9257  159.0857 H   0  0  0  0  0  0  0  0  0  0  0  0
  151.9989  145.8228  161.2783 H   0  0  0  0  0  0  0  0  0  0  0  0
  153.1274  143.7549  162.0117 H   0  0  0  0  0  0  0  0  0  0  0  0
  153.1109  141.7071  160.5932 H   0  0  0  0  0  0  0  0  0  0  0  0
  152.1589  139.8738  157.1821 H   0  0  0  0  0  0  0  0  0  0  0  0
  153.3335  140.4857  158.3121 H   0  0  0  0  0  0  0  0  0  0  0  0
  151.0533  140.2708  159.9169 H   0  0  0  0  0  0  0  0  0  0  0  0
  150.1712  138.3171  159.4842 H   0  0  0  0  0  0  0  0  0  0  0  0
  151.8349  136.9253  159.9168 H   0  0  0  0  0  0  0  0  0  0  0  0
  153.5463  135.8191  161.3289 H   0  0  0  0  0  0  0  0  0  0  0  0
  155.4618  139.6199  162.0024 H   0  0  0  0  0  0  0  0  0  0  0  0
  153.7548  140.7360  160.5906 H   0  0  0  0  0  0  0  0  0  0  0  0
  150.1956  144.2534  156.8180 H   0  0  0  0  0  0  0  0  0  0  0  0
  1  2  1  0  0  0  0
  1 24  1  0  0  0  0
  2  3  1  0  0  0  0
  2 25  1  0  0  0  0
  2 26  1  0  0  0  0
  3  4  1  0  0  0  0
  3 27  1  0  0  0  0
  3 28  1  0  0  0  0
  4  5  1  0  0  0  0
  4 29  1  0  0  0  0
  4 30  1  0  0  0  0
  5 13  1  0  0  0  0
  5  6  2  0  0  0  0
  6  7  1  0  0  0  0
  6 43  1  0  0  0  0
  7 12  2  0  0  0  0
  7  8  1  0  0  0  0
  8  9  2  0  0  0  0
  8 31  1  0  0  0  0
  9 10  1  0  0  0  0
  9 32  1  0  0  0  0
 10 11  2  0  0  0  0
 10 33  1  0  0  0  0
 11 12  1  0  0  0  0
 11 34  1  0  0  0  0
 12 13  1  0  0  0  0
 13 14  1  0  0  0  0
 14 15  1  0  0  0  0
 14 35  1  0  0  0  0
 14 36  1  0  0  0  0
 15 16  1  0  0  0  0
 15 17  1  0  0  0  0
 15 37  1  0  0  0  0
 16 38  1  0  0  0  0
 17 23  1  0  0  0  0
 17 18  2  0  0  0  0
 18 19  1  0  0  0  0
 18 39  1  0  0  0  0
 19 20  2  0  0  0  0
 19 40  1  0  0  0  0
 20 21  1  0  0  0  0
 20 22  1  0  0  0  0
 22 23  2  0  0  0  0
 22 41  1  0  0  0  0
 23 42  1  0  0  0  0
M  CHG  1   6   1
M  END
> <s_m_source_file>
AV-unprocessed.smi

> <i_m_source_file_index>
1021

> <i_lp_mmshare_version>
43012

> <i_f3d_flags>
0

> <s_epik_input>
W09IXVtDSDJdW0NIMl1bQ0gyXWMobjEpbihjKGMxMilbY0hdW2NIXVtjSF1bY0hdMilbQ0gyXVtDQEhdKFtPSF0pYzNbY0hdW2NIXWMoRilbY0hdW2NIXTM=

> <s_epik_cmdline>
J2VwaWtfcHl0aG9uJywgJy1waCcsICc3LjAnLCAnLXRuJywgJzgnLCAnLW1hJywgJzIwMCcsICctbWV0YWxfYmluZGluZycsICctaW1hZScsICc8aW5maWxlLm1hZT4nLCAnLW9tYWUnLCAnPG91dGZpbGUubWFlPic=

> <r_epik_Ionization_Penalty>
0.786441

> <r_epik_Ionization_Penalty_Charging>
0.786439

> <r_epik_Ionization_Penalty_Neutral>
1.96029e-06

> <r_epik_State_Penalty>
0.816472

> <r_epik_Charging_Adjusted_Penalty>
1.60291

> <i_epik_Tot_Q>
1

> <i_epik_Tot_abs_Q>
1

> <r_epik_Metal_State_Penalty>
4.73733

> <b_epik_Metal_Only>
0

> <s_lp_Force_Field>
OPLS_2005

> <r_lp_Energy>
16.4086

> <b_lp_Chiralities_Consistent>
1

> <s_lp_Variant>
AV-unprocessed.smi:1021-4

> <Gold.Version>
5.8.1

> <Gold.Id.Protein>
6NUR|6NUR_protein|mol2

> <Gold.PLP.Fitness>
56.4941

> <Gold.PLP.PLP>
-47.7896

> <Gold.PLP.part.hbond>
-3.6179

> <Gold.PLP.part.metal>
0.0000

> <Gold.PLP.part.buried>
-6.9475

> <Gold.PLP.part.nonpolar>
-37.6952

> <Gold.PLP.part.repulsive>
0.0000

> <Gold.PLP.ligand.clash>
0.0000

> <Gold.PLP.ligand.torsion>
1.1176

> <Gold.PLP.Chemscore.Hbond>
3.6193

> <Gold.PLP.Chemscore.CHOScore>
0.0000

> <Gold.PLP.Chemscore.Metal>
0.0000

> <Gold.Chemscore.Hbonds>
donor molecule, donor type, donor heavy atom, donor atom, acceptor molecule, acceptor atom, score
      L1  H     1    24       P1  7957  1.00
      L1  H     6    43       P1  8028  2.00
      P1  H  7989  7998       L1     1  0.03
      P1  H  8011  8017       L1     1  0.70

> <Gold.PLP.Chemscore.Internal.Correction>
0.0819

> <Gold.Rescore>
     Score         DG    S(hbond)    S(metal)    S(lipo)     H(rot)  DE(clash)    DE(int)     intcor
     18.92     -20.06       1.93        0.00     138.52       3.16       0.04       1.10       ----

> <Gold.Chemscore.Fitness>
18.9168

> <Gold.Chemscore.DG>
-20.0551

> <Gold.Chemscore.ZeroCoef>
-5.4800

> <Gold.Chemscore.Hbond>
1.9340

> <Gold.Chemscore.Metal>
0.0000

> <Gold.Chemscore.Lipo>
138.5153

> <Gold.Chemscore.Internal_Hbond>
0.0000

> <Gold.Chemscore.DEClash>
0.0419

> <Gold.Chemscore.DEInternal>
1.0964

> <Gold.Chemscore.Rot>
3.1604

> <Gold.Chemscore.Internal.Correction>
   9.000000E+99

> <Gold.Chemscore.Hbonds>
donor molecule, donor type, donor heavy atom, donor atom, acceptor molecule, acceptor atom, score
      L1  H     1    24       P1  7957  0.92
      L1  H     6    43       P1  8028  0.94
      P1  H  8011  8017       L1     1  0.07

> <Gold.Chemscore.Hbond.Weighted>
-6.4595

> <Gold.Chemscore.Metal.Weighted>
-0.0000

> <Gold.Chemscore.Lipo.Weighted>
-16.2063

> <Gold.Chemscore.Internal_Hbond.Weighted>
0.0000

> <Gold.Chemscore.DEClash.Weighted>
0.0419

> <Gold.Chemscore.DEInternal.Weighted>
1.0964

> <Gold.Chemscore.Rot.Weighted>
8.0907

> <Gold.Chemscore.Internal.Correction.Weighted>
   9.000000E+99

> <Gold.Protein.RotatedTorsions>
[ 6907 6896 6895 6894 ] final    7.47 input  -60.11 | X-H torsion
[ 7974 7965 7964 7962 ] final   48.88 input  175.53 | X-H torsion
[ 8008 7997 7996 7995 ] final  169.71 input   59.86 | X-H torsion
[ 10167 10162 10161 10158 ] final -148.09 input  -65.29 | X-H torsion
[ 10718 10713 10712 10709 ] final  -40.58 input   66.30 | X-H torsion
[ 10763 10752 10751 10750 ] final -101.67 input  -60.55 | X-H torsion
[ 11005 11000 10999 10996 ] final    9.32 input  -57.11 | X-H torsion

> <Gold.Protein.ActiveResidues>
 VAL166  LYS551  ARG553  GLY616  TRP617  ASP618  TYR619  PRO620  LYS621  CYS622 
 ASP623  PHE694  ASN695  SER759  ASP760  ASP761  ALA762  ILE779  LEU786  VAL792 
 PHE793  MET794  SER795  GLU796  ALA797  LYS798  CYS799  TRP800  GLU811  SER814 

> <Gold.Protein.RotatedAtoms>
  151.6904  135.0947  160.0232 H   0  0  0  0  0  0  0  0  0  0  0  0  # atno 6907 bound_to 6896
  152.3782  133.6505  159.6148 H   0  0  0  0  0  0  0  0  0  0  0  0  # atno 6908 bound_to 6896
  150.7726  133.9075  159.3401 H   0  0  0  0  0  0  0  0  0  0  0  0  # atno 6909 bound_to 6896
  146.0162  139.4599  142.9925 H   0  0  0  0  0  0  0  0  0  0  0  0  # atno 7974 bound_to 7965
  156.1432  140.1557  156.8887 H   0  0  0  0  0  0  0  0  0  0  0  0  # atno 8008 bound_to 7997
  154.5006  140.0826  156.7827 H   0  0  0  0  0  0  0  0  0  0  0  0  # atno 8009 bound_to 7997
  155.4038  140.3415  155.4261 H   0  0  0  0  0  0  0  0  0  0  0  0  # atno 8010 bound_to 7997
  139.7563  143.8443  152.2597 H   0  0  0  0  0  0  0  0  0  0  0  0  # atno 10167 bound_to 10162
  156.2798  130.4216  149.8349 H   0  0  0  0  0  0  0  0  0  0  0  0  # atno 10718 bound_to 10713
  154.7675  135.4889  153.9583 H   0  0  0  0  0  0  0  0  0  0  0  0  # atno 10763 bound_to 10752
  153.1326  135.6756  153.9161 H   0  0  0  0  0  0  0  0  0  0  0  0  # atno 10764 bound_to 10752
  153.8860  135.3126  155.3425 H   0  0  0  0  0  0  0  0  0  0  0  0  # atno 10765 bound_to 10752
  140.5270  134.0503  155.7862 H   0  0  0  0  0  0  0  0  0  0  0  0  # atno 11005 bound_to 11000
  145.7265  141.0057  143.1375 LP  0  0  0  0  0  0  0  0  0  0  0  0  # atno 17320 bound_to 7965
  144.6972  139.8932  143.7454 LP  0  0  0  0  0  0  0  0  0  0  0  0  # atno 17321 bound_to 7965
  139.8436  144.7198  150.9300 LP  0  0  0  0  0  0  0  0  0  0  0  0  # atno 17342 bound_to 10162
  140.7803  143.3961  151.1227 LP  0  0  0  0  0  0  0  0  0  0  0  0  # atno 17343 bound_to 10162
  156.5801  130.8462  151.3380 LP  0  0  0  0  0  0  0  0  0  0  0  0  # atno 17370 bound_to 10713
  157.7311  130.9694  150.1862 LP  0  0  0  0  0  0  0  0  0  0  0  0  # atno 17371 bound_to 10713
  141.1302  133.9314  157.2550 LP  0  0  0  0  0  0  0  0  0  0  0  0  # atno 17394 bound_to 11000
  139.9575  135.0162  156.9168 LP  0  0  0  0  0  0  0  0  0  0  0  0  # atno 17395 bound_to 11000

$$$$
