AV-unprocessed.smi:1265|AV-procd|sdf|5319|dock4
  -GOLD-   22720 4443D 1   1.00000     0.00000
 Structure written by MMmdl.
 45 47  0  0  0  0  0  0  0  0  2 V2000
  144.7813  135.7568  153.3651 O   0  0  0  0  0  0  0  0  0  0  0  0
  145.8832  135.8489  152.8266 C   0  0  0  0  0  0  0  0  0  0  0  0
  146.8062  136.7508  153.1913 N   0  0  0  0  0  0  0  0  0  0  0  0
  146.6574  137.7312  154.2674 C   0  0  0  0  0  0  0  0  0  0  0  0
  147.8819  138.6920  154.4089 C   0  0  1  0  0  0  0  0  0  0  0  0
  149.1463  137.8661  154.4266 N   0  3  0  0  0  0  0  0  0  0  0  0
  150.4349  138.6007  154.5694 C   0  0  0  0  0  0  0  0  0  0  0  0
  151.6343  137.6419  154.4609 C   0  0  0  0  0  0  0  0  0  0  0  0
  151.5182  136.5967  155.4145 O   0  0  0  0  0  0  0  0  0  0  0  0
  150.3501  135.8210  155.1957 C   0  0  0  0  0  0  0  0  0  0  0  0
  149.1122  136.7132  155.3709 C   0  0  0  0  0  0  0  0  0  0  0  0
  147.8538  139.7558  153.2746 C   0  0  0  0  0  0  0  0  0  0  0  0
  146.6920  140.7188  153.5374 C   0  0  0  0  0  0  0  0  0  0  0  0
  146.5492  140.8937  155.3325 S   0  0  0  0  0  0  0  0  0  0  0  0
  147.7224  139.5548  155.6829 C   0  0  0  0  0  0  0  0  0  0  0  0
  146.3311  135.0807  151.8176 N   0  0  0  0  0  0  0  0  0  0  0  0
  145.6776  134.0243  151.1233 C   0  0  0  0  0  0  0  0  0  0  0  0
  146.4888  132.9947  150.6020 C   0  0  0  0  0  0  0  0  0  0  0  0
  145.8794  131.9346  149.9016 C   0  0  0  0  0  0  0  0  0  0  0  0
  144.5487  131.8508  149.6962 N   0  0  0  0  0  0  0  0  0  0  0  0
  143.7730  132.8395  150.1879 C   0  0  0  0  0  0  0  0  0  0  0  0
  144.2807  133.9446  150.9007 C   0  0  0  0  0  0  0  0  0  0  0  0
  147.6918  136.7397  152.7069 H   0  0  0  0  0  0  0  0  0  0  0  0
  145.7215  138.2775  154.1524 H   0  0  0  0  0  0  0  0  0  0  0  0
  146.5144  137.1642  155.1862 H   0  0  0  0  0  0  0  0  0  0  0  0
  150.5561  139.3372  153.7765 H   0  0  0  0  0  0  0  0  0  0  0  0
  150.4608  139.1296  155.5230 H   0  0  0  0  0  0  0  0  0  0  0  0
  151.7052  137.2235  153.4555 H   0  0  0  0  0  0  0  0  0  0  0  0
  152.5631  138.1828  154.6432 H   0  0  0  0  0  0  0  0  0  0  0  0
  150.3714  135.3673  154.2035 H   0  0  0  0  0  0  0  0  0  0  0  0
  150.3294  135.0053  155.9188 H   0  0  0  0  0  0  0  0  0  0  0  0
  149.0776  137.0712  156.4006 H   0  0  0  0  0  0  0  0  0  0  0  0
  148.2234  136.1042  155.2159 H   0  0  0  0  0  0  0  0  0  0  0  0
  148.7458  140.3799  153.3012 H   0  0  0  0  0  0  0  0  0  0  0  0
  147.8063  139.3203  152.2771 H   0  0  0  0  0  0  0  0  0  0  0  0
  146.8553  141.6889  153.0672 H   0  0  0  0  0  0  0  0  0  0  0  0
  145.7568  140.3207  153.1435 H   0  0  0  0  0  0  0  0  0  0  0  0
  147.3915  138.9795  156.5482 H   0  0  0  0  0  0  0  0  0  0  0  0
  148.6696  140.0242  155.9492 H   0  0  0  0  0  0  0  0  0  0  0  0
  147.2798  135.2569  151.5214 H   0  0  0  0  0  0  0  0  0  0  0  0
  147.5607  133.0095  150.7360 H   0  0  0  0  0  0  0  0  0  0  0  0
  146.4785  131.1331  149.4949 H   0  0  0  0  0  0  0  0  0  0  0  0
  142.7125  132.7499  150.0049 H   0  0  0  0  0  0  0  0  0  0  0  0
  143.5899  134.6958  151.2484 H   0  0  0  0  0  0  0  0  0  0  0  0
  149.1931  137.4599  153.5030 H   0  0  0  0  0  0  0  0  0  0  0  0
  1  2  2  0  0  0  0
  2  3  1  0  0  0  0
  2 16  1  0  0  0  0
  3  4  1  0  0  0  0
  3 23  1  0  0  0  0
  4  5  1  0  0  0  0
  4 24  1  0  0  0  0
  4 25  1  0  0  0  0
  5 15  1  0  0  0  0
  5  6  1  0  0  0  0
  5 12  1  0  0  0  0
  6 11  1  0  0  0  0
  6  7  1  0  0  0  0
  6 45  1  0  0  0  0
  7  8  1  0  0  0  0
  7 26  1  0  0  0  0
  7 27  1  0  0  0  0
  8  9  1  0  0  0  0
  8 28  1  0  0  0  0
  8 29  1  0  0  0  0
  9 10  1  0  0  0  0
 10 11  1  0  0  0  0
 10 30  1  0  0  0  0
 10 31  1  0  0  0  0
 11 32  1  0  0  0  0
 11 33  1  0  0  0  0
 12 13  1  0  0  0  0
 12 34  1  0  0  0  0
 12 35  1  0  0  0  0
 13 14  1  0  0  0  0
 13 36  1  0  0  0  0
 13 37  1  0  0  0  0
 14 15  1  0  0  0  0
 15 38  1  0  0  0  0
 15 39  1  0  0  0  0
 16 17  1  0  0  0  0
 16 40  1  0  0  0  0
 17 22  1  0  0  0  0
 17 18  2  0  0  0  0
 18 19  1  0  0  0  0
 18 41  1  0  0  0  0
 19 20  2  0  0  0  0
 19 42  1  0  0  0  0
 20 21  1  0  0  0  0
 21 22  2  0  0  0  0
 21 43  1  0  0  0  0
 22 44  1  0  0  0  0
M  CHG  1   6   1
M  END
> <s_m_source_file>
AV-unprocessed.smi

> <i_m_source_file_index>
1265

> <i_lp_mmshare_version>
43012

> <i_f3d_flags>
0

> <s_epik_input>
W2NIXTFbY0hdbltjSF1bY0hdYzFbTkhdQyg9TylbTkhdW0NIMl1bQ0BdMihbQ0gyXVtDSDJdU1tDSDJdMilOM1tDSDJdW0NIMl1PW0NIMl1bQ0gyXTM=

> <s_epik_cmdline>
J2VwaWtfcHl0aG9uJywgJy1waCcsICc3LjAnLCAnLXRuJywgJzgnLCAnLW1hJywgJzIwMCcsICctbWV0YWxfYmluZGluZycsICctaW1hZScsICc8aW5maWxlLm1hZT4nLCAnLW9tYWUnLCAnPG91dGZpbGUubWFlPic=

> <r_epik_Ionization_Penalty>
2.1318

> <r_epik_Ionization_Penalty_Charging>
2.03219

> <r_epik_Ionization_Penalty_Neutral>
0.0996087

> <r_epik_State_Penalty>
2.24194

> <r_epik_Charging_Adjusted_Penalty>
4.27413

> <i_epik_Tot_Q>
1

> <i_epik_Tot_abs_Q>
1

> <r_epik_Metal_State_Penalty>
2.2363

> <b_epik_Metal_Only>
0

> <s_lp_Force_Field>
OPLS_2005

> <r_lp_Energy>
49.9245

> <b_lp_Chiralities_Consistent>
1

> <s_lp_Variant>
AV-unprocessed.smi:1265-5

> <Gold.Version>
5.8.1

> <Gold.Id.Protein>
6NUR|6NUR_protein|mol2

> <Gold.PLP.Fitness>
51.4961

> <Gold.PLP.PLP>
-31.8340

> <Gold.PLP.part.hbond>
-4.8861

> <Gold.PLP.part.metal>
0.0000

> <Gold.PLP.part.buried>
-1.5840

> <Gold.PLP.part.nonpolar>
-27.4040

> <Gold.PLP.part.repulsive>
0.3578

> <Gold.PLP.ligand.clash>
0.0000

> <Gold.PLP.ligand.torsion>
0.3936

> <Gold.PLP.Chemscore.Hbond>
5.0325

> <Gold.PLP.Chemscore.CHOScore>
1.7433

> <Gold.PLP.Chemscore.Metal>
0.0000

> <Gold.Chemscore.Hbonds>
donor molecule, donor type, donor heavy atom, donor atom, acceptor molecule, acceptor atom, score
      L1  H     3    23       P1  7948  1.00
      L1  H     6    45       P1  7948  1.95
      L1  H    16    40       P1  7948  0.98
      P1  H 10752 10764       L1     9  0.90
      P1  H 10785 10796       L1    20  0.08
      L1  C    19    42       P1 10747  0.65
      L1  C    21    43       P1 10186  1.00

> <Gold.PLP.Chemscore.Internal.Correction>
0.1221

> <Gold.Rescore>
     Score         DG    S(hbond)    S(metal)    S(lipo)     H(rot)  DE(clash)    DE(int)     intcor
     21.88     -22.38       3.19        0.00      85.84       1.49       0.01       0.48       ----

> <Gold.Chemscore.Fitness>
21.8825

> <Gold.Chemscore.DG>
-22.3755

> <Gold.Chemscore.ZeroCoef>
-5.4800

> <Gold.Chemscore.Hbond>
3.1905

> <Gold.Chemscore.Metal>
0.0000

> <Gold.Chemscore.Lipo>
85.8409

> <Gold.Chemscore.Internal_Hbond>
0.0000

> <Gold.Chemscore.DEClash>
0.0126

> <Gold.Chemscore.DEInternal>
0.4804

> <Gold.Chemscore.Rot>
1.4860

> <Gold.Chemscore.Internal.Correction>
   9.000000E+99

> <Gold.Chemscore.Hbonds>
donor molecule, donor type, donor heavy atom, donor atom, acceptor molecule, acceptor atom, score
      L1  H     3    23       P1  7948  0.98
      L1  H     6    45       P1  7948  0.91
      L1  H    16    40       P1  7948  0.84
      P1  H 10752 10764       L1     9  0.11
      P1  H 10785 10796       L1    20  0.07

> <Gold.Chemscore.Hbond.Weighted>
-10.6563

> <Gold.Chemscore.Metal.Weighted>
-0.0000

> <Gold.Chemscore.Lipo.Weighted>
-10.0434

> <Gold.Chemscore.Internal_Hbond.Weighted>
0.0000

> <Gold.Chemscore.DEClash.Weighted>
0.0126

> <Gold.Chemscore.DEInternal.Weighted>
0.4804

> <Gold.Chemscore.Rot.Weighted>
3.8042

> <Gold.Chemscore.Internal.Correction.Weighted>
   9.000000E+99

> <Gold.Protein.RotatedTorsions>
[ 6907 6896 6895 6894 ] final   39.38 input  -60.11 | X-H torsion
[ 7974 7965 7964 7962 ] final  175.90 input  175.53 | X-H torsion
[ 8008 7997 7996 7995 ] final  -89.77 input   59.86 | X-H torsion
[ 10167 10162 10161 10158 ] final  113.78 input  -65.29 | X-H torsion
[ 10718 10713 10712 10709 ] final  172.89 input   66.30 | X-H torsion
[ 10763 10752 10751 10750 ] final  -45.25 input  -60.55 | X-H torsion
[ 11005 11000 10999 10996 ] final  165.39 input  -57.11 | X-H torsion

> <Gold.Protein.ActiveResidues>
 VAL166  LYS551  ARG553  GLY616  TRP617  ASP618  TYR619  PRO620  LYS621  CYS622 
 ASP623  PHE694  ASN695  SER759  ASP760  ASP761  ALA762  ILE779  LEU786  VAL792 
 PHE793  MET794  SER795  GLU796  ALA797  LYS798  CYS799  TRP800  GLU811  SER814 

> <Gold.Protein.RotatedAtoms>
  152.1688  134.8851  160.0535 H   0  0  0  0  0  0  0  0  0  0  0  0  # atno 6907 bound_to 6896
  151.9819  133.3755  159.4119 H   0  0  0  0  0  0  0  0  0  0  0  0  # atno 6908 bound_to 6896
  150.6898  134.3953  159.5138 H   0  0  0  0  0  0  0  0  0  0  0  0  # atno 6909 bound_to 6896
  144.7193  140.0015  143.6440 H   0  0  0  0  0  0  0  0  0  0  0  0  # atno 7974 bound_to 7965
  154.6906  140.0538  157.0359 H   0  0  0  0  0  0  0  0  0  0  0  0  # atno 8008 bound_to 7997
  155.0822  140.3210  155.4579 H   0  0  0  0  0  0  0  0  0  0  0  0  # atno 8009 bound_to 7997
  156.2727  140.2063  156.5950 H   0  0  0  0  0  0  0  0  0  0  0  0  # atno 8010 bound_to 7997
  139.6436  144.7125  151.2187 H   0  0  0  0  0  0  0  0  0  0  0  0  # atno 10167 bound_to 10162
  156.9724  131.0094  151.2902 H   0  0  0  0  0  0  0  0  0  0  0  0  # atno 10718 bound_to 10713
  154.0254  135.6664  153.4776 H   0  0  0  0  0  0  0  0  0  0  0  0  # atno 10763 bound_to 10752
  153.0562  135.5054  154.7983 H   0  0  0  0  0  0  0  0  0  0  0  0  # atno 10764 bound_to 10752
  154.6911  135.3061  154.9442 H   0  0  0  0  0  0  0  0  0  0  0  0  # atno 10765 bound_to 10752
  140.2556  134.7942  157.3542 H   0  0  0  0  0  0  0  0  0  0  0  0  # atno 11005 bound_to 11000
  146.0331  139.3353  143.0743 LP  0  0  0  0  0  0  0  0  0  0  0  0  # atno 17320 bound_to 7965
  145.8428  140.9571  143.0790 LP  0  0  0  0  0  0  0  0  0  0  0  0  # atno 17321 bound_to 7965
  140.7503  143.6269  150.8460 LP  0  0  0  0  0  0  0  0  0  0  0  0  # atno 17342 bound_to 10162
  139.9909  143.5848  152.2910 LP  0  0  0  0  0  0  0  0  0  0  0  0  # atno 17343 bound_to 10162
  157.5583  130.8229  149.8233 LP  0  0  0  0  0  0  0  0  0  0  0  0  # atno 17370 bound_to 10713
  156.0277  130.3774  150.1775 LP  0  0  0  0  0  0  0  0  0  0  0  0  # atno 17371 bound_to 10713
  140.1515  134.4844  155.7958 LP  0  0  0  0  0  0  0  0  0  0  0  0  # atno 17394 bound_to 11000
  141.2196  133.6864  156.7386 LP  0  0  0  0  0  0  0  0  0  0  0  0  # atno 17395 bound_to 11000

$$$$
