AV-unprocessed.smi:1203|AV-procd|sdf|5034|dock2
  -GOLD-   22720 4 53D 1   1.00000     0.00000
 Structure written by MMmdl.
 39 40  0  0  0  0  0  0  0  0  1 V2000
  144.7502  140.7988  156.5013 C   0  0  0  0  0  0  0  0  0  0  0  0
  146.2422  139.8007  156.8959 S   0  0  0  0  0  0  0  0  0  0  0  0
  147.0504  140.5116  157.8982 O   0  0  0  0  0  0  0  0  0  0  0  0
  145.8124  138.4165  157.1464 O   0  0  0  0  0  0  0  0  0  0  0  0
  147.1172  139.8150  155.4027 N   0  0  0  0  0  0  0  0  0  0  0  0
  146.6146  139.0110  154.2790 C   0  0  0  0  0  0  0  0  0  0  0  0
  147.0930  139.7220  153.0149 C   0  0  0  0  0  0  0  0  0  0  0  0
  147.1632  141.1781  153.4526 C   0  0  0  0  0  0  0  0  0  0  0  0
  147.6607  141.0941  154.9073 C   0  0  2  0  0  0  0  0  0  0  0  0
  149.1903  141.1832  155.0540 C   0  0  0  0  0  0  0  0  0  0  0  0
  149.9364  140.3973  154.4693 O   0  0  0  0  0  0  0  0  0  0  0  0
  149.6459  142.1479  155.8678 N   0  0  0  0  0  0  0  0  0  0  0  0
  151.0362  142.3307  156.2678 C   0  0  0  0  0  0  0  0  0  0  0  0
  151.2799  141.9498  157.7422 C   0  0  0  0  0  0  0  0  0  0  0  0
  151.5296  143.1468  158.6454 C   0  0  0  0  0  0  0  0  0  0  0  0
  151.9874  142.9740  159.9685 C   0  0  0  0  0  0  0  0  0  0  0  0
  152.1954  144.1132  160.7691 C   0  0  0  0  0  0  0  0  0  0  0  0
  151.9379  145.3807  160.2106 C   0  0  0  0  0  0  0  0  0  0  0  0
  151.4952  145.5582  158.9471 N   0  0  0  0  0  0  0  0  0  0  0  0
  151.2988  144.4604  158.1856 C   0  0  0  0  0  0  0  0  0  0  0  0
  144.1092  140.8548  157.3808 H   0  0  0  0  0  0  0  0  0  0  0  0
  144.2036  140.3242  155.6874 H   0  0  0  0  0  0  0  0  0  0  0  0
  145.0457  141.8048  156.2052 H   0  0  0  0  0  0  0  0  0  0  0  0
  146.9772  137.9852  154.3427 H   0  0  0  0  0  0  0  0  0  0  0  0
  145.5246  138.9891  154.3044 H   0  0  0  0  0  0  0  0  0  0  0  0
  148.0867  139.3666  152.7388 H   0  0  0  0  0  0  0  0  0  0  0  0
  146.4287  139.5659  152.1647 H   0  0  0  0  0  0  0  0  0  0  0  0
  147.7842  141.7823  152.7907 H   0  0  0  0  0  0  0  0  0  0  0  0
  146.1637  141.6153  153.4358 H   0  0  0  0  0  0  0  0  0  0  0  0
  147.2329  141.9213  155.4752 H   0  0  0  0  0  0  0  0  0  0  0  0
  148.9653  142.7586  156.2972 H   0  0  0  0  0  0  0  0  0  0  0  0
  151.7014  141.7699  155.6097 H   0  0  0  0  0  0  0  0  0  0  0  0
  151.2746  143.3847  156.1230 H   0  0  0  0  0  0  0  0  0  0  0  0
  150.4216  141.3950  158.1231 H   0  0  0  0  0  0  0  0  0  0  0  0
  152.1300  141.2703  157.8110 H   0  0  0  0  0  0  0  0  0  0  0  0
  152.1693  141.9869  160.3676 H   0  0  0  0  0  0  0  0  0  0  0  0
  152.5428  144.0174  161.7871 H   0  0  0  0  0  0  0  0  0  0  0  0
  152.0852  146.2757  160.7968 H   0  0  0  0  0  0  0  0  0  0  0  0
  150.9431  144.6350  157.1809 H   0  0  0  0  0  0  0  0  0  0  0  0
  1  2  1  0  0  0  0
  1 21  1  0  0  0  0
  1 22  1  0  0  0  0
  1 23  1  0  0  0  0
  2  3  2  0  0  0  0
  2  4  2  0  0  0  0
  2  5  1  0  0  0  0
  5  9  1  0  0  0  0
  5  6  1  0  0  0  0
  6  7  1  0  0  0  0
  6 24  1  0  0  0  0
  6 25  1  0  0  0  0
  7  8  1  0  0  0  0
  7 26  1  0  0  0  0
  7 27  1  0  0  0  0
  8  9  1  0  0  0  0
  8 28  1  0  0  0  0
  8 29  1  0  0  0  0
  9 10  1  0  0  0  0
  9 30  1  0  0  0  0
 10 11  2  0  0  0  0
 10 12  1  0  0  0  0
 12 13  1  0  0  0  0
 12 31  1  0  0  0  0
 13 14  1  0  0  0  0
 13 32  1  0  0  0  0
 13 33  1  0  0  0  0
 14 15  1  0  0  0  0
 14 34  1  0  0  0  0
 14 35  1  0  0  0  0
 15 20  1  0  0  0  0
 15 16  2  0  0  0  0
 16 17  1  0  0  0  0
 16 36  1  0  0  0  0
 17 18  2  0  0  0  0
 17 37  1  0  0  0  0
 18 19  1  0  0  0  0
 18 38  1  0  0  0  0
 19 20  2  0  0  0  0
 20 39  1  0  0  0  0
M  END
> <s_m_source_file>
AV-unprocessed.smi

> <i_m_source_file_index>
1203

> <i_lp_mmshare_version>
43012

> <i_f3d_flags>
0

> <s_epik_input>
W0NIM11TKD1PKSg9TylOMVtDSDJdW0NIMl1bQ0gyXVtDQEhdMUMoPU8pW05IXVtDSDJdW0NIMl1jMltjSF1bY0hdW2NIXW5bY0hdMg==

> <s_epik_cmdline>
J2VwaWtfcHl0aG9uJywgJy1waCcsICc3LjAnLCAnLXRuJywgJzgnLCAnLW1hJywgJzIwMCcsICctbWV0YWxfYmluZGluZycsICctaW1hZScsICc8aW5maWxlLm1hZT4nLCAnLW9tYWUnLCAnPG91dGZpbGUubWFlPic=

> <r_epik_Ionization_Penalty>
0.0126915

> <r_epik_Ionization_Penalty_Charging>
0

> <r_epik_Ionization_Penalty_Neutral>
0.0126915

> <r_epik_State_Penalty>
0.0098379

> <r_epik_Charging_Adjusted_Penalty>
0.0098379

> <i_epik_Tot_Q>
0

> <i_epik_Tot_abs_Q>
0

> <r_epik_Metal_State_Penalty>
0.00962905

> <b_epik_Metal_Only>
0

> <s_lp_Force_Field>
OPLS_2005

> <r_lp_Energy>
4.44391

> <b_lp_Chiralities_Consistent>
1

> <s_lp_Variant>
AV-unprocessed.smi:1203-2

> <Gold.Version>
5.8.1

> <Gold.Id.Protein>
6NUR|6NUR_protein|mol2

> <Gold.PLP.Fitness>
41.7651

> <Gold.PLP.PLP>
-36.0099

> <Gold.PLP.part.hbond>
-3.4923

> <Gold.PLP.part.metal>
0.0000

> <Gold.PLP.part.buried>
-5.2434

> <Gold.PLP.part.nonpolar>
-26.6203

> <Gold.PLP.part.repulsive>
0.3975

> <Gold.PLP.ligand.clash>
0.0000

> <Gold.PLP.ligand.torsion>
0.8414

> <Gold.PLP.Chemscore.Hbond>
1.2800

> <Gold.PLP.Chemscore.CHOScore>
1.0000

> <Gold.PLP.Chemscore.Metal>
0.0000

> <Gold.Chemscore.Hbonds>
donor molecule, donor type, donor heavy atom, donor atom, acceptor molecule, acceptor atom, score
      L1  H    12    31       P1  8028  0.34
      P1  H  7989  7998       L1    11  0.90
      L1  C    20    39       P1  8028  1.00

> <Gold.PLP.Chemscore.Internal.Correction>
0.5980

> <Gold.Rescore>
     Score         DG    S(hbond)    S(metal)    S(lipo)     H(rot)  DE(clash)    DE(int)     intcor
     15.29     -16.35       1.31        0.00      96.98       1.90       0.12       0.94       ----

> <Gold.Chemscore.Fitness>
15.2909

> <Gold.Chemscore.DG>
-16.3511

> <Gold.Chemscore.ZeroCoef>
-5.4800

> <Gold.Chemscore.Hbond>
1.3131

> <Gold.Chemscore.Metal>
0.0000

> <Gold.Chemscore.Lipo>
96.9795

> <Gold.Chemscore.Internal_Hbond>
0.0000

> <Gold.Chemscore.DEClash>
0.1176

> <Gold.Chemscore.DEInternal>
0.9426

> <Gold.Chemscore.Rot>
1.8990

> <Gold.Chemscore.Internal.Correction>
   9.000000E+99

> <Gold.Chemscore.Hbonds>
donor molecule, donor type, donor heavy atom, donor atom, acceptor molecule, acceptor atom, score
      L1  H    12    31       P1  8028  0.32
      P1  H  7989  7998       L1    11  0.83

> <Gold.Chemscore.Hbond.Weighted>
-4.3858

> <Gold.Chemscore.Metal.Weighted>
-0.0000

> <Gold.Chemscore.Lipo.Weighted>
-11.3466

> <Gold.Chemscore.Internal_Hbond.Weighted>
0.0000

> <Gold.Chemscore.DEClash.Weighted>
0.1176

> <Gold.Chemscore.DEInternal.Weighted>
0.9426

> <Gold.Chemscore.Rot.Weighted>
4.8613

> <Gold.Chemscore.Internal.Correction.Weighted>
   9.000000E+99

> <Gold.Protein.RotatedTorsions>
[ 6907 6896 6895 6894 ] final  105.04 input  -60.11 | X-H torsion
[ 7974 7965 7964 7962 ] final  164.07 input  175.53 | X-H torsion
[ 8008 7997 7996 7995 ] final  116.97 input   59.86 | X-H torsion
[ 10167 10162 10161 10158 ] final   58.98 input  -65.29 | X-H torsion
[ 10718 10713 10712 10709 ] final  -44.56 input   66.30 | X-H torsion
[ 10763 10752 10751 10750 ] final   30.78 input  -60.55 | X-H torsion
[ 11005 11000 10999 10996 ] final   77.52 input  -57.11 | X-H torsion

> <Gold.Protein.ActiveResidues>
 VAL166  LYS551  ARG553  GLY616  TRP617  ASP618  TYR619  PRO620  LYS621  CYS622 
 ASP623  PHE694  ASN695  SER759  ASP760  ASP761  ALA762  ILE779  LEU786  VAL792 
 PHE793  MET794  SER795  GLU796  ALA797  LYS798  CYS799  TRP800  GLU811  SER814 

> <Gold.Protein.RotatedAtoms>
  152.5244  133.9587  159.7706 H   0  0  0  0  0  0  0  0  0  0  0  0  # atno 6907 bound_to 6896
  150.9882  133.6168  159.2719 H   0  0  0  0  0  0  0  0  0  0  0  0  # atno 6908 bound_to 6896
  151.3321  135.0850  159.9395 H   0  0  0  0  0  0  0  0  0  0  0  0  # atno 6909 bound_to 6896
  144.7561  139.8273  143.6349 H   0  0  0  0  0  0  0  0  0  0  0  0  # atno 7974 bound_to 7965
  156.2469  140.2906  156.0606 H   0  0  0  0  0  0  0  0  0  0  0  0  # atno 8008 bound_to 7997
  155.1780  140.0403  157.2894 H   0  0  0  0  0  0  0  0  0  0  0  0  # atno 8009 bound_to 7997
  154.6279  140.2492  155.7476 H   0  0  0  0  0  0  0  0  0  0  0  0  # atno 8010 bound_to 7997
  140.1814  144.4178  150.6613 H   0  0  0  0  0  0  0  0  0  0  0  0  # atno 10167 bound_to 10162
  156.2373  130.4177  149.8802 H   0  0  0  0  0  0  0  0  0  0  0  0  # atno 10718 bound_to 10713
  153.0352  135.6455  154.1097 H   0  0  0  0  0  0  0  0  0  0  0  0  # atno 10763 bound_to 10752
  154.0813  135.2873  155.3291 H   0  0  0  0  0  0  0  0  0  0  0  0  # atno 10764 bound_to 10752
  154.6528  135.5420  153.7986 H   0  0  0  0  0  0  0  0  0  0  0  0  # atno 10765 bound_to 10752
  139.9251  134.7689  156.1532 H   0  0  0  0  0  0  0  0  0  0  0  0  # atno 11005 bound_to 11000
  146.1573  139.4675  143.0010 LP  0  0  0  0  0  0  0  0  0  0  0  0  # atno 17320 bound_to 7965
  145.6774  141.0200  143.1625 LP  0  0  0  0  0  0  0  0  0  0  0  0  # atno 17321 bound_to 7965
  140.6517  143.2227  151.6062 LP  0  0  0  0  0  0  0  0  0  0  0  0  # atno 17342 bound_to 10162
  139.5295  144.2960  152.1113 LP  0  0  0  0  0  0  0  0  0  0  0  0  # atno 17343 bound_to 10162
  156.6396  130.8699  151.3511 LP  0  0  0  0  0  0  0  0  0  0  0  0  # atno 17370 bound_to 10713
  157.7160  130.9498  150.1257 LP  0  0  0  0  0  0  0  0  0  0  0  0  # atno 17371 bound_to 10713
  141.0802  133.6757  156.2321 LP  0  0  0  0  0  0  0  0  0  0  0  0  # atno 17394 bound_to 11000
  140.6360  134.5215  157.5564 LP  0  0  0  0  0  0  0  0  0  0  0  0  # atno 17395 bound_to 11000

$$$$
