AV-unprocessed.smi:1142|AV-procd|sdf|4873|dock6
  -GOLD-   22720 3443D 1   1.00000     0.00000
 Structure written by MMmdl.
 33 34  0  0  0  0  0  0  0  0  1 V2000
  153.8003  137.1272  162.9942 C   0  0  0  0  0  0  0  0  0  0  0  0
  153.8295  137.3821  161.8004 C   0  0  0  0  0  0  0  0  0  0  0  0
  153.8521  137.6973  160.3622 C   0  0  0  0  0  0  0  0  0  0  0  0
  153.5155  139.0895  160.0888 N   0  0  0  0  0  0  0  0  0  0  0  0
  152.5021  139.5066  159.3115 C   0  0  0  0  0  0  0  0  0  0  0  0
  151.7221  138.7427  158.7415 O   0  0  0  0  0  0  0  0  0  0  0  0
  152.3514  141.0020  159.2082 C   0  0  0  0  0  0  0  0  0  0  0  0
  152.8069  141.8175  160.2701 C   0  0  0  0  0  0  0  0  0  0  0  0
  152.7140  143.2162  160.1625 C   0  0  0  0  0  0  0  0  0  0  0  0
  152.1729  143.7568  158.9841 C   0  0  0  0  0  0  0  0  0  0  0  0
  151.7356  142.9986  157.9592 N   0  0  0  0  0  0  0  0  0  0  0  0
  151.8159  141.6476  158.0533 C   0  0  0  0  0  0  0  0  0  0  0  0
  151.3015  140.9106  156.9668 N   0  0  0  0  0  0  0  0  0  0  0  0
  152.1934  139.9556  156.3165 C   0  0  0  0  0  0  0  0  0  0  0  0
  151.3948  139.0804  155.3354 C   0  0  0  0  0  0  0  0  0  0  0  0
  150.7102  139.9114  154.4018 O   0  0  0  0  0  0  0  0  0  0  0  0
  149.7874  140.7891  155.0412 C   0  0  0  0  0  0  0  0  0  0  0  0
  150.5396  141.7112  156.0156 C   0  0  0  0  0  0  0  0  0  0  0  0
  153.7755  136.9073  164.0379 H   0  0  0  0  0  0  0  0  0  0  0  0
  154.8337  137.4372  159.9627 H   0  0  0  0  0  0  0  0  0  0  0  0
  153.1244  137.0551  159.8662 H   0  0  0  0  0  0  0  0  0  0  0  0
  154.0954  139.7910  160.5257 H   0  0  0  0  0  0  0  0  0  0  0  0
  153.2362  141.3818  161.1609 H   0  0  0  0  0  0  0  0  0  0  0  0
  153.0567  143.8583  160.9605 H   0  0  0  0  0  0  0  0  0  0  0  0
  152.0879  144.8263  158.8605 H   0  0  0  0  0  0  0  0  0  0  0  0
  152.9773  140.4901  155.7781 H   0  0  0  0  0  0  0  0  0  0  0  0
  152.6793  139.3305  157.0666 H   0  0  0  0  0  0  0  0  0  0  0  0
  152.0660  138.4141  154.7935 H   0  0  0  0  0  0  0  0  0  0  0  0
  150.6811  138.4504  155.8687 H   0  0  0  0  0  0  0  0  0  0  0  0
  149.2755  141.3813  154.2828 H   0  0  0  0  0  0  0  0  0  0  0  0
  149.0233  140.2120  155.5653 H   0  0  0  0  0  0  0  0  0  0  0  0
  149.8323  142.3609  156.5313 H   0  0  0  0  0  0  0  0  0  0  0  0
  151.2237  142.3589  155.4656 H   0  0  0  0  0  0  0  0  0  0  0  0
  1  2  3  0  0  0  0
  1 19  1  0  0  0  0
  2  3  1  0  0  0  0
  3  4  1  0  0  0  0
  3 20  1  0  0  0  0
  3 21  1  0  0  0  0
  4  5  1  0  0  0  0
  4 22  1  0  0  0  0
  5  6  2  0  0  0  0
  5  7  1  0  0  0  0
  7 12  1  0  0  0  0
  7  8  2  0  0  0  0
  8  9  1  0  0  0  0
  8 23  1  0  0  0  0
  9 10  2  0  0  0  0
  9 24  1  0  0  0  0
 10 11  1  0  0  0  0
 10 25  1  0  0  0  0
 11 12  2  0  0  0  0
 12 13  1  0  0  0  0
 13 18  1  0  0  0  0
 13 14  1  0  0  0  0
 14 15  1  0  0  0  0
 14 26  1  0  0  0  0
 14 27  1  0  0  0  0
 15 16  1  0  0  0  0
 15 28  1  0  0  0  0
 15 29  1  0  0  0  0
 16 17  1  0  0  0  0
 17 18  1  0  0  0  0
 17 30  1  0  0  0  0
 17 31  1  0  0  0  0
 18 32  1  0  0  0  0
 18 33  1  0  0  0  0
M  END
> <s_m_source_file>
AV-unprocessed.smi

> <i_m_source_file_index>
1142

> <i_lp_mmshare_version>
43012

> <i_f3d_flags>
0

> <s_epik_input>
W0NIXSNDW0NIMl1bTkhdQyg9TyljMVtjSF1bY0hdW2NIXW5jMU4yW0NIMl1bQ0gyXU9bQ0gyXVtDSDJdMg==

> <s_epik_cmdline>
J2VwaWtfcHl0aG9uJywgJy1waCcsICc3LjAnLCAnLXRuJywgJzgnLCAnLW1hJywgJzIwMCcsICctbWV0YWxfYmluZGluZycsICctaW1hZScsICc8aW5maWxlLm1hZT4nLCAnLW9tYWUnLCAnPG91dGZpbGUubWFlPic=

> <r_lp_tautomer_probability>
1

> <r_epik_Ionization_Penalty>
1.59202e-05

> <r_epik_Ionization_Penalty_Charging>
0

> <r_epik_Ionization_Penalty_Neutral>
1.59202e-05

> <r_epik_State_Penalty>
-0

> <r_epik_Charging_Adjusted_Penalty>
0

> <i_epik_Tot_Q>
0

> <i_epik_Tot_abs_Q>
0

> <r_epik_Metal_State_Penalty>
0.00596736

> <b_epik_Metal_Only>
0

> <s_lp_Force_Field>
OPLS_2005

> <r_lp_Energy>
22.9222

> <b_lp_Chiralities_Consistent>
1

> <s_lp_Variant>
AV-unprocessed.smi:1142-1

> <Gold.Version>
5.8.1

> <Gold.Id.Protein>
6NUR|6NUR_protein|mol2

> <Gold.PLP.Fitness>
40.0085

> <Gold.PLP.PLP>
-37.7610

> <Gold.PLP.part.hbond>
-1.0000

> <Gold.PLP.part.metal>
0.0000

> <Gold.PLP.part.buried>
-3.6781

> <Gold.PLP.part.nonpolar>
-32.5607

> <Gold.PLP.part.repulsive>
0.2423

> <Gold.PLP.ligand.clash>
0.0000

> <Gold.PLP.ligand.torsion>
0.4929

> <Gold.PLP.Chemscore.Hbond>
1.0000

> <Gold.PLP.Chemscore.CHOScore>
0.0000

> <Gold.PLP.Chemscore.Metal>
0.0000

> <Gold.Chemscore.Hbonds>
donor molecule, donor type, donor heavy atom, donor atom, acceptor molecule, acceptor atom, score
      P1  H  7989  7998       L1    16  1.00

> <Gold.PLP.Chemscore.Internal.Correction>
0.2333

> <Gold.Rescore>
     Score         DG    S(hbond)    S(metal)    S(lipo)     H(rot)  DE(clash)    DE(int)     intcor
     11.96     -16.36       0.85        0.00      94.66       1.19       0.24       4.17       ----

> <Gold.Chemscore.Fitness>
11.9572

> <Gold.Chemscore.DG>
-16.3618

> <Gold.Chemscore.ZeroCoef>
-5.4800

> <Gold.Chemscore.Hbond>
0.8532

> <Gold.Chemscore.Metal>
0.0000

> <Gold.Chemscore.Lipo>
94.6597

> <Gold.Chemscore.Internal_Hbond>
0.0000

> <Gold.Chemscore.DEClash>
0.2355

> <Gold.Chemscore.DEInternal>
4.1691

> <Gold.Chemscore.Rot>
1.1887

> <Gold.Chemscore.Internal.Correction>
   9.000000E+99

> <Gold.Chemscore.Hbonds>
donor molecule, donor type, donor heavy atom, donor atom, acceptor molecule, acceptor atom, score
      P1  H  7989  7998       L1    16  0.46

> <Gold.Chemscore.Hbond.Weighted>
-2.8498

> <Gold.Chemscore.Metal.Weighted>
-0.0000

> <Gold.Chemscore.Lipo.Weighted>
-11.0752

> <Gold.Chemscore.Internal_Hbond.Weighted>
0.0000

> <Gold.Chemscore.DEClash.Weighted>
0.2355

> <Gold.Chemscore.DEInternal.Weighted>
4.1691

> <Gold.Chemscore.Rot.Weighted>
3.0432

> <Gold.Chemscore.Internal.Correction.Weighted>
   9.000000E+99

> <Gold.Protein.RotatedTorsions>
[ 6907 6896 6895 6894 ] final   36.88 input  -60.11 | X-H torsion
[ 7974 7965 7964 7962 ] final  -60.74 input  175.53 | X-H torsion
[ 8008 7997 7996 7995 ] final -119.02 input   59.86 | X-H torsion
[ 10167 10162 10161 10158 ] final   54.45 input  -65.29 | X-H torsion
[ 10718 10713 10712 10709 ] final  146.05 input   66.30 | X-H torsion
[ 10763 10752 10751 10750 ] final  -37.74 input  -60.55 | X-H torsion
[ 11005 11000 10999 10996 ] final  138.28 input  -57.11 | X-H torsion

> <Gold.Protein.ActiveResidues>
 VAL166  LYS551  ARG553  GLY616  TRP617  ASP618  TYR619  PRO620  LYS621  CYS622 
 ASP623  PHE694  ASN695  SER759  ASP760  ASP761  ALA762  ILE779  LEU786  VAL792 
 PHE793  MET794  SER795  GLU796  ALA797  LYS798  CYS799  TRP800  GLU811  SER814 

> <Gold.Protein.RotatedAtoms>
  152.1357  134.9101  160.0556 H   0  0  0  0  0  0  0  0  0  0  0  0  # atno 6907 bound_to 6896
  152.0188  133.3885  159.4258 H   0  0  0  0  0  0  0  0  0  0  0  0  # atno 6908 bound_to 6896
  150.6860  134.3570  159.4977 H   0  0  0  0  0  0  0  0  0  0  0  0  # atno 6909 bound_to 6896
  145.8119  140.8593  143.0177 H   0  0  0  0  0  0  0  0  0  0  0  0  # atno 7974 bound_to 7965
  155.1091  140.0397  157.2719 H   0  0  0  0  0  0  0  0  0  0  0  0  # atno 8008 bound_to 7997
  154.6699  140.2610  155.6993 H   0  0  0  0  0  0  0  0  0  0  0  0  # atno 8009 bound_to 7997
  156.2654  140.2800  156.1204 H   0  0  0  0  0  0  0  0  0  0  0  0  # atno 8010 bound_to 7997
  140.2300  144.3697  150.6418 H   0  0  0  0  0  0  0  0  0  0  0  0  # atno 10167 bound_to 10162
  157.3379  131.0931  151.1108 H   0  0  0  0  0  0  0  0  0  0  0  0  # atno 10718 bound_to 10713
  153.9012  135.6802  153.4755 H   0  0  0  0  0  0  0  0  0  0  0  0  # atno 10763 bound_to 10752
  153.1128  135.4775  154.9062 H   0  0  0  0  0  0  0  0  0  0  0  0  # atno 10764 bound_to 10752
  154.7574  135.3201  154.8398 H   0  0  0  0  0  0  0  0  0  0  0  0  # atno 10765 bound_to 10752
  140.0173  134.9412  157.0402 H   0  0  0  0  0  0  0  0  0  0  0  0  # atno 11005 bound_to 11000
  144.6756  140.0408  143.7481 LP  0  0  0  0  0  0  0  0  0  0  0  0  # atno 17320 bound_to 7965
  145.9768  139.2911  143.1066 LP  0  0  0  0  0  0  0  0  0  0  0  0  # atno 17321 bound_to 7965
  140.6192  143.2175  151.6729 LP  0  0  0  0  0  0  0  0  0  0  0  0  # atno 17342 bound_to 10162
  139.5113  144.3513  152.0650 LP  0  0  0  0  0  0  0  0  0  0  0  0  # atno 17343 bound_to 10162
  157.2331  130.6534  149.5858 LP  0  0  0  0  0  0  0  0  0  0  0  0  # atno 17370 bound_to 10713
  155.9704  130.4592  150.6028 LP  0  0  0  0  0  0  0  0  0  0  0  0  # atno 17371 bound_to 10713
  140.4449  134.1643  155.7176 LP  0  0  0  0  0  0  0  0  0  0  0  0  # atno 17394 bound_to 11000
  141.1751  133.8530  157.1447 LP  0  0  0  0  0  0  0  0  0  0  0  0  # atno 17395 bound_to 11000

$$$$
