AV-unprocessed.smi:1264|AV-procd|sdf|5314|dock3
  -GOLD-   22720 4443D 1   1.00000     0.00000
 Structure written by MMmdl.
 43 43  0  0  0  0  0  0  0  0  1 V2000
  151.3581  138.9355  154.8721 C   0  0  0  0  0  0  0  0  0  0  0  0
  151.9555  139.8710  155.8121 N   0  0  0  0  0  0  0  0  0  0  0  0
  151.4036  140.2200  156.9830 C   0  0  0  0  0  0  0  0  0  0  0  0
  150.3175  139.7848  157.3709 O   0  0  0  0  0  0  0  0  0  0  0  0
  152.1945  141.2287  157.8338 C   0  0  1  0  0  0  0  0  0  0  0  0
  151.2864  142.4576  158.0766 C   0  0  0  0  0  0  0  0  0  0  0  0
  152.0289  143.8031  158.2445 C   0  0  0  0  0  0  0  0  0  0  0  0
  153.1652  143.6663  159.2690 C   0  0  0  0  0  0  0  0  0  0  0  0
  151.0855  144.9503  158.6431 C   0  0  0  0  0  0  0  0  0  0  0  0
  152.5308  140.6307  159.1249 N   0  0  0  0  0  0  0  0  0  0  0  0
  153.6154  139.8819  159.3792 C   0  0  0  0  0  0  0  0  0  0  0  0
  154.4914  139.6469  158.5472 O   0  0  0  0  0  0  0  0  0  0  0  0
  153.7161  139.2955  160.7861 C   0  0  0  0  0  0  0  0  0  0  0  0
  154.0192  137.8219  160.6932 C   0  0  0  0  0  0  0  0  0  0  0  0
  154.6486  136.9955  161.6678 C   0  0  0  0  0  0  0  0  0  0  0  0
  155.1631  137.3798  163.0253 C   0  0  0  0  0  0  0  0  0  0  0  0
  154.7610  135.7436  161.2568 N   0  0  0  0  0  0  0  0  0  0  0  0
  154.2068  135.7107  159.9736 O   0  0  0  0  0  0  0  0  0  0  0  0
  153.7737  136.9582  159.6607 C   0  0  0  0  0  0  0  0  0  0  0  0
  153.1565  137.1317  158.3142 C   0  0  0  0  0  0  0  0  0  0  0  0
  152.0039  138.8198  154.0017 H   0  0  0  0  0  0  0  0  0  0  0  0
  150.3863  139.2952  154.5312 H   0  0  0  0  0  0  0  0  0  0  0  0
  151.2256  137.9550  155.3315 H   0  0  0  0  0  0  0  0  0  0  0  0
  152.8467  140.2745  155.5609 H   0  0  0  0  0  0  0  0  0  0  0  0
  153.1016  141.5213  157.3028 H   0  0  0  0  0  0  0  0  0  0  0  0
  150.5762  142.5547  157.2531 H   0  0  0  0  0  0  0  0  0  0  0  0
  150.6809  142.2806  158.9679 H   0  0  0  0  0  0  0  0  0  0  0  0
  152.4920  144.0681  157.2936 H   0  0  0  0  0  0  0  0  0  0  0  0
  152.7801  143.4067  160.2560 H   0  0  0  0  0  0  0  0  0  0  0  0
  153.7240  144.5977  159.3644 H   0  0  0  0  0  0  0  0  0  0  0  0
  153.8721  142.8906  158.9731 H   0  0  0  0  0  0  0  0  0  0  0  0
  150.5569  144.7254  159.5699 H   0  0  0  0  0  0  0  0  0  0  0  0
  150.3417  145.1477  157.8717 H   0  0  0  0  0  0  0  0  0  0  0  0
  151.6400  145.8769  158.7951 H   0  0  0  0  0  0  0  0  0  0  0  0
  151.8631  140.7609  159.8706 H   0  0  0  0  0  0  0  0  0  0  0  0
  154.4906  139.8284  161.3388 H   0  0  0  0  0  0  0  0  0  0  0  0
  152.7837  139.4791  161.3211 H   0  0  0  0  0  0  0  0  0  0  0  0
  155.6914  138.3326  162.9871 H   0  0  0  0  0  0  0  0  0  0  0  0
  155.8560  136.6354  163.4196 H   0  0  0  0  0  0  0  0  0  0  0  0
  154.3440  137.4826  163.7370 H   0  0  0  0  0  0  0  0  0  0  0  0
  152.4396  137.9526  158.3165 H   0  0  0  0  0  0  0  0  0  0  0  0
  152.6314  136.2275  158.0061 H   0  0  0  0  0  0  0  0  0  0  0  0
  153.9199  137.3519  157.5678 H   0  0  0  0  0  0  0  0  0  0  0  0
  1  2  1  0  0  0  0
  1 21  1  0  0  0  0
  1 22  1  0  0  0  0
  1 23  1  0  0  0  0
  2  3  1  0  0  0  0
  2 24  1  0  0  0  0
  3  4  2  0  0  0  0
  3  5  1  0  0  0  0
  5  6  1  0  0  0  0
  5 10  1  0  0  0  0
  5 25  1  0  0  0  0
  6  7  1  0  0  0  0
  6 26  1  0  0  0  0
  6 27  1  0  0  0  0
  7  8  1  0  0  0  0
  7  9  1  0  0  0  0
  7 28  1  0  0  0  0
  8 29  1  0  0  0  0
  8 30  1  0  0  0  0
  8 31  1  0  0  0  0
  9 32  1  0  0  0  0
  9 33  1  0  0  0  0
  9 34  1  0  0  0  0
 10 11  1  0  0  0  0
 10 35  1  0  0  0  0
 11 12  2  0  0  0  0
 11 13  1  0  0  0  0
 13 14  1  0  0  0  0
 13 36  1  0  0  0  0
 13 37  1  0  0  0  0
 14 19  2  0  0  0  0
 14 15  1  0  0  0  0
 15 16  1  0  0  0  0
 15 17  2  0  0  0  0
 16 38  1  0  0  0  0
 16 39  1  0  0  0  0
 16 40  1  0  0  0  0
 17 18  1  0  0  0  0
 18 19  1  0  0  0  0
 19 20  1  0  0  0  0
 20 41  1  0  0  0  0
 20 42  1  0  0  0  0
 20 43  1  0  0  0  0
M  END
> <s_m_source_file>
AV-unprocessed.smi

> <i_m_source_file_index>
1264

> <i_lp_mmshare_version>
43012

> <i_f3d_flags>
0

> <s_epik_input>
W0NIM11bTkhdQyg9TylbQ0BIXShbQ0gyXVtDSF0oW0NIM10pW0NIM10pW05IXUMoPU8pW0NIMl1jMWMoW0NIM10pbm9jMVtDSDNd

> <s_epik_cmdline>
J2VwaWtfcHl0aG9uJywgJy1waCcsICc3LjAnLCAnLXRuJywgJzgnLCAnLW1hJywgJzIwMCcsICctbWV0YWxfYmluZGluZycsICctaW1hZScsICc8aW5maWxlLm1hZT4nLCAnLW9tYWUnLCAnPG91dGZpbGUubWFlPic=

> <r_lp_tautomer_probability>
1

> <r_epik_Ionization_Penalty>
6.00781e-08

> <r_epik_Ionization_Penalty_Charging>
0

> <r_epik_Ionization_Penalty_Neutral>
6.00781e-08

> <r_epik_State_Penalty>
-0

> <r_epik_Charging_Adjusted_Penalty>
0

> <i_epik_Tot_Q>
0

> <i_epik_Tot_abs_Q>
0

> <r_epik_Metal_State_Penalty>
-0

> <b_epik_Metal_Only>
0

> <s_lp_Force_Field>
OPLS_2005

> <r_lp_Energy>
-0.987692

> <b_lp_Chiralities_Consistent>
1

> <s_lp_Variant>
AV-unprocessed.smi:1264-2

> <Gold.Version>
5.8.1

> <Gold.Id.Protein>
6NUR|6NUR_protein|mol2

> <Gold.PLP.Fitness>
35.8910

> <Gold.PLP.PLP>
-32.7580

> <Gold.PLP.part.hbond>
-2.0000

> <Gold.PLP.part.metal>
0.0000

> <Gold.PLP.part.buried>
-4.1215

> <Gold.PLP.part.nonpolar>
-25.5679

> <Gold.PLP.part.repulsive>
0.3059

> <Gold.PLP.ligand.clash>
0.5109

> <Gold.PLP.ligand.torsion>
1.2276

> <Gold.PLP.Chemscore.Hbond>
2.0000

> <Gold.PLP.Chemscore.CHOScore>
0.0000

> <Gold.PLP.Chemscore.Metal>
0.0000

> <Gold.Chemscore.Hbonds>
donor molecule, donor type, donor heavy atom, donor atom, acceptor molecule, acceptor atom, score
      P1  H  6896  6907       L1    18  0.91
      P1  H  7997  8010       L1    12  0.76

> <Gold.PLP.Chemscore.Internal.Correction>
0.0990

> <Gold.Rescore>
     Score         DG    S(hbond)    S(metal)    S(lipo)     H(rot)  DE(clash)    DE(int)     intcor
     15.50     -17.89       1.84        0.00      99.31       2.09       0.21       2.18       ----

> <Gold.Chemscore.Fitness>
15.4980

> <Gold.Chemscore.DG>
-17.8851

> <Gold.Chemscore.ZeroCoef>
-5.4800

> <Gold.Chemscore.Hbond>
1.8396

> <Gold.Chemscore.Metal>
0.0000

> <Gold.Chemscore.Lipo>
99.3086

> <Gold.Chemscore.Internal_Hbond>
0.0000

> <Gold.Chemscore.DEClash>
0.2071

> <Gold.Chemscore.DEInternal>
2.1799

> <Gold.Chemscore.Rot>
2.0931

> <Gold.Chemscore.Internal.Correction>
   9.000000E+99

> <Gold.Chemscore.Hbonds>
donor molecule, donor type, donor heavy atom, donor atom, acceptor molecule, acceptor atom, score
      P1  H  6896  6907       L1    18  0.14
      P1  H  7997  8010       L1    12  0.73

> <Gold.Chemscore.Hbond.Weighted>
-6.1444

> <Gold.Chemscore.Metal.Weighted>
-0.0000

> <Gold.Chemscore.Lipo.Weighted>
-11.6191

> <Gold.Chemscore.Internal_Hbond.Weighted>
0.0000

> <Gold.Chemscore.DEClash.Weighted>
0.2071

> <Gold.Chemscore.DEInternal.Weighted>
2.1799

> <Gold.Chemscore.Rot.Weighted>
5.3584

> <Gold.Chemscore.Internal.Correction.Weighted>
   9.000000E+99

> <Gold.Protein.RotatedTorsions>
[ 6907 6896 6895 6894 ] final   53.05 input  -60.11 | X-H torsion
[ 7974 7965 7964 7962 ] final -163.78 input  175.53 | X-H torsion
[ 8008 7997 7996 7995 ] final   21.09 input   59.86 | X-H torsion
[ 10167 10162 10161 10158 ] final -123.69 input  -65.29 | X-H torsion
[ 10718 10713 10712 10709 ] final   86.75 input   66.30 | X-H torsion
[ 10763 10752 10751 10750 ] final  178.67 input  -60.55 | X-H torsion
[ 11005 11000 10999 10996 ] final   98.22 input  -57.11 | X-H torsion

> <Gold.Protein.ActiveResidues>
 VAL166  LYS551  ARG553  GLY616  TRP617  ASP618  TYR619  PRO620  LYS621  CYS622 
 ASP623  PHE694  ASN695  SER759  ASP760  ASP761  ALA762  ILE779  LEU786  VAL792 
 PHE793  MET794  SER795  GLU796  ALA797  LYS798  CYS799  TRP800  GLU811  SER814 

> <Gold.Protein.RotatedAtoms>
  152.3297  134.7275  160.0292 H   0  0  0  0  0  0  0  0  0  0  0  0  # atno 6907 bound_to 6896
  151.7696  133.3335  159.3449 H   0  0  0  0  0  0  0  0  0  0  0  0  # atno 6908 bound_to 6896
  150.7416  134.5962  159.6057 H   0  0  0  0  0  0  0  0  0  0  0  0  # atno 6909 bound_to 6896
  144.7316  140.3057  143.6197 H   0  0  0  0  0  0  0  0  0  0  0  0  # atno 7974 bound_to 7965
  154.9454  140.3058  155.5100 H   0  0  0  0  0  0  0  0  0  0  0  0  # atno 8008 bound_to 7997
  156.2992  140.2328  156.4465 H   0  0  0  0  0  0  0  0  0  0  0  0  # atno 8009 bound_to 7997
  154.8105  140.0429  157.1328 H   0  0  0  0  0  0  0  0  0  0  0  0  # atno 8010 bound_to 7997
  140.0008  143.5543  152.2304 H   0  0  0  0  0  0  0  0  0  0  0  0  # atno 10167 bound_to 10162
  157.6932  131.0228  150.3019 H   0  0  0  0  0  0  0  0  0  0  0  0  # atno 10718 bound_to 10713
  154.5107  135.2788  155.1345 H   0  0  0  0  0  0  0  0  0  0  0  0  # atno 10763 bound_to 10752
  154.2941  135.6261  153.5401 H   0  0  0  0  0  0  0  0  0  0  0  0  # atno 10764 bound_to 10752
  152.9918  135.5681  154.5572 H   0  0  0  0  0  0  0  0  0  0  0  0  # atno 10765 bound_to 10752
  139.8773  134.9039  156.4424 H   0  0  0  0  0  0  0  0  0  0  0  0  # atno 11005 bound_to 11000
  145.7715  139.1859  143.2209 LP  0  0  0  0  0  0  0  0  0  0  0  0  # atno 17320 bound_to 7965
  146.0907  140.7659  142.9597 LP  0  0  0  0  0  0  0  0  0  0  0  0  # atno 17321 bound_to 7965
  139.6273  144.7639  151.2610 LP  0  0  0  0  0  0  0  0  0  0  0  0  # atno 17342 bound_to 10162
  140.7419  143.6541  150.8222 LP  0  0  0  0  0  0  0  0  0  0  0  0  # atno 17343 bound_to 10162
  156.3534  130.3835  149.7310 LP  0  0  0  0  0  0  0  0  0  0  0  0  # atno 17370 bound_to 10713
  156.4780  130.8028  151.3043 LP  0  0  0  0  0  0  0  0  0  0  0  0  # atno 17371 bound_to 10713
  140.8990  133.7793  155.9658 LP  0  0  0  0  0  0  0  0  0  0  0  0  # atno 17394 bound_to 11000
  140.8672  134.2770  157.5208 LP  0  0  0  0  0  0  0  0  0  0  0  0  # atno 17395 bound_to 11000

$$$$
