AV-unprocessed.smi:1222|AV-procd|sdf|5125|dock8
  -GOLD-   22720 4183D 1   1.00000     0.00000
 Structure written by MMmdl.
 35 37  0  0  0  0  0  0  0  0  2 V2000
  150.8070  140.5810  155.2744 O   0  0  0  0  0  0  0  0  0  0  0  0
  150.0338  141.5399  155.3299 C   0  0  0  0  0  0  0  0  0  0  0  0
  148.9494  141.7375  154.5457 N   0  5  0  0  0  0  0  0  0  0  0  0
  148.3302  140.6890  153.9790 C   0  0  0  0  0  0  0  0  0  0  0  0
  147.2571  140.8130  153.1894 N   0  0  0  0  0  0  0  0  0  0  0  0
  146.7802  139.5933  152.7053 C   0  0  0  0  0  0  0  0  0  0  0  0
  147.5135  138.5164  153.1277 C   0  0  0  0  0  0  0  0  0  0  0  0
  148.8317  139.0048  154.1540 S   0  0  0  0  0  0  0  0  0  0  0  0
  150.2314  142.5158  156.2287 N   0  0  0  0  0  0  0  0  0  0  0  0
  151.3121  142.5949  157.2097 C   0  0  0  0  0  0  0  0  0  0  0  0
  151.0982  141.5567  158.3222 C   0  0  0  0  0  0  0  0  0  0  0  0
  152.1412  141.7263  159.4409 C   0  0  0  0  0  0  0  0  0  0  0  0
  152.0710  143.0761  160.0024 N   0  0  0  0  0  0  0  0  0  0  0  0
  153.0452  143.1884  161.0756 C   0  0  0  0  0  0  0  0  0  0  0  0
  152.8390  142.3271  162.3007 C   0  0  0  0  0  0  0  0  0  0  0  0
  152.5874  143.8139  162.3734 C   0  0  0  0  0  0  0  0  0  0  0  0
  152.3910  144.0624  158.9696 C   0  0  0  0  0  0  0  0  0  0  0  0
  151.3576  143.9989  157.8311 C   0  0  0  0  0  0  0  0  0  0  0  0
  145.9118  139.5854  152.0637 H   0  0  0  0  0  0  0  0  0  0  0  0
  147.3608  137.4724  152.8993 H   0  0  0  0  0  0  0  0  0  0  0  0
  149.5670  143.2758  156.2291 H   0  0  0  0  0  0  0  0  0  0  0  0
  152.2784  142.4022  156.7404 H   0  0  0  0  0  0  0  0  0  0  0  0
  150.0962  141.6585  158.7424 H   0  0  0  0  0  0  0  0  0  0  0  0
  151.1598  140.5494  157.9091 H   0  0  0  0  0  0  0  0  0  0  0  0
  151.9524  140.9946  160.2275 H   0  0  0  0  0  0  0  0  0  0  0  0
  153.1431  141.5303  159.0555 H   0  0  0  0  0  0  0  0  0  0  0  0
  154.0849  143.3785  160.8132 H   0  0  0  0  0  0  0  0  0  0  0  0
  151.9712  141.6703  162.3227 H   0  0  0  0  0  0  0  0  0  0  0  0
  153.7269  141.9429  162.7982 H   0  0  0  0  0  0  0  0  0  0  0  0
  153.3079  144.4199  162.9188 H   0  0  0  0  0  0  0  0  0  0  0  0
  151.5529  144.1453  162.4426 H   0  0  0  0  0  0  0  0  0  0  0  0
  152.3877  145.0614  159.4067 H   0  0  0  0  0  0  0  0  0  0  0  0
  153.3946  143.8868  158.5789 H   0  0  0  0  0  0  0  0  0  0  0  0
  151.6046  144.7366  157.0670 H   0  0  0  0  0  0  0  0  0  0  0  0
  150.3740  144.2703  158.2182 H   0  0  0  0  0  0  0  0  0  0  0  0
  1  2  2  0  0  0  0
  2  3  1  0  0  0  0
  2  9  1  0  0  0  0
  3  4  1  0  0  0  0
  4  8  1  0  0  0  0
  4  5  2  0  0  0  0
  5  6  1  0  0  0  0
  6  7  2  0  0  0  0
  6 19  1  0  0  0  0
  7  8  1  0  0  0  0
  7 20  1  0  0  0  0
  9 10  1  0  0  0  0
  9 21  1  0  0  0  0
 10 18  1  0  0  0  0
 10 11  1  0  0  0  0
 10 22  1  0  0  0  0
 11 12  1  0  0  0  0
 11 23  1  0  0  0  0
 11 24  1  0  0  0  0
 12 13  1  0  0  0  0
 12 25  1  0  0  0  0
 12 26  1  0  0  0  0
 13 14  1  0  0  0  0
 13 17  1  0  0  0  0
 14 16  1  0  0  0  0
 14 15  1  0  0  0  0
 14 27  1  0  0  0  0
 15 16  1  0  0  0  0
 15 28  1  0  0  0  0
 15 29  1  0  0  0  0
 16 30  1  0  0  0  0
 16 31  1  0  0  0  0
 17 18  1  0  0  0  0
 17 32  1  0  0  0  0
 17 33  1  0  0  0  0
 18 34  1  0  0  0  0
 18 35  1  0  0  0  0
M  CHG  1   3  -1
M  END
> <s_m_source_file>
AV-unprocessed.smi

> <i_m_source_file_index>
1222

> <i_lp_mmshare_version>
43012

> <i_f3d_flags>
0

> <s_epik_input>
czFbY0hdW2NIXW5jMVtOSF1DKD1PKVtOSF1bQ0hdMltDSDJdW0NIMl1OKFtDSDJdW0NIMl0yKVtDSF0zW0NIMl1bQ0gyXTM=

> <s_epik_cmdline>
J2VwaWtfcHl0aG9uJywgJy1waCcsICc3LjAnLCAnLXRuJywgJzgnLCAnLW1hJywgJzIwMCcsICctbWV0YWxfYmluZGluZycsICctaW1hZScsICc8aW5maWxlLm1hZT4nLCAnLW9tYWUnLCAnPG91dGZpbGUubWFlPic=

> <r_lp_tautomer_probability>
0.999

> <r_epik_Ionization_Penalty>
8.0332

> <r_epik_Ionization_Penalty_Charging>
5.90974

> <r_epik_Ionization_Penalty_Neutral>
2.12346

> <r_epik_State_Penalty>
6.94233

> <r_epik_Charging_Adjusted_Penalty>
12.8521

> <i_epik_Tot_Q>
-1

> <i_epik_Tot_abs_Q>
1

> <r_epik_Metal_State_Penalty>
2.92331

> <b_epik_Metal_Only>
1

> <s_lp_Force_Field>
OPLS_2005

> <r_lp_Energy>
17.9204

> <b_lp_Chiralities_Consistent>
1

> <s_lp_Variant>
AV-unprocessed.smi:1222-6

> <Gold.Version>
5.8.1

> <Gold.Id.Protein>
6NUR|6NUR_protein|mol2

> <Gold.PLP.Fitness>
48.3324

> <Gold.PLP.PLP>
-37.6744

> <Gold.PLP.part.hbond>
-2.6415

> <Gold.PLP.part.metal>
0.0000

> <Gold.PLP.part.buried>
-1.0378

> <Gold.PLP.part.nonpolar>
-33.6711

> <Gold.PLP.part.repulsive>
0.5041

> <Gold.PLP.ligand.clash>
0.0000

> <Gold.PLP.ligand.torsion>
0.9411

> <Gold.PLP.Chemscore.Hbond>
1.9440

> <Gold.PLP.Chemscore.CHOScore>
1.8424

> <Gold.PLP.Chemscore.Metal>
0.0000

> <Gold.Chemscore.Hbonds>
donor molecule, donor type, donor heavy atom, donor atom, acceptor molecule, acceptor atom, score
      L1  H     9    21       P1  8028  1.00
      P1  H  7989  7998       L1     1  0.94
      L1  C     6    19       P1 10175  1.00
      L1  C     7    20       P1  7948  0.83

> <Gold.PLP.Chemscore.Internal.Correction>
1.1809

> <Gold.Rescore>
     Score         DG    S(hbond)    S(metal)    S(lipo)     H(rot)  DE(clash)    DE(int)     intcor
     15.40     -17.41       1.04        0.00      99.23       1.23       0.77       1.24       ----

> <Gold.Chemscore.Fitness>
15.3973

> <Gold.Chemscore.DG>
-17.4061

> <Gold.Chemscore.ZeroCoef>
-5.4800

> <Gold.Chemscore.Hbond>
1.0381

> <Gold.Chemscore.Metal>
0.0000

> <Gold.Chemscore.Lipo>
99.2276

> <Gold.Chemscore.Internal_Hbond>
0.0000

> <Gold.Chemscore.DEClash>
0.7731

> <Gold.Chemscore.DEInternal>
1.2356

> <Gold.Chemscore.Rot>
1.2308

> <Gold.Chemscore.Internal.Correction>
   9.000000E+99

> <Gold.Chemscore.Hbonds>
donor molecule, donor type, donor heavy atom, donor atom, acceptor molecule, acceptor atom, score
      L1  H     9    21       P1  8028  0.98
      P1  H  7989  7998       L1     1  0.23

> <Gold.Chemscore.Hbond.Weighted>
-3.4672

> <Gold.Chemscore.Metal.Weighted>
-0.0000

> <Gold.Chemscore.Lipo.Weighted>
-11.6096

> <Gold.Chemscore.Internal_Hbond.Weighted>
0.0000

> <Gold.Chemscore.DEClash.Weighted>
0.7731

> <Gold.Chemscore.DEInternal.Weighted>
1.2356

> <Gold.Chemscore.Rot.Weighted>
3.1508

> <Gold.Chemscore.Internal.Correction.Weighted>
   9.000000E+99

> <Gold.Protein.RotatedTorsions>
[ 6907 6896 6895 6894 ] final  177.62 input  -60.11 | X-H torsion
[ 7974 7965 7964 7962 ] final  -84.79 input  175.53 | X-H torsion
[ 8008 7997 7996 7995 ] final   37.32 input   59.86 | X-H torsion
[ 10167 10162 10161 10158 ] final  148.99 input  -65.29 | X-H torsion
[ 10718 10713 10712 10709 ] final  171.98 input   66.30 | X-H torsion
[ 10763 10752 10751 10750 ] final -143.70 input  -60.55 | X-H torsion
[ 11005 11000 10999 10996 ] final   41.40 input  -57.11 | X-H torsion

> <Gold.Protein.ActiveResidues>
 VAL166  LYS551  ARG553  GLY616  TRP617  ASP618  TYR619  PRO620  LYS621  CYS622 
 ASP623  PHE694  ASN695  SER759  ASP760  ASP761  ALA762  ILE779  LEU786  VAL792 
 PHE793  MET794  SER795  GLU796  ALA797  LYS798  CYS799  TRP800  GLU811  SER814 

> <Gold.Protein.RotatedAtoms>
  151.7011  133.3311  159.3266 H   0  0  0  0  0  0  0  0  0  0  0  0  # atno 6907 bound_to 6896
  150.7735  134.6615  159.6351 H   0  0  0  0  0  0  0  0  0  0  0  0  # atno 6908 bound_to 6896
  152.3769  134.6653  160.0208 H   0  0  0  0  0  0  0  0  0  0  0  0  # atno 6909 bound_to 6896
  145.5019  140.9546  143.1755 H   0  0  0  0  0  0  0  0  0  0  0  0  # atno 7974 bound_to 7965
  155.2018  140.3316  155.4342 H   0  0  0  0  0  0  0  0  0  0  0  0  # atno 8008 bound_to 7997
  156.2404  140.1892  156.7054 H   0  0  0  0  0  0  0  0  0  0  0  0  # atno 8009 bound_to 7997
  154.6136  140.0605  156.9511 H   0  0  0  0  0  0  0  0  0  0  0  0  # atno 8010 bound_to 7997
  139.4867  144.5636  151.7185 H   0  0  0  0  0  0  0  0  0  0  0  0  # atno 10167 bound_to 10162
  156.9856  131.0132  151.2870 H   0  0  0  0  0  0  0  0  0  0  0  0  # atno 10718 bound_to 10713
  154.8459  135.3461  154.6228 H   0  0  0  0  0  0  0  0  0  0  0  0  # atno 10763 bound_to 10752
  153.6837  135.6978  153.5115 H   0  0  0  0  0  0  0  0  0  0  0  0  # atno 10764 bound_to 10752
  153.2648  135.4311  155.0886 H   0  0  0  0  0  0  0  0  0  0  0  0  # atno 10765 bound_to 10752
  140.1838  134.4070  155.8185 H   0  0  0  0  0  0  0  0  0  0  0  0  # atno 11005 bound_to 11000
  144.7775  139.6598  143.7168 LP  0  0  0  0  0  0  0  0  0  0  0  0  # atno 17320 bound_to 7965
  146.2220  139.5654  142.9612 LP  0  0  0  0  0  0  0  0  0  0  0  0  # atno 17321 bound_to 7965
  140.5211  144.0878  150.6023 LP  0  0  0  0  0  0  0  0  0  0  0  0  # atno 17342 bound_to 10162
  140.3836  143.2789  152.0142 LP  0  0  0  0  0  0  0  0  0  0  0  0  # atno 17343 bound_to 10162
  157.5495  130.8173  149.8128 LP  0  0  0  0  0  0  0  0  0  0  0  0  # atno 17370 bound_to 10713
  156.0227  130.3790  150.1914 LP  0  0  0  0  0  0  0  0  0  0  0  0  # atno 17371 bound_to 10713
  141.2224  133.7013  156.7977 LP  0  0  0  0  0  0  0  0  0  0  0  0  # atno 17394 bound_to 11000
  140.2237  134.8738  157.3404 LP  0  0  0  0  0  0  0  0  0  0  0  0  # atno 17395 bound_to 11000

$$$$
