AV-unprocessed.smi:3303|AV-procd|sdf|12658|dock7
  -GOLD-   2272018593D 1   1.00000     0.00000
 Structure written by MMmdl.
 45 46  0  0  0  0  0  0  0  0  3 V2000
  146.4172  138.5933  151.9054 C   0  0  0  0  0  0  0  0  0  0  0  0
  147.4294  139.0431  152.9802 C   0  0  1  0  0  0  0  0  0  0  0  0
  147.3324  140.5587  153.2417 C   0  0  0  0  0  0  0  0  0  0  0  0
  146.0742  140.9280  153.9445 N   0  3  2  0  0  0  0  0  0  0  0  0
  145.9415  142.4017  154.0481 C   0  0  0  0  0  0  0  0  0  0  0  0
  145.9232  140.2114  155.2476 C   0  0  1  0  0  0  0  0  0  0  0  0
  144.5986  140.5499  155.9599 C   0  0  0  0  0  0  0  0  0  0  0  0
  146.0257  138.6820  155.0501 C   0  0  0  0  0  0  0  0  0  0  0  0
  147.3209  138.2803  154.3181 C   0  0  1  0  0  0  0  0  0  0  0  0
  147.4321  136.8166  154.1089 N   0  3  0  0  0  0  0  0  0  0  0  0
  146.1960  136.1411  153.6621 C   0  0  0  0  0  0  0  0  0  0  0  0
  146.3247  134.6173  153.7936 C   0  0  0  0  0  0  0  0  0  0  0  0
  145.7076  133.8878  152.6156 C   0  0  0  0  0  0  0  0  0  0  0  0
  146.5099  133.1359  151.7311 C   0  0  0  0  0  0  0  0  0  0  0  0
  145.8849  132.4813  150.6518 C   0  0  0  0  0  0  0  0  0  0  0  0
  144.4905  132.6049  150.4990 C   0  0  0  0  0  0  0  0  0  0  0  0
  143.7795  133.3809  151.4358 C   0  0  0  0  0  0  0  0  0  0  0  0
  144.3690  134.0129  152.4742 N   0  0  0  0  0  0  0  0  0  0  0  0
  145.3855  138.7592  152.2154 H   0  0  0  0  0  0  0  0  0  0  0  0
  146.5255  137.5351  151.6672 H   0  0  0  0  0  0  0  0  0  0  0  0
  146.5689  139.1442  150.9767 H   0  0  0  0  0  0  0  0  0  0  0  0
  148.4222  138.8493  152.5712 H   0  0  0  0  0  0  0  0  0  0  0  0
  148.1833  140.8872  153.8411 H   0  0  0  0  0  0  0  0  0  0  0  0
  147.3985  141.0957  152.2942 H   0  0  0  0  0  0  0  0  0  0  0  0
  146.6579  142.8107  154.7617 H   0  0  0  0  0  0  0  0  0  0  0  0
  144.9381  142.6937  154.3565 H   0  0  0  0  0  0  0  0  0  0  0  0
  146.1188  142.8754  153.0820 H   0  0  0  0  0  0  0  0  0  0  0  0
  146.7426  140.5256  155.8966 H   0  0  0  0  0  0  0  0  0  0  0  0
  144.4740  139.9446  156.8581 H   0  0  0  0  0  0  0  0  0  0  0  0
  143.7394  140.3613  155.3154 H   0  0  0  0  0  0  0  0  0  0  0  0
  144.5592  141.5903  156.2822 H   0  0  0  0  0  0  0  0  0  0  0  0
  145.9865  138.2018  156.0278 H   0  0  0  0  0  0  0  0  0  0  0  0
  145.1560  138.3184  154.5016 H   0  0  0  0  0  0  0  0  0  0  0  0
  148.1694  138.5818  154.9351 H   0  0  0  0  0  0  0  0  0  0  0  0
  148.1684  136.6331  153.4421 H   0  0  0  0  0  0  0  0  0  0  0  0
  145.3557  136.4942  154.2615 H   0  0  0  0  0  0  0  0  0  0  0  0
  145.9863  136.4003  152.6243 H   0  0  0  0  0  0  0  0  0  0  0  0
  147.3756  134.3371  153.8786 H   0  0  0  0  0  0  0  0  0  0  0  0
  145.8411  134.2770  154.7107 H   0  0  0  0  0  0  0  0  0  0  0  0
  147.5779  133.0587  151.8736 H   0  0  0  0  0  0  0  0  0  0  0  0
  146.4645  131.8953  149.9540 H   0  0  0  0  0  0  0  0  0  0  0  0
  143.9776  132.1162  149.6838 H   0  0  0  0  0  0  0  0  0  0  0  0
  142.7096  133.4985  151.3482 H   0  0  0  0  0  0  0  0  0  0  0  0
  147.6935  136.4023  154.9925 H   0  0  0  0  0  0  0  0  0  0  0  0
  145.3162  140.6183  153.3529 H   0  0  0  0  0  0  0  0  0  0  0  0
  1  2  1  0  0  0  0
  1 19  1  0  0  0  0
  1 20  1  0  0  0  0
  1 21  1  0  0  0  0
  2  9  1  0  0  0  0
  2  3  1  0  0  0  0
  2 22  1  0  0  0  0
  3  4  1  0  0  0  0
  3 23  1  0  0  0  0
  3 24  1  0  0  0  0
  4  5  1  0  0  0  0
  4  6  1  0  0  0  0
  4 45  1  0  0  0  0
  5 25  1  0  0  0  0
  5 26  1  0  0  0  0
  5 27  1  0  0  0  0
  6  7  1  0  0  0  0
  6  8  1  0  0  0  0
  6 28  1  0  0  0  0
  7 29  1  0  0  0  0
  7 30  1  0  0  0  0
  7 31  1  0  0  0  0
  8  9  1  0  0  0  0
  8 32  1  0  0  0  0
  8 33  1  0  0  0  0
  9 10  1  0  0  0  0
  9 34  1  0  0  0  0
 10 11  1  0  0  0  0
 10 35  1  0  0  0  0
 10 44  1  0  0  0  0
 11 12  1  0  0  0  0
 11 36  1  0  0  0  0
 11 37  1  0  0  0  0
 12 13  1  0  0  0  0
 12 38  1  0  0  0  0
 12 39  1  0  0  0  0
 13 18  1  0  0  0  0
 13 14  2  0  0  0  0
 14 15  1  0  0  0  0
 14 40  1  0  0  0  0
 15 16  2  0  0  0  0
 15 41  1  0  0  0  0
 16 17  1  0  0  0  0
 16 42  1  0  0  0  0
 17 18  2  0  0  0  0
 17 43  1  0  0  0  0
M  CHG  1   4   1
M  CHG  1  10   1
M  END
> <s_m_source_file>
AV-unprocessed.smi

> <i_m_source_file_index>
3303

> <i_lp_mmshare_version>
43012

> <i_f3d_flags>
0

> <s_epik_input>
W0NIM11bQ0BASF0xW0NIMl1OKFtDSDNdKVtDQEBIXShbQ0gzXSlbQ0gyXVtDQEhdMVtOSF1bQ0gyXVtDSDJdYzJbY0hdW2NIXVtjSF1bY0hdbjI=

> <s_epik_cmdline>
J2VwaWtfcHl0aG9uJywgJy1waCcsICc3LjAnLCAnLXRuJywgJzgnLCAnLW1hJywgJzIwMCcsICctbWV0YWxfYmluZGluZycsICctaW1hZScsICc8aW5maWxlLm1hZT4nLCAnLW9tYWUnLCAnPG91dGZpbGUubWFlPic=

> <r_epik_Ionization_Penalty>
0.0769462

> <r_epik_Ionization_Penalty_Charging>
0.0759813

> <r_epik_Ionization_Penalty_Neutral>
0.000964829

> <r_epik_State_Penalty>
0.0654373

> <r_epik_Charging_Adjusted_Penalty>
0.141419

> <i_epik_Tot_Q>
2

> <i_epik_Tot_abs_Q>
2

> <r_epik_Metal_State_Penalty>
0.0656439

> <b_epik_Metal_Only>
0

> <s_lp_Force_Field>
OPLS_2005

> <r_lp_Energy>
30.9153

> <b_lp_Chiralities_Consistent>
1

> <s_lp_Variant>
AV-unprocessed.smi:3303-2

> <Gold.Version>
5.8.1

> <Gold.Id.Protein>
6NUR|6NUR_protein|mol2

> <Gold.PLP.Fitness>
42.8348

> <Gold.PLP.PLP>
-28.8763

> <Gold.PLP.part.hbond>
-2.0000

> <Gold.PLP.part.metal>
0.0000

> <Gold.PLP.part.buried>
-2.7811

> <Gold.PLP.part.nonpolar>
-25.0199

> <Gold.PLP.part.repulsive>
0.0970

> <Gold.PLP.ligand.clash>
0.0000

> <Gold.PLP.ligand.torsion>
0.5263

> <Gold.PLP.Chemscore.Hbond>
4.0000

> <Gold.PLP.Chemscore.CHOScore>
1.0000

> <Gold.PLP.Chemscore.Metal>
0.0000

> <Gold.Chemscore.Hbonds>
donor molecule, donor type, donor heavy atom, donor atom, acceptor molecule, acceptor atom, score
      L1  H     4    45       P1 10175  2.00
      L1  H    10    35       P1  7948  2.00
      L1  C    17    43       P1 10186  0.74

> <Gold.PLP.Chemscore.Internal.Correction>
0.0111

> <Gold.Rescore>
     Score         DG    S(hbond)    S(metal)    S(lipo)     H(rot)  DE(clash)    DE(int)     intcor
     16.93     -17.64       1.99        0.00      77.36       1.37       0.06       0.65       ----

> <Gold.Chemscore.Fitness>
16.9293

> <Gold.Chemscore.DG>
-17.6425

> <Gold.Chemscore.ZeroCoef>
-5.4800

> <Gold.Chemscore.Hbond>
1.9850

> <Gold.Chemscore.Metal>
0.0000

> <Gold.Chemscore.Lipo>
77.3588

> <Gold.Chemscore.Internal_Hbond>
0.0000

> <Gold.Chemscore.DEClash>
0.0587

> <Gold.Chemscore.DEInternal>
0.6546

> <Gold.Chemscore.Rot>
1.3744

> <Gold.Chemscore.Internal.Correction>
   9.000000E+99

> <Gold.Chemscore.Hbonds>
donor molecule, donor type, donor heavy atom, donor atom, acceptor molecule, acceptor atom, score
      L1  H     4    45       P1 10175  0.93
      L1  H    10    35       P1  7948  0.99

> <Gold.Chemscore.Hbond.Weighted>
-6.6300

> <Gold.Chemscore.Metal.Weighted>
-0.0000

> <Gold.Chemscore.Lipo.Weighted>
-9.0510

> <Gold.Chemscore.Internal_Hbond.Weighted>
0.0000

> <Gold.Chemscore.DEClash.Weighted>
0.0587

> <Gold.Chemscore.DEInternal.Weighted>
0.6546

> <Gold.Chemscore.Rot.Weighted>
3.5185

> <Gold.Chemscore.Internal.Correction.Weighted>
   9.000000E+99

> <Gold.Protein.RotatedTorsions>
[ 6907 6896 6895 6894 ] final   27.07 input  -60.11 | X-H torsion
[ 7974 7965 7964 7962 ] final -177.24 input  175.53 | X-H torsion
[ 8008 7997 7996 7995 ] final  -50.54 input   59.86 | X-H torsion
[ 10167 10162 10161 10158 ] final   18.17 input  -65.29 | X-H torsion
[ 10718 10713 10712 10709 ] final  162.20 input   66.30 | X-H torsion
[ 10763 10752 10751 10750 ] final   88.04 input  -60.55 | X-H torsion
[ 11005 11000 10999 10996 ] final  -14.00 input  -57.11 | X-H torsion

> <Gold.Protein.ActiveResidues>
 VAL166  LYS551  ARG553  GLY616  TRP617  ASP618  TYR619  PRO620  LYS621  CYS622 
 ASP623  PHE694  ASN695  SER759  ASP760  ASP761  ALA762  ILE779  LEU786  VAL792 
 PHE793  MET794  SER795  GLU796  ALA797  LYS798  CYS799  TRP800  GLU811  SER814 

> <Gold.Protein.RotatedAtoms>
  151.9968  134.9950  160.0563 H   0  0  0  0  0  0  0  0  0  0  0  0  # atno 6907 bound_to 6896
  152.1556  133.4545  159.4844 H   0  0  0  0  0  0  0  0  0  0  0  0  # atno 6908 bound_to 6896
  150.6881  134.2052  159.4381 H   0  0  0  0  0  0  0  0  0  0  0  0  # atno 6909 bound_to 6896
  144.7127  140.1048  143.6414 H   0  0  0  0  0  0  0  0  0  0  0  0  # atno 7974 bound_to 7965
  154.4064  140.1270  156.4682 H   0  0  0  0  0  0  0  0  0  0  0  0  # atno 8008 bound_to 7997
  155.7205  140.3493  155.4994 H   0  0  0  0  0  0  0  0  0  0  0  0  # atno 8009 bound_to 7997
  155.9218  140.1054  157.1191 H   0  0  0  0  0  0  0  0  0  0  0  0  # atno 8010 bound_to 7997
  140.5673  143.9227  150.6686 H   0  0  0  0  0  0  0  0  0  0  0  0  # atno 10167 bound_to 10162
  157.1259  131.0504  151.2394 H   0  0  0  0  0  0  0  0  0  0  0  0  # atno 10718 bound_to 10713
  153.1729  135.4521  154.9926 H   0  0  0  0  0  0  0  0  0  0  0  0  # atno 10763 bound_to 10752
  154.7978  135.3244  154.7627 H   0  0  0  0  0  0  0  0  0  0  0  0  # atno 10764 bound_to 10752
  153.8101  135.6955  153.4897 H   0  0  0  0  0  0  0  0  0  0  0  0  # atno 10765 bound_to 10752
  140.7819  133.8356  155.9300 H   0  0  0  0  0  0  0  0  0  0  0  0  # atno 11005 bound_to 11000
  145.9506  139.2731  143.1214 LP  0  0  0  0  0  0  0  0  0  0  0  0  # atno 17320 bound_to 7965
  145.9327  140.9037  143.0348 LP  0  0  0  0  0  0  0  0  0  0  0  0  # atno 17321 bound_to 7965
  140.2693  143.3467  152.1252 LP  0  0  0  0  0  0  0  0  0  0  0  0  # atno 17342 bound_to 10162
  139.5099  144.6875  151.5847 LP  0  0  0  0  0  0  0  0  0  0  0  0  # atno 17343 bound_to 10162
  157.4435  130.7558  149.7090 LP  0  0  0  0  0  0  0  0  0  0  0  0  # atno 17370 bound_to 10713
  155.9818  130.4015  150.3450 LP  0  0  0  0  0  0  0  0  0  0  0  0  # atno 17371 bound_to 10713
  140.9474  134.1823  157.4753 LP  0  0  0  0  0  0  0  0  0  0  0  0  # atno 17394 bound_to 11000
  139.8741  134.9896  156.5463 LP  0  0  0  0  0  0  0  0  0  0  0  0  # atno 17395 bound_to 11000

$$$$
