AV-unprocessed.smi:1120|AV-procd|sdf|4819|dock7
  -GOLD-   22720 3373D 1   1.00000     0.00000
 Structure written by MMmdl.
 48 49  0  0  0  0  0  0  0  0  1 V2000
  152.6081  145.2009  157.7644 C   0  0  0  0  0  0  0  0  0  0  0  0
  151.8826  143.9891  158.3659 C   0  0  2  0  0  0  0  0  0  0  0  0
  152.8420  143.1096  159.1878 C   0  0  0  0  0  0  0  0  0  0  0  0
  152.1208  141.9035  159.8130 C   0  0  0  0  0  0  0  0  0  0  0  0
  151.3433  141.0748  158.7725 C   0  0  2  0  0  0  0  0  0  0  0  0
  152.2558  140.2616  157.9634 N   0  0  0  0  0  0  0  0  0  0  0  0
  151.7239  139.3136  156.6217 S   0  0  0  0  0  0  0  0  0  0  0  0
  150.2582  139.4268  156.5815 O   0  0  0  0  0  0  0  0  0  0  0  0
  152.5312  139.6894  155.4502 O   0  0  0  0  0  0  0  0  0  0  0  0
  152.1409  137.5907  157.1527 C   0  0  0  0  0  0  0  0  0  0  0  0
  151.0133  136.9762  157.9817 C   0  0  0  0  0  0  0  0  0  0  0  0
  151.2240  136.6158  159.1394 O   0  0  0  0  0  0  0  0  0  0  0  0
  149.8223  136.8543  157.3753 N   0  0  0  0  0  0  0  0  0  0  0  0
  148.6239  136.2938  157.9888 C   0  0  0  0  0  0  0  0  0  0  0  0
  148.0921  137.1913  159.1183 C   0  0  0  0  0  0  0  0  0  0  0  0
  147.7970  136.4103  160.3847 C   0  0  0  0  0  0  0  0  0  0  0  0
  147.8698  135.0012  160.3959 C   0  0  0  0  0  0  0  0  0  0  0  0
  147.5844  134.3240  161.5975 C   0  0  0  0  0  0  0  0  0  0  0  0
  147.2380  135.0779  162.7355 C   0  0  0  0  0  0  0  0  0  0  0  0
  147.1918  136.4816  162.6201 C   0  0  0  0  0  0  0  0  0  0  0  0
  147.4636  137.1407  161.4729 N   0  0  0  0  0  0  0  0  0  0  0  0
  150.4462  141.9438  157.8711 C   0  0  0  0  0  0  0  0  0  0  0  0
  151.1952  143.1475  157.2756 C   0  0  0  0  0  0  0  0  0  0  0  0
  153.3950  144.8914  157.0761 H   0  0  0  0  0  0  0  0  0  0  0  0
  153.0675  145.8097  158.5435 H   0  0  0  0  0  0  0  0  0  0  0  0
  151.9162  145.8391  157.2141 H   0  0  0  0  0  0  0  0  0  0  0  0
  151.1113  144.3683  159.0378 H   0  0  0  0  0  0  0  0  0  0  0  0
  153.6549  142.7568  158.5518 H   0  0  0  0  0  0  0  0  0  0  0  0
  153.3065  143.7015  159.9771 H   0  0  0  0  0  0  0  0  0  0  0  0
  152.8331  141.2754  160.3495 H   0  0  0  0  0  0  0  0  0  0  0  0
  151.4189  142.2689  160.5634 H   0  0  0  0  0  0  0  0  0  0  0  0
  150.6951  140.3870  159.3151 H   0  0  0  0  0  0  0  0  0  0  0  0
  153.1553  140.0096  158.3730 H   0  0  0  0  0  0  0  0  0  0  0  0
  152.3723  136.9932  156.2707 H   0  0  0  0  0  0  0  0  0  0  0  0
  153.0415  137.6388  157.7651 H   0  0  0  0  0  0  0  0  0  0  0  0
  149.7385  137.1732  156.4209 H   0  0  0  0  0  0  0  0  0  0  0  0
  147.8672  136.1865  157.2110 H   0  0  0  0  0  0  0  0  0  0  0  0
  148.8282  135.2892  158.3633 H   0  0  0  0  0  0  0  0  0  0  0  0
  148.8107  137.9804  159.3442 H   0  0  0  0  0  0  0  0  0  0  0  0
  147.1786  137.6923  158.7977 H   0  0  0  0  0  0  0  0  0  0  0  0
  148.1371  134.4507  159.5058 H   0  0  0  0  0  0  0  0  0  0  0  0
  147.6304  133.2461  161.6450 H   0  0  0  0  0  0  0  0  0  0  0  0
  147.0129  134.5925  163.6736 H   0  0  0  0  0  0  0  0  0  0  0  0
  146.9298  137.0915  163.4720 H   0  0  0  0  0  0  0  0  0  0  0  0
  150.0048  141.3405  157.0770 H   0  0  0  0  0  0  0  0  0  0  0  0
  149.6110  142.3173  158.4644 H   0  0  0  0  0  0  0  0  0  0  0  0
  150.4955  143.7662  156.7127 H   0  0  0  0  0  0  0  0  0  0  0  0
  151.9381  142.7959  156.5587 H   0  0  0  0  0  0  0  0  0  0  0  0
  1  2  1  0  0  0  0
  1 24  1  0  0  0  0
  1 25  1  0  0  0  0
  1 26  1  0  0  0  0
  2 23  1  0  0  0  0
  2  3  1  0  0  0  0
  2 27  1  0  0  0  0
  3  4  1  0  0  0  0
  3 28  1  0  0  0  0
  3 29  1  0  0  0  0
  4  5  1  0  0  0  0
  4 30  1  0  0  0  0
  4 31  1  0  0  0  0
  5  6  1  0  0  0  0
  5 22  1  0  0  0  0
  5 32  1  0  0  0  0
  6  7  1  0  0  0  0
  6 33  1  0  0  0  0
  7  8  2  0  0  0  0
  7  9  2  0  0  0  0
  7 10  1  0  0  0  0
 10 11  1  0  0  0  0
 10 34  1  0  0  0  0
 10 35  1  0  0  0  0
 11 12  2  0  0  0  0
 11 13  1  0  0  0  0
 13 14  1  0  0  0  0
 13 36  1  0  0  0  0
 14 15  1  0  0  0  0
 14 37  1  0  0  0  0
 14 38  1  0  0  0  0
 15 16  1  0  0  0  0
 15 39  1  0  0  0  0
 15 40  1  0  0  0  0
 16 21  1  0  0  0  0
 16 17  2  0  0  0  0
 17 18  1  0  0  0  0
 17 41  1  0  0  0  0
 18 19  2  0  0  0  0
 18 42  1  0  0  0  0
 19 20  1  0  0  0  0
 19 43  1  0  0  0  0
 20 21  2  0  0  0  0
 20 44  1  0  0  0  0
 22 23  1  0  0  0  0
 22 45  1  0  0  0  0
 22 46  1  0  0  0  0
 23 47  1  0  0  0  0
 23 48  1  0  0  0  0
M  END
> <s_m_source_file>
AV-unprocessed.smi

> <i_m_source_file_index>
1120

> <i_lp_mmshare_version>
43012

> <i_f3d_flags>
0

> <s_epik_input>
W0NIM11bQ0BASF0xW0NIMl1bQ0gyXVtDQEhdKFtDSDJdW0NIMl0xKVtOSF1TKD1PKSg9TylbQ0gyXUMoPU8pW05IXVtDSDJdW0NIMl1jMltjSF1bY0hdW2NIXVtjSF1uMg==

> <s_epik_cmdline>
J2VwaWtfcHl0aG9uJywgJy1waCcsICc3LjAnLCAnLXRuJywgJzgnLCAnLW1hJywgJzIwMCcsICctbWV0YWxfYmluZGluZycsICctaW1hZScsICc8aW5maWxlLm1hZT4nLCAnLW9tYWUnLCAnPG91dGZpbGUubWFlPic=

> <r_epik_Ionization_Penalty>
0.0216068

> <r_epik_Ionization_Penalty_Charging>
0

> <r_epik_Ionization_Penalty_Neutral>
0.0216068

> <r_epik_State_Penalty>
0.01735

> <r_epik_Charging_Adjusted_Penalty>
0.01735

> <i_epik_Tot_Q>
0

> <i_epik_Tot_abs_Q>
0

> <r_epik_Metal_State_Penalty>
0.0535325

> <b_epik_Metal_Only>
0

> <s_lp_Force_Field>
OPLS_2005

> <r_lp_Energy>
6.87343

> <b_lp_Chiralities_Consistent>
1

> <s_lp_Variant>
AV-unprocessed.smi:1120-2

> <Gold.Version>
5.8.1

> <Gold.Id.Protein>
6NUR|6NUR_protein|mol2

> <Gold.PLP.Fitness>
55.0886

> <Gold.PLP.PLP>
-45.1796

> <Gold.PLP.part.hbond>
-4.7167

> <Gold.PLP.part.metal>
0.0000

> <Gold.PLP.part.buried>
-6.2867

> <Gold.PLP.part.nonpolar>
-34.2799

> <Gold.PLP.part.repulsive>
0.1349

> <Gold.PLP.ligand.clash>
0.0000

> <Gold.PLP.ligand.torsion>
1.5406

> <Gold.PLP.Chemscore.Hbond>
3.9412

> <Gold.PLP.Chemscore.CHOScore>
0.0000

> <Gold.PLP.Chemscore.Metal>
0.0000

> <Gold.Chemscore.Hbonds>
donor molecule, donor type, donor heavy atom, donor atom, acceptor molecule, acceptor atom, score
      P1  H  6896  6909       L1    12  1.00
      P1  H  6931  6943       L1    21  0.94
      P1  H  6934  6947       L1    21  0.90
      P1  H  7997  8010       L1     9  1.00

> <Gold.PLP.Chemscore.Internal.Correction>
1.1664

> <Gold.Rescore>
     Score         DG    S(hbond)    S(metal)    S(lipo)     H(rot)  DE(clash)    DE(int)     intcor
     20.89     -24.07       2.91        0.00     117.90       1.92       0.28       2.90       ----

> <Gold.Chemscore.Fitness>
20.8875

> <Gold.Chemscore.DG>
-24.0655

> <Gold.Chemscore.ZeroCoef>
-5.4800

> <Gold.Chemscore.Hbond>
2.9094

> <Gold.Chemscore.Metal>
0.0000

> <Gold.Chemscore.Lipo>
117.8957

> <Gold.Chemscore.Internal_Hbond>
0.0000

> <Gold.Chemscore.DEClash>
0.2822

> <Gold.Chemscore.DEInternal>
2.8958

> <Gold.Chemscore.Rot>
1.9241

> <Gold.Chemscore.Internal.Correction>
   9.000000E+99

> <Gold.Chemscore.Hbonds>
donor molecule, donor type, donor heavy atom, donor atom, acceptor molecule, acceptor atom, score
      P1  H  6896  6909       L1    12  0.97
      P1  H  6931  6943       L1    21  0.24
      P1  H  6934  6947       L1    21  0.63
      P1  H  7989  7998       L1     9  0.05
      P1  H  7997  8010       L1     9  0.75

> <Gold.Chemscore.Hbond.Weighted>
-9.7173

> <Gold.Chemscore.Metal.Weighted>
-0.0000

> <Gold.Chemscore.Lipo.Weighted>
-13.7938

> <Gold.Chemscore.Internal_Hbond.Weighted>
0.0000

> <Gold.Chemscore.DEClash.Weighted>
0.2822

> <Gold.Chemscore.DEInternal.Weighted>
2.8958

> <Gold.Chemscore.Rot.Weighted>
4.9256

> <Gold.Chemscore.Internal.Correction.Weighted>
   9.000000E+99

> <Gold.Protein.RotatedTorsions>
[ 6907 6896 6895 6894 ] final  106.45 input  -60.11 | X-H torsion
[ 7974 7965 7964 7962 ] final   47.37 input  175.53 | X-H torsion
[ 8008 7997 7996 7995 ] final   98.49 input   59.86 | X-H torsion
[ 10167 10162 10161 10158 ] final  -14.72 input  -65.29 | X-H torsion
[ 10718 10713 10712 10709 ] final   51.37 input   66.30 | X-H torsion
[ 10763 10752 10751 10750 ] final -118.90 input  -60.55 | X-H torsion
[ 11005 11000 10999 10996 ] final    9.14 input  -57.11 | X-H torsion

> <Gold.Protein.ActiveResidues>
 VAL166  LYS551  ARG553  GLY616  TRP617  ASP618  TYR619  PRO620  LYS621  CYS622 
 ASP623  PHE694  ASN695  SER759  ASP760  ASP761  ALA762  ILE779  LEU786  VAL792 
 PHE793  MET794  SER795  GLU796  ALA797  LYS798  CYS799  TRP800  GLU811  SER814 

> <Gold.Protein.RotatedAtoms>
  152.5193  133.9380  159.7612 H   0  0  0  0  0  0  0  0  0  0  0  0  # atno 6907 bound_to 6896
  150.9716  133.6330  159.2744 H   0  0  0  0  0  0  0  0  0  0  0  0  # atno 6908 bound_to 6896
  151.3539  135.0896  159.9465 H   0  0  0  0  0  0  0  0  0  0  0  0  # atno 6909 bound_to 6896
  146.0304  139.4756  142.9841 H   0  0  0  0  0  0  0  0  0  0  0  0  # atno 7974 bound_to 7965
  156.1010  140.3243  155.7941 H   0  0  0  0  0  0  0  0  0  0  0  0  # atno 8008 bound_to 7997
  155.4837  140.0556  157.2981 H   0  0  0  0  0  0  0  0  0  0  0  0  # atno 8009 bound_to 7997
  154.4697  140.2005  156.0042 H   0  0  0  0  0  0  0  0  0  0  0  0  # atno 8010 bound_to 7997
  140.7206  143.5292  150.9540 H   0  0  0  0  0  0  0  0  0  0  0  0  # atno 10167 bound_to 10162
  157.4974  130.8415  149.8275 H   0  0  0  0  0  0  0  0  0  0  0  0  # atno 10718 bound_to 10713
  154.8601  135.4257  154.2213 H   0  0  0  0  0  0  0  0  0  0  0  0  # atno 10763 bound_to 10752
  153.3218  135.6982  153.7030 H   0  0  0  0  0  0  0  0  0  0  0  0  # atno 10764 bound_to 10752
  153.6082  135.3524  155.2943 H   0  0  0  0  0  0  0  0  0  0  0  0  # atno 10765 bound_to 10752
  140.5291  134.0484  155.7868 H   0  0  0  0  0  0  0  0  0  0  0  0  # atno 11005 bound_to 11000
  145.7050  141.0124  143.1484 LP  0  0  0  0  0  0  0  0  0  0  0  0  # atno 17320 bound_to 7965
  144.7028  139.8690  143.7439 LP  0  0  0  0  0  0  0  0  0  0  0  0  # atno 17321 bound_to 7965
  139.9012  143.6834  152.3131 LP  0  0  0  0  0  0  0  0  0  0  0  0  # atno 17342 bound_to 10162
  139.7184  144.7607  151.0996 LP  0  0  0  0  0  0  0  0  0  0  0  0  # atno 17343 bound_to 10162
  156.0209  130.3796  150.1966 LP  0  0  0  0  0  0  0  0  0  0  0  0  # atno 17370 bound_to 10713
  157.0156  130.9964  151.3354 LP  0  0  0  0  0  0  0  0  0  0  0  0  # atno 17371 bound_to 10713
  141.1292  133.9332  157.2572 LP  0  0  0  0  0  0  0  0  0  0  0  0  # atno 17394 bound_to 11000
  139.9564  135.0164  156.9140 LP  0  0  0  0  0  0  0  0  0  0  0  0  # atno 17395 bound_to 11000

$$$$
