AV-unprocessed.smi:3163|AV-procd|sdf|12072|dock7
  -GOLD-   2272017503D 1   1.00000     0.00000
 Structure written by MMmdl.
 36 37  0  0  0  0  0  0  0  0  2 V2000
  143.2741  132.4456  150.8800 C   0  0  0  0  0  0  0  0  0  0  0  0
  143.5090  133.9030  150.9478 N   0  3  2  0  0  0  0  0  0  0  0  0
  144.5329  134.3959  150.0016 C   0  0  0  0  0  0  0  0  0  0  0  0
  145.1594  135.6109  150.6807 C   0  0  0  0  0  0  0  0  0  0  0  0
  145.1604  135.2036  152.1515 C   0  0  1  0  0  0  0  0  0  0  0  0
  145.3117  136.3851  153.1296 C   0  0  0  0  0  0  0  0  0  0  0  0
  146.6845  136.8758  153.1974 N   0  0  0  0  0  0  0  0  0  0  0  0
  147.1059  137.8769  153.9837 C   0  0  0  0  0  0  0  0  0  0  0  0
  146.3607  138.4981  154.7405 O   0  0  0  0  0  0  0  0  0  0  0  0
  148.4253  138.0882  153.8330 N   0  0  0  0  0  0  0  0  0  0  0  0
  149.2613  139.0520  154.4619 C   0  0  0  0  0  0  0  0  0  0  0  0
  150.5753  138.6567  154.7881 C   0  0  0  0  0  0  0  0  0  0  0  0
  151.4348  139.5895  155.4017 C   0  0  0  0  0  0  0  0  0  0  0  0
  151.0695  140.8560  155.6905 N   0  0  0  0  0  0  0  0  0  0  0  0
  149.8156  141.2371  155.3684 C   0  0  0  0  0  0  0  0  0  0  0  0
  148.8770  140.3838  154.7541 C   0  0  0  0  0  0  0  0  0  0  0  0
  143.8547  134.4069  152.2981 C   0  0  0  0  0  0  0  0  0  0  0  0
  144.1702  131.8898  151.1601 H   0  0  0  0  0  0  0  0  0  0  0  0
  142.9895  132.1524  149.8690 H   0  0  0  0  0  0  0  0  0  0  0  0
  142.4665  132.1583  151.5538 H   0  0  0  0  0  0  0  0  0  0  0  0
  145.2980  133.6323  149.8496 H   0  0  0  0  0  0  0  0  0  0  0  0
  144.0993  134.6347  149.0300 H   0  0  0  0  0  0  0  0  0  0  0  0
  146.1565  135.8385  150.3022 H   0  0  0  0  0  0  0  0  0  0  0  0
  144.5294  136.4886  150.5277 H   0  0  0  0  0  0  0  0  0  0  0  0
  145.9930  134.5126  152.2956 H   0  0  0  0  0  0  0  0  0  0  0  0
  144.6432  137.1993  152.8446 H   0  0  0  0  0  0  0  0  0  0  0  0
  145.0143  136.0812  154.1336 H   0  0  0  0  0  0  0  0  0  0  0  0
  147.3641  136.4104  152.6132 H   0  0  0  0  0  0  0  0  0  0  0  0
  148.9031  137.4513  153.2127 H   0  0  0  0  0  0  0  0  0  0  0  0
  150.9227  137.6555  154.5778 H   0  0  0  0  0  0  0  0  0  0  0  0
  152.4440  139.3101  155.6657 H   0  0  0  0  0  0  0  0  0  0  0  0
  149.5522  142.2581  155.6023 H   0  0  0  0  0  0  0  0  0  0  0  0
  147.8997  140.7730  154.5177 H   0  0  0  0  0  0  0  0  0  0  0  0
  143.0404  135.0505  152.6333 H   0  0  0  0  0  0  0  0  0  0  0  0
  143.9618  133.6063  153.0319 H   0  0  0  0  0  0  0  0  0  0  0  0
  142.6425  134.3563  150.6948 H   0  0  0  0  0  0  0  0  0  0  0  0
  1  2  1  0  0  0  0
  1 18  1  0  0  0  0
  1 19  1  0  0  0  0
  1 20  1  0  0  0  0
  2 17  1  0  0  0  0
  2  3  1  0  0  0  0
  2 36  1  0  0  0  0
  3  4  1  0  0  0  0
  3 21  1  0  0  0  0
  3 22  1  0  0  0  0
  4  5  1  0  0  0  0
  4 23  1  0  0  0  0
  4 24  1  0  0  0  0
  5  6  1  0  0  0  0
  5 17  1  0  0  0  0
  5 25  1  0  0  0  0
  6  7  1  0  0  0  0
  6 26  1  0  0  0  0
  6 27  1  0  0  0  0
  7  8  1  0  0  0  0
  7 28  1  0  0  0  0
  8  9  2  0  0  0  0
  8 10  1  0  0  0  0
 10 11  1  0  0  0  0
 10 29  1  0  0  0  0
 11 16  1  0  0  0  0
 11 12  2  0  0  0  0
 12 13  1  0  0  0  0
 12 30  1  0  0  0  0
 13 14  2  0  0  0  0
 13 31  1  0  0  0  0
 14 15  1  0  0  0  0
 15 16  2  0  0  0  0
 15 32  1  0  0  0  0
 16 33  1  0  0  0  0
 17 34  1  0  0  0  0
 17 35  1  0  0  0  0
M  CHG  1   2   1
M  END
> <s_m_source_file>
AV-unprocessed.smi

> <i_m_source_file_index>
3163

> <i_lp_mmshare_version>
43012

> <i_f3d_flags>
0

> <s_epik_input>
W0NIM11OMVtDSDJdW0NIMl1bQ0BIXShbQ0gyXTEpW0NIMl1bTkhdQyg9TylbTkhdYzJbY0hdW2NIXW5bY0hdW2NIXTI=

> <s_epik_cmdline>
J2VwaWtfcHl0aG9uJywgJy1waCcsICc3LjAnLCAnLXRuJywgJzgnLCAnLW1hJywgJzIwMCcsICctbWV0YWxfYmluZGluZycsICctaW1hZScsICc8aW5maWxlLm1hZT4nLCAnLW9tYWUnLCAnPG91dGZpbGUubWFlPic=

> <r_epik_Ionization_Penalty>
0.103936

> <r_epik_Ionization_Penalty_Charging>
0.0012301

> <r_epik_Ionization_Penalty_Neutral>
0.102706

> <r_epik_State_Penalty>
0.0926275

> <r_epik_Charging_Adjusted_Penalty>
0.0938576

> <i_epik_Tot_Q>
1

> <i_epik_Tot_abs_Q>
1

> <r_epik_Metal_State_Penalty>
0.0788376

> <b_epik_Metal_Only>
0

> <s_lp_Force_Field>
OPLS_2005

> <r_lp_Energy>
31.7685

> <b_lp_Chiralities_Consistent>
1

> <s_lp_Variant>
AV-unprocessed.smi:3163-2

> <Gold.Version>
5.8.1

> <Gold.Id.Protein>
6NUR|6NUR_protein|mol2

> <Gold.PLP.Fitness>
43.6898

> <Gold.PLP.PLP>
-29.4808

> <Gold.PLP.part.hbond>
-4.0000

> <Gold.PLP.part.metal>
0.0000

> <Gold.PLP.part.buried>
-1.8306

> <Gold.PLP.part.nonpolar>
-24.5002

> <Gold.PLP.part.repulsive>
0.1393

> <Gold.PLP.ligand.clash>
0.0000

> <Gold.PLP.ligand.torsion>
0.3963

> <Gold.PLP.Chemscore.Hbond>
4.0000

> <Gold.PLP.Chemscore.CHOScore>
1.0000

> <Gold.PLP.Chemscore.Metal>
0.0000

> <Gold.Chemscore.Hbonds>
donor molecule, donor type, donor heavy atom, donor atom, acceptor molecule, acceptor atom, score
      L1  H     2    36       P1 10186  2.00
      L1  H     7    28       P1  7948  1.00
      L1  H    10    29       P1  7948  1.00
      L1  C    15    32       P1  8028  0.95

> <Gold.PLP.Chemscore.Internal.Correction>
0.0017

> <Gold.Rescore>
     Score         DG    S(hbond)    S(metal)    S(lipo)     H(rot)  DE(clash)    DE(int)     intcor
     17.51     -19.34       2.66        0.00      69.97       1.26       1.47       0.36       ----

> <Gold.Chemscore.Fitness>
17.5135

> <Gold.Chemscore.DG>
-19.3388

> <Gold.Chemscore.ZeroCoef>
-5.4800

> <Gold.Chemscore.Hbond>
2.6610

> <Gold.Chemscore.Metal>
0.0000

> <Gold.Chemscore.Lipo>
69.9668

> <Gold.Chemscore.Internal_Hbond>
0.0000

> <Gold.Chemscore.DEClash>
1.4680

> <Gold.Chemscore.DEInternal>
0.3573

> <Gold.Chemscore.Rot>
1.2559

> <Gold.Chemscore.Internal.Correction>
   9.000000E+99

> <Gold.Chemscore.Hbonds>
donor molecule, donor type, donor heavy atom, donor atom, acceptor molecule, acceptor atom, score
      L1  H     2    36       P1 10186  0.36
      L1  H     7    28       P1  7948  0.98
      L1  H    10    29       P1  7948  0.98

> <Gold.Chemscore.Hbond.Weighted>
-8.8878

> <Gold.Chemscore.Metal.Weighted>
-0.0000

> <Gold.Chemscore.Lipo.Weighted>
-8.1861

> <Gold.Chemscore.Internal_Hbond.Weighted>
0.0000

> <Gold.Chemscore.DEClash.Weighted>
1.4680

> <Gold.Chemscore.DEInternal.Weighted>
0.3573

> <Gold.Chemscore.Rot.Weighted>
3.2151

> <Gold.Chemscore.Internal.Correction.Weighted>
   9.000000E+99

> <Gold.Protein.RotatedTorsions>
[ 6907 6896 6895 6894 ] final   13.12 input  -60.11 | X-H torsion
[ 7974 7965 7964 7962 ] final  156.34 input  175.53 | X-H torsion
[ 8008 7997 7996 7995 ] final  -91.80 input   59.86 | X-H torsion
[ 10167 10162 10161 10158 ] final -176.02 input  -65.29 | X-H torsion
[ 10718 10713 10712 10709 ] final    0.82 input   66.30 | X-H torsion
[ 10763 10752 10751 10750 ] final -139.61 input  -60.55 | X-H torsion
[ 11005 11000 10999 10996 ] final  128.08 input  -57.11 | X-H torsion

> <Gold.Protein.ActiveResidues>
 VAL166  LYS551  ARG553  GLY616  TRP617  ASP618  TYR619  PRO620  LYS621  CYS622 
 ASP623  PHE694  ASN695  SER759  ASP760  ASP761  ALA762  ILE779  LEU786  VAL792 
 PHE793  MET794  SER795  GLU796  ALA797  LYS798  CYS799  TRP800  GLU811  SER814 

> <Gold.Protein.RotatedAtoms>
  151.7812  135.0761  160.0373 H   0  0  0  0  0  0  0  0  0  0  0  0  # atno 6907 bound_to 6896
  152.3221  133.5861  159.5760 H   0  0  0  0  0  0  0  0  0  0  0  0  # atno 6908 bound_to 6896
  150.7375  133.9911  159.3649 H   0  0  0  0  0  0  0  0  0  0  0  0  # atno 6909 bound_to 6896
  144.7969  139.7191  143.6198 H   0  0  0  0  0  0  0  0  0  0  0  0  # atno 7974 bound_to 7965
  154.7152  140.0515  157.0587 H   0  0  0  0  0  0  0  0  0  0  0  0  # atno 8008 bound_to 7997
  155.0501  140.3178  155.4676 H   0  0  0  0  0  0  0  0  0  0  0  0  # atno 8009 bound_to 7997
  156.2801  140.2117  156.5627 H   0  0  0  0  0  0  0  0  0  0  0  0  # atno 8010 bound_to 7997
  139.5551  144.2010  152.1145 H   0  0  0  0  0  0  0  0  0  0  0  0  # atno 10167 bound_to 10162
  156.8390  130.5514  149.5679 H   0  0  0  0  0  0  0  0  0  0  0  0  # atno 10718 bound_to 10713
  154.8604  135.3577  154.5574 H   0  0  0  0  0  0  0  0  0  0  0  0  # atno 10763 bound_to 10752
  153.6190  135.7006  153.5322 H   0  0  0  0  0  0  0  0  0  0  0  0  # atno 10764 bound_to 10752
  153.3145  135.4169  155.1324 H   0  0  0  0  0  0  0  0  0  0  0  0  # atno 10765 bound_to 10752
  139.9541  134.9616  156.8949 H   0  0  0  0  0  0  0  0  0  0  0  0  # atno 11005 bound_to 11000
  146.2239  139.5687  142.9600 LP  0  0  0  0  0  0  0  0  0  0  0  0  # atno 17320 bound_to 7965
  145.5651  141.0400  143.2205 LP  0  0  0  0  0  0  0  0  0  0  0  0  # atno 17321 bound_to 7965
  140.1513  144.5112  150.6686 LP  0  0  0  0  0  0  0  0  0  0  0  0  # atno 17342 bound_to 10162
  140.6822  143.2332  151.5354 LP  0  0  0  0  0  0  0  0  0  0  0  0  # atno 17343 bound_to 10162
  156.0891  130.5882  150.9701 LP  0  0  0  0  0  0  0  0  0  0  0  0  # atno 17370 bound_to 10713
  157.6366  131.0915  150.8336 LP  0  0  0  0  0  0  0  0  0  0  0  0  # atno 17371 bound_to 10713
  140.5649  134.0499  155.7411 LP  0  0  0  0  0  0  0  0  0  0  0  0  # atno 17394 bound_to 11000
  141.1210  133.9461  157.2730 LP  0  0  0  0  0  0  0  0  0  0  0  0  # atno 17395 bound_to 11000

$$$$
