AV-unprocessed.smi:3030|AV-procd|sdf|11534|dock5
  -GOLD-   2272016483D 1   1.00000     0.00000
 Structure written by MMmdl.
 52 53  0  0  0  0  0  0  0  0  1 V2000
  151.9030  144.9353  160.9383 C   0  0  0  0  0  0  0  0  0  0  0  0
  151.2195  144.6557  159.5952 C   0  0  0  0  0  0  0  0  0  0  0  0
  151.6492  143.3871  159.0244 N   0  0  0  0  0  0  0  0  0  0  0  0
  151.1498  142.9379  157.8063 C   0  0  0  0  0  0  0  0  0  0  0  0
  151.4616  141.7493  157.2546 C   0  0  0  0  0  0  0  0  0  0  0  0
  152.3848  140.8415  157.9648 C   0  0  0  0  0  0  0  0  0  0  0  0
  152.6884  139.7464  157.4915 O   0  0  0  0  0  0  0  0  0  0  0  0
  152.9177  141.3205  159.2674 C   0  0  0  0  0  0  0  0  0  0  0  0
  153.7820  140.4466  159.9463 N   0  0  0  0  0  0  0  0  0  0  0  0
  154.4869  140.6561  161.0728 C   0  0  0  0  0  0  0  0  0  0  0  0
  154.5377  141.7106  161.7056 O   0  0  0  0  0  0  0  0  0  0  0  0
  155.1622  139.5526  161.4249 N   0  0  0  0  0  0  0  0  0  0  0  0
  156.0467  139.4311  162.5800 C   0  0  1  0  0  0  0  0  0  0  0  0
  155.4207  140.0824  163.8276 C   0  0  0  0  0  0  0  0  0  0  0  0
  156.4366  140.1428  164.9866 C   0  0  1  0  0  0  0  0  0  0  0  0
  155.8108  140.7433  166.2531 C   0  0  0  0  0  0  0  0  0  0  0  0
  157.0501  138.7544  165.2619 C   0  0  0  0  0  0  0  0  0  0  0  0
  157.6120  138.1113  163.9788 C   0  0  0  0  0  0  0  0  0  0  0  0
  156.5348  137.9795  162.8724 C   0  0  1  0  0  0  0  0  0  0  0  0
  155.4284  136.9188  163.2127 C   0  0  0  0  0  0  0  0  0  0  0  0
  154.4718  136.6652  162.0297 C   0  0  0  0  0  0  0  0  0  0  0  0
  154.5741  137.2730  164.4461 C   0  0  0  0  0  0  0  0  0  0  0  0
  152.5165  142.5394  159.7108 C   0  0  0  0  0  0  0  0  0  0  0  0
  151.5717  145.8886  161.3501 H   0  0  0  0  0  0  0  0  0  0  0  0
  152.9869  144.9796  160.8274 H   0  0  0  0  0  0  0  0  0  0  0  0
  151.6714  144.1583  161.6675 H   0  0  0  0  0  0  0  0  0  0  0  0
  150.1365  144.6493  159.7254 H   0  0  0  0  0  0  0  0  0  0  0  0
  151.4375  145.4622  158.8939 H   0  0  0  0  0  0  0  0  0  0  0  0
  150.4801  143.6305  157.3169 H   0  0  0  0  0  0  0  0  0  0  0  0
  151.0518  141.4441  156.3031 H   0  0  0  0  0  0  0  0  0  0  0  0
  153.8950  139.5444  159.5072 H   0  0  0  0  0  0  0  0  0  0  0  0
  155.0655  138.7334  160.8431 H   0  0  0  0  0  0  0  0  0  0  0  0
  156.9273  140.0302  162.3378 H   0  0  0  0  0  0  0  0  0  0  0  0
  155.0920  141.0944  163.5867 H   0  0  0  0  0  0  0  0  0  0  0  0
  154.5264  139.5386  164.1328 H   0  0  0  0  0  0  0  0  0  0  0  0
  157.2479  140.8046  164.6796 H   0  0  0  0  0  0  0  0  0  0  0  0
  154.9838  140.1316  166.6149 H   0  0  0  0  0  0  0  0  0  0  0  0
  155.4253  141.7455  166.0636 H   0  0  0  0  0  0  0  0  0  0  0  0
  156.5449  140.8193  167.0556 H   0  0  0  0  0  0  0  0  0  0  0  0
  157.8479  138.8462  165.9995 H   0  0  0  0  0  0  0  0  0  0  0  0
  156.3028  138.0977  165.7077 H   0  0  0  0  0  0  0  0  0  0  0  0
  158.4289  138.7319  163.6075 H   0  0  0  0  0  0  0  0  0  0  0  0
  158.0796  137.1547  164.2057 H   0  0  0  0  0  0  0  0  0  0  0  0
  157.0494  137.6197  161.9801 H   0  0  0  0  0  0  0  0  0  0  0  0
  155.9077  135.9648  163.4288 H   0  0  0  0  0  0  0  0  0  0  0  0
  154.0239  137.5939  161.6750 H   0  0  0  0  0  0  0  0  0  0  0  0
  153.6595  135.9953  162.3131 H   0  0  0  0  0  0  0  0  0  0  0  0
  154.9748  136.1867  161.1903 H   0  0  0  0  0  0  0  0  0  0  0  0
  154.1924  138.2928  164.3883 H   0  0  0  0  0  0  0  0  0  0  0  0
  155.1326  137.1649  165.3739 H   0  0  0  0  0  0  0  0  0  0  0  0
  153.7162  136.6068  164.5399 H   0  0  0  0  0  0  0  0  0  0  0  0
  152.8360  142.9545  160.6536 H   0  0  0  0  0  0  0  0  0  0  0  0
  1  2  1  0  0  0  0
  1 24  1  0  0  0  0
  1 25  1  0  0  0  0
  1 26  1  0  0  0  0
  2  3  1  0  0  0  0
  2 27  1  0  0  0  0
  2 28  1  0  0  0  0
  3 23  1  0  0  0  0
  3  4  1  0  0  0  0
  4  5  2  0  0  0  0
  4 29  1  0  0  0  0
  5  6  1  0  0  0  0
  5 30  1  0  0  0  0
  6  7  2  0  0  0  0
  6  8  1  0  0  0  0
  8  9  1  0  0  0  0
  8 23  2  0  0  0  0
  9 10  1  0  0  0  0
  9 31  1  0  0  0  0
 10 11  2  0  0  0  0
 10 12  1  0  0  0  0
 12 13  1  0  0  0  0
 12 32  1  0  0  0  0
 13 19  1  0  0  0  0
 13 14  1  0  0  0  0
 13 33  1  0  0  0  0
 14 15  1  0  0  0  0
 14 34  1  0  0  0  0
 14 35  1  0  0  0  0
 15 16  1  0  0  0  0
 15 17  1  0  0  0  0
 15 36  1  0  0  0  0
 16 37  1  0  0  0  0
 16 38  1  0  0  0  0
 16 39  1  0  0  0  0
 17 18  1  0  0  0  0
 17 40  1  0  0  0  0
 17 41  1  0  0  0  0
 18 19  1  0  0  0  0
 18 42  1  0  0  0  0
 18 43  1  0  0  0  0
 19 20  1  0  0  0  0
 19 44  1  0  0  0  0
 20 21  1  0  0  0  0
 20 22  1  0  0  0  0
 20 45  1  0  0  0  0
 21 46  1  0  0  0  0
 21 47  1  0  0  0  0
 21 48  1  0  0  0  0
 22 49  1  0  0  0  0
 22 50  1  0  0  0  0
 22 51  1  0  0  0  0
 23 52  1  0  0  0  0
M  END
> <s_m_source_file>
AV-unprocessed.smi

> <i_m_source_file_index>
3030

> <i_lp_mmshare_version>
43012

> <i_f3d_flags>
0

> <s_epik_input>
W0NIM11bQ0gyXW4xW2NIXVtjSF1jKD1PKWMoW2NIXTEpW05IXUMoPU8pW05IXVtDQEBIXTJbQ0gyXVtDQEBIXShbQ0gzXSlbQ0gyXVtDSDJdW0NASF0yW0NIXShbQ0gzXSlbQ0gzXQ==

> <s_epik_cmdline>
J2VwaWtfcHl0aG9uJywgJy1waCcsICc3LjAnLCAnLXRuJywgJzgnLCAnLW1hJywgJzIwMCcsICctbWV0YWxfYmluZGluZycsICctaW1hZScsICc8aW5maWxlLm1hZT4nLCAnLW9tYWUnLCAnPG91dGZpbGUubWFlPic=

> <r_lp_tautomer_probability>
1

> <r_epik_Ionization_Penalty>
0.00147933

> <r_epik_Ionization_Penalty_Charging>
0.00145753

> <r_epik_Ionization_Penalty_Neutral>
2.17987e-05

> <r_epik_State_Penalty>
0.00097457

> <r_epik_Charging_Adjusted_Penalty>
0.0024321

> <i_epik_Tot_Q>
0

> <i_epik_Tot_abs_Q>
0

> <r_epik_Metal_State_Penalty>
-0

> <b_epik_Metal_Only>
0

> <s_lp_Force_Field>
OPLS_2005

> <r_lp_Energy>
13.818

> <b_lp_Chiralities_Consistent>
1

> <s_lp_Variant>
AV-unprocessed.smi:3030-2

> <Gold.Version>
5.8.1

> <Gold.Id.Protein>
6NUR|6NUR_protein|mol2

> <Gold.PLP.Fitness>
45.8258

> <Gold.PLP.PLP>
-40.2525

> <Gold.PLP.part.hbond>
-2.0000

> <Gold.PLP.part.metal>
0.0000

> <Gold.PLP.part.buried>
-4.3733

> <Gold.PLP.part.nonpolar>
-33.8148

> <Gold.PLP.part.repulsive>
0.0680

> <Gold.PLP.ligand.clash>
0.0937

> <Gold.PLP.ligand.torsion>
0.1828

> <Gold.PLP.Chemscore.Hbond>
1.0000

> <Gold.PLP.Chemscore.CHOScore>
0.9888

> <Gold.PLP.Chemscore.Metal>
0.0000

> <Gold.Chemscore.Hbonds>
donor molecule, donor type, donor heavy atom, donor atom, acceptor molecule, acceptor atom, score
      P1  H  7997  8010       L1     7  1.00
      L1  C     4    29       P1  8028  1.00

> <Gold.PLP.Chemscore.Internal.Correction>
0.0661

> <Gold.Rescore>
     Score         DG    S(hbond)    S(metal)    S(lipo)     H(rot)  DE(clash)    DE(int)     intcor
     12.40     -18.55       0.91        0.00     113.43       1.27       1.64       4.51       ----

> <Gold.Chemscore.Fitness>
12.4040

> <Gold.Chemscore.DG>
-18.5543

> <Gold.Chemscore.ZeroCoef>
-5.4800

> <Gold.Chemscore.Hbond>
0.9133

> <Gold.Chemscore.Metal>
0.0000

> <Gold.Chemscore.Lipo>
113.4297

> <Gold.Chemscore.Internal_Hbond>
0.0000

> <Gold.Chemscore.DEClash>
1.6383

> <Gold.Chemscore.DEInternal>
4.5120

> <Gold.Chemscore.Rot>
1.2685

> <Gold.Chemscore.Internal.Correction>
   9.000000E+99

> <Gold.Chemscore.Hbonds>
donor molecule, donor type, donor heavy atom, donor atom, acceptor molecule, acceptor atom, score
      P1  H  7997  8010       L1     7  0.40

> <Gold.Chemscore.Hbond.Weighted>
-3.0504

> <Gold.Chemscore.Metal.Weighted>
-0.0000

> <Gold.Chemscore.Lipo.Weighted>
-13.2713

> <Gold.Chemscore.Internal_Hbond.Weighted>
0.0000

> <Gold.Chemscore.DEClash.Weighted>
1.6383

> <Gold.Chemscore.DEInternal.Weighted>
4.5120

> <Gold.Chemscore.Rot.Weighted>
3.2474

> <Gold.Chemscore.Internal.Correction.Weighted>
   9.000000E+99

> <Gold.Protein.RotatedTorsions>
[ 6907 6896 6895 6894 ] final    4.10 input  -60.11 | X-H torsion
[ 7974 7965 7964 7962 ] final -105.29 input  175.53 | X-H torsion
[ 8008 7997 7996 7995 ] final   54.23 input   59.86 | X-H torsion
[ 10167 10162 10161 10158 ] final  121.91 input  -65.29 | X-H torsion
[ 10718 10713 10712 10709 ] final   20.38 input   66.30 | X-H torsion
[ 10763 10752 10751 10750 ] final  164.22 input  -60.55 | X-H torsion
[ 11005 11000 10999 10996 ] final -149.45 input  -57.11 | X-H torsion

> <Gold.Protein.ActiveResidues>
 VAL166  LYS551  ARG553  GLY616  TRP617  ASP618  TYR619  PRO620  LYS621  CYS622 
 ASP623  PHE694  ASN695  SER759  ASP760  ASP761  ALA762  ILE779  LEU786  VAL792 
 PHE793  MET794  SER795  GLU796  ALA797  LYS798  CYS799  TRP800  GLU811  SER814 

> <Gold.Protein.RotatedAtoms>
  151.6358  135.1018  160.0130 H   0  0  0  0  0  0  0  0  0  0  0  0  # atno 6907 bound_to 6896
  152.4081  133.6916  159.6382 H   0  0  0  0  0  0  0  0  0  0  0  0  # atno 6908 bound_to 6896
  150.7974  133.8590  159.3267 H   0  0  0  0  0  0  0  0  0  0  0  0  # atno 6909 bound_to 6896
  145.2324  140.9175  143.3197 H   0  0  0  0  0  0  0  0  0  0  0  0  # atno 7974 bound_to 7965
  155.4813  140.3468  155.4340 H   0  0  0  0  0  0  0  0  0  0  0  0  # atno 8008 bound_to 7997
  156.1037  140.1442  156.9461 H   0  0  0  0  0  0  0  0  0  0  0  0  # atno 8009 bound_to 7997
  154.4710  140.0901  156.7123 H   0  0  0  0  0  0  0  0  0  0  0  0  # atno 8010 bound_to 7997
  139.5890  144.7018  151.3336 H   0  0  0  0  0  0  0  0  0  0  0  0  # atno 10167 bound_to 10162
  157.1237  130.6561  149.5931 H   0  0  0  0  0  0  0  0  0  0  0  0  # atno 10718 bound_to 10713
  154.3056  135.2758  155.2590 H   0  0  0  0  0  0  0  0  0  0  0  0  # atno 10763 bound_to 10752
  154.5008  135.5808  153.6533 H   0  0  0  0  0  0  0  0  0  0  0  0  # atno 10764 bound_to 10752
  152.9894  135.6157  154.3229 H   0  0  0  0  0  0  0  0  0  0  0  0  # atno 10765 bound_to 10752
  140.7506  134.3411  157.5127 H   0  0  0  0  0  0  0  0  0  0  0  0  # atno 11005 bound_to 11000
  144.9664  139.3925  143.6330 LP  0  0  0  0  0  0  0  0  0  0  0  0  # atno 17320 bound_to 7965
  146.3349  139.8742  142.8835 LP  0  0  0  0  0  0  0  0  0  0  0  0  # atno 17321 bound_to 7965
  140.7157  143.7273  150.7650 LP  0  0  0  0  0  0  0  0  0  0  0  0  # atno 17342 bound_to 10162
  140.0824  143.4956  152.2523 LP  0  0  0  0  0  0  0  0  0  0  0  0  # atno 17343 bound_to 10162
  155.9823  130.4835  150.6873 LP  0  0  0  0  0  0  0  0  0  0  0  0  # atno 17370 bound_to 10713
  157.4454  131.0866  151.0901 LP  0  0  0  0  0  0  0  0  0  0  0  0  # atno 17371 bound_to 10713
  139.8788  134.9139  156.3095 LP  0  0  0  0  0  0  0  0  0  0  0  0  # atno 17394 bound_to 11000
  140.9754  133.7300  156.0595 LP  0  0  0  0  0  0  0  0  0  0  0  0  # atno 17395 bound_to 11000

$$$$
