AV-unprocessed.smi:1677|AV-procd|sdf|6726|dock6
  -GOLD-   22720 7473D 1   1.00000     0.00000
 Structure written by MMmdl.
 36 37  0  0  0  0  0  0  0  0  1 V2000
  152.1455  139.6376  155.5747 C   0  0  0  0  0  0  0  0  0  0  0  0
  150.7389  140.1941  155.8322 C   0  0  2  0  0  0  0  0  0  0  0  0
  150.0631  140.6441  154.5196 C   0  0  0  0  0  0  0  0  0  0  0  0
  148.6381  140.8736  154.6739 N   0  0  0  0  0  0  0  0  0  0  0  0
  147.7232  141.1663  153.6714 C   0  0  0  0  0  0  0  0  0  0  0  0
  146.4958  141.2871  154.2828 C   0  0  0  0  0  0  0  0  0  0  0  0
  146.6319  141.0801  155.6534 N   0  0  0  0  0  0  0  0  0  0  0  0
  147.9277  140.8441  155.8101 C   0  0  0  0  0  0  0  0  0  0  0  0
  150.8341  141.3083  156.7744 N   0  0  0  0  0  0  0  0  0  0  0  0
  151.5497  141.3158  157.9107 C   0  0  0  0  0  0  0  0  0  0  0  0
  152.2521  140.3724  158.2754 O   0  0  0  0  0  0  0  0  0  0  0  0
  151.4403  142.5763  158.7772 C   0  0  1  0  0  0  0  0  0  0  0  0
  152.2614  142.4229  160.0780 C   0  0  0  0  0  0  0  0  0  0  0  0
  152.3847  143.7335  160.8350 C   0  0  0  0  0  0  0  0  0  0  0  0
  152.1195  144.9316  160.2865 C   0  0  0  0  0  0  0  0  0  0  0  0
  151.6709  145.1113  158.8470 C   0  0  0  0  0  0  0  0  0  0  0  0
  151.8805  143.8373  158.0067 C   0  0  0  0  0  0  0  0  0  0  0  0
  152.1105  138.7821  154.8996 H   0  0  0  0  0  0  0  0  0  0  0  0
  152.6123  139.3044  156.5023 H   0  0  0  0  0  0  0  0  0  0  0  0
  152.7948  140.3897  155.1252 H   0  0  0  0  0  0  0  0  0  0  0  0
  150.1494  139.3861  156.2694 H   0  0  0  0  0  0  0  0  0  0  0  0
  150.5282  141.5551  154.1399 H   0  0  0  0  0  0  0  0  0  0  0  0
  150.1955  139.8827  153.7500 H   0  0  0  0  0  0  0  0  0  0  0  0
  148.0123  141.2545  152.6345 H   0  0  0  0  0  0  0  0  0  0  0  0
  145.5329  141.5056  153.8452 H   0  0  0  0  0  0  0  0  0  0  0  0
  148.3692  140.6346  156.7734 H   0  0  0  0  0  0  0  0  0  0  0  0
  150.2895  142.1309  156.5586 H   0  0  0  0  0  0  0  0  0  0  0  0
  150.3923  142.7100  159.0526 H   0  0  0  0  0  0  0  0  0  0  0  0
  151.7865  141.6880  160.7291 H   0  0  0  0  0  0  0  0  0  0  0  0
  153.2686  142.0578  159.8719 H   0  0  0  0  0  0  0  0  0  0  0  0
  152.7159  143.6741  161.8613 H   0  0  0  0  0  0  0  0  0  0  0  0
  152.2135  145.8276  160.8826 H   0  0  0  0  0  0  0  0  0  0  0  0
  150.6164  145.3885  158.8545 H   0  0  0  0  0  0  0  0  0  0  0  0
  152.2153  145.9438  158.4009 H   0  0  0  0  0  0  0  0  0  0  0  0
  152.9367  143.7543  157.7449 H   0  0  0  0  0  0  0  0  0  0  0  0
  151.3369  143.9257  157.0650 H   0  0  0  0  0  0  0  0  0  0  0  0
  1  2  1  0  0  0  0
  1 18  1  0  0  0  0
  1 19  1  0  0  0  0
  1 20  1  0  0  0  0
  2  3  1  0  0  0  0
  2  9  1  0  0  0  0
  2 21  1  0  0  0  0
  3  4  1  0  0  0  0
  3 22  1  0  0  0  0
  3 23  1  0  0  0  0
  4  8  1  0  0  0  0
  4  5  1  0  0  0  0
  5  6  2  0  0  0  0
  5 24  1  0  0  0  0
  6  7  1  0  0  0  0
  6 25  1  0  0  0  0
  7  8  2  0  0  0  0
  8 26  1  0  0  0  0
  9 10  1  0  0  0  0
  9 27  1  0  0  0  0
 10 11  2  0  0  0  0
 10 12  1  0  0  0  0
 12 17  1  0  0  0  0
 12 13  1  0  0  0  0
 12 28  1  0  0  0  0
 13 14  1  0  0  0  0
 13 29  1  0  0  0  0
 13 30  1  0  0  0  0
 14 15  2  0  0  0  0
 14 31  1  0  0  0  0
 15 16  1  0  0  0  0
 15 32  1  0  0  0  0
 16 17  1  0  0  0  0
 16 33  1  0  0  0  0
 16 34  1  0  0  0  0
 17 35  1  0  0  0  0
 17 36  1  0  0  0  0
M  END
> <s_m_source_file>
AV-unprocessed.smi

> <i_m_source_file_index>
1677

> <i_lp_mmshare_version>
43012

> <i_f3d_flags>
0

> <s_epik_input>
W2NIXTFuW2NIXVtjSF1uMVtDSDJdW0NAQEhdKFtDSDNdKVtOSF1DKD1PKVtDQEBIXTJbQ0gyXVtDSF09W0NIXVtDSDJdW0NIMl0y

> <s_epik_cmdline>
J2VwaWtfcHl0aG9uJywgJy1waCcsICc3LjAnLCAnLXRuJywgJzgnLCAnLW1hJywgJzIwMCcsICctbWV0YWxfYmluZGluZycsICctaW1hZScsICc8aW5maWxlLm1hZT4nLCAnLW9tYWUnLCAnPG91dGZpbGUubWFlPic=

> <r_lp_tautomer_probability>
1

> <r_epik_Ionization_Penalty>
0.640435

> <r_epik_Ionization_Penalty_Charging>
0.640435

> <r_epik_Ionization_Penalty_Neutral>
2.11108e-08

> <r_epik_State_Penalty>
0.658069

> <r_epik_Charging_Adjusted_Penalty>
1.2985

> <i_epik_Tot_Q>
0

> <i_epik_Tot_abs_Q>
0

> <r_epik_Metal_State_Penalty>
0.311689

> <b_epik_Metal_Only>
0

> <s_lp_Force_Field>
OPLS_2005

> <r_lp_Energy>
9.94345

> <b_lp_Chiralities_Consistent>
1

> <s_lp_Variant>
AV-unprocessed.smi:1677-7

> <Gold.Version>
5.8.1

> <Gold.Id.Protein>
6NUR|6NUR_protein|mol2

> <Gold.PLP.Fitness>
43.4217

> <Gold.PLP.PLP>
-37.9406

> <Gold.PLP.part.hbond>
0.0000

> <Gold.PLP.part.metal>
0.0000

> <Gold.PLP.part.buried>
-3.0550

> <Gold.PLP.part.nonpolar>
-35.6983

> <Gold.PLP.part.repulsive>
0.1382

> <Gold.PLP.ligand.clash>
0.0000

> <Gold.PLP.ligand.torsion>
0.2726

> <Gold.PLP.Chemscore.Hbond>
0.0000

> <Gold.PLP.Chemscore.CHOScore>
2.0000

> <Gold.PLP.Chemscore.Metal>
0.0000

> <Gold.Chemscore.Hbonds>
donor molecule, donor type, donor heavy atom, donor atom, acceptor molecule, acceptor atom, score
      L1  C     5    24       P1  7957  1.00
      L1  C     6    25       P1 10175  1.00

> <Gold.PLP.Chemscore.Internal.Correction>
0.0263

> <Gold.Rescore>
     Score         DG    S(hbond)    S(metal)    S(lipo)     H(rot)  DE(clash)    DE(int)     intcor
     11.16     -13.21       0.00        0.00     104.33       1.75       0.40       1.66       ----

> <Gold.Chemscore.Fitness>
11.1558

> <Gold.Chemscore.DG>
-13.2130

> <Gold.Chemscore.ZeroCoef>
-5.4800

> <Gold.Chemscore.Hbond>
0.0000

> <Gold.Chemscore.Metal>
0.0000

> <Gold.Chemscore.Lipo>
104.3293

> <Gold.Chemscore.Internal_Hbond>
0.0000

> <Gold.Chemscore.DEClash>
0.3999

> <Gold.Chemscore.DEInternal>
1.6572

> <Gold.Chemscore.Rot>
1.7475

> <Gold.Chemscore.Internal.Correction>
   9.000000E+99

> <Gold.Chemscore.Hbond.Weighted>
-0.0000

> <Gold.Chemscore.Metal.Weighted>
-0.0000

> <Gold.Chemscore.Lipo.Weighted>
-12.2065

> <Gold.Chemscore.Internal_Hbond.Weighted>
0.0000

> <Gold.Chemscore.DEClash.Weighted>
0.3999

> <Gold.Chemscore.DEInternal.Weighted>
1.6572

> <Gold.Chemscore.Rot.Weighted>
4.4735

> <Gold.Chemscore.Internal.Correction.Weighted>
   9.000000E+99

> <Gold.Protein.RotatedTorsions>
[ 6907 6896 6895 6894 ] final   58.49 input  -60.11 | X-H torsion
[ 7974 7965 7964 7962 ] final -163.20 input  175.53 | X-H torsion
[ 8008 7997 7996 7995 ] final  -55.09 input   59.86 | X-H torsion
[ 10167 10162 10161 10158 ] final   30.49 input  -65.29 | X-H torsion
[ 10718 10713 10712 10709 ] final    1.88 input   66.30 | X-H torsion
[ 10763 10752 10751 10750 ] final   63.23 input  -60.55 | X-H torsion
[ 11005 11000 10999 10996 ] final   88.96 input  -57.11 | X-H torsion

> <Gold.Protein.ActiveResidues>
 VAL166  LYS551  ARG553  GLY616  TRP617  ASP618  TYR619  PRO620  LYS621  CYS622 
 ASP623  PHE694  ASN695  SER759  ASP760  ASP761  ALA762  ILE779  LEU786  VAL792 
 PHE793  MET794  SER795  GLU796  ALA797  LYS798  CYS799  TRP800  GLU811  SER814 

> <Gold.Protein.RotatedAtoms>
  152.3829  134.6563  160.0136 H   0  0  0  0  0  0  0  0  0  0  0  0  # atno 6907 bound_to 6896
  151.6821  133.3306  159.3230 H   0  0  0  0  0  0  0  0  0  0  0  0  # atno 6908 bound_to 6896
  150.7761  134.6708  159.6435 H   0  0  0  0  0  0  0  0  0  0  0  0  # atno 6909 bound_to 6896
  144.7333  140.3141  143.6182 H   0  0  0  0  0  0  0  0  0  0  0  0  # atno 7974 bound_to 7965
  154.4183  140.1161  156.5421 H   0  0  0  0  0  0  0  0  0  0  0  0  # atno 8008 bound_to 7997
  155.6497  140.3496  155.4725 H   0  0  0  0  0  0  0  0  0  0  0  0  # atno 8009 bound_to 7997
  155.9803  140.1159  157.0723 H   0  0  0  0  0  0  0  0  0  0  0  0  # atno 8010 bound_to 7997
  140.4673  144.0816  150.6228 H   0  0  0  0  0  0  0  0  0  0  0  0  # atno 10167 bound_to 10162
  156.8548  130.5566  149.5667 H   0  0  0  0  0  0  0  0  0  0  0  0  # atno 10718 bound_to 10713
  153.0010  135.5436  154.6319 H   0  0  0  0  0  0  0  0  0  0  0  0  # atno 10763 bound_to 10752
  154.5594  135.2832  155.0935 H   0  0  0  0  0  0  0  0  0  0  0  0  # atno 10764 bound_to 10752
  154.2144  135.6461  153.5178 H   0  0  0  0  0  0  0  0  0  0  0  0  # atno 10765 bound_to 10752
  139.8885  134.8521  156.3074 H   0  0  0  0  0  0  0  0  0  0  0  0  # atno 11005 bound_to 11000
  145.7635  139.1833  143.2253 LP  0  0  0  0  0  0  0  0  0  0  0  0  # atno 17320 bound_to 7965
  146.0967  140.7592  142.9569 LP  0  0  0  0  0  0  0  0  0  0  0  0  # atno 17321 bound_to 7965
  140.4021  143.2699  151.9935 LP  0  0  0  0  0  0  0  0  0  0  0  0  # atno 17342 bound_to 10162
  139.4813  144.5989  151.7641 LP  0  0  0  0  0  0  0  0  0  0  0  0  # atno 17343 bound_to 10162
  156.0808  130.5819  150.9560 LP  0  0  0  0  0  0  0  0  0  0  0  0  # atno 17370 bound_to 10713
  157.6283  131.0923  150.8491 LP  0  0  0  0  0  0  0  0  0  0  0  0  # atno 17371 bound_to 10713
  140.9873  133.7230  156.0761 LP  0  0  0  0  0  0  0  0  0  0  0  0  # atno 17394 bound_to 11000
  140.7671  134.3874  157.5515 LP  0  0  0  0  0  0  0  0  0  0  0  0  # atno 17395 bound_to 11000

$$$$
