AV-unprocessed.smi:112|AV-procd|sdf|1087|dock1
  -GOLD-   2262018183D 1   1.00000     0.00000
 Structure written by MMmdl.
 54 57  0  0  0  0  0  0  0  0  3 V2000
  152.4565  144.1717  161.8647 C   0  0  0  0  0  0  0  0  0  0  0  0
  152.5978  143.0322  160.8682 C   0  0  0  0  0  0  0  0  0  0  0  0
  153.4649  142.0121  161.0603 C   0  0  0  0  0  0  0  0  0  0  0  0
  153.6142  140.9599  160.1772 N   0  0  0  0  0  0  0  0  0  0  0  0
  154.6069  139.8602  160.4632 C   0  0  2  0  0  0  0  0  0  0  0  0
  155.3668  140.1203  161.7560 C   0  0  0  0  0  0  0  0  0  0  0  0
  156.6634  139.3798  161.4893 C   0  0  1  0  0  0  0  0  0  0  0  0
  156.5655  138.0426  161.9412 O   0  0  0  0  0  0  0  0  0  0  0  0
  156.8162  139.4147  159.9537 C   0  0  2  0  0  0  0  0  0  0  0  0
  157.8696  140.4336  159.4877 C   0  0  0  0  0  0  0  0  0  0  0  0
  158.0827  140.3061  158.0983 O   0  0  0  0  0  0  0  0  0  0  0  0
  155.5510  139.8391  159.4429 O   0  0  0  0  0  0  0  0  0  0  0  0
  152.8277  140.9086  159.0090 C   0  0  0  0  0  0  0  0  0  0  0  0
  152.9173  139.9624  158.2237 O   0  0  0  0  0  0  0  0  0  0  0  0
  151.9201  141.9660  158.7718 N   0  0  0  0  0  0  0  0  0  0  0  0
  151.0771  141.9173  157.5553 C   0  0  0  0  0  0  0  0  0  0  0  0
  149.5610  141.9660  157.8478 C   0  0  0  0  0  0  0  0  0  0  0  0
  149.1844  142.2168  158.9934 O   0  0  0  0  0  0  0  0  0  0  0  0
  148.7086  141.7261  156.8202 N   0  0  0  0  0  0  0  0  0  0  0  0
  149.1537  141.4125  155.4513 C   0  0  0  0  0  0  0  0  0  0  0  0
  147.8720  141.2043  154.6152 C   0  0  0  0  0  0  0  0  0  0  0  0
  146.7753  141.4331  155.6126 C   0  0  0  0  0  0  0  0  0  0  0  0
  145.3927  141.3704  155.3688 C   0  0  0  0  0  0  0  0  0  0  0  0
  144.4971  141.6189  156.4383 C   0  0  0  0  0  0  0  0  0  0  0  0
  143.0381  141.5626  156.2197 N   0  3  0  0  0  0  0  0  0  0  0  0
  142.6283  141.2642  155.1025 O   0  0  0  0  0  0  0  0  0  0  0  0
  142.2989  141.8167  157.1651 O   0  5  0  0  0  0  0  0  0  0  0  0
  145.0227  141.9234  157.7222 C   0  0  0  0  0  0  0  0  0  0  0  0
  146.4151  141.9821  157.9494 C   0  0  0  0  0  0  0  0  0  0  0  0
  147.2891  141.7306  156.8695 C   0  0  0  0  0  0  0  0  0  0  0  0
  151.7571  143.0513  159.6686 C   0  0  0  0  0  0  0  0  0  0  0  0
  150.9391  143.9428  159.4332 O   0  0  0  0  0  0  0  0  0  0  0  0
  153.1364  144.0581  162.7097 H   0  0  0  0  0  0  0  0  0  0  0  0
  151.4399  144.2109  162.2577 H   0  0  0  0  0  0  0  0  0  0  0  0
  152.6766  145.1267  161.3863 H   0  0  0  0  0  0  0  0  0  0  0  0
  154.0694  142.0160  161.9562 H   0  0  0  0  0  0  0  0  0  0  0  0
  154.0800  138.9053  160.4591 H   0  0  0  0  0  0  0  0  0  0  0  0
  155.5618  141.1885  161.8592 H   0  0  0  0  0  0  0  0  0  0  0  0
  154.8094  139.7735  162.6271 H   0  0  0  0  0  0  0  0  0  0  0  0
  157.5009  139.8483  162.0076 H   0  0  0  0  0  0  0  0  0  0  0  0
  156.1827  137.5179  161.2546 H   0  0  0  0  0  0  0  0  0  0  0  0
  157.0607  138.4219  159.5705 H   0  0  0  0  0  0  0  0  0  0  0  0
  157.5759  141.4541  159.7355 H   0  0  0  0  0  0  0  0  0  0  0  0
  158.8244  140.2430  159.9784 H   0  0  0  0  0  0  0  0  0  0  0  0
  158.8125  140.8564  157.8572 H   0  0  0  0  0  0  0  0  0  0  0  0
  151.3354  142.7367  156.8830 H   0  0  0  0  0  0  0  0  0  0  0  0
  151.2975  141.0190  156.9769 H   0  0  0  0  0  0  0  0  0  0  0  0
  149.7449  142.2319  155.0401 H   0  0  0  0  0  0  0  0  0  0  0  0
  149.7642  140.5086  155.4391 H   0  0  0  0  0  0  0  0  0  0  0  0
  147.7997  141.9206  153.7962 H   0  0  0  0  0  0  0  0  0  0  0  0
  147.8124  140.1946  154.2082 H   0  0  0  0  0  0  0  0  0  0  0  0
  145.0340  141.1361  154.3773 H   0  0  0  0  0  0  0  0  0  0  0  0
  144.3585  142.1169  158.5516 H   0  0  0  0  0  0  0  0  0  0  0  0
  146.7719  142.2183  158.9393 H   0  0  0  0  0  0  0  0  0  0  0  0
  1  2  1  0  0  0  0
  1 33  1  0  0  0  0
  1 34  1  0  0  0  0
  1 35  1  0  0  0  0
  2 31  1  0  0  0  0
  2  3  2  0  0  0  0
  3  4  1  0  0  0  0
  3 36  1  0  0  0  0
  4  5  1  0  0  0  0
  4 13  1  0  0  0  0
  5 12  1  0  0  0  0
  5  6  1  0  0  0  0
  5 37  1  0  0  0  0
  6  7  1  0  0  0  0
  6 38  1  0  0  0  0
  6 39  1  0  0  0  0
  7  8  1  0  0  0  0
  7  9  1  0  0  0  0
  7 40  1  0  0  0  0
  8 41  1  0  0  0  0
  9 10  1  0  0  0  0
  9 12  1  0  0  0  0
  9 42  1  0  0  0  0
 10 11  1  0  0  0  0
 10 43  1  0  0  0  0
 10 44  1  0  0  0  0
 11 45  1  0  0  0  0
 13 14  2  0  0  0  0
 13 15  1  0  0  0  0
 15 16  1  0  0  0  0
 15 31  1  0  0  0  0
 16 17  1  0  0  0  0
 16 46  1  0  0  0  0
 16 47  1  0  0  0  0
 17 18  2  0  0  0  0
 17 19  1  0  0  0  0
 19 30  1  0  0  0  0
 19 20  1  0  0  0  0
 20 21  1  0  0  0  0
 20 48  1  0  0  0  0
 20 49  1  0  0  0  0
 21 22  1  0  0  0  0
 21 50  1  0  0  0  0
 21 51  1  0  0  0  0
 22 30  2  0  0  0  0
 22 23  1  0  0  0  0
 23 24  2  0  0  0  0
 23 52  1  0  0  0  0
 24 25  1  0  0  0  0
 24 28  1  0  0  0  0
 25 26  2  0  0  0  0
 25 27  1  0  0  0  0
 28 29  2  0  0  0  0
 28 53  1  0  0  0  0
 29 30  1  0  0  0  0
 29 54  1  0  0  0  0
 31 32  2  0  0  0  0
M  CHG  1  25   1
M  CHG  1  27  -1
M  END
> <s_m_source_file>
AV-unprocessed.smi

> <i_m_source_file_index>
112

> <i_lp_mmshare_version>
43012

> <i_f3d_flags>
0

> <s_epik_input>
W09IXVtDSDJdW0NAQEhdKE8xKVtDQEhdKFtPSF0pW0NIMl1bQ0BIXTFuKFtjSF1jMltDSDNdKWMoPU8pbihjMj1PKVtDSDJdQyg9TylOKFtDSDJdW0NIMl0zKWMoYzM0KVtjSF1bY0hdYyhbY0hdNClbTitdKD1PKVtPLV0=

> <s_epik_cmdline>
J2VwaWtfcHl0aG9uJywgJy1waCcsICc3LjAnLCAnLXRuJywgJzgnLCAnLW1hJywgJzIwMCcsICctbWV0YWxfYmluZGluZycsICctaW1hZScsICc8aW5maWxlLm1hZT4nLCAnLW9tYWUnLCAnPG91dGZpbGUubWFlPic=

> <r_lp_tautomer_probability>
1

> <r_epik_Ionization_Penalty>
2.5696e-07

> <r_epik_Ionization_Penalty_Charging>
1.04886e-08

> <r_epik_Ionization_Penalty_Neutral>
2.46472e-07

> <r_epik_State_Penalty>
-0

> <r_epik_Charging_Adjusted_Penalty>
1.04886e-08

> <i_epik_Tot_Q>
0

> <i_epik_Tot_abs_Q>
2

> <r_epik_Metal_State_Penalty>
-0

> <b_epik_Metal_Only>
0

> <s_epik_Chemistry_Notes>
This compound contains an acetal/aminal-like group ( X-CH(R)-Y where X, Y are N, S, or O) that may be acid/base labile, releasing an aldehyde.

> <s_lp_Force_Field>
OPLS_2005

> <r_lp_Energy>
58.3709

> <b_lp_Chiralities_Consistent>
1

> <s_lp_Variant>
AV-unprocessed.smi:112-5

> <Gold.Version>
5.8.1

> <Gold.Id.Protein>
6NUR|6NUR_protein|mol2

> <Gold.PLP.Fitness>
51.6934

> <Gold.PLP.PLP>
-45.9474

> <Gold.PLP.part.hbond>
-5.0000

> <Gold.PLP.part.metal>
0.0000

> <Gold.PLP.part.buried>
-4.4524

> <Gold.PLP.part.nonpolar>
-38.2286

> <Gold.PLP.part.repulsive>
1.8820

> <Gold.PLP.ligand.clash>
0.0000

> <Gold.PLP.ligand.torsion>
0.1460

> <Gold.PLP.Chemscore.Hbond>
2.0000

> <Gold.PLP.Chemscore.CHOScore>
0.0000

> <Gold.PLP.Chemscore.Metal>
0.0000

> <Gold.Chemscore.Hbonds>
donor molecule, donor type, donor heavy atom, donor atom, acceptor molecule, acceptor atom, score
      P1  H  7997  8008       L1    11  0.50
      P1  H  7997  8009       L1    14  0.94

> <Gold.PLP.Chemscore.Internal.Correction>
0.0379

> <Gold.Rescore>
     Score         DG    S(hbond)    S(metal)    S(lipo)     H(rot)  DE(clash)    DE(int)     intcor
      4.95     -13.35       1.69        0.00      91.05       3.29       1.80       6.61       ----

> <Gold.Chemscore.Fitness>
4.9460

> <Gold.Chemscore.DG>
-13.3547

> <Gold.Chemscore.ZeroCoef>
-5.4800

> <Gold.Chemscore.Hbond>
1.6911

> <Gold.Chemscore.Metal>
0.0000

> <Gold.Chemscore.Lipo>
91.0516

> <Gold.Chemscore.Internal_Hbond>
0.0000

> <Gold.Chemscore.DEClash>
1.7999

> <Gold.Chemscore.DEInternal>
6.6089

> <Gold.Chemscore.Rot>
3.2916

> <Gold.Chemscore.Internal.Correction>
   9.000000E+99

> <Gold.Chemscore.Hbonds>
donor molecule, donor type, donor heavy atom, donor atom, acceptor molecule, acceptor atom, score
      P1  H  7997  8008       L1    11  0.44
      P1  H  7997  8009       L1    14  0.80

> <Gold.Chemscore.Hbond.Weighted>
-5.6482

> <Gold.Chemscore.Metal.Weighted>
-0.0000

> <Gold.Chemscore.Lipo.Weighted>
-10.6530

> <Gold.Chemscore.Internal_Hbond.Weighted>
0.0000

> <Gold.Chemscore.DEClash.Weighted>
1.7999

> <Gold.Chemscore.DEInternal.Weighted>
6.6089

> <Gold.Chemscore.Rot.Weighted>
8.4265

> <Gold.Chemscore.Internal.Correction.Weighted>
   9.000000E+99

> <Gold.Protein.RotatedTorsions>
[ 6907 6896 6895 6894 ] final   64.49 input  -60.11 | X-H torsion
[ 7974 7965 7964 7962 ] final  139.67 input  175.53 | X-H torsion
[ 8008 7997 7996 7995 ] final  162.14 input   59.86 | X-H torsion
[ 10167 10162 10161 10158 ] final -100.01 input  -65.29 | X-H torsion
[ 10718 10713 10712 10709 ] final   70.21 input   66.30 | X-H torsion
[ 10763 10752 10751 10750 ] final  156.44 input  -60.55 | X-H torsion
[ 11005 11000 10999 10996 ] final -104.02 input  -57.11 | X-H torsion

> <Gold.Protein.ActiveResidues>
 VAL166  LYS551  ARG553  GLY616  TRP617  ASP618  TYR619  PRO620  LYS621  CYS622 
 ASP623  PHE694  ASN695  SER759  ASP760  ASP761  ALA762  ILE779  LEU786  VAL792 
 PHE793  MET794  SER795  GLU796  ALA797  LYS798  CYS799  TRP800  GLU811  SER814 

> <Gold.Protein.RotatedAtoms>
  152.4335  134.5731  159.9926 H   0  0  0  0  0  0  0  0  0  0  0  0  # atno 6907 bound_to 6896
  151.5848  133.3367  159.3023 H   0  0  0  0  0  0  0  0  0  0  0  0  # atno 6908 bound_to 6896
  150.8231  134.7484  159.6854 H   0  0  0  0  0  0  0  0  0  0  0  0  # atno 6909 bound_to 6896
  144.9257  139.5110  143.5642 H   0  0  0  0  0  0  0  0  0  0  0  0  # atno 7974 bound_to 7965
  156.2053  140.1758  156.7813 H   0  0  0  0  0  0  0  0  0  0  0  0  # atno 8008 bound_to 7997
  154.5646  140.0693  156.8902 H   0  0  0  0  0  0  0  0  0  0  0  0  # atno 8009 bound_to 7997
  155.2784  140.3347  155.4262 H   0  0  0  0  0  0  0  0  0  0  0  0  # atno 8010 bound_to 7997
  140.2564  143.3437  152.0667 H   0  0  0  0  0  0  0  0  0  0  0  0  # atno 10167 bound_to 10162
  157.6387  130.9465  150.0619 H   0  0  0  0  0  0  0  0  0  0  0  0  # atno 10718 bound_to 10713
  154.1845  135.2798  155.3042 H   0  0  0  0  0  0  0  0  0  0  0  0  # atno 10763 bound_to 10752
  154.5977  135.5539  153.7346 H   0  0  0  0  0  0  0  0  0  0  0  0  # atno 10764 bound_to 10752
  153.0129  135.6384  154.1983 H   0  0  0  0  0  0  0  0  0  0  0  0  # atno 10765 bound_to 10752
  141.1119  133.8688  157.1559 H   0  0  0  0  0  0  0  0  0  0  0  0  # atno 11005 bound_to 11000
  146.3225  139.8170  142.8934 LP  0  0  0  0  0  0  0  0  0  0  0  0  # atno 17320 bound_to 7965
  145.3223  141.0247  143.3493 LP  0  0  0  0  0  0  0  0  0  0  0  0  # atno 17321 bound_to 7965
  139.5030  144.6747  151.6158 LP  0  0  0  0  0  0  0  0  0  0  0  0  # atno 17342 bound_to 10162
  140.6000  143.9626  150.6380 LP  0  0  0  0  0  0  0  0  0  0  0  0  # atno 17343 bound_to 10162
  156.1649  130.3645  149.9246 LP  0  0  0  0  0  0  0  0  0  0  0  0  # atno 17370 bound_to 10713
  156.7236  130.9016  151.3620 LP  0  0  0  0  0  0  0  0  0  0  0  0  # atno 17371 bound_to 10713
  140.0018  135.0024  157.0207 LP  0  0  0  0  0  0  0  0  0  0  0  0  # atno 17394 bound_to 11000
  140.4751  134.1347  155.7208 LP  0  0  0  0  0  0  0  0  0  0  0  0  # atno 17395 bound_to 11000

$$$$
