AV-unprocessed.smi:17|AV-procd|sdf|105|dock2
  -GOLD-   2262015263D 1   1.00000     0.00000
 Structure written by MMmdl.
 57 59  0  0  0  0  0  0  0  0  1 V2000
  148.2045  129.0238  154.1121 C   0  0  0  0  0  0  0  0  0  0  0  0
  149.0972  130.1774  153.6257 C   0  0  0  0  0  0  0  0  0  0  0  0
  150.4071  130.2137  154.2838 N   0  0  0  0  0  0  0  0  0  0  0  0
  150.7039  131.3070  155.0397 C   0  0  0  0  0  0  0  0  0  0  0  0
  151.6447  131.2018  156.0163 N   0  0  0  0  0  0  0  0  0  0  0  0
  151.9430  132.2482  156.7909 C   0  0  0  0  0  0  0  0  0  0  0  0
  151.4286  133.4781  156.7643 N   0  0  0  0  0  0  0  0  0  0  0  0
  150.4877  133.5963  155.7853 C   0  0  0  0  0  0  0  0  0  0  0  0
  150.0672  132.5739  154.8865 C   0  0  0  0  0  0  0  0  0  0  0  0
  149.0982  133.0803  154.0269 N   0  0  0  0  0  0  0  0  0  0  0  0
  148.9498  134.3215  154.3996 C   0  0  0  0  0  0  0  0  0  0  0  0
  149.7415  134.7124  155.4543 N   0  0  0  0  0  0  0  0  0  0  0  0
  149.7810  136.0244  156.0751 C   0  0  0  0  0  0  0  0  0  0  0  0
  150.2549  137.1354  155.1018 C   0  0  2  0  0  0  0  0  0  0  0  0
  151.7947  137.2552  155.0114 C   0  0  0  0  0  0  0  0  0  0  0  0
  152.2634  137.0537  153.6939 O   0  0  0  0  0  0  0  0  0  0  0  0
  149.5720  138.5154  155.3031 C   0  0  1  0  0  0  0  0  0  0  0  0
  150.2391  139.6924  154.6150 C   0  0  0  0  0  0  0  0  0  0  0  0
  149.1582  140.7615  154.7290 C   0  0  0  0  0  0  0  0  0  0  0  0
  147.9202  140.0643  154.6298 O   0  0  0  0  0  0  0  0  0  0  0  0
  148.1241  138.6664  154.8222 C   0  0  0  0  0  0  0  0  0  0  0  0
  151.1865  128.9811  154.4713 C   0  0  1  0  0  0  0  0  0  0  0  0
  152.6518  129.1612  154.0382 C   0  0  0  0  0  0  0  0  0  0  0  0
  151.0839  128.4251  155.9085 C   0  0  0  0  0  0  0  0  0  0  0  0
  151.9370  126.7950  156.1232 S   0  0  0  0  0  0  0  0  0  0  0  0
  150.5716  125.6853  156.6635 C   0  0  0  0  0  0  0  0  0  0  0  0
  152.4198  126.3225  154.8164 O   0  0  0  0  0  0  0  0  0  0  0  0
  152.8763  126.9213  157.2479 O   0  0  0  0  0  0  0  0  0  0  0  0
  147.2642  129.0091  153.5613 H   0  0  0  0  0  0  0  0  0  0  0  0
  147.9610  129.1215  155.1704 H   0  0  0  0  0  0  0  0  0  0  0  0
  148.6861  128.0568  153.9684 H   0  0  0  0  0  0  0  0  0  0  0  0
  149.2377  130.0687  152.5512 H   0  0  0  0  0  0  0  0  0  0  0  0
  148.5840  131.1292  153.7511 H   0  0  0  0  0  0  0  0  0  0  0  0
  152.7004  132.0737  157.5407 H   0  0  0  0  0  0  0  0  0  0  0  0
  148.2500  134.9887  153.9176 H   0  0  0  0  0  0  0  0  0  0  0  0
  148.7823  136.2362  156.4547 H   0  0  0  0  0  0  0  0  0  0  0  0
  150.4358  135.9633  156.9439 H   0  0  0  0  0  0  0  0  0  0  0  0
  149.9421  136.8128  154.1078 H   0  0  0  0  0  0  0  0  0  0  0  0
  152.1268  138.2372  155.3492 H   0  0  0  0  0  0  0  0  0  0  0  0
  152.2738  136.5294  155.6690 H   0  0  0  0  0  0  0  0  0  0  0  0
  151.5254  136.8468  153.1407 H   0  0  0  0  0  0  0  0  0  0  0  0
  149.5832  138.7365  156.3720 H   0  0  0  0  0  0  0  0  0  0  0  0
  151.1772  139.9887  155.0851 H   0  0  0  0  0  0  0  0  0  0  0  0
  150.4339  139.4851  153.5632 H   0  0  0  0  0  0  0  0  0  0  0  0
  149.2063  141.2474  155.7044 H   0  0  0  0  0  0  0  0  0  0  0  0
  149.2468  141.5313  153.9621 H   0  0  0  0  0  0  0  0  0  0  0  0
  147.9585  138.1731  153.8655 H   0  0  0  0  0  0  0  0  0  0  0  0
  147.4059  138.2634  155.5365 H   0  0  0  0  0  0  0  0  0  0  0  0
  150.7747  128.2024  153.8294 H   0  0  0  0  0  0  0  0  0  0  0  0
  153.1908  128.2148  154.0844 H   0  0  0  0  0  0  0  0  0  0  0  0
  153.1772  129.8702  154.6782 H   0  0  0  0  0  0  0  0  0  0  0  0
  152.7185  129.5231  153.0120 H   0  0  0  0  0  0  0  0  0  0  0  0
  151.5816  129.1168  156.5886 H   0  0  0  0  0  0  0  0  0  0  0  0
  150.0564  128.3368  156.2584 H   0  0  0  0  0  0  0  0  0  0  0  0
  150.9862  124.7168  156.9422 H   0  0  0  0  0  0  0  0  0  0  0  0
  149.8625  125.5420  155.8515 H   0  0  0  0  0  0  0  0  0  0  0  0
  150.0626  126.1194  157.5237 H   0  0  0  0  0  0  0  0  0  0  0  0
  1  2  1  0  0  0  0
  1 29  1  0  0  0  0
  1 30  1  0  0  0  0
  1 31  1  0  0  0  0
  2  3  1  0  0  0  0
  2 32  1  0  0  0  0
  2 33  1  0  0  0  0
  3  4  1  0  0  0  0
  3 22  1  0  0  0  0
  4  9  1  0  0  0  0
  4  5  2  0  0  0  0
  5  6  1  0  0  0  0
  6  7  2  0  0  0  0
  6 34  1  0  0  0  0
  7  8  1  0  0  0  0
  8 12  1  0  0  0  0
  8  9  2  0  0  0  0
  9 10  1  0  0  0  0
 10 11  2  0  0  0  0
 11 12  1  0  0  0  0
 11 35  1  0  0  0  0
 12 13  1  0  0  0  0
 13 14  1  0  0  0  0
 13 36  1  0  0  0  0
 13 37  1  0  0  0  0
 14 15  1  0  0  0  0
 14 17  1  0  0  0  0
 14 38  1  0  0  0  0
 15 16  1  0  0  0  0
 15 39  1  0  0  0  0
 15 40  1  0  0  0  0
 16 41  1  0  0  0  0
 17 21  1  0  0  0  0
 17 18  1  0  0  0  0
 17 42  1  0  0  0  0
 18 19  1  0  0  0  0
 18 43  1  0  0  0  0
 18 44  1  0  0  0  0
 19 20  1  0  0  0  0
 19 45  1  0  0  0  0
 19 46  1  0  0  0  0
 20 21  1  0  0  0  0
 21 47  1  0  0  0  0
 21 48  1  0  0  0  0
 22 23  1  0  0  0  0
 22 24  1  0  0  0  0
 22 49  1  0  0  0  0
 23 50  1  0  0  0  0
 23 51  1  0  0  0  0
 23 52  1  0  0  0  0
 24 25  1  0  0  0  0
 24 53  1  0  0  0  0
 24 54  1  0  0  0  0
 25 26  1  0  0  0  0
 25 27  2  0  0  0  0
 25 28  2  0  0  0  0
 26 55  1  0  0  0  0
 26 56  1  0  0  0  0
 26 57  1  0  0  0  0
M  END
> <s_m_source_file>
AV-unprocessed.smi

> <i_m_source_file_index>
17

> <i_lp_mmshare_version>
43012

> <i_f3d_flags>
0

> <s_epik_input>
W0NIM11TKD1PKSg9TylbQ0gyXVtDQEBIXShbQ0gzXSlOKFtDSDJdW0NIM10pYyhuW2NIXW4xKWMoYzEyKW5bY0hdbjJbQ0gyXVtDQEhdKFtDSDJdW09IXSlbQ0BASF0zW0NIMl1bQ0gyXU9bQ0gyXTM=

> <s_epik_cmdline>
J2VwaWtfcHl0aG9uJywgJy1waCcsICc3LjAnLCAnLXRuJywgJzgnLCAnLW1hJywgJzIwMCcsICctbWV0YWxfYmluZGluZycsICctaW1hZScsICc8aW5maWxlLm1hZT4nLCAnLW9tYWUnLCAnPG91dGZpbGUubWFlPic=

> <r_lp_tautomer_probability>
1

> <r_epik_Ionization_Penalty>
0.00119955

> <r_epik_Ionization_Penalty_Charging>
0

> <r_epik_Ionization_Penalty_Neutral>
0.00119955

> <r_epik_State_Penalty>
0.000665399

> <r_epik_Charging_Adjusted_Penalty>
0.000665399

> <i_epik_Tot_Q>
0

> <i_epik_Tot_abs_Q>
0

> <r_epik_Metal_State_Penalty>
-0

> <b_epik_Metal_Only>
0

> <s_lp_Force_Field>
OPLS_2005

> <r_lp_Energy>
34.6832

> <b_lp_Chiralities_Consistent>
1

> <s_lp_Variant>
AV-unprocessed.smi:17-7

> <Gold.Version>
5.8.1

> <Gold.Id.Protein>
6NUR|6NUR_protein|mol2

> <Gold.PLP.Fitness>
41.5208

> <Gold.PLP.PLP>
-35.8016

> <Gold.PLP.part.hbond>
-3.0000

> <Gold.PLP.part.metal>
0.0000

> <Gold.PLP.part.buried>
-4.2946

> <Gold.PLP.part.nonpolar>
-27.6132

> <Gold.PLP.part.repulsive>
0.2894

> <Gold.PLP.ligand.clash>
0.0000

> <Gold.PLP.ligand.torsion>
1.9658

> <Gold.PLP.Chemscore.Hbond>
1.9704

> <Gold.PLP.Chemscore.CHOScore>
0.8744

> <Gold.PLP.Chemscore.Metal>
0.0000

> <Gold.Chemscore.Hbonds>
donor molecule, donor type, donor heavy atom, donor atom, acceptor molecule, acceptor atom, score
      L1  H    16    41       P1  7949  0.77
      P1  H 10752 10765       L1    16  0.75
      L1  C    11    35       P1  7948  0.77

> <Gold.PLP.Chemscore.Internal.Correction>
1.1163

> <Gold.Rescore>
     Score         DG    S(hbond)    S(metal)    S(lipo)     H(rot)  DE(clash)    DE(int)     intcor
      2.77      -7.63       1.07        0.00      64.45       3.51       0.38       4.48       ----

> <Gold.Chemscore.Fitness>
2.7719

> <Gold.Chemscore.DG>
-7.6349

> <Gold.Chemscore.ZeroCoef>
-5.4800

> <Gold.Chemscore.Hbond>
1.0745

> <Gold.Chemscore.Metal>
0.0000

> <Gold.Chemscore.Lipo>
64.4537

> <Gold.Chemscore.Internal_Hbond>
0.0000

> <Gold.Chemscore.DEClash>
0.3787

> <Gold.Chemscore.DEInternal>
4.4843

> <Gold.Chemscore.Rot>
3.5059

> <Gold.Chemscore.Internal.Correction>
   9.000000E+99

> <Gold.Chemscore.Hbonds>
donor molecule, donor type, donor heavy atom, donor atom, acceptor molecule, acceptor atom, score
      L1  H    16    41       P1  7949  0.72
      P1  H 10752 10765       L1    16  0.06

> <Gold.Chemscore.Hbond.Weighted>
-3.5888

> <Gold.Chemscore.Metal.Weighted>
-0.0000

> <Gold.Chemscore.Lipo.Weighted>
-7.5411

> <Gold.Chemscore.Internal_Hbond.Weighted>
0.0000

> <Gold.Chemscore.DEClash.Weighted>
0.3787

> <Gold.Chemscore.DEInternal.Weighted>
4.4843

> <Gold.Chemscore.Rot.Weighted>
8.9750

> <Gold.Chemscore.Internal.Correction.Weighted>
   9.000000E+99

> <Gold.Protein.RotatedTorsions>
[ 6907 6896 6895 6894 ] final -128.51 input  -60.11 | X-H torsion
[ 7974 7965 7964 7962 ] final  -73.88 input  175.53 | X-H torsion
[ 8008 7997 7996 7995 ] final  -54.78 input   59.86 | X-H torsion
[ 10167 10162 10161 10158 ] final   67.22 input  -65.29 | X-H torsion
[ 10718 10713 10712 10709 ] final -144.15 input   66.30 | X-H torsion
[ 10763 10752 10751 10750 ] final  146.65 input  -60.55 | X-H torsion
[ 11005 11000 10999 10996 ] final  -99.61 input  -57.11 | X-H torsion

> <Gold.Protein.ActiveResidues>
 VAL166  LYS551  ARG553  GLY616  TRP617  ASP618  TYR619  PRO620  LYS621  CYS622 
 ASP623  PHE694  ASN695  SER759  ASP760  ASP761  ALA762  ILE779  LEU786  VAL792 
 PHE793  MET794  SER795  GLU796  ALA797  LYS798  CYS799  TRP800  GLU811  SER814 

> <Gold.Protein.RotatedAtoms>
  150.9186  133.6908  159.2837 H   0  0  0  0  0  0  0  0  0  0  0  0  # atno 6907 bound_to 6896
  151.4370  135.1015  159.9668 H   0  0  0  0  0  0  0  0  0  0  0  0  # atno 6908 bound_to 6896
  152.4968  133.8603  159.7302 H   0  0  0  0  0  0  0  0  0  0  0  0  # atno 6909 bound_to 6896
  145.6464  140.9296  143.1008 H   0  0  0  0  0  0  0  0  0  0  0  0  # atno 7974 bound_to 7965
  154.4173  140.1168  156.5370 H   0  0  0  0  0  0  0  0  0  0  0  0  # atno 8008 bound_to 7997
  155.6547  140.3496  155.4741 H   0  0  0  0  0  0  0  0  0  0  0  0  # atno 8009 bound_to 7997
  155.9763  140.1151  157.0756 H   0  0  0  0  0  0  0  0  0  0  0  0  # atno 8010 bound_to 7997
  140.0919  144.4980  150.7093 H   0  0  0  0  0  0  0  0  0  0  0  0  # atno 10167 bound_to 10162
  156.3666  130.7766  151.1941 H   0  0  0  0  0  0  0  0  0  0  0  0  # atno 10718 bound_to 10713
  154.0254  135.2902  155.3375 H   0  0  0  0  0  0  0  0  0  0  0  0  # atno 10763 bound_to 10752
  154.7021  135.5184  153.8544 H   0  0  0  0  0  0  0  0  0  0  0  0  # atno 10764 bound_to 10752
  153.0663  135.6632  154.0472 H   0  0  0  0  0  0  0  0  0  0  0  0  # atno 10765 bound_to 10752
  141.1302  133.8335  157.0995 H   0  0  0  0  0  0  0  0  0  0  0  0  # atno 11005 bound_to 11000
  144.7138  139.8270  143.7405 LP  0  0  0  0  0  0  0  0  0  0  0  0  # atno 17320 bound_to 7965
  146.1239  139.4262  143.0211 LP  0  0  0  0  0  0  0  0  0  0  0  0  # atno 17321 bound_to 7965
  140.7024  143.2444  151.4826 LP  0  0  0  0  0  0  0  0  0  0  0  0  # atno 17342 bound_to 10162
  139.5720  144.1907  152.1849 LP  0  0  0  0  0  0  0  0  0  0  0  0  # atno 17343 bound_to 10162
  157.7479  131.0384  150.4503 LP  0  0  0  0  0  0  0  0  0  0  0  0  # atno 17370 bound_to 10713
  156.4723  130.4055  149.6511 LP  0  0  0  0  0  0  0  0  0  0  0  0  # atno 17371 bound_to 10713
  140.0342  134.9886  157.0840 LP  0  0  0  0  0  0  0  0  0  0  0  0  # atno 17394 bound_to 11000
  140.4236  134.1854  155.7165 LP  0  0  0  0  0  0  0  0  0  0  0  0  # atno 17395 bound_to 11000

$$$$
