AV-unprocessed.smi:1543|AV-procd|sdf|6209|dock1
  -GOLD-   22720 6383D 1   1.00000     0.00000
 Structure written by MMmdl.
 49 50  0  0  0  0  0  0  0  0  2 V2000
  149.2857  141.5053  154.1907 C   0  0  0  0  0  0  0  0  0  0  0  0
  149.6933  140.1252  154.7178 C   0  0  1  0  0  0  0  0  0  0  0  0
  148.9796  138.9867  153.9684 C   0  0  0  0  0  0  0  0  0  0  0  0
  149.4138  137.6434  154.4493 N   0  3  2  0  0  0  0  0  0  0  0  0
  148.6976  136.9941  155.6150 C   0  0  0  0  0  0  0  0  0  0  0  0
  149.5436  135.7733  156.0500 C   0  0  0  0  0  0  0  0  0  0  0  0
  148.5616  137.9440  156.8314 C   0  0  0  0  0  0  0  0  0  0  0  0
  147.2832  136.4762  155.2030 C   0  0  0  0  0  0  0  0  0  0  0  0
  147.2492  135.7537  153.9300 N   0  0  0  0  0  0  0  0  0  0  0  0
  146.2135  135.0432  153.4592 C   0  0  0  0  0  0  0  0  0  0  0  0
  145.1557  134.8993  154.0718 O   0  0  0  0  0  0  0  0  0  0  0  0
  146.4872  134.5326  152.2466 N   0  0  0  0  0  0  0  0  0  0  0  0
  145.6637  133.7215  151.4196 C   0  0  0  0  0  0  0  0  0  0  0  0
  146.1381  132.9424  150.3364 C   0  0  0  0  0  0  0  0  0  0  0  0
  145.2145  132.1944  149.5812 C   0  0  0  0  0  0  0  0  0  0  0  0
  143.8517  132.2573  149.9304 C   0  0  0  0  0  0  0  0  0  0  0  0
  143.3838  133.0051  150.9516 N   0  0  0  0  0  0  0  0  0  0  0  0
  144.2750  133.7198  151.6708 C   0  0  0  0  0  0  0  0  0  0  0  0
  150.9019  137.5467  154.4151 C   0  0  0  0  0  0  0  0  0  0  0  0
  151.6017  138.7664  155.0658 C   0  0  1  0  0  0  0  0  0  0  0  0
  153.1166  138.7432  154.8344 C   0  0  0  0  0  0  0  0  0  0  0  0
  151.0926  139.9743  154.5142 O   0  0  0  0  0  0  0  0  0  0  0  0
  148.2172  141.6763  154.3243 H   0  0  0  0  0  0  0  0  0  0  0  0
  149.5111  141.6065  153.1287 H   0  0  0  0  0  0  0  0  0  0  0  0
  149.8164  142.2969  154.7203 H   0  0  0  0  0  0  0  0  0  0  0  0
  149.4643  140.0864  155.7825 H   0  0  0  0  0  0  0  0  0  0  0  0
  147.9014  139.1269  153.9561 H   0  0  0  0  0  0  0  0  0  0  0  0
  149.2633  139.0478  152.9166 H   0  0  0  0  0  0  0  0  0  0  0  0
  149.1017  135.2499  156.8983 H   0  0  0  0  0  0  0  0  0  0  0  0
  150.5504  136.0536  156.3571 H   0  0  0  0  0  0  0  0  0  0  0  0
  149.6414  135.0522  155.2378 H   0  0  0  0  0  0  0  0  0  0  0  0
  148.0958  137.4434  157.6798 H   0  0  0  0  0  0  0  0  0  0  0  0
  147.9454  138.8123  156.6033 H   0  0  0  0  0  0  0  0  0  0  0  0
  149.5252  138.2932  157.2001 H   0  0  0  0  0  0  0  0  0  0  0  0
  146.8711  135.8286  155.9780 H   0  0  0  0  0  0  0  0  0  0  0  0
  146.5947  137.3166  155.1054 H   0  0  0  0  0  0  0  0  0  0  0  0
  148.0767  135.8153  153.3545 H   0  0  0  0  0  0  0  0  0  0  0  0
  147.3713  134.8022  151.8401 H   0  0  0  0  0  0  0  0  0  0  0  0
  147.1805  132.9125  150.0611 H   0  0  0  0  0  0  0  0  0  0  0  0
  145.5436  131.5892  148.7498 H   0  0  0  0  0  0  0  0  0  0  0  0
  143.1173  131.6966  149.3712 H   0  0  0  0  0  0  0  0  0  0  0  0
  143.8640  134.3078  152.4785 H   0  0  0  0  0  0  0  0  0  0  0  0
  151.2605  136.6166  154.8536 H   0  0  0  0  0  0  0  0  0  0  0  0
  151.1906  137.5031  153.3640 H   0  0  0  0  0  0  0  0  0  0  0  0
  151.4354  138.7864  156.1414 H   0  0  0  0  0  0  0  0  0  0  0  0
  153.5643  137.8442  155.2585 H   0  0  0  0  0  0  0  0  0  0  0  0
  153.5954  139.6039  155.3017 H   0  0  0  0  0  0  0  0  0  0  0  0
  153.3558  138.7669  153.7709 H   0  0  0  0  0  0  0  0  0  0  0  0
  149.1214  137.0443  153.6904 H   0  0  0  0  0  0  0  0  0  0  0  0
  1  2  1  0  0  0  0
  1 23  1  0  0  0  0
  1 24  1  0  0  0  0
  1 25  1  0  0  0  0
  2 22  1  0  0  0  0
  2  3  1  0  0  0  0
  2 26  1  0  0  0  0
  3  4  1  0  0  0  0
  3 27  1  0  0  0  0
  3 28  1  0  0  0  0
  4  5  1  0  0  0  0
  4 19  1  0  0  0  0
  4 49  1  0  0  0  0
  5  6  1  0  0  0  0
  5  7  1  0  0  0  0
  5  8  1  0  0  0  0
  6 29  1  0  0  0  0
  6 30  1  0  0  0  0
  6 31  1  0  0  0  0
  7 32  1  0  0  0  0
  7 33  1  0  0  0  0
  7 34  1  0  0  0  0
  8  9  1  0  0  0  0
  8 35  1  0  0  0  0
  8 36  1  0  0  0  0
  9 10  1  0  0  0  0
  9 37  1  0  0  0  0
 10 11  2  0  0  0  0
 10 12  1  0  0  0  0
 12 13  1  0  0  0  0
 12 38  1  0  0  0  0
 13 18  1  0  0  0  0
 13 14  2  0  0  0  0
 14 15  1  0  0  0  0
 14 39  1  0  0  0  0
 15 16  2  0  0  0  0
 15 40  1  0  0  0  0
 16 17  1  0  0  0  0
 16 41  1  0  0  0  0
 17 18  2  0  0  0  0
 18 42  1  0  0  0  0
 19 20  1  0  0  0  0
 19 43  1  0  0  0  0
 19 44  1  0  0  0  0
 20 21  1  0  0  0  0
 20 22  1  0  0  0  0
 20 45  1  0  0  0  0
 21 46  1  0  0  0  0
 21 47  1  0  0  0  0
 21 48  1  0  0  0  0
M  CHG  1   4   1
M  END
> <s_m_source_file>
AV-unprocessed.smi

> <i_m_source_file_index>
1543

> <i_lp_mmshare_version>
43012

> <i_f3d_flags>
0

> <s_epik_input>
W0NIM11bQ0BASF0xW0NIMl1OKFtDSDJdW0NASF0oTzEpW0NIM10pQyhbQ0gzXSkoW0NIM10pW0NIMl1bTkhdQyg9TylbTkhdYzJbY0hdW2NIXVtjSF1uW2NIXTI=

> <s_epik_cmdline>
J2VwaWtfcHl0aG9uJywgJy1waCcsICc3LjAnLCAnLXRuJywgJzgnLCAnLW1hJywgJzIwMCcsICctbWV0YWxfYmluZGluZycsICctaW1hZScsICc8aW5maWxlLm1hZT4nLCAnLW9tYWUnLCAnPG91dGZpbGUubWFlPic=

> <r_epik_Ionization_Penalty>
0.60676

> <r_epik_Ionization_Penalty_Charging>
0.602531

> <r_epik_Ionization_Penalty_Neutral>
0.00422967

> <r_epik_State_Penalty>
0.607492

> <r_epik_Charging_Adjusted_Penalty>
1.21002

> <i_epik_Tot_Q>
1

> <i_epik_Tot_abs_Q>
1

> <r_epik_Metal_State_Penalty>
0.604589

> <b_epik_Metal_Only>
0

> <s_lp_Force_Field>
OPLS_2005

> <r_lp_Energy>
33.1144

> <b_lp_Chiralities_Consistent>
1

> <s_lp_Variant>
AV-unprocessed.smi:1543-5

> <Gold.Version>
5.8.1

> <Gold.Id.Protein>
6NUR|6NUR_protein|mol2

> <Gold.PLP.Fitness>
53.5972

> <Gold.PLP.PLP>
-38.4088

> <Gold.PLP.part.hbond>
-4.0000

> <Gold.PLP.part.metal>
0.0000

> <Gold.PLP.part.buried>
-4.4745

> <Gold.PLP.part.nonpolar>
-30.8918

> <Gold.PLP.part.repulsive>
0.3933

> <Gold.PLP.ligand.clash>
0.0000

> <Gold.PLP.ligand.torsion>
0.8905

> <Gold.PLP.Chemscore.Hbond>
4.8112

> <Gold.PLP.Chemscore.CHOScore>
0.7557

> <Gold.PLP.Chemscore.Metal>
0.0000

> <Gold.Chemscore.Hbonds>
donor molecule, donor type, donor heavy atom, donor atom, acceptor molecule, acceptor atom, score
      L1  H     4    49       P1  7948  2.00
      L1  H     9    37       P1  7948  1.00
      L1  H    12    38       P1  7948  0.81
      P1  H  7989  7998       L1    22  0.81
      L1  C    16    41       P1 10952  0.65

> <Gold.PLP.Chemscore.Internal.Correction>
0.2687

> <Gold.Rescore>
     Score         DG    S(hbond)    S(metal)    S(lipo)     H(rot)  DE(clash)    DE(int)     intcor
     22.71     -25.16       3.66        0.00      95.62       1.46       0.20       2.25       ----

> <Gold.Chemscore.Fitness>
22.7084

> <Gold.Chemscore.DG>
-25.1578

> <Gold.Chemscore.ZeroCoef>
-5.4800

> <Gold.Chemscore.Hbond>
3.6635

> <Gold.Chemscore.Metal>
0.0000

> <Gold.Chemscore.Lipo>
95.6211

> <Gold.Chemscore.Internal_Hbond>
0.0000

> <Gold.Chemscore.DEClash>
0.1997

> <Gold.Chemscore.DEInternal>
2.2498

> <Gold.Chemscore.Rot>
1.4632

> <Gold.Chemscore.Internal.Correction>
   9.000000E+99

> <Gold.Chemscore.Hbonds>
donor molecule, donor type, donor heavy atom, donor atom, acceptor molecule, acceptor atom, score
      L1  H     4    49       P1  7948  0.96
      L1  H     9    37       P1  7948  0.98
      L1  H    12    38       P1  7948  0.60
      P1  H  7989  7998       L1    22  0.71

> <Gold.Chemscore.Hbond.Weighted>
-12.2360

> <Gold.Chemscore.Metal.Weighted>
-0.0000

> <Gold.Chemscore.Lipo.Weighted>
-11.1877

> <Gold.Chemscore.Internal_Hbond.Weighted>
0.0000

> <Gold.Chemscore.DEClash.Weighted>
0.1997

> <Gold.Chemscore.DEInternal.Weighted>
2.2498

> <Gold.Chemscore.Rot.Weighted>
3.7459

> <Gold.Chemscore.Internal.Correction.Weighted>
   9.000000E+99

> <Gold.Protein.RotatedTorsions>
[ 6907 6896 6895 6894 ] final -124.89 input  -60.11 | X-H torsion
[ 7974 7965 7964 7962 ] final  157.43 input  175.53 | X-H torsion
[ 8008 7997 7996 7995 ] final   70.59 input   59.86 | X-H torsion
[ 10167 10162 10161 10158 ] final  -15.67 input  -65.29 | X-H torsion
[ 10718 10713 10712 10709 ] final -119.42 input   66.30 | X-H torsion
[ 10763 10752 10751 10750 ] final  -10.89 input  -60.55 | X-H torsion
[ 11005 11000 10999 10996 ] final   92.00 input  -57.11 | X-H torsion

> <Gold.Protein.ActiveResidues>
 VAL166  LYS551  ARG553  GLY616  TRP617  ASP618  TYR619  PRO620  LYS621  CYS622 
 ASP623  PHE694  ASN695  SER759  ASP760  ASP761  ALA762  ILE779  LEU786  VAL792 
 PHE793  MET794  SER795  GLU796  ALA797  LYS798  CYS799  TRP800  GLU811  SER814 

> <Gold.Protein.RotatedAtoms>
  150.8813  133.7368  159.2931 H   0  0  0  0  0  0  0  0  0  0  0  0  # atno 6907 bound_to 6896
  151.4948  135.1058  159.9823 H   0  0  0  0  0  0  0  0  0  0  0  0  # atno 6908 bound_to 6896
  152.4761  133.8097  159.7052 H   0  0  0  0  0  0  0  0  0  0  0  0  # atno 6909 bound_to 6896
  144.7904  139.7339  143.6224 H   0  0  0  0  0  0  0  0  0  0  0  0  # atno 7974 bound_to 7965
  155.7411  140.3490  155.5104 H   0  0  0  0  0  0  0  0  0  0  0  0  # atno 8008 bound_to 7997
  155.9093  140.1047  157.1312 H   0  0  0  0  0  0  0  0  0  0  0  0  # atno 8009 bound_to 7997
  154.4054  140.1271  156.4524 H   0  0  0  0  0  0  0  0  0  0  0  0  # atno 8010 bound_to 7997
  140.7222  143.5194  150.9652 H   0  0  0  0  0  0  0  0  0  0  0  0  # atno 10167 bound_to 10162
  156.1179  130.6300  150.9413 H   0  0  0  0  0  0  0  0  0  0  0  0  # atno 10718 bound_to 10713
  153.4758  135.7017  153.5966 H   0  0  0  0  0  0  0  0  0  0  0  0  # atno 10763 bound_to 10752
  153.4201  135.3827  155.2106 H   0  0  0  0  0  0  0  0  0  0  0  0  # atno 10764 bound_to 10752
  154.8723  135.3925  154.4202 H   0  0  0  0  0  0  0  0  0  0  0  0  # atno 10765 bound_to 10752
  139.8830  134.8707  156.3509 H   0  0  0  0  0  0  0  0  0  0  0  0  # atno 11005 bound_to 11000
  146.2153  139.5539  142.9654 LP  0  0  0  0  0  0  0  0  0  0  0  0  # atno 17320 bound_to 7965
  145.5810  141.0382  143.2122 LP  0  0  0  0  0  0  0  0  0  0  0  0  # atno 17321 bound_to 7965
  139.8911  143.6952  152.3145 LP  0  0  0  0  0  0  0  0  0  0  0  0  # atno 17342 bound_to 10162
  139.7268  144.7591  151.0865 LP  0  0  0  0  0  0  0  0  0  0  0  0  # atno 17343 bound_to 10162
  157.6363  131.0915  150.8342 LP  0  0  0  0  0  0  0  0  0  0  0  0  # atno 17370 bound_to 10713
  156.8443  130.5058  149.5318 LP  0  0  0  0  0  0  0  0  0  0  0  0  # atno 17371 bound_to 10713
  140.9595  133.7398  156.0381 LP  0  0  0  0  0  0  0  0  0  0  0  0  # atno 17394 bound_to 11000
  140.8007  134.3512  157.5440 LP  0  0  0  0  0  0  0  0  0  0  0  0  # atno 17395 bound_to 11000

$$$$
