AV-unprocessed.smi:1605|AV-procd|sdf|6458|dock7
  -GOLD-   22720 7113D 1   1.00000     0.00000
 Structure written by MMmdl.
 52 54  0  0  0  0  0  0  0  0  3 V2000
  143.0514  137.4319  153.4482 C   0  0  0  0  0  0  0  0  0  0  0  0
  144.3832  137.4872  153.9360 O   0  0  0  0  0  0  0  0  0  0  0  0
  145.3120  136.6911  153.2085 C   0  0  2  0  0  0  0  0  0  0  0  0
  146.3877  136.0867  154.1306 C   0  0  0  0  0  0  0  0  0  0  0  0
  147.2687  137.1805  154.7575 C   0  0  0  0  0  0  0  0  0  0  0  0
  147.9017  138.0272  153.7108 N   0  3  2  0  0  0  0  0  0  0  0  0
  148.8563  139.0213  154.2649 C   0  0  0  0  0  0  0  0  0  0  0  0
  150.0660  138.3586  154.9608 C   0  0  1  0  0  0  0  0  0  0  0  0
  150.5458  137.3062  154.1494 O   0  0  0  0  0  0  0  0  0  0  0  0
  151.2426  139.3279  155.1982 C   0  0  0  0  0  0  0  0  0  0  0  0
  150.8387  140.5839  155.8436 N   0  0  0  0  0  0  0  0  0  0  0  0
  149.9856  141.5552  155.4175 C   0  0  0  0  0  0  0  0  0  0  0  0
  149.9517  142.5209  156.3771 N   0  3  0  0  0  0  0  0  0  0  0  0
  150.8049  142.1676  157.4249 C   0  0  0  0  0  0  0  0  0  0  0  0
  151.1097  142.8217  158.6127 C   0  0  0  0  0  0  0  0  0  0  0  0
  152.0352  142.1930  159.4763 C   0  0  0  0  0  0  0  0  0  0  0  0
  152.3930  142.8826  160.7819 C   0  0  0  0  0  0  0  0  0  0  0  0
  152.6219  140.9466  159.1355 C   0  0  0  0  0  0  0  0  0  0  0  0
  153.6171  140.2803  160.0702 C   0  0  0  0  0  0  0  0  0  0  0  0
  152.2991  140.2975  157.9224 C   0  0  0  0  0  0  0  0  0  0  0  0
  151.3831  140.9293  157.0850 C   0  0  0  0  0  0  0  0  0  0  0  0
  146.8852  138.6541  152.8271 C   0  0  0  0  0  0  0  0  0  0  0  0
  145.9884  137.5930  152.1650 C   0  0  0  0  0  0  0  0  0  0  0  0
  142.4266  138.1103  154.0290 H   0  0  0  0  0  0  0  0  0  0  0  0
  142.6255  136.4332  153.5386 H   0  0  0  0  0  0  0  0  0  0  0  0
  142.9988  137.7429  152.4042 H   0  0  0  0  0  0  0  0  0  0  0  0
  144.7790  135.8957  152.6848 H   0  0  0  0  0  0  0  0  0  0  0  0
  145.9363  135.4756  154.9116 H   0  0  0  0  0  0  0  0  0  0  0  0
  147.0169  135.4101  153.5509 H   0  0  0  0  0  0  0  0  0  0  0  0
  146.6701  137.8058  155.4220 H   0  0  0  0  0  0  0  0  0  0  0  0
  148.0300  136.7084  155.3771 H   0  0  0  0  0  0  0  0  0  0  0  0
  149.2292  139.6692  153.4699 H   0  0  0  0  0  0  0  0  0  0  0  0
  148.3147  139.6731  154.9511 H   0  0  0  0  0  0  0  0  0  0  0  0
  149.7700  137.9293  155.9166 H   0  0  0  0  0  0  0  0  0  0  0  0
  149.9271  137.1442  153.4540 H   0  0  0  0  0  0  0  0  0  0  0  0
  152.0132  138.8639  155.8158 H   0  0  0  0  0  0  0  0  0  0  0  0
  151.7181  139.5865  154.2507 H   0  0  0  0  0  0  0  0  0  0  0  0
  149.4333  141.5591  154.4886 H   0  0  0  0  0  0  0  0  0  0  0  0
  150.6610  143.7716  158.8649 H   0  0  0  0  0  0  0  0  0  0  0  0
  153.4683  143.0489  160.8470 H   0  0  0  0  0  0  0  0  0  0  0  0
  152.0845  142.2746  161.6325 H   0  0  0  0  0  0  0  0  0  0  0  0
  151.9016  143.8521  160.8690 H   0  0  0  0  0  0  0  0  0  0  0  0
  153.9321  139.3079  159.6905 H   0  0  0  0  0  0  0  0  0  0  0  0
  153.1758  140.1246  161.0548 H   0  0  0  0  0  0  0  0  0  0  0  0
  154.5080  140.8986  160.1827 H   0  0  0  0  0  0  0  0  0  0  0  0
  152.7504  139.3518  157.6600 H   0  0  0  0  0  0  0  0  0  0  0  0
  146.2808  139.3550  153.4053 H   0  0  0  0  0  0  0  0  0  0  0  0
  147.3826  139.2336  152.0483 H   0  0  0  0  0  0  0  0  0  0  0  0
  146.5909  136.9805  151.4927 H   0  0  0  0  0  0  0  0  0  0  0  0
  145.2334  138.0763  151.5438 H   0  0  0  0  0  0  0  0  0  0  0  0
  148.4415  137.4131  153.1179 H   0  0  0  0  0  0  0  0  0  0  0  0
  149.3922  143.3622  156.3158 H   0  0  0  0  0  0  0  0  0  0  0  0
  1  2  1  0  0  0  0
  1 24  1  0  0  0  0
  1 25  1  0  0  0  0
  1 26  1  0  0  0  0
  2  3  1  0  0  0  0
  3 23  1  0  0  0  0
  3  4  1  0  0  0  0
  3 27  1  0  0  0  0
  4  5  1  0  0  0  0
  4 28  1  0  0  0  0
  4 29  1  0  0  0  0
  5  6  1  0  0  0  0
  5 30  1  0  0  0  0
  5 31  1  0  0  0  0
  6  7  1  0  0  0  0
  6 22  1  0  0  0  0
  6 51  1  0  0  0  0
  7  8  1  0  0  0  0
  7 32  1  0  0  0  0
  7 33  1  0  0  0  0
  8  9  1  0  0  0  0
  8 10  1  0  0  0  0
  8 34  1  0  0  0  0
  9 35  1  0  0  0  0
 10 11  1  0  0  0  0
 10 36  1  0  0  0  0
 10 37  1  0  0  0  0
 11 21  1  0  0  0  0
 11 12  1  0  0  0  0
 12 13  2  0  0  0  0
 12 38  1  0  0  0  0
 13 14  1  0  0  0  0
 13 52  1  0  0  0  0
 14 21  2  0  0  0  0
 14 15  1  0  0  0  0
 15 16  2  0  0  0  0
 15 39  1  0  0  0  0
 16 17  1  0  0  0  0
 16 18  1  0  0  0  0
 17 40  1  0  0  0  0
 17 41  1  0  0  0  0
 17 42  1  0  0  0  0
 18 19  1  0  0  0  0
 18 20  2  0  0  0  0
 19 43  1  0  0  0  0
 19 44  1  0  0  0  0
 19 45  1  0  0  0  0
 20 21  1  0  0  0  0
 20 46  1  0  0  0  0
 22 23  1  0  0  0  0
 22 47  1  0  0  0  0
 22 48  1  0  0  0  0
 23 49  1  0  0  0  0
 23 50  1  0  0  0  0
M  CHG  1   6   1
M  CHG  1  13   1
M  END
> <s_m_source_file>
AV-unprocessed.smi

> <i_m_source_file_index>
1605

> <i_lp_mmshare_version>
43012

> <i_f3d_flags>
0

> <s_epik_input>
W0NIM11PW0NIXTFbQ0gyXVtDSDJdTihbQ0gyXVtDSDJdMSlbQ0gyXVtDQEhdKFtPSF0pW0NIMl1uKFtjSF1uMiljKGMyMylbY0hdYyhbQ0gzXSljKFtjSF0zKVtDSDNd

> <s_epik_cmdline>
J2VwaWtfcHl0aG9uJywgJy1waCcsICc3LjAnLCAnLXRuJywgJzgnLCAnLW1hJywgJzIwMCcsICctbWV0YWxfYmluZGluZycsICctaW1hZScsICc8aW5maWxlLm1hZT4nLCAnLW9tYWUnLCAnPG91dGZpbGUubWFlPic=

> <r_epik_Ionization_Penalty>
1.19848

> <r_epik_Ionization_Penalty_Charging>
1.19848

> <r_epik_Ionization_Penalty_Neutral>
1.67134e-06

> <r_epik_State_Penalty>
1.2782

> <r_epik_Charging_Adjusted_Penalty>
2.47668

> <i_epik_Tot_Q>
2

> <i_epik_Tot_abs_Q>
2

> <r_epik_Metal_State_Penalty>
5.29544

> <b_epik_Metal_Only>
0

> <s_lp_Force_Field>
OPLS_2005

> <r_lp_Energy>
34.9642

> <b_lp_Chiralities_Consistent>
1

> <s_lp_Variant>
AV-unprocessed.smi:1605-8

> <Gold.Version>
5.8.1

> <Gold.Id.Protein>
6NUR|6NUR_protein|mol2

> <Gold.PLP.Fitness>
56.2154

> <Gold.PLP.PLP>
-42.5042

> <Gold.PLP.part.hbond>
-4.0000

> <Gold.PLP.part.metal>
0.0000

> <Gold.PLP.part.buried>
-3.9326

> <Gold.PLP.part.nonpolar>
-36.1878

> <Gold.PLP.part.repulsive>
0.2174

> <Gold.PLP.ligand.clash>
0.0000

> <Gold.PLP.ligand.torsion>
0.6729

> <Gold.PLP.Chemscore.Hbond>
5.0000

> <Gold.PLP.Chemscore.CHOScore>
0.0000

> <Gold.PLP.Chemscore.Metal>
0.0000

> <Gold.Chemscore.Hbonds>
donor molecule, donor type, donor heavy atom, donor atom, acceptor molecule, acceptor atom, score
      L1  H     6    51       P1  7948  2.00
      L1  H     9    35       P1  7948  0.99
      L1  H    13    52       P1  8028  2.00

> <Gold.PLP.Chemscore.Internal.Correction>
0.0569

> <Gold.Rescore>
     Score         DG    S(hbond)    S(metal)    S(lipo)     H(rot)  DE(clash)    DE(int)     intcor
     19.24     -20.91       2.58        0.00     108.16       2.28       0.03       1.64       ----

> <Gold.Chemscore.Fitness>
19.2383

> <Gold.Chemscore.DG>
-20.9102

> <Gold.Chemscore.ZeroCoef>
-5.4800

> <Gold.Chemscore.Hbond>
2.5816

> <Gold.Chemscore.Metal>
0.0000

> <Gold.Chemscore.Lipo>
108.1589

> <Gold.Chemscore.Internal_Hbond>
0.0000

> <Gold.Chemscore.DEClash>
0.0282

> <Gold.Chemscore.DEInternal>
1.6437

> <Gold.Chemscore.Rot>
2.2839

> <Gold.Chemscore.Internal.Correction>
   9.000000E+99

> <Gold.Chemscore.Hbonds>
donor molecule, donor type, donor heavy atom, donor atom, acceptor molecule, acceptor atom, score
      L1  H     6    51       P1  7948  1.00
      L1  H     9    35       P1  7948  0.36
      L1  H    13    52       P1  8028  0.97

> <Gold.Chemscore.Hbond.Weighted>
-8.6225

> <Gold.Chemscore.Metal.Weighted>
-0.0000

> <Gold.Chemscore.Lipo.Weighted>
-12.6546

> <Gold.Chemscore.Internal_Hbond.Weighted>
0.0000

> <Gold.Chemscore.DEClash.Weighted>
0.0282

> <Gold.Chemscore.DEInternal.Weighted>
1.6437

> <Gold.Chemscore.Rot.Weighted>
5.8469

> <Gold.Chemscore.Internal.Correction.Weighted>
   9.000000E+99

> <Gold.Protein.RotatedTorsions>
[ 6907 6896 6895 6894 ] final -145.00 input  -60.11 | X-H torsion
[ 7974 7965 7964 7962 ] final  159.11 input  175.53 | X-H torsion
[ 8008 7997 7996 7995 ] final  -71.76 input   59.86 | X-H torsion
[ 10167 10162 10161 10158 ] final   41.82 input  -65.29 | X-H torsion
[ 10718 10713 10712 10709 ] final   18.48 input   66.30 | X-H torsion
[ 10763 10752 10751 10750 ] final   14.10 input  -60.55 | X-H torsion
[ 11005 11000 10999 10996 ] final  -37.66 input  -57.11 | X-H torsion

> <Gold.Protein.ActiveResidues>
 VAL166  LYS551  ARG553  GLY616  TRP617  ASP618  TYR619  PRO620  LYS621  CYS622 
 ASP623  PHE694  ASN695  SER759  ASP760  ASP761  ALA762  ILE779  LEU786  VAL792 
 PHE793  MET794  SER795  GLU796  ALA797  LYS798  CYS799  TRP800  GLU811  SER814 

> <Gold.Protein.RotatedAtoms>
  151.1217  133.5099  159.2601 H   0  0  0  0  0  0  0  0  0  0  0  0  # atno 6907 bound_to 6896
  151.1854  135.0379  159.8820 H   0  0  0  0  0  0  0  0  0  0  0  0  # atno 6908 bound_to 6896
  152.5456  134.1064  159.8393 H   0  0  0  0  0  0  0  0  0  0  0  0  # atno 6909 bound_to 6896
  144.7808  139.7571  143.6260 H   0  0  0  0  0  0  0  0  0  0  0  0  # atno 7974 bound_to 7965
  154.5113  140.0809  156.7995 H   0  0  0  0  0  0  0  0  0  0  0  0  # atno 8008 bound_to 7997
  155.3778  140.3426  155.4227 H   0  0  0  0  0  0  0  0  0  0  0  0  # atno 8009 bound_to 7997
  156.1576  140.1578  156.8653 H   0  0  0  0  0  0  0  0  0  0  0  0  # atno 8010 bound_to 7997
  140.3606  144.2234  150.6138 H   0  0  0  0  0  0  0  0  0  0  0  0  # atno 10167 bound_to 10162
  157.0970  130.6452  149.5863 H   0  0  0  0  0  0  0  0  0  0  0  0  # atno 10718 bound_to 10713
  153.1655  135.6803  153.8682 H   0  0  0  0  0  0  0  0  0  0  0  0  # atno 10763 bound_to 10752
  153.8063  135.3149  155.3397 H   0  0  0  0  0  0  0  0  0  0  0  0  # atno 10764 bound_to 10752
  154.7962  135.4805  154.0257 H   0  0  0  0  0  0  0  0  0  0  0  0  # atno 10765 bound_to 10752
  140.9968  133.6976  156.1950 H   0  0  0  0  0  0  0  0  0  0  0  0  # atno 11005 bound_to 11000
  146.2015  139.5313  142.9740 LP  0  0  0  0  0  0  0  0  0  0  0  0  # atno 17320 bound_to 7965
  145.6055  141.0348  143.1995 LP  0  0  0  0  0  0  0  0  0  0  0  0  # atno 17321 bound_to 7965
  140.5131  143.2285  151.8505 LP  0  0  0  0  0  0  0  0  0  0  0  0  # atno 17342 bound_to 10162
  139.4814  144.4926  151.9165 LP  0  0  0  0  0  0  0  0  0  0  0  0  # atno 17343 bound_to 10162
  155.9883  130.4926  150.7165 LP  0  0  0  0  0  0  0  0  0  0  0  0  # atno 17370 bound_to 10713
  157.4673  131.0889  151.0681 LP  0  0  0  0  0  0  0  0  0  0  0  0  # atno 17371 bound_to 10713
  140.6952  134.4623  157.5588 LP  0  0  0  0  0  0  0  0  0  0  0  0  # atno 17394 bound_to 11000
  139.9019  134.8537  156.1862 LP  0  0  0  0  0  0  0  0  0  0  0  0  # atno 17395 bound_to 11000

$$$$
