AV-unprocessed.smi:2172|AV-procd|sdf|8836|dock6
  -GOLD-   2272012 33D 1   1.00000     0.00000
 Structure written by MMmdl.
 37 39  0  0  0  0  0  0  0  0  2 V2000
  151.6838  136.8933  154.0650 O   0  0  0  0  0  0  0  0  0  0  0  0
  151.7959  138.2096  154.5593 C   0  0  0  0  0  0  0  0  0  0  0  0
  150.5387  138.9933  154.3714 C   0  0  0  0  0  0  0  0  0  0  0  0
  149.4733  138.6120  153.6125 N   0  3  0  0  0  0  0  0  0  0  0  0
  148.4901  139.6011  153.6458 C   0  0  0  0  0  0  0  0  0  0  0  0
  147.2452  139.6663  153.0277 C   0  0  0  0  0  0  0  0  0  0  0  0
  146.4831  140.8297  153.2606 C   0  0  0  0  0  0  0  0  0  0  0  0
  146.9642  141.8693  154.0821 C   0  0  0  0  0  0  0  0  0  0  0  0
  148.2260  141.7893  154.7069 C   0  0  0  0  0  0  0  0  0  0  0  0
  148.9763  140.6369  154.4700 C   0  0  0  0  0  0  0  0  0  0  0  0
  150.2449  140.2192  154.8948 N   0  0  0  0  0  0  0  0  0  0  0  0
  151.0480  141.0943  155.7661 C   0  0  0  0  0  0  0  0  0  0  0  0
  150.4285  141.2595  157.1685 C   0  0  2  0  0  0  0  0  0  0  0  0
  149.7366  142.4905  157.2030 O   0  0  0  0  0  0  0  0  0  0  0  0
  151.4656  141.1461  158.2771 C   0  0  0  0  0  0  0  0  0  0  0  0
  151.7338  142.2586  159.1034 C   0  0  0  0  0  0  0  0  0  0  0  0
  152.6654  142.1549  160.1544 C   0  0  0  0  0  0  0  0  0  0  0  0
  153.3364  140.9382  160.3839 C   0  0  0  0  0  0  0  0  0  0  0  0
  154.4739  140.8093  161.6745 Cl  0  0  0  0  0  0  0  0  0  0  0  0
  153.0755  139.8256  159.5608 C   0  0  0  0  0  0  0  0  0  0  0  0
  152.1429  139.9287  158.5107 C   0  0  0  0  0  0  0  0  0  0  0  0
  151.5045  136.9341  153.1378 H   0  0  0  0  0  0  0  0  0  0  0  0
  152.0410  138.1696  155.6208 H   0  0  0  0  0  0  0  0  0  0  0  0
  152.6247  138.7110  154.0599 H   0  0  0  0  0  0  0  0  0  0  0  0
  146.8755  138.8718  152.3962 H   0  0  0  0  0  0  0  0  0  0  0  0
  145.5112  140.9273  152.7989 H   0  0  0  0  0  0  0  0  0  0  0  0
  146.3539  142.7474  154.2363 H   0  0  0  0  0  0  0  0  0  0  0  0
  148.5816  142.5967  155.3291 H   0  0  0  0  0  0  0  0  0  0  0  0
  152.0707  140.7220  155.8236 H   0  0  0  0  0  0  0  0  0  0  0  0
  151.1129  142.0634  155.2706 H   0  0  0  0  0  0  0  0  0  0  0  0
  149.6767  140.4839  157.3181 H   0  0  0  0  0  0  0  0  0  0  0  0
  149.8382  142.9151  156.3647 H   0  0  0  0  0  0  0  0  0  0  0  0
  151.2165  143.1929  158.9404 H   0  0  0  0  0  0  0  0  0  0  0  0
  152.8620  143.0094  160.7851 H   0  0  0  0  0  0  0  0  0  0  0  0
  153.5874  138.8907  159.7358 H   0  0  0  0  0  0  0  0  0  0  0  0
  151.9419  139.0662  157.8921 H   0  0  0  0  0  0  0  0  0  0  0  0
  149.4293  137.7400  153.1013 H   0  0  0  0  0  0  0  0  0  0  0  0
  1  2  1  0  0  0  0
  1 22  1  0  0  0  0
  2  3  1  0  0  0  0
  2 23  1  0  0  0  0
  2 24  1  0  0  0  0
  3 11  1  0  0  0  0
  3  4  2  0  0  0  0
  4  5  1  0  0  0  0
  4 37  1  0  0  0  0
  5 10  2  0  0  0  0
  5  6  1  0  0  0  0
  6  7  2  0  0  0  0
  6 25  1  0  0  0  0
  7  8  1  0  0  0  0
  7 26  1  0  0  0  0
  8  9  2  0  0  0  0
  8 27  1  0  0  0  0
  9 10  1  0  0  0  0
  9 28  1  0  0  0  0
 10 11  1  0  0  0  0
 11 12  1  0  0  0  0
 12 13  1  0  0  0  0
 12 29  1  0  0  0  0
 12 30  1  0  0  0  0
 13 14  1  0  0  0  0
 13 15  1  0  0  0  0
 13 31  1  0  0  0  0
 14 32  1  0  0  0  0
 15 21  1  0  0  0  0
 15 16  2  0  0  0  0
 16 17  1  0  0  0  0
 16 33  1  0  0  0  0
 17 18  2  0  0  0  0
 17 34  1  0  0  0  0
 18 19  1  0  0  0  0
 18 20  1  0  0  0  0
 20 21  2  0  0  0  0
 20 35  1  0  0  0  0
 21 36  1  0  0  0  0
M  CHG  1   4   1
M  END
> <s_m_source_file>
AV-unprocessed.smi

> <i_m_source_file_index>
2172

> <i_lp_mmshare_version>
43012

> <i_f3d_flags>
0

> <s_epik_input>
W2NIXTFbY0hdW2NIXVtjSF1jKGMxMiluKGMobjIpW0NIMl1bT0hdKVtDSDJdW0NASF0oW09IXSljM1tjSF1bY0hdYyhDbClbY0hdW2NIXTM=

> <s_epik_cmdline>
J2VwaWtfcHl0aG9uJywgJy1waCcsICc3LjAnLCAnLXRuJywgJzgnLCAnLW1hJywgJzIwMCcsICctbWV0YWxfYmluZGluZycsICctaW1hZScsICc8aW5maWxlLm1hZT4nLCAnLW9tYWUnLCAnPG91dGZpbGUubWFlPic=

> <r_epik_Ionization_Penalty>
1.35643

> <r_epik_Ionization_Penalty_Charging>
1.35557

> <r_epik_Ionization_Penalty_Neutral>
0.000858184

> <r_epik_State_Penalty>
1.43401

> <r_epik_Charging_Adjusted_Penalty>
2.78958

> <i_epik_Tot_Q>
1

> <i_epik_Tot_abs_Q>
1

> <r_epik_Metal_State_Penalty>
5.47166

> <b_epik_Metal_Only>
0

> <s_lp_Force_Field>
OPLS_2005

> <r_lp_Energy>
15.2583

> <b_lp_Chiralities_Consistent>
1

> <s_lp_Variant>
AV-unprocessed.smi:2172-3

> <Gold.Version>
5.8.1

> <Gold.Id.Protein>
6NUR|6NUR_protein|mol2

> <Gold.PLP.Fitness>
58.2195

> <Gold.PLP.PLP>
-46.2965

> <Gold.PLP.part.hbond>
-5.0000

> <Gold.PLP.part.metal>
0.0000

> <Gold.PLP.part.buried>
4.1469

> <Gold.PLP.part.nonpolar>
-44.7731

> <Gold.PLP.part.repulsive>
0.0714

> <Gold.PLP.ligand.clash>
0.0000

> <Gold.PLP.ligand.torsion>
0.8131

> <Gold.PLP.Chemscore.Hbond>
4.5107

> <Gold.PLP.Chemscore.CHOScore>
0.0000

> <Gold.PLP.Chemscore.Metal>
0.0000

> <Gold.Chemscore.Hbonds>
donor molecule, donor type, donor heavy atom, donor atom, acceptor molecule, acceptor atom, score
      L1  H     1    22       P1  7949  0.96
      L1  H     4    37       P1  7948  2.00
      L1  H    14    32       P1  8028  0.38
      P1  H 10752 10765       L1     1  1.00

> <Gold.PLP.Chemscore.Internal.Correction>
0.0170

> <Gold.Rescore>
     Score         DG    S(hbond)    S(metal)    S(lipo)     H(rot)  DE(clash)    DE(int)     intcor
     19.66     -22.39       3.13        0.00     114.17       2.70       1.91       0.82       ----

> <Gold.Chemscore.Fitness>
19.6603

> <Gold.Chemscore.DG>
-22.3899

> <Gold.Chemscore.ZeroCoef>
-5.4800

> <Gold.Chemscore.Hbond>
3.1302

> <Gold.Chemscore.Metal>
0.0000

> <Gold.Chemscore.Lipo>
114.1652

> <Gold.Chemscore.Internal_Hbond>
0.0000

> <Gold.Chemscore.DEClash>
1.9141

> <Gold.Chemscore.DEInternal>
0.8155

> <Gold.Chemscore.Rot>
2.6963

> <Gold.Chemscore.Internal.Correction>
   9.000000E+99

> <Gold.Chemscore.Hbonds>
donor molecule, donor type, donor heavy atom, donor atom, acceptor molecule, acceptor atom, score
      L1  H     1    22       P1  7949  0.83
      L1  H     4    37       P1  7948  0.91
      L1  H    14    32       P1  8028  0.39
      P1  H 10752 10765       L1     1  0.55

> <Gold.Chemscore.Hbond.Weighted>
-10.4550

> <Gold.Chemscore.Metal.Weighted>
-0.0000

> <Gold.Chemscore.Lipo.Weighted>
-13.3573

> <Gold.Chemscore.Internal_Hbond.Weighted>
0.0000

> <Gold.Chemscore.DEClash.Weighted>
1.9141

> <Gold.Chemscore.DEInternal.Weighted>
0.8155

> <Gold.Chemscore.Rot.Weighted>
6.9024

> <Gold.Chemscore.Internal.Correction.Weighted>
   9.000000E+99

> <Gold.Protein.RotatedTorsions>
[ 6907 6896 6895 6894 ] final -116.20 input  -60.11 | X-H torsion
[ 7974 7965 7964 7962 ] final -109.31 input  175.53 | X-H torsion
[ 8008 7997 7996 7995 ] final  116.66 input   59.86 | X-H torsion
[ 10167 10162 10161 10158 ] final  134.86 input  -65.29 | X-H torsion
[ 10718 10713 10712 10709 ] final -172.75 input   66.30 | X-H torsion
[ 10763 10752 10751 10750 ] final  161.18 input  -60.55 | X-H torsion
[ 11005 11000 10999 10996 ] final -140.19 input  -57.11 | X-H torsion

> <Gold.Protein.ActiveResidues>
 VAL166  LYS551  ARG553  GLY616  TRP617  ASP618  TYR619  PRO620  LYS621  CYS622 
 ASP623  PHE694  ASN695  SER759  ASP760  ASP761  ALA762  ILE779  LEU786  VAL792 
 PHE793  MET794  SER795  GLU796  ALA797  LYS798  CYS799  TRP800  GLU811  SER814 

> <Gold.Protein.RotatedAtoms>
  150.8038  133.8550  159.3215 H   0  0  0  0  0  0  0  0  0  0  0  0  # atno 6907 bound_to 6896
  151.6354  135.1017  160.0140 H   0  0  0  0  0  0  0  0  0  0  0  0  # atno 6908 bound_to 6896
  152.4127  133.6949  159.6446 H   0  0  0  0  0  0  0  0  0  0  0  0  # atno 6909 bound_to 6896
  145.1821  140.8976  143.3474 H   0  0  0  0  0  0  0  0  0  0  0  0  # atno 7974 bound_to 7965
  156.2452  140.2913  156.0558 H   0  0  0  0  0  0  0  0  0  0  0  0  # atno 8008 bound_to 7997
  155.1831  140.0405  157.2903 H   0  0  0  0  0  0  0  0  0  0  0  0  # atno 8009 bound_to 7997
  154.6246  140.2484  155.7514 H   0  0  0  0  0  0  0  0  0  0  0  0  # atno 8010 bound_to 7997
  139.5240  144.6546  151.5200 H   0  0  0  0  0  0  0  0  0  0  0  0  # atno 10167 bound_to 10162
  156.7602  130.9410  151.3117 H   0  0  0  0  0  0  0  0  0  0  0  0  # atno 10718 bound_to 10713
  154.2589  135.2769  155.2786 H   0  0  0  0  0  0  0  0  0  0  0  0  # atno 10763 bound_to 10752
  154.5401  135.5705  153.6835 H   0  0  0  0  0  0  0  0  0  0  0  0  # atno 10764 bound_to 10752
  152.9966  135.6249  154.2739 H   0  0  0  0  0  0  0  0  0  0  0  0  # atno 10765 bound_to 10752
  140.8447  134.2359  157.4792 H   0  0  0  0  0  0  0  0  0  0  0  0  # atno 11005 bound_to 11000
  145.0126  139.3496  143.6112 LP  0  0  0  0  0  0  0  0  0  0  0  0  # atno 17320 bound_to 7965
  146.3451  139.9394  142.8743 LP  0  0  0  0  0  0  0  0  0  0  0  0  # atno 17321 bound_to 7965
  140.6366  143.8971  150.6653 LP  0  0  0  0  0  0  0  0  0  0  0  0  # atno 17342 bound_to 10162
  140.2293  143.3748  152.1579 LP  0  0  0  0  0  0  0  0  0  0  0  0  # atno 17343 bound_to 10162
  157.6738  130.9075  150.0102 LP  0  0  0  0  0  0  0  0  0  0  0  0  # atno 17370 bound_to 10713
  156.1344  130.3643  149.9681 LP  0  0  0  0  0  0  0  0  0  0  0  0  # atno 17371 bound_to 10713
  139.8703  134.9653  156.4524 LP  0  0  0  0  0  0  0  0  0  0  0  0  # atno 17394 bound_to 11000
  140.8856  133.7885  155.9515 LP  0  0  0  0  0  0  0  0  0  0  0  0  # atno 17395 bound_to 11000

$$$$
