AV-unprocessed.smi:1013|AV-procd|sdf|4426|dock7
  -GOLD-   22720 2383D 1   1.00000     0.00000
 Structure written by MMmdl.
 30 31  0  0  0  0  0  0  0  0  3 V2000
  152.1943  137.9162  154.2450 O   0  0  0  0  0  0  0  0  0  0  0  0
  152.5457  138.7562  155.1018 C   0  0  0  0  0  0  0  0  0  0  0  0
  153.6450  138.7584  155.7014 O   0  5  0  0  0  0  0  0  0  0  0  0
  151.5327  139.8635  155.4486 C   0  0  2  0  0  0  0  0  0  0  0  0
  151.0449  139.7329  156.9097 C   0  0  0  0  0  0  0  0  0  0  0  0
  150.7433  141.0181  157.5176 N   0  0  0  0  0  0  0  0  0  0  0  0
  149.5101  141.5704  157.7881 C   0  0  0  0  0  0  0  0  0  0  0  0
  149.7289  142.7902  158.3604 C   0  0  0  0  0  0  0  0  0  0  0  0
  151.1492  142.9017  158.4066 C   0  0  0  0  0  0  0  0  0  0  0  0
  151.9807  144.0402  158.9361 C   0  0  0  0  0  0  0  0  0  0  0  0
  152.6929  144.5886  157.9517 F   0  0  0  0  0  0  0  0  0  0  0  0
  151.1891  144.9740  159.4634 F   0  0  0  0  0  0  0  0  0  0  0  0
  152.8166  143.5973  159.8750 F   0  0  0  0  0  0  0  0  0  0  0  0
  151.7489  141.8298  157.9064 N   0  0  0  0  0  0  0  0  0  0  0  0
  150.3797  139.7797  154.5254 N   0  3  0  0  0  0  0  0  0  0  0  0
  149.1876  140.5382  154.9575 C   0  0  0  0  0  0  0  0  0  0  0  0
  147.8811  139.9140  154.5333 C   0  0  0  0  0  0  0  0  0  0  0  0
  148.4137  141.1317  153.8065 C   0  0  0  0  0  0  0  0  0  0  0  0
  151.9922  140.8462  155.3219 H   0  0  0  0  0  0  0  0  0  0  0  0
  150.1328  139.1360  156.9420 H   0  0  0  0  0  0  0  0  0  0  0  0
  151.7760  139.2039  157.5245 H   0  0  0  0  0  0  0  0  0  0  0  0
  148.5899  141.0585  157.5487 H   0  0  0  0  0  0  0  0  0  0  0  0
  148.9861  143.4990  158.6947 H   0  0  0  0  0  0  0  0  0  0  0  0
  150.6801  140.1196  153.6225 H   0  0  0  0  0  0  0  0  0  0  0  0
  149.2712  141.0866  155.8940 H   0  0  0  0  0  0  0  0  0  0  0  0
  147.9135  138.9595  154.0108 H   0  0  0  0  0  0  0  0  0  0  0  0
  147.0223  140.0583  155.1858 H   0  0  0  0  0  0  0  0  0  0  0  0
  147.9031  142.0770  153.9790 H   0  0  0  0  0  0  0  0  0  0  0  0
  148.7952  140.9869  152.7971 H   0  0  0  0  0  0  0  0  0  0  0  0
  150.1148  138.8097  154.4376 H   0  0  0  0  0  0  0  0  0  0  0  0
  1  2  2  0  0  0  0
  2  3  1  0  0  0  0
  2  4  1  0  0  0  0
  4  5  1  0  0  0  0
  4 15  1  0  0  0  0
  4 19  1  0  0  0  0
  5  6  1  0  0  0  0
  5 20  1  0  0  0  0
  5 21  1  0  0  0  0
  6 14  1  0  0  0  0
  6  7  1  0  0  0  0
  7  8  2  0  0  0  0
  7 22  1  0  0  0  0
  8  9  1  0  0  0  0
  8 23  1  0  0  0  0
  9 10  1  0  0  0  0
  9 14  2  0  0  0  0
 10 11  1  0  0  0  0
 10 12  1  0  0  0  0
 10 13  1  0  0  0  0
 15 16  1  0  0  0  0
 15 24  1  0  0  0  0
 15 30  1  0  0  0  0
 16 18  1  0  0  0  0
 16 17  1  0  0  0  0
 16 25  1  0  0  0  0
 17 18  1  0  0  0  0
 17 26  1  0  0  0  0
 17 27  1  0  0  0  0
 18 28  1  0  0  0  0
 18 29  1  0  0  0  0
M  CHG  1   3  -1
M  CHG  1  15   1
M  END
> <s_m_source_file>
AV-unprocessed.smi

> <i_m_source_file_index>
1013

> <i_lp_mmshare_version>
43012

> <i_f3d_flags>
0

> <s_epik_input>
W0NIMl0xW0NIMl1bQ0hdMVtOSF1bQ0BIXShDKD1PKVtPSF0pW0NIMl1uMltjSF1bY0hdYyhuMilDKEYpKEYpRg==

> <s_epik_cmdline>
J2VwaWtfcHl0aG9uJywgJy1waCcsICc3LjAnLCAnLXRuJywgJzgnLCAnLW1hJywgJzIwMCcsICctbWV0YWxfYmluZGluZycsICctaW1hZScsICc8aW5maWxlLm1hZT4nLCAnLW9tYWUnLCAnPG91dGZpbGUubWFlPic=

> <r_lp_tautomer_probability>
1

> <r_epik_Ionization_Penalty>
0.183175

> <r_epik_Ionization_Penalty_Charging>
0.183175

> <r_epik_Ionization_Penalty_Neutral>
3.57035e-11

> <r_epik_State_Penalty>
0.172705

> <r_epik_Charging_Adjusted_Penalty>
0.35588

> <i_epik_Tot_Q>
0

> <i_epik_Tot_abs_Q>
2

> <r_epik_Metal_State_Penalty>
0.172705

> <b_epik_Metal_Only>
0

> <s_lp_Force_Field>
OPLS_2005

> <r_lp_Energy>
11.6824

> <b_lp_Chiralities_Consistent>
1

> <s_lp_Variant>
AV-unprocessed.smi:1013-1

> <Gold.Version>
5.8.1

> <Gold.Id.Protein>
6NUR|6NUR_protein|mol2

> <Gold.PLP.Fitness>
43.9282

> <Gold.PLP.PLP>
-39.0539

> <Gold.PLP.part.hbond>
-1.9149

> <Gold.PLP.part.metal>
0.0000

> <Gold.PLP.part.buried>
-4.9912

> <Gold.PLP.part.nonpolar>
-33.2391

> <Gold.PLP.part.repulsive>
0.8876

> <Gold.PLP.ligand.clash>
0.0000

> <Gold.PLP.ligand.torsion>
1.2815

> <Gold.PLP.Chemscore.Hbond>
2.2552

> <Gold.PLP.Chemscore.CHOScore>
0.0000

> <Gold.PLP.Chemscore.Metal>
0.0000

> <Gold.Chemscore.Hbonds>
donor molecule, donor type, donor heavy atom, donor atom, acceptor molecule, acceptor atom, score
      P1  H  7997  8009       L1     3  1.54
      P1  H 10752 10763       L1     1  0.18

> <Gold.PLP.Chemscore.Internal.Correction>
0.6716

> <Gold.Rescore>
     Score         DG    S(hbond)    S(metal)    S(lipo)     H(rot)  DE(clash)    DE(int)     intcor
      8.62     -10.94       1.40        0.00      63.42       2.60       1.10       1.22       ----

> <Gold.Chemscore.Fitness>
8.6244

> <Gold.Chemscore.DG>
-10.9426

> <Gold.Chemscore.ZeroCoef>
-5.4800

> <Gold.Chemscore.Hbond>
1.4044

> <Gold.Chemscore.Metal>
0.0000

> <Gold.Chemscore.Lipo>
63.4224

> <Gold.Chemscore.Internal_Hbond>
0.0000

> <Gold.Chemscore.DEClash>
1.1024

> <Gold.Chemscore.DEInternal>
1.2159

> <Gold.Chemscore.Rot>
2.5970

> <Gold.Chemscore.Internal.Correction>
   9.000000E+99

> <Gold.Chemscore.Hbonds>
donor molecule, donor type, donor heavy atom, donor atom, acceptor molecule, acceptor atom, score
      P1  H  7997  8009       L1     3  0.75
      P1  H 10752 10763       L1     1  0.10

> <Gold.Chemscore.Hbond.Weighted>
-4.6906

> <Gold.Chemscore.Metal.Weighted>
-0.0000

> <Gold.Chemscore.Lipo.Weighted>
-7.4204

> <Gold.Chemscore.Internal_Hbond.Weighted>
0.0000

> <Gold.Chemscore.DEClash.Weighted>
1.1024

> <Gold.Chemscore.DEInternal.Weighted>
1.2159

> <Gold.Chemscore.Rot.Weighted>
6.6484

> <Gold.Chemscore.Internal.Correction.Weighted>
   9.000000E+99

> <Gold.Protein.RotatedTorsions>
[ 6907 6896 6895 6894 ] final  -13.42 input  -60.11 | X-H torsion
[ 7974 7965 7964 7962 ] final -117.92 input  175.53 | X-H torsion
[ 8008 7997 7996 7995 ] final -161.33 input   59.86 | X-H torsion
[ 10167 10162 10161 10158 ] final  114.66 input  -65.29 | X-H torsion
[ 10718 10713 10712 10709 ] final   12.30 input   66.30 | X-H torsion
[ 10763 10752 10751 10750 ] final   46.93 input  -60.55 | X-H torsion
[ 11005 11000 10999 10996 ] final   32.13 input  -57.11 | X-H torsion

> <Gold.Protein.ActiveResidues>
 VAL166  LYS551  ARG553  GLY616  TRP617  ASP618  TYR619  PRO620  LYS621  CYS622 
 ASP623  PHE694  ASN695  SER759  ASP760  ASP761  ALA762  ILE779  LEU786  VAL792 
 PHE793  MET794  SER795  GLU796  ALA797  LYS798  CYS799  TRP800  GLU811  SER814 

> <Gold.Protein.RotatedAtoms>
  151.3552  135.0892  159.9415 H   0  0  0  0  0  0  0  0  0  0  0  0  # atno 6907 bound_to 6896
  152.5177  133.9313  159.7592 H   0  0  0  0  0  0  0  0  0  0  0  0  # atno 6908 bound_to 6896
  150.9696  133.6304  159.2769 H   0  0  0  0  0  0  0  0  0  0  0  0  # atno 6909 bound_to 6896
  145.0797  140.8417  143.4046 H   0  0  0  0  0  0  0  0  0  0  0  0  # atno 7974 bound_to 7965
  155.7906  140.0878  157.2010 H   0  0  0  0  0  0  0  0  0  0  0  0  # atno 8008 bound_to 7997
  154.3985  140.1490  156.3217 H   0  0  0  0  0  0  0  0  0  0  0  0  # atno 8009 bound_to 7997
  155.8562  140.3432  155.5728 H   0  0  0  0  0  0  0  0  0  0  0  0  # atno 8010 bound_to 7997
  139.6373  144.7121  151.2309 H   0  0  0  0  0  0  0  0  0  0  0  0  # atno 10167 bound_to 10162
  157.0081  130.6106  149.5704 H   0  0  0  0  0  0  0  0  0  0  0  0  # atno 10718 bound_to 10713
  152.9805  135.5992  154.3680 H   0  0  0  0  0  0  0  0  0  0  0  0  # atno 10763 bound_to 10752
  154.3356  135.2768  155.2451 H   0  0  0  0  0  0  0  0  0  0  0  0  # atno 10764 bound_to 10752
  154.4555  135.5979  153.6276 H   0  0  0  0  0  0  0  0  0  0  0  0  # atno 10765 bound_to 10752
  140.2767  134.3020  155.7812 H   0  0  0  0  0  0  0  0  0  0  0  0  # atno 11005 bound_to 11000
  145.1193  139.2704  143.5597 LP  0  0  0  0  0  0  0  0  0  0  0  0  # atno 17320 bound_to 7965
  146.3531  140.0812  142.8617 LP  0  0  0  0  0  0  0  0  0  0  0  0  # atno 17321 bound_to 7965
  140.7472  143.6374  150.8366 LP  0  0  0  0  0  0  0  0  0  0  0  0  # atno 17342 bound_to 10162
  140.0007  143.5747  152.2876 LP  0  0  0  0  0  0  0  0  0  0  0  0  # atno 17343 bound_to 10162
  156.0146  130.5239  150.8095 LP  0  0  0  0  0  0  0  0  0  0  0  0  # atno 17370 bound_to 10713
  157.5340  131.0938  150.9916 LP  0  0  0  0  0  0  0  0  0  0  0  0  # atno 17371 bound_to 10713
  141.2169  133.7500  156.9417 LP  0  0  0  0  0  0  0  0  0  0  0  0  # atno 17394 bound_to 11000
  140.1322  134.9348  157.2353 LP  0  0  0  0  0  0  0  0  0  0  0  0  # atno 17395 bound_to 11000

$$$$
