AV-unprocessed.smi:2900|AV-procd|sdf|11147|dock4
  -GOLD-   2272016 23D 1   1.00000     0.00000
 Structure written by MMmdl.
 35 36  0  0  0  0  0  0  0  0  1 V2000
  152.8440  139.4896  155.7796 O   0  0  0  0  0  0  0  0  0  0  0  0
  151.7027  139.8110  155.4497 C   0  0  0  0  0  0  0  0  0  0  0  0
  151.1242  141.1212  155.7369 C   0  0  0  0  0  0  0  0  0  0  0  0
  149.8698  141.4426  155.3549 C   0  0  0  0  0  0  0  0  0  0  0  0
  149.0660  140.4643  154.6412 C   0  0  0  0  0  0  0  0  0  0  0  0
  147.6566  140.7268  154.1706 C   0  0  0  0  0  0  0  0  0  0  0  0
  146.8313  140.9048  155.2025 F   0  0  0  0  0  0  0  0  0  0  0  0
  147.6240  141.8208  153.4091 F   0  0  0  0  0  0  0  0  0  0  0  0
  147.2156  139.6962  153.4489 F   0  0  0  0  0  0  0  0  0  0  0  0
  149.5717  139.3004  154.3873 N   0  0  0  0  0  0  0  0  0  0  0  0
  150.8596  138.9753  154.7755 N   0  0  0  0  0  0  0  0  0  0  0  0
  151.2752  137.6221  154.3868 C   0  0  0  0  0  0  0  0  0  0  0  0
  150.6475  136.5380  155.2914 C   0  0  2  0  0  0  0  0  0  0  0  0
  151.6562  136.0561  156.1584 O   0  0  0  0  0  0  0  0  0  0  0  0
  150.1348  135.3398  154.4749 C   0  0  0  0  0  0  0  0  0  0  0  0
  150.1925  134.1724  155.2842 O   0  0  0  0  0  0  0  0  0  0  0  0
  149.6231  133.0133  154.8021 C   0  0  0  0  0  0  0  0  0  0  0  0
  148.5564  133.1563  153.8904 C   0  0  0  0  0  0  0  0  0  0  0  0
  147.9164  132.0262  153.3460 C   0  0  0  0  0  0  0  0  0  0  0  0
  148.3399  130.7346  153.7098 C   0  0  0  0  0  0  0  0  0  0  0  0
  149.4028  130.5768  154.6183 C   0  0  0  0  0  0  0  0  0  0  0  0
  150.0425  131.7074  155.1634 C   0  0  0  0  0  0  0  0  0  0  0  0
  151.7177  141.8514  156.2674 H   0  0  0  0  0  0  0  0  0  0  0  0
  149.4635  142.4181  155.5772 H   0  0  0  0  0  0  0  0  0  0  0  0
  150.9804  137.4562  153.3490 H   0  0  0  0  0  0  0  0  0  0  0  0
  152.3636  137.5342  154.3840 H   0  0  0  0  0  0  0  0  0  0  0  0
  149.8264  136.9574  155.8743 H   0  0  0  0  0  0  0  0  0  0  0  0
  151.5198  136.4291  157.0156 H   0  0  0  0  0  0  0  0  0  0  0  0
  149.0930  135.5098  154.1984 H   0  0  0  0  0  0  0  0  0  0  0  0
  150.7093  135.2214  153.5540 H   0  0  0  0  0  0  0  0  0  0  0  0
  148.2256  134.1440  153.6049 H   0  0  0  0  0  0  0  0  0  0  0  0
  147.1011  132.1513  152.6490 H   0  0  0  0  0  0  0  0  0  0  0  0
  147.8507  129.8666  153.2930 H   0  0  0  0  0  0  0  0  0  0  0  0
  149.7295  129.5862  154.8982 H   0  0  0  0  0  0  0  0  0  0  0  0
  150.8540  131.5452  155.8560 H   0  0  0  0  0  0  0  0  0  0  0  0
  1  2  2  0  0  0  0
  2 11  1  0  0  0  0
  2  3  1  0  0  0  0
  3  4  2  0  0  0  0
  3 23  1  0  0  0  0
  4  5  1  0  0  0  0
  4 24  1  0  0  0  0
  5  6  1  0  0  0  0
  5 10  2  0  0  0  0
  6  7  1  0  0  0  0
  6  8  1  0  0  0  0
  6  9  1  0  0  0  0
 10 11  1  0  0  0  0
 11 12  1  0  0  0  0
 12 13  1  0  0  0  0
 12 25  1  0  0  0  0
 12 26  1  0  0  0  0
 13 14  1  0  0  0  0
 13 15  1  0  0  0  0
 13 27  1  0  0  0  0
 14 28  1  0  0  0  0
 15 16  1  0  0  0  0
 15 29  1  0  0  0  0
 15 30  1  0  0  0  0
 16 17  1  0  0  0  0
 17 22  1  0  0  0  0
 17 18  2  0  0  0  0
 18 19  1  0  0  0  0
 18 31  1  0  0  0  0
 19 20  2  0  0  0  0
 19 32  1  0  0  0  0
 20 21  1  0  0  0  0
 20 33  1  0  0  0  0
 21 22  2  0  0  0  0
 21 34  1  0  0  0  0
 22 35  1  0  0  0  0
M  END
> <s_m_source_file>
AV-unprocessed.smi

> <i_m_source_file_index>
2900

> <i_lp_mmshare_version>
43012

> <i_f3d_flags>
0

> <s_epik_input>
Tz1jMVtjSF1bY0hdYyhDKEYpKEYpRilubjFbQ0gyXVtDQEhdKFtPSF0pW0NIMl1PYzJbY0hdW2NIXVtjSF1bY0hdW2NIXTI=

> <s_epik_cmdline>
J2VwaWtfcHl0aG9uJywgJy1waCcsICc3LjAnLCAnLXRuJywgJzgnLCAnLW1hJywgJzIwMCcsICctbWV0YWxfYmluZGluZycsICctaW1hZScsICc8aW5maWxlLm1hZT4nLCAnLW9tYWUnLCAnPG91dGZpbGUubWFlPic=

> <r_lp_tautomer_probability>
1

> <r_epik_Ionization_Penalty>
1.22578e-07

> <r_epik_Ionization_Penalty_Charging>
5.40425e-09

> <r_epik_Ionization_Penalty_Neutral>
1.17174e-07

> <r_epik_State_Penalty>
-0

> <r_epik_Charging_Adjusted_Penalty>
5.40425e-09

> <i_epik_Tot_Q>
0

> <i_epik_Tot_abs_Q>
0

> <r_epik_Metal_State_Penalty>
-0

> <b_epik_Metal_Only>
0

> <s_lp_Force_Field>
OPLS_2005

> <r_lp_Energy>
34.5506

> <b_lp_Chiralities_Consistent>
1

> <s_lp_Variant>
AV-unprocessed.smi:2900-1

> <Gold.Version>
5.8.1

> <Gold.Id.Protein>
6NUR|6NUR_protein|mol2

> <Gold.PLP.Fitness>
44.6547

> <Gold.PLP.PLP>
-41.8431

> <Gold.PLP.part.hbond>
-2.0000

> <Gold.PLP.part.metal>
0.0000

> <Gold.PLP.part.buried>
-2.7781

> <Gold.PLP.part.nonpolar>
-36.7297

> <Gold.PLP.part.repulsive>
0.2265

> <Gold.PLP.ligand.clash>
0.0000

> <Gold.PLP.ligand.torsion>
1.6304

> <Gold.PLP.Chemscore.Hbond>
2.0000

> <Gold.PLP.Chemscore.CHOScore>
0.0000

> <Gold.PLP.Chemscore.Metal>
0.0000

> <Gold.Chemscore.Hbonds>
donor molecule, donor type, donor heavy atom, donor atom, acceptor molecule, acceptor atom, score
      P1  H  7997  8010       L1     1  1.00
      P1  H 10752 10763       L1    14  1.00

> <Gold.PLP.Chemscore.Internal.Correction>
0.0723

> <Gold.Rescore>
     Score         DG    S(hbond)    S(metal)    S(lipo)     H(rot)  DE(clash)    DE(int)     intcor
     12.55     -13.96       1.93        0.00      74.98       2.63       0.08       1.33       ----

> <Gold.Chemscore.Fitness>
12.5491

> <Gold.Chemscore.DG>
-13.9581

> <Gold.Chemscore.ZeroCoef>
-5.4800

> <Gold.Chemscore.Hbond>
1.9304

> <Gold.Chemscore.Metal>
0.0000

> <Gold.Chemscore.Lipo>
74.9774

> <Gold.Chemscore.Internal_Hbond>
0.0000

> <Gold.Chemscore.DEClash>
0.0799

> <Gold.Chemscore.DEInternal>
1.3290

> <Gold.Chemscore.Rot>
2.6336

> <Gold.Chemscore.Internal.Correction>
   9.000000E+99

> <Gold.Chemscore.Hbonds>
donor molecule, donor type, donor heavy atom, donor atom, acceptor molecule, acceptor atom, score
      P1  H  7997  8010       L1     1  1.00
      P1  H 10752 10763       L1    14  0.69

> <Gold.Chemscore.Hbond.Weighted>
-6.4477

> <Gold.Chemscore.Metal.Weighted>
-0.0000

> <Gold.Chemscore.Lipo.Weighted>
-8.7724

> <Gold.Chemscore.Internal_Hbond.Weighted>
0.0000

> <Gold.Chemscore.DEClash.Weighted>
0.0799

> <Gold.Chemscore.DEInternal.Weighted>
1.3290

> <Gold.Chemscore.Rot.Weighted>
6.7420

> <Gold.Chemscore.Internal.Correction.Weighted>
   9.000000E+99

> <Gold.Protein.RotatedTorsions>
[ 6907 6896 6895 6894 ] final   74.55 input  -60.11 | X-H torsion
[ 7974 7965 7964 7962 ] final  -66.57 input  175.53 | X-H torsion
[ 8008 7997 7996 7995 ] final   75.53 input   59.86 | X-H torsion
[ 10167 10162 10161 10158 ] final -147.28 input  -65.29 | X-H torsion
[ 10718 10713 10712 10709 ] final  132.88 input   66.30 | X-H torsion
[ 10763 10752 10751 10750 ] final   92.31 input  -60.55 | X-H torsion
[ 11005 11000 10999 10996 ] final   96.75 input  -57.11 | X-H torsion

> <Gold.Protein.ActiveResidues>
 VAL166  LYS551  ARG553  GLY616  TRP617  ASP618  TYR619  PRO620  LYS621  CYS622 
 ASP623  PHE694  ASN695  SER759  ASP760  ASP761  ALA762  ILE779  LEU786  VAL792 
 PHE793  MET794  SER795  GLU796  ALA797  LYS798  CYS799  TRP800  GLU811  SER814 

> <Gold.Protein.RotatedAtoms>
  152.4982  134.4254  159.9494 H   0  0  0  0  0  0  0  0  0  0  0  0  # atno 6907 bound_to 6896
  151.4229  133.3687  159.2766 H   0  0  0  0  0  0  0  0  0  0  0  0  # atno 6908 bound_to 6896
  150.9210  134.8650  159.7548 H   0  0  0  0  0  0  0  0  0  0  0  0  # atno 6909 bound_to 6896
  145.7400  140.8958  143.0535 H   0  0  0  0  0  0  0  0  0  0  0  0  # atno 7974 bound_to 7965
  155.8143  140.3472  155.5476 H   0  0  0  0  0  0  0  0  0  0  0  0  # atno 8008 bound_to 7997
  155.8409  140.0941  157.1755 H   0  0  0  0  0  0  0  0  0  0  0  0  # atno 8009 bound_to 7997
  154.4005  140.1394  156.3714 H   0  0  0  0  0  0  0  0  0  0  0  0  # atno 8010 bound_to 7997
  139.7636  143.8340  152.2612 H   0  0  0  0  0  0  0  0  0  0  0  0  # atno 10167 bound_to 10162
  157.4827  131.1086  150.9660 H   0  0  0  0  0  0  0  0  0  0  0  0  # atno 10718 bound_to 10713
  153.2178  135.4366  155.0454 H   0  0  0  0  0  0  0  0  0  0  0  0  # atno 10763 bound_to 10752
  154.8234  135.3349  154.6972 H   0  0  0  0  0  0  0  0  0  0  0  0  # atno 10764 bound_to 10752
  153.7406  135.7005  153.5024 H   0  0  0  0  0  0  0  0  0  0  0  0  # atno 10765 bound_to 10752
  139.8779  134.8967  156.4205 H   0  0  0  0  0  0  0  0  0  0  0  0  # atno 11005 bound_to 11000
  144.6873  139.9448  143.7476 LP  0  0  0  0  0  0  0  0  0  0  0  0  # atno 17320 bound_to 7965
  146.0456  139.3463  143.0670 LP  0  0  0  0  0  0  0  0  0  0  0  0  # atno 17321 bound_to 7965
  139.8354  144.7234  150.9398 LP  0  0  0  0  0  0  0  0  0  0  0  0  # atno 17342 bound_to 10162
  140.7809  143.4032  151.1115 LP  0  0  0  0  0  0  0  0  0  0  0  0  # atno 17343 bound_to 10162
  157.0388  130.5740  149.5353 LP  0  0  0  0  0  0  0  0  0  0  0  0  # atno 17370 bound_to 10713
  156.0130  130.5223  150.8049 LP  0  0  0  0  0  0  0  0  0  0  0  0  # atno 17371 bound_to 10713
  140.9137  133.7694  155.9822 LP  0  0  0  0  0  0  0  0  0  0  0  0  # atno 17394 bound_to 11000
  140.8518  134.2945  157.5272 LP  0  0  0  0  0  0  0  0  0  0  0  0  # atno 17395 bound_to 11000

$$$$
