AV-unprocessed.smi:587|AV-procd|sdf|3003|dock3
  -GOLD-   2262023513D 1   1.00000     0.00000
 Structure written by MMmdl.
 47 49  0  0  0  0  0  0  0  0  2 V2000
  151.3441  139.5757  155.6738 C   0  0  0  0  0  0  0  0  0  0  0  0
  150.6475  138.3795  156.0987 N   0  0  0  0  0  0  0  0  0  0  0  0
  150.0523  137.4594  155.2376 C   0  0  0  0  0  0  0  0  0  0  0  0
  150.1240  137.6880  153.8707 N   0  0  0  0  0  0  0  0  0  0  0  0
  149.4168  136.3557  155.7154 C   0  0  0  0  0  0  0  0  0  0  0  0
  148.8113  135.4117  154.7261 N   0  3  0  0  0  0  0  0  0  0  0  0
  147.3296  135.3193  154.7733 C   0  0  0  0  0  0  0  0  0  0  0  0
  146.7914  134.5586  153.5500 C   0  0  0  0  0  0  0  0  0  0  0  0
  147.4322  133.1674  153.4427 C   0  0  0  0  0  0  0  0  0  0  0  0
  148.9626  133.2893  153.4352 C   0  0  0  0  0  0  0  0  0  0  0  0
  149.4575  134.0757  154.6605 C   0  0  0  0  0  0  0  0  0  0  0  0
  149.3291  136.0920  157.1553 C   0  0  0  0  0  0  0  0  0  0  0  0
  148.7700  135.1030  157.6322 O   0  0  0  0  0  0  0  0  0  0  0  0
  149.9412  137.0455  157.9987 N   0  0  0  0  0  0  0  0  0  0  0  0
  149.9145  136.8210  159.4621 C   0  0  0  0  0  0  0  0  0  0  0  0
  148.4999  136.6109  160.0246 C   0  0  0  0  0  0  0  0  0  0  0  0
  147.6596  137.5112  159.9811 O   0  0  0  0  0  0  0  0  0  0  0  0
  148.2599  135.4042  160.5572 N   0  0  0  0  0  0  0  0  0  0  0  0
  147.0239  134.9822  161.1323 C   0  0  0  0  0  0  0  0  0  0  0  0
  146.5646  135.6708  162.3994 C   0  0  0  0  0  0  0  0  0  0  0  0
  147.0809  134.2596  162.4609 C   0  0  0  0  0  0  0  0  0  0  0  0
  150.6117  138.1816  157.4993 C   0  0  0  0  0  0  0  0  0  0  0  0
  151.1557  138.9771  158.2708 O   0  0  0  0  0  0  0  0  0  0  0  0
  151.3016  139.6793  154.5919 H   0  0  0  0  0  0  0  0  0  0  0  0
  152.3821  139.4820  155.9980 H   0  0  0  0  0  0  0  0  0  0  0  0
  150.8493  140.4290  156.1415 H   0  0  0  0  0  0  0  0  0  0  0  0
  150.5883  138.4914  153.4737 H   0  0  0  0  0  0  0  0  0  0  0  0
  149.7043  137.0501  153.2085 H   0  0  0  0  0  0  0  0  0  0  0  0
  147.0115  134.8209  155.6896 H   0  0  0  0  0  0  0  0  0  0  0  0
  146.9064  136.3244  154.7944 H   0  0  0  0  0  0  0  0  0  0  0  0
  145.7068  134.4663  153.6149 H   0  0  0  0  0  0  0  0  0  0  0  0
  146.9997  135.1291  152.6438 H   0  0  0  0  0  0  0  0  0  0  0  0
  147.1159  132.5500  154.2846 H   0  0  0  0  0  0  0  0  0  0  0  0
  147.0896  132.6630  152.5387 H   0  0  0  0  0  0  0  0  0  0  0  0
  149.4160  132.2977  153.4202 H   0  0  0  0  0  0  0  0  0  0  0  0
  149.2861  133.7916  152.5226 H   0  0  0  0  0  0  0  0  0  0  0  0
  150.5395  134.2009  154.6024 H   0  0  0  0  0  0  0  0  0  0  0  0
  149.2511  133.5121  155.5710 H   0  0  0  0  0  0  0  0  0  0  0  0
  150.5286  135.9621  159.7381 H   0  0  0  0  0  0  0  0  0  0  0  0
  150.3775  137.6533  159.9949 H   0  0  0  0  0  0  0  0  0  0  0  0
  149.0092  134.7273  160.5489 H   0  0  0  0  0  0  0  0  0  0  0  0
  146.2375  134.6626  160.4499 H   0  0  0  0  0  0  0  0  0  0  0  0
  147.1968  136.4553  162.8109 H   0  0  0  0  0  0  0  0  0  0  0  0
  145.4946  135.8201  162.5289 H   0  0  0  0  0  0  0  0  0  0  0  0
  146.3561  133.4660  162.6306 H   0  0  0  0  0  0  0  0  0  0  0  0
  148.0578  134.1024  162.9143 H   0  0  0  0  0  0  0  0  0  0  0  0
  148.9983  135.8138  153.8195 H   0  0  0  0  0  0  0  0  0  0  0  0
  1  2  1  0  0  0  0
  1 24  1  0  0  0  0
  1 25  1  0  0  0  0
  1 26  1  0  0  0  0
  2 22  1  0  0  0  0
  2  3  1  0  0  0  0
  3  4  1  0  0  0  0
  3  5  2  0  0  0  0
  4 27  1  0  0  0  0
  4 28  1  0  0  0  0
  5  6  1  0  0  0  0
  5 12  1  0  0  0  0
  6 11  1  0  0  0  0
  6  7  1  0  0  0  0
  6 47  1  0  0  0  0
  7  8  1  0  0  0  0
  7 29  1  0  0  0  0
  7 30  1  0  0  0  0
  8  9  1  0  0  0  0
  8 31  1  0  0  0  0
  8 32  1  0  0  0  0
  9 10  1  0  0  0  0
  9 33  1  0  0  0  0
  9 34  1  0  0  0  0
 10 11  1  0  0  0  0
 10 35  1  0  0  0  0
 10 36  1  0  0  0  0
 11 37  1  0  0  0  0
 11 38  1  0  0  0  0
 12 13  2  0  0  0  0
 12 14  1  0  0  0  0
 14 15  1  0  0  0  0
 14 22  1  0  0  0  0
 15 16  1  0  0  0  0
 15 39  1  0  0  0  0
 15 40  1  0  0  0  0
 16 17  2  0  0  0  0
 16 18  1  0  0  0  0
 18 19  1  0  0  0  0
 18 41  1  0  0  0  0
 19 21  1  0  0  0  0
 19 20  1  0  0  0  0
 19 42  1  0  0  0  0
 20 21  1  0  0  0  0
 20 43  1  0  0  0  0
 20 44  1  0  0  0  0
 21 45  1  0  0  0  0
 21 46  1  0  0  0  0
 22 23  2  0  0  0  0
M  CHG  1   6   1
M  END
> <s_m_source_file>
AV-unprocessed.smi

> <i_m_source_file_index>
587

> <i_lp_mmshare_version>
43012

> <i_f3d_flags>
0

> <s_epik_input>
W0NIMl0xW0NIMl1bQ0gyXVtDSDJdW0NIMl1OMWMoYyhbTkgyXSluMltDSDNdKWMoPU8pbihjMj1PKVtDSDJdQyg9TylbTkhdW0NIXTNbQ0gyXVtDSDJdMw==

> <s_epik_cmdline>
J2VwaWtfcHl0aG9uJywgJy1waCcsICc3LjAnLCAnLXRuJywgJzgnLCAnLW1hJywgJzIwMCcsICctbWV0YWxfYmluZGluZycsICctaW1hZScsICc8aW5maWxlLm1hZT4nLCAnLW9tYWUnLCAnPG91dGZpbGUubWFlPic=

> <r_epik_Ionization_Penalty>
2.48068

> <r_epik_Ionization_Penalty_Charging>
2.47625

> <r_epik_Ionization_Penalty_Neutral>
0.00443673

> <r_epik_State_Penalty>
2.66159

> <r_epik_Charging_Adjusted_Penalty>
5.13784

> <i_epik_Tot_Q>
1

> <i_epik_Tot_abs_Q>
1

> <r_epik_Metal_State_Penalty>
2.66159

> <b_epik_Metal_Only>
0

> <s_lp_Force_Field>
OPLS_2005

> <r_lp_Energy>
35.5709

> <b_lp_Chiralities_Consistent>
1

> <s_lp_Variant>
AV-unprocessed.smi:587-2

> <Gold.Version>
5.8.1

> <Gold.Id.Protein>
6NUR|6NUR_protein|mol2

> <Gold.PLP.Fitness>
43.8840

> <Gold.PLP.PLP>
-32.5218

> <Gold.PLP.part.hbond>
-3.6294

> <Gold.PLP.part.metal>
0.0000

> <Gold.PLP.part.buried>
-3.7692

> <Gold.PLP.part.nonpolar>
-25.7677

> <Gold.PLP.part.repulsive>
0.1837

> <Gold.PLP.ligand.clash>
0.0000

> <Gold.PLP.ligand.torsion>
0.2411

> <Gold.PLP.Chemscore.Hbond>
3.8800

> <Gold.PLP.Chemscore.CHOScore>
0.0000

> <Gold.PLP.Chemscore.Metal>
0.0000

> <Gold.Chemscore.Hbonds>
donor molecule, donor type, donor heavy atom, donor atom, acceptor molecule, acceptor atom, score
      L1  H     4    28       P1  7948  1.00
      L1  H     6    47       P1  7948  2.00
      P1  H  6934  6947       L1    17  0.80

> <Gold.PLP.Chemscore.Internal.Correction>
0.2045

> <Gold.Rescore>
     Score         DG    S(hbond)    S(metal)    S(lipo)     H(rot)  DE(clash)    DE(int)     intcor
     16.24     -17.64       2.91        0.00      61.64       1.87       0.01       1.40       ----

> <Gold.Chemscore.Fitness>
16.2358

> <Gold.Chemscore.DG>
-17.6432

> <Gold.Chemscore.ZeroCoef>
-5.4800

> <Gold.Chemscore.Hbond>
2.9135

> <Gold.Chemscore.Metal>
0.0000

> <Gold.Chemscore.Lipo>
61.6407

> <Gold.Chemscore.Internal_Hbond>
0.0000

> <Gold.Chemscore.DEClash>
0.0089

> <Gold.Chemscore.DEInternal>
1.3985

> <Gold.Chemscore.Rot>
1.8672

> <Gold.Chemscore.Internal.Correction>
   9.000000E+99

> <Gold.Chemscore.Hbonds>
donor molecule, donor type, donor heavy atom, donor atom, acceptor molecule, acceptor atom, score
      L1  H     4    28       P1  7948  0.55
      L1  H     6    47       P1  7948  0.90
      P1  H  6934  6947       L1    17  0.80

> <Gold.Chemscore.Hbond.Weighted>
-9.7311

> <Gold.Chemscore.Metal.Weighted>
-0.0000

> <Gold.Chemscore.Lipo.Weighted>
-7.2120

> <Gold.Chemscore.Internal_Hbond.Weighted>
0.0000

> <Gold.Chemscore.DEClash.Weighted>
0.0089

> <Gold.Chemscore.DEInternal.Weighted>
1.3985

> <Gold.Chemscore.Rot.Weighted>
4.7799

> <Gold.Chemscore.Internal.Correction.Weighted>
   9.000000E+99

> <Gold.Protein.RotatedTorsions>
[ 6907 6896 6895 6894 ] final   32.84 input  -60.11 | X-H torsion
[ 7974 7965 7964 7962 ] final   38.24 input  175.53 | X-H torsion
[ 8008 7997 7996 7995 ] final  -47.05 input   59.86 | X-H torsion
[ 10167 10162 10161 10158 ] final  -20.40 input  -65.29 | X-H torsion
[ 10718 10713 10712 10709 ] final  -90.12 input   66.30 | X-H torsion
[ 10763 10752 10751 10750 ] final  171.78 input  -60.55 | X-H torsion
[ 11005 11000 10999 10996 ] final  147.67 input  -57.11 | X-H torsion

> <Gold.Protein.ActiveResidues>
 VAL166  LYS551  ARG553  GLY616  TRP617  ASP618  TYR619  PRO620  LYS621  CYS622 
 ASP623  PHE694  ASN695  SER759  ASP760  ASP761  ALA762  ILE779  LEU786  VAL792 
 PHE793  MET794  SER795  GLU796  ALA797  LYS798  CYS799  TRP800  GLU811  SER814 

> <Gold.Protein.RotatedAtoms>
  152.0801  134.9477  160.0573 H   0  0  0  0  0  0  0  0  0  0  0  0  # atno 6907 bound_to 6896
  152.0769  133.4129  159.4492 H   0  0  0  0  0  0  0  0  0  0  0  0  # atno 6908 bound_to 6896
  150.6836  134.2947  159.4725 H   0  0  0  0  0  0  0  0  0  0  0  0  # atno 6909 bound_to 6896
  146.1077  139.5796  142.9373 H   0  0  0  0  0  0  0  0  0  0  0  0  # atno 7974 bound_to 7965
  154.4013  140.1356  156.4111 H   0  0  0  0  0  0  0  0  0  0  0  0  # atno 8008 bound_to 7997
  155.7732  140.3483  155.5238 H   0  0  0  0  0  0  0  0  0  0  0  0  # atno 8009 bound_to 7997
  155.8746  140.0977  157.1517 H   0  0  0  0  0  0  0  0  0  0  0  0  # atno 8010 bound_to 7997
  140.7276  143.4726  151.0225 H   0  0  0  0  0  0  0  0  0  0  0  0  # atno 10167 bound_to 10162
  155.9986  130.4898  150.5275 H   0  0  0  0  0  0  0  0  0  0  0  0  # atno 10718 bound_to 10713
  154.4168  135.2757  155.2001 H   0  0  0  0  0  0  0  0  0  0  0  0  # atno 10763 bound_to 10752
  154.3964  135.6054  153.5875 H   0  0  0  0  0  0  0  0  0  0  0  0  # atno 10764 bound_to 10752
  152.9832  135.5915  154.4458 H   0  0  0  0  0  0  0  0  0  0  0  0  # atno 10765 bound_to 10752
  140.0895  134.9049  157.1628 H   0  0  0  0  0  0  0  0  0  0  0  0  # atno 11005 bound_to 11000
  145.5727  141.0392  143.2165 LP  0  0  0  0  0  0  0  0  0  0  0  0  # atno 17320 bound_to 7965
  144.7485  139.7257  143.7283 LP  0  0  0  0  0  0  0  0  0  0  0  0  # atno 17321 bound_to 7965
  139.8419  143.7552  152.3180 LP  0  0  0  0  0  0  0  0  0  0  0  0  # atno 17342 bound_to 10162
  139.7704  144.7478  151.0233 LP  0  0  0  0  0  0  0  0  0  0  0  0  # atno 17343 bound_to 10162
  157.3228  131.0685  151.1919 LP  0  0  0  0  0  0  0  0  0  0  0  0  # atno 17370 bound_to 10713
  157.2826  130.6757  149.6073 LP  0  0  0  0  0  0  0  0  0  0  0  0  # atno 17371 bound_to 10713
  140.3373  134.2743  155.7218 LP  0  0  0  0  0  0  0  0  0  0  0  0  # atno 17394 bound_to 11000
  141.2073  133.7809  157.0126 LP  0  0  0  0  0  0  0  0  0  0  0  0  # atno 17395 bound_to 11000

$$$$
