AV-unprocessed.smi:104|AV-procd|sdf|996|dock1
  -GOLD-   2262017573D 1   1.00000     0.00000
 Structure written by MMmdl.
 47 49  0  0  0  0  0  0  0  0  1 V2000
  146.2983  135.2849  162.5024 C   0  0  0  0  0  0  0  0  0  0  0  0
  147.0334  136.2375  161.5681 C   0  0  0  0  0  0  0  0  0  0  0  0
  147.2814  137.3967  161.8997 O   0  0  0  0  0  0  0  0  0  0  0  0
  147.3514  135.6659  160.3970 O   0  0  0  0  0  0  0  0  0  0  0  0
  148.5073  136.0911  159.6893 C   0  0  0  0  0  0  0  0  0  0  0  0
  148.4736  135.6158  158.2264 C   0  0  1  0  0  0  0  0  0  0  0  0
  147.3037  136.0532  157.5385 O   0  0  0  0  0  0  0  0  0  0  0  0
  147.6031  136.2332  156.1855 C   0  0  2  0  0  0  0  0  0  0  0  0
  146.6511  135.4403  155.3509 N   0  0  0  0  0  0  0  0  0  0  0  0
  146.3049  134.1135  155.4664 C   0  0  0  0  0  0  0  0  0  0  0  0
  147.0270  132.9887  156.8232 Br  0  0  0  0  0  0  0  0  0  0  0  0
  145.4363  133.6477  154.6132 N   0  0  0  0  0  0  0  0  0  0  0  0
  145.1415  134.7622  153.8379 C   0  0  0  0  0  0  0  0  0  0  0  0
  144.2807  134.9952  152.7356 C   0  0  0  0  0  0  0  0  0  0  0  0
  143.5155  134.0403  152.1893 N   0  0  0  0  0  0  0  0  0  0  0  0
  144.2260  136.2410  152.2097 N   0  0  0  0  0  0  0  0  0  0  0  0
  144.9774  137.2130  152.7366 C   0  0  0  0  0  0  0  0  0  0  0  0
  145.8296  137.1471  153.7630 N   0  0  0  0  0  0  0  0  0  0  0  0
  145.8877  135.8897  154.2918 C   0  0  0  0  0  0  0  0  0  0  0  0
  149.0355  135.7505  155.9576 C   0  0  1  0  0  0  0  0  0  0  0  0
  149.6541  136.4730  154.9009 O   0  0  0  0  0  0  0  0  0  0  0  0
  150.9824  136.6661  154.9042 C   0  0  0  0  0  0  0  0  0  0  0  0
  151.4022  137.8203  154.0042 C   0  0  0  0  0  0  0  0  0  0  0  0
  151.8072  136.0205  155.5505 O   0  0  0  0  0  0  0  0  0  0  0  0
  149.6571  135.9941  157.3249 C   0  0  1  0  0  0  0  0  0  0  0  0
  150.0080  137.3658  157.4966 O   0  0  0  0  0  0  0  0  0  0  0  0
  150.8564  137.7456  158.4679 C   0  0  0  0  0  0  0  0  0  0  0  0
  151.1853  139.2312  158.4036 C   0  0  0  0  0  0  0  0  0  0  0  0
  151.3428  137.0187  159.3340 O   0  0  0  0  0  0  0  0  0  0  0  0
  145.8339  134.4730  161.9418 H   0  0  0  0  0  0  0  0  0  0  0  0
  145.5173  135.8168  163.0462 H   0  0  0  0  0  0  0  0  0  0  0  0
  146.9922  134.8557  163.2253 H   0  0  0  0  0  0  0  0  0  0  0  0
  148.5879  137.1792  159.7088 H   0  0  0  0  0  0  0  0  0  0  0  0
  149.3906  135.6934  160.1900 H   0  0  0  0  0  0  0  0  0  0  0  0
  148.4271  134.5263  158.2452 H   0  0  0  0  0  0  0  0  0  0  0  0
  147.4433  137.2784  155.9207 H   0  0  0  0  0  0  0  0  0  0  0  0
  143.5361  133.1024  152.5635 H   0  0  0  0  0  0  0  0  0  0  0  0
  142.9223  134.2592  151.4020 H   0  0  0  0  0  0  0  0  0  0  0  0
  144.8831  138.1816  152.2680 H   0  0  0  0  0  0  0  0  0  0  0  0
  149.0063  134.6787  155.7526 H   0  0  0  0  0  0  0  0  0  0  0  0
  150.8380  137.8026  153.0714 H   0  0  0  0  0  0  0  0  0  0  0  0
  152.4642  137.7531  153.7664 H   0  0  0  0  0  0  0  0  0  0  0  0
  151.2185  138.7718  154.5033 H   0  0  0  0  0  0  0  0  0  0  0  0
  150.5080  135.3360  157.5061 H   0  0  0  0  0  0  0  0  0  0  0  0
  150.8175  139.6719  157.4765 H   0  0  0  0  0  0  0  0  0  0  0  0
  152.2639  139.3815  158.4530 H   0  0  0  0  0  0  0  0  0  0  0  0
  150.7238  139.7545  159.2410 H   0  0  0  0  0  0  0  0  0  0  0  0
  1  2  1  0  0  0  0
  1 30  1  0  0  0  0
  1 31  1  0  0  0  0
  1 32  1  0  0  0  0
  2  3  2  0  0  0  0
  2  4  1  0  0  0  0
  4  5  1  0  0  0  0
  5  6  1  0  0  0  0
  5 33  1  0  0  0  0
  5 34  1  0  0  0  0
  6 25  1  0  0  0  0
  6  7  1  0  0  0  0
  6 35  1  0  0  0  0
  7  8  1  0  0  0  0
  8  9  1  0  0  0  0
  8 20  1  0  0  0  0
  8 36  1  0  0  0  0
  9 19  1  0  0  0  0
  9 10  1  0  0  0  0
 10 11  1  0  0  0  0
 10 12  2  0  0  0  0
 12 13  1  0  0  0  0
 13 19  2  0  0  0  0
 13 14  1  0  0  0  0
 14 15  1  0  0  0  0
 14 16  2  0  0  0  0
 15 37  1  0  0  0  0
 15 38  1  0  0  0  0
 16 17  1  0  0  0  0
 17 18  2  0  0  0  0
 17 39  1  0  0  0  0
 18 19  1  0  0  0  0
 20 21  1  0  0  0  0
 20 25  1  0  0  0  0
 20 40  1  0  0  0  0
 21 22  1  0  0  0  0
 22 23  1  0  0  0  0
 22 24  2  0  0  0  0
 23 41  1  0  0  0  0
 23 42  1  0  0  0  0
 23 43  1  0  0  0  0
 25 26  1  0  0  0  0
 25 44  1  0  0  0  0
 26 27  1  0  0  0  0
 27 28  1  0  0  0  0
 27 29  2  0  0  0  0
 28 45  1  0  0  0  0
 28 46  1  0  0  0  0
 28 47  1  0  0  0  0
M  END
> <s_m_source_file>
AV-unprocessed.smi

> <i_m_source_file_index>
104

> <i_lp_mmshare_version>
43012

> <i_f3d_flags>
0

> <s_epik_input>
W0NIM11DKD1PKU9bQ0gyXVtDQEBIXTFPW0NASF0oW0NAQEhdKE9DKD1PKVtDSDNdKVtDQEhdMU9DKD1PKVtDSDNdKW4oYyhCciluMiljKGMyMyluW2NIXW5jM1tOSDJd

> <s_epik_cmdline>
J2VwaWtfcHl0aG9uJywgJy1waCcsICc3LjAnLCAnLXRuJywgJzgnLCAnLW1hJywgJzIwMCcsICctbWV0YWxfYmluZGluZycsICctaW1hZScsICc8aW5maWxlLm1hZT4nLCAnLW9tYWUnLCAnPG91dGZpbGUubWFlPic=

> <r_lp_tautomer_probability>
1

> <r_epik_Ionization_Penalty>
7.36622e-05

> <r_epik_Ionization_Penalty_Charging>
0

> <r_epik_Ionization_Penalty_Neutral>
7.36622e-05

> <r_epik_State_Penalty>
-0

> <r_epik_Charging_Adjusted_Penalty>
0

> <i_epik_Tot_Q>
0

> <i_epik_Tot_abs_Q>
0

> <r_epik_Metal_State_Penalty>
-0

> <b_epik_Metal_Only>
0

> <s_epik_Chemistry_Notes>
This compound has an ester and may undergo hydrolysis at high or low pH. This compound contains an acetal/aminal-like group ( X-CH(R)-Y where X, Y are N, S, or O) that may be acid/base labile, releasing an aldehyde.

> <s_lp_Force_Field>
OPLS_2005

> <r_lp_Energy>
19.7206

> <b_lp_Chiralities_Consistent>
1

> <s_lp_Variant>
AV-unprocessed.smi:104-4

> <Gold.Version>
5.8.1

> <Gold.Id.Protein>
6NUR|6NUR_protein|mol2

> <Gold.PLP.Fitness>
39.9367

> <Gold.PLP.PLP>
-27.2938

> <Gold.PLP.part.hbond>
-4.0000

> <Gold.PLP.part.metal>
0.0000

> <Gold.PLP.part.buried>
-6.8727

> <Gold.PLP.part.nonpolar>
-16.7952

> <Gold.PLP.part.repulsive>
0.5884

> <Gold.PLP.ligand.clash>
0.0000

> <Gold.PLP.ligand.torsion>
1.3893

> <Gold.PLP.Chemscore.Hbond>
3.5358

> <Gold.PLP.Chemscore.CHOScore>
1.3885

> <Gold.PLP.Chemscore.Metal>
0.0000

> <Gold.Chemscore.Hbonds>
donor molecule, donor type, donor heavy atom, donor atom, acceptor molecule, acceptor atom, score
      P1  H  6896  6908       L1    29  1.00
      P1  H  6931  6943       L1     3  0.77
      P1  H  6934  6947       L1     3  0.74
      P1  H 10752 10763       L1    24  0.91
      L1  C    17    39       P1 10171  0.56
      L1  C    17    39       P1 10175  0.89

> <Gold.PLP.Chemscore.Internal.Correction>
0.6487

> <Gold.Rescore>
     Score         DG    S(hbond)    S(metal)    S(lipo)     H(rot)  DE(clash)    DE(int)     intcor
      7.45      -9.63       3.29        0.00      35.88       4.31       0.21       1.98       ----

> <Gold.Chemscore.Fitness>
7.4475

> <Gold.Chemscore.DG>
-9.6345

> <Gold.Chemscore.ZeroCoef>
-5.4800

> <Gold.Chemscore.Hbond>
3.2881

> <Gold.Chemscore.Metal>
0.0000

> <Gold.Chemscore.Lipo>
35.8829

> <Gold.Chemscore.Internal_Hbond>
0.0000

> <Gold.Chemscore.DEClash>
0.2055

> <Gold.Chemscore.DEInternal>
1.9815

> <Gold.Chemscore.Rot>
4.3070

> <Gold.Chemscore.Internal.Correction>
   9.000000E+99

> <Gold.Chemscore.Hbonds>
donor molecule, donor type, donor heavy atom, donor atom, acceptor molecule, acceptor atom, score
      P1  H  6896  6908       L1    29  0.99
      P1  H  6931  6943       L1     3  0.77
      P1  H  6934  6947       L1     3  0.74
      P1  H 10752 10763       L1    24  0.87

> <Gold.Chemscore.Hbond.Weighted>
-10.9821

> <Gold.Chemscore.Metal.Weighted>
-0.0000

> <Gold.Chemscore.Lipo.Weighted>
-4.1983

> <Gold.Chemscore.Internal_Hbond.Weighted>
0.0000

> <Gold.Chemscore.DEClash.Weighted>
0.2055

> <Gold.Chemscore.DEInternal.Weighted>
1.9815

> <Gold.Chemscore.Rot.Weighted>
11.0259

> <Gold.Chemscore.Internal.Correction.Weighted>
   9.000000E+99

> <Gold.Protein.RotatedTorsions>
[ 6907 6896 6895 6894 ] final -127.50 input  -60.11 | X-H torsion
[ 7974 7965 7964 7962 ] final  -66.29 input  175.53 | X-H torsion
[ 8008 7997 7996 7995 ] final  112.52 input   59.86 | X-H torsion
[ 10167 10162 10161 10158 ] final  -33.21 input  -65.29 | X-H torsion
[ 10718 10713 10712 10709 ] final -146.15 input   66.30 | X-H torsion
[ 10763 10752 10751 10750 ] final   84.47 input  -60.55 | X-H torsion
[ 11005 11000 10999 10996 ] final -121.62 input  -57.11 | X-H torsion

> <Gold.Protein.ActiveResidues>
 VAL166  LYS551  ARG553  GLY616  TRP617  ASP618  TYR619  PRO620  LYS621  CYS622 
 ASP623  PHE694  ASN695  SER759  ASP760  ASP761  ALA762  ILE779  LEU786  VAL792 
 PHE793  MET794  SER795  GLU796  ALA797  LYS798  CYS799  TRP800  GLU811  SER814 

> <Gold.Protein.RotatedAtoms>
  150.9079  133.7034  159.2861 H   0  0  0  0  0  0  0  0  0  0  0  0  # atno 6907 bound_to 6896
  151.4531  135.1030  159.9713 H   0  0  0  0  0  0  0  0  0  0  0  0  # atno 6908 bound_to 6896
  152.4914  133.8460  159.7232 H   0  0  0  0  0  0  0  0  0  0  0  0  # atno 6909 bound_to 6896
  145.7437  140.8942  143.0516 H   0  0  0  0  0  0  0  0  0  0  0  0  # atno 7974 bound_to 7965
  156.2197  140.2998  155.9924 H   0  0  0  0  0  0  0  0  0  0  0  0  # atno 8008 bound_to 7997
  155.2513  140.0426  157.3004 H   0  0  0  0  0  0  0  0  0  0  0  0  # atno 8009 bound_to 7997
  154.5822  140.2378  155.8046 H   0  0  0  0  0  0  0  0  0  0  0  0  # atno 8010 bound_to 7997
  140.7208  143.3637  151.1912 H   0  0  0  0  0  0  0  0  0  0  0  0  # atno 10167 bound_to 10162
  156.3913  130.7887  151.2089 H   0  0  0  0  0  0  0  0  0  0  0  0  # atno 10718 bound_to 10713
  153.1385  135.4653  154.9459 H   0  0  0  0  0  0  0  0  0  0  0  0  # atno 10763 bound_to 10752
  154.7726  135.3163  154.8160 H   0  0  0  0  0  0  0  0  0  0  0  0  # atno 10764 bound_to 10752
  153.8687  135.6905  153.4830 H   0  0  0  0  0  0  0  0  0  0  0  0  # atno 10765 bound_to 10752
  141.0056  134.0339  157.3481 H   0  0  0  0  0  0  0  0  0  0  0  0  # atno 11005 bound_to 11000
  144.6865  139.9495  143.7477 LP  0  0  0  0  0  0  0  0  0  0  0  0  # atno 17320 bound_to 7965
  146.0424  139.3434  143.0689 LP  0  0  0  0  0  0  0  0  0  0  0  0  # atno 17321 bound_to 7965
  139.7195  143.9247  152.2980 LP  0  0  0  0  0  0  0  0  0  0  0  0  # atno 17342 bound_to 10162
  139.8999  144.6918  150.8677 LP  0  0  0  0  0  0  0  0  0  0  0  0  # atno 17343 bound_to 10162
  157.7499  131.0315  150.4183 LP  0  0  0  0  0  0  0  0  0  0  0  0  # atno 17370 bound_to 10713
  156.4445  130.3998  149.6676 LP  0  0  0  0  0  0  0  0  0  0  0  0  # atno 17371 bound_to 10713
  139.9062  135.0180  156.7494 LP  0  0  0  0  0  0  0  0  0  0  0  0  # atno 17394 bound_to 11000
  140.6818  133.9468  155.7914 LP  0  0  0  0  0  0  0  0  0  0  0  0  # atno 17395 bound_to 11000

$$$$
