AV-unprocessed.smi:557|AV-procd|sdf|2917|dock2
  -GOLD-   2262023413D 1   1.00000     0.00000
 Structure written by MMmdl.
 47 49  0  0  0  0  0  0  0  0  2 V2000
  151.1248  141.2999  156.0812 C   0  0  0  0  0  0  0  0  0  0  0  0
  150.9162  140.0042  155.4718 N   0  0  0  0  0  0  0  0  0  0  0  0
  151.1220  138.7545  156.0152 C   0  0  0  0  0  0  0  0  0  0  0  0
  150.7863  137.8334  155.0633 C   0  0  0  0  0  0  0  0  0  0  0  0
  150.8240  136.3335  155.1518 C   0  0  0  0  0  0  0  0  0  0  0  0
  149.4595  135.7614  155.5576 C   0  0  0  0  0  0  0  0  0  0  0  0
  148.6743  135.4147  154.3762 N   0  0  0  0  0  0  0  0  0  0  0  0
  147.9390  134.3062  154.1867 C   0  0  0  0  0  0  0  0  0  0  0  0
  147.8570  133.4256  155.0403 O   0  0  0  0  0  0  0  0  0  0  0  0
  147.3161  134.2467  152.9975 N   0  0  0  0  0  0  0  0  0  0  0  0
  146.4658  133.1510  152.5431 C   0  0  1  0  0  0  0  0  0  0  0  0
  145.9058  133.3711  151.1428 C   0  0  0  0  0  0  0  0  0  0  0  0
  145.5134  131.9531  150.7261 C   0  0  0  0  0  0  0  0  0  0  0  0
  146.5147  131.0571  151.3478 N   0  3  2  0  0  0  0  0  0  0  0  0
  145.9892  129.7317  151.7567 C   0  0  0  0  0  0  0  0  0  0  0  0
  147.1057  128.8773  152.3832 C   0  0  0  0  0  0  0  0  0  0  0  0
  147.8675  129.6104  153.5069 C   0  0  0  0  0  0  0  0  0  0  0  0
  147.3493  131.0392  153.7359 C   0  0  0  0  0  0  0  0  0  0  0  0
  147.2304  131.8224  152.4087 C   0  0  2  0  0  0  0  0  0  0  0  0
  150.3860  138.6341  153.9557 C   0  0  0  0  0  0  0  0  0  0  0  0
  150.4632  139.9312  154.2035 N   0  0  0  0  0  0  0  0  0  0  0  0
  151.3854  141.1812  157.1333 H   0  0  0  0  0  0  0  0  0  0  0  0
  150.2142  141.8953  156.0073 H   0  0  0  0  0  0  0  0  0  0  0  0
  151.9359  141.8197  155.5708 H   0  0  0  0  0  0  0  0  0  0  0  0
  151.4845  138.6244  157.0244 H   0  0  0  0  0  0  0  0  0  0  0  0
  151.1253  135.9035  154.1959 H   0  0  0  0  0  0  0  0  0  0  0  0
  151.5787  136.0141  155.8715 H   0  0  0  0  0  0  0  0  0  0  0  0
  149.5980  134.8718  156.1744 H   0  0  0  0  0  0  0  0  0  0  0  0
  148.9147  136.4935  156.1563 H   0  0  0  0  0  0  0  0  0  0  0  0
  148.6945  136.0826  153.6188 H   0  0  0  0  0  0  0  0  0  0  0  0
  147.4416  135.0213  152.3619 H   0  0  0  0  0  0  0  0  0  0  0  0
  145.6201  133.0241  153.2223 H   0  0  0  0  0  0  0  0  0  0  0  0
  145.0652  134.0654  151.1239 H   0  0  0  0  0  0  0  0  0  0  0  0
  146.6795  133.7552  150.4761 H   0  0  0  0  0  0  0  0  0  0  0  0
  144.5194  131.7271  151.1159 H   0  0  0  0  0  0  0  0  0  0  0  0
  145.4834  131.8278  149.6435 H   0  0  0  0  0  0  0  0  0  0  0  0
  145.1708  129.8603  152.4670 H   0  0  0  0  0  0  0  0  0  0  0  0
  145.5732  129.2226  150.8866 H   0  0  0  0  0  0  0  0  0  0  0  0
  146.6831  127.9475  152.7652 H   0  0  0  0  0  0  0  0  0  0  0  0
  147.8129  128.5867  151.6052 H   0  0  0  0  0  0  0  0  0  0  0  0
  147.8016  129.0436  154.4362 H   0  0  0  0  0  0  0  0  0  0  0  0
  148.9273  129.6497  153.2526 H   0  0  0  0  0  0  0  0  0  0  0  0
  146.3777  130.9928  154.2298 H   0  0  0  0  0  0  0  0  0  0  0  0
  148.0107  131.5642  154.4252 H   0  0  0  0  0  0  0  0  0  0  0  0
  148.2309  132.0158  152.0181 H   0  0  0  0  0  0  0  0  0  0  0  0
  150.0411  138.3120  152.9844 H   0  0  0  0  0  0  0  0  0  0  0  0
  147.2109  130.8749  150.6391 H   0  0  0  0  0  0  0  0  0  0  0  0
  1  2  1  0  0  0  0
  1 22  1  0  0  0  0
  1 23  1  0  0  0  0
  1 24  1  0  0  0  0
  2 21  1  0  0  0  0
  2  3  1  0  0  0  0
  3  4  2  0  0  0  0
  3 25  1  0  0  0  0
  4  5  1  0  0  0  0
  4 20  1  0  0  0  0
  5  6  1  0  0  0  0
  5 26  1  0  0  0  0
  5 27  1  0  0  0  0
  6  7  1  0  0  0  0
  6 28  1  0  0  0  0
  6 29  1  0  0  0  0
  7  8  1  0  0  0  0
  7 30  1  0  0  0  0
  8  9  2  0  0  0  0
  8 10  1  0  0  0  0
 10 11  1  0  0  0  0
 10 31  1  0  0  0  0
 11 19  1  0  0  0  0
 11 12  1  0  0  0  0
 11 32  1  0  0  0  0
 12 13  1  0  0  0  0
 12 33  1  0  0  0  0
 12 34  1  0  0  0  0
 13 14  1  0  0  0  0
 13 35  1  0  0  0  0
 13 36  1  0  0  0  0
 14 19  1  0  0  0  0
 14 15  1  0  0  0  0
 14 47  1  0  0  0  0
 15 16  1  0  0  0  0
 15 37  1  0  0  0  0
 15 38  1  0  0  0  0
 16 17  1  0  0  0  0
 16 39  1  0  0  0  0
 16 40  1  0  0  0  0
 17 18  1  0  0  0  0
 17 41  1  0  0  0  0
 17 42  1  0  0  0  0
 18 19  1  0  0  0  0
 18 43  1  0  0  0  0
 18 44  1  0  0  0  0
 19 45  1  0  0  0  0
 20 21  2  0  0  0  0
 20 46  1  0  0  0  0
M  CHG  1  14   1
M  END
> <s_m_source_file>
AV-unprocessed.smi

> <i_m_source_file_index>
557

> <i_lp_mmshare_version>
43012

> <i_f3d_flags>
0

> <s_epik_input>
W0NIM11uMVtjSF1jKFtjSF1uMSlbQ0gyXVtDSDJdW05IXUMoPU8pW05IXVtDQEhdKFtDSDJdW0NIMl0yKVtDQEhdKE4yMylbQ0gyXVtDSDJdW0NIMl1bQ0gyXTM=

> <s_epik_cmdline>
J2VwaWtfcHl0aG9uJywgJy1waCcsICc3LjAnLCAnLXRuJywgJzgnLCAnLW1hJywgJzIwMCcsICctbWV0YWxfYmluZGluZycsICctaW1hZScsICc8aW5maWxlLm1hZT4nLCAnLW9tYWUnLCAnPG91dGZpbGUubWFlPic=

> <r_lp_tautomer_probability>
1

> <r_epik_Ionization_Penalty>
0.000956547

> <r_epik_Ionization_Penalty_Charging>
0.000435796

> <r_epik_Ionization_Penalty_Neutral>
0.000520752

> <r_epik_State_Penalty>
-0

> <r_epik_Charging_Adjusted_Penalty>
0.000435796

> <i_epik_Tot_Q>
1

> <i_epik_Tot_abs_Q>
1

> <r_epik_Metal_State_Penalty>
-0

> <b_epik_Metal_Only>
0

> <s_lp_Force_Field>
OPLS_2005

> <r_lp_Energy>
44.9241

> <b_lp_Chiralities_Consistent>
1

> <s_lp_Variant>
AV-unprocessed.smi:557-4

> <Gold.Version>
5.8.1

> <Gold.Id.Protein>
6NUR|6NUR_protein|mol2

> <Gold.PLP.Fitness>
48.4893

> <Gold.PLP.PLP>
-34.2012

> <Gold.PLP.part.hbond>
-4.0000

> <Gold.PLP.part.metal>
0.0000

> <Gold.PLP.part.buried>
-3.2767

> <Gold.PLP.part.nonpolar>
-27.5339

> <Gold.PLP.part.repulsive>
0.1889

> <Gold.PLP.ligand.clash>
0.0000

> <Gold.PLP.ligand.torsion>
0.6894

> <Gold.PLP.Chemscore.Hbond>
3.5120

> <Gold.PLP.Chemscore.CHOScore>
1.7054

> <Gold.PLP.Chemscore.Metal>
0.0000

> <Gold.Chemscore.Hbonds>
donor molecule, donor type, donor heavy atom, donor atom, acceptor molecule, acceptor atom, score
      L1  H     7    30       P1  7948  0.85
      L1  H    10    31       P1  7948  0.72
      L1  H    14    47       P1 10747  0.91
      P1  H  7989  7998       L1    21  0.95
      L1  C    20    46       P1  7948  0.95
      L1  C    20    46       P1  7957  0.81

> <Gold.PLP.Chemscore.Internal.Correction>
0.0147

> <Gold.Rescore>
     Score         DG    S(hbond)    S(metal)    S(lipo)     H(rot)  DE(clash)    DE(int)     intcor
     21.94     -24.20       3.73        0.00      88.70       1.60       0.13       2.13       ----

> <Gold.Chemscore.Fitness>
21.9410

> <Gold.Chemscore.DG>
-24.2011

> <Gold.Chemscore.ZeroCoef>
-5.4800

> <Gold.Chemscore.Hbond>
3.7256

> <Gold.Chemscore.Metal>
0.0000

> <Gold.Chemscore.Lipo>
88.7021

> <Gold.Chemscore.Internal_Hbond>
0.0000

> <Gold.Chemscore.DEClash>
0.1286

> <Gold.Chemscore.DEInternal>
2.1315

> <Gold.Chemscore.Rot>
1.6018

> <Gold.Chemscore.Internal.Correction>
   9.000000E+99

> <Gold.Chemscore.Hbonds>
donor molecule, donor type, donor heavy atom, donor atom, acceptor molecule, acceptor atom, score
      L1  H     7    30       P1  7948  0.83
      L1  H    10    31       P1  7948  0.70
      L1  H    14    47       P1 10747  0.90
      P1  H  7989  7998       L1    21  0.21

> <Gold.Chemscore.Hbond.Weighted>
-12.4435

> <Gold.Chemscore.Metal.Weighted>
-0.0000

> <Gold.Chemscore.Lipo.Weighted>
-10.3781

> <Gold.Chemscore.Internal_Hbond.Weighted>
0.0000

> <Gold.Chemscore.DEClash.Weighted>
0.1286

> <Gold.Chemscore.DEInternal.Weighted>
2.1315

> <Gold.Chemscore.Rot.Weighted>
4.1006

> <Gold.Chemscore.Internal.Correction.Weighted>
   9.000000E+99

> <Gold.Protein.RotatedTorsions>
[ 6907 6896 6895 6894 ] final  -39.55 input  -60.11 | X-H torsion
[ 7974 7965 7964 7962 ] final   21.40 input  175.53 | X-H torsion
[ 8008 7997 7996 7995 ] final   13.89 input   59.86 | X-H torsion
[ 10167 10162 10161 10158 ] final  -91.56 input  -65.29 | X-H torsion
[ 10718 10713 10712 10709 ] final  -81.86 input   66.30 | X-H torsion
[ 10763 10752 10751 10750 ] final    4.88 input  -60.55 | X-H torsion
[ 11005 11000 10999 10996 ] final   22.54 input  -57.11 | X-H torsion

> <Gold.Protein.ActiveResidues>
 VAL166  LYS551  ARG553  GLY616  TRP617  ASP618  TYR619  PRO620  LYS621  CYS622 
 ASP623  PHE694  ASN695  SER759  ASP760  ASP761  ALA762  ILE779  LEU786  VAL792 
 PHE793  MET794  SER795  GLU796  ALA797  LYS798  CYS799  TRP800  GLU811  SER814 

> <Gold.Protein.RotatedAtoms>
  150.9890  134.9229  159.7888 H   0  0  0  0  0  0  0  0  0  0  0  0  # atno 6907 bound_to 6896
  152.5245  134.3307  159.9192 H   0  0  0  0  0  0  0  0  0  0  0  0  # atno 6908 bound_to 6896
  151.3313  133.3958  159.2697 H   0  0  0  0  0  0  0  0  0  0  0  0  # atno 6909 bound_to 6896
  146.2073  139.8033  142.8716 H   0  0  0  0  0  0  0  0  0  0  0  0  # atno 7974 bound_to 7965
  154.8408  140.2914  155.5660 H   0  0  0  0  0  0  0  0  0  0  0  0  # atno 8008 bound_to 7997
  156.3011  140.2514  156.3282 H   0  0  0  0  0  0  0  0  0  0  0  0  # atno 8009 bound_to 7997
  154.9127  140.0388  157.1944 H   0  0  0  0  0  0  0  0  0  0  0  0  # atno 8010 bound_to 7997
  140.3436  143.2929  151.9807 H   0  0  0  0  0  0  0  0  0  0  0  0  # atno 10167 bound_to 10162
  156.0043  130.4616  150.4017 H   0  0  0  0  0  0  0  0  0  0  0  0  # atno 10718 bound_to 10713
  153.2659  135.6927  153.7530 H   0  0  0  0  0  0  0  0  0  0  0  0  # atno 10763 bound_to 10752
  153.6571  135.3366  155.3117 H   0  0  0  0  0  0  0  0  0  0  0  0  # atno 10764 bound_to 10752
  154.8447  135.4468  154.1666 H   0  0  0  0  0  0  0  0  0  0  0  0  # atno 10765 bound_to 10752
  140.3794  134.1936  155.7664 H   0  0  0  0  0  0  0  0  0  0  0  0  # atno 11005 bound_to 11000
  145.3273  141.0258  143.3466 LP  0  0  0  0  0  0  0  0  0  0  0  0  # atno 17320 bound_to 7965
  144.8823  139.4886  143.6717 LP  0  0  0  0  0  0  0  0  0  0  0  0  # atno 17321 bound_to 7965
  139.4836  144.6136  151.7388 LP  0  0  0  0  0  0  0  0  0  0  0  0  # atno 17342 bound_to 10162
  140.5285  144.0767  150.6046 LP  0  0  0  0  0  0  0  0  0  0  0  0  # atno 17343 bound_to 10162
  157.2086  131.0455  151.2612 LP  0  0  0  0  0  0  0  0  0  0  0  0  # atno 17370 bound_to 10713
  157.3910  130.7282  149.6697 LP  0  0  0  0  0  0  0  0  0  0  0  0  # atno 17371 bound_to 10713
  141.1928  133.8164  157.0823 LP  0  0  0  0  0  0  0  0  0  0  0  0  # atno 17394 bound_to 11000
  140.0490  134.9815  157.1101 LP  0  0  0  0  0  0  0  0  0  0  0  0  # atno 17395 bound_to 11000

$$$$
