AV-unprocessed.smi:1432|AV-procd|sdf|5832|dock3
  -GOLD-   22720 5493D 1   1.00000     0.00000
 Structure written by MMmdl.
 47 48  0  0  0  0  0  0  0  0  2 V2000
  147.4378  140.4569  156.7639 C   0  0  0  0  0  0  0  0  0  0  0  0
  146.6720  140.2179  155.4442 C   0  0  1  0  0  0  0  0  0  0  0  0
  145.4175  141.1087  155.3226 C   0  0  0  0  0  0  0  0  0  0  0  0
  145.7749  142.5743  155.0354 C   0  0  0  0  0  0  0  0  0  0  0  0
  146.6755  142.6625  153.7974 C   0  0  0  0  0  0  0  0  0  0  0  0
  147.9158  141.7662  153.9466 C   0  0  0  0  0  0  0  0  0  0  0  0
  147.5282  140.3568  154.2278 N   0  3  1  0  0  0  0  0  0  0  0  0
  148.6696  139.4072  154.1893 C   0  0  0  0  0  0  0  0  0  0  0  0
  149.9895  140.0669  154.6329 C   0  0  0  0  0  0  0  0  0  0  0  0
  150.2795  139.7953  156.0362 N   0  0  0  0  0  0  0  0  0  0  0  0
  151.5105  139.6716  156.5555 C   0  0  0  0  0  0  0  0  0  0  0  0
  152.5354  139.7775  155.8802 O   0  0  0  0  0  0  0  0  0  0  0  0
  151.5763  139.3748  158.0608 C   0  0  0  0  0  0  0  0  0  0  0  0
  152.2369  140.4352  158.8402 N   0  0  0  0  0  0  0  0  0  0  0  0
  151.7906  141.7543  158.6283 C   0  0  0  0  0  0  0  0  0  0  0  0
  152.2920  142.8137  159.2913 C   0  0  0  0  0  0  0  0  0  0  0  0
  151.8119  144.2279  159.0052 C   0  0  0  0  0  0  0  0  0  0  0  0
  152.1120  144.5631  157.7512 F   0  0  0  0  0  0  0  0  0  0  0  0
  150.4922  144.3334  159.1613 F   0  0  0  0  0  0  0  0  0  0  0  0
  152.4018  145.1036  159.8195 F   0  0  0  0  0  0  0  0  0  0  0  0
  153.3595  142.5394  160.2331 C   0  0  0  0  0  0  0  0  0  0  0  0
  153.8014  141.2840  160.4445 C   0  0  0  0  0  0  0  0  0  0  0  0
  153.2272  140.1386  159.7344 C   0  0  0  0  0  0  0  0  0  0  0  0
  153.6102  138.9854  159.9319 O   0  0  0  0  0  0  0  0  0  0  0  0
  146.7768  140.3220  157.6203 H   0  0  0  0  0  0  0  0  0  0  0  0
  147.8496  141.4634  156.8295 H   0  0  0  0  0  0  0  0  0  0  0  0
  148.2617  139.7542  156.8873 H   0  0  0  0  0  0  0  0  0  0  0  0
  146.3182  139.1860  155.4667 H   0  0  0  0  0  0  0  0  0  0  0  0
  144.7894  140.7328  154.5137 H   0  0  0  0  0  0  0  0  0  0  0  0
  144.8140  141.0403  156.2284 H   0  0  0  0  0  0  0  0  0  0  0  0
  144.8666  143.1576  154.8807 H   0  0  0  0  0  0  0  0  0  0  0  0
  146.2808  143.0139  155.8955 H   0  0  0  0  0  0  0  0  0  0  0  0
  146.1118  142.3607  152.9136 H   0  0  0  0  0  0  0  0  0  0  0  0
  146.9799  143.6963  153.6311 H   0  0  0  0  0  0  0  0  0  0  0  0
  148.4959  141.8189  153.0261 H   0  0  0  0  0  0  0  0  0  0  0  0
  148.5629  142.1431  154.7390 H   0  0  0  0  0  0  0  0  0  0  0  0
  148.4491  138.5323  154.8028 H   0  0  0  0  0  0  0  0  0  0  0  0
  148.7927  139.0442  153.1681 H   0  0  0  0  0  0  0  0  0  0  0  0
  150.8174  139.7222  154.0106 H   0  0  0  0  0  0  0  0  0  0  0  0
  149.9417  141.1487  154.5141 H   0  0  0  0  0  0  0  0  0  0  0  0
  149.4893  139.6982  156.6580 H   0  0  0  0  0  0  0  0  0  0  0  0
  150.5639  139.1996  158.4295 H   0  0  0  0  0  0  0  0  0  0  0  0
  152.0974  138.4268  158.2037 H   0  0  0  0  0  0  0  0  0  0  0  0
  151.0050  141.8510  157.8929 H   0  0  0  0  0  0  0  0  0  0  0  0
  153.8106  143.3519  160.7832 H   0  0  0  0  0  0  0  0  0  0  0  0
  154.5967  141.1160  161.1559 H   0  0  0  0  0  0  0  0  0  0  0  0
  146.9300  140.0801  153.4625 H   0  0  0  0  0  0  0  0  0  0  0  0
  1  2  1  0  0  0  0
  1 25  1  0  0  0  0
  1 26  1  0  0  0  0
  1 27  1  0  0  0  0
  2  7  1  0  0  0  0
  2  3  1  0  0  0  0
  2 28  1  0  0  0  0
  3  4  1  0  0  0  0
  3 29  1  0  0  0  0
  3 30  1  0  0  0  0
  4  5  1  0  0  0  0
  4 31  1  0  0  0  0
  4 32  1  0  0  0  0
  5  6  1  0  0  0  0
  5 33  1  0  0  0  0
  5 34  1  0  0  0  0
  6  7  1  0  0  0  0
  6 35  1  0  0  0  0
  6 36  1  0  0  0  0
  7  8  1  0  0  0  0
  7 47  1  0  0  0  0
  8  9  1  0  0  0  0
  8 37  1  0  0  0  0
  8 38  1  0  0  0  0
  9 10  1  0  0  0  0
  9 39  1  0  0  0  0
  9 40  1  0  0  0  0
 10 11  1  0  0  0  0
 10 41  1  0  0  0  0
 11 12  2  0  0  0  0
 11 13  1  0  0  0  0
 13 14  1  0  0  0  0
 13 42  1  0  0  0  0
 13 43  1  0  0  0  0
 14 23  1  0  0  0  0
 14 15  1  0  0  0  0
 15 16  2  0  0  0  0
 15 44  1  0  0  0  0
 16 17  1  0  0  0  0
 16 21  1  0  0  0  0
 17 18  1  0  0  0  0
 17 19  1  0  0  0  0
 17 20  1  0  0  0  0
 21 22  2  0  0  0  0
 21 45  1  0  0  0  0
 22 23  1  0  0  0  0
 22 46  1  0  0  0  0
 23 24  2  0  0  0  0
M  CHG  1   7   1
M  END
> <s_m_source_file>
AV-unprocessed.smi

> <i_m_source_file_index>
1432

> <i_lp_mmshare_version>
43012

> <i_f3d_flags>
0

> <s_epik_input>
W0NIM11bQ0BASF0xW0NIMl1bQ0gyXVtDSDJdW0NIMl1OMVtDSDJdW0NIMl1bTkhdQyg9TylbQ0gyXW4yW2NIXWMoQyhGKShGKUYpW2NIXVtjSF1jMj1P

> <s_epik_cmdline>
J2VwaWtfcHl0aG9uJywgJy1waCcsICc3LjAnLCAnLXRuJywgJzgnLCAnLW1hJywgJzIwMCcsICctbWV0YWxfYmluZGluZycsICctaW1hZScsICc8aW5maWxlLm1hZT4nLCAnLW9tYWUnLCAnPG91dGZpbGUubWFlPic=

> <r_lp_tautomer_probability>
1

> <r_epik_Ionization_Penalty>
0.00237222

> <r_epik_Ionization_Penalty_Charging>
0.00237213

> <r_epik_Ionization_Penalty_Neutral>
8.2065e-08

> <r_epik_State_Penalty>
0.00163922

> <r_epik_Charging_Adjusted_Penalty>
0.00401135

> <i_epik_Tot_Q>
1

> <i_epik_Tot_abs_Q>
1

> <r_epik_Metal_State_Penalty>
-0

> <b_epik_Metal_Only>
0

> <s_lp_Force_Field>
OPLS_2005

> <r_lp_Energy>
30.8691

> <b_lp_Chiralities_Consistent>
1

> <s_lp_Variant>
AV-unprocessed.smi:1432-2

> <Gold.Version>
5.8.1

> <Gold.Id.Protein>
6NUR|6NUR_protein|mol2

> <Gold.PLP.Fitness>
52.2255

> <Gold.PLP.PLP>
-51.3133

> <Gold.PLP.part.hbond>
-1.0000

> <Gold.PLP.part.metal>
0.0000

> <Gold.PLP.part.buried>
-6.6261

> <Gold.PLP.part.nonpolar>
-43.3351

> <Gold.PLP.part.repulsive>
0.0662

> <Gold.PLP.ligand.clash>
0.0000

> <Gold.PLP.ligand.torsion>
1.0863

> <Gold.PLP.Chemscore.Hbond>
1.0000

> <Gold.PLP.Chemscore.CHOScore>
0.0000

> <Gold.PLP.Chemscore.Metal>
0.0000

> <Gold.Chemscore.Hbonds>
donor molecule, donor type, donor heavy atom, donor atom, acceptor molecule, acceptor atom, score
      P1  H  7997  8010       L1    12  1.00

> <Gold.PLP.Chemscore.Internal.Correction>
0.0849

> <Gold.Rescore>
     Score         DG    S(hbond)    S(metal)    S(lipo)     H(rot)  DE(clash)    DE(int)     intcor
     13.19     -14.16       1.00        0.00      91.13       2.08       0.00       0.97       ----

> <Gold.Chemscore.Fitness>
13.1902

> <Gold.Chemscore.DG>
-14.1646

> <Gold.Chemscore.ZeroCoef>
-5.4800

> <Gold.Chemscore.Hbond>
0.9992

> <Gold.Chemscore.Metal>
0.0000

> <Gold.Chemscore.Lipo>
91.1311

> <Gold.Chemscore.Internal_Hbond>
0.0000

> <Gold.Chemscore.DEClash>
0.0015

> <Gold.Chemscore.DEInternal>
0.9729

> <Gold.Chemscore.Rot>
2.0762

> <Gold.Chemscore.Internal.Correction>
   9.000000E+99

> <Gold.Chemscore.Hbonds>
donor molecule, donor type, donor heavy atom, donor atom, acceptor molecule, acceptor atom, score
      P1  H  7997  8010       L1    12  1.00

> <Gold.Chemscore.Hbond.Weighted>
-3.3372

> <Gold.Chemscore.Metal.Weighted>
-0.0000

> <Gold.Chemscore.Lipo.Weighted>
-10.6623

> <Gold.Chemscore.Internal_Hbond.Weighted>
0.0000

> <Gold.Chemscore.DEClash.Weighted>
0.0015

> <Gold.Chemscore.DEInternal.Weighted>
0.9729

> <Gold.Chemscore.Rot.Weighted>
5.3150

> <Gold.Chemscore.Internal.Correction.Weighted>
   9.000000E+99

> <Gold.Protein.RotatedTorsions>
[ 6907 6896 6895 6894 ] final   13.67 input  -60.11 | X-H torsion
[ 7974 7965 7964 7962 ] final -135.79 input  175.53 | X-H torsion
[ 8008 7997 7996 7995 ] final   74.75 input   59.86 | X-H torsion
[ 10167 10162 10161 10158 ] final   76.40 input  -65.29 | X-H torsion
[ 10718 10713 10712 10709 ] final   54.08 input   66.30 | X-H torsion
[ 10763 10752 10751 10750 ] final  155.04 input  -60.55 | X-H torsion
[ 11005 11000 10999 10996 ] final   17.42 input  -57.11 | X-H torsion

> <Gold.Protein.ActiveResidues>
 VAL166  LYS551  ARG553  GLY616  TRP617  ASP618  TYR619  PRO620  LYS621  CYS622 
 ASP623  PHE694  ASN695  SER759  ASP760  ASP761  ALA762  ILE779  LEU786  VAL792 
 PHE793  MET794  SER795  GLU796  ALA797  LYS798  CYS799  TRP800  GLU811  SER814 

> <Gold.Protein.RotatedAtoms>
  151.7900  135.0738  160.0385 H   0  0  0  0  0  0  0  0  0  0  0  0  # atno 6907 bound_to 6896
  152.3163  133.5802  159.5723 H   0  0  0  0  0  0  0  0  0  0  0  0  # atno 6908 bound_to 6896
  150.7346  133.9993  159.3675 H   0  0  0  0  0  0  0  0  0  0  0  0  # atno 6909 bound_to 6896
  144.8983  140.6737  143.5101 H   0  0  0  0  0  0  0  0  0  0  0  0  # atno 7974 bound_to 7965
  155.8029  140.3476  155.5413 H   0  0  0  0  0  0  0  0  0  0  0  0  # atno 8008 bound_to 7997
  155.8520  140.0957  157.1689 H   0  0  0  0  0  0  0  0  0  0  0  0  # atno 8009 bound_to 7997
  154.4008  140.1375  156.3843 H   0  0  0  0  0  0  0  0  0  0  0  0  # atno 8010 bound_to 7997
  139.9927  144.5745  150.7804 H   0  0  0  0  0  0  0  0  0  0  0  0  # atno 10167 bound_to 10162
  157.5225  130.8574  149.8577 H   0  0  0  0  0  0  0  0  0  0  0  0  # atno 10718 bound_to 10713
  154.1620  135.2809  155.3106 H   0  0  0  0  0  0  0  0  0  0  0  0  # atno 10763 bound_to 10752
  154.6139  135.5489  153.7506 H   0  0  0  0  0  0  0  0  0  0  0  0  # atno 10764 bound_to 10752
  153.0189  135.6422  154.1762 H   0  0  0  0  0  0  0  0  0  0  0  0  # atno 10765 bound_to 10752
  140.4362  134.1369  155.7685 H   0  0  0  0  0  0  0  0  0  0  0  0  # atno 11005 bound_to 11000
  145.3660  139.1670  143.4357 LP  0  0  0  0  0  0  0  0  0  0  0  0  # atno 17320 bound_to 7965
  146.3094  140.3728  142.8676 LP  0  0  0  0  0  0  0  0  0  0  0  0  # atno 17321 bound_to 7965
  140.7449  143.2867  151.3444 LP  0  0  0  0  0  0  0  0  0  0  0  0  # atno 17342 bound_to 10162
  139.6328  144.0687  152.2491 LP  0  0  0  0  0  0  0  0  0  0  0  0  # atno 17343 bound_to 10162
  156.0363  130.3750  150.1551 LP  0  0  0  0  0  0  0  0  0  0  0  0  # atno 17370 bound_to 10713
  156.9739  130.9843  151.3453 LP  0  0  0  0  0  0  0  0  0  0  0  0  # atno 17371 bound_to 10713
  141.1725  133.8580  157.1526 LP  0  0  0  0  0  0  0  0  0  0  0  0  # atno 17394 bound_to 11000
  140.0101  134.9992  157.0376 LP  0  0  0  0  0  0  0  0  0  0  0  0  # atno 17395 bound_to 11000

$$$$
