AV-unprocessed.smi:2243|AV-procd|sdf|9065|dock2
  -GOLD-   2272012273D 1   1.00000     0.00000
 Structure written by MMmdl.
 35 36  0  0  0  0  0  0  0  0  2 V2000
  147.6228  139.1060  157.0565 C   0  0  0  0  0  0  0  0  0  0  0  0
  148.5993  139.5868  155.9691 C   0  0  1  0  0  0  0  0  0  0  0  0
  148.9276  140.9865  156.2442 N   0  0  0  0  0  0  0  0  0  0  0  0
  149.7608  141.4271  157.2001 C   0  0  0  0  0  0  0  0  0  0  0  0
  150.3575  140.6902  157.9857 O   0  0  0  0  0  0  0  0  0  0  0  0
  149.8570  142.7654  157.1912 N   0  0  0  0  0  0  0  0  0  0  0  0
  150.6488  143.5409  158.0693 C   0  0  0  0  0  0  0  0  0  0  0  0
  150.4209  144.8251  158.3409 N   0  3  0  0  0  0  0  0  0  0  0  0
  151.3741  145.2643  159.2260 C   0  0  0  0  0  0  0  0  0  0  0  0
  152.1836  144.1810  159.4711 C   0  0  0  0  0  0  0  0  0  0  0  0
  151.7402  143.0899  158.7508 O   0  0  0  0  0  0  0  0  0  0  0  0
  149.8908  138.7302  155.8806 C   0  0  0  0  0  0  0  0  0  0  0  0
  150.7929  139.1362  154.6952 C   0  0  0  0  0  0  0  0  0  0  0  0
  152.0220  138.2196  154.5854 C   0  0  0  0  0  0  0  0  0  0  0  0
  151.6091  136.8651  154.4579 O   0  0  0  0  0  0  0  0  0  0  0  0
  150.8844  136.4051  155.5914 C   0  0  0  0  0  0  0  0  0  0  0  0
  149.5925  137.2216  155.7587 C   0  0  0  0  0  0  0  0  0  0  0  0
  147.2325  138.1123  156.8389 H   0  0  0  0  0  0  0  0  0  0  0  0
  146.7622  139.7719  157.1313 H   0  0  0  0  0  0  0  0  0  0  0  0
  148.1015  139.0718  158.0356 H   0  0  0  0  0  0  0  0  0  0  0  0
  148.0810  139.5107  155.0116 H   0  0  0  0  0  0  0  0  0  0  0  0
  148.4845  141.6718  155.6497 H   0  0  0  0  0  0  0  0  0  0  0  0
  149.6820  145.4145  157.9780 H   0  0  0  0  0  0  0  0  0  0  0  0
  151.3818  146.2831  159.5860 H   0  0  0  0  0  0  0  0  0  0  0  0
  153.0568  144.0259  160.0881 H   0  0  0  0  0  0  0  0  0  0  0  0
  150.4617  138.8839  156.7978 H   0  0  0  0  0  0  0  0  0  0  0  0
  150.2229  139.0889  153.7663 H   0  0  0  0  0  0  0  0  0  0  0  0
  151.1319  140.1667  154.7996 H   0  0  0  0  0  0  0  0  0  0  0  0
  152.6130  138.4898  153.7101 H   0  0  0  0  0  0  0  0  0  0  0  0
  152.6716  138.3337  155.4549 H   0  0  0  0  0  0  0  0  0  0  0  0
  150.6437  135.3514  155.4489 H   0  0  0  0  0  0  0  0  0  0  0  0
  151.5054  136.4709  156.4863 H   0  0  0  0  0  0  0  0  0  0  0  0
  149.0628  136.8584  156.6388 H   0  0  0  0  0  0  0  0  0  0  0  0
  148.9397  137.0416  154.9035 H   0  0  0  0  0  0  0  0  0  0  0  0
  149.3212  143.2700  156.5006 H   0  0  0  0  0  0  0  0  0  0  0  0
  1  2  1  0  0  0  0
  1 18  1  0  0  0  0
  1 19  1  0  0  0  0
  1 20  1  0  0  0  0
  2  3  1  0  0  0  0
  2 12  1  0  0  0  0
  2 21  1  0  0  0  0
  3 22  1  0  0  0  0
  3  4  1  0  0  0  0
  4  6  1  0  0  0  0
  4  5  2  0  0  0  0
  6  7  1  0  0  0  0
  6 35  1  0  0  0  0
  7 11  1  0  0  0  0
  7  8  2  0  0  0  0
  8 23  1  0  0  0  0
  8  9  1  0  0  0  0
  9 24  1  0  0  0  0
  9 10  2  0  0  0  0
 10 25  1  0  0  0  0
 10 11  1  0  0  0  0
 12 17  1  0  0  0  0
 12 13  1  0  0  0  0
 12 26  1  0  0  0  0
 13 14  1  0  0  0  0
 13 27  1  0  0  0  0
 13 28  1  0  0  0  0
 14 15  1  0  0  0  0
 14 29  1  0  0  0  0
 14 30  1  0  0  0  0
 15 16  1  0  0  0  0
 16 17  1  0  0  0  0
 16 31  1  0  0  0  0
 16 32  1  0  0  0  0
 17 33  1  0  0  0  0
 17 34  1  0  0  0  0
M  CHG  1   8   1
M  END
> <s_m_source_file>
AV-unprocessed.smi

> <i_m_source_file_index>
2243

> <i_lp_mmshare_version>
43012

> <i_f3d_flags>
0

> <s_epik_input>
W0NIMl0xW0NIMl1PW0NIMl1bQ0gyXVtDSF0xW0NASF0oW0NIM10pW05IXUMoPU8pW05IXWMybltjSF1bY0hdbzI=

> <s_epik_cmdline>
J2VwaWtfcHl0aG9uJywgJy1waCcsICc3LjAnLCAnLXRuJywgJzgnLCAnLW1hJywgJzIwMCcsICctbWV0YWxfYmluZGluZycsICctaW1hZScsICc8aW5maWxlLm1hZT4nLCAnLW9tYWUnLCAnPG91dGZpbGUubWFlPic=

> <r_epik_Ionization_Penalty>
6.61405

> <r_epik_Ionization_Penalty_Charging>
6.55981

> <r_epik_Ionization_Penalty_Neutral>
0.0542461

> <r_epik_State_Penalty>
1.79186

> <r_epik_Charging_Adjusted_Penalty>
8.35167

> <i_epik_Tot_Q>
1

> <i_epik_Tot_abs_Q>
1

> <r_epik_Metal_State_Penalty>
1.80655

> <b_epik_Metal_Only>
0

> <s_lp_Force_Field>
OPLS_2005

> <r_lp_Energy>
19.6033

> <b_lp_Chiralities_Consistent>
1

> <s_lp_Variant>
AV-unprocessed.smi:2243-4

> <Gold.Version>
5.8.1

> <Gold.Id.Protein>
6NUR|6NUR_protein|mol2

> <Gold.PLP.Fitness>
37.9792

> <Gold.PLP.PLP>
-26.5878

> <Gold.PLP.part.hbond>
-3.8245

> <Gold.PLP.part.metal>
0.0000

> <Gold.PLP.part.buried>
-5.3326

> <Gold.PLP.part.nonpolar>
-19.0368

> <Gold.PLP.part.repulsive>
0.6925

> <Gold.PLP.ligand.clash>
0.0000

> <Gold.PLP.ligand.torsion>
0.3124

> <Gold.PLP.Chemscore.Hbond>
4.0000

> <Gold.PLP.Chemscore.CHOScore>
0.0000

> <Gold.PLP.Chemscore.Metal>
0.0000

> <Gold.Chemscore.Hbonds>
donor molecule, donor type, donor heavy atom, donor atom, acceptor molecule, acceptor atom, score
      L1  H     6    35       P1  8028  1.00
      L1  H     8    23       P1  8029  1.90
      P1  H 10752 10764       L1    15  1.00

> <Gold.PLP.Chemscore.Internal.Correction>
0.0163

> <Gold.Rescore>
     Score         DG    S(hbond)    S(metal)    S(lipo)     H(rot)  DE(clash)    DE(int)     intcor
     13.94     -16.55       2.66        0.00      47.73       1.33       0.00       2.61       ----

> <Gold.Chemscore.Fitness>
13.9441

> <Gold.Chemscore.DG>
-16.5539

> <Gold.Chemscore.ZeroCoef>
-5.4800

> <Gold.Chemscore.Hbond>
2.6645

> <Gold.Chemscore.Metal>
0.0000

> <Gold.Chemscore.Lipo>
47.7331

> <Gold.Chemscore.Internal_Hbond>
0.0000

> <Gold.Chemscore.DEClash>
0.0000

> <Gold.Chemscore.DEInternal>
2.6098

> <Gold.Chemscore.Rot>
1.3321

> <Gold.Chemscore.Internal.Correction>
   9.000000E+99

> <Gold.Chemscore.Hbonds>
donor molecule, donor type, donor heavy atom, donor atom, acceptor molecule, acceptor atom, score
      L1  H     6    35       P1  8028  0.96
      L1  H     8    23       P1  8029  0.21
      P1  H 10752 10764       L1    15  0.56

> <Gold.Chemscore.Hbond.Weighted>
-8.8994

> <Gold.Chemscore.Metal.Weighted>
-0.0000

> <Gold.Chemscore.Lipo.Weighted>
-5.5848

> <Gold.Chemscore.Internal_Hbond.Weighted>
0.0000

> <Gold.Chemscore.DEClash.Weighted>
0.0000

> <Gold.Chemscore.DEInternal.Weighted>
2.6098

> <Gold.Chemscore.Rot.Weighted>
3.4103

> <Gold.Chemscore.Internal.Correction.Weighted>
   9.000000E+99

> <Gold.Protein.RotatedTorsions>
[ 6907 6896 6895 6894 ] final   31.07 input  -60.11 | X-H torsion
[ 7974 7965 7964 7962 ] final  109.08 input  175.53 | X-H torsion
[ 8008 7997 7996 7995 ] final  117.36 input   59.86 | X-H torsion
[ 10167 10162 10161 10158 ] final -171.27 input  -65.29 | X-H torsion
[ 10718 10713 10712 10709 ] final  131.57 input   66.30 | X-H torsion
[ 10763 10752 10751 10750 ] final  -88.07 input  -60.55 | X-H torsion
[ 11005 11000 10999 10996 ] final -148.99 input  -57.11 | X-H torsion

> <Gold.Protein.ActiveResidues>
 VAL166  LYS551  ARG553  GLY616  TRP617  ASP618  TYR619  PRO620  LYS621  CYS622 
 ASP623  PHE694  ASN695  SER759  ASP760  ASP761  ALA762  ILE779  LEU786  VAL792 
 PHE793  MET794  SER795  GLU796  ALA797  LYS798  CYS799  TRP800  GLU811  SER814 

> <Gold.Protein.RotatedAtoms>
  152.0551  134.9629  160.0574 H   0  0  0  0  0  0  0  0  0  0  0  0  # atno 6907 bound_to 6896
  152.1015  133.4247  159.4597 H   0  0  0  0  0  0  0  0  0  0  0  0  # atno 6908 bound_to 6896
  150.6839  134.2674  159.4617 H   0  0  0  0  0  0  0  0  0  0  0  0  # atno 6909 bound_to 6896
  145.2724  139.2662  143.3959 H   0  0  0  0  0  0  0  0  0  0  0  0  # atno 7974 bound_to 7965
  156.2490  140.2898  156.0666 H   0  0  0  0  0  0  0  0  0  0  0  0  # atno 8008 bound_to 7997
  155.1716  140.0402  157.2881 H   0  0  0  0  0  0  0  0  0  0  0  0  # atno 8009 bound_to 7997
  154.6321  140.2502  155.7428 H   0  0  0  0  0  0  0  0  0  0  0  0  # atno 8010 bound_to 7997
  139.5812  144.1419  152.1517 H   0  0  0  0  0  0  0  0  0  0  0  0  # atno 10167 bound_to 10162
  157.4955  131.1092  150.9499 H   0  0  0  0  0  0  0  0  0  0  0  0  # atno 10718 bound_to 10713
  154.6406  135.5390  153.7784 H   0  0  0  0  0  0  0  0  0  0  0  0  # atno 10763 bound_to 10752
  153.0331  135.6458  154.1166 H   0  0  0  0  0  0  0  0  0  0  0  0  # atno 10764 bound_to 10752
  154.1090  135.2928  155.3214 H   0  0  0  0  0  0  0  0  0  0  0  0  # atno 10765 bound_to 10752
  140.7554  134.3358  157.5115 H   0  0  0  0  0  0  0  0  0  0  0  0  # atno 11005 bound_to 11000
  146.3242  140.3170  142.8630 LP  0  0  0  0  0  0  0  0  0  0  0  0  # atno 17320 bound_to 7965
  144.9323  140.7989  143.5681 LP  0  0  0  0  0  0  0  0  0  0  0  0  # atno 17321 bound_to 7965
  140.0973  144.5570  150.7013 LP  0  0  0  0  0  0  0  0  0  0  0  0  # atno 17342 bound_to 10162
  140.7090  143.2490  151.4639 LP  0  0  0  0  0  0  0  0  0  0  0  0  # atno 17343 bound_to 10162
  157.0187  130.5665  149.5329 LP  0  0  0  0  0  0  0  0  0  0  0  0  # atno 17370 bound_to 10713
  156.0198  130.5293  150.8242 LP  0  0  0  0  0  0  0  0  0  0  0  0  # atno 17371 bound_to 10713
  139.8780  134.9169  156.3165 LP  0  0  0  0  0  0  0  0  0  0  0  0  # atno 17394 bound_to 11000
  140.9712  133.7326  156.0537 LP  0  0  0  0  0  0  0  0  0  0  0  0  # atno 17395 bound_to 11000

$$$$
