AV-unprocessed.smi:1532|AV-procd|sdf|6161|dock2
  -GOLD-   22720 6313D 1   1.00000     0.00000
 Structure written by MMmdl.
 38 40  0  0  0  0  0  0  0  0  1 V2000
  152.8740  138.5837  158.9507 O   0  0  0  0  0  0  0  0  0  0  0  0
  152.8140  139.7904  159.1889 C   0  0  0  0  0  0  0  0  0  0  0  0
  153.7043  140.4742  160.1395 C   0  0  0  0  0  0  0  0  0  0  0  0
  154.7331  139.6321  160.8897 C   0  0  0  0  0  0  0  0  0  0  0  0
  155.2420  140.2892  161.9329 F   0  0  0  0  0  0  0  0  0  0  0  0
  154.1801  138.5084  161.3477 F   0  0  0  0  0  0  0  0  0  0  0  0
  155.7420  139.3019  160.0830 F   0  0  0  0  0  0  0  0  0  0  0  0
  153.5890  141.8099  160.3390 C   0  0  0  0  0  0  0  0  0  0  0  0
  152.5936  142.5742  159.6149 C   0  0  0  0  0  0  0  0  0  0  0  0
  152.4251  144.0585  159.7701 C   0  0  0  0  0  0  0  0  0  0  0  0
  151.1904  144.6535  160.4063 C   0  0  0  0  0  0  0  0  0  0  0  0
  151.4488  144.8499  158.9304 C   0  0  0  0  0  0  0  0  0  0  0  0
  151.8058  141.9705  158.7908 N   0  0  0  0  0  0  0  0  0  0  0  0
  151.9058  140.6088  158.5805 N   0  0  0  0  0  0  0  0  0  0  0  0
  150.9466  140.0890  157.5977 C   0  0  0  0  0  0  0  0  0  0  0  0
  150.9530  140.9108  156.2901 C   0  0  1  0  0  0  0  0  0  0  0  0
  151.7051  140.2186  155.3131 O   0  0  0  0  0  0  0  0  0  0  0  0
  149.5346  141.1747  155.8080 C   0  0  0  0  0  0  0  0  0  0  0  0
  149.1672  140.9112  154.4697 C   0  0  0  0  0  0  0  0  0  0  0  0
  147.8487  141.1492  154.0354 C   0  0  0  0  0  0  0  0  0  0  0  0
  146.8890  141.6478  154.9368 C   0  0  0  0  0  0  0  0  0  0  0  0
  147.2481  141.9072  156.2732 C   0  0  0  0  0  0  0  0  0  0  0  0
  146.3247  142.3829  157.1418 F   0  0  0  0  0  0  0  0  0  0  0  0
  148.5669  141.6711  156.7075 C   0  0  0  0  0  0  0  0  0  0  0  0
  154.2296  142.3284  161.0366 H   0  0  0  0  0  0  0  0  0  0  0  0
  153.3781  144.5332  159.9958 H   0  0  0  0  0  0  0  0  0  0  0  0
  150.3846  143.9777  160.6873 H   0  0  0  0  0  0  0  0  0  0  0  0
  151.3278  145.5119  161.0605 H   0  0  0  0  0  0  0  0  0  0  0  0
  151.7581  145.8401  158.6020 H   0  0  0  0  0  0  0  0  0  0  0  0
  150.8062  144.3094  158.2377 H   0  0  0  0  0  0  0  0  0  0  0  0
  151.0837  139.0249  157.3959 H   0  0  0  0  0  0  0  0  0  0  0  0
  149.9560  140.1580  158.0522 H   0  0  0  0  0  0  0  0  0  0  0  0
  151.4402  141.8723  156.4587 H   0  0  0  0  0  0  0  0  0  0  0  0
  151.9754  139.3887  155.6755 H   0  0  0  0  0  0  0  0  0  0  0  0
  149.8957  140.5235  153.7726 H   0  0  0  0  0  0  0  0  0  0  0  0
  147.5733  140.9473  153.0109 H   0  0  0  0  0  0  0  0  0  0  0  0
  145.8777  141.8291  154.6039 H   0  0  0  0  0  0  0  0  0  0  0  0
  148.8315  141.8704  157.7354 H   0  0  0  0  0  0  0  0  0  0  0  0
  1  2  2  0  0  0  0
  2 14  1  0  0  0  0
  2  3  1  0  0  0  0
  3  4  1  0  0  0  0
  3  8  2  0  0  0  0
  4  5  1  0  0  0  0
  4  6  1  0  0  0  0
  4  7  1  0  0  0  0
  8  9  1  0  0  0  0
  8 25  1  0  0  0  0
  9 10  1  0  0  0  0
  9 13  2  0  0  0  0
 10 12  1  0  0  0  0
 10 11  1  0  0  0  0
 10 26  1  0  0  0  0
 11 12  1  0  0  0  0
 11 27  1  0  0  0  0
 11 28  1  0  0  0  0
 12 29  1  0  0  0  0
 12 30  1  0  0  0  0
 13 14  1  0  0  0  0
 14 15  1  0  0  0  0
 15 16  1  0  0  0  0
 15 31  1  0  0  0  0
 15 32  1  0  0  0  0
 16 17  1  0  0  0  0
 16 18  1  0  0  0  0
 16 33  1  0  0  0  0
 17 34  1  0  0  0  0
 18 24  1  0  0  0  0
 18 19  2  0  0  0  0
 19 20  1  0  0  0  0
 19 35  1  0  0  0  0
 20 21  2  0  0  0  0
 20 36  1  0  0  0  0
 21 22  1  0  0  0  0
 21 37  1  0  0  0  0
 22 23  1  0  0  0  0
 22 24  2  0  0  0  0
 24 38  1  0  0  0  0
M  END
> <s_m_source_file>
AV-unprocessed.smi

> <i_m_source_file_index>
1532

> <i_lp_mmshare_version>
43012

> <i_f3d_flags>
0

> <s_epik_input>
Tz1jMWMoQyhGKShGKUYpW2NIXWMoW0NIXTJbQ0gyXVtDSDJdMilubjFbQ0gyXVtDQEhdKFtPSF0pYzNbY0hdW2NIXVtjSF1jKEYpW2NIXTM=

> <s_epik_cmdline>
J2VwaWtfcHl0aG9uJywgJy1waCcsICc3LjAnLCAnLXRuJywgJzgnLCAnLW1hJywgJzIwMCcsICctbWV0YWxfYmluZGluZycsICctaW1hZScsICc8aW5maWxlLm1hZT4nLCAnLW9tYWUnLCAnPG91dGZpbGUubWFlPic=

> <r_lp_tautomer_probability>
1

> <r_epik_Ionization_Penalty>
1.69012e-07

> <r_epik_Ionization_Penalty_Charging>
9.677e-10

> <r_epik_Ionization_Penalty_Neutral>
1.68044e-07

> <r_epik_State_Penalty>
-0

> <r_epik_Charging_Adjusted_Penalty>
9.677e-10

> <i_epik_Tot_Q>
0

> <i_epik_Tot_abs_Q>
0

> <r_epik_Metal_State_Penalty>
-0

> <b_epik_Metal_Only>
0

> <s_lp_Force_Field>
OPLS_2005

> <r_lp_Energy>
33.2113

> <b_lp_Chiralities_Consistent>
1

> <s_lp_Variant>
AV-unprocessed.smi:1532-2

> <Gold.Version>
5.8.1

> <Gold.Id.Protein>
6NUR|6NUR_protein|mol2

> <Gold.PLP.Fitness>
51.4426

> <Gold.PLP.PLP>
-51.1122

> <Gold.PLP.part.hbond>
-1.0000

> <Gold.PLP.part.metal>
0.0000

> <Gold.PLP.part.buried>
-5.1600

> <Gold.PLP.part.nonpolar>
-45.7747

> <Gold.PLP.part.repulsive>
0.0000

> <Gold.PLP.ligand.clash>
0.0000

> <Gold.PLP.ligand.torsion>
1.5026

> <Gold.PLP.Chemscore.Hbond>
0.8800

> <Gold.PLP.Chemscore.CHOScore>
0.0000

> <Gold.PLP.Chemscore.Metal>
0.0000

> <Gold.Chemscore.Hbonds>
donor molecule, donor type, donor heavy atom, donor atom, acceptor molecule, acceptor atom, score
      P1  H  7989  7998       L1    17  0.88

> <Gold.PLP.Chemscore.Internal.Correction>
0.6957

> <Gold.Rescore>
     Score         DG    S(hbond)    S(metal)    S(lipo)     H(rot)  DE(clash)    DE(int)     intcor
     13.59     -16.23       0.78        0.00     117.63       2.20       0.01       2.64       ----

> <Gold.Chemscore.Fitness>
13.5868

> <Gold.Chemscore.DG>
-16.2310

> <Gold.Chemscore.ZeroCoef>
-5.4800

> <Gold.Chemscore.Hbond>
0.7847

> <Gold.Chemscore.Metal>
0.0000

> <Gold.Chemscore.Lipo>
117.6326

> <Gold.Chemscore.Internal_Hbond>
0.0000

> <Gold.Chemscore.DEClash>
0.0074

> <Gold.Chemscore.DEInternal>
2.6368

> <Gold.Chemscore.Rot>
2.2003

> <Gold.Chemscore.Internal.Correction>
   9.000000E+99

> <Gold.Chemscore.Hbonds>
donor molecule, donor type, donor heavy atom, donor atom, acceptor molecule, acceptor atom, score
      P1  H  7989  7998       L1    17  0.83

> <Gold.Chemscore.Hbond.Weighted>
-2.6208

> <Gold.Chemscore.Metal.Weighted>
-0.0000

> <Gold.Chemscore.Lipo.Weighted>
-13.7630

> <Gold.Chemscore.Internal_Hbond.Weighted>
0.0000

> <Gold.Chemscore.DEClash.Weighted>
0.0074

> <Gold.Chemscore.DEInternal.Weighted>
2.6368

> <Gold.Chemscore.Rot.Weighted>
5.6328

> <Gold.Chemscore.Internal.Correction.Weighted>
   9.000000E+99

> <Gold.Protein.RotatedTorsions>
[ 6907 6896 6895 6894 ] final   47.33 input  -60.11 | X-H torsion
[ 7974 7965 7964 7962 ] final -177.70 input  175.53 | X-H torsion
[ 8008 7997 7996 7995 ] final  -31.27 input   59.86 | X-H torsion
[ 10167 10162 10161 10158 ] final  129.60 input  -65.29 | X-H torsion
[ 10718 10713 10712 10709 ] final  127.44 input   66.30 | X-H torsion
[ 10763 10752 10751 10750 ] final   20.25 input  -60.55 | X-H torsion
[ 11005 11000 10999 10996 ] final -111.12 input  -57.11 | X-H torsion

> <Gold.Protein.ActiveResidues>
 VAL166  LYS551  ARG553  GLY616  TRP617  ASP618  TYR619  PRO620  LYS621  CYS622 
 ASP623  PHE694  ASN695  SER759  ASP760  ASP761  ALA762  ILE779  LEU786  VAL792 
 PHE793  MET794  SER795  GLU796  ALA797  LYS798  CYS799  TRP800  GLU811  SER814 

> <Gold.Protein.RotatedAtoms>
  152.2668  134.7975  160.0420 H   0  0  0  0  0  0  0  0  0  0  0  0  # atno 6907 bound_to 6896
  151.8602  133.3450  159.3709 H   0  0  0  0  0  0  0  0  0  0  0  0  # atno 6908 bound_to 6896
  150.7137  134.5142  159.5666 H   0  0  0  0  0  0  0  0  0  0  0  0  # atno 6909 bound_to 6896
  144.7128  140.0979  143.6418 H   0  0  0  0  0  0  0  0  0  0  0  0  # atno 7974 bound_to 7965
  154.4220  140.1769  156.1540 H   0  0  0  0  0  0  0  0  0  0  0  0  # atno 8008 bound_to 7997
  155.9892  140.3370  155.6712 H   0  0  0  0  0  0  0  0  0  0  0  0  # atno 8009 bound_to 7997
  155.6396  140.0678  157.2613 H   0  0  0  0  0  0  0  0  0  0  0  0  # atno 8010 bound_to 7997
  139.5470  144.6782  151.4442 H   0  0  0  0  0  0  0  0  0  0  0  0  # atno 10167 bound_to 10162
  157.5333  131.1098  150.8975 H   0  0  0  0  0  0  0  0  0  0  0  0  # atno 10718 bound_to 10713
  153.1093  135.6692  153.9529 H   0  0  0  0  0  0  0  0  0  0  0  0  # atno 10763 bound_to 10752
  153.9077  135.3028  155.3450 H   0  0  0  0  0  0  0  0  0  0  0  0  # atno 10764 bound_to 10752
  154.7513  135.5033  153.9371 H   0  0  0  0  0  0  0  0  0  0  0  0  # atno 10765 bound_to 10752
  141.0752  133.9313  157.2404 H   0  0  0  0  0  0  0  0  0  0  0  0  # atno 11005 bound_to 11000
  145.9563  139.2769  143.1182 LP  0  0  0  0  0  0  0  0  0  0  0  0  # atno 17320 bound_to 7965
  145.9269  140.9076  143.0376 LP  0  0  0  0  0  0  0  0  0  0  0  0  # atno 17321 bound_to 7965
  140.6721  143.8270  150.7012 LP  0  0  0  0  0  0  0  0  0  0  0  0  # atno 17342 bound_to 10162
  140.1698  143.4204  152.2009 LP  0  0  0  0  0  0  0  0  0  0  0  0  # atno 17343 bound_to 10162
  156.9550  130.5434  149.5284 LP  0  0  0  0  0  0  0  0  0  0  0  0  # atno 17370 bound_to 10713
  156.0439  130.5518  150.8835 LP  0  0  0  0  0  0  0  0  0  0  0  0  # atno 17371 bound_to 10713
  139.9565  135.0164  156.9141 LP  0  0  0  0  0  0  0  0  0  0  0  0  # atno 17394 bound_to 11000
  140.5588  134.0555  155.7392 LP  0  0  0  0  0  0  0  0  0  0  0  0  # atno 17395 bound_to 11000

$$$$
