AV-unprocessed.smi:3272|AV-procd|sdf|12519|dock7
  -GOLD-   2272018433D 1   1.00000     0.00000
 Structure written by MMmdl.
 35 36  0  0  0  0  0  0  0  0  1 V2000
  144.8302  130.9657  151.1142 C   0  0  0  0  0  0  0  0  0  0  0  0
  144.6568  131.9463  149.9485 C   0  0  0  0  0  0  0  0  0  0  0  0
  144.8577  133.3196  150.3677 N   0  0  0  0  0  0  0  0  0  0  0  0
  145.9651  133.8708  150.9809 C   0  0  0  0  0  0  0  0  0  0  0  0
  145.6658  135.1909  151.1661 C   0  0  0  0  0  0  0  0  0  0  0  0
  146.4499  136.2175  151.7506 N   0  0  0  0  0  0  0  0  0  0  0  0
  146.0304  137.1981  152.5669 C   0  0  0  0  0  0  0  0  0  0  0  0
  144.8699  137.3524  152.9482 O   0  0  0  0  0  0  0  0  0  0  0  0
  147.0408  138.0070  152.9167 N   0  0  0  0  0  0  0  0  0  0  0  0
  146.9242  139.1834  153.7734 C   0  0  0  0  0  0  0  0  0  0  0  0
  148.2182  140.0190  153.7776 C   0  0  1  0  0  0  0  0  0  0  0  0
  148.2060  141.2286  154.6931 C   0  0  0  0  0  0  0  0  0  0  0  0
  149.6946  141.5257  154.8464 C   0  0  0  0  0  0  0  0  0  0  0  0
  150.3580  140.2702  154.7298 O   0  0  0  0  0  0  0  0  0  0  0  0
  149.4366  139.2672  154.3122 C   0  0  0  0  0  0  0  0  0  0  0  0
  144.3603  135.3695  150.6391 C   0  0  0  0  0  0  0  0  0  0  0  0
  143.8780  134.2336  150.1587 N   0  0  0  0  0  0  0  0  0  0  0  0
  144.6644  129.9399  150.7854 H   0  0  0  0  0  0  0  0  0  0  0  0
  144.1212  131.1777  151.9152 H   0  0  0  0  0  0  0  0  0  0  0  0
  145.8358  131.0220  151.5323 H   0  0  0  0  0  0  0  0  0  0  0  0
  145.3616  131.7153  149.1487 H   0  0  0  0  0  0  0  0  0  0  0  0
  143.6559  131.8542  149.5253 H   0  0  0  0  0  0  0  0  0  0  0  0
  146.8401  133.2845  151.2194 H   0  0  0  0  0  0  0  0  0  0  0  0
  147.4310  136.2107  151.5128 H   0  0  0  0  0  0  0  0  0  0  0  0
  147.9604  137.7999  152.5553 H   0  0  0  0  0  0  0  0  0  0  0  0
  146.0700  139.7963  153.4799 H   0  0  0  0  0  0  0  0  0  0  0  0
  146.7139  138.8361  154.7852 H   0  0  0  0  0  0  0  0  0  0  0  0
  148.4368  140.3529  152.7618 H   0  0  0  0  0  0  0  0  0  0  0  0
  147.6471  142.0719  154.2865 H   0  0  0  0  0  0  0  0  0  0  0  0
  147.7755  140.9686  155.6612 H   0  0  0  0  0  0  0  0  0  0  0  0
  150.0380  142.1739  154.0393 H   0  0  0  0  0  0  0  0  0  0  0  0
  149.9253  142.0136  155.7937 H   0  0  0  0  0  0  0  0  0  0  0  0
  149.1685  138.6651  155.1816 H   0  0  0  0  0  0  0  0  0  0  0  0
  149.8797  138.6058  153.5674 H   0  0  0  0  0  0  0  0  0  0  0  0
  143.7587  136.2652  150.5903 H   0  0  0  0  0  0  0  0  0  0  0  0
  1  2  1  0  0  0  0
  1 18  1  0  0  0  0
  1 19  1  0  0  0  0
  1 20  1  0  0  0  0
  2  3  1  0  0  0  0
  2 21  1  0  0  0  0
  2 22  1  0  0  0  0
  3 17  1  0  0  0  0
  3  4  1  0  0  0  0
  4  5  2  0  0  0  0
  4 23  1  0  0  0  0
  5  6  1  0  0  0  0
  5 16  1  0  0  0  0
  6  7  1  0  0  0  0
  6 24  1  0  0  0  0
  7  8  2  0  0  0  0
  7  9  1  0  0  0  0
  9 10  1  0  0  0  0
  9 25  1  0  0  0  0
 10 11  1  0  0  0  0
 10 26  1  0  0  0  0
 10 27  1  0  0  0  0
 11 15  1  0  0  0  0
 11 12  1  0  0  0  0
 11 28  1  0  0  0  0
 12 13  1  0  0  0  0
 12 29  1  0  0  0  0
 12 30  1  0  0  0  0
 13 14  1  0  0  0  0
 13 31  1  0  0  0  0
 13 32  1  0  0  0  0
 14 15  1  0  0  0  0
 15 33  1  0  0  0  0
 15 34  1  0  0  0  0
 16 17  2  0  0  0  0
 16 35  1  0  0  0  0
M  END
> <s_m_source_file>
AV-unprocessed.smi

> <i_m_source_file_index>
3272

> <i_lp_mmshare_version>
43012

> <i_f3d_flags>
0

> <s_epik_input>
W0NIM11bQ0gyXW4xW2NIXWMoW2NIXW4xKVtOSF1DKD1PKVtOSF1bQ0gyXVtDQEBIXTJbQ0gyXVtDSDJdT1tDSDJdMg==

> <s_epik_cmdline>
J2VwaWtfcHl0aG9uJywgJy1waCcsICc3LjAnLCAnLXRuJywgJzgnLCAnLW1hJywgJzIwMCcsICctbWV0YWxfYmluZGluZycsICctaW1hZScsICc8aW5maWxlLm1hZT4nLCAnLW9tYWUnLCAnPG91dGZpbGUubWFlPic=

> <r_lp_tautomer_probability>
1

> <r_epik_Ionization_Penalty>
0.000182896

> <r_epik_Ionization_Penalty_Charging>
0

> <r_epik_Ionization_Penalty_Neutral>
0.000182896

> <r_epik_State_Penalty>
-0

> <r_epik_Charging_Adjusted_Penalty>
0

> <i_epik_Tot_Q>
0

> <i_epik_Tot_abs_Q>
0

> <r_epik_Metal_State_Penalty>
-0

> <b_epik_Metal_Only>
0

> <s_lp_Force_Field>
OPLS_2005

> <r_lp_Energy>
22.1585

> <b_lp_Chiralities_Consistent>
1

> <s_lp_Variant>
AV-unprocessed.smi:3272-2

> <Gold.Version>
5.8.1

> <Gold.Id.Protein>
6NUR|6NUR_protein|mol2

> <Gold.PLP.Fitness>
41.0268

> <Gold.PLP.PLP>
-30.7960

> <Gold.PLP.part.hbond>
-2.8648

> <Gold.PLP.part.metal>
0.0000

> <Gold.PLP.part.buried>
-2.4627

> <Gold.PLP.part.nonpolar>
-27.0123

> <Gold.PLP.part.repulsive>
1.4638

> <Gold.PLP.ligand.clash>
0.0000

> <Gold.PLP.ligand.torsion>
0.3685

> <Gold.PLP.Chemscore.Hbond>
2.6537

> <Gold.PLP.Chemscore.CHOScore>
1.0000

> <Gold.PLP.Chemscore.Metal>
0.0000

> <Gold.Chemscore.Hbonds>
donor molecule, donor type, donor heavy atom, donor atom, acceptor molecule, acceptor atom, score
      L1  H     6    24       P1  7948  0.98
      L1  H     9    25       P1  7948  0.78
      P1  H  7989  7998       L1    14  0.75
      L1  C    16    35       P1 10171  1.00

> <Gold.PLP.Chemscore.Internal.Correction>
0.0068

> <Gold.Rescore>
     Score         DG    S(hbond)    S(metal)    S(lipo)     H(rot)  DE(clash)    DE(int)     intcor
     15.83     -16.70       1.99        0.00      69.84       1.41       0.29       0.57       ----

> <Gold.Chemscore.Fitness>
15.8347

> <Gold.Chemscore.DG>
-16.6983

> <Gold.Chemscore.ZeroCoef>
-5.4800

> <Gold.Chemscore.Hbond>
1.9904

> <Gold.Chemscore.Metal>
0.0000

> <Gold.Chemscore.Lipo>
69.8359

> <Gold.Chemscore.Internal_Hbond>
0.0000

> <Gold.Chemscore.DEClash>
0.2898

> <Gold.Chemscore.DEInternal>
0.5739

> <Gold.Chemscore.Rot>
1.4064

> <Gold.Chemscore.Internal.Correction>
   9.000000E+99

> <Gold.Chemscore.Hbonds>
donor molecule, donor type, donor heavy atom, donor atom, acceptor molecule, acceptor atom, score
      L1  H     6    24       P1  7948  0.91
      L1  H     9    25       P1  7948  0.76
      P1  H  7989  7998       L1    14  0.09

> <Gold.Chemscore.Hbond.Weighted>
-6.6479

> <Gold.Chemscore.Metal.Weighted>
-0.0000

> <Gold.Chemscore.Lipo.Weighted>
-8.1708

> <Gold.Chemscore.Internal_Hbond.Weighted>
0.0000

> <Gold.Chemscore.DEClash.Weighted>
0.2898

> <Gold.Chemscore.DEInternal.Weighted>
0.5739

> <Gold.Chemscore.Rot.Weighted>
3.6004

> <Gold.Chemscore.Internal.Correction.Weighted>
   9.000000E+99

> <Gold.Protein.RotatedTorsions>
[ 6907 6896 6895 6894 ] final  -58.24 input  -60.11 | X-H torsion
[ 7974 7965 7964 7962 ] final    7.21 input  175.53 | X-H torsion
[ 8008 7997 7996 7995 ] final  173.36 input   59.86 | X-H torsion
[ 10167 10162 10161 10158 ] final   57.64 input  -65.29 | X-H torsion
[ 10718 10713 10712 10709 ] final   44.20 input   66.30 | X-H torsion
[ 10763 10752 10751 10750 ] final  -56.63 input  -60.55 | X-H torsion
[ 11005 11000 10999 10996 ] final -110.77 input  -57.11 | X-H torsion

> <Gold.Protein.ActiveResidues>
 VAL166  LYS551  ARG553  GLY616  TRP617  ASP618  TYR619  PRO620  LYS621  CYS622 
 ASP623  PHE694  ASN695  SER759  ASP760  ASP761  ALA762  ILE779  LEU786  VAL792 
 PHE793  MET794  SER795  GLU796  ALA797  LYS798  CYS799  TRP800  GLU811  SER814 

> <Gold.Protein.RotatedAtoms>
  150.8022  134.7124  159.6610 H   0  0  0  0  0  0  0  0  0  0  0  0  # atno 6907 bound_to 6896
  152.4140  134.6071  160.0025 H   0  0  0  0  0  0  0  0  0  0  0  0  # atno 6908 bound_to 6896
  151.6306  133.3295  159.3144 H   0  0  0  0  0  0  0  0  0  0  0  0  # atno 6909 bound_to 6896
  146.2428  140.0118  142.8406 H   0  0  0  0  0  0  0  0  0  0  0  0  # atno 7974 bound_to 7965
  156.1083  140.1462  156.9374 H   0  0  0  0  0  0  0  0  0  0  0  0  # atno 8008 bound_to 7997
  154.4749  140.0898  156.7281 H   0  0  0  0  0  0  0  0  0  0  0  0  # atno 8009 bound_to 7997
  155.4641  140.3439  155.4319 H   0  0  0  0  0  0  0  0  0  0  0  0  # atno 8010 bound_to 7997
  140.1958  144.4039  150.6550 H   0  0  0  0  0  0  0  0  0  0  0  0  # atno 10167 bound_to 10162
  157.4242  130.7987  149.7543 H   0  0  0  0  0  0  0  0  0  0  0  0  # atno 10718 bound_to 10713
  154.2097  135.6397  153.5111 H   0  0  0  0  0  0  0  0  0  0  0  0  # atno 10763 bound_to 10752
  152.9993  135.5471  154.6228 H   0  0  0  0  0  0  0  0  0  0  0  0  # atno 10764 bound_to 10752
  154.5662  135.2913  155.0845 H   0  0  0  0  0  0  0  0  0  0  0  0  # atno 10765 bound_to 10752
  141.0772  133.9280  157.2364 H   0  0  0  0  0  0  0  0  0  0  0  0  # atno 11005 bound_to 11000
  145.1321  140.9524  143.4538 LP  0  0  0  0  0  0  0  0  0  0  0  0  # atno 17320 bound_to 7965
  145.0377  139.3286  143.5992 LP  0  0  0  0  0  0  0  0  0  0  0  0  # atno 17321 bound_to 7965
  140.6424  143.2206  151.6260 LP  0  0  0  0  0  0  0  0  0  0  0  0  # atno 17342 bound_to 10162
  139.5237  144.3125  152.0980 LP  0  0  0  0  0  0  0  0  0  0  0  0  # atno 17343 bound_to 10162
  155.9891  130.3954  150.3089 LP  0  0  0  0  0  0  0  0  0  0  0  0  # atno 17370 bound_to 10713
  157.1240  131.0254  151.2997 LP  0  0  0  0  0  0  0  0  0  0  0  0  # atno 17371 bound_to 10713
  139.9585  135.0160  156.9195 LP  0  0  0  0  0  0  0  0  0  0  0  0  # atno 17394 bound_to 11000
  140.5546  134.0593  155.7380 LP  0  0  0  0  0  0  0  0  0  0  0  0  # atno 17395 bound_to 11000

$$$$
