AV-unprocessed.smi:3061|AV-procd|sdf|11680|dock5
  -GOLD-   2272017 83D 1   1.00000     0.00000
 Structure written by MMmdl.
 35 36  0  0  0  0  0  0  0  0  1 V2000
  145.8760  135.0389  152.4783 C   0  0  0  0  0  0  0  0  0  0  0  0
  146.5990  133.6927  152.3216 C   0  0  1  0  0  0  0  0  0  0  0  0
  146.6906  133.2661  150.8440 C   0  0  0  0  0  0  0  0  0  0  0  0
  145.4407  132.7130  150.3538 N   0  0  0  0  0  0  0  0  0  0  0  0
  145.1698  132.0454  149.2315 C   0  0  0  0  0  0  0  0  0  0  0  0
  143.8955  131.7014  149.1075 N   0  0  0  0  0  0  0  0  0  0  0  0
  143.4038  132.2249  150.2699 C   0  0  0  0  0  0  0  0  0  0  0  0
  144.2887  132.8408  151.0539 N   0  0  0  0  0  0  0  0  0  0  0  0
  147.9375  133.7791  152.9016 N   0  0  0  0  0  0  0  0  0  0  0  0
  148.5000  132.8648  153.7060 C   0  0  0  0  0  0  0  0  0  0  0  0
  147.9213  131.8440  154.0799 O   0  0  0  0  0  0  0  0  0  0  0  0
  149.9419  133.1472  154.1555 C   0  0  2  0  0  0  0  0  0  0  0  0
  150.3755  132.1966  155.2904 C   0  0  0  0  0  0  0  0  0  0  0  0
  150.5356  133.1095  156.4945 C   0  0  0  0  0  0  0  0  0  0  0  0
  150.7888  132.6896  157.6225 O   0  0  0  0  0  0  0  0  0  0  0  0
  150.3577  134.3884  156.1523 N   0  0  0  0  0  0  0  0  0  0  0  0
  150.4287  135.5295  157.0546 C   0  0  0  0  0  0  0  0  0  0  0  0
  150.1111  134.5700  154.7323 C   0  0  0  0  0  0  0  0  0  0  0  0
  144.8670  134.9911  152.0682 H   0  0  0  0  0  0  0  0  0  0  0  0
  146.4083  135.8381  151.9615 H   0  0  0  0  0  0  0  0  0  0  0  0
  145.7892  135.3203  153.5283 H   0  0  0  0  0  0  0  0  0  0  0  0
  146.0197  132.9348  152.8530 H   0  0  0  0  0  0  0  0  0  0  0  0
  146.9414  134.1256  150.2211 H   0  0  0  0  0  0  0  0  0  0  0  0
  147.4874  132.5342  150.7000 H   0  0  0  0  0  0  0  0  0  0  0  0
  145.9184  131.8107  148.4887 H   0  0  0  0  0  0  0  0  0  0  0  0
  142.3626  132.1494  150.5468 H   0  0  0  0  0  0  0  0  0  0  0  0
  148.4898  134.5848  152.6457 H   0  0  0  0  0  0  0  0  0  0  0  0
  150.6104  133.0234  153.3015 H   0  0  0  0  0  0  0  0  0  0  0  0
  149.6522  131.4077  155.5039 H   0  0  0  0  0  0  0  0  0  0  0  0
  151.3313  131.7233  155.0636 H   0  0  0  0  0  0  0  0  0  0  0  0
  149.6413  135.4696  157.8071 H   0  0  0  0  0  0  0  0  0  0  0  0
  150.3079  136.4675  156.5118 H   0  0  0  0  0  0  0  0  0  0  0  0
  151.3924  135.5563  157.5650 H   0  0  0  0  0  0  0  0  0  0  0  0
  150.9661  135.0727  154.2786 H   0  0  0  0  0  0  0  0  0  0  0  0
  149.2359  135.2028  154.5753 H   0  0  0  0  0  0  0  0  0  0  0  0
  1  2  1  0  0  0  0
  1 19  1  0  0  0  0
  1 20  1  0  0  0  0
  1 21  1  0  0  0  0
  2  3  1  0  0  0  0
  2  9  1  0  0  0  0
  2 22  1  0  0  0  0
  3  4  1  0  0  0  0
  3 23  1  0  0  0  0
  3 24  1  0  0  0  0
  4  8  1  0  0  0  0
  4  5  1  0  0  0  0
  5  6  2  0  0  0  0
  5 25  1  0  0  0  0
  6  7  1  0  0  0  0
  7  8  2  0  0  0  0
  7 26  1  0  0  0  0
  9 10  1  0  0  0  0
  9 27  1  0  0  0  0
 10 11  2  0  0  0  0
 10 12  1  0  0  0  0
 12 18  1  0  0  0  0
 12 13  1  0  0  0  0
 12 28  1  0  0  0  0
 13 14  1  0  0  0  0
 13 29  1  0  0  0  0
 13 30  1  0  0  0  0
 14 15  2  0  0  0  0
 14 16  1  0  0  0  0
 16 17  1  0  0  0  0
 16 18  1  0  0  0  0
 17 31  1  0  0  0  0
 17 32  1  0  0  0  0
 17 33  1  0  0  0  0
 18 34  1  0  0  0  0
 18 35  1  0  0  0  0
M  END
> <s_m_source_file>
AV-unprocessed.smi

> <i_m_source_file_index>
3061

> <i_lp_mmshare_version>
43012

> <i_f3d_flags>
0

> <s_epik_input>
bjFbY0hdbltjSF1uMVtDSDJdW0NAQEhdKFtDSDNdKVtOSF1DKD1PKVtDQEBIXTJbQ0gyXUMoPU8pTihbQ0gzXSlbQ0gyXTI=

> <s_epik_cmdline>
J2VwaWtfcHl0aG9uJywgJy1waCcsICc3LjAnLCAnLXRuJywgJzgnLCAnLW1hJywgJzIwMCcsICctbWV0YWxfYmluZGluZycsICctaW1hZScsICc8aW5maWxlLm1hZT4nLCAnLW9tYWUnLCAnPG91dGZpbGUubWFlPic=

> <r_lp_tautomer_probability>
1

> <r_epik_Ionization_Penalty>
4.97611e-05

> <r_epik_Ionization_Penalty_Charging>
0

> <r_epik_Ionization_Penalty_Neutral>
4.97611e-05

> <r_epik_State_Penalty>
-0

> <r_epik_Charging_Adjusted_Penalty>
0

> <i_epik_Tot_Q>
0

> <i_epik_Tot_abs_Q>
0

> <r_epik_Metal_State_Penalty>
-0

> <b_epik_Metal_Only>
0

> <s_lp_Force_Field>
OPLS_2005

> <r_lp_Energy>
12.6192

> <b_lp_Chiralities_Consistent>
1

> <s_lp_Variant>
AV-unprocessed.smi:3061-2

> <Gold.Version>
5.8.1

> <Gold.Id.Protein>
6NUR|6NUR_protein|mol2

> <Gold.PLP.Fitness>
41.1910

> <Gold.PLP.PLP>
-30.7621

> <Gold.PLP.part.hbond>
-3.0000

> <Gold.PLP.part.metal>
0.0000

> <Gold.PLP.part.buried>
-3.8819

> <Gold.PLP.part.nonpolar>
-24.5176

> <Gold.PLP.part.repulsive>
0.4375

> <Gold.PLP.ligand.clash>
0.0000

> <Gold.PLP.ligand.torsion>
0.7370

> <Gold.PLP.Chemscore.Hbond>
2.7200

> <Gold.PLP.Chemscore.CHOScore>
1.2406

> <Gold.PLP.Chemscore.Metal>
0.0000

> <Gold.Chemscore.Hbonds>
donor molecule, donor type, donor heavy atom, donor atom, acceptor molecule, acceptor atom, score
      L1  H     9    27       P1  7948  0.85
      P1  H  6896  6907       L1    15  1.00
      P1  H 10785 10796       L1     6  0.69
      L1  C     7    26       P1 10186  0.17
      L1  C     7    26       P1 10952  0.81

> <Gold.PLP.Chemscore.Internal.Correction>
0.0211

> <Gold.Rescore>
     Score         DG    S(hbond)    S(metal)    S(lipo)     H(rot)  DE(clash)    DE(int)     intcor
     11.64     -12.48       2.78        0.00      33.39       2.42       0.06       0.77       ----

> <Gold.Chemscore.Fitness>
11.6439

> <Gold.Chemscore.DG>
-12.4794

> <Gold.Chemscore.ZeroCoef>
-5.4800

> <Gold.Chemscore.Hbond>
2.7806

> <Gold.Chemscore.Metal>
0.0000

> <Gold.Chemscore.Lipo>
33.3897

> <Gold.Chemscore.Internal_Hbond>
0.0000

> <Gold.Chemscore.DEClash>
0.0641

> <Gold.Chemscore.DEInternal>
0.7714

> <Gold.Chemscore.Rot>
2.4197

> <Gold.Chemscore.Internal.Correction>
   9.000000E+99

> <Gold.Chemscore.Hbonds>
donor molecule, donor type, donor heavy atom, donor atom, acceptor molecule, acceptor atom, score
      L1  H     9    27       P1  7948  0.15
      P1  H  6896  6907       L1    15  1.00
      P1  H 10785 10796       L1     6  0.58

> <Gold.Chemscore.Hbond.Weighted>
-9.2873

> <Gold.Chemscore.Metal.Weighted>
-0.0000

> <Gold.Chemscore.Lipo.Weighted>
-3.9066

> <Gold.Chemscore.Internal_Hbond.Weighted>
0.0000

> <Gold.Chemscore.DEClash.Weighted>
0.0641

> <Gold.Chemscore.DEInternal.Weighted>
0.7714

> <Gold.Chemscore.Rot.Weighted>
6.1945

> <Gold.Chemscore.Internal.Correction.Weighted>
   9.000000E+99

> <Gold.Protein.RotatedTorsions>
[ 6907 6896 6895 6894 ] final -156.90 input  -60.11 | X-H torsion
[ 7974 7965 7964 7962 ] final -174.51 input  175.53 | X-H torsion
[ 8008 7997 7996 7995 ] final   96.39 input   59.86 | X-H torsion
[ 10167 10162 10161 10158 ] final  104.70 input  -65.29 | X-H torsion
[ 10718 10713 10712 10709 ] final  153.64 input   66.30 | X-H torsion
[ 10763 10752 10751 10750 ] final  -76.11 input  -60.55 | X-H torsion
[ 11005 11000 10999 10996 ] final -178.02 input  -57.11 | X-H torsion

> <Gold.Protein.ActiveResidues>
 VAL166  LYS551  ARG553  GLY616  TRP617  ASP618  TYR619  PRO620  LYS621  CYS622 
 ASP623  PHE694  ASN695  SER759  ASP760  ASP761  ALA762  ILE779  LEU786  VAL792 
 PHE793  MET794  SER795  GLU796  ALA797  LYS798  CYS799  TRP800  GLU811  SER814 

> <Gold.Protein.RotatedAtoms>
  151.2946  133.4149  159.2635 H   0  0  0  0  0  0  0  0  0  0  0  0  # atno 6907 bound_to 6896
  151.0247  134.9496  159.8089 H   0  0  0  0  0  0  0  0  0  0  0  0  # atno 6908 bound_to 6896
  152.5332  134.2909  159.9095 H   0  0  0  0  0  0  0  0  0  0  0  0  # atno 6909 bound_to 6896
  144.7131  140.1460  143.6388 H   0  0  0  0  0  0  0  0  0  0  0  0  # atno 7974 bound_to 7965
  156.0791  140.3273  155.7672 H   0  0  0  0  0  0  0  0  0  0  0  0  # atno 8008 bound_to 7997
  155.5181  140.0583  157.2929 H   0  0  0  0  0  0  0  0  0  0  0  0  # atno 8009 bound_to 7997
  154.4572  140.1948  156.0363 H   0  0  0  0  0  0  0  0  0  0  0  0  # atno 8010 bound_to 7997
  139.7155  144.7069  151.0957 H   0  0  0  0  0  0  0  0  0  0  0  0  # atno 10167 bound_to 10162
  157.2421  131.0761  151.1786 H   0  0  0  0  0  0  0  0  0  0  0  0  # atno 10718 bound_to 10713
  154.4955  135.5808  153.6492 H   0  0  0  0  0  0  0  0  0  0  0  0  # atno 10763 bound_to 10752
  152.9869  135.6123  154.3069 H   0  0  0  0  0  0  0  0  0  0  0  0  # atno 10764 bound_to 10752
  154.2972  135.2847  155.2607 H   0  0  0  0  0  0  0  0  0  0  0  0  # atno 10765 bound_to 10752
  140.4344  134.6489  157.4727 H   0  0  0  0  0  0  0  0  0  0  0  0  # atno 11005 bound_to 11000
  145.9159  139.2515  143.1410 LP  0  0  0  0  0  0  0  0  0  0  0  0  # atno 17320 bound_to 7965
  145.9669  140.8791  143.0182 LP  0  0  0  0  0  0  0  0  0  0  0  0  # atno 17321 bound_to 7965
  140.7742  143.5236  150.9507 LP  0  0  0  0  0  0  0  0  0  0  0  0  # atno 17342 bound_to 10162
  139.8922  143.6939  152.3143 LP  0  0  0  0  0  0  0  0  0  0  0  0  # atno 17343 bound_to 10162
  157.3368  130.7013  149.6357 LP  0  0  0  0  0  0  0  0  0  0  0  0  # atno 17370 bound_to 10713
  155.9669  130.4291  150.4819 LP  0  0  0  0  0  0  0  0  0  0  0  0  # atno 17371 bound_to 10713
  140.0112  134.6688  155.9378 LP  0  0  0  0  0  0  0  0  0  0  0  0  # atno 17394 bound_to 11000
  141.1732  133.6538  156.4729 LP  0  0  0  0  0  0  0  0  0  0  0  0  # atno 17395 bound_to 11000

$$$$
