AV-unprocessed.smi:3117|AV-procd|sdf|11883|dock4
  -GOLD-   2272017273D 1   1.00000     0.00000
 Structure written by MMmdl.
 36 36  0  0  0  0  0  0  0  0  1 V2000
  151.5924  140.5285  155.8630 C   0  0  0  0  0  0  0  0  0  0  0  0
  150.4150  141.4688  156.2087 C   0  0  1  0  0  0  0  0  0  0  0  0
  149.1312  140.8613  155.8368 N   0  0  0  0  0  0  0  0  0  0  0  0
  148.9128  140.6436  154.4050 C   0  0  0  0  0  0  0  0  0  0  0  0
  147.4290  140.8058  154.0078 C   0  0  0  0  0  0  0  0  0  0  0  0
  146.4863  139.8763  154.7967 C   0  0  0  0  0  0  0  0  0  0  0  0
  146.9992  142.2711  154.1881 C   0  0  0  0  0  0  0  0  0  0  0  0
  147.3047  140.5200  152.6279 O   0  0  0  0  0  0  0  0  0  0  0  0
  150.3784  141.8612  157.7115 C   0  0  2  0  0  0  0  0  0  0  0  0
  149.0276  142.4793  158.1230 C   0  0  0  0  0  0  0  0  0  0  0  0
  151.4692  142.7540  158.0854 N   0  0  0  0  0  0  0  0  0  0  0  0
  151.6947  144.0474  157.6614 C   0  0  0  0  0  0  0  0  0  0  0  0
  152.8313  144.4878  158.2765 C   0  0  0  0  0  0  0  0  0  0  0  0
  153.2368  143.3793  159.0705 C   0  0  0  0  0  0  0  0  0  0  0  0
  152.4207  142.3445  158.9558 N   0  0  0  0  0  0  0  0  0  0  0  0
  152.5550  140.9768  156.1075 H   0  0  0  0  0  0  0  0  0  0  0  0
  151.6346  140.2970  154.7996 H   0  0  0  0  0  0  0  0  0  0  0  0
  151.5186  139.5868  156.4076 H   0  0  0  0  0  0  0  0  0  0  0  0
  150.5496  142.3851  155.6321 H   0  0  0  0  0  0  0  0  0  0  0  0
  149.0089  139.9833  156.3313 H   0  0  0  0  0  0  0  0  0  0  0  0
  149.5146  141.3549  153.8382 H   0  0  0  0  0  0  0  0  0  0  0  0
  149.2497  139.6502  154.1098 H   0  0  0  0  0  0  0  0  0  0  0  0
  146.5751  140.0481  155.8699 H   0  0  0  0  0  0  0  0  0  0  0  0
  146.7022  138.8233  154.6125 H   0  0  0  0  0  0  0  0  0  0  0  0
  145.4441  140.0434  154.5218 H   0  0  0  0  0  0  0  0  0  0  0  0
  147.0623  142.5727  155.2343 H   0  0  0  0  0  0  0  0  0  0  0  0
  145.9703  142.4295  153.8629 H   0  0  0  0  0  0  0  0  0  0  0  0
  147.6341  142.9466  153.6130 H   0  0  0  0  0  0  0  0  0  0  0  0
  148.1654  140.5413  152.2386 H   0  0  0  0  0  0  0  0  0  0  0  0
  150.5131  140.9508  158.2984 H   0  0  0  0  0  0  0  0  0  0  0  0
  148.2064  141.7763  157.9822 H   0  0  0  0  0  0  0  0  0  0  0  0
  148.8007  143.3713  157.5380 H   0  0  0  0  0  0  0  0  0  0  0  0
  149.0321  142.7643  159.1755 H   0  0  0  0  0  0  0  0  0  0  0  0
  151.0340  144.5422  156.9648 H   0  0  0  0  0  0  0  0  0  0  0  0
  153.3014  145.4546  158.1750 H   0  0  0  0  0  0  0  0  0  0  0  0
  154.0937  143.2964  159.7223 H   0  0  0  0  0  0  0  0  0  0  0  0
  1  2  1  0  0  0  0
  1 16  1  0  0  0  0
  1 17  1  0  0  0  0
  1 18  1  0  0  0  0
  2  3  1  0  0  0  0
  2  9  1  0  0  0  0
  2 19  1  0  0  0  0
  3  4  1  0  0  0  0
  3 20  1  0  0  0  0
  4  5  1  0  0  0  0
  4 21  1  0  0  0  0
  4 22  1  0  0  0  0
  5  6  1  0  0  0  0
  5  7  1  0  0  0  0
  5  8  1  0  0  0  0
  6 23  1  0  0  0  0
  6 24  1  0  0  0  0
  6 25  1  0  0  0  0
  7 26  1  0  0  0  0
  7 27  1  0  0  0  0
  7 28  1  0  0  0  0
  8 29  1  0  0  0  0
  9 10  1  0  0  0  0
  9 11  1  0  0  0  0
  9 30  1  0  0  0  0
 10 31  1  0  0  0  0
 10 32  1  0  0  0  0
 10 33  1  0  0  0  0
 11 15  1  0  0  0  0
 11 12  1  0  0  0  0
 12 13  2  0  0  0  0
 12 34  1  0  0  0  0
 13 14  1  0  0  0  0
 13 35  1  0  0  0  0
 14 15  2  0  0  0  0
 14 36  1  0  0  0  0
M  END
> <s_m_source_file>
AV-unprocessed.smi

> <i_m_source_file_index>
3117

> <i_lp_mmshare_version>
43012

> <i_f3d_flags>
0

> <s_epik_input>
W0NIM11DKFtDSDNdKShbT0hdKVtDSDJdW05IXVtDQEBIXShbQ0gzXSlbQ0BIXShbQ0gzXSluMVtjSF1bY0hdW2NIXW4x

> <s_epik_cmdline>
J2VwaWtfcHl0aG9uJywgJy1waCcsICc3LjAnLCAnLXRuJywgJzgnLCAnLW1hJywgJzIwMCcsICctbWV0YWxfYmluZGluZycsICctaW1hZScsICc8aW5maWxlLm1hZT4nLCAnLW9tYWUnLCAnPG91dGZpbGUubWFlPic=

> <r_lp_tautomer_probability>
1

> <r_epik_Ionization_Penalty>
2.13419

> <r_epik_Ionization_Penalty_Charging>
0

> <r_epik_Ionization_Penalty_Neutral>
2.13419

> <r_epik_State_Penalty>
2.27148

> <r_epik_Charging_Adjusted_Penalty>
2.27148

> <i_epik_Tot_Q>
0

> <i_epik_Tot_abs_Q>
0

> <r_epik_Metal_State_Penalty>
2.27029

> <b_epik_Metal_Only>
0

> <s_lp_Force_Field>
OPLS_2005

> <r_lp_Energy>
18.8486

> <b_lp_Chiralities_Consistent>
1

> <s_lp_Variant>
AV-unprocessed.smi:3117-6

> <Gold.Version>
5.8.1

> <Gold.Id.Protein>
6NUR|6NUR_protein|mol2

> <Gold.PLP.Fitness>
40.4362

> <Gold.PLP.PLP>
-35.3102

> <Gold.PLP.part.hbond>
-1.0000

> <Gold.PLP.part.metal>
0.0000

> <Gold.PLP.part.buried>
-3.8687

> <Gold.PLP.part.nonpolar>
-30.5959

> <Gold.PLP.part.repulsive>
0.0000

> <Gold.PLP.ligand.clash>
0.0000

> <Gold.PLP.ligand.torsion>
0.5065

> <Gold.PLP.Chemscore.Hbond>
1.0000

> <Gold.PLP.Chemscore.CHOScore>
1.0000

> <Gold.PLP.Chemscore.Metal>
0.0000

> <Gold.Chemscore.Hbonds>
donor molecule, donor type, donor heavy atom, donor atom, acceptor molecule, acceptor atom, score
      L1  H     8    29       P1  7957  1.00
      L1  C    12    34       P1  8028  1.00

> <Gold.PLP.Chemscore.Internal.Correction>
0.1389

> <Gold.Rescore>
     Score         DG    S(hbond)    S(metal)    S(lipo)     H(rot)  DE(clash)    DE(int)     intcor
     13.11     -13.54       1.00        0.00      88.36       2.19       0.05       0.39       ----

> <Gold.Chemscore.Fitness>
13.1104

> <Gold.Chemscore.DG>
-13.5447

> <Gold.Chemscore.ZeroCoef>
-5.4800

> <Gold.Chemscore.Hbond>
0.9963

> <Gold.Chemscore.Metal>
0.0000

> <Gold.Chemscore.Lipo>
88.3649

> <Gold.Chemscore.Internal_Hbond>
0.0000

> <Gold.Chemscore.DEClash>
0.0456

> <Gold.Chemscore.DEInternal>
0.3887

> <Gold.Chemscore.Rot>
2.1882

> <Gold.Chemscore.Internal.Correction>
   9.000000E+99

> <Gold.Chemscore.Hbonds>
donor molecule, donor type, donor heavy atom, donor atom, acceptor molecule, acceptor atom, score
      L1  H     8    29       P1  7957  0.99

> <Gold.Chemscore.Hbond.Weighted>
-3.3278

> <Gold.Chemscore.Metal.Weighted>
-0.0000

> <Gold.Chemscore.Lipo.Weighted>
-10.3387

> <Gold.Chemscore.Internal_Hbond.Weighted>
0.0000

> <Gold.Chemscore.DEClash.Weighted>
0.0456

> <Gold.Chemscore.DEInternal.Weighted>
0.3887

> <Gold.Chemscore.Rot.Weighted>
5.6018

> <Gold.Chemscore.Internal.Correction.Weighted>
   9.000000E+99

> <Gold.Protein.RotatedTorsions>
[ 6907 6896 6895 6894 ] final  -45.70 input  -60.11 | X-H torsion
[ 7974 7965 7964 7962 ] final -119.25 input  175.53 | X-H torsion
[ 8008 7997 7996 7995 ] final  -24.93 input   59.86 | X-H torsion
[ 10167 10162 10161 10158 ] final -163.18 input  -65.29 | X-H torsion
[ 10718 10713 10712 10709 ] final  -57.35 input   66.30 | X-H torsion
[ 10763 10752 10751 10750 ] final -165.93 input  -60.55 | X-H torsion
[ 11005 11000 10999 10996 ] final   25.44 input  -57.11 | X-H torsion

> <Gold.Protein.ActiveResidues>
 VAL166  LYS551  ARG553  GLY616  TRP617  ASP618  TYR619  PRO620  LYS621  CYS622 
 ASP623  PHE694  ASN695  SER759  ASP760  ASP761  ALA762  ILE779  LEU786  VAL792 
 PHE793  MET794  SER795  GLU796  ALA797  LYS798  CYS799  TRP800  GLU811  SER814 

> <Gold.Protein.RotatedAtoms>
  150.9191  134.8608  159.7476 H   0  0  0  0  0  0  0  0  0  0  0  0  # atno 6907 bound_to 6896
  152.4983  134.4245  159.9501 H   0  0  0  0  0  0  0  0  0  0  0  0  # atno 6908 bound_to 6896
  151.4281  133.3639  159.2800 H   0  0  0  0  0  0  0  0  0  0  0  0  # atno 6909 bound_to 6896
  145.0646  140.8315  143.4132 H   0  0  0  0  0  0  0  0  0  0  0  0  # atno 7974 bound_to 7965
  154.4503  140.1940  156.0540 H   0  0  0  0  0  0  0  0  0  0  0  0  # atno 8008 bound_to 7997
  156.0632  140.3294  155.7460 H   0  0  0  0  0  0  0  0  0  0  0  0  # atno 8009 bound_to 7997
  155.5378  140.0583  157.2867 H   0  0  0  0  0  0  0  0  0  0  0  0  # atno 8010 bound_to 7997
  139.6339  144.0387  152.2038 H   0  0  0  0  0  0  0  0  0  0  0  0  # atno 10167 bound_to 10162
  156.1217  130.4165  150.0429 H   0  0  0  0  0  0  0  0  0  0  0  0  # atno 10718 bound_to 10713
  154.6884  135.2966  154.9515 H   0  0  0  0  0  0  0  0  0  0  0  0  # atno 10763 bound_to 10752
  154.0487  135.6647  153.4802 H   0  0  0  0  0  0  0  0  0  0  0  0  # atno 10764 bound_to 10752
  153.0594  135.5124  154.7963 H   0  0  0  0  0  0  0  0  0  0  0  0  # atno 10765 bound_to 10752
  140.3478  134.2262  155.7683 H   0  0  0  0  0  0  0  0  0  0  0  0  # atno 11005 bound_to 11000
  145.1366  139.2598  143.5511 LP  0  0  0  0  0  0  0  0  0  0  0  0  # atno 17320 bound_to 7965
  146.3526  140.1032  142.8607 LP  0  0  0  0  0  0  0  0  0  0  0  0  # atno 17321 bound_to 7965
  140.0060  144.6259  150.7689 LP  0  0  0  0  0  0  0  0  0  0  0  0  # atno 17342 bound_to 10162
  140.7454  143.2875  151.3421 LP  0  0  0  0  0  0  0  0  0  0  0  0  # atno 17343 bound_to 10162
  156.8365  130.9411  151.3634 LP  0  0  0  0  0  0  0  0  0  0  0  0  # atno 17370 bound_to 10713
  157.6400  130.8798  149.9431 LP  0  0  0  0  0  0  0  0  0  0  0  0  # atno 17371 bound_to 10713
  141.2020  133.7947  157.0410 LP  0  0  0  0  0  0  0  0  0  0  0  0  # atno 17394 bound_to 11000
  140.0727  134.9693  157.1495 LP  0  0  0  0  0  0  0  0  0  0  0  0  # atno 17395 bound_to 11000

$$$$
