AV-unprocessed.smi:1626|AV-procd|sdf|6512|dock8
  -GOLD-   22720 7183D 1   1.00000     0.00000
 Structure written by MMmdl.
 49 51  0  0  0  0  0  0  0  0  3 V2000
  152.9805  142.6580  159.6089 C   0  0  0  0  0  0  0  0  0  0  0  0
  152.2820  141.9209  158.4789 C   0  0  0  0  0  0  0  0  0  0  0  0
  151.3434  142.6266  157.6923 C   0  0  0  0  0  0  0  0  0  0  0  0
  150.7242  141.9266  156.6637 C   0  0  0  0  0  0  0  0  0  0  0  0
  149.7764  142.3314  155.7213 N   0  3  0  0  0  0  0  0  0  0  0  0
  149.4708  141.2850  154.9050 C   0  0  0  0  0  0  0  0  0  0  0  0
  150.2005  140.2138  155.3213 N   0  0  0  0  0  0  0  0  0  0  0  0
  150.2588  138.8451  154.7918 C   0  0  0  0  0  0  0  0  0  0  0  0
  148.9375  138.0662  154.9606 C   0  0  2  0  0  0  0  0  0  0  0  0
  149.1592  136.7580  154.4740 O   0  0  0  0  0  0  0  0  0  0  0  0
  147.7522  138.6981  154.1966 C   0  0  0  0  0  0  0  0  0  0  0  0
  147.0304  137.7213  153.3409 N   0  3  2  0  0  0  0  0  0  0  0  0
  146.2575  138.3863  152.2602 C   0  0  0  0  0  0  0  0  0  0  0  0
  145.6416  137.3551  151.2974 C   0  0  0  0  0  0  0  0  0  0  0  0
  144.7761  136.3216  152.0366 C   0  0  2  0  0  0  0  0  0  0  0  0
  143.5944  136.9319  152.5153 O   0  0  0  0  0  0  0  0  0  0  0  0
  145.5643  135.7020  153.2024 C   0  0  0  0  0  0  0  0  0  0  0  0
  146.1802  136.7778  154.1158 C   0  0  0  0  0  0  0  0  0  0  0  0
  151.0058  140.5706  156.4081 C   0  0  0  0  0  0  0  0  0  0  0  0
  151.9284  139.8605  157.1720 C   0  0  0  0  0  0  0  0  0  0  0  0
  152.5707  140.5556  158.2216 C   0  0  0  0  0  0  0  0  0  0  0  0
  153.5836  139.8080  159.0722 C   0  0  0  0  0  0  0  0  0  0  0  0
  152.6756  143.7043  159.6523 H   0  0  0  0  0  0  0  0  0  0  0  0
  154.0618  142.6333  159.4728 H   0  0  0  0  0  0  0  0  0  0  0  0
  152.7411  142.2011  160.5694 H   0  0  0  0  0  0  0  0  0  0  0  0
  151.1210  143.6669  157.8809 H   0  0  0  0  0  0  0  0  0  0  0  0
  148.7741  141.3024  154.0790 H   0  0  0  0  0  0  0  0  0  0  0  0
  150.5224  138.9178  153.7355 H   0  0  0  0  0  0  0  0  0  0  0  0
  151.0843  138.3264  155.2819 H   0  0  0  0  0  0  0  0  0  0  0  0
  148.7123  137.9913  156.0232 H   0  0  0  0  0  0  0  0  0  0  0  0
  149.1341  136.7699  153.5295 H   0  0  0  0  0  0  0  0  0  0  0  0
  147.0361  139.1488  154.8848 H   0  0  0  0  0  0  0  0  0  0  0  0
  148.1367  139.5162  153.5853 H   0  0  0  0  0  0  0  0  0  0  0  0
  145.4781  139.0108  152.6997 H   0  0  0  0  0  0  0  0  0  0  0  0
  146.9119  139.0504  151.6941 H   0  0  0  0  0  0  0  0  0  0  0  0
  145.0546  137.8610  150.5298 H   0  0  0  0  0  0  0  0  0  0  0  0
  146.4451  136.8368  150.7725 H   0  0  0  0  0  0  0  0  0  0  0  0
  144.4754  135.5371  151.3416 H   0  0  0  0  0  0  0  0  0  0  0  0
  143.2237  137.4587  151.8229 H   0  0  0  0  0  0  0  0  0  0  0  0
  144.9235  135.0370  153.7829 H   0  0  0  0  0  0  0  0  0  0  0  0
  146.3637  135.0779  152.8005 H   0  0  0  0  0  0  0  0  0  0  0  0
  146.7651  136.2848  154.8911 H   0  0  0  0  0  0  0  0  0  0  0  0
  145.3920  137.3328  154.6270 H   0  0  0  0  0  0  0  0  0  0  0  0
  152.1518  138.8226  156.9733 H   0  0  0  0  0  0  0  0  0  0  0  0
  153.6794  138.7685  158.7575 H   0  0  0  0  0  0  0  0  0  0  0  0
  153.2828  139.8125  160.1200 H   0  0  0  0  0  0  0  0  0  0  0  0
  154.5672  140.2715  158.9917 H   0  0  0  0  0  0  0  0  0  0  0  0
  147.7390  137.1715  152.8771 H   0  0  0  0  0  0  0  0  0  0  0  0
  149.3726  143.2557  155.6342 H   0  0  0  0  0  0  0  0  0  0  0  0
  1  2  1  0  0  0  0
  1 23  1  0  0  0  0
  1 24  1  0  0  0  0
  1 25  1  0  0  0  0
  2 21  1  0  0  0  0
  2  3  2  0  0  0  0
  3  4  1  0  0  0  0
  3 26  1  0  0  0  0
  4 19  2  0  0  0  0
  4  5  1  0  0  0  0
  5  6  2  0  0  0  0
  5 49  1  0  0  0  0
  6  7  1  0  0  0  0
  6 27  1  0  0  0  0
  7  8  1  0  0  0  0
  7 19  1  0  0  0  0
  8  9  1  0  0  0  0
  8 28  1  0  0  0  0
  8 29  1  0  0  0  0
  9 10  1  0  0  0  0
  9 11  1  0  0  0  0
  9 30  1  0  0  0  0
 10 31  1  0  0  0  0
 11 12  1  0  0  0  0
 11 32  1  0  0  0  0
 11 33  1  0  0  0  0
 12 18  1  0  0  0  0
 12 13  1  0  0  0  0
 12 48  1  0  0  0  0
 13 14  1  0  0  0  0
 13 34  1  0  0  0  0
 13 35  1  0  0  0  0
 14 15  1  0  0  0  0
 14 36  1  0  0  0  0
 14 37  1  0  0  0  0
 15 16  1  0  0  0  0
 15 17  1  0  0  0  0
 15 38  1  0  0  0  0
 16 39  1  0  0  0  0
 17 18  1  0  0  0  0
 17 40  1  0  0  0  0
 17 41  1  0  0  0  0
 18 42  1  0  0  0  0
 18 43  1  0  0  0  0
 19 20  1  0  0  0  0
 20 21  2  0  0  0  0
 20 44  1  0  0  0  0
 21 22  1  0  0  0  0
 22 45  1  0  0  0  0
 22 46  1  0  0  0  0
 22 47  1  0  0  0  0
M  CHG  1   5   1
M  CHG  1  12   1
M  END
> <s_m_source_file>
AV-unprocessed.smi

> <i_m_source_file_index>
1626

> <i_lp_mmshare_version>
43012

> <i_f3d_flags>
0

> <s_epik_input>
W0NIM11jKFtjSF0xKWMoW0NIM10pW2NIXWMoYzEyKW4oW2NIXW4yKVtDSDJdW0NASF0oW09IXSlbQ0gyXU4zW0NIMl1bQ0gyXVtDSF0oW09IXSlbQ0gyXVtDSDJdMw==

> <s_epik_cmdline>
J2VwaWtfcHl0aG9uJywgJy1waCcsICc3LjAnLCAnLXRuJywgJzgnLCAnLW1hJywgJzIwMCcsICctbWV0YWxfYmluZGluZycsICctaW1hZScsICc8aW5maWxlLm1hZT4nLCAnLW9tYWUnLCAnPG91dGZpbGUubWFlPic=

> <r_epik_Ionization_Penalty>
1.19369

> <r_epik_Ionization_Penalty_Charging>
1.19369

> <r_epik_Ionization_Penalty_Neutral>
1.68219e-06

> <r_epik_State_Penalty>
1.27429

> <r_epik_Charging_Adjusted_Penalty>
2.46798

> <i_epik_Tot_Q>
2

> <i_epik_Tot_abs_Q>
2

> <r_epik_Metal_State_Penalty>
5.29157

> <b_epik_Metal_Only>
0

> <s_lp_Force_Field>
OPLS_2005

> <r_lp_Energy>
35.0493

> <b_lp_Chiralities_Consistent>
1

> <s_lp_Variant>
AV-unprocessed.smi:1626-7

> <Gold.Version>
5.8.1

> <Gold.Id.Protein>
6NUR|6NUR_protein|mol2

> <Gold.PLP.Fitness>
56.9277

> <Gold.PLP.PLP>
-40.6955

> <Gold.PLP.part.hbond>
-3.8981

> <Gold.PLP.part.metal>
0.0000

> <Gold.PLP.part.buried>
0.1299

> <Gold.PLP.part.nonpolar>
-38.4890

> <Gold.PLP.part.repulsive>
0.2250

> <Gold.PLP.ligand.clash>
0.0000

> <Gold.PLP.ligand.torsion>
0.8948

> <Gold.PLP.Chemscore.Hbond>
6.0000

> <Gold.PLP.Chemscore.CHOScore>
0.0000

> <Gold.PLP.Chemscore.Metal>
0.0000

> <Gold.Chemscore.Hbonds>
donor molecule, donor type, donor heavy atom, donor atom, acceptor molecule, acceptor atom, score
      L1  H     5    49       P1  8028  2.00
      L1  H    10    31       P1  7948  1.00
      L1  H    12    48       P1  7948  2.00
      L1  H    16    39       P1 10171  0.11

> <Gold.PLP.Chemscore.Internal.Correction>
0.0218

> <Gold.Rescore>
     Score         DG    S(hbond)    S(metal)    S(lipo)     H(rot)  DE(clash)    DE(int)     intcor
     21.91     -24.32       3.83        0.00     111.52       2.74       1.49       0.92       ----

> <Gold.Chemscore.Fitness>
21.9071

> <Gold.Chemscore.DG>
-24.3184

> <Gold.Chemscore.ZeroCoef>
-5.4800

> <Gold.Chemscore.Hbond>
3.8327

> <Gold.Chemscore.Metal>
0.0000

> <Gold.Chemscore.Lipo>
111.5160

> <Gold.Chemscore.Internal_Hbond>
0.0000

> <Gold.Chemscore.DEClash>
1.4896

> <Gold.Chemscore.DEInternal>
0.9217

> <Gold.Chemscore.Rot>
2.7384

> <Gold.Chemscore.Internal.Correction>
   9.000000E+99

> <Gold.Chemscore.Hbonds>
donor molecule, donor type, donor heavy atom, donor atom, acceptor molecule, acceptor atom, score
      L1  H     5    49       P1  8028  0.94
      L1  H    10    31       P1  7948  0.99
      L1  H    12    48       P1  7948  1.00
      L1  H    16    39       P1 10171  0.11

> <Gold.Chemscore.Hbond.Weighted>
-12.8014

> <Gold.Chemscore.Metal.Weighted>
-0.0000

> <Gold.Chemscore.Lipo.Weighted>
-13.0474

> <Gold.Chemscore.Internal_Hbond.Weighted>
0.0000

> <Gold.Chemscore.DEClash.Weighted>
1.4896

> <Gold.Chemscore.DEInternal.Weighted>
0.9217

> <Gold.Chemscore.Rot.Weighted>
7.0103

> <Gold.Chemscore.Internal.Correction.Weighted>
   9.000000E+99

> <Gold.Protein.RotatedTorsions>
[ 6907 6896 6895 6894 ] final   16.96 input  -60.11 | X-H torsion
[ 7974 7965 7964 7962 ] final -118.22 input  175.53 | X-H torsion
[ 8008 7997 7996 7995 ] final   84.85 input   59.86 | X-H torsion
[ 10167 10162 10161 10158 ] final  115.96 input  -65.29 | X-H torsion
[ 10718 10713 10712 10709 ] final   75.08 input   66.30 | X-H torsion
[ 10763 10752 10751 10750 ] final -120.48 input  -60.55 | X-H torsion
[ 11005 11000 10999 10996 ] final  124.15 input  -57.11 | X-H torsion

> <Gold.Protein.ActiveResidues>
 VAL166  LYS551  ARG553  GLY616  TRP617  ASP618  TYR619  PRO620  LYS621  CYS622 
 ASP623  PHE694  ASN695  SER759  ASP760  ASP761  ALA762  ILE779  LEU786  VAL792 
 PHE793  MET794  SER795  GLU796  ALA797  LYS798  CYS799  TRP800  GLU811  SER814 

> <Gold.Protein.RotatedAtoms>
  151.8422  135.0586  160.0449 H   0  0  0  0  0  0  0  0  0  0  0  0  # atno 6907 bound_to 6896
  152.2800  133.5457  159.5500 H   0  0  0  0  0  0  0  0  0  0  0  0  # atno 6908 bound_to 6896
  150.7186  134.0493  159.3835 H   0  0  0  0  0  0  0  0  0  0  0  0  # atno 6909 bound_to 6896
  145.0763  140.8394  143.4066 H   0  0  0  0  0  0  0  0  0  0  0  0  # atno 7974 bound_to 7965
  155.9424  140.3407  155.6339 H   0  0  0  0  0  0  0  0  0  0  0  0  # atno 8008 bound_to 7997
  155.7022  140.0761  157.2424 H   0  0  0  0  0  0  0  0  0  0  0  0  # atno 8009 bound_to 7997
  154.4105  140.1638  156.2191 H   0  0  0  0  0  0  0  0  0  0  0  0  # atno 8010 bound_to 7997
  139.6280  144.7111  151.2492 H   0  0  0  0  0  0  0  0  0  0  0  0  # atno 10167 bound_to 10162
  157.6619  130.9709  150.1302 H   0  0  0  0  0  0  0  0  0  0  0  0  # atno 10718 bound_to 10713
  154.8645  135.4201  154.2466 H   0  0  0  0  0  0  0  0  0  0  0  0  # atno 10763 bound_to 10752
  153.3421  135.6994  153.6864 H   0  0  0  0  0  0  0  0  0  0  0  0  # atno 10764 bound_to 10752
  153.5838  135.3568  155.2858 H   0  0  0  0  0  0  0  0  0  0  0  0  # atno 10765 bound_to 10752
  139.9345  134.9640  156.8365 H   0  0  0  0  0  0  0  0  0  0  0  0  # atno 11005 bound_to 11000
  145.1232  139.2680  143.5578 LP  0  0  0  0  0  0  0  0  0  0  0  0  # atno 17320 bound_to 7965
  146.3530  140.0862  142.8615 LP  0  0  0  0  0  0  0  0  0  0  0  0  # atno 17321 bound_to 7965
  140.7422  143.6532  150.8230 LP  0  0  0  0  0  0  0  0  0  0  0  0  # atno 17342 bound_to 10162
  140.0153  143.5600  152.2823 LP  0  0  0  0  0  0  0  0  0  0  0  0  # atno 17343 bound_to 10162
  156.2151  130.3669  149.8623 LP  0  0  0  0  0  0  0  0  0  0  0  0  # atno 17370 bound_to 10713
  156.6492  130.8736  151.3528 LP  0  0  0  0  0  0  0  0  0  0  0  0  # atno 17371 bound_to 10713
  140.6112  134.0080  155.7578 LP  0  0  0  0  0  0  0  0  0  0  0  0  # atno 17394 bound_to 11000
  141.0952  133.9855  157.3172 LP  0  0  0  0  0  0  0  0  0  0  0  0  # atno 17395 bound_to 11000

$$$$
