AV-unprocessed.smi:179|AV-procd|sdf|1449|dock6
  -GOLD-   2262019243D 1   1.00000     0.00000
 Structure written by MMmdl.
 44 47  0  0  0  0  0  0  0  0  1 V2000
  146.3578  131.0721  150.7650 O   0  0  0  0  0  0  0  0  0  0  0  0
  145.8499  131.9993  149.8264 C   0  0  0  0  0  0  0  0  0  0  0  0
  144.9089  133.0381  150.4687 C   0  0  0  0  0  0  0  0  0  0  0  0
  143.5204  132.3822  150.5888 C   0  0  0  0  0  0  0  0  0  0  0  0
  142.9922  132.0465  149.3214 O   0  0  0  0  0  0  0  0  0  0  0  0
  145.4129  133.7574  151.7427 C   0  0  0  0  0  0  0  0  0  0  0  0
  144.8321  135.0721  151.2159 C   0  0  0  0  0  0  0  0  0  0  0  0
  145.4617  136.3323  151.4982 N   0  0  0  0  0  0  0  0  0  0  0  0
  146.1217  137.1365  150.5952 C   0  0  0  0  0  0  0  0  0  0  0  0
  146.6097  138.2436  151.0843 N   0  0  0  0  0  0  0  0  0  0  0  0
  146.2590  138.2035  152.4272 C   0  0  0  0  0  0  0  0  0  0  0  0
  146.4727  139.0892  153.5179 C   0  0  0  0  0  0  0  0  0  0  0  0
  147.1799  140.3140  153.3635 N   0  0  0  0  0  0  0  0  0  0  0  0
  147.1729  141.1991  154.5243 C   0  0  0  0  0  0  0  0  0  0  0  0
  148.6986  141.0827  154.5834 C   0  0  0  0  0  0  0  0  0  0  0  0
  149.4032  142.2883  154.3650 O   0  0  0  0  0  0  0  0  0  0  0  0
  149.3369  140.5250  155.8618 C   0  0  0  0  0  0  0  0  0  0  0  0
  150.6372  140.2959  155.6727 F   0  0  0  0  0  0  0  0  0  0  0  0
  149.2010  141.3651  156.8864 F   0  0  0  0  0  0  0  0  0  0  0  0
  148.6312  140.1687  153.3554 C   0  0  0  0  0  0  0  0  0  0  0  0
  145.9714  138.7040  154.7224 N   0  0  0  0  0  0  0  0  0  0  0  0
  145.3117  137.5496  154.8528 C   0  0  0  0  0  0  0  0  0  0  0  0
  145.0405  136.6363  153.9204 N   0  0  0  0  0  0  0  0  0  0  0  0
  145.5383  137.0075  152.7067 C   0  0  0  0  0  0  0  0  0  0  0  0
  144.8879  134.4429  149.8208 C   0  0  0  0  0  0  0  0  0  0  0  0
  147.1355  130.6744  150.4046 H   0  0  0  0  0  0  0  0  0  0  0  0
  146.6989  132.4889  149.3481 H   0  0  0  0  0  0  0  0  0  0  0  0
  145.3363  131.4307  149.0506 H   0  0  0  0  0  0  0  0  0  0  0  0
  143.5643  131.4691  151.1830 H   0  0  0  0  0  0  0  0  0  0  0  0
  142.8173  133.0427  151.0974 H   0  0  0  0  0  0  0  0  0  0  0  0
  142.2911  132.6471  149.1186 H   0  0  0  0  0  0  0  0  0  0  0  0
  144.9627  133.4141  152.6746 H   0  0  0  0  0  0  0  0  0  0  0  0
  146.4997  133.7792  151.8290 H   0  0  0  0  0  0  0  0  0  0  0  0
  143.7928  135.1683  151.5352 H   0  0  0  0  0  0  0  0  0  0  0  0
  146.2306  136.8771  149.5522 H   0  0  0  0  0  0  0  0  0  0  0  0
  146.8212  142.2002  154.2733 H   0  0  0  0  0  0  0  0  0  0  0  0
  146.6634  140.8050  155.4044 H   0  0  0  0  0  0  0  0  0  0  0  0
  149.0000  142.9450  154.9122 H   0  0  0  0  0  0  0  0  0  0  0  0
  148.8811  139.5835  156.1713 H   0  0  0  0  0  0  0  0  0  0  0  0
  148.9844  139.1523  153.5349 H   0  0  0  0  0  0  0  0  0  0  0  0
  149.0814  140.5994  152.4603 H   0  0  0  0  0  0  0  0  0  0  0  0
  144.9506  137.3257  155.8458 H   0  0  0  0  0  0  0  0  0  0  0  0
  145.8017  134.6925  149.2808 H   0  0  0  0  0  0  0  0  0  0  0  0
  144.0128  134.6475  149.2032 H   0  0  0  0  0  0  0  0  0  0  0  0
  1  2  1  0  0  0  0
  1 26  1  0  0  0  0
  2  3  1  0  0  0  0
  2 27  1  0  0  0  0
  2 28  1  0  0  0  0
  3 25  1  0  0  0  0
  3  4  1  0  0  0  0
  3  6  1  0  0  0  0
  4  5  1  0  0  0  0
  4 29  1  0  0  0  0
  4 30  1  0  0  0  0
  5 31  1  0  0  0  0
  6  7  1  0  0  0  0
  6 32  1  0  0  0  0
  6 33  1  0  0  0  0
  7  8  1  0  0  0  0
  7 25  1  0  0  0  0
  7 34  1  0  0  0  0
  8 24  1  0  0  0  0
  8  9  1  0  0  0  0
  9 10  2  0  0  0  0
  9 35  1  0  0  0  0
 10 11  1  0  0  0  0
 11 24  2  0  0  0  0
 11 12  1  0  0  0  0
 12 13  1  0  0  0  0
 12 21  2  0  0  0  0
 13 20  1  0  0  0  0
 13 14  1  0  0  0  0
 14 15  1  0  0  0  0
 14 36  1  0  0  0  0
 14 37  1  0  0  0  0
 15 16  1  0  0  0  0
 15 17  1  0  0  0  0
 15 20  1  0  0  0  0
 16 38  1  0  0  0  0
 17 18  1  0  0  0  0
 17 19  1  0  0  0  0
 17 39  1  0  0  0  0
 20 40  1  0  0  0  0
 20 41  1  0  0  0  0
 21 22  1  0  0  0  0
 22 23  2  0  0  0  0
 22 42  1  0  0  0  0
 23 24  1  0  0  0  0
 25 43  1  0  0  0  0
 25 44  1  0  0  0  0
M  END
> <s_m_source_file>
AV-unprocessed.smi

> <i_m_source_file_index>
179

> <i_lp_mmshare_version>
43012

> <i_f3d_flags>
0

> <s_epik_input>
W09IXVtDSDJdQzEoW0NIMl1bT0hdKVtDSDJdW0NIXShbQ0gyXTEpbihbY0hdbjIpYyhjMjMpbltjSF1uYzNOKFtDSDJdNClbQ0gyXUM0KFtPSF0pW0NIXShGKUY=

> <s_epik_cmdline>
J2VwaWtfcHl0aG9uJywgJy1waCcsICc3LjAnLCAnLXRuJywgJzgnLCAnLW1hJywgJzIwMCcsICctbWV0YWxfYmluZGluZycsICctaW1hZScsICc8aW5maWxlLm1hZT4nLCAnLW9tYWUnLCAnPG91dGZpbGUubWFlPic=

> <r_lp_tautomer_probability>
1

> <r_epik_Ionization_Penalty>
0.00851647

> <r_epik_Ionization_Penalty_Charging>
0

> <r_epik_Ionization_Penalty_Neutral>
0.00851647

> <r_epik_State_Penalty>
0.00617896

> <r_epik_Charging_Adjusted_Penalty>
0.00617896

> <i_epik_Tot_Q>
0

> <i_epik_Tot_abs_Q>
0

> <r_epik_Metal_State_Penalty>
0.00609441

> <b_epik_Metal_Only>
0

> <s_lp_Force_Field>
OPLS_2005

> <r_lp_Energy>
53.402

> <b_lp_Chiralities_Consistent>
1

> <s_lp_Variant>
AV-unprocessed.smi:179-1

> <Gold.Version>
5.8.1

> <Gold.Id.Protein>
6NUR|6NUR_protein|mol2

> <Gold.PLP.Fitness>
48.8475

> <Gold.PLP.PLP>
-36.7058

> <Gold.PLP.part.hbond>
-7.9665

> <Gold.PLP.part.metal>
0.0000

> <Gold.PLP.part.buried>
8.7613

> <Gold.PLP.part.nonpolar>
-39.5603

> <Gold.PLP.part.repulsive>
1.3831

> <Gold.PLP.ligand.clash>
0.0000

> <Gold.PLP.ligand.torsion>
0.9190

> <Gold.PLP.Chemscore.Hbond>
4.0458

> <Gold.PLP.Chemscore.CHOScore>
0.3862

> <Gold.PLP.Chemscore.Metal>
0.0000

> <Gold.Chemscore.Hbonds>
donor molecule, donor type, donor heavy atom, donor atom, acceptor molecule, acceptor atom, score
      L1  H     1    26       P1 10747  0.90
      L1  H     5    31       P1 10186  0.54
      L1  H    16    38       P1  8028  1.00
      P1  H  7954  7966       L1    10  0.25
      P1  H  8011  8017       L1    16  0.19
      P1  H 10785 10796       L1     5  1.00
      L1  C     9    35       P1  7921  0.37

> <Gold.PLP.Chemscore.Internal.Correction>
0.6840

> <Gold.Rescore>
     Score         DG    S(hbond)    S(metal)    S(lipo)     H(rot)  DE(clash)    DE(int)     intcor
      8.99     -14.22       3.31        0.00      72.55       4.22       4.09       1.14       ----

> <Gold.Chemscore.Fitness>
8.9904

> <Gold.Chemscore.DG>
-14.2228

> <Gold.Chemscore.ZeroCoef>
-5.4800

> <Gold.Chemscore.Hbond>
3.3131

> <Gold.Chemscore.Metal>
0.0000

> <Gold.Chemscore.Lipo>
72.5467

> <Gold.Chemscore.Internal_Hbond>
0.0000

> <Gold.Chemscore.DEClash>
4.0911

> <Gold.Chemscore.DEInternal>
1.1414

> <Gold.Chemscore.Rot>
4.2230

> <Gold.Chemscore.Internal.Correction>
   9.000000E+99

> <Gold.Chemscore.Hbonds>
donor molecule, donor type, donor heavy atom, donor atom, acceptor molecule, acceptor atom, score
      L1  H     1    26       P1 10747  0.88
      L1  H     5    31       P1 10186  0.51
      L1  H    16    38       P1  8028  0.96
      P1  H  8011  8017       L1    16  0.12
      P1  H 10785 10796       L1     5  0.90

> <Gold.Chemscore.Hbond.Weighted>
-11.0658

> <Gold.Chemscore.Metal.Weighted>
-0.0000

> <Gold.Chemscore.Lipo.Weighted>
-8.4880

> <Gold.Chemscore.Internal_Hbond.Weighted>
0.0000

> <Gold.Chemscore.DEClash.Weighted>
4.0911

> <Gold.Chemscore.DEInternal.Weighted>
1.1414

> <Gold.Chemscore.Rot.Weighted>
10.8110

> <Gold.Chemscore.Internal.Correction.Weighted>
   9.000000E+99

> <Gold.Protein.RotatedTorsions>
[ 6907 6896 6895 6894 ] final  -31.55 input  -60.11 | X-H torsion
[ 7974 7965 7964 7962 ] final   39.23 input  175.53 | X-H torsion
[ 8008 7997 7996 7995 ] final  123.54 input   59.86 | X-H torsion
[ 10167 10162 10161 10158 ] final  -58.33 input  -65.29 | X-H torsion
[ 10718 10713 10712 10709 ] final   56.74 input   66.30 | X-H torsion
[ 10763 10752 10751 10750 ] final   78.31 input  -60.55 | X-H torsion
[ 11005 11000 10999 10996 ] final  127.40 input  -57.11 | X-H torsion

> <Gold.Protein.ActiveResidues>
 VAL166  LYS551  ARG553  GLY616  TRP617  ASP618  TYR619  PRO620  LYS621  CYS622 
 ASP623  PHE694  ASN695  SER759  ASP760  ASP761  ALA762  ILE779  LEU786  VAL792 
 PHE793  MET794  SER795  GLU796  ALA797  LYS798  CYS799  TRP800  GLU811  SER814 

> <Gold.Protein.RotatedAtoms>
  151.0906  134.9914  159.8400 H   0  0  0  0  0  0  0  0  0  0  0  0  # atno 6907 bound_to 6896
  152.5428  134.2070  159.8745 H   0  0  0  0  0  0  0  0  0  0  0  0  # atno 6908 bound_to 6896
  151.2106  133.4514  159.2631 H   0  0  0  0  0  0  0  0  0  0  0  0  # atno 6909 bound_to 6896
  146.1000  139.5676  142.9420 H   0  0  0  0  0  0  0  0  0  0  0  0  # atno 7974 bound_to 7965
  156.2769  140.2760  156.1644 H   0  0  0  0  0  0  0  0  0  0  0  0  # atno 8008 bound_to 7997
  155.0720  140.0387  157.2629 H   0  0  0  0  0  0  0  0  0  0  0  0  # atno 8009 bound_to 7997
  154.7033  140.2653  155.6704 H   0  0  0  0  0  0  0  0  0  0  0  0  # atno 8010 bound_to 7997
  140.6204  143.2417  151.5495 H   0  0  0  0  0  0  0  0  0  0  0  0  # atno 10167 bound_to 10162
  157.5457  130.8729  149.8887 H   0  0  0  0  0  0  0  0  0  0  0  0  # atno 10718 bound_to 10713
  153.0864  135.4882  154.8606 H   0  0  0  0  0  0  0  0  0  0  0  0  # atno 10763 bound_to 10752
  154.7216  135.3040  154.9040 H   0  0  0  0  0  0  0  0  0  0  0  0  # atno 10764 bound_to 10752
  153.9703  135.6802  153.4800 H   0  0  0  0  0  0  0  0  0  0  0  0  # atno 10765 bound_to 10752
  139.9505  134.9622  156.8849 H   0  0  0  0  0  0  0  0  0  0  0  0  # atno 11005 bound_to 11000
  145.5873  141.0374  143.2089 LP  0  0  0  0  0  0  0  0  0  0  0  0  # atno 17320 bound_to 7965
  144.7425  139.7409  143.7305 LP  0  0  0  0  0  0  0  0  0  0  0  0  # atno 17321 bound_to 7965
  139.5434  144.2587  152.1394 LP  0  0  0  0  0  0  0  0  0  0  0  0  # atno 17342 bound_to 10162
  140.1806  144.4848  150.6530 LP  0  0  0  0  0  0  0  0  0  0  0  0  # atno 17343 bound_to 10162
  156.0533  130.3713  150.1149 LP  0  0  0  0  0  0  0  0  0  0  0  0  # atno 17370 bound_to 10713
  156.9326  130.9718  151.3530 LP  0  0  0  0  0  0  0  0  0  0  0  0  # atno 17371 bound_to 10713
  140.5729  134.0425  155.7437 LP  0  0  0  0  0  0  0  0  0  0  0  0  # atno 17394 bound_to 11000
  141.1167  133.9528  157.2808 LP  0  0  0  0  0  0  0  0  0  0  0  0  # atno 17395 bound_to 11000

$$$$
