AV-unprocessed.smi:1873|AV-procd|sdf|7610|dock10
  -GOLD-   22720 9333D 1   1.00000     0.00000
 Structure written by MMmdl.
 37 39  0  0  0  0  0  0  0  0  2 V2000
  152.7194  139.6801  155.4752 O   0  0  0  0  0  0  0  0  0  0  0  0
  151.7959  139.0903  156.3705 C   0  0  1  0  0  0  0  0  0  0  0  0
  151.7282  139.9014  157.6798 C   0  0  0  0  0  0  0  0  0  0  0  0
  151.3197  141.2977  157.4697 N   0  0  0  0  0  0  0  0  0  0  0  0
  150.6269  141.8535  156.4390 C   0  0  0  0  0  0  0  0  0  0  0  0
  150.4983  143.1840  156.6993 N   0  3  0  0  0  0  0  0  0  0  0  0
  151.1168  143.4836  157.9147 C   0  0  0  0  0  0  0  0  0  0  0  0
  151.2489  144.6896  158.5961 C   0  0  0  0  0  0  0  0  0  0  0  0
  151.9408  144.6501  159.8245 C   0  0  0  0  0  0  0  0  0  0  0  0
  152.4684  143.4448  160.3317 C   0  0  0  0  0  0  0  0  0  0  0  0
  152.3289  142.2282  159.6321 C   0  0  0  0  0  0  0  0  0  0  0  0
  151.6460  142.2756  158.4169 C   0  0  0  0  0  0  0  0  0  0  0  0
  150.4148  138.9321  155.7543 C   0  0  0  0  0  0  0  0  0  0  0  0
  149.3201  138.5643  156.5638 C   0  0  0  0  0  0  0  0  0  0  0  0
  148.0358  138.4291  156.0025 C   0  0  0  0  0  0  0  0  0  0  0  0
  147.8255  138.6528  154.6271 C   0  0  0  0  0  0  0  0  0  0  0  0
  146.5438  138.5186  154.1430 O   0  0  0  0  0  0  0  0  0  0  0  0
  146.3379  137.8529  152.9755 C   0  0  0  0  0  0  0  0  0  0  0  0
  145.0567  137.4164  152.9172 F   0  0  0  0  0  0  0  0  0  0  0  0
  146.5369  138.6781  151.9181 F   0  0  0  0  0  0  0  0  0  0  0  0
  148.9224  139.0361  153.8185 C   0  0  0  0  0  0  0  0  0  0  0  0
  150.2070  139.1727  154.3791 C   0  0  0  0  0  0  0  0  0  0  0  0
  152.2721  140.3534  154.9851 H   0  0  0  0  0  0  0  0  0  0  0  0
  152.1816  138.0955  156.5983 H   0  0  0  0  0  0  0  0  0  0  0  0
  151.0579  139.4344  158.4016 H   0  0  0  0  0  0  0  0  0  0  0  0
  152.7121  139.9248  158.1504 H   0  0  0  0  0  0  0  0  0  0  0  0
  150.2478  141.3333  155.5711 H   0  0  0  0  0  0  0  0  0  0  0  0
  150.8435  145.6137  158.2110 H   0  0  0  0  0  0  0  0  0  0  0  0
  152.0674  145.5617  160.3903 H   0  0  0  0  0  0  0  0  0  0  0  0
  152.9893  143.4524  161.2781 H   0  0  0  0  0  0  0  0  0  0  0  0
  152.7311  141.3101  160.0341 H   0  0  0  0  0  0  0  0  0  0  0  0
  149.4594  138.3885  157.6204 H   0  0  0  0  0  0  0  0  0  0  0  0
  147.2045  138.1501  156.6333 H   0  0  0  0  0  0  0  0  0  0  0  0
  146.9898  136.9834  152.8864 H   0  0  0  0  0  0  0  0  0  0  0  0
  148.7919  139.2373  152.7657 H   0  0  0  0  0  0  0  0  0  0  0  0
  151.0319  139.4701  153.7481 H   0  0  0  0  0  0  0  0  0  0  0  0
  150.0222  143.8373  156.0906 H   0  0  0  0  0  0  0  0  0  0  0  0
  1  2  1  0  0  0  0
  1 23  1  0  0  0  0
  2  3  1  0  0  0  0
  2 13  1  0  0  0  0
  2 24  1  0  0  0  0
  3  4  1  0  0  0  0
  3 25  1  0  0  0  0
  3 26  1  0  0  0  0
  4 12  1  0  0  0  0
  4  5  1  0  0  0  0
  5  6  2  0  0  0  0
  5 27  1  0  0  0  0
  6  7  1  0  0  0  0
  6 37  1  0  0  0  0
  7 12  2  0  0  0  0
  7  8  1  0  0  0  0
  8  9  2  0  0  0  0
  8 28  1  0  0  0  0
  9 10  1  0  0  0  0
  9 29  1  0  0  0  0
 10 11  2  0  0  0  0
 10 30  1  0  0  0  0
 11 12  1  0  0  0  0
 11 31  1  0  0  0  0
 13 22  1  0  0  0  0
 13 14  2  0  0  0  0
 14 15  1  0  0  0  0
 14 32  1  0  0  0  0
 15 16  2  0  0  0  0
 15 33  1  0  0  0  0
 16 17  1  0  0  0  0
 16 21  1  0  0  0  0
 17 18  1  0  0  0  0
 18 19  1  0  0  0  0
 18 20  1  0  0  0  0
 18 34  1  0  0  0  0
 21 22  2  0  0  0  0
 21 35  1  0  0  0  0
 22 36  1  0  0  0  0
M  CHG  1   6   1
M  END
> <s_m_source_file>
AV-unprocessed.smi

> <i_m_source_file_index>
1873

> <i_lp_mmshare_version>
43012

> <i_f3d_flags>
0

> <s_epik_input>
RltDSF0oRilPYyhbY0hdW2NIXTEpW2NIXVtjSF1jMVtDQEhdKFtPSF0pW0NIMl1uKFtjSF1uMiljKGMyMylbY0hdW2NIXVtjSF1bY0hdMw==

> <s_epik_cmdline>
J2VwaWtfcHl0aG9uJywgJy1waCcsICc3LjAnLCAnLXRuJywgJzgnLCAnLW1hJywgJzIwMCcsICctbWV0YWxfYmluZGluZycsICctaW1hZScsICc8aW5maWxlLm1hZT4nLCAnLW9tYWUnLCAnPG91dGZpbGUubWFlPic=

> <r_lp_tautomer_probability>
1

> <r_epik_Ionization_Penalty>
1.3029

> <r_epik_Ionization_Penalty_Charging>
1.3029

> <r_epik_Ionization_Penalty_Neutral>
2.50501e-07

> <r_epik_State_Penalty>
1.377

> <r_epik_Charging_Adjusted_Penalty>
2.6799

> <i_epik_Tot_Q>
1

> <i_epik_Tot_abs_Q>
1

> <r_epik_Metal_State_Penalty>
5.40879

> <b_epik_Metal_Only>
0

> <s_lp_Force_Field>
OPLS_2005

> <r_lp_Energy>
16.5832

> <b_lp_Chiralities_Consistent>
1

> <s_lp_Variant>
AV-unprocessed.smi:1873-4

> <Gold.Version>
5.8.1

> <Gold.Id.Protein>
6NUR|6NUR_protein|mol2

> <Gold.PLP.Fitness>
50.7477

> <Gold.PLP.PLP>
-43.7551

> <Gold.PLP.part.hbond>
-2.1662

> <Gold.PLP.part.metal>
0.0000

> <Gold.PLP.part.buried>
-4.3909

> <Gold.PLP.part.nonpolar>
-38.7633

> <Gold.PLP.part.repulsive>
0.1883

> <Gold.PLP.ligand.clash>
0.0000

> <Gold.PLP.ligand.torsion>
1.0013

> <Gold.PLP.Chemscore.Hbond>
2.9840

> <Gold.PLP.Chemscore.CHOScore>
0.0000

> <Gold.PLP.Chemscore.Metal>
0.0000

> <Gold.Chemscore.Hbonds>
donor molecule, donor type, donor heavy atom, donor atom, acceptor molecule, acceptor atom, score
      L1  H     6    37       P1  8028  1.82
      P1  H  7997  8010       L1     1  1.00

> <Gold.PLP.Chemscore.Internal.Correction>
0.0432

> <Gold.Rescore>
     Score         DG    S(hbond)    S(metal)    S(lipo)     H(rot)  DE(clash)    DE(int)     intcor
     15.74     -17.78       1.90        0.00     104.96       2.47       0.01       2.02       ----

> <Gold.Chemscore.Fitness>
15.7436

> <Gold.Chemscore.DG>
-17.7752

> <Gold.Chemscore.ZeroCoef>
-5.4800

> <Gold.Chemscore.Hbond>
1.8951

> <Gold.Chemscore.Metal>
0.0000

> <Gold.Chemscore.Lipo>
104.9627

> <Gold.Chemscore.Internal_Hbond>
0.0000

> <Gold.Chemscore.DEClash>
0.0067

> <Gold.Chemscore.DEInternal>
2.0249

> <Gold.Chemscore.Rot>
2.4668

> <Gold.Chemscore.Internal.Correction>
   9.000000E+99

> <Gold.Chemscore.Hbonds>
donor molecule, donor type, donor heavy atom, donor atom, acceptor molecule, acceptor atom, score
      L1  H     6    37       P1  8028  0.86
      P1  H  7997  8010       L1     1  0.83

> <Gold.Chemscore.Hbond.Weighted>
-6.3296

> <Gold.Chemscore.Metal.Weighted>
-0.0000

> <Gold.Chemscore.Lipo.Weighted>
-12.2806

> <Gold.Chemscore.Internal_Hbond.Weighted>
0.0000

> <Gold.Chemscore.DEClash.Weighted>
0.0067

> <Gold.Chemscore.DEInternal.Weighted>
2.0249

> <Gold.Chemscore.Rot.Weighted>
6.3151

> <Gold.Chemscore.Internal.Correction.Weighted>
   9.000000E+99

> <Gold.Protein.RotatedTorsions>
[ 6907 6896 6895 6894 ] final -174.12 input  -60.11 | X-H torsion
[ 7974 7965 7964 7962 ] final  -76.21 input  175.53 | X-H torsion
[ 8008 7997 7996 7995 ] final   81.30 input   59.86 | X-H torsion
[ 10167 10162 10161 10158 ] final   -5.91 input  -65.29 | X-H torsion
[ 10718 10713 10712 10709 ] final   63.04 input   66.30 | X-H torsion
[ 10763 10752 10751 10750 ] final  160.56 input  -60.55 | X-H torsion
[ 11005 11000 10999 10996 ] final  -99.00 input  -57.11 | X-H torsion

> <Gold.Protein.ActiveResidues>
 VAL166  LYS551  ARG553  GLY616  TRP617  ASP618  TYR619  PRO620  LYS621  CYS622 
 ASP623  PHE694  ASN695  SER759  ASP760  ASP761  ALA762  ILE779  LEU786  VAL792 
 PHE793  MET794  SER795  GLU796  ALA797  LYS798  CYS799  TRP800  GLU811  SER814 

> <Gold.Protein.RotatedAtoms>
  151.5672  133.3395  159.2982 H   0  0  0  0  0  0  0  0  0  0  0  0  # atno 6907 bound_to 6896
  150.8388  134.7675  159.6926 H   0  0  0  0  0  0  0  0  0  0  0  0  # atno 6908 bound_to 6896
  152.4460  134.5501  159.9916 H   0  0  0  0  0  0  0  0  0  0  0  0  # atno 6909 bound_to 6896
  145.6159  140.9375  143.1164 H   0  0  0  0  0  0  0  0  0  0  0  0  # atno 7974 bound_to 7965
  155.8952  140.3436  155.5985 H   0  0  0  0  0  0  0  0  0  0  0  0  # atno 8008 bound_to 7997
  155.7564  140.0827  157.2195 H   0  0  0  0  0  0  0  0  0  0  0  0  # atno 8009 bound_to 7997
  154.4037  140.1544  156.2770 H   0  0  0  0  0  0  0  0  0  0  0  0  # atno 8010 bound_to 7997
  140.6979  143.6254  150.8573 H   0  0  0  0  0  0  0  0  0  0  0  0  # atno 10167 bound_to 10162
  157.5944  130.9083  149.9665 H   0  0  0  0  0  0  0  0  0  0  0  0  # atno 10718 bound_to 10713
  154.2493  135.2772  155.2823 H   0  0  0  0  0  0  0  0  0  0  0  0  # atno 10763 bound_to 10752
  154.5479  135.5684  153.6899 H   0  0  0  0  0  0  0  0  0  0  0  0  # atno 10764 bound_to 10752
  152.9984  135.6267  154.2639 H   0  0  0  0  0  0  0  0  0  0  0  0  # atno 10765 bound_to 10752
  141.1324  133.8288  157.0914 H   0  0  0  0  0  0  0  0  0  0  0  0  # atno 11005 bound_to 11000
  144.7251  139.7903  143.7368 LP  0  0  0  0  0  0  0  0  0  0  0  0  # atno 17320 bound_to 7965
  146.1468  139.4540  143.0074 LP  0  0  0  0  0  0  0  0  0  0  0  0  # atno 17321 bound_to 7965
  139.9974  143.5781  152.2888 LP  0  0  0  0  0  0  0  0  0  0  0  0  # atno 17342 bound_to 10162
  139.6458  144.7658  151.2246 LP  0  0  0  0  0  0  0  0  0  0  0  0  # atno 17343 bound_to 10162
  156.1003  130.3656  150.0230 LP  0  0  0  0  0  0  0  0  0  0  0  0  # atno 17370 bound_to 10713
  156.8346  130.9404  151.3635 LP  0  0  0  0  0  0  0  0  0  0  0  0  # atno 17371 bound_to 10713
  140.0390  134.9864  157.0925 LP  0  0  0  0  0  0  0  0  0  0  0  0  # atno 17394 bound_to 11000
  140.4165  134.1925  155.7163 LP  0  0  0  0  0  0  0  0  0  0  0  0  # atno 17395 bound_to 11000

$$$$
