AV-unprocessed.smi:713|AV-procd|sdf|3475|dock6
  -GOLD-   22720 0463D 1   1.00000     0.00000
 Structure written by MMmdl.
 41 42  0  0  0  0  0  0  0  0  1 V2000
  153.3374  141.8982  161.0454 C   0  0  0  0  0  0  0  0  0  0  0  0
  153.2418  142.2028  159.5364 C   0  0  1  0  0  0  0  0  0  0  0  0
  152.8694  140.9699  158.6939 C   0  0  0  0  0  0  0  0  0  0  0  0
  153.5780  139.9623  158.7001 O   0  0  0  0  0  0  0  0  0  0  0  0
  151.7469  141.0676  157.9625 N   0  0  0  0  0  0  0  0  0  0  0  0
  151.2032  140.0200  157.1045 C   0  0  2  0  0  0  0  0  0  0  0  0
  152.2182  139.6987  155.9916 C   0  0  0  0  0  0  0  0  0  0  0  0
  151.6657  138.6734  154.9891 C   0  0  0  0  0  0  0  0  0  0  0  0
  150.3343  139.1481  154.3842 C   0  0  0  0  0  0  0  0  0  0  0  0
  149.2782  139.4784  155.4575 C   0  0  1  0  0  0  0  0  0  0  0  0
  148.5645  137.9296  156.2048 S   0  0  0  0  0  0  0  0  0  0  0  0
  149.5060  136.5971  155.3526 C   0  0  0  0  0  0  0  0  0  0  0  0
  148.9295  137.9072  157.6294 O   0  0  0  0  0  0  0  0  0  0  0  0
  147.1511  137.7895  155.8253 O   0  0  0  0  0  0  0  0  0  0  0  0
  149.8491  140.4622  156.5034 C   0  0  0  0  0  0  0  0  0  0  0  0
  152.3308  143.3099  159.2644 N   0  0  0  0  0  0  0  0  0  0  0  0
  151.6911  144.1263  160.1753 C   0  0  0  0  0  0  0  0  0  0  0  0
  150.9669  145.0427  159.4681 C   0  0  0  0  0  0  0  0  0  0  0  0
  151.2350  144.7110  158.1113 C   0  0  0  0  0  0  0  0  0  0  0  0
  152.0557  143.6805  157.9918 N   0  0  0  0  0  0  0  0  0  0  0  0
  154.0780  141.1232  161.2453 H   0  0  0  0  0  0  0  0  0  0  0  0
  152.3847  141.5594  161.4546 H   0  0  0  0  0  0  0  0  0  0  0  0
  153.6381  142.7861  161.6021 H   0  0  0  0  0  0  0  0  0  0  0  0
  154.2341  142.5162  159.2082 H   0  0  0  0  0  0  0  0  0  0  0  0
  151.2240  141.9297  158.0129 H   0  0  0  0  0  0  0  0  0  0  0  0
  151.0682  139.1276  157.7140 H   0  0  0  0  0  0  0  0  0  0  0  0
  152.4799  140.6130  155.4567 H   0  0  0  0  0  0  0  0  0  0  0  0
  153.1439  139.3219  156.4283 H   0  0  0  0  0  0  0  0  0  0  0  0
  152.3925  138.5121  154.1926 H   0  0  0  0  0  0  0  0  0  0  0  0
  151.5368  137.7085  155.4781 H   0  0  0  0  0  0  0  0  0  0  0  0
  150.5197  140.0397  153.7840 H   0  0  0  0  0  0  0  0  0  0  0  0
  149.9488  138.3971  153.6941 H   0  0  0  0  0  0  0  0  0  0  0  0
  148.4392  139.9657  154.9602 H   0  0  0  0  0  0  0  0  0  0  0  0
  149.2675  135.6393  155.8144 H   0  0  0  0  0  0  0  0  0  0  0  0
  150.5751  136.7856  155.4457 H   0  0  0  0  0  0  0  0  0  0  0  0
  149.2290  136.5584  154.2998 H   0  0  0  0  0  0  0  0  0  0  0  0
  149.1209  140.6405  157.2928 H   0  0  0  0  0  0  0  0  0  0  0  0
  149.9883  141.4285  156.0162 H   0  0  0  0  0  0  0  0  0  0  0  0
  151.8038  143.9891  161.2407 H   0  0  0  0  0  0  0  0  0  0  0  0
  150.3430  145.8321  159.8604 H   0  0  0  0  0  0  0  0  0  0  0  0
  150.8636  145.1875  157.2160 H   0  0  0  0  0  0  0  0  0  0  0  0
  1  2  1  0  0  0  0
  1 21  1  0  0  0  0
  1 22  1  0  0  0  0
  1 23  1  0  0  0  0
  2  3  1  0  0  0  0
  2 16  1  0  0  0  0
  2 24  1  0  0  0  0
  3  4  2  0  0  0  0
  3  5  1  0  0  0  0
  5  6  1  0  0  0  0
  5 25  1  0  0  0  0
  6 15  1  0  0  0  0
  6  7  1  0  0  0  0
  6 26  1  0  0  0  0
  7  8  1  0  0  0  0
  7 27  1  0  0  0  0
  7 28  1  0  0  0  0
  8  9  1  0  0  0  0
  8 29  1  0  0  0  0
  8 30  1  0  0  0  0
  9 10  1  0  0  0  0
  9 31  1  0  0  0  0
  9 32  1  0  0  0  0
 10 11  1  0  0  0  0
 10 15  1  0  0  0  0
 10 33  1  0  0  0  0
 11 12  1  0  0  0  0
 11 13  2  0  0  0  0
 11 14  2  0  0  0  0
 12 34  1  0  0  0  0
 12 35  1  0  0  0  0
 12 36  1  0  0  0  0
 15 37  1  0  0  0  0
 15 38  1  0  0  0  0
 16 20  1  0  0  0  0
 16 17  1  0  0  0  0
 17 18  2  0  0  0  0
 17 39  1  0  0  0  0
 18 19  1  0  0  0  0
 18 40  1  0  0  0  0
 19 20  2  0  0  0  0
 19 41  1  0  0  0  0
M  END
> <s_m_source_file>
AV-unprocessed.smi

> <i_m_source_file_index>
713

> <i_lp_mmshare_version>
43012

> <i_f3d_flags>
0

> <s_epik_input>
bjFbY0hdW2NIXVtjSF1uMVtDQEhdKFtDSDNdKUMoPU8pW05IXVtDQEBIXTJbQ0gyXVtDSDJdW0NIMl1bQ0BIXShbQ0gyXTIpUyg9TykoPU8pW0NIM10=

> <s_epik_cmdline>
J2VwaWtfcHl0aG9uJywgJy1waCcsICc3LjAnLCAnLXRuJywgJzgnLCAnLW1hJywgJzIwMCcsICctbWV0YWxfYmluZGluZycsICctaW1hZScsICc8aW5maWxlLm1hZT4nLCAnLW9tYWUnLCAnPG91dGZpbGUubWFlPic=

> <r_lp_tautomer_probability>
1

> <r_epik_Ionization_Penalty>
4.07816e-05

> <r_epik_Ionization_Penalty_Charging>
0

> <r_epik_Ionization_Penalty_Neutral>
4.07816e-05

> <r_epik_State_Penalty>
-0

> <r_epik_Charging_Adjusted_Penalty>
0

> <i_epik_Tot_Q>
0

> <i_epik_Tot_abs_Q>
0

> <r_epik_Metal_State_Penalty>
-0

> <b_epik_Metal_Only>
0

> <s_lp_Force_Field>
OPLS_2005

> <r_lp_Energy>
4.9413

> <b_lp_Chiralities_Consistent>
1

> <s_lp_Variant>
AV-unprocessed.smi:713-2

> <Gold.Version>
5.8.1

> <Gold.Id.Protein>
6NUR|6NUR_protein|mol2

> <Gold.PLP.Fitness>
43.0703

> <Gold.PLP.PLP>
-37.3651

> <Gold.PLP.part.hbond>
-1.0000

> <Gold.PLP.part.metal>
0.0000

> <Gold.PLP.part.buried>
-4.2281

> <Gold.PLP.part.nonpolar>
-32.1364

> <Gold.PLP.part.repulsive>
0.1474

> <Gold.PLP.ligand.clash>
0.0000

> <Gold.PLP.ligand.torsion>
0.2878

> <Gold.PLP.Chemscore.Hbond>
1.0000

> <Gold.PLP.Chemscore.CHOScore>
1.0000

> <Gold.PLP.Chemscore.Metal>
0.0000

> <Gold.Chemscore.Hbonds>
donor molecule, donor type, donor heavy atom, donor atom, acceptor molecule, acceptor atom, score
      P1  H  7997  8009       L1     4  1.00
      L1  C    19    41       P1  8028  1.00

> <Gold.PLP.Chemscore.Internal.Correction>
0.2808

> <Gold.Rescore>
     Score         DG    S(hbond)    S(metal)    S(lipo)     H(rot)  DE(clash)    DE(int)     intcor
     12.05     -15.10       0.85        0.00      95.74       1.72       0.07       2.97       ----

> <Gold.Chemscore.Fitness>
12.0525

> <Gold.Chemscore.DG>
-15.0995

> <Gold.Chemscore.ZeroCoef>
-5.4800

> <Gold.Chemscore.Hbond>
0.8485

> <Gold.Chemscore.Metal>
0.0000

> <Gold.Chemscore.Lipo>
95.7374

> <Gold.Chemscore.Internal_Hbond>
0.0000

> <Gold.Chemscore.DEClash>
0.0725

> <Gold.Chemscore.DEInternal>
2.9745

> <Gold.Chemscore.Rot>
1.7249

> <Gold.Chemscore.Internal.Correction>
   9.000000E+99

> <Gold.Chemscore.Hbonds>
donor molecule, donor type, donor heavy atom, donor atom, acceptor molecule, acceptor atom, score
      P1  H  7997  8009       L1     4  0.68

> <Gold.Chemscore.Hbond.Weighted>
-2.8340

> <Gold.Chemscore.Metal.Weighted>
-0.0000

> <Gold.Chemscore.Lipo.Weighted>
-11.2013

> <Gold.Chemscore.Internal_Hbond.Weighted>
0.0000

> <Gold.Chemscore.DEClash.Weighted>
0.0725

> <Gold.Chemscore.DEInternal.Weighted>
2.9745

> <Gold.Chemscore.Rot.Weighted>
4.4157

> <Gold.Chemscore.Internal.Correction.Weighted>
   9.000000E+99

> <Gold.Protein.RotatedTorsions>
[ 6907 6896 6895 6894 ] final   93.69 input  -60.11 | X-H torsion
[ 7974 7965 7964 7962 ] final  110.11 input  175.53 | X-H torsion
[ 8008 7997 7996 7995 ] final  139.59 input   59.86 | X-H torsion
[ 10167 10162 10161 10158 ] final  -88.58 input  -65.29 | X-H torsion
[ 10718 10713 10712 10709 ] final -176.76 input   66.30 | X-H torsion
[ 10763 10752 10751 10750 ] final  -83.45 input  -60.55 | X-H torsion
[ 11005 11000 10999 10996 ] final -137.48 input  -57.11 | X-H torsion

> <Gold.Protein.ActiveResidues>
 VAL166  LYS551  ARG553  GLY616  TRP617  ASP618  TYR619  PRO620  LYS621  CYS622 
 ASP623  PHE694  ASN695  SER759  ASP760  ASP761  ALA762  ILE779  LEU786  VAL792 
 PHE793  MET794  SER795  GLU796  ALA797  LYS798  CYS799  TRP800  GLU811  SER814 

> <Gold.Protein.RotatedAtoms>
  152.5452  134.1309  159.8438 H   0  0  0  0  0  0  0  0  0  0  0  0  # atno 6907 bound_to 6896
  151.1355  133.5000  159.2605 H   0  0  0  0  0  0  0  0  0  0  0  0  # atno 6908 bound_to 6896
  151.1629  135.0292  159.8773 H   0  0  0  0  0  0  0  0  0  0  0  0  # atno 6909 bound_to 6896
  145.2592  139.2709  143.4026 H   0  0  0  0  0  0  0  0  0  0  0  0  # atno 7974 bound_to 7965
  156.2988  140.2363  156.4262 H   0  0  0  0  0  0  0  0  0  0  0  0  # atno 8008 bound_to 7997
  154.8311  140.0433  157.1498 H   0  0  0  0  0  0  0  0  0  0  0  0  # atno 8009 bound_to 7997
  154.9207  140.3003  155.5221 H   0  0  0  0  0  0  0  0  0  0  0  0  # atno 8010 bound_to 7997
  140.3732  143.2784  151.9474 H   0  0  0  0  0  0  0  0  0  0  0  0  # atno 10167 bound_to 10162
  156.8195  130.9615  151.3112 H   0  0  0  0  0  0  0  0  0  0  0  0  # atno 10718 bound_to 10713
  154.5878  135.5556  153.7249 H   0  0  0  0  0  0  0  0  0  0  0  0  # atno 10763 bound_to 10752
  153.0105  135.6336  154.1891 H   0  0  0  0  0  0  0  0  0  0  0  0  # atno 10764 bound_to 10752
  154.1832  135.2886  155.3025 H   0  0  0  0  0  0  0  0  0  0  0  0  # atno 10765 bound_to 10752
  140.8707  134.2055  157.4653 H   0  0  0  0  0  0  0  0  0  0  0  0  # atno 11005 bound_to 11000
  146.3280  140.3004  142.8620 LP  0  0  0  0  0  0  0  0  0  0  0  0  # atno 17320 bound_to 7965
  144.9434  140.8102  143.5617 LP  0  0  0  0  0  0  0  0  0  0  0  0  # atno 17321 bound_to 7965
  139.4802  144.5887  151.7809 LP  0  0  0  0  0  0  0  0  0  0  0  0  # atno 17342 bound_to 10162
  140.5012  144.1166  150.5971 LP  0  0  0  0  0  0  0  0  0  0  0  0  # atno 17343 bound_to 10162
  157.6464  130.8848  149.9547 LP  0  0  0  0  0  0  0  0  0  0  0  0  # atno 17370 bound_to 10713
  156.0997  130.3656  150.0241 LP  0  0  0  0  0  0  0  0  0  0  0  0  # atno 17371 bound_to 10713
  139.8712  134.9773  156.4952 LP  0  0  0  0  0  0  0  0  0  0  0  0  # atno 17394 bound_to 11000
  140.8577  133.8084  155.9233 LP  0  0  0  0  0  0  0  0  0  0  0  0  # atno 17395 bound_to 11000

$$$$
