AV-unprocessed.smi:2002|AV-procd|sdf|8113|dock7
  -GOLD-   2272010343D 1   1.00000     0.00000
 Structure written by MMmdl.
 39 40  0  0  0  0  0  0  0  0  2 V2000
  146.4296  128.5354  152.5990 C   0  0  0  0  0  0  0  0  0  0  0  0
  145.8923  129.9658  152.4578 C   0  0  0  0  0  0  0  0  0  0  0  0
  146.9761  130.9431  152.2033 N   0  3  1  0  0  0  0  0  0  0  0  0
  146.5302  132.2681  151.7088 C   0  0  0  0  0  0  0  0  0  0  0  0
  147.3057  133.3239  152.5073 C   0  0  0  0  0  0  0  0  0  0  0  0
  148.4759  132.5589  153.1234 C   0  0  1  0  0  0  0  0  0  0  0  0
  149.0712  133.2399  154.3712 C   0  0  0  0  0  0  0  0  0  0  0  0
  149.4099  134.6391  154.1287 N   0  0  0  0  0  0  0  0  0  0  0  0
  150.2691  135.3682  154.8559 C   0  0  0  0  0  0  0  0  0  0  0  0
  150.8940  134.9207  155.8181 O   0  0  0  0  0  0  0  0  0  0  0  0
  150.3559  136.6268  154.3935 N   0  0  0  0  0  0  0  0  0  0  0  0
  151.1733  137.6743  154.8894 C   0  0  0  0  0  0  0  0  0  0  0  0
  150.6130  138.9290  155.2480 C   0  0  0  0  0  0  0  0  0  0  0  0
  151.7007  139.6437  155.6649 C   0  0  0  0  0  0  0  0  0  0  0  0
  151.8644  141.0318  156.1824 C   0  0  0  0  0  0  0  0  0  0  0  0
  152.8289  138.8888  155.5686 O   0  0  0  0  0  0  0  0  0  0  0  0
  152.4845  137.6274  155.0690 N   0  0  0  0  0  0  0  0  0  0  0  0
  147.8586  131.1793  153.3633 C   0  0  0  0  0  0  0  0  0  0  0  0
  145.6201  127.8409  152.8246 H   0  0  0  0  0  0  0  0  0  0  0  0
  147.1591  128.4665  153.4066 H   0  0  0  0  0  0  0  0  0  0  0  0
  146.9098  128.1923  151.6823 H   0  0  0  0  0  0  0  0  0  0  0  0
  145.1469  130.0190  151.6629 H   0  0  0  0  0  0  0  0  0  0  0  0
  145.3838  130.2407  153.3830 H   0  0  0  0  0  0  0  0  0  0  0  0
  146.7590  132.3367  150.6449 H   0  0  0  0  0  0  0  0  0  0  0  0
  145.4555  132.4151  151.8258 H   0  0  0  0  0  0  0  0  0  0  0  0
  147.6302  134.1619  151.8896 H   0  0  0  0  0  0  0  0  0  0  0  0
  146.6657  133.7235  153.2956 H   0  0  0  0  0  0  0  0  0  0  0  0
  149.2543  132.4616  152.3644 H   0  0  0  0  0  0  0  0  0  0  0  0
  148.3403  133.2161  155.1798 H   0  0  0  0  0  0  0  0  0  0  0  0
  149.9418  132.6902  154.7337 H   0  0  0  0  0  0  0  0  0  0  0  0
  148.9408  135.0907  153.3569 H   0  0  0  0  0  0  0  0  0  0  0  0
  149.7787  136.8610  153.5993 H   0  0  0  0  0  0  0  0  0  0  0  0
  149.5841  139.2546  155.2082 H   0  0  0  0  0  0  0  0  0  0  0  0
  151.0708  141.6809  155.8120 H   0  0  0  0  0  0  0  0  0  0  0  0
  152.8190  141.4546  155.8684 H   0  0  0  0  0  0  0  0  0  0  0  0
  151.8306  141.0430  157.2719 H   0  0  0  0  0  0  0  0  0  0  0  0
  147.2638  131.1912  154.2786 H   0  0  0  0  0  0  0  0  0  0  0  0
  148.6079  130.3926  153.4576 H   0  0  0  0  0  0  0  0  0  0  0  0
  147.5665  130.5542  151.4820 H   0  0  0  0  0  0  0  0  0  0  0  0
  1  2  1  0  0  0  0
  1 19  1  0  0  0  0
  1 20  1  0  0  0  0
  1 21  1  0  0  0  0
  2  3  1  0  0  0  0
  2 22  1  0  0  0  0
  2 23  1  0  0  0  0
  3 18  1  0  0  0  0
  3  4  1  0  0  0  0
  3 39  1  0  0  0  0
  4  5  1  0  0  0  0
  4 24  1  0  0  0  0
  4 25  1  0  0  0  0
  5  6  1  0  0  0  0
  5 26  1  0  0  0  0
  5 27  1  0  0  0  0
  6  7  1  0  0  0  0
  6 18  1  0  0  0  0
  6 28  1  0  0  0  0
  7  8  1  0  0  0  0
  7 29  1  0  0  0  0
  7 30  1  0  0  0  0
  8  9  1  0  0  0  0
  8 31  1  0  0  0  0
  9 10  2  0  0  0  0
  9 11  1  0  0  0  0
 11 12  1  0  0  0  0
 11 32  1  0  0  0  0
 12 17  2  0  0  0  0
 12 13  1  0  0  0  0
 13 14  2  0  0  0  0
 13 33  1  0  0  0  0
 14 15  1  0  0  0  0
 14 16  1  0  0  0  0
 15 34  1  0  0  0  0
 15 35  1  0  0  0  0
 15 36  1  0  0  0  0
 16 17  1  0  0  0  0
 18 37  1  0  0  0  0
 18 38  1  0  0  0  0
M  CHG  1   3   1
M  END
> <s_m_source_file>
AV-unprocessed.smi

> <i_m_source_file_index>
2002

> <i_lp_mmshare_version>
43012

> <i_f3d_flags>
0

> <s_epik_input>
W0NIM11bQ0gyXU4xW0NIMl1bQ0gyXVtDQEhdKFtDSDJdMSlbQ0gyXVtOSF1DKD1PKVtOSF1jMltjSF1jKFtDSDNdKW9uMg==

> <s_epik_cmdline>
J2VwaWtfcHl0aG9uJywgJy1waCcsICc3LjAnLCAnLXRuJywgJzgnLCAnLW1hJywgJzIwMCcsICctbWV0YWxfYmluZGluZycsICctaW1hZScsICc8aW5maWxlLm1hZT4nLCAnLW9tYWUnLCAnPG91dGZpbGUubWFlPic=

> <r_epik_Ionization_Penalty>
0.000632871

> <r_epik_Ionization_Penalty_Charging>
0.000610951

> <r_epik_Ionization_Penalty_Neutral>
2.19198e-05

> <r_epik_State_Penalty>
0.000385263

> <r_epik_Charging_Adjusted_Penalty>
0.000996214

> <i_epik_Tot_Q>
1

> <i_epik_Tot_abs_Q>
1

> <r_epik_Metal_State_Penalty>
-0

> <b_epik_Metal_Only>
0

> <s_lp_Force_Field>
OPLS_2005

> <r_lp_Energy>
24.2793

> <b_lp_Chiralities_Consistent>
1

> <s_lp_Variant>
AV-unprocessed.smi:2002-1

> <Gold.Version>
5.8.1

> <Gold.Id.Protein>
6NUR|6NUR_protein|mol2

> <Gold.PLP.Fitness>
44.1139

> <Gold.PLP.PLP>
-32.8782

> <Gold.PLP.part.hbond>
-6.2276

> <Gold.PLP.part.metal>
0.0000

> <Gold.PLP.part.buried>
-2.6569

> <Gold.PLP.part.nonpolar>
-24.2720

> <Gold.PLP.part.repulsive>
0.1936

> <Gold.PLP.ligand.clash>
0.0000

> <Gold.PLP.ligand.torsion>
0.7587

> <Gold.PLP.Chemscore.Hbond>
4.2473

> <Gold.PLP.Chemscore.CHOScore>
0.0000

> <Gold.PLP.Chemscore.Metal>
0.0000

> <Gold.Chemscore.Hbonds>
donor molecule, donor type, donor heavy atom, donor atom, acceptor molecule, acceptor atom, score
      L1  H     3    39       P1 10747  0.94
      L1  H     8    31       P1  7948  1.00
      L1  H    11    32       P1  7948  0.93
      P1  H  7997  8010       L1    16  0.93
      P1  H 10752 10763       L1    17  0.38

> <Gold.PLP.Chemscore.Internal.Correction>
0.0113

> <Gold.Rescore>
     Score         DG    S(hbond)    S(metal)    S(lipo)     H(rot)  DE(clash)    DE(int)     intcor
     18.42     -19.39       3.11        0.00      63.51       1.52       0.04       0.92       ----

> <Gold.Chemscore.Fitness>
18.4242

> <Gold.Chemscore.DG>
-19.3884

> <Gold.Chemscore.ZeroCoef>
-5.4800

> <Gold.Chemscore.Hbond>
3.1063

> <Gold.Chemscore.Metal>
0.0000

> <Gold.Chemscore.Lipo>
63.5073

> <Gold.Chemscore.Internal_Hbond>
0.0000

> <Gold.Chemscore.DEClash>
0.0408

> <Gold.Chemscore.DEInternal>
0.9234

> <Gold.Chemscore.Rot>
1.5223

> <Gold.Chemscore.Internal.Correction>
   9.000000E+99

> <Gold.Chemscore.Hbonds>
donor molecule, donor type, donor heavy atom, donor atom, acceptor molecule, acceptor atom, score
      L1  H     3    39       P1 10747  0.92
      L1  H     8    31       P1  7948  0.37
      L1  H    11    32       P1  7948  0.48
      P1  H  7997  8010       L1    16  0.49
      P1  H 10752 10763       L1    17  0.13

> <Gold.Chemscore.Hbond.Weighted>
-10.3752

> <Gold.Chemscore.Metal.Weighted>
-0.0000

> <Gold.Chemscore.Lipo.Weighted>
-7.4304

> <Gold.Chemscore.Internal_Hbond.Weighted>
0.0000

> <Gold.Chemscore.DEClash.Weighted>
0.0408

> <Gold.Chemscore.DEInternal.Weighted>
0.9234

> <Gold.Chemscore.Rot.Weighted>
3.8971

> <Gold.Chemscore.Internal.Correction.Weighted>
   9.000000E+99

> <Gold.Protein.RotatedTorsions>
[ 6907 6896 6895 6894 ] final -107.80 input  -60.11 | X-H torsion
[ 7974 7965 7964 7962 ] final  129.49 input  175.53 | X-H torsion
[ 8008 7997 7996 7995 ] final   91.11 input   59.86 | X-H torsion
[ 10167 10162 10161 10158 ] final  104.28 input  -65.29 | X-H torsion
[ 10718 10713 10712 10709 ] final  -72.10 input   66.30 | X-H torsion
[ 10763 10752 10751 10750 ] final   43.06 input  -60.55 | X-H torsion
[ 11005 11000 10999 10996 ] final  168.12 input  -57.11 | X-H torsion

> <Gold.Protein.ActiveResidues>
 VAL166  LYS551  ARG553  GLY616  TRP617  ASP618  TYR619  PRO620  LYS621  CYS622 
 ASP623  PHE694  ASN695  SER759  ASP760  ASP761  ALA762  ILE779  LEU786  VAL792 
 PHE793  MET794  SER795  GLU796  ALA797  LYS798  CYS799  TRP800  GLU811  SER814 

> <Gold.Protein.RotatedAtoms>
  150.7464  133.9773  159.3564 H   0  0  0  0  0  0  0  0  0  0  0  0  # atno 6907 bound_to 6896
  151.7711  135.0784  160.0369 H   0  0  0  0  0  0  0  0  0  0  0  0  # atno 6908 bound_to 6896
  152.3338  133.5952  159.5864 H   0  0  0  0  0  0  0  0  0  0  0  0  # atno 6909 bound_to 6896
  145.0281  139.4071  143.5164 H   0  0  0  0  0  0  0  0  0  0  0  0  # atno 7974 bound_to 7965
  156.0200  140.3341  155.7028 H   0  0  0  0  0  0  0  0  0  0  0  0  # atno 8008 bound_to 7997
  155.6036  140.0658  157.2743 H   0  0  0  0  0  0  0  0  0  0  0  0  # atno 8009 bound_to 7997
  154.4312  140.1806  156.1187 H   0  0  0  0  0  0  0  0  0  0  0  0  # atno 8010 bound_to 7997
  139.7190  144.7062  151.0903 H   0  0  0  0  0  0  0  0  0  0  0  0  # atno 10167 bound_to 10162
  156.0334  130.4365  150.2542 H   0  0  0  0  0  0  0  0  0  0  0  0  # atno 10718 bound_to 10713
  152.9869  135.6113  154.3049 H   0  0  0  0  0  0  0  0  0  0  0  0  # atno 10763 bound_to 10752
  154.2768  135.2778  155.2716 H   0  0  0  0  0  0  0  0  0  0  0  0  # atno 10764 bound_to 10752
  154.5073  135.5850  153.6634 H   0  0  0  0  0  0  0  0  0  0  0  0  # atno 10765 bound_to 10752
  140.2839  134.7728  157.3782 H   0  0  0  0  0  0  0  0  0  0  0  0  # atno 11005 bound_to 11000
  146.3495  139.9815  142.8695 LP  0  0  0  0  0  0  0  0  0  0  0  0  # atno 17320 bound_to 7965
  145.1807  140.9766  143.4268 LP  0  0  0  0  0  0  0  0  0  0  0  0  # atno 17321 bound_to 7965
  140.7750  143.5191  150.9559 LP  0  0  0  0  0  0  0  0  0  0  0  0  # atno 17342 bound_to 10162
  139.8877  143.6992  152.3149 LP  0  0  0  0  0  0  0  0  0  0  0  0  # atno 17343 bound_to 10162
  157.0643  131.0099  151.3212 LP  0  0  0  0  0  0  0  0  0  0  0  0  # atno 17370 bound_to 10713
  157.5047  130.7901  149.7641 LP  0  0  0  0  0  0  0  0  0  0  0  0  # atno 17371 bound_to 10713
  140.1257  134.5161  155.8146 LP  0  0  0  0  0  0  0  0  0  0  0  0  # atno 17394 bound_to 11000
  141.2158  133.6772  156.6948 LP  0  0  0  0  0  0  0  0  0  0  0  0  # atno 17395 bound_to 11000

$$$$
