AV-unprocessed.smi:2513|AV-procd|sdf|9892|dock1
  -GOLD-   2272013523D 1   1.00000     0.00000
 Structure written by MMmdl.
 35 36  0  0  0  0  0  0  0  0  1 V2000
  151.2269  138.4640  154.5662 C   0  0  0  0  0  0  0  0  0  0  0  0
  150.5745  139.7101  154.7621 O   0  0  0  0  0  0  0  0  0  0  0  0
  149.2820  139.8519  154.2956 C   0  0  0  0  0  0  0  0  0  0  0  0
  148.6346  138.8923  153.4761 C   0  0  0  0  0  0  0  0  0  0  0  0
  147.3149  139.1246  153.0519 C   0  0  0  0  0  0  0  0  0  0  0  0
  146.6856  140.3115  153.4612 C   0  0  0  0  0  0  0  0  0  0  0  0
  147.2889  141.2319  154.2384 N   0  0  0  0  0  0  0  0  0  0  0  0
  148.5622  141.0209  154.6562 C   0  0  0  0  0  0  0  0  0  0  0  0
  149.2676  141.9425  155.4788 N   0  0  0  0  0  0  0  0  0  0  0  0
  149.7240  141.7671  156.7312 C   0  0  0  0  0  0  0  0  0  0  0  0
  149.6017  140.7392  157.3980 O   0  0  0  0  0  0  0  0  0  0  0  0
  150.3410  142.8698  157.1800 N   0  0  0  0  0  0  0  0  0  0  0  0
  150.9503  143.0153  158.4986 C   0  0  1  0  0  0  0  0  0  0  0  0
  151.7258  141.7388  158.8566 C   0  0  0  0  0  0  0  0  0  0  0  0
  152.4810  141.9368  160.1756 C   0  0  0  0  0  0  0  0  0  0  0  0
  153.3425  143.2078  160.1154 C   0  0  0  0  0  0  0  0  0  0  0  0
  152.5248  144.3321  159.8091 O   0  0  0  0  0  0  0  0  0  0  0  0
  151.8955  144.2347  158.5352 C   0  0  0  0  0  0  0  0  0  0  0  0
  152.2317  138.5148  154.9856 H   0  0  0  0  0  0  0  0  0  0  0  0
  151.3244  138.2273  153.5059 H   0  0  0  0  0  0  0  0  0  0  0  0
  150.6994  137.6536  155.0713 H   0  0  0  0  0  0  0  0  0  0  0  0
  149.1226  137.9817  153.1641 H   0  0  0  0  0  0  0  0  0  0  0  0
  146.7979  138.4101  152.4286 H   0  0  0  0  0  0  0  0  0  0  0  0
  145.6719  140.5281  153.1578 H   0  0  0  0  0  0  0  0  0  0  0  0
  149.4437  142.8433  155.0590 H   0  0  0  0  0  0  0  0  0  0  0  0
  150.3948  143.6684  156.5650 H   0  0  0  0  0  0  0  0  0  0  0  0
  150.1642  143.1570  159.2429 H   0  0  0  0  0  0  0  0  0  0  0  0
  151.0478  140.8879  158.9346 H   0  0  0  0  0  0  0  0  0  0  0  0
  152.4384  141.5014  158.0650 H   0  0  0  0  0  0  0  0  0  0  0  0
  151.7682  142.0192  160.9971 H   0  0  0  0  0  0  0  0  0  0  0  0
  153.1041  141.0675  160.3874 H   0  0  0  0  0  0  0  0  0  0  0  0
  153.8286  143.3769  161.0764 H   0  0  0  0  0  0  0  0  0  0  0  0
  154.1344  143.1068  159.3715 H   0  0  0  0  0  0  0  0  0  0  0  0
  152.6531  144.1674  157.7526 H   0  0  0  0  0  0  0  0  0  0  0  0
  151.3377  145.1546  158.3572 H   0  0  0  0  0  0  0  0  0  0  0  0
  1  2  1  0  0  0  0
  1 19  1  0  0  0  0
  1 20  1  0  0  0  0
  1 21  1  0  0  0  0
  2  3  1  0  0  0  0
  3  8  1  0  0  0  0
  3  4  2  0  0  0  0
  4  5  1  0  0  0  0
  4 22  1  0  0  0  0
  5  6  2  0  0  0  0
  5 23  1  0  0  0  0
  6  7  1  0  0  0  0
  6 24  1  0  0  0  0
  7  8  2  0  0  0  0
  8  9  1  0  0  0  0
  9 10  1  0  0  0  0
  9 25  1  0  0  0  0
 10 11  2  0  0  0  0
 10 12  1  0  0  0  0
 12 13  1  0  0  0  0
 12 26  1  0  0  0  0
 13 18  1  0  0  0  0
 13 14  1  0  0  0  0
 13 27  1  0  0  0  0
 14 15  1  0  0  0  0
 14 28  1  0  0  0  0
 14 29  1  0  0  0  0
 15 16  1  0  0  0  0
 15 30  1  0  0  0  0
 15 31  1  0  0  0  0
 16 17  1  0  0  0  0
 16 32  1  0  0  0  0
 16 33  1  0  0  0  0
 17 18  1  0  0  0  0
 18 34  1  0  0  0  0
 18 35  1  0  0  0  0
M  END
> <s_m_source_file>
AV-unprocessed.smi

> <i_m_source_file_index>
2513

> <i_lp_mmshare_version>
43012

> <i_f3d_flags>
0

> <s_epik_input>
W0NIM11PYzFbY0hdW2NIXVtjSF1uYzFbTkhdQyg9TylbTkhdW0NAQEhdMltDSDJdW0NIMl1bQ0gyXU9bQ0gyXTI=

> <s_epik_cmdline>
J2VwaWtfcHl0aG9uJywgJy1waCcsICc3LjAnLCAnLXRuJywgJzgnLCAnLW1hJywgJzIwMCcsICctbWV0YWxfYmluZGluZycsICctaW1hZScsICc8aW5maWxlLm1hZT4nLCAnLW9tYWUnLCAnPG91dGZpbGUubWFlPic=

> <r_lp_tautomer_probability>
1

> <r_epik_Ionization_Penalty>
3.98976e-05

> <r_epik_Ionization_Penalty_Charging>
0

> <r_epik_Ionization_Penalty_Neutral>
3.98976e-05

> <r_epik_State_Penalty>
-0

> <r_epik_Charging_Adjusted_Penalty>
0

> <i_epik_Tot_Q>
0

> <i_epik_Tot_abs_Q>
0

> <r_epik_Metal_State_Penalty>
-0

> <b_epik_Metal_Only>
0

> <s_lp_Force_Field>
OPLS_2005

> <r_lp_Energy>
12.9865

> <b_lp_Chiralities_Consistent>
1

> <s_lp_Variant>
AV-unprocessed.smi:2513-2

> <Gold.Version>
5.8.1

> <Gold.Id.Protein>
6NUR|6NUR_protein|mol2

> <Gold.PLP.Fitness>
38.1721

> <Gold.PLP.PLP>
-30.1795

> <Gold.PLP.part.hbond>
-3.0000

> <Gold.PLP.part.metal>
0.0000

> <Gold.PLP.part.buried>
1.1484

> <Gold.PLP.part.nonpolar>
-28.8436

> <Gold.PLP.part.repulsive>
0.4346

> <Gold.PLP.ligand.clash>
0.0000

> <Gold.PLP.ligand.torsion>
0.9014

> <Gold.PLP.Chemscore.Hbond>
2.2640

> <Gold.PLP.Chemscore.CHOScore>
1.0000

> <Gold.PLP.Chemscore.Metal>
0.0000

> <Gold.Chemscore.Hbonds>
donor molecule, donor type, donor heavy atom, donor atom, acceptor molecule, acceptor atom, score
      L1  H     9    25       P1  8028  0.61
      L1  H    12    26       P1  8028  0.59
      P1  H  7989  7998       L1     2  1.00
      L1  C     6    24       P1 10175  1.00

> <Gold.PLP.Chemscore.Internal.Correction>
0.0035

> <Gold.Rescore>
     Score         DG    S(hbond)    S(metal)    S(lipo)     H(rot)  DE(clash)    DE(int)     intcor
     14.17     -17.21       1.46        0.00      85.92       1.25       0.13       2.91       ----

> <Gold.Chemscore.Fitness>
14.1722

> <Gold.Chemscore.DG>
-17.2103

> <Gold.Chemscore.ZeroCoef>
-5.4800

> <Gold.Chemscore.Hbond>
1.4637

> <Gold.Chemscore.Metal>
0.0000

> <Gold.Chemscore.Lipo>
85.9174

> <Gold.Chemscore.Internal_Hbond>
0.0000

> <Gold.Chemscore.DEClash>
0.1279

> <Gold.Chemscore.DEInternal>
2.9103

> <Gold.Chemscore.Rot>
1.2542

> <Gold.Chemscore.Internal.Correction>
   9.000000E+99

> <Gold.Chemscore.Hbonds>
donor molecule, donor type, donor heavy atom, donor atom, acceptor molecule, acceptor atom, score
      L1  H     9    25       P1  8028  0.57
      L1  H    12    26       P1  8028  0.55
      P1  H  7989  7998       L1     2  0.10

> <Gold.Chemscore.Hbond.Weighted>
-4.8887

> <Gold.Chemscore.Metal.Weighted>
-0.0000

> <Gold.Chemscore.Lipo.Weighted>
-10.0523

> <Gold.Chemscore.Internal_Hbond.Weighted>
0.0000

> <Gold.Chemscore.DEClash.Weighted>
0.1279

> <Gold.Chemscore.DEInternal.Weighted>
2.9103

> <Gold.Chemscore.Rot.Weighted>
3.2107

> <Gold.Chemscore.Internal.Correction.Weighted>
   9.000000E+99

> <Gold.Protein.RotatedTorsions>
[ 6907 6896 6895 6894 ] final  -39.26 input  -60.11 | X-H torsion
[ 7974 7965 7964 7962 ] final   34.59 input  175.53 | X-H torsion
[ 8008 7997 7996 7995 ] final  -45.92 input   59.86 | X-H torsion
[ 10167 10162 10161 10158 ] final  146.74 input  -65.29 | X-H torsion
[ 10718 10713 10712 10709 ] final  144.04 input   66.30 | X-H torsion
[ 10763 10752 10751 10750 ] final   41.35 input  -60.55 | X-H torsion
[ 11005 11000 10999 10996 ] final   75.76 input  -57.11 | X-H torsion

> <Gold.Protein.ActiveResidues>
 VAL166  LYS551  ARG553  GLY616  TRP617  ASP618  TYR619  PRO620  LYS621  CYS622 
 ASP623  PHE694  ASN695  SER759  ASP760  ASP761  ALA762  ILE779  LEU786  VAL792 
 PHE793  MET794  SER795  GLU796  ALA797  LYS798  CYS799  TRP800  GLU811  SER814 

> <Gold.Protein.RotatedAtoms>
  150.9924  134.9256  159.7907 H   0  0  0  0  0  0  0  0  0  0  0  0  # atno 6907 bound_to 6896
  152.5255  134.3263  159.9176 H   0  0  0  0  0  0  0  0  0  0  0  0  # atno 6908 bound_to 6896
  151.3269  133.3975  159.2693 H   0  0  0  0  0  0  0  0  0  0  0  0  # atno 6909 bound_to 6896
  146.1342  139.6249  142.9206 H   0  0  0  0  0  0  0  0  0  0  0  0  # atno 7974 bound_to 7965
  154.4004  140.1384  156.3927 H   0  0  0  0  0  0  0  0  0  0  0  0  # atno 8008 bound_to 7997
  155.7899  140.3479  155.5323 H   0  0  0  0  0  0  0  0  0  0  0  0  # atno 8009 bound_to 7997
  155.8589  140.0953  157.1616 H   0  0  0  0  0  0  0  0  0  0  0  0  # atno 8010 bound_to 7997
  139.4902  144.5807  151.6877 H   0  0  0  0  0  0  0  0  0  0  0  0  # atno 10167 bound_to 10162
  157.3619  131.0966  151.0908 H   0  0  0  0  0  0  0  0  0  0  0  0  # atno 10718 bound_to 10713
  152.9910  135.6164  154.2774 H   0  0  0  0  0  0  0  0  0  0  0  0  # atno 10763 bound_to 10752
  154.2504  135.2785  155.2820 H   0  0  0  0  0  0  0  0  0  0  0  0  # atno 10764 bound_to 10752
  154.5293  135.5793  153.6803 H   0  0  0  0  0  0  0  0  0  0  0  0  # atno 10765 bound_to 10752
  139.9329  134.7545  156.1311 H   0  0  0  0  0  0  0  0  0  0  0  0  # atno 11005 bound_to 11000
  145.5193  141.0432  143.2444 LP  0  0  0  0  0  0  0  0  0  0  0  0  # atno 17320 bound_to 7965
  144.7722  139.6709  143.7190 LP  0  0  0  0  0  0  0  0  0  0  0  0  # atno 17321 bound_to 7965
  140.5412  144.0575  150.6089 LP  0  0  0  0  0  0  0  0  0  0  0  0  # atno 17342 bound_to 10162
  140.3598  143.2914  152.0396 LP  0  0  0  0  0  0  0  0  0  0  0  0  # atno 17343 bound_to 10162
  157.2044  130.6409  149.5750 LP  0  0  0  0  0  0  0  0  0  0  0  0  # atno 17370 bound_to 10713
  155.9739  130.4680  150.6345 LP  0  0  0  0  0  0  0  0  0  0  0  0  # atno 17371 bound_to 10713
  141.0927  133.6708  156.2576 LP  0  0  0  0  0  0  0  0  0  0  0  0  # atno 17394 bound_to 11000
  140.6154  134.5416  157.5540 LP  0  0  0  0  0  0  0  0  0  0  0  0  # atno 17395 bound_to 11000

$$$$
