AV-unprocessed.smi:54|AV-procd|sdf|535|dock8
  -GOLD-   2262016413D 1   1.00000     0.00000
 Structure written by MMmdl.
 44 46  0  0  0  0  0  0  0  0  1 V2000
  151.3248  144.0853  161.1731 C   0  0  0  0  0  0  0  0  0  0  0  0
  152.0088  144.0699  159.7963 C   0  0  0  0  0  0  0  0  0  0  0  0
  151.2566  144.9541  158.7886 C   0  0  0  0  0  0  0  0  0  0  0  0
  152.1287  142.6353  159.2714 C   0  0  0  0  0  0  0  0  0  0  0  0
  152.7666  141.7688  159.8700 O   0  0  0  0  0  0  0  0  0  0  0  0
  151.4304  142.3587  158.0320 N   0  0  0  0  0  0  0  0  0  0  0  0
  151.4173  141.1759  157.3802 C   0  0  0  0  0  0  0  0  0  0  0  0
  150.8054  141.0181  156.2160 N   0  0  0  0  0  0  0  0  0  0  0  0
  150.8744  139.7546  155.6940 C   0  0  0  0  0  0  0  0  0  0  0  0
  151.5085  138.6739  156.2769 C   0  0  0  0  0  0  0  0  0  0  0  0
  151.3942  137.5519  155.4677 N   0  0  0  0  0  0  0  0  0  0  0  0
  150.7062  137.9722  154.4456 C   0  0  0  0  0  0  0  0  0  0  0  0
  150.3247  139.2916  154.5068 N   0  0  0  0  0  0  0  0  0  0  0  0
  149.5310  140.0266  153.4601 C   0  0  2  0  0  0  0  0  0  0  0  0
  149.1651  141.2716  153.9647 O   0  0  0  0  0  0  0  0  0  0  0  0
  147.8363  141.2263  154.4648 C   0  0  1  0  0  0  0  0  0  0  0  0
  147.2207  142.6334  154.4336 C   0  0  0  0  0  0  0  0  0  0  0  0
  147.7995  143.3959  153.3963 O   0  0  0  0  0  0  0  0  0  0  0  0
  147.1361  140.2390  153.5176 C   0  0  2  0  0  0  0  0  0  0  0  0
  146.1318  139.5239  154.2080 O   0  0  0  0  0  0  0  0  0  0  0  0
  148.2440  139.2951  153.0432 C   0  0  1  0  0  0  0  0  0  0  0  0
  148.1777  139.1389  151.6397 O   0  0  0  0  0  0  0  0  0  0  0  0
  152.1575  138.8253  157.5478 C   0  0  0  0  0  0  0  0  0  0  0  0
  152.7522  137.9739  158.2055 O   0  0  0  0  0  0  0  0  0  0  0  0
  152.0579  140.1309  158.0408 N   0  0  0  0  0  0  0  0  0  0  0  0
  150.2389  140.1533  152.6396 H   0  0  0  0  0  0  0  0  0  0  0  0
  147.8483  140.8437  155.4844 H   0  0  0  0  0  0  0  0  0  0  0  0
  146.6950  140.7744  152.6749 H   0  0  0  0  0  0  0  0  0  0  0  0
  148.1953  138.3074  153.5012 H   0  0  0  0  0  0  0  0  0  0  0  0
  151.8482  143.4450  161.8843 H   0  0  0  0  0  0  0  0  0  0  0  0
  150.2920  143.7393  161.1122 H   0  0  0  0  0  0  0  0  0  0  0  0
  151.3107  145.0926  161.5895 H   0  0  0  0  0  0  0  0  0  0  0  0
  153.0154  144.4733  159.9161 H   0  0  0  0  0  0  0  0  0  0  0  0
  151.7383  144.9396  157.8102 H   0  0  0  0  0  0  0  0  0  0  0  0
  151.2316  145.9911  159.1242 H   0  0  0  0  0  0  0  0  0  0  0  0
  150.2249  144.6249  158.6571 H   0  0  0  0  0  0  0  0  0  0  0  0
  150.8482  143.0977  157.6660 H   0  0  0  0  0  0  0  0  0  0  0  0
  150.4492  137.3243  153.6201 H   0  0  0  0  0  0  0  0  0  0  0  0
  146.1372  142.5915  154.3174 H   0  0  0  0  0  0  0  0  0  0  0  0
  147.4270  143.1512  155.3709 H   0  0  0  0  0  0  0  0  0  0  0  0
  148.3780  144.0365  153.7809 H   0  0  0  0  0  0  0  0  0  0  0  0
  146.2759  138.5993  154.0703 H   0  0  0  0  0  0  0  0  0  0  0  0
  148.5485  138.2996  151.4138 H   0  0  0  0  0  0  0  0  0  0  0  0
  152.4954  140.3132  158.9320 H   0  0  0  0  0  0  0  0  0  0  0  0
  1  2  1  0  0  0  0
  1 30  1  0  0  0  0
  1 31  1  0  0  0  0
  1 32  1  0  0  0  0
  2  3  1  0  0  0  0
  2  4  1  0  0  0  0
  2 33  1  0  0  0  0
  3 34  1  0  0  0  0
  3 35  1  0  0  0  0
  3 36  1  0  0  0  0
  4  5  2  0  0  0  0
  4  6  1  0  0  0  0
  6 37  1  0  0  0  0
  6  7  1  0  0  0  0
  7 25  1  0  0  0  0
  7  8  2  0  0  0  0
  8  9  1  0  0  0  0
  9 13  1  0  0  0  0
  9 10  2  0  0  0  0
 10 11  1  0  0  0  0
 10 23  1  0  0  0  0
 11 12  2  0  0  0  0
 12 13  1  0  0  0  0
 12 38  1  0  0  0  0
 13 14  1  0  0  0  0
 14 26  1  0  0  0  0
 14 21  1  0  0  0  0
 14 15  1  0  0  0  0
 15 16  1  0  0  0  0
 16 27  1  0  0  0  0
 16 17  1  0  0  0  0
 16 19  1  0  0  0  0
 17 18  1  0  0  0  0
 17 39  1  0  0  0  0
 17 40  1  0  0  0  0
 18 41  1  0  0  0  0
 19 28  1  0  0  0  0
 19 20  1  0  0  0  0
 19 21  1  0  0  0  0
 20 42  1  0  0  0  0
 21 29  1  0  0  0  0
 21 22  1  0  0  0  0
 22 43  1  0  0  0  0
 23 24  2  0  0  0  0
 23 25  1  0  0  0  0
 25 44  1  0  0  0  0
M  END
> <s_m_source_file>
AV-unprocessed.smi

> <i_m_source_file_index>
54

> <i_lp_mmshare_version>
43012

> <i_f3d_flags>
0

> <s_epik_input>
W0NIM11bQ0hdKFtDSDNdKUMoPU8pW05IXWMobjEpW25IXWMoPU8pYyhjMTIpbltjSF1uMltDQEBIXTNPW0NASF0oW0NIMl1bT0hdKVtDQEBIXShbT0hdKVtDQEhdM1tPSF0=

> <s_epik_cmdline>
J2VwaWtfcHl0aG9uJywgJy1waCcsICc3LjAnLCAnLXRuJywgJzgnLCAnLW1hJywgJzIwMCcsICctbWV0YWxfYmluZGluZycsICctaW1hZScsICc8aW5maWxlLm1hZT4nLCAnLW9tYWUnLCAnPG91dGZpbGUubWFlPic=

> <r_lp_tautomer_probability>
0.85571

> <r_epik_Ionization_Penalty>
0.0316551

> <r_epik_Ionization_Penalty_Charging>
0.0316043

> <r_epik_Ionization_Penalty_Neutral>
5.07097e-05

> <r_epik_State_Penalty>
3.15494e-07

> <r_epik_Charging_Adjusted_Penalty>
0.0316047

> <i_epik_Tot_Q>
0

> <i_epik_Tot_abs_Q>
0

> <r_epik_Metal_State_Penalty>
0.421206

> <b_epik_Metal_Only>
0

> <s_epik_Chemistry_Notes>
This compound contains an acetal/aminal-like group ( X-CH(R)-Y where X, Y are N, S, or O) that may be acid/base labile, releasing an aldehyde.

> <s_lp_Force_Field>
OPLS_2005

> <r_lp_Energy>
37.5812

> <b_lp_Chiralities_Consistent>
1

> <s_lp_Variant>
AV-unprocessed.smi:54-7

> <Gold.Version>
5.8.1

> <Gold.Id.Protein>
6NUR|6NUR_protein|mol2

> <Gold.PLP.Fitness>
46.7504

> <Gold.PLP.PLP>
-40.0365

> <Gold.PLP.part.hbond>
-4.1795

> <Gold.PLP.part.metal>
0.0000

> <Gold.PLP.part.buried>
-1.8233

> <Gold.PLP.part.nonpolar>
-34.6766

> <Gold.PLP.part.repulsive>
0.4654

> <Gold.PLP.ligand.clash>
1.4808

> <Gold.PLP.ligand.torsion>
0.5880

> <Gold.PLP.Chemscore.Hbond>
2.0006

> <Gold.PLP.Chemscore.CHOScore>
1.1112

> <Gold.PLP.Chemscore.Metal>
0.0000

> <Gold.Chemscore.Hbonds>
donor molecule, donor type, donor heavy atom, donor atom, acceptor molecule, acceptor atom, score
      L1  H    18    41       P1  8028  0.78
      L1  H    22    43       P1  7948  0.83
      P1  H  8011  8017       L1    15  0.62
      L1  C    12    38       P1  7948  0.74
      L1  C    12    38       P1  7949  0.39

> <Gold.PLP.Chemscore.Internal.Correction>
0.0352

> <Gold.Rescore>
     Score         DG    S(hbond)    S(metal)    S(lipo)     H(rot)  DE(clash)    DE(int)     intcor
      6.81     -11.23       2.61        0.00      63.39       4.05       2.30       2.12       ----

> <Gold.Chemscore.Fitness>
6.8128

> <Gold.Chemscore.DG>
-11.2330

> <Gold.Chemscore.ZeroCoef>
-5.4800

> <Gold.Chemscore.Hbond>
2.6055

> <Gold.Chemscore.Metal>
0.0000

> <Gold.Chemscore.Lipo>
63.3933

> <Gold.Chemscore.Internal_Hbond>
0.0000

> <Gold.Chemscore.DEClash>
2.3017

> <Gold.Chemscore.DEInternal>
2.1185

> <Gold.Chemscore.Rot>
4.0493

> <Gold.Chemscore.Internal.Correction>
   9.000000E+99

> <Gold.Chemscore.Hbonds>
donor molecule, donor type, donor heavy atom, donor atom, acceptor molecule, acceptor atom, score
      L1  H    18    41       P1  8028  0.62
      L1  H    22    43       P1  7948  0.72
      P1  H  8011  8017       L1    15  0.12

> <Gold.Chemscore.Hbond.Weighted>
-8.7023

> <Gold.Chemscore.Metal.Weighted>
-0.0000

> <Gold.Chemscore.Lipo.Weighted>
-7.4170

> <Gold.Chemscore.Internal_Hbond.Weighted>
0.0000

> <Gold.Chemscore.DEClash.Weighted>
2.3017

> <Gold.Chemscore.DEInternal.Weighted>
2.1185

> <Gold.Chemscore.Rot.Weighted>
10.3662

> <Gold.Chemscore.Internal.Correction.Weighted>
   9.000000E+99

> <Gold.Protein.RotatedTorsions>
[ 6907 6896 6895 6894 ] final    0.22 input  -60.11 | X-H torsion
[ 7974 7965 7964 7962 ] final  163.08 input  175.53 | X-H torsion
[ 8008 7997 7996 7995 ] final -110.96 input   59.86 | X-H torsion
[ 10167 10162 10161 10158 ] final  -62.33 input  -65.29 | X-H torsion
[ 10718 10713 10712 10709 ] final   92.29 input   66.30 | X-H torsion
[ 10763 10752 10751 10750 ] final  -45.69 input  -60.55 | X-H torsion
[ 11005 11000 10999 10996 ] final   12.35 input  -57.11 | X-H torsion

> <Gold.Protein.ActiveResidues>
 VAL166  LYS551  ARG553  GLY616  TRP617  ASP618  TYR619  PRO620  LYS621  CYS622 
 ASP623  PHE694  ASN695  SER759  ASP760  ASP761  ALA762  ILE779  LEU786  VAL792 
 PHE793  MET794  SER795  GLU796  ALA797  LYS798  CYS799  TRP800  GLU811  SER814 

> <Gold.Protein.RotatedAtoms>
  151.5730  135.1062  159.9999 H   0  0  0  0  0  0  0  0  0  0  0  0  # atno 6907 bound_to 6896
  152.4391  133.7412  159.6652 H   0  0  0  0  0  0  0  0  0  0  0  0  # atno 6908 bound_to 6896
  150.8294  133.8047  159.3128 H   0  0  0  0  0  0  0  0  0  0  0  0  # atno 6909 bound_to 6896
  144.7606  139.8131  143.6334 H   0  0  0  0  0  0  0  0  0  0  0  0  # atno 7974 bound_to 7965
  154.9825  140.0396  157.2284 H   0  0  0  0  0  0  0  0  0  0  0  0  # atno 8008 bound_to 7997
  154.7701  140.2800  155.6122 H   0  0  0  0  0  0  0  0  0  0  0  0  # atno 8009 bound_to 7997
  156.2919  140.2611  156.2502 H   0  0  0  0  0  0  0  0  0  0  0  0  # atno 8010 bound_to 7997
  140.5946  143.2348  151.6064 H   0  0  0  0  0  0  0  0  0  0  0  0  # atno 10167 bound_to 10162
  157.6959  131.0438  150.3859 H   0  0  0  0  0  0  0  0  0  0  0  0  # atno 10718 bound_to 10713
  154.0327  135.6654  153.4782 H   0  0  0  0  0  0  0  0  0  0  0  0  # atno 10763 bound_to 10752
  153.0534  135.5071  154.7918 H   0  0  0  0  0  0  0  0  0  0  0  0  # atno 10764 bound_to 10752
  154.6868  135.3054  154.9501 H   0  0  0  0  0  0  0  0  0  0  0  0  # atno 10765 bound_to 10752
  140.4930  134.0821  155.7775 H   0  0  0  0  0  0  0  0  0  0  0  0  # atno 11005 bound_to 11000
  146.1665  139.4799  142.9955 LP  0  0  0  0  0  0  0  0  0  0  0  0  # atno 17320 bound_to 7965
  145.6631  141.0235  143.1698 LP  0  0  0  0  0  0  0  0  0  0  0  0  # atno 17321 bound_to 7965
  139.5250  144.3088  152.1010 LP  0  0  0  0  0  0  0  0  0  0  0  0  # atno 17342 bound_to 10162
  140.2258  144.4419  150.6321 LP  0  0  0  0  0  0  0  0  0  0  0  0  # atno 17343 bound_to 10162
  156.4268  130.3964  149.6787 LP  0  0  0  0  0  0  0  0  0  0  0  0  # atno 17370 bound_to 10713
  156.4019  130.7679  151.2687 LP  0  0  0  0  0  0  0  0  0  0  0  0  # atno 17371 bound_to 10713
  141.1474  133.9030  157.2181 LP  0  0  0  0  0  0  0  0  0  0  0  0  # atno 17394 bound_to 11000
  139.9758  135.0114  156.9627 LP  0  0  0  0  0  0  0  0  0  0  0  0  # atno 17395 bound_to 11000

$$$$
