AV-unprocessed.smi:1718|AV-procd|sdf|6929|dock9
  -GOLD-   22720 8143D 1   1.00000     0.00000
 Structure written by MMmdl.
 39 40  0  0  0  0  0  0  0  0  2 V2000
  147.8543  140.3552  155.8092 C   0  0  0  0  0  0  0  0  0  0  0  0
  149.1233  139.5838  156.2015 C   0  0  1  0  0  0  0  0  0  0  0  0
  149.6914  140.2366  157.3332 O   0  0  0  0  0  0  0  0  0  0  0  0
  150.7650  141.1260  157.0478 C   0  0  0  0  0  0  0  0  0  0  0  0
  150.8761  142.1455  158.1870 C   0  0  1  0  0  0  0  0  0  0  0  0
  152.0264  141.8733  159.1561 C   0  0  0  0  0  0  0  0  0  0  0  0
  152.3038  143.2572  159.6961 C   0  0  0  0  0  0  0  0  0  0  0  0
  152.1054  144.1181  158.4525 C   0  0  0  0  0  0  0  0  0  0  0  0
  151.1217  143.4500  157.6667 O   0  0  0  0  0  0  0  0  0  0  0  0
  148.8063  138.1182  156.5406 C   0  0  0  0  0  0  0  0  0  0  0  0
  148.3669  137.3757  155.6625 O   0  0  0  0  0  0  0  0  0  0  0  0
  149.0449  137.7575  157.8166 N   0  0  0  0  0  0  0  0  0  0  0  0
  148.8128  136.5272  158.4539 C   0  0  0  0  0  0  0  0  0  0  0  0
  148.1744  136.3804  159.6477 C   0  0  0  0  0  0  0  0  0  0  0  0
  147.9767  135.0781  160.2715 C   0  0  0  0  0  0  0  0  0  0  0  0
  147.1797  134.8663  161.5466 C   0  0  0  0  0  0  0  0  0  0  0  0
  147.0789  133.5693  161.8390 F   0  0  0  0  0  0  0  0  0  0  0  0
  147.7833  135.4760  162.5657 F   0  0  0  0  0  0  0  0  0  0  0  0
  145.9502  135.3683  161.4309 F   0  0  0  0  0  0  0  0  0  0  0  0
  148.5015  134.0491  159.5139 C   0  0  0  0  0  0  0  0  0  0  0  0
  149.1720  134.1111  158.3426 N   0  5  0  0  0  0  0  0  0  0  0  0
  149.3499  135.3341  157.7676 C   0  0  0  0  0  0  0  0  0  0  0  0
  149.9452  135.4625  156.6972 O   0  0  0  0  0  0  0  0  0  0  0  0
  147.3562  139.8912  154.9573 H   0  0  0  0  0  0  0  0  0  0  0  0
  148.0969  141.3804  155.5296 H   0  0  0  0  0  0  0  0  0  0  0  0
  147.1404  140.3997  156.6325 H   0  0  0  0  0  0  0  0  0  0  0  0
  149.8242  139.6310  155.3656 H   0  0  0  0  0  0  0  0  0  0  0  0
  151.7119  140.5979  156.9310 H   0  0  0  0  0  0  0  0  0  0  0  0
  150.5638  141.6431  156.1086 H   0  0  0  0  0  0  0  0  0  0  0  0
  149.9371  142.1901  158.7411 H   0  0  0  0  0  0  0  0  0  0  0  0
  151.7667  141.1532  159.9325 H   0  0  0  0  0  0  0  0  0  0  0  0
  152.9019  141.4996  158.6232 H   0  0  0  0  0  0  0  0  0  0  0  0
  151.5667  143.5175  160.4572 H   0  0  0  0  0  0  0  0  0  0  0  0
  153.2981  143.3586  160.1316 H   0  0  0  0  0  0  0  0  0  0  0  0
  151.7988  145.1357  158.6953 H   0  0  0  0  0  0  0  0  0  0  0  0
  153.0300  144.1708  157.8762 H   0  0  0  0  0  0  0  0  0  0  0  0
  149.4813  138.4537  158.4037 H   0  0  0  0  0  0  0  0  0  0  0  0
  147.8100  137.2384  160.1886 H   0  0  0  0  0  0  0  0  0  0  0  0
  148.3555  133.0197  159.9053 H   0  0  0  0  0  0  0  0  0  0  0  0
  1  2  1  0  0  0  0
  1 24  1  0  0  0  0
  1 25  1  0  0  0  0
  1 26  1  0  0  0  0
  2  3  1  0  0  0  0
  2 10  1  0  0  0  0
  2 27  1  0  0  0  0
  3  4  1  0  0  0  0
  4  5  1  0  0  0  0
  4 28  1  0  0  0  0
  4 29  1  0  0  0  0
  5  9  1  0  0  0  0
  5  6  1  0  0  0  0
  5 30  1  0  0  0  0
  6  7  1  0  0  0  0
  6 31  1  0  0  0  0
  6 32  1  0  0  0  0
  7  8  1  0  0  0  0
  7 33  1  0  0  0  0
  7 34  1  0  0  0  0
  8  9  1  0  0  0  0
  8 35  1  0  0  0  0
  8 36  1  0  0  0  0
 10 11  2  0  0  0  0
 10 12  1  0  0  0  0
 12 13  1  0  0  0  0
 12 37  1  0  0  0  0
 13 22  1  0  0  0  0
 13 14  2  0  0  0  0
 14 15  1  0  0  0  0
 14 38  1  0  0  0  0
 15 16  1  0  0  0  0
 15 20  2  0  0  0  0
 16 17  1  0  0  0  0
 16 18  1  0  0  0  0
 16 19  1  0  0  0  0
 20 21  1  0  0  0  0
 20 39  1  0  0  0  0
 21 22  1  0  0  0  0
 22 23  2  0  0  0  0
M  CHG  1  21  -1
M  END
> <s_m_source_file>
AV-unprocessed.smi

> <i_m_source_file_index>
1718

> <i_lp_mmshare_version>
43012

> <i_f3d_flags>
0

> <s_epik_input>
TzFbQ0gyXVtDSDJdW0NIMl1bQ0BIXTFbQ0gyXU9bQ0BASF0oW0NIM10pQyg9TylbTkhdYzJbY0hdYyhDKEYpKEYpRilbY0hdW25IXWMyPU8=

> <s_epik_cmdline>
J2VwaWtfcHl0aG9uJywgJy1waCcsICc3LjAnLCAnLXRuJywgJzgnLCAnLW1hJywgJzIwMCcsICctbWV0YWxfYmluZGluZycsICctaW1hZScsICc8aW5maWxlLm1hZT4nLCAnLW9tYWUnLCAnPG91dGZpbGUubWFlPic=

> <r_epik_Ionization_Penalty>
2.5466

> <r_epik_Ionization_Penalty_Charging>
0.0575837

> <r_epik_Ionization_Penalty_Neutral>
2.48901

> <r_epik_State_Penalty>
2.6532

> <r_epik_Charging_Adjusted_Penalty>
2.71078

> <i_epik_Tot_Q>
-1

> <i_epik_Tot_abs_Q>
1

> <r_epik_Metal_State_Penalty>
0.516196

> <b_epik_Metal_Only>
0

> <s_lp_Force_Field>
OPLS_2005

> <r_lp_Energy>
35.9934

> <b_lp_Chiralities_Consistent>
1

> <s_lp_Variant>
AV-unprocessed.smi:1718-8

> <Gold.Version>
5.8.1

> <Gold.Id.Protein>
6NUR|6NUR_protein|mol2

> <Gold.PLP.Fitness>
41.2298

> <Gold.PLP.PLP>
-38.6708

> <Gold.PLP.part.hbond>
-1.0000

> <Gold.PLP.part.metal>
0.0000

> <Gold.PLP.part.buried>
-4.8721

> <Gold.PLP.part.nonpolar>
-33.8515

> <Gold.PLP.part.repulsive>
0.3125

> <Gold.PLP.ligand.clash>
0.0000

> <Gold.PLP.ligand.torsion>
1.7860

> <Gold.PLP.Chemscore.Hbond>
2.0000

> <Gold.PLP.Chemscore.CHOScore>
0.0000

> <Gold.PLP.Chemscore.Metal>
0.0000

> <Gold.Chemscore.Hbonds>
donor molecule, donor type, donor heavy atom, donor atom, acceptor molecule, acceptor atom, score
      P1  H  6896  6908       L1    21  0.54

> <Gold.PLP.Chemscore.Internal.Correction>
0.1310

> <Gold.Rescore>
     Score         DG    S(hbond)    S(metal)    S(lipo)     H(rot)  DE(clash)    DE(int)     intcor
      9.37     -11.69       0.28        0.00      85.35       1.85       0.07       2.25       ----

> <Gold.Chemscore.Fitness>
9.3700

> <Gold.Chemscore.DG>
-11.6914

> <Gold.Chemscore.ZeroCoef>
-5.4800

> <Gold.Chemscore.Hbond>
0.2844

> <Gold.Chemscore.Metal>
0.0000

> <Gold.Chemscore.Lipo>
85.3506

> <Gold.Chemscore.Internal_Hbond>
0.0000

> <Gold.Chemscore.DEClash>
0.0730

> <Gold.Chemscore.DEInternal>
2.2485

> <Gold.Chemscore.Rot>
1.8455

> <Gold.Chemscore.Internal.Correction>
   9.000000E+99

> <Gold.Chemscore.Hbond.Weighted>
-0.9499

> <Gold.Chemscore.Metal.Weighted>
-0.0000

> <Gold.Chemscore.Lipo.Weighted>
-9.9860

> <Gold.Chemscore.Internal_Hbond.Weighted>
0.0000

> <Gold.Chemscore.DEClash.Weighted>
0.0730

> <Gold.Chemscore.DEInternal.Weighted>
2.2485

> <Gold.Chemscore.Rot.Weighted>
4.7245

> <Gold.Chemscore.Internal.Correction.Weighted>
   9.000000E+99

> <Gold.Protein.RotatedTorsions>
[ 6907 6896 6895 6894 ] final  138.89 input  -60.11 | X-H torsion
[ 7974 7965 7964 7962 ] final -101.94 input  175.53 | X-H torsion
[ 8008 7997 7996 7995 ] final   53.16 input   59.86 | X-H torsion
[ 10167 10162 10161 10158 ] final  132.13 input  -65.29 | X-H torsion
[ 10718 10713 10712 10709 ] final   92.91 input   66.30 | X-H torsion
[ 10763 10752 10751 10750 ] final  -62.66 input  -60.55 | X-H torsion
[ 11005 11000 10999 10996 ] final -156.92 input  -57.11 | X-H torsion

> <Gold.Protein.ActiveResidues>
 VAL166  LYS551  ARG553  GLY616  TRP617  ASP618  TYR619  PRO620  LYS621  CYS622 
 ASP623  PHE694  ASN695  SER759  ASP760  ASP761  ALA762  ILE779  LEU786  VAL792 
 PHE793  MET794  SER795  GLU796  ALA797  LYS798  CYS799  TRP800  GLU811  SER814 

> <Gold.Protein.RotatedAtoms>
  152.2613  133.5300  159.5383 H   0  0  0  0  0  0  0  0  0  0  0  0  # atno 6907 bound_to 6896
  150.7126  134.0826  159.3912 H   0  0  0  0  0  0  0  0  0  0  0  0  # atno 6908 bound_to 6896
  151.8743  135.0477  160.0533 H   0  0  0  0  0  0  0  0  0  0  0  0  # atno 6909 bound_to 6896
  145.2751  140.9310  143.2964 H   0  0  0  0  0  0  0  0  0  0  0  0  # atno 7974 bound_to 7965
  155.4636  140.3462  155.4316 H   0  0  0  0  0  0  0  0  0  0  0  0  # atno 8008 bound_to 7997
  156.1145  140.1470  156.9321 H   0  0  0  0  0  0  0  0  0  0  0  0  # atno 8009 bound_to 7997
  154.4779  140.0879  156.7286 H   0  0  0  0  0  0  0  0  0  0  0  0  # atno 8010 bound_to 7997
  139.5353  144.6675  151.4808 H   0  0  0  0  0  0  0  0  0  0  0  0  # atno 10167 bound_to 10162
  157.6957  131.0460  150.3954 H   0  0  0  0  0  0  0  0  0  0  0  0  # atno 10718 bound_to 10713
  154.3032  135.6230  153.5433 H   0  0  0  0  0  0  0  0  0  0  0  0  # atno 10763 bound_to 10752
  152.9838  135.5683  154.5261 H   0  0  0  0  0  0  0  0  0  0  0  0  # atno 10764 bound_to 10752
  154.4895  135.2866  155.1484 H   0  0  0  0  0  0  0  0  0  0  0  0  # atno 10765 bound_to 10752
  140.6703  134.4255  157.5232 H   0  0  0  0  0  0  0  0  0  0  0  0  # atno 11005 bound_to 11000
  144.9301  139.4308  143.6499 LP  0  0  0  0  0  0  0  0  0  0  0  0  # atno 17320 bound_to 7965
  146.3234  139.8208  142.8927 LP  0  0  0  0  0  0  0  0  0  0  0  0  # atno 17321 bound_to 7965
  140.6555  143.8607  150.6831 LP  0  0  0  0  0  0  0  0  0  0  0  0  # atno 17342 bound_to 10162
  140.1985  143.3978  152.1809 LP  0  0  0  0  0  0  0  0  0  0  0  0  # atno 17343 bound_to 10162
  156.4353  130.3980  149.6733 LP  0  0  0  0  0  0  0  0  0  0  0  0  # atno 17370 bound_to 10713
  156.3936  130.7639  151.2642 LP  0  0  0  0  0  0  0  0  0  0  0  0  # atno 17371 bound_to 10713
  139.8984  134.8615  156.2004 LP  0  0  0  0  0  0  0  0  0  0  0  0  # atno 17394 bound_to 11000
  141.0397  133.6944  156.1576 LP  0  0  0  0  0  0  0  0  0  0  0  0  # atno 17395 bound_to 11000

$$$$
