AV-unprocessed.smi:1592|AV-procd|sdf|6406|dock2
  -GOLD-   22720 7 43D 1   1.00000     0.00000
 Structure written by MMmdl.
 26 27  0  0  0  0  0  0  0  0  2 V2000
  149.2648  141.5237  156.6856 O   0  0  0  0  0  0  0  0  0  0  0  0
  150.4687  141.3463  156.8935 C   0  0  0  0  0  0  0  0  0  0  0  0
  151.2135  141.6041  158.0420 N   0  0  0  0  0  0  0  0  0  0  0  0
  151.3571  142.7944  158.5582 C   0  0  0  0  0  0  0  0  0  0  0  0
  150.7666  143.9488  158.0150 N   0  0  0  0  0  0  0  0  0  0  0  0
  150.9138  145.2021  158.5706 C   0  0  0  0  0  0  0  0  0  0  0  0
  151.6413  145.3959  159.6716 C   0  0  0  0  0  0  0  0  0  0  0  0
  152.2882  144.2580  160.2919 C   0  0  0  0  0  0  0  0  0  0  0  0
  152.1724  142.9623  159.7749 C   0  0  0  0  0  0  0  0  0  0  0  0
  152.7477  142.0071  160.3461 O   0  5  0  0  0  0  0  0  0  0  0  0
  151.3487  140.7718  155.7698 C   0  0  1  0  0  0  0  0  0  0  0  0
  152.0068  139.4286  156.1455 C   0  0  0  0  0  0  0  0  0  0  0  0
  151.5204  138.4597  155.0819 C   0  0  0  0  0  0  0  0  0  0  0  0
  150.2314  139.1084  154.6008 C   0  0  0  0  0  0  0  0  0  0  0  0
  150.5525  140.4910  154.6169 O   0  0  0  0  0  0  0  0  0  0  0  0
  150.3986  145.9939  158.0474 H   0  0  0  0  0  0  0  0  0  0  0  0
  151.7454  146.3841  160.0947 H   0  0  0  0  0  0  0  0  0  0  0  0
  152.8756  144.4272  161.1829 H   0  0  0  0  0  0  0  0  0  0  0  0
  150.1994  143.8936  157.1819 H   0  0  0  0  0  0  0  0  0  0  0  0
  152.1017  141.5109  155.4929 H   0  0  0  0  0  0  0  0  0  0  0  0
  153.0950  139.4963  156.1572 H   0  0  0  0  0  0  0  0  0  0  0  0
  151.6918  139.0834  157.1318 H   0  0  0  0  0  0  0  0  0  0  0  0
  152.2396  138.4156  154.2634 H   0  0  0  0  0  0  0  0  0  0  0  0
  151.3722  137.4482  155.4605 H   0  0  0  0  0  0  0  0  0  0  0  0
  149.9352  138.7744  153.6063 H   0  0  0  0  0  0  0  0  0  0  0  0
  149.4106  138.9091  155.2918 H   0  0  0  0  0  0  0  0  0  0  0  0
  1  2  2  0  0  0  0
  2  3  1  0  0  0  0
  2 11  1  0  0  0  0
  3  4  2  0  0  0  0
  4  9  1  0  0  0  0
  4  5  1  0  0  0  0
  5 19  1  0  0  0  0
  5  6  1  0  0  0  0
  6 16  1  0  0  0  0
  6  7  2  0  0  0  0
  7 17  1  0  0  0  0
  7  8  1  0  0  0  0
  8  9  2  0  0  0  0
  8 18  1  0  0  0  0
  9 10  1  0  0  0  0
 11 15  1  0  0  0  0
 11 12  1  0  0  0  0
 11 20  1  0  0  0  0
 12 13  1  0  0  0  0
 12 21  1  0  0  0  0
 12 22  1  0  0  0  0
 13 14  1  0  0  0  0
 13 23  1  0  0  0  0
 13 24  1  0  0  0  0
 14 15  1  0  0  0  0
 14 25  1  0  0  0  0
 14 26  1  0  0  0  0
M  CHG  1  10  -1
M  END
> <s_m_source_file>
AV-unprocessed.smi

> <i_m_source_file_index>
1592

> <i_lp_mmshare_version>
43012

> <i_f3d_flags>
0

> <s_epik_input>
TzFbQ0gyXVtDSDJdW0NIMl1bQ0BIXTFDKD1PKVtOSF1jMm5bY0hdW2NIXVtjSF1jMltPSF0=

> <s_epik_cmdline>
J2VwaWtfcHl0aG9uJywgJy1waCcsICc3LjAnLCAnLXRuJywgJzgnLCAnLW1hJywgJzIwMCcsICctbWV0YWxfYmluZGluZycsICctaW1hZScsICc8aW5maWxlLm1hZT4nLCAnLW9tYWUnLCAnPG91dGZpbGUubWFlPic=

> <r_epik_Ionization_Penalty>
0.780127

> <r_epik_Ionization_Penalty_Charging>
0.780127

> <r_epik_Ionization_Penalty_Neutral>
6.55423e-13

> <r_epik_State_Penalty>
1.4426

> <r_epik_Charging_Adjusted_Penalty>
2.22273

> <i_epik_Tot_Q>
-1

> <i_epik_Tot_abs_Q>
1

> <r_epik_Metal_State_Penalty>
1.40439

> <b_epik_Metal_Only>
0

> <s_lp_Force_Field>
OPLS_2005

> <r_lp_Energy>
49.5573

> <b_lp_Chiralities_Consistent>
1

> <s_lp_Variant>
AV-unprocessed.smi:1592-6

> <Gold.Version>
5.8.1

> <Gold.Id.Protein>
6NUR|6NUR_protein|mol2

> <Gold.PLP.Fitness>
38.7403

> <Gold.PLP.PLP>
-32.0126

> <Gold.PLP.part.hbond>
-1.7621

> <Gold.PLP.part.metal>
0.0000

> <Gold.PLP.part.buried>
-4.2660

> <Gold.PLP.part.nonpolar>
-26.4668

> <Gold.PLP.part.repulsive>
0.2590

> <Gold.PLP.ligand.clash>
0.0000

> <Gold.PLP.ligand.torsion>
0.5862

> <Gold.PLP.Chemscore.Hbond>
1.6488

> <Gold.PLP.Chemscore.CHOScore>
0.9822

> <Gold.PLP.Chemscore.Metal>
0.0000

> <Gold.Chemscore.Hbonds>
donor molecule, donor type, donor heavy atom, donor atom, acceptor molecule, acceptor atom, score
      L1  H     5    19       P1  8028  0.68
      P1  H  7989  7998       L1    15  0.90
      L1  C     6    16       P1  8029  0.77

> <Gold.PLP.Chemscore.Internal.Correction>
0.0073

> <Gold.Rescore>
     Score         DG    S(hbond)    S(metal)    S(lipo)     H(rot)  DE(clash)    DE(int)     intcor
     15.77     -16.44       1.56        0.00      71.03       1.00       0.09       0.58       ----

> <Gold.Chemscore.Fitness>
15.7688

> <Gold.Chemscore.DG>
-16.4401

> <Gold.Chemscore.ZeroCoef>
-5.4800

> <Gold.Chemscore.Hbond>
1.5596

> <Gold.Chemscore.Metal>
0.0000

> <Gold.Chemscore.Lipo>
71.0339

> <Gold.Chemscore.Internal_Hbond>
0.0000

> <Gold.Chemscore.DEClash>
0.0865

> <Gold.Chemscore.DEInternal>
0.5848

> <Gold.Chemscore.Rot>
1.0000

> <Gold.Chemscore.Internal.Correction>
   9.000000E+99

> <Gold.Chemscore.Hbonds>
donor molecule, donor type, donor heavy atom, donor atom, acceptor molecule, acceptor atom, score
      L1  H     5    19       P1  8028  0.62
      P1  H  7989  7998       L1    15  0.14

> <Gold.Chemscore.Hbond.Weighted>
-5.2092

> <Gold.Chemscore.Metal.Weighted>
-0.0000

> <Gold.Chemscore.Lipo.Weighted>
-8.3110

> <Gold.Chemscore.Internal_Hbond.Weighted>
0.0000

> <Gold.Chemscore.DEClash.Weighted>
0.0865

> <Gold.Chemscore.DEInternal.Weighted>
0.5848

> <Gold.Chemscore.Rot.Weighted>
2.5600

> <Gold.Chemscore.Internal.Correction.Weighted>
   9.000000E+99

> <Gold.Protein.RotatedTorsions>
[ 6907 6896 6895 6894 ] final  114.61 input  -60.11 | X-H torsion
[ 7974 7965 7964 7962 ] final -114.51 input  175.53 | X-H torsion
[ 8008 7997 7996 7995 ] final  165.58 input   59.86 | X-H torsion
[ 10167 10162 10161 10158 ] final   -2.88 input  -65.29 | X-H torsion
[ 10718 10713 10712 10709 ] final  177.36 input   66.30 | X-H torsion
[ 10763 10752 10751 10750 ] final -128.84 input  -60.55 | X-H torsion
[ 11005 11000 10999 10996 ] final  125.28 input  -57.11 | X-H torsion

> <Gold.Protein.ActiveResidues>
 VAL166  LYS551  ARG553  GLY616  TRP617  ASP618  TYR619  PRO620  LYS621  CYS622 
 ASP623  PHE694  ASN695  SER759  ASP760  ASP761  ALA762  ILE779  LEU786  VAL792 
 PHE793  MET794  SER795  GLU796  ALA797  LYS798  CYS799  TRP800  GLU811  SER814 

> <Gold.Protein.RotatedAtoms>
  152.4792  133.8212  159.7054 H   0  0  0  0  0  0  0  0  0  0  0  0  # atno 6907 bound_to 6896
  150.8830  133.7337  159.2933 H   0  0  0  0  0  0  0  0  0  0  0  0  # atno 6908 bound_to 6896
  151.4835  135.1057  159.9836 H   0  0  0  0  0  0  0  0  0  0  0  0  # atno 6909 bound_to 6896
  145.1193  140.8659  143.3823 H   0  0  0  0  0  0  0  0  0  0  0  0  # atno 7974 bound_to 7965
  156.1788  140.1666  156.8312 H   0  0  0  0  0  0  0  0  0  0  0  0  # atno 8008 bound_to 7997
  154.5337  140.0751  156.8423 H   0  0  0  0  0  0  0  0  0  0  0  0  # atno 8009 bound_to 7997
  155.3354  140.3381  155.4241 H   0  0  0  0  0  0  0  0  0  0  0  0  # atno 8010 bound_to 7997
  140.6868  143.6605  150.8271 H   0  0  0  0  0  0  0  0  0  0  0  0  # atno 10167 bound_to 10162
  156.9065  130.9896  151.3027 H   0  0  0  0  0  0  0  0  0  0  0  0  # atno 10718 bound_to 10713
  154.8757  135.3915  154.3822 H   0  0  0  0  0  0  0  0  0  0  0  0  # atno 10763 bound_to 10752
  153.4568  135.7029  153.6080 H   0  0  0  0  0  0  0  0  0  0  0  0  # atno 10764 bound_to 10752
  153.4596  135.3815  155.2299 H   0  0  0  0  0  0  0  0  0  0  0  0  # atno 10765 bound_to 10752
  139.9399  134.9636  156.8534 H   0  0  0  0  0  0  0  0  0  0  0  0  # atno 11005 bound_to 11000
  145.0759  139.2996  143.5808 LP  0  0  0  0  0  0  0  0  0  0  0  0  # atno 17320 bound_to 7965
  146.3522  140.0249  142.8655 LP  0  0  0  0  0  0  0  0  0  0  0  0  # atno 17321 bound_to 7965
  140.0313  143.5441  152.2759 LP  0  0  0  0  0  0  0  0  0  0  0  0  # atno 17342 bound_to 10162
  139.6234  144.7633  151.2690 LP  0  0  0  0  0  0  0  0  0  0  0  0  # atno 17343 bound_to 10162
  157.5994  130.8501  149.8778 LP  0  0  0  0  0  0  0  0  0  0  0  0  # atno 17370 bound_to 10713
  156.0556  130.3709  150.1098 LP  0  0  0  0  0  0  0  0  0  0  0  0  # atno 17371 bound_to 10713
  140.5979  134.0199  155.7525 LP  0  0  0  0  0  0  0  0  0  0  0  0  # atno 17394 bound_to 11000
  141.1029  133.9740  157.3048 LP  0  0  0  0  0  0  0  0  0  0  0  0  # atno 17395 bound_to 11000

$$$$
