AV-unprocessed.smi:1966|AV-procd|sdf|7953|dock5
  -GOLD-   2272010123D 1   1.00000     0.00000
 Structure written by MMmdl.
 53 54  0  0  0  0  0  0  0  0  1 V2000
  154.6301  131.8810  160.9453 C   0  0  0  0  0  0  0  0  0  0  0  0
  155.1849  133.3010  160.9484 C   0  0  0  0  0  0  0  0  0  0  0  0
  155.6074  133.8035  159.9074 O   0  0  0  0  0  0  0  0  0  0  0  0
  155.1780  133.9366  162.1306 N   0  0  0  0  0  0  0  0  0  0  0  0
  155.6457  135.3049  162.3647 C   0  0  1  0  0  0  0  0  0  0  0  0
  154.8069  136.2738  161.5076 C   0  0  0  0  0  0  0  0  0  0  0  0
  154.0173  135.8292  160.6735 O   0  0  0  0  0  0  0  0  0  0  0  0
  155.0102  137.5826  161.7483 N   0  0  0  0  0  0  0  0  0  0  0  0
  154.3903  138.7121  161.1478 C   0  0  0  0  0  0  0  0  0  0  0  0
  154.7288  140.0574  161.4236 C   0  0  0  0  0  0  0  0  0  0  0  0
  154.0491  141.0852  160.7422 C   0  0  0  0  0  0  0  0  0  0  0  0
  153.0535  140.7488  159.7956 C   0  0  0  0  0  0  0  0  0  0  0  0
  152.3661  141.7665  159.1008 N   0  0  0  0  0  0  0  0  0  0  0  0
  151.2075  141.3898  158.2963 C   0  0  0  0  0  0  0  0  0  0  0  0
  150.8152  142.5407  157.3529 C   0  0  1  0  0  0  0  0  0  0  0  0
  149.5268  142.2342  156.5823 C   0  0  0  0  0  0  0  0  0  0  0  0
  150.6049  143.7302  158.1129 O   0  0  0  0  0  0  0  0  0  0  0  0
  151.7273  144.1481  158.8937 C   0  0  2  0  0  0  0  0  0  0  0  0
  152.8670  144.7053  158.0223 C   0  0  0  0  0  0  0  0  0  0  0  0
  152.1760  143.0135  159.8361 C   0  0  0  0  0  0  0  0  0  0  0  0
  152.7426  139.4582  159.5221 N   0  0  0  0  0  0  0  0  0  0  0  0
  153.3943  138.4767  160.1795 C   0  0  0  0  0  0  0  0  0  0  0  0
  155.4763  135.6404  163.8762 C   0  0  0  0  0  0  0  0  0  0  0  0
  156.0276  134.5422  164.8095 C   0  0  0  0  0  0  0  0  0  0  0  0
  154.0031  135.9144  164.2386 C   0  0  0  0  0  0  0  0  0  0  0  0
  153.6046  131.8712  161.3158 H   0  0  0  0  0  0  0  0  0  0  0  0
  155.2351  131.2360  161.5830 H   0  0  0  0  0  0  0  0  0  0  0  0
  154.6329  131.4652  159.9370 H   0  0  0  0  0  0  0  0  0  0  0  0
  154.8056  133.4442  162.9294 H   0  0  0  0  0  0  0  0  0  0  0  0
  156.7007  135.3828  162.0927 H   0  0  0  0  0  0  0  0  0  0  0  0
  155.7387  137.7959  162.4143 H   0  0  0  0  0  0  0  0  0  0  0  0
  155.5024  140.3258  162.1252 H   0  0  0  0  0  0  0  0  0  0  0  0
  154.3116  142.1144  160.9371 H   0  0  0  0  0  0  0  0  0  0  0  0
  151.4317  140.5002  157.7062 H   0  0  0  0  0  0  0  0  0  0  0  0
  150.3760  141.1423  158.9580 H   0  0  0  0  0  0  0  0  0  0  0  0
  151.6107  142.7053  156.6261 H   0  0  0  0  0  0  0  0  0  0  0  0
  149.6377  141.3361  155.9741 H   0  0  0  0  0  0  0  0  0  0  0  0
  149.2668  143.0565  155.9155 H   0  0  0  0  0  0  0  0  0  0  0  0
  148.6880  142.0778  157.2613 H   0  0  0  0  0  0  0  0  0  0  0  0
  151.3735  144.9724  159.5135 H   0  0  0  0  0  0  0  0  0  0  0  0
  153.6449  145.1498  158.6434 H   0  0  0  0  0  0  0  0  0  0  0  0
  152.4993  145.4807  157.3500 H   0  0  0  0  0  0  0  0  0  0  0  0
  153.3404  143.9326  157.4169 H   0  0  0  0  0  0  0  0  0  0  0  0
  151.4100  142.8459  160.5944 H   0  0  0  0  0  0  0  0  0  0  0  0
  153.0775  143.3171  160.3672 H   0  0  0  0  0  0  0  0  0  0  0  0
  153.1079  137.4672  159.9222 H   0  0  0  0  0  0  0  0  0  0  0  0
  156.0334  136.5544  164.0909 H   0  0  0  0  0  0  0  0  0  0  0  0
  155.5546  133.5802  164.6102 H   0  0  0  0  0  0  0  0  0  0  0  0
  155.8445  134.7894  165.8555 H   0  0  0  0  0  0  0  0  0  0  0  0
  157.1048  134.4136  164.7034 H   0  0  0  0  0  0  0  0  0  0  0  0
  153.3764  135.0496  164.0195 H   0  0  0  0  0  0  0  0  0  0  0  0
  153.5982  136.7655  163.6909 H   0  0  0  0  0  0  0  0  0  0  0  0
  153.8950  136.1410  165.2996 H   0  0  0  0  0  0  0  0  0  0  0  0
  1  2  1  0  0  0  0
  1 26  1  0  0  0  0
  1 27  1  0  0  0  0
  1 28  1  0  0  0  0
  2  3  2  0  0  0  0
  2  4  1  0  0  0  0
  4  5  1  0  0  0  0
  4 29  1  0  0  0  0
  5  6  1  0  0  0  0
  5 23  1  0  0  0  0
  5 30  1  0  0  0  0
  6  7  2  0  0  0  0
  6  8  1  0  0  0  0
  8  9  1  0  0  0  0
  8 31  1  0  0  0  0
  9 22  1  0  0  0  0
  9 10  2  0  0  0  0
 10 11  1  0  0  0  0
 10 32  1  0  0  0  0
 11 12  2  0  0  0  0
 11 33  1  0  0  0  0
 12 13  1  0  0  0  0
 12 21  1  0  0  0  0
 13 20  1  0  0  0  0
 13 14  1  0  0  0  0
 14 15  1  0  0  0  0
 14 34  1  0  0  0  0
 14 35  1  0  0  0  0
 15 16  1  0  0  0  0
 15 17  1  0  0  0  0
 15 36  1  0  0  0  0
 16 37  1  0  0  0  0
 16 38  1  0  0  0  0
 16 39  1  0  0  0  0
 17 18  1  0  0  0  0
 18 19  1  0  0  0  0
 18 20  1  0  0  0  0
 18 40  1  0  0  0  0
 19 41  1  0  0  0  0
 19 42  1  0  0  0  0
 19 43  1  0  0  0  0
 20 44  1  0  0  0  0
 20 45  1  0  0  0  0
 21 22  2  0  0  0  0
 22 46  1  0  0  0  0
 23 24  1  0  0  0  0
 23 25  1  0  0  0  0
 23 47  1  0  0  0  0
 24 48  1  0  0  0  0
 24 49  1  0  0  0  0
 24 50  1  0  0  0  0
 25 51  1  0  0  0  0
 25 52  1  0  0  0  0
 25 53  1  0  0  0  0
M  END
> <s_m_source_file>
AV-unprocessed.smi

> <i_m_source_file_index>
1966

> <i_lp_mmshare_version>
43012

> <i_f3d_flags>
0

> <s_epik_input>
W0NIM11DKD1PKVtOSF1bQ0BASF0oW0NIXShbQ0gzXSlbQ0gzXSlDKD1PKVtOSF1jMVtjSF1bY0hdYyhuW2NIXTEpTjJbQ0gyXVtDQEBIXShbQ0gzXSlPW0NAQEhdKFtDSDNdKVtDSDJdMg==

> <s_epik_cmdline>
J2VwaWtfcHl0aG9uJywgJy1waCcsICc3LjAnLCAnLXRuJywgJzgnLCAnLW1hJywgJzIwMCcsICctbWV0YWxfYmluZGluZycsICctaW1hZScsICc8aW5maWxlLm1hZT4nLCAnLW9tYWUnLCAnPG91dGZpbGUubWFlPic=

> <r_lp_tautomer_probability>
1

> <r_epik_Ionization_Penalty>
0.000679699

> <r_epik_Ionization_Penalty_Charging>
0

> <r_epik_Ionization_Penalty_Neutral>
0.000679699

> <r_epik_State_Penalty>
0.000430485

> <r_epik_Charging_Adjusted_Penalty>
0.000430485

> <i_epik_Tot_Q>
0

> <i_epik_Tot_abs_Q>
0

> <r_epik_Metal_State_Penalty>
-0

> <b_epik_Metal_Only>
0

> <s_lp_Force_Field>
OPLS_2005

> <r_lp_Energy>
28.3815

> <b_lp_Chiralities_Consistent>
1

> <s_lp_Variant>
AV-unprocessed.smi:1966-6

> <Gold.Version>
5.8.1

> <Gold.Id.Protein>
6NUR|6NUR_protein|mol2

> <Gold.PLP.Fitness>
41.4507

> <Gold.PLP.PLP>
-39.6608

> <Gold.PLP.part.hbond>
-1.0000

> <Gold.PLP.part.metal>
0.0000

> <Gold.PLP.part.buried>
-2.9284

> <Gold.PLP.part.nonpolar>
-36.0191

> <Gold.PLP.part.repulsive>
0.2176

> <Gold.PLP.ligand.clash>
0.0000

> <Gold.PLP.ligand.torsion>
0.7788

> <Gold.PLP.Chemscore.Hbond>
0.9913

> <Gold.PLP.Chemscore.CHOScore>
0.0000

> <Gold.PLP.Chemscore.Metal>
0.0000

> <Gold.Chemscore.Hbonds>
donor molecule, donor type, donor heavy atom, donor atom, acceptor molecule, acceptor atom, score
      P1  H  6896  6908       L1     7  0.96

> <Gold.PLP.Chemscore.Internal.Correction>
0.3738

> <Gold.Rescore>
     Score         DG    S(hbond)    S(metal)    S(lipo)     H(rot)  DE(clash)    DE(int)     intcor
     14.81     -18.67       0.97        0.00     121.68       1.68       1.64       2.23       ----

> <Gold.Chemscore.Fitness>
14.8055

> <Gold.Chemscore.DG>
-18.6708

> <Gold.Chemscore.ZeroCoef>
-5.4800

> <Gold.Chemscore.Hbond>
0.9715

> <Gold.Chemscore.Metal>
0.0000

> <Gold.Chemscore.Lipo>
121.6763

> <Gold.Chemscore.Internal_Hbond>
0.0000

> <Gold.Chemscore.DEClash>
1.6388

> <Gold.Chemscore.DEInternal>
2.2265

> <Gold.Chemscore.Rot>
1.6759

> <Gold.Chemscore.Internal.Correction>
   9.000000E+99

> <Gold.Chemscore.Hbonds>
donor molecule, donor type, donor heavy atom, donor atom, acceptor molecule, acceptor atom, score
      P1  H  6896  6908       L1     7  0.91

> <Gold.Chemscore.Hbond.Weighted>
-3.2449

> <Gold.Chemscore.Metal.Weighted>
-0.0000

> <Gold.Chemscore.Lipo.Weighted>
-14.2361

> <Gold.Chemscore.Internal_Hbond.Weighted>
0.0000

> <Gold.Chemscore.DEClash.Weighted>
1.6388

> <Gold.Chemscore.DEInternal.Weighted>
2.2265

> <Gold.Chemscore.Rot.Weighted>
4.2902

> <Gold.Chemscore.Internal.Correction.Weighted>
   9.000000E+99

> <Gold.Protein.RotatedTorsions>
[ 6907 6896 6895 6894 ] final  -65.29 input  -60.11 | X-H torsion
[ 7974 7965 7964 7962 ] final   27.45 input  175.53 | X-H torsion
[ 8008 7997 7996 7995 ] final -109.79 input   59.86 | X-H torsion
[ 10167 10162 10161 10158 ] final -155.66 input  -65.29 | X-H torsion
[ 10718 10713 10712 10709 ] final  -78.17 input   66.30 | X-H torsion
[ 10763 10752 10751 10750 ] final  -74.17 input  -60.55 | X-H torsion
[ 11005 11000 10999 10996 ] final   -6.50 input  -57.11 | X-H torsion

> <Gold.Protein.ActiveResidues>
 VAL166  LYS551  ARG553  GLY616  TRP617  ASP618  TYR619  PRO620  LYS621  CYS622 
 ASP623  PHE694  ASN695  SER759  ASP760  ASP761  ALA762  ILE779  LEU786  VAL792 
 PHE793  MET794  SER795  GLU796  ALA797  LYS798  CYS799  TRP800  GLU811  SER814 

> <Gold.Protein.RotatedAtoms>
  150.7533  134.6180  159.6120 H   0  0  0  0  0  0  0  0  0  0  0  0  # atno 6907 bound_to 6896
  152.3495  134.7022  160.0249 H   0  0  0  0  0  0  0  0  0  0  0  0  # atno 6908 bound_to 6896
  151.7448  133.3288  159.3412 H   0  0  0  0  0  0  0  0  0  0  0  0  # atno 6909 bound_to 6896
  146.1783  139.7190  142.8918 H   0  0  0  0  0  0  0  0  0  0  0  0  # atno 7974 bound_to 7965
  154.9647  140.0398  157.2206 H   0  0  0  0  0  0  0  0  0  0  0  0  # atno 8008 bound_to 7997
  154.7856  140.2826  155.6008 H   0  0  0  0  0  0  0  0  0  0  0  0  # atno 8009 bound_to 7997
  156.2942  140.2583  156.2692 H   0  0  0  0  0  0  0  0  0  0  0  0  # atno 8010 bound_to 7997
  139.6913  143.9415  152.2386 H   0  0  0  0  0  0  0  0  0  0  0  0  # atno 10167 bound_to 10162
  156.0125  130.4511  150.3455 H   0  0  0  0  0  0  0  0  0  0  0  0  # atno 10718 bound_to 10713
  154.4694  135.5873  153.6311 H   0  0  0  0  0  0  0  0  0  0  0  0  # atno 10763 bound_to 10752
  152.9833  135.6063  154.3385 H   0  0  0  0  0  0  0  0  0  0  0  0  # atno 10764 bound_to 10752
  154.3266  135.2843  155.2472 H   0  0  0  0  0  0  0  0  0  0  0  0  # atno 10765 bound_to 10752
  140.7026  133.8976  155.8694 H   0  0  0  0  0  0  0  0  0  0  0  0  # atno 11005 bound_to 11000
  145.4148  141.0400  143.2997 LP  0  0  0  0  0  0  0  0  0  0  0  0  # atno 17320 bound_to 7965
  144.8273  139.5688  143.6960 LP  0  0  0  0  0  0  0  0  0  0  0  0  # atno 17321 bound_to 7965
  139.9232  144.6787  150.8439 LP  0  0  0  0  0  0  0  0  0  0  0  0  # atno 17342 bound_to 10162
  140.7683  143.3360  151.2308 LP  0  0  0  0  0  0  0  0  0  0  0  0  # atno 17343 bound_to 10162
  157.1549  131.0330  151.2868 LP  0  0  0  0  0  0  0  0  0  0  0  0  # atno 17370 bound_to 10713
  157.4360  130.7517  149.7029 LP  0  0  0  0  0  0  0  0  0  0  0  0  # atno 17371 bound_to 10713
  141.0151  134.0967  157.4181 LP  0  0  0  0  0  0  0  0  0  0  0  0  # atno 17394 bound_to 11000
  139.8892  135.0104  156.6668 LP  0  0  0  0  0  0  0  0  0  0  0  0  # atno 17395 bound_to 11000

$$$$
