AV-unprocessed.smi:1888|AV-procd|sdf|7657|dock9
  -GOLD-   22720 9393D 1   1.00000     0.00000
 Structure written by MMmdl.
 44 46  0  0  0  0  0  0  0  0  1 V2000
  147.3376  141.7258  154.6875 C   0  0  0  0  0  0  0  0  0  0  0  0
  148.6443  140.9495  154.5095 C   0  0  0  0  0  0  0  0  0  0  0  0
  149.1170  140.5493  155.7846 O   0  0  0  0  0  0  0  0  0  0  0  0
  149.3516  141.6465  156.6501 C   0  0  0  0  0  0  0  0  0  0  0  0
  150.8562  141.9458  156.6714 C   0  0  0  0  0  0  0  0  0  0  0  0
  151.5896  140.9766  157.4773 N   0  0  0  0  0  0  0  0  0  0  0  0
  152.0534  141.1182  158.7465 C   0  0  0  0  0  0  0  0  0  0  0  0
  151.8663  142.3148  159.4720 N   0  0  0  0  0  0  0  0  0  0  0  0
  150.8433  143.1418  159.1652 N   0  0  0  0  0  0  0  0  0  0  0  0
  150.9586  144.1551  160.0070 C   0  0  0  0  0  0  0  0  0  0  0  0
  149.9620  145.2749  159.9529 C   0  0  0  0  0  0  0  0  0  0  0  0
  152.0749  144.0069  160.8768 C   0  0  0  0  0  0  0  0  0  0  0  0
  152.6382  142.8191  160.5033 C   0  0  0  0  0  0  0  0  0  0  0  0
  153.8402  142.1115  161.0380 C   0  0  0  0  0  0  0  0  0  0  0  0
  152.6762  140.0446  159.2420 N   0  0  0  0  0  0  0  0  0  0  0  0
  152.6141  139.1441  158.1884 C   0  0  0  0  0  0  0  0  0  0  0  0
  151.9691  139.6829  157.1229 C   0  0  0  0  0  0  0  0  0  0  0  0
  151.7625  138.9461  155.8708 C   0  0  0  0  0  0  0  0  0  0  0  0
  151.1830  139.4182  154.8951 O   0  0  0  0  0  0  0  0  0  0  0  0
  152.2798  137.6936  155.9023 N   0  0  0  0  0  0  0  0  0  0  0  0
  152.9405  137.0908  156.9385 C   0  0  0  0  0  0  0  0  0  0  0  0
  153.3571  135.9401  156.8082 O   0  0  0  0  0  0  0  0  0  0  0  0
  153.1101  137.8144  158.0933 N   0  0  0  0  0  0  0  0  0  0  0  0
  153.8061  137.2635  159.2577 C   0  0  0  0  0  0  0  0  0  0  0  0
  152.1667  137.1421  155.0642 H   0  0  0  0  0  0  0  0  0  0  0  0
  146.9403  142.0466  153.7244 H   0  0  0  0  0  0  0  0  0  0  0  0
  147.4918  142.6148  155.2992 H   0  0  0  0  0  0  0  0  0  0  0  0
  146.5802  141.1106  155.1741 H   0  0  0  0  0  0  0  0  0  0  0  0
  148.4750  140.0749  153.8795 H   0  0  0  0  0  0  0  0  0  0  0  0
  149.3851  141.5775  154.0124 H   0  0  0  0  0  0  0  0  0  0  0  0
  148.7957  142.5195  156.3050 H   0  0  0  0  0  0  0  0  0  0  0  0
  148.9980  141.4099  157.6545 H   0  0  0  0  0  0  0  0  0  0  0  0
  151.2539  141.9470  155.6564 H   0  0  0  0  0  0  0  0  0  0  0  0
  151.0423  142.9456  157.0628 H   0  0  0  0  0  0  0  0  0  0  0  0
  150.2177  146.0653  160.6589 H   0  0  0  0  0  0  0  0  0  0  0  0
  148.9611  144.9201  160.1998 H   0  0  0  0  0  0  0  0  0  0  0  0
  149.9230  145.7193  158.9579 H   0  0  0  0  0  0  0  0  0  0  0  0
  152.4117  144.6732  161.6572 H   0  0  0  0  0  0  0  0  0  0  0  0
  154.2308  142.6184  161.9207 H   0  0  0  0  0  0  0  0  0  0  0  0
  154.6342  142.0781  160.2915 H   0  0  0  0  0  0  0  0  0  0  0  0
  153.5957  141.0869  161.3195 H   0  0  0  0  0  0  0  0  0  0  0  0
  154.0974  136.2182  159.1488 H   0  0  0  0  0  0  0  0  0  0  0  0
  153.1686  137.3309  160.1400 H   0  0  0  0  0  0  0  0  0  0  0  0
  154.7118  137.8383  159.4538 H   0  0  0  0  0  0  0  0  0  0  0  0
  1  2  1  0  0  0  0
  1 26  1  0  0  0  0
  1 27  1  0  0  0  0
  1 28  1  0  0  0  0
  2  3  1  0  0  0  0
  2 29  1  0  0  0  0
  2 30  1  0  0  0  0
  3  4  1  0  0  0  0
  4  5  1  0  0  0  0
  4 31  1  0  0  0  0
  4 32  1  0  0  0  0
  5  6  1  0  0  0  0
  5 33  1  0  0  0  0
  5 34  1  0  0  0  0
  6 17  1  0  0  0  0
  6  7  1  0  0  0  0
  7  8  1  0  0  0  0
  7 15  2  0  0  0  0
  8 13  1  0  0  0  0
  8  9  1  0  0  0  0
  9 10  2  0  0  0  0
 10 11  1  0  0  0  0
 10 12  1  0  0  0  0
 11 35  1  0  0  0  0
 11 36  1  0  0  0  0
 11 37  1  0  0  0  0
 12 13  2  0  0  0  0
 12 38  1  0  0  0  0
 13 14  1  0  0  0  0
 14 39  1  0  0  0  0
 14 40  1  0  0  0  0
 14 41  1  0  0  0  0
 15 16  1  0  0  0  0
 16 23  1  0  0  0  0
 16 17  2  0  0  0  0
 17 18  1  0  0  0  0
 18 19  2  0  0  0  0
 18 20  1  0  0  0  0
 20 25  1  0  0  0  0
 20 21  1  0  0  0  0
 21 22  2  0  0  0  0
 21 23  1  0  0  0  0
 23 24  1  0  0  0  0
 24 42  1  0  0  0  0
 24 43  1  0  0  0  0
 24 44  1  0  0  0  0
M  END
> <s_m_source_file>
AV-unprocessed.smi

> <i_m_source_file_index>
1888

> <i_lp_mmshare_version>
43012

> <i_f3d_flags>
0

> <s_epik_input>
W0NIM11uMWMoPU8pW25IXWMoPU8pYyhjMTIpbihbQ0gyXVtDSDJdT1tDSDJdW0NIM10pYyhuMiktbjNuYyhbQ0gzXSlbY0hdYzNbQ0gzXQ==

> <s_epik_cmdline>
J2VwaWtfcHl0aG9uJywgJy1waCcsICc3LjAnLCAnLXRuJywgJzgnLCAnLW1hJywgJzIwMCcsICctbWV0YWxfYmluZGluZycsICctaW1hZScsICc8aW5maWxlLm1hZT4nLCAnLW9tYWUnLCAnPG91dGZpbGUubWFlPic=

> <r_lp_tautomer_probability>
1

> <r_epik_Ionization_Penalty>
0.00155345

> <r_epik_Ionization_Penalty_Charging>
0.000715499

> <r_epik_Ionization_Penalty_Neutral>
0.000837951

> <r_epik_State_Penalty>
-0

> <r_epik_Charging_Adjusted_Penalty>
0.000715499

> <i_epik_Tot_Q>
0

> <i_epik_Tot_abs_Q>
0

> <r_epik_Metal_State_Penalty>
0.258535

> <b_epik_Metal_Only>
0

> <s_lp_Force_Field>
OPLS_2005

> <r_lp_Energy>
26.5558

> <b_lp_Chiralities_Consistent>
1

> <s_lp_Variant>
AV-unprocessed.smi:1888-1

> <Gold.Version>
5.8.1

> <Gold.Id.Protein>
6NUR|6NUR_protein|mol2

> <Gold.PLP.Fitness>
47.1791

> <Gold.PLP.PLP>
-42.5578

> <Gold.PLP.part.hbond>
-1.9915

> <Gold.PLP.part.metal>
0.0000

> <Gold.PLP.part.buried>
-5.0693

> <Gold.PLP.part.nonpolar>
-35.8870

> <Gold.PLP.part.repulsive>
0.3425

> <Gold.PLP.ligand.clash>
0.0000

> <Gold.PLP.ligand.torsion>
0.8896

> <Gold.PLP.Chemscore.Hbond>
2.0000

> <Gold.PLP.Chemscore.CHOScore>
0.0000

> <Gold.PLP.Chemscore.Metal>
0.0000

> <Gold.Chemscore.Hbonds>
donor molecule, donor type, donor heavy atom, donor atom, acceptor molecule, acceptor atom, score
      P1  H  7989  7998       L1    19  0.93
      P1  H 10752 10764       L1    22  1.00

> <Gold.PLP.Chemscore.Internal.Correction>
0.4004

> <Gold.Rescore>
     Score         DG    S(hbond)    S(metal)    S(lipo)     H(rot)  DE(clash)    DE(int)     intcor
     12.76     -18.15       1.96        0.00      89.33       1.70       0.15       5.24       ----

> <Gold.Chemscore.Fitness>
12.7624

> <Gold.Chemscore.DG>
-18.1530

> <Gold.Chemscore.ZeroCoef>
-5.4800

> <Gold.Chemscore.Hbond>
1.9643

> <Gold.Chemscore.Metal>
0.0000

> <Gold.Chemscore.Lipo>
89.3335

> <Gold.Chemscore.Internal_Hbond>
0.0000

> <Gold.Chemscore.DEClash>
0.1505

> <Gold.Chemscore.DEInternal>
5.2401

> <Gold.Chemscore.Rot>
1.6953

> <Gold.Chemscore.Internal.Correction>
   9.000000E+99

> <Gold.Chemscore.Hbonds>
donor molecule, donor type, donor heavy atom, donor atom, acceptor molecule, acceptor atom, score
      P1  H  7989  7998       L1    19  0.89
      P1  H 10752 10764       L1    22  0.95

> <Gold.Chemscore.Hbond.Weighted>
-6.5609

> <Gold.Chemscore.Metal.Weighted>
-0.0000

> <Gold.Chemscore.Lipo.Weighted>
-10.4520

> <Gold.Chemscore.Internal_Hbond.Weighted>
0.0000

> <Gold.Chemscore.DEClash.Weighted>
0.1505

> <Gold.Chemscore.DEInternal.Weighted>
5.2401

> <Gold.Chemscore.Rot.Weighted>
4.3399

> <Gold.Chemscore.Internal.Correction.Weighted>
   9.000000E+99

> <Gold.Protein.RotatedTorsions>
[ 6907 6896 6895 6894 ] final  144.53 input  -60.11 | X-H torsion
[ 7974 7965 7964 7962 ] final  105.60 input  175.53 | X-H torsion
[ 8008 7997 7996 7995 ] final -173.53 input   59.86 | X-H torsion
[ 10167 10162 10161 10158 ] final -154.16 input  -65.29 | X-H torsion
[ 10718 10713 10712 10709 ] final   55.13 input   66.30 | X-H torsion
[ 10763 10752 10751 10750 ] final    4.97 input  -60.55 | X-H torsion
[ 11005 11000 10999 10996 ] final  145.67 input  -57.11 | X-H torsion

> <Gold.Protein.ActiveResidues>
 VAL166  LYS551  ARG553  GLY616  TRP617  ASP618  TYR619  PRO620  LYS621  CYS622 
 ASP623  PHE694  ASN695  SER759  ASP760  ASP761  ALA762  ILE779  LEU786  VAL792 
 PHE793  MET794  SER795  GLU796  ALA797  LYS798  CYS799  TRP800  GLU811  SER814 

> <Gold.Protein.RotatedAtoms>
  152.1925  133.4783  159.5015 H   0  0  0  0  0  0  0  0  0  0  0  0  # atno 6907 bound_to 6896
  150.6954  134.1694  159.4215 H   0  0  0  0  0  0  0  0  0  0  0  0  # atno 6908 bound_to 6896
  151.9609  135.0123  160.0598 H   0  0  0  0  0  0  0  0  0  0  0  0  # atno 6909 bound_to 6896
  145.3175  139.2522  143.3729 H   0  0  0  0  0  0  0  0  0  0  0  0  # atno 7974 bound_to 7965
  155.9586  140.1140  157.0915 H   0  0  0  0  0  0  0  0  0  0  0  0  # atno 8008 bound_to 7997
  154.4126  140.1186  156.5215 H   0  0  0  0  0  0  0  0  0  0  0  0  # atno 8009 bound_to 7997
  155.6750  140.3473  155.4835 H   0  0  0  0  0  0  0  0  0  0  0  0  # atno 8010 bound_to 7997
  139.7036  143.9222  152.2439 H   0  0  0  0  0  0  0  0  0  0  0  0  # atno 10167 bound_to 10162
  157.5318  130.8635  149.8697 H   0  0  0  0  0  0  0  0  0  0  0  0  # atno 10718 bound_to 10713
  153.2649  135.6927  153.7540 H   0  0  0  0  0  0  0  0  0  0  0  0  # atno 10763 bound_to 10752
  153.6585  135.3364  155.3121 H   0  0  0  0  0  0  0  0  0  0  0  0  # atno 10764 bound_to 10752
  154.8444  135.4471  154.1652 H   0  0  0  0  0  0  0  0  0  0  0  0  # atno 10765 bound_to 10752
  140.0731  134.9140  157.1378 H   0  0  0  0  0  0  0  0  0  0  0  0  # atno 11005 bound_to 11000
  146.3095  140.3725  142.8675 LP  0  0  0  0  0  0  0  0  0  0  0  0  # atno 17320 bound_to 7965
  144.8965  140.7590  143.5893 LP  0  0  0  0  0  0  0  0  0  0  0  0  # atno 17321 bound_to 7965
  139.9072  144.6878  150.8602 LP  0  0  0  0  0  0  0  0  0  0  0  0  # atno 17342 bound_to 10162
  140.7716  143.3470  151.2091 LP  0  0  0  0  0  0  0  0  0  0  0  0  # atno 17343 bound_to 10162
  156.0428  130.3735  150.1392 LP  0  0  0  0  0  0  0  0  0  0  0  0  # atno 17370 bound_to 10713
  156.9577  130.9795  151.3485 LP  0  0  0  0  0  0  0  0  0  0  0  0  # atno 17371 bound_to 10713
  140.3597  134.2507  155.7188 LP  0  0  0  0  0  0  0  0  0  0  0  0  # atno 17394 bound_to 11000
  141.2019  133.7950  157.0416 LP  0  0  0  0  0  0  0  0  0  0  0  0  # atno 17395 bound_to 11000

$$$$
