AV-unprocessed.smi:40|AV-procd|sdf|382|dock2
  -GOLD-   2262016243D 1   1.00000     0.00000
 Structure written by MMmdl.
 47 48  0  0  0  0  0  0  0  0  1 V2000
  152.7726  144.4505  159.2031 C   0  0  0  0  0  0  0  0  0  0  0  0
  153.5764  143.1543  159.0357 C   0  0  0  0  0  0  0  0  0  0  0  0
  152.8516  141.9029  159.5572 C   0  0  0  0  0  0  0  0  0  0  0  0
  153.4465  140.5810  159.0387 C   0  0  0  0  0  0  0  0  0  0  0  0
  152.6091  139.3537  159.4231 C   0  0  0  0  0  0  0  0  0  0  0  0
  152.6045  138.4353  158.3435 O   0  0  0  0  0  0  0  0  0  0  0  0
  151.5755  137.5857  158.1709 C   0  0  0  0  0  0  0  0  0  0  0  0
  150.6991  137.3835  159.0111 O   0  0  0  0  0  0  0  0  0  0  0  0
  151.6115  136.9743  156.8532 N   0  0  0  0  0  0  0  0  0  0  0  0
  150.7498  136.0747  156.3202 C   0  0  0  0  0  0  0  0  0  0  0  0
  150.5518  134.8828  156.8621 N   0  0  0  0  0  0  0  0  0  0  0  0
  149.6818  133.9512  156.3643 C   0  0  0  0  0  0  0  0  0  0  0  0
  149.5707  132.8468  156.8948 O   0  0  0  0  0  0  0  0  0  0  0  0
  148.9342  134.3088  155.2184 N   0  0  0  0  0  0  0  0  0  0  0  0
  147.9734  133.3029  154.6297 C   0  0  1  0  0  0  0  0  0  0  0  0
  146.7055  133.8868  154.5426 O   0  0  0  0  0  0  0  0  0  0  0  0
  146.1846  133.7292  153.2275 C   0  0  1  0  0  0  0  0  0  0  0  0
  145.2259  134.8794  152.8979 C   0  0  0  0  0  0  0  0  0  0  0  0
  147.4313  133.6798  152.3459 C   0  0  2  0  0  0  0  0  0  0  0  0
  147.1964  133.0754  151.0883 O   0  0  0  0  0  0  0  0  0  0  0  0
  148.4199  132.9076  153.2121 C   0  0  2  0  0  0  0  0  0  0  0  0
  148.3329  131.5068  153.0256 O   0  0  0  0  0  0  0  0  0  0  0  0
  149.1225  135.5543  154.6371 C   0  0  0  0  0  0  0  0  0  0  0  0
  149.9929  136.4525  155.1463 C   0  0  0  0  0  0  0  0  0  0  0  0
  150.1536  137.6565  154.5703 F   0  0  0  0  0  0  0  0  0  0  0  0
  147.9321  132.4686  155.3322 H   0  0  0  0  0  0  0  0  0  0  0  0
  145.6583  132.7740  153.1861 H   0  0  0  0  0  0  0  0  0  0  0  0
  147.8105  134.6907  152.1889 H   0  0  0  0  0  0  0  0  0  0  0  0
  149.4500  133.2133  153.0233 H   0  0  0  0  0  0  0  0  0  0  0  0
  153.3543  145.3100  158.8697 H   0  0  0  0  0  0  0  0  0  0  0  0
  152.5056  144.6161  160.2470 H   0  0  0  0  0  0  0  0  0  0  0  0
  151.8529  144.4319  158.6187 H   0  0  0  0  0  0  0  0  0  0  0  0
  153.8433  143.0176  157.9873 H   0  0  0  0  0  0  0  0  0  0  0  0
  154.5186  143.2602  159.5742 H   0  0  0  0  0  0  0  0  0  0  0  0
  152.9018  141.9133  160.6464 H   0  0  0  0  0  0  0  0  0  0  0  0
  151.7922  141.9575  159.3047 H   0  0  0  0  0  0  0  0  0  0  0  0
  153.5248  140.6180  157.9524 H   0  0  0  0  0  0  0  0  0  0  0  0
  154.4625  140.4582  159.4158 H   0  0  0  0  0  0  0  0  0  0  0  0
  153.0141  138.8793  160.3179 H   0  0  0  0  0  0  0  0  0  0  0  0
  151.5862  139.6594  159.6467 H   0  0  0  0  0  0  0  0  0  0  0  0
  152.4016  137.2496  156.2881 H   0  0  0  0  0  0  0  0  0  0  0  0
  144.8289  134.7794  151.8875 H   0  0  0  0  0  0  0  0  0  0  0  0
  145.7275  135.8450  152.9666 H   0  0  0  0  0  0  0  0  0  0  0  0
  144.3821  134.8926  153.5879 H   0  0  0  0  0  0  0  0  0  0  0  0
  147.6737  132.2605  151.0544 H   0  0  0  0  0  0  0  0  0  0  0  0
  148.4583  131.3188  152.1080 H   0  0  0  0  0  0  0  0  0  0  0  0
  148.5688  135.8316  153.7523 H   0  0  0  0  0  0  0  0  0  0  0  0
  1  2  1  0  0  0  0
  1 30  1  0  0  0  0
  1 31  1  0  0  0  0
  1 32  1  0  0  0  0
  2  3  1  0  0  0  0
  2 33  1  0  0  0  0
  2 34  1  0  0  0  0
  3  4  1  0  0  0  0
  3 35  1  0  0  0  0
  3 36  1  0  0  0  0
  4  5  1  0  0  0  0
  4 37  1  0  0  0  0
  4 38  1  0  0  0  0
  5  6  1  0  0  0  0
  5 39  1  0  0  0  0
  5 40  1  0  0  0  0
  6  7  1  0  0  0  0
  7  8  2  0  0  0  0
  7  9  1  0  0  0  0
  9 10  1  0  0  0  0
  9 41  1  0  0  0  0
 10 24  1  0  0  0  0
 10 11  2  0  0  0  0
 11 12  1  0  0  0  0
 12 13  2  0  0  0  0
 12 14  1  0  0  0  0
 14 15  1  0  0  0  0
 14 23  1  0  0  0  0
 15 26  1  0  0  0  0
 15 21  1  0  0  0  0
 15 16  1  0  0  0  0
 16 17  1  0  0  0  0
 17 27  1  0  0  0  0
 17 18  1  0  0  0  0
 17 19  1  0  0  0  0
 18 42  1  0  0  0  0
 18 43  1  0  0  0  0
 18 44  1  0  0  0  0
 19 28  1  0  0  0  0
 19 20  1  0  0  0  0
 19 21  1  0  0  0  0
 20 45  1  0  0  0  0
 21 29  1  0  0  0  0
 21 22  1  0  0  0  0
 22 46  1  0  0  0  0
 23 24  2  0  0  0  0
 23 47  1  0  0  0  0
 24 25  1  0  0  0  0
M  END
> <s_m_source_file>
AV-unprocessed.smi

> <i_m_source_file_index>
40

> <i_lp_mmshare_version>
43012

> <i_f3d_flags>
0

> <s_epik_input>
W0NIM11bQ0gyXVtDSDJdW0NIMl1bQ0gyXU9DKD1PKVtOSF1jMW5jKD1PKW4oW2NIXWMxRilbQ0BASF0yT1tDQEhdKFtDSDNdKVtDQEBIXShbT0hdKVtDQEhdMltPSF0=

> <s_epik_cmdline>
J2VwaWtfcHl0aG9uJywgJy1waCcsICc3LjAnLCAnLXRuJywgJzgnLCAnLW1hJywgJzIwMCcsICctbWV0YWxfYmluZGluZycsICctaW1hZScsICc8aW5maWxlLm1hZT4nLCAnLW9tYWUnLCAnPG91dGZpbGUubWFlPic=

> <r_lp_tautomer_probability>
1

> <r_epik_Ionization_Penalty>
2.29506e-06

> <r_epik_Ionization_Penalty_Charging>
8.26867e-09

> <r_epik_Ionization_Penalty_Neutral>
2.2868e-06

> <r_epik_State_Penalty>
-0

> <r_epik_Charging_Adjusted_Penalty>
8.26867e-09

> <i_epik_Tot_Q>
0

> <i_epik_Tot_abs_Q>
0

> <r_epik_Metal_State_Penalty>
-0

> <b_epik_Metal_Only>
0

> <s_epik_Chemistry_Notes>
This compound has an ester and may undergo hydrolysis at high or low pH. This compound contains an acetal/aminal-like group ( X-CH(R)-Y where X, Y are N, S, or O) that may be acid/base labile, releasing an aldehyde.

> <s_lp_Force_Field>
OPLS_2005

> <r_lp_Energy>
35.629

> <b_lp_Chiralities_Consistent>
1

> <s_lp_Variant>
AV-unprocessed.smi:40-16

> <Gold.Version>
5.8.1

> <Gold.Id.Protein>
6NUR|6NUR_protein|mol2

> <Gold.PLP.Fitness>
47.6110

> <Gold.PLP.PLP>
-37.9643

> <Gold.PLP.part.hbond>
-4.0000

> <Gold.PLP.part.metal>
0.0000

> <Gold.PLP.part.buried>
-4.9647

> <Gold.PLP.part.nonpolar>
-29.3046

> <Gold.PLP.part.repulsive>
0.1498

> <Gold.PLP.ligand.clash>
0.0000

> <Gold.PLP.ligand.torsion>
1.2649

> <Gold.PLP.Chemscore.Hbond>
3.0156

> <Gold.PLP.Chemscore.CHOScore>
1.0000

> <Gold.PLP.Chemscore.Metal>
0.0000

> <Gold.Chemscore.Hbonds>
donor molecule, donor type, donor heavy atom, donor atom, acceptor molecule, acceptor atom, score
      L1  H    20    45       P1 10747  0.91
      L1  H    22    46       P1 10747  1.00
      L1  C    23    47       P1  7948  0.82

> <Gold.PLP.Chemscore.Internal.Correction>
0.1298

> <Gold.Rescore>
     Score         DG    S(hbond)    S(metal)    S(lipo)     H(rot)  DE(clash)    DE(int)     intcor
     13.02     -14.38       2.86        0.00      75.28       3.70       0.08       1.29       ----

> <Gold.Chemscore.Fitness>
13.0171

> <Gold.Chemscore.DG>
-14.3836

> <Gold.Chemscore.ZeroCoef>
-5.4800

> <Gold.Chemscore.Hbond>
2.8614

> <Gold.Chemscore.Metal>
0.0000

> <Gold.Chemscore.Lipo>
75.2780

> <Gold.Chemscore.Internal_Hbond>
0.0000

> <Gold.Chemscore.DEClash>
0.0786

> <Gold.Chemscore.DEInternal>
1.2878

> <Gold.Chemscore.Rot>
3.6957

> <Gold.Chemscore.Internal.Correction>
   9.000000E+99

> <Gold.Chemscore.Hbonds>
donor molecule, donor type, donor heavy atom, donor atom, acceptor molecule, acceptor atom, score
      L1  H    20    45       P1 10747  0.87
      L1  H    22    46       P1 10747  0.98

> <Gold.Chemscore.Hbond.Weighted>
-9.5570

> <Gold.Chemscore.Metal.Weighted>
-0.0000

> <Gold.Chemscore.Lipo.Weighted>
-8.8075

> <Gold.Chemscore.Internal_Hbond.Weighted>
0.0000

> <Gold.Chemscore.DEClash.Weighted>
0.0786

> <Gold.Chemscore.DEInternal.Weighted>
1.2878

> <Gold.Chemscore.Rot.Weighted>
9.4610

> <Gold.Chemscore.Internal.Correction.Weighted>
   9.000000E+99

> <Gold.Protein.RotatedTorsions>
[ 6907 6896 6895 6894 ] final -123.31 input  -60.11 | X-H torsion
[ 7974 7965 7964 7962 ] final -176.20 input  175.53 | X-H torsion
[ 8008 7997 7996 7995 ] final   -2.39 input   59.86 | X-H torsion
[ 10167 10162 10161 10158 ] final -177.02 input  -65.29 | X-H torsion
[ 10718 10713 10712 10709 ] final   -0.48 input   66.30 | X-H torsion
[ 10763 10752 10751 10750 ] final   56.93 input  -60.55 | X-H torsion
[ 11005 11000 10999 10996 ] final    0.85 input  -57.11 | X-H torsion

> <Gold.Protein.ActiveResidues>
 VAL166  LYS551  ARG553  GLY616  TRP617  ASP618  TYR619  PRO620  LYS621  CYS622 
 ASP623  PHE694  ASN695  SER759  ASP760  ASP761  ALA762  ILE779  LEU786  VAL792 
 PHE793  MET794  SER795  GLU796  ALA797  LYS798  CYS799  TRP800  GLU811  SER814 

> <Gold.Protein.RotatedAtoms>
  150.8658  133.7576  159.2976 H   0  0  0  0  0  0  0  0  0  0  0  0  # atno 6907 bound_to 6896
  151.5204  135.1065  159.9886 H   0  0  0  0  0  0  0  0  0  0  0  0  # atno 6908 bound_to 6896
  152.4660  133.7879  159.6942 H   0  0  0  0  0  0  0  0  0  0  0  0  # atno 6909 bound_to 6896
  144.7127  140.1205  143.6405 H   0  0  0  0  0  0  0  0  0  0  0  0  # atno 7974 bound_to 7965
  154.6362  140.2535  155.7375 H   0  0  0  0  0  0  0  0  0  0  0  0  # atno 8008 bound_to 7997
  156.2505  140.2897  156.0656 H   0  0  0  0  0  0  0  0  0  0  0  0  # atno 8009 bound_to 7997
  155.1667  140.0385  157.2844 H   0  0  0  0  0  0  0  0  0  0  0  0  # atno 8010 bound_to 7997
  139.5501  144.2133  152.1060 H   0  0  0  0  0  0  0  0  0  0  0  0  # atno 10167 bound_to 10162
  156.8197  130.5452  149.5698 H   0  0  0  0  0  0  0  0  0  0  0  0  # atno 10718 bound_to 10713
  152.9840  135.5659  154.5308 H   0  0  0  0  0  0  0  0  0  0  0  0  # atno 10763 bound_to 10752
  154.4780  135.2787  155.1595 H   0  0  0  0  0  0  0  0  0  0  0  0  # atno 10764 bound_to 10752
  154.3115  135.6287  153.5521 H   0  0  0  0  0  0  0  0  0  0  0  0  # atno 10765 bound_to 10752
  140.6219  133.9653  155.8229 H   0  0  0  0  0  0  0  0  0  0  0  0  # atno 11005 bound_to 11000
  145.9375  139.2646  143.1288 LP  0  0  0  0  0  0  0  0  0  0  0  0  # atno 17320 bound_to 7965
  145.9459  140.8945  143.0284 LP  0  0  0  0  0  0  0  0  0  0  0  0  # atno 17321 bound_to 7965
  140.1627  144.5011  150.6624 LP  0  0  0  0  0  0  0  0  0  0  0  0  # atno 17342 bound_to 10162
  140.6760  143.2305  151.5505 LP  0  0  0  0  0  0  0  0  0  0  0  0  # atno 17343 bound_to 10162
  156.0996  130.5958  150.9871 LP  0  0  0  0  0  0  0  0  0  0  0  0  # atno 17370 bound_to 10713
  157.6463  131.0903  150.8146 LP  0  0  0  0  0  0  0  0  0  0  0  0  # atno 17371 bound_to 10713
  141.0736  134.0168  157.3490 LP  0  0  0  0  0  0  0  0  0  0  0  0  # atno 17394 bound_to 11000
  139.9150  135.0195  156.7844 LP  0  0  0  0  0  0  0  0  0  0  0  0  # atno 17395 bound_to 11000

$$$$
