AV-unprocessed.smi:1884|AV-procd|sdf|7649|dock1
  -GOLD-   22720 9373D 1   1.00000     0.00000
 Structure written by MMmdl.
 41 43  0  0  0  0  0  0  0  0  2 V2000
  149.5810  141.0345  155.4719 C   0  0  0  0  0  0  0  0  0  0  0  0
  150.3807  141.5722  156.6108 C   0  0  0  0  0  0  0  0  0  0  0  0
  150.6132  142.8883  156.8774 N   0  3  0  0  0  0  0  0  0  0  0  0
  151.4002  143.0061  158.0239 C   0  0  0  0  0  0  0  0  0  0  0  0
  151.8908  144.1308  158.6801 C   0  0  0  0  0  0  0  0  0  0  0  0
  152.6753  143.9008  159.8294 C   0  0  0  0  0  0  0  0  0  0  0  0
  152.9443  142.5939  160.2854 C   0  0  0  0  0  0  0  0  0  0  0  0
  152.4377  141.4615  159.6141 C   0  0  0  0  0  0  0  0  0  0  0  0
  151.6626  141.6972  158.4787 C   0  0  0  0  0  0  0  0  0  0  0  0
  151.0108  140.8459  157.5777 N   0  0  0  0  0  0  0  0  0  0  0  0
  151.0746  139.3890  157.7734 C   0  0  0  0  0  0  0  0  0  0  0  0
  149.7684  138.8041  158.3473 C   0  0  1  0  0  0  0  0  0  0  0  0
  148.6895  138.9429  157.4449 O   0  0  0  0  0  0  0  0  0  0  0  0
  149.8884  137.3314  158.7719 C   0  0  0  0  0  0  0  0  0  0  0  0
  149.5002  137.1824  160.1325 O   0  0  0  0  0  0  0  0  0  0  0  0
  148.6074  136.1822  160.4518 C   0  0  0  0  0  0  0  0  0  0  0  0
  148.1415  136.1411  161.7822 C   0  0  0  0  0  0  0  0  0  0  0  0
  147.2269  135.1538  162.1971 C   0  0  0  0  0  0  0  0  0  0  0  0
  146.7649  134.1907  161.2787 C   0  0  0  0  0  0  0  0  0  0  0  0
  145.8209  133.1704  161.7027 C   0  0  0  0  0  0  0  0  0  0  0  0
  145.0692  132.3579  162.0401 N   0  0  0  0  0  0  0  0  0  0  0  0
  147.2223  134.2214  159.9465 C   0  0  0  0  0  0  0  0  0  0  0  0
  148.1374  135.2095  159.5335 C   0  0  0  0  0  0  0  0  0  0  0  0
  149.2189  141.8461  154.8404 H   0  0  0  0  0  0  0  0  0  0  0  0
  148.7227  140.4759  155.8456 H   0  0  0  0  0  0  0  0  0  0  0  0
  150.1924  140.3683  154.8632 H   0  0  0  0  0  0  0  0  0  0  0  0
  151.6869  145.1328  158.3319 H   0  0  0  0  0  0  0  0  0  0  0  0
  153.0801  144.7435  160.3710 H   0  0  0  0  0  0  0  0  0  0  0  0
  153.5522  142.4562  161.1680 H   0  0  0  0  0  0  0  0  0  0  0  0
  152.6536  140.4650  159.9704 H   0  0  0  0  0  0  0  0  0  0  0  0
  151.3471  138.9145  156.8307 H   0  0  0  0  0  0  0  0  0  0  0  0
  151.8993  139.1907  158.4588 H   0  0  0  0  0  0  0  0  0  0  0  0
  149.4930  139.3795  159.2320 H   0  0  0  0  0  0  0  0  0  0  0  0
  148.1119  138.2030  157.5526 H   0  0  0  0  0  0  0  0  0  0  0  0
  149.2239  136.7339  158.1460 H   0  0  0  0  0  0  0  0  0  0  0  0
  150.9069  136.9728  158.6119 H   0  0  0  0  0  0  0  0  0  0  0  0
  148.4901  136.8751  162.4937 H   0  0  0  0  0  0  0  0  0  0  0  0
  146.8842  135.1415  163.2219 H   0  0  0  0  0  0  0  0  0  0  0  0
  146.8747  133.4878  159.2331 H   0  0  0  0  0  0  0  0  0  0  0  0
  148.4627  135.1993  158.5045 H   0  0  0  0  0  0  0  0  0  0  0  0
  150.2572  143.6500  156.3142 H   0  0  0  0  0  0  0  0  0  0  0  0
  1  2  1  0  0  0  0
  1 24  1  0  0  0  0
  1 25  1  0  0  0  0
  1 26  1  0  0  0  0
  2 10  1  0  0  0  0
  2  3  2  0  0  0  0
  3  4  1  0  0  0  0
  3 41  1  0  0  0  0
  4  9  2  0  0  0  0
  4  5  1  0  0  0  0
  5  6  2  0  0  0  0
  5 27  1  0  0  0  0
  6  7  1  0  0  0  0
  6 28  1  0  0  0  0
  7  8  2  0  0  0  0
  7 29  1  0  0  0  0
  8  9  1  0  0  0  0
  8 30  1  0  0  0  0
  9 10  1  0  0  0  0
 10 11  1  0  0  0  0
 11 12  1  0  0  0  0
 11 31  1  0  0  0  0
 11 32  1  0  0  0  0
 12 13  1  0  0  0  0
 12 14  1  0  0  0  0
 12 33  1  0  0  0  0
 13 34  1  0  0  0  0
 14 15  1  0  0  0  0
 14 35  1  0  0  0  0
 14 36  1  0  0  0  0
 15 16  1  0  0  0  0
 16 23  1  0  0  0  0
 16 17  2  0  0  0  0
 17 18  1  0  0  0  0
 17 37  1  0  0  0  0
 18 19  2  0  0  0  0
 18 38  1  0  0  0  0
 19 20  1  0  0  0  0
 19 22  1  0  0  0  0
 20 21  3  0  0  0  0
 22 23  2  0  0  0  0
 22 39  1  0  0  0  0
 23 40  1  0  0  0  0
M  CHG  1   3   1
M  END
> <s_m_source_file>
AV-unprocessed.smi

> <i_m_source_file_index>
1884

> <i_lp_mmshare_version>
43012

> <i_f3d_flags>
0

> <s_epik_input>
W2NIXTFbY0hdW2NIXVtjSF1jKGMxMiluKGMobjIpW0NIM10pW0NIMl1bQ0BIXShbT0hdKVtDSDJdT2MzW2NIXVtjSF1jKEMjTilbY0hdW2NIXTM=

> <s_epik_cmdline>
J2VwaWtfcHl0aG9uJywgJy1waCcsICc3LjAnLCAnLXRuJywgJzgnLCAnLW1hJywgJzIwMCcsICctbWV0YWxfYmluZGluZycsICctaW1hZScsICc8aW5maWxlLm1hZT4nLCAnLW9tYWUnLCAnPG91dGZpbGUubWFlPic=

> <r_epik_Ionization_Penalty>
1.04791

> <r_epik_Ionization_Penalty_Charging>
1.04791

> <r_epik_Ionization_Penalty_Neutral>
2.3993e-06

> <r_epik_State_Penalty>
1.10051

> <r_epik_Charging_Adjusted_Penalty>
2.14841

> <i_epik_Tot_Q>
1

> <i_epik_Tot_abs_Q>
1

> <r_epik_Metal_State_Penalty>
5.09283

> <b_epik_Metal_Only>
0

> <s_lp_Force_Field>
OPLS_2005

> <r_lp_Energy>
19.6719

> <b_lp_Chiralities_Consistent>
1

> <s_lp_Variant>
AV-unprocessed.smi:1884-4

> <Gold.Version>
5.8.1

> <Gold.Id.Protein>
6NUR|6NUR_protein|mol2

> <Gold.PLP.Fitness>
51.5877

> <Gold.PLP.PLP>
-47.4443

> <Gold.PLP.part.hbond>
-2.0000

> <Gold.PLP.part.metal>
0.0000

> <Gold.PLP.part.buried>
-6.7267

> <Gold.PLP.part.nonpolar>
-40.9813

> <Gold.PLP.part.repulsive>
0.1521

> <Gold.PLP.ligand.clash>
0.0000

> <Gold.PLP.ligand.torsion>
1.3294

> <Gold.PLP.Chemscore.Hbond>
2.2048

> <Gold.PLP.Chemscore.CHOScore>
0.0000

> <Gold.PLP.Chemscore.Metal>
0.0000

> <Gold.Chemscore.Hbonds>
donor molecule, donor type, donor heavy atom, donor atom, acceptor molecule, acceptor atom, score
      L1  H     3    41       P1  8028  2.00
      P1  H  6931  6943       L1    15  0.21

> <Gold.PLP.Chemscore.Internal.Correction>
0.1878

> <Gold.Rescore>
     Score         DG    S(hbond)    S(metal)    S(lipo)     H(rot)  DE(clash)    DE(int)     intcor
     15.33     -16.85       1.02        0.00     120.43       2.39       0.03       1.49       ----

> <Gold.Chemscore.Fitness>
15.3257

> <Gold.Chemscore.DG>
-16.8520

> <Gold.Chemscore.ZeroCoef>
-5.4800

> <Gold.Chemscore.Hbond>
1.0193

> <Gold.Chemscore.Metal>
0.0000

> <Gold.Chemscore.Lipo>
120.4302

> <Gold.Chemscore.Internal_Hbond>
0.0000

> <Gold.Chemscore.DEClash>
0.0338

> <Gold.Chemscore.DEInternal>
1.4925

> <Gold.Chemscore.Rot>
2.3917

> <Gold.Chemscore.Internal.Correction>
   9.000000E+99

> <Gold.Chemscore.Hbonds>
donor molecule, donor type, donor heavy atom, donor atom, acceptor molecule, acceptor atom, score
      L1  H     3    41       P1  8028  0.98
      P1  H  6931  6943       L1    15  0.02

> <Gold.Chemscore.Hbond.Weighted>
-3.4045

> <Gold.Chemscore.Metal.Weighted>
-0.0000

> <Gold.Chemscore.Lipo.Weighted>
-14.0903

> <Gold.Chemscore.Internal_Hbond.Weighted>
0.0000

> <Gold.Chemscore.DEClash.Weighted>
0.0338

> <Gold.Chemscore.DEInternal.Weighted>
1.4925

> <Gold.Chemscore.Rot.Weighted>
6.1229

> <Gold.Chemscore.Internal.Correction.Weighted>
   9.000000E+99

> <Gold.Protein.RotatedTorsions>
[ 6907 6896 6895 6894 ] final   -0.88 input  -60.11 | X-H torsion
[ 7974 7965 7964 7962 ] final -142.59 input  175.53 | X-H torsion
[ 8008 7997 7996 7995 ] final -164.33 input   59.86 | X-H torsion
[ 10167 10162 10161 10158 ] final  -57.75 input  -65.29 | X-H torsion
[ 10718 10713 10712 10709 ] final  -93.82 input   66.30 | X-H torsion
[ 10763 10752 10751 10750 ] final  136.30 input  -60.55 | X-H torsion
[ 11005 11000 10999 10996 ] final  -22.16 input  -57.11 | X-H torsion

> <Gold.Protein.ActiveResidues>
 VAL166  LYS551  ARG553  GLY616  TRP617  ASP618  TYR619  PRO620  LYS621  CYS622 
 ASP623  PHE694  ASN695  SER759  ASP760  ASP761  ALA762  ILE779  LEU786  VAL792 
 PHE793  MET794  SER795  GLU796  ALA797  LYS798  CYS799  TRP800  GLU811  SER814 

> <Gold.Protein.RotatedAtoms>
  151.5551  135.1067  159.9958 H   0  0  0  0  0  0  0  0  0  0  0  0  # atno 6907 bound_to 6896
  152.4473  133.7557  159.6729 H   0  0  0  0  0  0  0  0  0  0  0  0  # atno 6908 bound_to 6896
  150.8392  133.7896  159.3091 H   0  0  0  0  0  0  0  0  0  0  0  0  # atno 6909 bound_to 6896
  144.8432  140.5939  143.5438 H   0  0  0  0  0  0  0  0  0  0  0  0  # atno 7974 bound_to 7965
  155.8341  140.0938  157.1775 H   0  0  0  0  0  0  0  0  0  0  0  0  # atno 8008 bound_to 7997
  154.3980  140.1413  156.3710 H   0  0  0  0  0  0  0  0  0  0  0  0  # atno 8009 bound_to 7997
  155.8135  140.3449  155.5474 H   0  0  0  0  0  0  0  0  0  0  0  0  # atno 8010 bound_to 7997
  140.6239  143.2430  151.5411 H   0  0  0  0  0  0  0  0  0  0  0  0  # atno 10167 bound_to 10162
  156.0018  130.5042  150.5834 H   0  0  0  0  0  0  0  0  0  0  0  0  # atno 10718 bound_to 10713
  153.8542  135.3075  155.3434 H   0  0  0  0  0  0  0  0  0  0  0  0  # atno 10763 bound_to 10752
  154.7878  135.4800  153.9987 H   0  0  0  0  0  0  0  0  0  0  0  0  # atno 10764 bound_to 10752
  153.1500  135.6841  153.8990 H   0  0  0  0  0  0  0  0  0  0  0  0  # atno 10765 bound_to 10752
  140.8631  133.7774  156.0097 H   0  0  0  0  0  0  0  0  0  0  0  0  # atno 11005 bound_to 11000
  145.4650  139.1509  143.3845 LP  0  0  0  0  0  0  0  0  0  0  0  0  # atno 17320 bound_to 7965
  146.2721  140.4782  142.8810 LP  0  0  0  0  0  0  0  0  0  0  0  0  # atno 17321 bound_to 7965
  139.5463  144.2513  152.1448 LP  0  0  0  0  0  0  0  0  0  0  0  0  # atno 17342 bound_to 10162
  140.1740  144.4909  150.6564 LP  0  0  0  0  0  0  0  0  0  0  0  0  # atno 17343 bound_to 10162
  157.3711  131.0765  151.1557 LP  0  0  0  0  0  0  0  0  0  0  0  0  # atno 17370 bound_to 10713
  157.2310  130.6525  149.5850 LP  0  0  0  0  0  0  0  0  0  0  0  0  # atno 17371 bound_to 10713
  140.8660  134.2783  157.5213 LP  0  0  0  0  0  0  0  0  0  0  0  0  # atno 17394 bound_to 11000
  139.8708  134.9543  156.4171 LP  0  0  0  0  0  0  0  0  0  0  0  0  # atno 17395 bound_to 11000

$$$$
