AV-unprocessed.smi:2566|AV-procd|sdf|10073|dock10
  -GOLD-   2272014103D 1   1.00000     0.00000
 Structure written by MMmdl.
 21 22  0  0  0  0  0  0  0  0  2 V2000
  152.1832  140.2394  157.9772 C   0  0  0  0  0  0  0  0  0  0  0  0
  151.0820  140.5757  157.3128 N   0  0  0  0  0  0  0  0  0  0  0  0
  151.3508  140.0481  156.0846 C   0  0  0  0  0  0  0  0  0  0  0  0
  150.3920  140.1056  154.9360 C   0  0  1  0  0  0  0  0  0  0  0  0
  150.0802  138.7085  154.3664 C   0  0  0  0  0  0  0  0  0  0  0  0
  149.0586  138.8149  153.3064 N   0  3  0  0  0  0  0  0  0  0  0  0
  147.8466  139.5046  153.7917 C   0  0  0  0  0  0  0  0  0  0  0  0
  148.2179  140.8707  154.3963 C   0  0  0  0  0  0  0  0  0  0  0  0
  149.1891  140.6971  155.4233 O   0  0  0  0  0  0  0  0  0  0  0  0
  152.5046  139.3989  155.9746 N   0  0  0  0  0  0  0  0  0  0  0  0
  153.0788  139.5352  157.2470 O   0  0  0  0  0  0  0  0  0  0  0  0
  152.3705  140.4857  159.0119 H   0  0  0  0  0  0  0  0  0  0  0  0
  150.8154  140.7439  154.1575 H   0  0  0  0  0  0  0  0  0  0  0  0
  150.9796  138.2476  153.9571 H   0  0  0  0  0  0  0  0  0  0  0  0
  149.7090  138.0502  155.1535 H   0  0  0  0  0  0  0  0  0  0  0  0
  149.4447  139.3420  152.5360 H   0  0  0  0  0  0  0  0  0  0  0  0
  147.1446  139.6272  152.9667 H   0  0  0  0  0  0  0  0  0  0  0  0
  147.3566  138.8821  154.5416 H   0  0  0  0  0  0  0  0  0  0  0  0
  148.6018  141.5447  153.6289 H   0  0  0  0  0  0  0  0  0  0  0  0
  147.3340  141.3452  154.8230 H   0  0  0  0  0  0  0  0  0  0  0  0
  148.8128  137.8903  152.9816 H   0  0  0  0  0  0  0  0  0  0  0  0
  1 11  1  0  0  0  0
  1  2  2  0  0  0  0
  1 12  1  0  0  0  0
  2  3  1  0  0  0  0
  3  4  1  0  0  0  0
  3 10  2  0  0  0  0
  4  9  1  0  0  0  0
  4  5  1  0  0  0  0
  4 13  1  0  0  0  0
  5  6  1  0  0  0  0
  5 14  1  0  0  0  0
  5 15  1  0  0  0  0
  6  7  1  0  0  0  0
  6 16  1  0  0  0  0
  6 21  1  0  0  0  0
  7  8  1  0  0  0  0
  7 17  1  0  0  0  0
  7 18  1  0  0  0  0
  8  9  1  0  0  0  0
  8 19  1  0  0  0  0
  8 20  1  0  0  0  0
 10 11  1  0  0  0  0
M  CHG  1   6   1
M  END
> <s_m_source_file>
AV-unprocessed.smi

> <i_m_source_file_index>
2566

> <i_lp_mmshare_version>
43012

> <i_f3d_flags>
0

> <s_epik_input>
bjFvW2NIXW5jMVtDQEBIXTJbQ0gyXVtOSF1bQ0gyXVtDSDJdTzI=

> <s_epik_cmdline>
J2VwaWtfcHl0aG9uJywgJy1waCcsICc3LjAnLCAnLXRuJywgJzgnLCAnLW1hJywgJzIwMCcsICctbWV0YWxfYmluZGluZycsICctaW1hZScsICc8aW5maWxlLm1hZT4nLCAnLW9tYWUnLCAnPG91dGZpbGUubWFlPic=

> <r_lp_tautomer_probability>
1

> <r_epik_Ionization_Penalty>
0.157575

> <r_epik_Ionization_Penalty_Charging>
0.157575

> <r_epik_Ionization_Penalty_Neutral>
8.82756e-14

> <r_epik_State_Penalty>
0.146877

> <r_epik_Charging_Adjusted_Penalty>
0.304452

> <i_epik_Tot_Q>
1

> <i_epik_Tot_abs_Q>
1

> <r_epik_Metal_State_Penalty>
0.146877

> <b_epik_Metal_Only>
0

> <s_lp_Force_Field>
OPLS_2005

> <r_lp_Energy>
9.76896

> <b_lp_Chiralities_Consistent>
1

> <s_lp_Variant>
AV-unprocessed.smi:2566-2

> <Gold.Version>
5.8.1

> <Gold.Id.Protein>
6NUR|6NUR_protein|mol2

> <Gold.PLP.Fitness>
30.0578

> <Gold.PLP.PLP>
-18.2048

> <Gold.PLP.part.hbond>
-3.9711

> <Gold.PLP.part.metal>
0.0000

> <Gold.PLP.part.buried>
-1.4257

> <Gold.PLP.part.nonpolar>
-13.1702

> <Gold.PLP.part.repulsive>
0.1745

> <Gold.PLP.ligand.clash>
0.0000

> <Gold.PLP.ligand.torsion>
0.0810

> <Gold.PLP.Chemscore.Hbond>
4.0000

> <Gold.PLP.Chemscore.CHOScore>
0.0000

> <Gold.PLP.Chemscore.Metal>
0.0000

> <Gold.Chemscore.Hbonds>
donor molecule, donor type, donor heavy atom, donor atom, acceptor molecule, acceptor atom, score
      L1  H     6    16       P1  7957  1.00
      L1  H     6    21       P1  7948  2.00
      P1  H  7997  8009       L1    11  1.00

> <Gold.PLP.Chemscore.Internal.Correction>
0.0151

> <Gold.Rescore>
     Score         DG    S(hbond)    S(metal)    S(lipo)     H(rot)  DE(clash)    DE(int)     intcor
     15.34     -15.41       2.87        0.00      24.90       1.00       0.01       0.06       ----

> <Gold.Chemscore.Fitness>
15.3430

> <Gold.Chemscore.DG>
-15.4073

> <Gold.Chemscore.ZeroCoef>
-5.4800

> <Gold.Chemscore.Hbond>
2.8664

> <Gold.Chemscore.Metal>
0.0000

> <Gold.Chemscore.Lipo>
24.9027

> <Gold.Chemscore.Internal_Hbond>
0.0000

> <Gold.Chemscore.DEClash>
0.0067

> <Gold.Chemscore.DEInternal>
0.0576

> <Gold.Chemscore.Rot>
1.0000

> <Gold.Chemscore.Internal.Correction>
   9.000000E+99

> <Gold.Chemscore.Hbonds>
donor molecule, donor type, donor heavy atom, donor atom, acceptor molecule, acceptor atom, score
      L1  H     6    16       P1  7957  0.94
      L1  H     6    21       P1  7948  0.95
      P1  H  7997  8009       L1    11  0.24

> <Gold.Chemscore.Hbond.Weighted>
-9.5737

> <Gold.Chemscore.Metal.Weighted>
-0.0000

> <Gold.Chemscore.Lipo.Weighted>
-2.9136

> <Gold.Chemscore.Internal_Hbond.Weighted>
0.0000

> <Gold.Chemscore.DEClash.Weighted>
0.0067

> <Gold.Chemscore.DEInternal.Weighted>
0.0576

> <Gold.Chemscore.Rot.Weighted>
2.5600

> <Gold.Chemscore.Internal.Correction.Weighted>
   9.000000E+99

> <Gold.Protein.RotatedTorsions>
[ 6907 6896 6895 6894 ] final  -90.37 input  -60.11 | X-H torsion
[ 7974 7965 7964 7962 ] final   28.73 input  175.53 | X-H torsion
[ 8008 7997 7996 7995 ] final  166.00 input   59.86 | X-H torsion
[ 10167 10162 10161 10158 ] final -151.04 input  -65.29 | X-H torsion
[ 10718 10713 10712 10709 ] final   29.46 input   66.30 | X-H torsion
[ 10763 10752 10751 10750 ] final  -80.34 input  -60.55 | X-H torsion
[ 11005 11000 10999 10996 ] final   72.45 input  -57.11 | X-H torsion

> <Gold.Protein.ActiveResidues>
 VAL166  LYS551  ARG553  GLY616  TRP617  ASP618  TYR619  PRO620  LYS621  CYS622 
 ASP623  PHE694  ASN695  SER759  ASP760  ASP761  ALA762  ILE779  LEU786  VAL792 
 PHE793  MET794  SER795  GLU796  ALA797  LYS798  CYS799  TRP800  GLU811  SER814 

> <Gold.Protein.RotatedAtoms>
  150.6881  134.2442  159.4484 H   0  0  0  0  0  0  0  0  0  0  0  0  # atno 6907 bound_to 6896
  152.0384  134.9723  160.0583 H   0  0  0  0  0  0  0  0  0  0  0  0  # atno 6908 bound_to 6896
  152.1235  133.4332  159.4723 H   0  0  0  0  0  0  0  0  0  0  0  0  # atno 6909 bound_to 6896
  146.1712  139.7016  142.8966 H   0  0  0  0  0  0  0  0  0  0  0  0  # atno 7974 bound_to 7965
  156.1754  140.1655  156.8372 H   0  0  0  0  0  0  0  0  0  0  0  0  # atno 8008 bound_to 7997
  154.5301  140.0758  156.8364 H   0  0  0  0  0  0  0  0  0  0  0  0  # atno 8009 bound_to 7997
  155.3424  140.3385  155.4241 H   0  0  0  0  0  0  0  0  0  0  0  0  # atno 8010 bound_to 7997
  139.7302  143.8820  152.2532 H   0  0  0  0  0  0  0  0  0  0  0  0  # atno 10167 bound_to 10162
  157.2468  130.7096  149.6386 H   0  0  0  0  0  0  0  0  0  0  0  0  # atno 10718 bound_to 10713
  154.5499  135.5664  153.6913 H   0  0  0  0  0  0  0  0  0  0  0  0  # atno 10763 bound_to 10752
  152.9987  135.6248  154.2388 H   0  0  0  0  0  0  0  0  0  0  0  0  # atno 10764 bound_to 10752
  154.2322  135.2865  155.2865 H   0  0  0  0  0  0  0  0  0  0  0  0  # atno 10765 bound_to 10752
  139.9490  134.7260  156.0908 H   0  0  0  0  0  0  0  0  0  0  0  0  # atno 11005 bound_to 11000
  145.4335  141.0417  143.2897 LP  0  0  0  0  0  0  0  0  0  0  0  0  # atno 17320 bound_to 7965
  144.8166  139.5866  143.7005 LP  0  0  0  0  0  0  0  0  0  0  0  0  # atno 17321 bound_to 7965
  139.8741  144.7052  150.8953 LP  0  0  0  0  0  0  0  0  0  0  0  0  # atno 17342 bound_to 10162
  140.7770  143.3714  151.1642 LP  0  0  0  0  0  0  0  0  0  0  0  0  # atno 17343 bound_to 10162
  155.9667  130.4440  150.5444 LP  0  0  0  0  0  0  0  0  0  0  0  0  # atno 17370 bound_to 10713
  157.3320  131.0701  151.1854 LP  0  0  0  0  0  0  0  0  0  0  0  0  # atno 17371 bound_to 10713
  141.1148  133.6631  156.3068 LP  0  0  0  0  0  0  0  0  0  0  0  0  # atno 17394 bound_to 11000
  140.5764  134.5789  157.5469 LP  0  0  0  0  0  0  0  0  0  0  0  0  # atno 17395 bound_to 11000

$$$$
