AV-unprocessed.smi:1843|AV-procd|sdf|7506|dock9
  -GOLD-   22720 9213D 1   1.00000     0.00000
 Structure written by MMmdl.
 36 38  0  0  0  0  0  0  0  0  2 V2000
  151.0713  136.9632  159.4337 O   0  0  0  0  0  0  0  0  0  0  0  0
  150.0991  137.6083  159.0344 C   0  0  0  0  0  0  0  0  0  0  0  0
  150.1336  138.6883  158.2212 N   0  5  0  0  0  0  0  0  0  0  0  0
  150.9690  139.7053  158.4901 C   0  0  0  0  0  0  0  0  0  0  0  0
  152.1353  139.5276  159.1267 N   0  0  0  0  0  0  0  0  0  0  0  0
  152.8461  140.7063  159.2997 N   0  0  0  0  0  0  0  0  0  0  0  0
  152.2102  141.7591  158.7802 C   0  0  0  0  0  0  0  0  0  0  0  0
  152.7725  143.1400  158.8370 C   0  0  0  0  0  0  0  0  0  0  0  0
  152.1387  144.2197  159.6868 C   0  0  0  0  0  0  0  0  0  0  0  0
  152.0502  144.2963  158.1841 C   0  0  0  0  0  0  0  0  0  0  0  0
  150.6675  141.3806  158.0304 S   0  0  0  0  0  0  0  0  0  0  0  0
  148.8613  137.2583  159.4128 N   0  0  0  0  0  0  0  0  0  0  0  0
  148.5109  136.1490  160.2983 C   0  0  2  0  0  0  0  0  0  0  0  0
  147.5751  135.1603  159.5763 C   0  0  0  0  0  0  0  0  0  0  0  0
  147.2015  133.9812  160.4888 C   0  0  0  0  0  0  0  0  0  0  0  0
  146.5724  134.4692  161.8035 C   0  0  0  0  0  0  0  0  0  0  0  0
  147.4907  135.4681  162.5315 C   0  0  0  0  0  0  0  0  0  0  0  0
  147.8981  136.6497  161.6297 C   0  0  2  0  0  0  0  0  0  0  0  0
  146.7630  137.4613  161.3894 O   0  0  0  0  0  0  0  0  0  0  0  0
  153.8586  143.1151  158.7749 H   0  0  0  0  0  0  0  0  0  0  0  0
  151.2245  143.9807  160.2266 H   0  0  0  0  0  0  0  0  0  0  0  0
  152.8056  144.9185  160.1875 H   0  0  0  0  0  0  0  0  0  0  0  0
  152.6564  145.0469  157.6815 H   0  0  0  0  0  0  0  0  0  0  0  0
  151.0821  144.0965  157.7293 H   0  0  0  0  0  0  0  0  0  0  0  0
  148.0968  137.8136  159.0581 H   0  0  0  0  0  0  0  0  0  0  0  0
  149.4288  135.6065  160.5329 H   0  0  0  0  0  0  0  0  0  0  0  0
  146.6684  135.6719  159.2509 H   0  0  0  0  0  0  0  0  0  0  0  0
  148.0568  134.7842  158.6729 H   0  0  0  0  0  0  0  0  0  0  0  0
  146.5109  133.3154  159.9709 H   0  0  0  0  0  0  0  0  0  0  0  0
  148.0932  133.3923  160.7073 H   0  0  0  0  0  0  0  0  0  0  0  0
  145.6105  134.9389  161.5945 H   0  0  0  0  0  0  0  0  0  0  0  0
  146.3630  133.6188  162.4529 H   0  0  0  0  0  0  0  0  0  0  0  0
  147.0039  135.8335  163.4364 H   0  0  0  0  0  0  0  0  0  0  0  0
  148.3902  134.9463  162.8607 H   0  0  0  0  0  0  0  0  0  0  0  0
  148.6262  137.2626  162.1621 H   0  0  0  0  0  0  0  0  0  0  0  0
  145.9932  136.9159  161.4531 H   0  0  0  0  0  0  0  0  0  0  0  0
  1  2  2  0  0  0  0
  2  3  1  0  0  0  0
  2 12  1  0  0  0  0
  3  4  1  0  0  0  0
  4 11  1  0  0  0  0
  4  5  2  0  0  0  0
  5  6  1  0  0  0  0
  6  7  2  0  0  0  0
  7  8  1  0  0  0  0
  7 11  1  0  0  0  0
  8 10  1  0  0  0  0
  8  9  1  0  0  0  0
  8 20  1  0  0  0  0
  9 10  1  0  0  0  0
  9 21  1  0  0  0  0
  9 22  1  0  0  0  0
 10 23  1  0  0  0  0
 10 24  1  0  0  0  0
 12 13  1  0  0  0  0
 12 25  1  0  0  0  0
 13 18  1  0  0  0  0
 13 14  1  0  0  0  0
 13 26  1  0  0  0  0
 14 15  1  0  0  0  0
 14 27  1  0  0  0  0
 14 28  1  0  0  0  0
 15 16  1  0  0  0  0
 15 29  1  0  0  0  0
 15 30  1  0  0  0  0
 16 17  1  0  0  0  0
 16 31  1  0  0  0  0
 16 32  1  0  0  0  0
 17 18  1  0  0  0  0
 17 33  1  0  0  0  0
 17 34  1  0  0  0  0
 18 19  1  0  0  0  0
 18 35  1  0  0  0  0
 19 36  1  0  0  0  0
M  CHG  1   3  -1
M  END
> <s_m_source_file>
AV-unprocessed.smi

> <i_m_source_file_index>
1843

> <i_lp_mmshare_version>
43012

> <i_f3d_flags>
0

> <s_epik_input>
W09IXVtDQEBIXTFbQ0gyXVtDSDJdW0NIMl1bQ0gyXVtDQEhdMVtOSF1DKD1PKVtOSF1jMm5uYyhzMilbQ0hdM1tDSDJdW0NIMl0z

> <s_epik_cmdline>
J2VwaWtfcHl0aG9uJywgJy1waCcsICc3LjAnLCAnLXRuJywgJzgnLCAnLW1hJywgJzIwMCcsICctbWV0YWxfYmluZGluZycsICctaW1hZScsICc8aW5maWxlLm1hZT4nLCAnLW9tYWUnLCAnPG91dGZpbGUubWFlPic=

> <r_lp_tautomer_probability>
1

> <r_epik_Ionization_Penalty>
4.7996

> <r_epik_Ionization_Penalty_Charging>
4.64516

> <r_epik_Ionization_Penalty_Neutral>
0.154442

> <r_epik_State_Penalty>
4.64493

> <r_epik_Charging_Adjusted_Penalty>
9.29009

> <i_epik_Tot_Q>
-1

> <i_epik_Tot_abs_Q>
1

> <r_epik_Metal_State_Penalty>
0.896144

> <b_epik_Metal_Only>
1

> <s_lp_Force_Field>
OPLS_2005

> <r_lp_Energy>
9.09011

> <b_lp_Chiralities_Consistent>
1

> <s_lp_Variant>
AV-unprocessed.smi:1843-7

> <Gold.Version>
5.8.1

> <Gold.Id.Protein>
6NUR|6NUR_protein|mol2

> <Gold.PLP.Fitness>
42.3952

> <Gold.PLP.PLP>
-37.6306

> <Gold.PLP.part.hbond>
-2.5267

> <Gold.PLP.part.metal>
0.0000

> <Gold.PLP.part.buried>
-3.7846

> <Gold.PLP.part.nonpolar>
-32.1263

> <Gold.PLP.part.repulsive>
0.2315

> <Gold.PLP.ligand.clash>
0.0000

> <Gold.PLP.ligand.torsion>
0.7042

> <Gold.PLP.Chemscore.Hbond>
2.0000

> <Gold.PLP.Chemscore.CHOScore>
0.0000

> <Gold.PLP.Chemscore.Metal>
0.0000

> <Gold.Chemscore.Hbonds>
donor molecule, donor type, donor heavy atom, donor atom, acceptor molecule, acceptor atom, score
      P1  H  6896  6909       L1     1  1.00
      P1  H  6934  6947       L1    19  1.00

> <Gold.PLP.Chemscore.Internal.Correction>
0.1731

> <Gold.Rescore>
     Score         DG    S(hbond)    S(metal)    S(lipo)     H(rot)  DE(clash)    DE(int)     intcor
     16.22     -18.52       1.96        0.00      92.89       1.72       0.14       2.15       ----

> <Gold.Chemscore.Fitness>
16.2201

> <Gold.Chemscore.DG>
-18.5168

> <Gold.Chemscore.ZeroCoef>
-5.4800

> <Gold.Chemscore.Hbond>
1.9647

> <Gold.Chemscore.Metal>
0.0000

> <Gold.Chemscore.Lipo>
92.8861

> <Gold.Chemscore.Internal_Hbond>
0.0000

> <Gold.Chemscore.DEClash>
0.1420

> <Gold.Chemscore.DEInternal>
2.1546

> <Gold.Chemscore.Rot>
1.7160

> <Gold.Chemscore.Internal.Correction>
   9.000000E+99

> <Gold.Chemscore.Hbonds>
donor molecule, donor type, donor heavy atom, donor atom, acceptor molecule, acceptor atom, score
      P1  H  6896  6909       L1     1  1.00
      P1  H  6934  6947       L1    19  0.84

> <Gold.Chemscore.Hbond.Weighted>
-6.5621

> <Gold.Chemscore.Metal.Weighted>
-0.0000

> <Gold.Chemscore.Lipo.Weighted>
-10.8677

> <Gold.Chemscore.Internal_Hbond.Weighted>
0.0000

> <Gold.Chemscore.DEClash.Weighted>
0.1420

> <Gold.Chemscore.DEInternal.Weighted>
2.1546

> <Gold.Chemscore.Rot.Weighted>
4.3930

> <Gold.Chemscore.Internal.Correction.Weighted>
   9.000000E+99

> <Gold.Protein.RotatedTorsions>
[ 6907 6896 6895 6894 ] final  103.02 input  -60.11 | X-H torsion
[ 7974 7965 7964 7962 ] final  -87.30 input  175.53 | X-H torsion
[ 8008 7997 7996 7995 ] final    1.96 input   59.86 | X-H torsion
[ 10167 10162 10161 10158 ] final  111.97 input  -65.29 | X-H torsion
[ 10718 10713 10712 10709 ] final -179.84 input   66.30 | X-H torsion
[ 10763 10752 10751 10750 ] final   56.15 input  -60.55 | X-H torsion
[ 11005 11000 10999 10996 ] final   37.49 input  -57.11 | X-H torsion

> <Gold.Protein.ActiveResidues>
 VAL166  LYS551  ARG553  GLY616  TRP617  ASP618  TYR619  PRO620  LYS621  CYS622 
 ASP623  PHE694  ASN695  SER759  ASP760  ASP761  ALA762  ILE779  LEU786  VAL792 
 PHE793  MET794  SER795  GLU796  ALA797  LYS798  CYS799  TRP800  GLU811  SER814 

> <Gold.Protein.RotatedAtoms>
  152.5307  133.9888  159.7840 H   0  0  0  0  0  0  0  0  0  0  0  0  # atno 6907 bound_to 6896
  151.0128  133.5941  159.2687 H   0  0  0  0  0  0  0  0  0  0  0  0  # atno 6908 bound_to 6896
  151.3009  135.0775  159.9291 H   0  0  0  0  0  0  0  0  0  0  0  0  # atno 6909 bound_to 6896
  145.4684  140.9560  143.1931 H   0  0  0  0  0  0  0  0  0  0  0  0  # atno 7974 bound_to 7965
  154.6859  140.2642  155.6861 H   0  0  0  0  0  0  0  0  0  0  0  0  # atno 8008 bound_to 7997
  156.2714  140.2801  156.1343 H   0  0  0  0  0  0  0  0  0  0  0  0  # atno 8009 bound_to 7997
  155.0965  140.0374  157.2674 H   0  0  0  0  0  0  0  0  0  0  0  0  # atno 8010 bound_to 7997
  139.6571  144.7129  151.1936 H   0  0  0  0  0  0  0  0  0  0  0  0  # atno 10167 bound_to 10162
  156.8651  130.9764  151.3079 H   0  0  0  0  0  0  0  0  0  0  0  0  # atno 10718 bound_to 10713
  152.9827  135.5686  154.5182 H   0  0  0  0  0  0  0  0  0  0  0  0  # atno 10763 bound_to 10752
  154.4675  135.2783  155.1669 H   0  0  0  0  0  0  0  0  0  0  0  0  # atno 10764 bound_to 10752
  154.3231  135.6265  153.5570 H   0  0  0  0  0  0  0  0  0  0  0  0  # atno 10765 bound_to 10752
  140.2220  134.3629  155.8000 H   0  0  0  0  0  0  0  0  0  0  0  0  # atno 11005 bound_to 11000
  144.7960  139.6233  143.7092 LP  0  0  0  0  0  0  0  0  0  0  0  0  # atno 17320 bound_to 7965
  146.2411  139.6003  142.9491 LP  0  0  0  0  0  0  0  0  0  0  0  0  # atno 17321 bound_to 7965
  140.7564  143.6054  150.8658 LP  0  0  0  0  0  0  0  0  0  0  0  0  # atno 17342 bound_to 10162
  139.9708  143.6059  152.2974 LP  0  0  0  0  0  0  0  0  0  0  0  0  # atno 17343 bound_to 10162
  157.6228  130.8668  149.9138 LP  0  0  0  0  0  0  0  0  0  0  0  0  # atno 17370 bound_to 10713
  156.0756  130.3679  150.0684 LP  0  0  0  0  0  0  0  0  0  0  0  0  # atno 17371 bound_to 10713
  141.2222  133.7199  156.8592 LP  0  0  0  0  0  0  0  0  0  0  0  0  # atno 17394 bound_to 11000
  140.1839  134.9013  157.2981 LP  0  0  0  0  0  0  0  0  0  0  0  0  # atno 17395 bound_to 11000

$$$$
