AV-unprocessed.smi:1945|AV-procd|sdf|7858|dock5
  -GOLD-   2272010 03D 1   1.00000     0.00000
 Structure written by MMmdl.
 47 48  0  0  0  0  0  0  0  0  1 V2000
  145.8969  130.0307  151.7412 C   0  0  0  0  0  0  0  0  0  0  0  0
  145.9916  131.5258  151.8186 C   0  0  0  0  0  0  0  0  0  0  0  0
  146.8400  132.3089  152.6539 C   0  0  0  0  0  0  0  0  0  0  0  0
  146.5056  133.5893  152.3063 C   0  0  0  0  0  0  0  0  0  0  0  0
  146.9849  134.7587  152.8068 N   0  0  0  0  0  0  0  0  0  0  0  0
  146.4286  135.5504  153.7390 C   0  0  0  0  0  0  0  0  0  0  0  0
  145.4753  135.2413  154.4546 O   0  0  0  0  0  0  0  0  0  0  0  0
  147.0381  136.7437  153.7915 N   0  0  0  0  0  0  0  0  0  0  0  0
  146.5731  137.8837  154.5761 C   0  0  0  0  0  0  0  0  0  0  0  0
  147.4320  139.1286  154.3027 C   0  0  0  0  0  0  0  0  0  0  0  0
  148.7478  138.8838  154.7753 O   0  0  0  0  0  0  0  0  0  0  0  0
  149.7496  139.7744  154.3022 C   0  0  1  0  0  0  0  0  0  0  0  0
  149.4101  141.2316  154.6887 C   0  0  0  0  0  0  0  0  0  0  0  0
  149.4004  141.4333  156.2137 C   0  0  0  0  0  0  0  0  0  0  0  0
  150.7272  140.9883  156.8463 C   0  0  0  0  0  0  0  0  0  0  0  0
  151.0741  139.5410  156.4629 C   0  0  0  0  0  0  0  0  0  0  0  0
  151.0949  139.3490  154.9321 C   0  0  1  0  0  0  0  0  0  0  0  0
  151.4865  137.9151  154.5423 C   0  0  0  0  0  0  0  0  0  0  0  0
  145.5190  133.5473  151.3466 N   0  0  0  0  0  0  0  0  0  0  0  0
  144.8343  134.6365  150.6783 C   0  0  0  0  0  0  0  0  0  0  0  0
  145.2106  132.2681  151.0414 N   0  0  0  0  0  0  0  0  0  0  0  0
  146.5152  129.5571  152.5038 H   0  0  0  0  0  0  0  0  0  0  0  0
  146.2311  129.6667  150.7695 H   0  0  0  0  0  0  0  0  0  0  0  0
  144.8711  129.6930  151.8903 H   0  0  0  0  0  0  0  0  0  0  0  0
  147.5596  131.9698  153.3840 H   0  0  0  0  0  0  0  0  0  0  0  0
  147.8233  135.1063  152.3653 H   0  0  0  0  0  0  0  0  0  0  0  0
  147.8258  136.9041  153.1811 H   0  0  0  0  0  0  0  0  0  0  0  0
  145.5195  138.0900  154.3803 H   0  0  0  0  0  0  0  0  0  0  0  0
  146.6457  137.6156  155.6302 H   0  0  0  0  0  0  0  0  0  0  0  0
  147.4669  139.3344  153.2323 H   0  0  0  0  0  0  0  0  0  0  0  0
  146.9852  139.9975  154.7855 H   0  0  0  0  0  0  0  0  0  0  0  0
  149.8279  139.6907  153.2168 H   0  0  0  0  0  0  0  0  0  0  0  0
  150.1515  141.8984  154.2470 H   0  0  0  0  0  0  0  0  0  0  0  0
  148.4520  141.5367  154.2699 H   0  0  0  0  0  0  0  0  0  0  0  0
  149.2111  142.4810  156.4488 H   0  0  0  0  0  0  0  0  0  0  0  0
  148.5794  140.8685  156.6540 H   0  0  0  0  0  0  0  0  0  0  0  0
  151.5275  141.6531  156.5196 H   0  0  0  0  0  0  0  0  0  0  0  0
  150.6701  141.0815  157.9313 H   0  0  0  0  0  0  0  0  0  0  0  0
  152.0440  139.2765  156.8853 H   0  0  0  0  0  0  0  0  0  0  0  0
  150.3491  138.8619  156.9137 H   0  0  0  0  0  0  0  0  0  0  0  0
  151.8667  140.0073  154.5304 H   0  0  0  0  0  0  0  0  0  0  0  0
  150.7726  137.1870  154.9289 H   0  0  0  0  0  0  0  0  0  0  0  0
  152.4692  137.6561  154.9373 H   0  0  0  0  0  0  0  0  0  0  0  0
  151.5258  137.7996  153.4588 H   0  0  0  0  0  0  0  0  0  0  0  0
  144.5331  135.3875  151.4090 H   0  0  0  0  0  0  0  0  0  0  0  0
  143.9441  134.2710  150.1644 H   0  0  0  0  0  0  0  0  0  0  0  0
  145.5030  135.0947  149.9493 H   0  0  0  0  0  0  0  0  0  0  0  0
  1  2  1  0  0  0  0
  1 22  1  0  0  0  0
  1 23  1  0  0  0  0
  1 24  1  0  0  0  0
  2 21  2  0  0  0  0
  2  3  1  0  0  0  0
  3  4  2  0  0  0  0
  3 25  1  0  0  0  0
  4  5  1  0  0  0  0
  4 19  1  0  0  0  0
  5  6  1  0  0  0  0
  5 26  1  0  0  0  0
  6  7  2  0  0  0  0
  6  8  1  0  0  0  0
  8  9  1  0  0  0  0
  8 27  1  0  0  0  0
  9 10  1  0  0  0  0
  9 28  1  0  0  0  0
  9 29  1  0  0  0  0
 10 11  1  0  0  0  0
 10 30  1  0  0  0  0
 10 31  1  0  0  0  0
 11 12  1  0  0  0  0
 12 17  1  0  0  0  0
 12 13  1  0  0  0  0
 12 32  1  0  0  0  0
 13 14  1  0  0  0  0
 13 33  1  0  0  0  0
 13 34  1  0  0  0  0
 14 15  1  0  0  0  0
 14 35  1  0  0  0  0
 14 36  1  0  0  0  0
 15 16  1  0  0  0  0
 15 37  1  0  0  0  0
 15 38  1  0  0  0  0
 16 17  1  0  0  0  0
 16 39  1  0  0  0  0
 16 40  1  0  0  0  0
 17 18  1  0  0  0  0
 17 41  1  0  0  0  0
 18 42  1  0  0  0  0
 18 43  1  0  0  0  0
 18 44  1  0  0  0  0
 19 20  1  0  0  0  0
 19 21  1  0  0  0  0
 20 45  1  0  0  0  0
 20 46  1  0  0  0  0
 20 47  1  0  0  0  0
M  END
> <s_m_source_file>
AV-unprocessed.smi

> <i_m_source_file_index>
1945

> <i_lp_mmshare_version>
43012

> <i_f3d_flags>
0

> <s_epik_input>
W0NIM11jMVtjSF1jKG4objEpW0NIM10pW05IXUMoPU8pW05IXVtDSDJdW0NIMl1PW0NAQEhdMltDSDJdW0NIMl1bQ0gyXVtDSDJdW0NASF0yW0NIM10=

> <s_epik_cmdline>
J2VwaWtfcHl0aG9uJywgJy1waCcsICc3LjAnLCAnLXRuJywgJzgnLCAnLW1hJywgJzIwMCcsICctbWV0YWxfYmluZGluZycsICctaW1hZScsICc8aW5maWxlLm1hZT4nLCAnLW9tYWUnLCAnPG91dGZpbGUubWFlPic=

> <r_lp_tautomer_probability>
1

> <r_epik_Ionization_Penalty>
9.47735e-05

> <r_epik_Ionization_Penalty_Charging>
0

> <r_epik_Ionization_Penalty_Neutral>
9.47735e-05

> <r_epik_State_Penalty>
-0

> <r_epik_Charging_Adjusted_Penalty>
0

> <i_epik_Tot_Q>
0

> <i_epik_Tot_abs_Q>
0

> <r_epik_Metal_State_Penalty>
-0

> <b_epik_Metal_Only>
0

> <s_lp_Force_Field>
OPLS_2005

> <r_lp_Energy>
11.3834

> <b_lp_Chiralities_Consistent>
1

> <s_lp_Variant>
AV-unprocessed.smi:1945-2

> <Gold.Version>
5.8.1

> <Gold.Id.Protein>
6NUR|6NUR_protein|mol2

> <Gold.PLP.Fitness>
38.4421

> <Gold.PLP.PLP>
-34.1038

> <Gold.PLP.part.hbond>
-2.0000

> <Gold.PLP.part.metal>
0.0000

> <Gold.PLP.part.buried>
-1.5323

> <Gold.PLP.part.nonpolar>
-29.8636

> <Gold.PLP.part.repulsive>
0.2718

> <Gold.PLP.ligand.clash>
0.0000

> <Gold.PLP.ligand.torsion>
0.8124

> <Gold.PLP.Chemscore.Hbond>
1.9760

> <Gold.PLP.Chemscore.CHOScore>
0.0000

> <Gold.PLP.Chemscore.Metal>
0.0000

> <Gold.Chemscore.Hbonds>
donor molecule, donor type, donor heavy atom, donor atom, acceptor molecule, acceptor atom, score
      L1  H     5    26       P1  7948  1.00
      L1  H     8    27       P1  7948  0.96

> <Gold.PLP.Chemscore.Internal.Correction>
0.0352

> <Gold.Rescore>
     Score         DG    S(hbond)    S(metal)    S(lipo)     H(rot)  DE(clash)    DE(int)     intcor
     16.39     -17.18       1.91        0.00      81.19       1.63       0.02       0.76       ----

> <Gold.Chemscore.Fitness>
16.3902

> <Gold.Chemscore.DG>
-17.1756

> <Gold.Chemscore.ZeroCoef>
-5.4800

> <Gold.Chemscore.Hbond>
1.9081

> <Gold.Chemscore.Metal>
0.0000

> <Gold.Chemscore.Lipo>
81.1914

> <Gold.Chemscore.Internal_Hbond>
0.0000

> <Gold.Chemscore.DEClash>
0.0211

> <Gold.Chemscore.DEInternal>
0.7643

> <Gold.Chemscore.Rot>
1.6316

> <Gold.Chemscore.Internal.Correction>
   9.000000E+99

> <Gold.Chemscore.Hbonds>
donor molecule, donor type, donor heavy atom, donor atom, acceptor molecule, acceptor atom, score
      L1  H     5    26       P1  7948  0.95
      L1  H     8    27       P1  7948  0.92

> <Gold.Chemscore.Hbond.Weighted>
-6.3730

> <Gold.Chemscore.Metal.Weighted>
-0.0000

> <Gold.Chemscore.Lipo.Weighted>
-9.4994

> <Gold.Chemscore.Internal_Hbond.Weighted>
0.0000

> <Gold.Chemscore.DEClash.Weighted>
0.0211

> <Gold.Chemscore.DEInternal.Weighted>
0.7643

> <Gold.Chemscore.Rot.Weighted>
4.1768

> <Gold.Chemscore.Internal.Correction.Weighted>
   9.000000E+99

> <Gold.Protein.RotatedTorsions>
[ 6907 6896 6895 6894 ] final   77.74 input  -60.11 | X-H torsion
[ 7974 7965 7964 7962 ] final   78.08 input  175.53 | X-H torsion
[ 8008 7997 7996 7995 ] final -172.67 input   59.86 | X-H torsion
[ 10167 10162 10161 10158 ] final   62.22 input  -65.29 | X-H torsion
[ 10718 10713 10712 10709 ] final  -81.96 input   66.30 | X-H torsion
[ 10763 10752 10751 10750 ] final  -95.61 input  -60.55 | X-H torsion
[ 11005 11000 10999 10996 ] final -101.34 input  -57.11 | X-H torsion

> <Gold.Protein.ActiveResidues>
 VAL166  LYS551  ARG553  GLY616  TRP617  ASP618  TYR619  PRO620  LYS621  CYS622 
 ASP623  PHE694  ASN695  SER759  ASP760  ASP761  ALA762  ILE779  LEU786  VAL792 
 PHE793  MET794  SER795  GLU796  ALA797  LYS798  CYS799  TRP800  GLU811  SER814 

> <Gold.Protein.RotatedAtoms>
  152.5130  134.3770  159.9337 H   0  0  0  0  0  0  0  0  0  0  0  0  # atno 6907 bound_to 6896
  151.3726  133.3843  159.2709 H   0  0  0  0  0  0  0  0  0  0  0  0  # atno 6908 bound_to 6896
  150.9566  134.8979  159.7763 H   0  0  0  0  0  0  0  0  0  0  0  0  # atno 6909 bound_to 6896
  145.6818  139.2526  143.1810 H   0  0  0  0  0  0  0  0  0  0  0  0  # atno 7974 bound_to 7965
  155.9476  140.1120  157.1004 H   0  0  0  0  0  0  0  0  0  0  0  0  # atno 8008 bound_to 7997
  154.4102  140.1207  156.5075 H   0  0  0  0  0  0  0  0  0  0  0  0  # atno 8009 bound_to 7997
  155.6883  140.3473  155.4885 H   0  0  0  0  0  0  0  0  0  0  0  0  # atno 8010 bound_to 7997
  140.1463  144.4506  150.6783 H   0  0  0  0  0  0  0  0  0  0  0  0  # atno 10167 bound_to 10162
  156.0041  130.4619  150.4032 H   0  0  0  0  0  0  0  0  0  0  0  0  # atno 10718 bound_to 10713
  154.7164  135.5114  153.8745 H   0  0  0  0  0  0  0  0  0  0  0  0  # atno 10763 bound_to 10752
  153.0824  135.6635  154.0026 H   0  0  0  0  0  0  0  0  0  0  0  0  # atno 10764 bound_to 10752
  153.9858  135.3024  155.3396 H   0  0  0  0  0  0  0  0  0  0  0  0  # atno 10765 bound_to 10752
  141.1234  133.8471  157.1220 H   0  0  0  0  0  0  0  0  0  0  0  0  # atno 11005 bound_to 11000
  146.0958  140.7602  142.9573 LP  0  0  0  0  0  0  0  0  0  0  0  0  # atno 17320 bound_to 7965
  144.7024  140.3709  143.7145 LP  0  0  0  0  0  0  0  0  0  0  0  0  # atno 17321 bound_to 7965
  140.6730  143.2293  151.5578 LP  0  0  0  0  0  0  0  0  0  0  0  0  # atno 17342 bound_to 10162
  139.5447  144.2552  152.1420 LP  0  0  0  0  0  0  0  0  0  0  0  0  # atno 17343 bound_to 10162
  157.2099  131.0458  151.2605 LP  0  0  0  0  0  0  0  0  0  0  0  0  # atno 17370 bound_to 10713
  157.3898  130.7276  149.6689 LP  0  0  0  0  0  0  0  0  0  0  0  0  # atno 17371 bound_to 10713
  140.0211  134.9945  157.0594 LP  0  0  0  0  0  0  0  0  0  0  0  0  # atno 17394 bound_to 11000
  140.4438  134.1654  155.7176 LP  0  0  0  0  0  0  0  0  0  0  0  0  # atno 17395 bound_to 11000

$$$$
