AV-unprocessed.smi:260|AV-procd|sdf|1982|dock7
  -GOLD-   2262021153D 1   1.00000     0.00000
 Structure written by MMmdl.
 53 56  0  0  0  0  0  0  0  0  1 V2000
  145.8668  135.4491  153.0827 C   0  0  0  0  0  0  0  0  0  0  0  0
  147.2222  134.9833  153.3309 N   0  0  0  0  0  0  0  0  0  0  0  0
  147.6128  134.3403  154.4431 C   0  0  0  0  0  0  0  0  0  0  0  0
  146.8327  134.1011  155.3659 O   0  0  0  0  0  0  0  0  0  0  0  0
  149.0934  133.8914  154.5605 C   0  0  2  0  0  0  0  0  0  0  0  0
  149.3635  132.7780  153.5296 C   0  0  0  0  0  0  0  0  0  0  0  0
  149.5194  133.4735  155.9873 C   0  0  0  0  0  0  0  0  0  0  0  0
  149.8524  134.7896  156.7028 C   0  0  0  0  0  0  0  0  0  0  0  0
  150.1370  135.7441  155.6416 N   0  0  0  0  0  0  0  0  0  0  0  0
  150.9406  136.8194  155.8446 C   0  0  0  0  0  0  0  0  0  0  0  0
  151.8456  137.1474  154.8846 N   0  0  0  0  0  0  0  0  0  0  0  0
  152.6516  138.2010  155.0422 C   0  0  0  0  0  0  0  0  0  0  0  0
  152.7171  139.0554  156.0642 N   0  0  0  0  0  0  0  0  0  0  0  0
  151.8051  138.7411  157.0275 C   0  0  0  0  0  0  0  0  0  0  0  0
  150.8866  137.6522  157.0014 C   0  0  0  0  0  0  0  0  0  0  0  0
  150.1128  137.6685  158.1577 N   0  0  0  0  0  0  0  0  0  0  0  0
  150.5511  138.6993  158.8268 C   0  0  0  0  0  0  0  0  0  0  0  0
  151.5656  139.4012  158.2188 N   0  0  0  0  0  0  0  0  0  0  0  0
  152.2319  140.5871  158.7267 C   0  0  0  0  0  0  0  0  0  0  0  0
  151.8771  141.8491  157.9165 C   0  0  1  0  0  0  0  0  0  0  0  0
  150.4735  141.9977  157.8139 O   0  0  0  0  0  0  0  0  0  0  0  0
  152.5154  143.1289  158.4926 C   0  0  1  0  0  0  0  0  0  0  0  0
  152.0837  144.4524  157.8557 C   0  0  0  0  0  0  0  0  0  0  0  0
  152.4007  145.4293  158.9657 C   0  0  0  0  0  0  0  0  0  0  0  0
  152.0119  144.6290  160.2067 C   0  0  0  0  0  0  0  0  0  0  0  0
  152.2715  143.2634  159.8909 O   0  0  0  0  0  0  0  0  0  0  0  0
  150.0217  135.1006  154.3390 C   0  0  0  0  0  0  0  0  0  0  0  0
  145.8119  135.9291  152.1056 H   0  0  0  0  0  0  0  0  0  0  0  0
  145.5610  136.1749  153.8375 H   0  0  0  0  0  0  0  0  0  0  0  0
  145.1623  134.6162  153.0939 H   0  0  0  0  0  0  0  0  0  0  0  0
  147.9075  135.1491  152.6082 H   0  0  0  0  0  0  0  0  0  0  0  0
  150.4063  132.4601  153.5524 H   0  0  0  0  0  0  0  0  0  0  0  0
  149.1512  133.1091  152.5121 H   0  0  0  0  0  0  0  0  0  0  0  0
  148.7503  131.8980  153.7278 H   0  0  0  0  0  0  0  0  0  0  0  0
  148.7861  132.8730  156.5262 H   0  0  0  0  0  0  0  0  0  0  0  0
  150.4262  132.8693  155.9321 H   0  0  0  0  0  0  0  0  0  0  0  0
  148.9975  135.1446  157.2792 H   0  0  0  0  0  0  0  0  0  0  0  0
  150.6971  134.6634  157.3811 H   0  0  0  0  0  0  0  0  0  0  0  0
  153.3415  138.3864  154.2323 H   0  0  0  0  0  0  0  0  0  0  0  0
  150.1391  138.9819  159.7847 H   0  0  0  0  0  0  0  0  0  0  0  0
  151.9624  140.7142  159.7759 H   0  0  0  0  0  0  0  0  0  0  0  0
  153.3080  140.4114  158.6997 H   0  0  0  0  0  0  0  0  0  0  0  0
  152.2493  141.7217  156.8990 H   0  0  0  0  0  0  0  0  0  0  0  0
  150.2927  142.8173  157.3794 H   0  0  0  0  0  0  0  0  0  0  0  0
  153.5987  143.0486  158.3862 H   0  0  0  0  0  0  0  0  0  0  0  0
  152.6134  144.6707  156.9280 H   0  0  0  0  0  0  0  0  0  0  0  0
  151.0132  144.4710  157.6494 H   0  0  0  0  0  0  0  0  0  0  0  0
  153.4693  145.6487  158.9786 H   0  0  0  0  0  0  0  0  0  0  0  0
  151.8580  146.3710  158.8780 H   0  0  0  0  0  0  0  0  0  0  0  0
  152.5597  144.9445  161.0949 H   0  0  0  0  0  0  0  0  0  0  0  0
  150.9458  144.7391  160.4097 H   0  0  0  0  0  0  0  0  0  0  0  0
  151.0094  134.7769  154.0068 H   0  0  0  0  0  0  0  0  0  0  0  0
  149.6326  135.7958  153.5932 H   0  0  0  0  0  0  0  0  0  0  0  0
  1  2  1  0  0  0  0
  1 28  1  0  0  0  0
  1 29  1  0  0  0  0
  1 30  1  0  0  0  0
  2  3  1  0  0  0  0
  2 31  1  0  0  0  0
  3  4  2  0  0  0  0
  3  5  1  0  0  0  0
  5 27  1  0  0  0  0
  5  6  1  0  0  0  0
  5  7  1  0  0  0  0
  6 32  1  0  0  0  0
  6 33  1  0  0  0  0
  6 34  1  0  0  0  0
  7  8  1  0  0  0  0
  7 35  1  0  0  0  0
  7 36  1  0  0  0  0
  8  9  1  0  0  0  0
  8 37  1  0  0  0  0
  8 38  1  0  0  0  0
  9 10  1  0  0  0  0
  9 27  1  0  0  0  0
 10 15  1  0  0  0  0
 10 11  2  0  0  0  0
 11 12  1  0  0  0  0
 12 13  2  0  0  0  0
 12 39  1  0  0  0  0
 13 14  1  0  0  0  0
 14 18  1  0  0  0  0
 14 15  2  0  0  0  0
 15 16  1  0  0  0  0
 16 17  2  0  0  0  0
 17 18  1  0  0  0  0
 17 40  1  0  0  0  0
 18 19  1  0  0  0  0
 19 20  1  0  0  0  0
 19 41  1  0  0  0  0
 19 42  1  0  0  0  0
 20 21  1  0  0  0  0
 20 22  1  0  0  0  0
 20 43  1  0  0  0  0
 21 44  1  0  0  0  0
 22 26  1  0  0  0  0
 22 23  1  0  0  0  0
 22 45  1  0  0  0  0
 23 24  1  0  0  0  0
 23 46  1  0  0  0  0
 23 47  1  0  0  0  0
 24 25  1  0  0  0  0
 24 48  1  0  0  0  0
 24 49  1  0  0  0  0
 25 26  1  0  0  0  0
 25 50  1  0  0  0  0
 25 51  1  0  0  0  0
 27 52  1  0  0  0  0
 27 53  1  0  0  0  0
M  END
> <s_m_source_file>
AV-unprocessed.smi

> <i_m_source_file_index>
260

> <i_lp_mmshare_version>
43012

> <i_f3d_flags>
0

> <s_epik_input>
W0NIM11bTkhdQyg9TylbQ0BAXTEoW0NIM10pW0NIMl1bQ0gyXU4oW0NIMl0xKWMobltjSF1uMiljKGMyMyluW2NIXW4zW0NIMl1bQ0BIXShbT0hdKVtDQEBIXTRbQ0gyXVtDSDJdW0NIMl1PNA==

> <s_epik_cmdline>
J2VwaWtfcHl0aG9uJywgJy1waCcsICc3LjAnLCAnLXRuJywgJzgnLCAnLW1hJywgJzIwMCcsICctbWV0YWxfYmluZGluZycsICctaW1hZScsICc8aW5maWxlLm1hZT4nLCAnLW9tYWUnLCAnPG91dGZpbGUubWFlPic=

> <r_lp_tautomer_probability>
1

> <r_epik_Ionization_Penalty>
0.00115068

> <r_epik_Ionization_Penalty_Charging>
0

> <r_epik_Ionization_Penalty_Neutral>
0.00115068

> <r_epik_State_Penalty>
0.000668876

> <r_epik_Charging_Adjusted_Penalty>
0.000668876

> <i_epik_Tot_Q>
0

> <i_epik_Tot_abs_Q>
0

> <r_epik_Metal_State_Penalty>
-0

> <b_epik_Metal_Only>
0

> <s_lp_Force_Field>
OPLS_2005

> <r_lp_Energy>
50.4325

> <b_lp_Chiralities_Consistent>
1

> <s_lp_Variant>
AV-unprocessed.smi:260-8

> <Gold.Version>
5.8.1

> <Gold.Id.Protein>
6NUR|6NUR_protein|mol2

> <Gold.PLP.Fitness>
49.9530

> <Gold.PLP.PLP>
-42.3634

> <Gold.PLP.part.hbond>
-3.0000

> <Gold.PLP.part.metal>
0.0000

> <Gold.PLP.part.buried>
-6.4517

> <Gold.PLP.part.nonpolar>
-32.8671

> <Gold.PLP.part.repulsive>
0.1160

> <Gold.PLP.ligand.clash>
0.0000

> <Gold.PLP.ligand.torsion>
0.8612

> <Gold.PLP.Chemscore.Hbond>
3.0000

> <Gold.PLP.Chemscore.CHOScore>
0.0000

> <Gold.PLP.Chemscore.Metal>
0.0000

> <Gold.Chemscore.Hbonds>
donor molecule, donor type, donor heavy atom, donor atom, acceptor molecule, acceptor atom, score
      L1  H     2    31       P1  7948  0.99
      P1  H  7997  8009       L1    13  1.00
      P1  H 10752 10764       L1    11  1.00

> <Gold.PLP.Chemscore.Internal.Correction>
0.3121

> <Gold.Rescore>
     Score         DG    S(hbond)    S(metal)    S(lipo)     H(rot)  DE(clash)    DE(int)     intcor
     16.66     -18.86       2.48        0.00      98.76       2.53       1.24       0.97       ----

> <Gold.Chemscore.Fitness>
16.6581

> <Gold.Chemscore.DG>
-18.8634

> <Gold.Chemscore.ZeroCoef>
-5.4800

> <Gold.Chemscore.Hbond>
2.4836

> <Gold.Chemscore.Metal>
0.0000

> <Gold.Chemscore.Lipo>
98.7558

> <Gold.Chemscore.Internal_Hbond>
0.0000

> <Gold.Chemscore.DEClash>
1.2372

> <Gold.Chemscore.DEInternal>
0.9680

> <Gold.Chemscore.Rot>
2.5259

> <Gold.Chemscore.Internal.Correction>
   9.000000E+99

> <Gold.Chemscore.Hbonds>
donor molecule, donor type, donor heavy atom, donor atom, acceptor molecule, acceptor atom, score
      L1  H     2    31       P1  7948  0.92
      P1  H  7997  8009       L1    13  0.95
      P1  H 10752 10764       L1    11  0.40

> <Gold.Chemscore.Hbond.Weighted>
-8.2953

> <Gold.Chemscore.Metal.Weighted>
-0.0000

> <Gold.Chemscore.Lipo.Weighted>
-11.5544

> <Gold.Chemscore.Internal_Hbond.Weighted>
0.0000

> <Gold.Chemscore.DEClash.Weighted>
1.2372

> <Gold.Chemscore.DEInternal.Weighted>
0.9680

> <Gold.Chemscore.Rot.Weighted>
6.4663

> <Gold.Chemscore.Internal.Correction.Weighted>
   9.000000E+99

> <Gold.Protein.RotatedTorsions>
[ 6907 6896 6895 6894 ] final   18.03 input  -60.11 | X-H torsion
[ 7974 7965 7964 7962 ] final  100.08 input  175.53 | X-H torsion
[ 8008 7997 7996 7995 ] final -174.28 input   59.86 | X-H torsion
[ 10167 10162 10161 10158 ] final -124.39 input  -65.29 | X-H torsion
[ 10718 10713 10712 10709 ] final   48.72 input   66.30 | X-H torsion
[ 10763 10752 10751 10750 ] final  -62.35 input  -60.55 | X-H torsion
[ 11005 11000 10999 10996 ] final    1.62 input  -57.11 | X-H torsion

> <Gold.Protein.ActiveResidues>
 VAL166  LYS551  ARG553  GLY616  TRP617  ASP618  TYR619  PRO620  LYS621  CYS622 
 ASP623  PHE694  ASN695  SER759  ASP760  ASP761  ALA762  ILE779  LEU786  VAL792 
 PHE793  MET794  SER795  GLU796  ALA797  LYS798  CYS799  TRP800  GLU811  SER814 

> <Gold.Protein.RotatedAtoms>
  151.8589  135.0531  160.0466 H   0  0  0  0  0  0  0  0  0  0  0  0  # atno 6907 bound_to 6896
  152.2678  133.5350  159.5429 H   0  0  0  0  0  0  0  0  0  0  0  0  # atno 6908 bound_to 6896
  150.7140  134.0656  159.3889 H   0  0  0  0  0  0  0  0  0  0  0  0  # atno 6909 bound_to 6896
  145.3903  139.2364  143.3355 H   0  0  0  0  0  0  0  0  0  0  0  0  # atno 7974 bound_to 7965
  155.9681  140.1157  157.0836 H   0  0  0  0  0  0  0  0  0  0  0  0  # atno 8008 bound_to 7997
  154.4149  140.1168  156.5337 H   0  0  0  0  0  0  0  0  0  0  0  0  # atno 8009 bound_to 7997
  155.6632  140.3473  155.4793 H   0  0  0  0  0  0  0  0  0  0  0  0  # atno 8010 bound_to 7997
  139.9933  143.5618  152.2333 H   0  0  0  0  0  0  0  0  0  0  0  0  # atno 10167 bound_to 10162
  157.4715  130.8258  149.7993 H   0  0  0  0  0  0  0  0  0  0  0  0  # atno 10718 bound_to 10713
  154.2986  135.6239  153.5415 H   0  0  0  0  0  0  0  0  0  0  0  0  # atno 10763 bound_to 10752
  152.9843  135.5673  154.5310 H   0  0  0  0  0  0  0  0  0  0  0  0  # atno 10764 bound_to 10752
  154.4935  135.2868  155.1453 H   0  0  0  0  0  0  0  0  0  0  0  0  # atno 10765 bound_to 10752
  140.6134  133.9728  155.8188 H   0  0  0  0  0  0  0  0  0  0  0  0  # atno 11005 bound_to 11000
  146.2801  140.4584  142.8780 LP  0  0  0  0  0  0  0  0  0  0  0  0  # atno 17320 bound_to 7965
  144.8445  140.6908  143.6208 LP  0  0  0  0  0  0  0  0  0  0  0  0  # atno 17321 bound_to 7965
  139.6324  144.7646  151.2507 LP  0  0  0  0  0  0  0  0  0  0  0  0  # atno 17342 bound_to 10162
  140.7447  143.6456  150.8295 LP  0  0  0  0  0  0  0  0  0  0  0  0  # atno 17343 bound_to 10162
  156.0076  130.3848  150.2378 LP  0  0  0  0  0  0  0  0  0  0  0  0  # atno 17370 bound_to 10713
  157.0560  131.0076  151.3238 LP  0  0  0  0  0  0  0  0  0  0  0  0  # atno 17371 bound_to 10713
  141.0792  134.0088  157.3411 LP  0  0  0  0  0  0  0  0  0  0  0  0  # atno 17394 bound_to 11000
  139.9183  135.0199  156.7966 LP  0  0  0  0  0  0  0  0  0  0  0  0  # atno 17395 bound_to 11000

$$$$
