AV-unprocessed.smi:2156|AV-procd|sdf|8779|dock9
  -GOLD-   2272011563D 1   1.00000     0.00000
 Structure written by MMmdl.
 34 34  0  0  0  0  0  0  0  0  1 V2000
  153.4233  142.2258  161.2760 C   0  0  0  0  0  0  0  0  0  0  0  0
  152.5889  143.2897  160.5545 C   0  0  0  0  0  0  0  0  0  0  0  0
  152.5039  143.0441  159.0379 C   0  0  0  0  0  0  0  0  0  0  0  0
  151.4857  143.9453  158.3103 C   0  0  2  0  0  0  0  0  0  0  0  0
  150.2775  144.2643  159.2015 C   0  0  0  0  0  0  0  0  0  0  0  0
  151.0154  143.3095  157.0805 N   0  0  0  0  0  0  0  0  0  0  0  0
  150.3769  142.1317  156.9944 C   0  0  0  0  0  0  0  0  0  0  0  0
  150.0957  141.4403  157.9744 O   0  0  0  0  0  0  0  0  0  0  0  0
  149.9748  141.6912  155.5795 C   0  0  0  0  0  0  0  0  0  0  0  0
  150.4430  140.3399  155.2387 N   0  0  0  0  0  0  0  0  0  0  0  0
  151.6976  139.9104  155.6479 C   0  0  0  0  0  0  0  0  0  0  0  0
  152.1963  138.6848  155.3606 C   0  0  0  0  0  0  0  0  0  0  0  0
  151.4116  137.7319  154.5829 C   0  0  0  0  0  0  0  0  0  0  0  0
  151.7751  136.5994  154.2737 O   0  0  0  0  0  0  0  0  0  0  0  0
  150.1567  138.2023  154.1869 N   0  0  0  0  0  0  0  0  0  0  0  0
  149.6375  139.4648  154.4778 C   0  0  0  0  0  0  0  0  0  0  0  0
  148.5188  139.7812  154.0749 O   0  0  0  0  0  0  0  0  0  0  0  0
  149.5785  137.5782  153.6434 H   0  0  0  0  0  0  0  0  0  0  0  0
  153.4602  142.4229  162.3473 H   0  0  0  0  0  0  0  0  0  0  0  0
  154.4482  142.2113  160.9046 H   0  0  0  0  0  0  0  0  0  0  0  0
  153.0009  141.2303  161.1356 H   0  0  0  0  0  0  0  0  0  0  0  0
  151.5840  143.3065  160.9778 H   0  0  0  0  0  0  0  0  0  0  0  0
  153.0231  144.2697  160.7526 H   0  0  0  0  0  0  0  0  0  0  0  0
  153.4916  143.1744  158.5929 H   0  0  0  0  0  0  0  0  0  0  0  0
  152.2328  142.0009  158.8698 H   0  0  0  0  0  0  0  0  0  0  0  0
  151.9735  144.8940  158.0796 H   0  0  0  0  0  0  0  0  0  0  0  0
  150.5872  144.7697  160.1169 H   0  0  0  0  0  0  0  0  0  0  0  0
  149.7428  143.3578  159.4873 H   0  0  0  0  0  0  0  0  0  0  0  0
  149.5734  144.9198  158.6880 H   0  0  0  0  0  0  0  0  0  0  0  0
  151.1933  143.8081  156.2206 H   0  0  0  0  0  0  0  0  0  0  0  0
  148.8875  141.7413  155.5064 H   0  0  0  0  0  0  0  0  0  0  0  0
  150.3455  142.4145  154.8504 H   0  0  0  0  0  0  0  0  0  0  0  0
  152.3163  140.5850  156.2224 H   0  0  0  0  0  0  0  0  0  0  0  0
  153.1816  138.4085  155.7069 H   0  0  0  0  0  0  0  0  0  0  0  0
  1  2  1  0  0  0  0
  1 19  1  0  0  0  0
  1 20  1  0  0  0  0
  1 21  1  0  0  0  0
  2  3  1  0  0  0  0
  2 22  1  0  0  0  0
  2 23  1  0  0  0  0
  3  4  1  0  0  0  0
  3 24  1  0  0  0  0
  3 25  1  0  0  0  0
  4  5  1  0  0  0  0
  4  6  1  0  0  0  0
  4 26  1  0  0  0  0
  5 27  1  0  0  0  0
  5 28  1  0  0  0  0
  5 29  1  0  0  0  0
  6  7  1  0  0  0  0
  6 30  1  0  0  0  0
  7  8  2  0  0  0  0
  7  9  1  0  0  0  0
  9 10  1  0  0  0  0
  9 31  1  0  0  0  0
  9 32  1  0  0  0  0
 10 16  1  0  0  0  0
 10 11  1  0  0  0  0
 11 12  2  0  0  0  0
 11 33  1  0  0  0  0
 12 13  1  0  0  0  0
 12 34  1  0  0  0  0
 13 14  2  0  0  0  0
 13 15  1  0  0  0  0
 15 18  1  0  0  0  0
 15 16  1  0  0  0  0
 16 17  2  0  0  0  0
M  END
> <s_m_source_file>
AV-unprocessed.smi

> <i_m_source_file_index>
2156

> <i_lp_mmshare_version>
43012

> <i_f3d_flags>
0

> <s_epik_input>
W0NIM11bQ0gyXVtDSDJdW0NASF0oW0NIM10pW05IXUMoPU8pW0NIMl1uMVtjSF1bY0hdYyg9TylbbkhdYzE9Tw==

> <s_epik_cmdline>
J2VwaWtfcHl0aG9uJywgJy1waCcsICc3LjAnLCAnLXRuJywgJzgnLCAnLW1hJywgJzIwMCcsICctbWV0YWxfYmluZGluZycsICctaW1hZScsICc8aW5maWxlLm1hZT4nLCAnLW9tYWUnLCAnPG91dGZpbGUubWFlPic=

> <r_lp_tautomer_probability>
0.999537

> <r_epik_Ionization_Penalty>
0.00324917

> <r_epik_Ionization_Penalty_Charging>
0.00324916

> <r_epik_Ionization_Penalty_Neutral>
1.93017e-08

> <r_epik_State_Penalty>
0.00229371

> <r_epik_Charging_Adjusted_Penalty>
0.00554286

> <i_epik_Tot_Q>
0

> <i_epik_Tot_abs_Q>
0

> <r_epik_Metal_State_Penalty>
0.364744

> <b_epik_Metal_Only>
0

> <s_lp_Force_Field>
OPLS_2005

> <r_lp_Energy>
3.31869

> <b_lp_Chiralities_Consistent>
1

> <s_lp_Variant>
AV-unprocessed.smi:2156-1

> <Gold.Version>
5.8.1

> <Gold.Id.Protein>
6NUR|6NUR_protein|mol2

> <Gold.PLP.Fitness>
41.1471

> <Gold.PLP.PLP>
-38.3421

> <Gold.PLP.part.hbond>
-2.2489

> <Gold.PLP.part.metal>
0.0000

> <Gold.PLP.part.buried>
-4.3239

> <Gold.PLP.part.nonpolar>
-34.1475

> <Gold.PLP.part.repulsive>
1.9877

> <Gold.PLP.ligand.clash>
0.0000

> <Gold.PLP.ligand.torsion>
0.6745

> <Gold.PLP.Chemscore.Hbond>
1.3738

> <Gold.PLP.Chemscore.CHOScore>
0.0000

> <Gold.PLP.Chemscore.Metal>
0.0000

> <Gold.Chemscore.Hbonds>
donor molecule, donor type, donor heavy atom, donor atom, acceptor molecule, acceptor atom, score
      L1  H    15    18       P1  7948  0.36
      P1  H 10752 10765       L1    14  0.99

> <Gold.PLP.Chemscore.Internal.Correction>
0.0328

> <Gold.Rescore>
     Score         DG    S(hbond)    S(metal)    S(lipo)     H(rot)  DE(clash)    DE(int)     intcor
     12.84     -14.42       1.64        0.00      77.63       2.19       0.21       1.36       ----

> <Gold.Chemscore.Fitness>
12.8448

> <Gold.Chemscore.DG>
-14.4153

> <Gold.Chemscore.ZeroCoef>
-5.4800

> <Gold.Chemscore.Hbond>
1.6381

> <Gold.Chemscore.Metal>
0.0000

> <Gold.Chemscore.Lipo>
77.6304

> <Gold.Chemscore.Internal_Hbond>
0.0000

> <Gold.Chemscore.DEClash>
0.2138

> <Gold.Chemscore.DEInternal>
1.3566

> <Gold.Chemscore.Rot>
2.1949

> <Gold.Chemscore.Internal.Correction>
   9.000000E+99

> <Gold.Chemscore.Hbonds>
donor molecule, donor type, donor heavy atom, donor atom, acceptor molecule, acceptor atom, score
      L1  H    15    18       P1  7948  0.31
      P1  H 10752 10765       L1    14  0.92

> <Gold.Chemscore.Hbond.Weighted>
-5.4713

> <Gold.Chemscore.Metal.Weighted>
-0.0000

> <Gold.Chemscore.Lipo.Weighted>
-9.0828

> <Gold.Chemscore.Internal_Hbond.Weighted>
0.0000

> <Gold.Chemscore.DEClash.Weighted>
0.2138

> <Gold.Chemscore.DEInternal.Weighted>
1.3566

> <Gold.Chemscore.Rot.Weighted>
5.6188

> <Gold.Chemscore.Internal.Correction.Weighted>
   9.000000E+99

> <Gold.Protein.RotatedTorsions>
[ 6907 6896 6895 6894 ] final  -83.42 input  -60.11 | X-H torsion
[ 7974 7965 7964 7962 ] final  -31.74 input  175.53 | X-H torsion
[ 8008 7997 7996 7995 ] final  -29.58 input   59.86 | X-H torsion
[ 10167 10162 10161 10158 ] final   64.80 input  -65.29 | X-H torsion
[ 10718 10713 10712 10709 ] final -159.22 input   66.30 | X-H torsion
[ 10763 10752 10751 10750 ] final  174.59 input  -60.55 | X-H torsion
[ 11005 11000 10999 10996 ] final -112.01 input  -57.11 | X-H torsion

> <Gold.Protein.ActiveResidues>
 VAL166  LYS551  ARG553  GLY616  TRP617  ASP618  TYR619  PRO620  LYS621  CYS622 
 ASP623  PHE694  ASN695  SER759  ASP760  ASP761  ALA762  ILE779  LEU786  VAL792 
 PHE793  MET794  SER795  GLU796  ALA797  LYS798  CYS799  TRP800  GLU811  SER814 

> <Gold.Protein.RotatedAtoms>
  150.6886  134.3514  159.4910 H   0  0  0  0  0  0  0  0  0  0  0  0  # atno 6907 bound_to 6896
  152.1355  134.9100  160.0566 H   0  0  0  0  0  0  0  0  0  0  0  0  # atno 6908 bound_to 6896
  152.0254  133.3880  159.4312 H   0  0  0  0  0  0  0  0  0  0  0  0  # atno 6909 bound_to 6896
  146.1044  140.5705  142.8806 H   0  0  0  0  0  0  0  0  0  0  0  0  # atno 7974 bound_to 7965
  154.4284  140.1814  156.1271 H   0  0  0  0  0  0  0  0  0  0  0  0  # atno 8008 bound_to 7997
  156.0097  140.3352  155.6903 H   0  0  0  0  0  0  0  0  0  0  0  0  # atno 8009 bound_to 7997
  155.6128  140.0652  157.2692 H   0  0  0  0  0  0  0  0  0  0  0  0  # atno 8010 bound_to 7997
  140.1183  144.4755  150.6936 H   0  0  0  0  0  0  0  0  0  0  0  0  # atno 10167 bound_to 10162
  156.5651  130.8664  151.2821 H   0  0  0  0  0  0  0  0  0  0  0  0  # atno 10718 bound_to 10713
  154.4560  135.2766  155.1747 H   0  0  0  0  0  0  0  0  0  0  0  0  # atno 10763 bound_to 10752
  154.3555  135.6141  153.5667 H   0  0  0  0  0  0  0  0  0  0  0  0  # atno 10764 bound_to 10752
  152.9851  135.5821  154.4913 H   0  0  0  0  0  0  0  0  0  0  0  0  # atno 10765 bound_to 10752
  141.0701  133.9394  157.2502 H   0  0  0  0  0  0  0  0  0  0  0  0  # atno 11005 bound_to 11000
  144.7459  140.5066  143.6836 LP  0  0  0  0  0  0  0  0  0  0  0  0  # atno 17320 bound_to 7965
  145.5790  139.1488  143.3246 LP  0  0  0  0  0  0  0  0  0  0  0  0  # atno 17321 bound_to 7965
  140.6887  143.2364  151.5191 LP  0  0  0  0  0  0  0  0  0  0  0  0  # atno 17342 bound_to 10162
  139.5582  144.2221  152.1648 LP  0  0  0  0  0  0  0  0  0  0  0  0  # atno 17343 bound_to 10162
  157.7360  130.9772  150.2114 LP  0  0  0  0  0  0  0  0  0  0  0  0  # atno 17370 bound_to 10713
  156.2764  130.3728  149.7979 LP  0  0  0  0  0  0  0  0  0  0  0  0  # atno 17371 bound_to 10713
  139.9514  135.0174  156.9006 LP  0  0  0  0  0  0  0  0  0  0  0  0  # atno 17394 bound_to 11000
  140.5692  134.0460  155.7424 LP  0  0  0  0  0  0  0  0  0  0  0  0  # atno 17395 bound_to 11000

$$$$
