AV-unprocessed.smi:1406|AV-procd|sdf|5723|dock8
  -GOLD-   22720 5353D 1   1.00000     0.00000
 Structure written by MMmdl.
 41 43  0  0  0  0  0  0  0  0  2 V2000
  151.1750  137.7317  155.5912 C   0  0  0  0  0  0  0  0  0  0  0  0
  151.5065  139.2175  155.8376 C   0  0  2  0  0  0  0  0  0  0  0  0
  151.7010  139.5528  157.3258 C   0  0  0  0  0  0  0  0  0  0  0  0
  151.7075  138.6658  158.1799 O   0  0  0  0  0  0  0  0  0  0  0  0
  151.8569  140.8520  157.6242 N   0  0  0  0  0  0  0  0  0  0  0  0
  151.9990  141.3870  158.9730 C   0  0  1  0  0  0  0  0  0  0  0  0
  153.2218  140.8764  159.7292 C   0  0  0  0  0  0  0  0  0  0  0  0
  153.3871  141.9366  160.8199 C   0  0  0  0  0  0  0  0  0  0  0  0
  152.9613  143.2169  160.2091 N   0  3  2  0  0  0  0  0  0  0  0  0
  152.2931  144.1589  161.1398 C   0  0  0  0  0  0  0  0  0  0  0  0
  151.8980  145.4551  160.4073 C   0  0  0  0  0  0  0  0  0  0  0  0
  151.1088  145.1994  159.1055 C   0  0  0  0  0  0  0  0  0  0  0  0
  150.8893  143.7025  158.8363 C   0  0  0  0  0  0  0  0  0  0  0  0
  152.2081  142.9076  158.9610 C   0  0  2  0  0  0  0  0  0  0  0  0
  150.5115  140.1040  155.2454 N   0  0  0  0  0  0  0  0  0  0  0  0
  150.0333  140.1477  153.9997 C   0  0  0  0  0  0  0  0  0  0  0  0
  149.1669  141.1284  153.7894 N   0  0  0  0  0  0  0  0  0  0  0  0
  149.1570  141.6948  155.0326 C   0  0  0  0  0  0  0  0  0  0  0  0
  149.9528  141.1273  155.9387 N   0  0  0  0  0  0  0  0  0  0  0  0
  151.9592  137.0831  155.9831 H   0  0  0  0  0  0  0  0  0  0  0  0
  151.0862  137.5261  154.5242 H   0  0  0  0  0  0  0  0  0  0  0  0
  150.2363  137.4376  156.0628 H   0  0  0  0  0  0  0  0  0  0  0  0
  152.4553  139.4228  155.3395 H   0  0  0  0  0  0  0  0  0  0  0  0
  151.8434  141.5176  156.8651 H   0  0  0  0  0  0  0  0  0  0  0  0
  151.1057  141.1507  159.5556 H   0  0  0  0  0  0  0  0  0  0  0  0
  153.0859  139.8723  160.1324 H   0  0  0  0  0  0  0  0  0  0  0  0
  154.0978  140.8670  159.0784 H   0  0  0  0  0  0  0  0  0  0  0  0
  152.7359  141.6908  161.6605 H   0  0  0  0  0  0  0  0  0  0  0  0
  154.4088  141.9940  161.1960 H   0  0  0  0  0  0  0  0  0  0  0  0
  151.4091  143.6872  161.5721 H   0  0  0  0  0  0  0  0  0  0  0  0
  152.9640  144.3874  161.9686 H   0  0  0  0  0  0  0  0  0  0  0  0
  151.3156  146.0891  161.0766 H   0  0  0  0  0  0  0  0  0  0  0  0
  152.7999  146.0209  160.1702 H   0  0  0  0  0  0  0  0  0  0  0  0
  150.1467  145.7115  159.1425 H   0  0  0  0  0  0  0  0  0  0  0  0
  151.6513  145.6380  158.2670 H   0  0  0  0  0  0  0  0  0  0  0  0
  150.1523  143.3184  159.5430 H   0  0  0  0  0  0  0  0  0  0  0  0
  150.4570  143.5590  157.8452 H   0  0  0  0  0  0  0  0  0  0  0  0
  152.8693  143.1791  158.1363 H   0  0  0  0  0  0  0  0  0  0  0  0
  150.3313  139.4530  153.2283 H   0  0  0  0  0  0  0  0  0  0  0  0
  148.5520  142.5561  155.2747 H   0  0  0  0  0  0  0  0  0  0  0  0
  153.8052  143.6791  159.9018 H   0  0  0  0  0  0  0  0  0  0  0  0
  1  2  1  0  0  0  0
  1 20  1  0  0  0  0
  1 21  1  0  0  0  0
  1 22  1  0  0  0  0
  2  3  1  0  0  0  0
  2 15  1  0  0  0  0
  2 23  1  0  0  0  0
  3  4  2  0  0  0  0
  3  5  1  0  0  0  0
  5  6  1  0  0  0  0
  5 24  1  0  0  0  0
  6 14  1  0  0  0  0
  6  7  1  0  0  0  0
  6 25  1  0  0  0  0
  7  8  1  0  0  0  0
  7 26  1  0  0  0  0
  7 27  1  0  0  0  0
  8  9  1  0  0  0  0
  8 28  1  0  0  0  0
  8 29  1  0  0  0  0
  9 14  1  0  0  0  0
  9 10  1  0  0  0  0
  9 41  1  0  0  0  0
 10 11  1  0  0  0  0
 10 30  1  0  0  0  0
 10 31  1  0  0  0  0
 11 12  1  0  0  0  0
 11 32  1  0  0  0  0
 11 33  1  0  0  0  0
 12 13  1  0  0  0  0
 12 34  1  0  0  0  0
 12 35  1  0  0  0  0
 13 14  1  0  0  0  0
 13 36  1  0  0  0  0
 13 37  1  0  0  0  0
 14 38  1  0  0  0  0
 15 19  1  0  0  0  0
 15 16  1  0  0  0  0
 16 17  2  0  0  0  0
 16 39  1  0  0  0  0
 17 18  1  0  0  0  0
 18 19  2  0  0  0  0
 18 40  1  0  0  0  0
M  CHG  1   9   1
M  END
> <s_m_source_file>
AV-unprocessed.smi

> <i_m_source_file_index>
1406

> <i_lp_mmshare_version>
43012

> <i_f3d_flags>
0

> <s_epik_input>
bjFbY0hdbltjSF1uMVtDQEhdKFtDSDNdKUMoPU8pW05IXVtDQEhdKFtDSDJdW0NIMl0yKVtDQEBIXShOMjMpW0NIMl1bQ0gyXVtDSDJdW0NIMl0z

> <s_epik_cmdline>
J2VwaWtfcHl0aG9uJywgJy1waCcsICc3LjAnLCAnLXRuJywgJzgnLCAnLW1hJywgJzIwMCcsICctbWV0YWxfYmluZGluZycsICctaW1hZScsICc8aW5maWxlLm1hZT4nLCAnLW9tYWUnLCAnPG91dGZpbGUubWFlPic=

> <r_lp_tautomer_probability>
1

> <r_epik_Ionization_Penalty>
0.00197066

> <r_epik_Ionization_Penalty_Charging>
0.00196223

> <r_epik_Ionization_Penalty_Neutral>
8.43107e-06

> <r_epik_State_Penalty>
0.00133866

> <r_epik_Charging_Adjusted_Penalty>
0.00330089

> <i_epik_Tot_Q>
1

> <i_epik_Tot_abs_Q>
1

> <r_epik_Metal_State_Penalty>
-0

> <b_epik_Metal_Only>
0

> <s_lp_Force_Field>
OPLS_2005

> <r_lp_Energy>
45.2549

> <b_lp_Chiralities_Consistent>
1

> <s_lp_Variant>
AV-unprocessed.smi:1406-15

> <Gold.Version>
5.8.1

> <Gold.Id.Protein>
6NUR|6NUR_protein|mol2

> <Gold.PLP.Fitness>
43.0474

> <Gold.PLP.PLP>
-35.7535

> <Gold.PLP.part.hbond>
-1.9945

> <Gold.PLP.part.metal>
0.0000

> <Gold.PLP.part.buried>
0.4585

> <Gold.PLP.part.nonpolar>
-36.1829

> <Gold.PLP.part.repulsive>
1.9274

> <Gold.PLP.ligand.clash>
0.0000

> <Gold.PLP.ligand.torsion>
0.2891

> <Gold.PLP.Chemscore.Hbond>
0.9048

> <Gold.PLP.Chemscore.CHOScore>
1.6833

> <Gold.PLP.Chemscore.Metal>
0.0000

> <Gold.Chemscore.Hbonds>
donor molecule, donor type, donor heavy atom, donor atom, acceptor molecule, acceptor atom, score
      P1  H  8011  8017       L1    17  0.90
      L1  C    16    39       P1  7957  0.68
      L1  C    18    40       P1  8028  1.00

> <Gold.PLP.Chemscore.Internal.Correction>
0.1077

> <Gold.Rescore>
     Score         DG    S(hbond)    S(metal)    S(lipo)     H(rot)  DE(clash)    DE(int)     intcor
      9.92     -11.91       0.00        0.00      96.21       1.89       0.08       1.91       ----

> <Gold.Chemscore.Fitness>
9.9186

> <Gold.Chemscore.DG>
-11.9065

> <Gold.Chemscore.ZeroCoef>
-5.4800

> <Gold.Chemscore.Hbond>
0.0000

> <Gold.Chemscore.Metal>
0.0000

> <Gold.Chemscore.Lipo>
96.2050

> <Gold.Chemscore.Internal_Hbond>
0.0000

> <Gold.Chemscore.DEClash>
0.0754

> <Gold.Chemscore.DEInternal>
1.9125

> <Gold.Chemscore.Rot>
1.8865

> <Gold.Chemscore.Internal.Correction>
   9.000000E+99

> <Gold.Chemscore.Hbonds>
donor molecule, donor type, donor heavy atom, donor atom, acceptor molecule, acceptor atom, score
      P1  H  8011  8017       L1    17  0.57

> <Gold.Chemscore.Hbond.Weighted>
-0.0000

> <Gold.Chemscore.Metal.Weighted>
-0.0000

> <Gold.Chemscore.Lipo.Weighted>
-11.2560

> <Gold.Chemscore.Internal_Hbond.Weighted>
0.0000

> <Gold.Chemscore.DEClash.Weighted>
0.0754

> <Gold.Chemscore.DEInternal.Weighted>
1.9125

> <Gold.Chemscore.Rot.Weighted>
4.8295

> <Gold.Chemscore.Internal.Correction.Weighted>
   9.000000E+99

> <Gold.Protein.RotatedTorsions>
[ 6907 6896 6895 6894 ] final -161.58 input  -60.11 | X-H torsion
[ 7974 7965 7964 7962 ] final   -5.76 input  175.53 | X-H torsion
[ 8008 7997 7996 7995 ] final  178.58 input   59.86 | X-H torsion
[ 10167 10162 10161 10158 ] final  -20.35 input  -65.29 | X-H torsion
[ 10718 10713 10712 10709 ] final -173.19 input   66.30 | X-H torsion
[ 10763 10752 10751 10750 ] final  148.27 input  -60.55 | X-H torsion
[ 11005 11000 10999 10996 ] final   57.35 input  -57.11 | X-H torsion

> <Gold.Protein.ActiveResidues>
 VAL166  LYS551  ARG553  GLY616  TRP617  ASP618  TYR619  PRO620  LYS621  CYS622 
 ASP623  PHE694  ASN695  SER759  ASP760  ASP761  ALA762  ILE779  LEU786  VAL792 
 PHE793  MET794  SER795  GLU796  ALA797  LYS798  CYS799  TRP800  GLU811  SER814 

> <Gold.Protein.RotatedAtoms>
  151.3669  133.3869  159.2695 H   0  0  0  0  0  0  0  0  0  0  0  0  # atno 6907 bound_to 6896
  150.9681  134.9059  159.7782 H   0  0  0  0  0  0  0  0  0  0  0  0  # atno 6908 bound_to 6896
  152.5174  134.3631  159.9344 H   0  0  0  0  0  0  0  0  0  0  0  0  # atno 6909 bound_to 6896
  146.2346  140.2070  142.8334 H   0  0  0  0  0  0  0  0  0  0  0  0  # atno 7974 bound_to 7965
  156.0530  140.1330  157.0029 H   0  0  0  0  0  0  0  0  0  0  0  0  # atno 8008 bound_to 7997
  154.4444  140.1007  156.6475 H   0  0  0  0  0  0  0  0  0  0  0  0  # atno 8009 bound_to 7997
  155.5495  140.3462  155.4467 H   0  0  0  0  0  0  0  0  0  0  0  0  # atno 8010 bound_to 7997
  140.7275  143.4731  151.0220 H   0  0  0  0  0  0  0  0  0  0  0  0  # atno 10167 bound_to 10162
  156.7667  130.9433  151.3119 H   0  0  0  0  0  0  0  0  0  0  0  0  # atno 10718 bound_to 10713
  154.0520  135.2881  155.3339 H   0  0  0  0  0  0  0  0  0  0  0  0  # atno 10763 bound_to 10752
  154.6863  135.5244  153.8334 H   0  0  0  0  0  0  0  0  0  0  0  0  # atno 10764 bound_to 10752
  153.0557  135.6594  154.0715 H   0  0  0  0  0  0  0  0  0  0  0  0  # atno 10765 bound_to 10752
  140.0459  134.5806  155.9323 H   0  0  0  0  0  0  0  0  0  0  0  0  # atno 11005 bound_to 11000
  144.9737  140.8393  143.5440 LP  0  0  0  0  0  0  0  0  0  0  0  0  # atno 17320 bound_to 7965
  145.2054  139.2231  143.5171 LP  0  0  0  0  0  0  0  0  0  0  0  0  # atno 17321 bound_to 7965
  139.8424  143.7546  152.3180 LP  0  0  0  0  0  0  0  0  0  0  0  0  # atno 17342 bound_to 10162
  139.7699  144.7480  151.0239 LP  0  0  0  0  0  0  0  0  0  0  0  0  # atno 17343 bound_to 10162
  157.6710  130.9051  150.0040 LP  0  0  0  0  0  0  0  0  0  0  0  0  # atno 17370 bound_to 10713
  156.1304  130.3643  149.9741 LP  0  0  0  0  0  0  0  0  0  0  0  0  # atno 17371 bound_to 10713
  141.1906  133.6569  156.5421 LP  0  0  0  0  0  0  0  0  0  0  0  0  # atno 17394 bound_to 11000
  140.3994  134.7370  157.4771 LP  0  0  0  0  0  0  0  0  0  0  0  0  # atno 17395 bound_to 11000

$$$$
