AV-unprocessed.smi:2189|AV-procd|sdf|8887|dock8
  -GOLD-   2272012 93D 1   1.00000     0.00000
 Structure written by MMmdl.
 39 41  0  0  0  0  0  0  0  0  3 V2000
  152.3614  139.8025  156.2302 O   0  0  0  0  0  0  0  0  0  0  0  0
  151.4995  140.5707  156.6767 C   0  0  0  0  0  0  0  0  0  0  0  0
  150.2157  140.6740  156.2138 N   0  5  0  0  0  0  0  0  0  0  0  0
  149.6877  140.0310  155.0085 C   0  0  0  0  0  0  0  0  0  0  0  0
  148.6887  140.9738  154.3020 C   0  0  0  0  0  0  0  0  0  0  0  0
  147.3659  141.1680  155.0378 C   0  0  0  0  0  0  0  0  0  0  0  0
  146.4749  140.0949  155.2675 C   0  0  0  0  0  0  0  0  0  0  0  0
  145.2684  140.3315  155.9575 C   0  0  0  0  0  0  0  0  0  0  0  0
  144.9703  141.6373  156.3983 C   0  0  0  0  0  0  0  0  0  0  0  0
  145.8890  142.6744  156.1382 C   0  0  0  0  0  0  0  0  0  0  0  0
  147.0351  142.4075  155.4748 N   0  3  0  0  0  0  0  0  0  0  0  0
  151.8598  141.4828  157.7770 C   0  0  0  0  0  0  0  0  0  0  0  0
  151.2328  142.6859  157.8504 C   0  0  0  0  0  0  0  0  0  0  0  0
  151.5165  143.6275  158.9044 C   0  0  0  0  0  0  0  0  0  0  0  0
  152.4468  143.2980  159.8069 C   0  0  0  0  0  0  0  0  0  0  0  0
  153.1504  142.0949  159.7749 N   0  0  0  0  0  0  0  0  0  0  0  0
  154.1998  141.9157  160.7724 C   0  0  0  0  0  0  0  0  0  0  0  0
  154.1849  140.4952  161.3070 C   0  0  0  0  0  0  0  0  0  0  0  0
  154.5790  139.4217  159.8799 S   0  0  0  0  0  0  0  0  0  0  0  0
  155.9059  139.8057  159.3730 O   0  0  0  0  0  0  0  0  0  0  0  0
  154.3349  138.0270  160.2777 O   0  0  0  0  0  0  0  0  0  0  0  0
  153.4063  139.9194  158.7926 N   0  0  0  0  0  0  0  0  0  0  0  0
  152.8630  141.1041  158.7936 C   0  0  0  0  0  0  0  0  0  0  0  0
  150.4668  139.7571  154.2959 H   0  0  0  0  0  0  0  0  0  0  0  0
  149.1757  139.1007  155.2544 H   0  0  0  0  0  0  0  0  0  0  0  0
  149.1530  141.9517  154.1698 H   0  0  0  0  0  0  0  0  0  0  0  0
  148.4836  140.6048  153.2960 H   0  0  0  0  0  0  0  0  0  0  0  0
  146.7214  139.0991  154.9288 H   0  0  0  0  0  0  0  0  0  0  0  0
  144.5814  139.5203  156.1476 H   0  0  0  0  0  0  0  0  0  0  0  0
  144.0521  141.8397  156.9298 H   0  0  0  0  0  0  0  0  0  0  0  0
  145.7448  143.7011  156.4407 H   0  0  0  0  0  0  0  0  0  0  0  0
  150.5026  142.9769  157.1088 H   0  0  0  0  0  0  0  0  0  0  0  0
  150.9925  144.5700  158.9635 H   0  0  0  0  0  0  0  0  0  0  0  0
  152.7037  143.9619  160.6194 H   0  0  0  0  0  0  0  0  0  0  0  0
  155.1662  142.1547  160.3275 H   0  0  0  0  0  0  0  0  0  0  0  0
  154.0610  142.6054  161.6056 H   0  0  0  0  0  0  0  0  0  0  0  0
  154.9384  140.3433  162.0793 H   0  0  0  0  0  0  0  0  0  0  0  0
  153.2105  140.2182  161.7110 H   0  0  0  0  0  0  0  0  0  0  0  0
  147.6894  143.1714  155.3043 H   0  0  0  0  0  0  0  0  0  0  0  0
  1  2  2  0  0  0  0
  2  3  1  0  0  0  0
  2 12  1  0  0  0  0
  3  4  1  0  0  0  0
  4  5  1  0  0  0  0
  4 24  1  0  0  0  0
  4 25  1  0  0  0  0
  5  6  1  0  0  0  0
  5 26  1  0  0  0  0
  5 27  1  0  0  0  0
  6 11  1  0  0  0  0
  6  7  2  0  0  0  0
  7  8  1  0  0  0  0
  7 28  1  0  0  0  0
  8  9  2  0  0  0  0
  8 29  1  0  0  0  0
  9 10  1  0  0  0  0
  9 30  1  0  0  0  0
 10 11  2  0  0  0  0
 10 31  1  0  0  0  0
 11 39  1  0  0  0  0
 12 23  1  0  0  0  0
 12 13  2  0  0  0  0
 13 14  1  0  0  0  0
 13 32  1  0  0  0  0
 14 15  2  0  0  0  0
 14 33  1  0  0  0  0
 15 16  1  0  0  0  0
 15 34  1  0  0  0  0
 16 23  1  0  0  0  0
 16 17  1  0  0  0  0
 17 18  1  0  0  0  0
 17 35  1  0  0  0  0
 17 36  1  0  0  0  0
 18 19  1  0  0  0  0
 18 37  1  0  0  0  0
 18 38  1  0  0  0  0
 19 20  2  0  0  0  0
 19 21  2  0  0  0  0
 19 22  1  0  0  0  0
 22 23  2  0  0  0  0
M  CHG  1   3  -1
M  CHG  1  11   1
M  END
> <s_m_source_file>
AV-unprocessed.smi

> <i_m_source_file_index>
2189

> <i_lp_mmshare_version>
43012

> <i_f3d_flags>
0

> <s_epik_input>
W0NIMl0xW0NIMl1TKD1PKSg9TylOPUMoTjEyKUMoPVtDSF1bQ0hdPVtDSF0yKUMoPU8pW05IXVtDSDJdW0NIMl1jM1tjSF1bY0hdW2NIXVtjSF1uMw==

> <s_epik_cmdline>
J2VwaWtfcHl0aG9uJywgJy1waCcsICc3LjAnLCAnLXRuJywgJzgnLCAnLW1hJywgJzIwMCcsICctbWV0YWxfYmluZGluZycsICctaW1hZScsICc8aW5maWxlLm1hZT4nLCAnLW9tYWUnLCAnPG91dGZpbGUubWFlPic=

> <r_epik_Ionization_Penalty>
6.52844

> <r_epik_Ionization_Penalty_Charging>
6.52844

> <r_epik_Ionization_Penalty_Neutral>
1.18271e-13

> <r_epik_State_Penalty>
7.49351

> <r_epik_Charging_Adjusted_Penalty>
14.0219

> <i_epik_Tot_Q>
0

> <i_epik_Tot_abs_Q>
2

> <r_epik_Metal_State_Penalty>
3.53414

> <b_epik_Metal_Only>
1

> <s_lp_Force_Field>
OPLS_2005

> <r_lp_Energy>
35.7172

> <b_lp_Chiralities_Consistent>
1

> <s_lp_Variant>
AV-unprocessed.smi:2189-4

> <Gold.Version>
5.8.1

> <Gold.Id.Protein>
6NUR|6NUR_protein|mol2

> <Gold.PLP.Fitness>
51.8651

> <Gold.PLP.PLP>
-40.7085

> <Gold.PLP.part.hbond>
-4.0000

> <Gold.PLP.part.metal>
0.0000

> <Gold.PLP.part.buried>
-3.4189

> <Gold.PLP.part.nonpolar>
-31.8706

> <Gold.PLP.part.repulsive>
0.1516

> <Gold.PLP.ligand.clash>
0.0000

> <Gold.PLP.ligand.torsion>
0.6123

> <Gold.PLP.Chemscore.Hbond>
4.0000

> <Gold.PLP.Chemscore.CHOScore>
0.0000

> <Gold.PLP.Chemscore.Metal>
0.0000

> <Gold.Chemscore.Hbonds>
donor molecule, donor type, donor heavy atom, donor atom, acceptor molecule, acceptor atom, score
      L1  H    11    39       P1  8028  2.00
      P1  H  7997  8009       L1    20  0.88
      P1  H  7997  8010       L1     1  1.00

> <Gold.PLP.Chemscore.Internal.Correction>
0.3811

> <Gold.Rescore>
     Score         DG    S(hbond)    S(metal)    S(lipo)     H(rot)  DE(clash)    DE(int)     intcor
     17.78     -20.43       2.44        0.00      91.12       1.51       0.30       2.34       ----

> <Gold.Chemscore.Fitness>
17.7836

> <Gold.Chemscore.DG>
-20.4254

> <Gold.Chemscore.ZeroCoef>
-5.4800

> <Gold.Chemscore.Hbond>
2.4408

> <Gold.Chemscore.Metal>
0.0000

> <Gold.Chemscore.Lipo>
91.1201

> <Gold.Chemscore.Internal_Hbond>
0.0000

> <Gold.Chemscore.DEClash>
0.2991

> <Gold.Chemscore.DEInternal>
2.3428

> <Gold.Chemscore.Rot>
1.5109

> <Gold.Chemscore.Internal.Correction>
   9.000000E+99

> <Gold.Chemscore.Hbonds>
donor molecule, donor type, donor heavy atom, donor atom, acceptor molecule, acceptor atom, score
      L1  H    11    39       P1  8028  0.44
      P1  H  7997  8009       L1    20  0.47
      P1  H  7997  8010       L1     1  0.94

> <Gold.Chemscore.Hbond.Weighted>
-8.1524

> <Gold.Chemscore.Metal.Weighted>
-0.0000

> <Gold.Chemscore.Lipo.Weighted>
-10.6610

> <Gold.Chemscore.Internal_Hbond.Weighted>
0.0000

> <Gold.Chemscore.DEClash.Weighted>
0.2991

> <Gold.Chemscore.DEInternal.Weighted>
2.3428

> <Gold.Chemscore.Rot.Weighted>
3.8680

> <Gold.Chemscore.Internal.Correction.Weighted>
   9.000000E+99

> <Gold.Protein.RotatedTorsions>
[ 6907 6896 6895 6894 ] final   60.53 input  -60.11 | X-H torsion
[ 7974 7965 7964 7962 ] final   85.85 input  175.53 | X-H torsion
[ 8008 7997 7996 7995 ] final   86.98 input   59.86 | X-H torsion
[ 10167 10162 10161 10158 ] final  -48.67 input  -65.29 | X-H torsion
[ 10718 10713 10712 10709 ] final  164.28 input   66.30 | X-H torsion
[ 10763 10752 10751 10750 ] final   55.33 input  -60.55 | X-H torsion
[ 11005 11000 10999 10996 ] final   83.62 input  -57.11 | X-H torsion

> <Gold.Protein.ActiveResidues>
 VAL166  LYS551  ARG553  GLY616  TRP617  ASP618  TYR619  PRO620  LYS621  CYS622 
 ASP623  PHE694  ASN695  SER759  ASP760  ASP761  ALA762  ILE779  LEU786  VAL792 
 PHE793  MET794  SER795  GLU796  ALA797  LYS798  CYS799  TRP800  GLU811  SER814 

> <Gold.Protein.RotatedAtoms>
  152.4011  134.6285  160.0069 H   0  0  0  0  0  0  0  0  0  0  0  0  # atno 6907 bound_to 6896
  151.6490  133.3316  159.3155 H   0  0  0  0  0  0  0  0  0  0  0  0  # atno 6908 bound_to 6896
  150.7911  134.6978  159.6577 H   0  0  0  0  0  0  0  0  0  0  0  0  # atno 6909 bound_to 6896
  145.5801  139.2324  143.2358 H   0  0  0  0  0  0  0  0  0  0  0  0  # atno 7974 bound_to 7965
  155.9697  140.3386  155.6564 H   0  0  0  0  0  0  0  0  0  0  0  0  # atno 8008 bound_to 7997
  155.6691  140.0725  157.2545 H   0  0  0  0  0  0  0  0  0  0  0  0  # atno 8009 bound_to 7997
  154.4163  140.1695  156.1847 H   0  0  0  0  0  0  0  0  0  0  0  0  # atno 8010 bound_to 7997
  140.6720  143.2730  151.4104 H   0  0  0  0  0  0  0  0  0  0  0  0  # atno 10167 bound_to 10162
  157.0966  131.0432  151.2515 H   0  0  0  0  0  0  0  0  0  0  0  0  # atno 10718 bound_to 10713
  152.9815  135.5714  154.5049 H   0  0  0  0  0  0  0  0  0  0  0  0  # atno 10763 bound_to 10752
  154.4563  135.2780  155.1747 H   0  0  0  0  0  0  0  0  0  0  0  0  # atno 10764 bound_to 10752
  154.3354  135.6240  153.5624 H   0  0  0  0  0  0  0  0  0  0  0  0  # atno 10765 bound_to 10752
  139.9025  134.8158  156.2334 H   0  0  0  0  0  0  0  0  0  0  0  0  # atno 11005 bound_to 11000
  146.1722  140.6627  142.9228 LP  0  0  0  0  0  0  0  0  0  0  0  0  # atno 17320 bound_to 7965
  144.7398  140.4910  143.6877 LP  0  0  0  0  0  0  0  0  0  0  0  0  # atno 17321 bound_to 7965
  139.5993  144.1329  152.2180 LP  0  0  0  0  0  0  0  0  0  0  0  0  # atno 17342 bound_to 10162
  140.0708  144.5781  150.7193 LP  0  0  0  0  0  0  0  0  0  0  0  0  # atno 17343 bound_to 10162
  157.4676  130.7690  149.7294 LP  0  0  0  0  0  0  0  0  0  0  0  0  # atno 17370 bound_to 10713
  155.9884  130.3959  150.3119 LP  0  0  0  0  0  0  0  0  0  0  0  0  # atno 17371 bound_to 10713
  141.0331  133.6978  156.1464 LP  0  0  0  0  0  0  0  0  0  0  0  0  # atno 17394 bound_to 11000
  140.7067  134.4505  157.5584 LP  0  0  0  0  0  0  0  0  0  0  0  0  # atno 17395 bound_to 11000

$$$$
