AV-unprocessed.smi:1929|AV-procd|sdf|7799|dock4
  -GOLD-   22720 9543D 1   1.00000     0.00000
 Structure written by MMmdl.
 42 43  0  0  0  0  0  0  0  0  1 V2000
  150.2340  142.8012  158.3790 C   0  0  0  0  0  0  0  0  0  0  0  0
  149.3291  142.6506  157.2500 N   0  0  0  0  0  0  0  0  0  0  0  0
  148.4044  141.6848  157.1486 C   0  0  0  0  0  0  0  0  0  0  0  0
  148.2315  140.8214  158.0088 O   0  0  0  0  0  0  0  0  0  0  0  0
  147.5321  141.6965  155.8875 C   0  0  0  0  0  0  0  0  0  0  0  0
  147.5855  140.4478  155.0930 N   0  0  0  0  0  0  0  0  0  0  0  0
  146.8110  140.6263  153.8606 C   0  0  0  0  0  0  0  0  0  0  0  0
  146.9535  139.3965  152.9470 C   0  0  0  0  0  0  0  0  0  0  0  0
  146.4873  138.1210  153.6619 C   0  0  0  0  0  0  0  0  0  0  0  0
  146.7364  136.9569  152.8166 N   0  0  0  0  0  0  0  0  0  0  0  0
  145.8013  136.0930  152.3959 C   0  0  0  0  0  0  0  0  0  0  0  0
  144.6098  136.1888  152.6892 O   0  0  0  0  0  0  0  0  0  0  0  0
  146.3441  135.1200  151.6431 N   0  0  0  0  0  0  0  0  0  0  0  0
  145.7013  134.0277  150.9987 C   0  0  0  0  0  0  0  0  0  0  0  0
  146.5155  132.9887  150.5022 C   0  0  0  0  0  0  0  0  0  0  0  0
  145.9054  131.9021  149.8444 C   0  0  0  0  0  0  0  0  0  0  0  0
  144.5730  131.8041  149.6533 N   0  0  0  0  0  0  0  0  0  0  0  0
  143.7959  132.8058  150.1168 C   0  0  0  0  0  0  0  0  0  0  0  0
  144.3040  133.9361  150.7884 C   0  0  0  0  0  0  0  0  0  0  0  0
  147.2345  137.9990  155.0000 C   0  0  0  0  0  0  0  0  0  0  0  0
  147.0918  139.2810  155.8396 C   0  0  0  0  0  0  0  0  0  0  0  0
  150.8782  143.6669  158.2257 H   0  0  0  0  0  0  0  0  0  0  0  0
  150.8669  141.9199  158.4899 H   0  0  0  0  0  0  0  0  0  0  0  0
  149.6775  142.9501  159.3051 H   0  0  0  0  0  0  0  0  0  0  0  0
  149.4065  143.3236  156.5013 H   0  0  0  0  0  0  0  0  0  0  0  0
  146.4969  141.9173  156.1558 H   0  0  0  0  0  0  0  0  0  0  0  0
  147.8753  142.5301  155.2732 H   0  0  0  0  0  0  0  0  0  0  0  0
  145.7595  140.8040  154.0938 H   0  0  0  0  0  0  0  0  0  0  0  0
  147.1693  141.5052  153.3230 H   0  0  0  0  0  0  0  0  0  0  0  0
  146.3741  139.5462  152.0353 H   0  0  0  0  0  0  0  0  0  0  0  0
  147.9952  139.2940  152.6386 H   0  0  0  0  0  0  0  0  0  0  0  0
  145.4160  138.2064  153.8550 H   0  0  0  0  0  0  0  0  0  0  0  0
  147.6926  136.7980  152.5347 H   0  0  0  0  0  0  0  0  0  0  0  0
  147.3498  135.1362  151.5599 H   0  0  0  0  0  0  0  0  0  0  0  0
  147.5884  133.0162  150.6253 H   0  0  0  0  0  0  0  0  0  0  0  0
  146.5052  131.0905  149.4596 H   0  0  0  0  0  0  0  0  0  0  0  0
  142.7347  132.7078  149.9415 H   0  0  0  0  0  0  0  0  0  0  0  0
  143.6191  134.7043  151.1123 H   0  0  0  0  0  0  0  0  0  0  0  0
  146.8548  137.1476  155.5661 H   0  0  0  0  0  0  0  0  0  0  0  0
  148.2925  137.8019  154.8192 H   0  0  0  0  0  0  0  0  0  0  0  0
  147.6548  139.1411  156.7622 H   0  0  0  0  0  0  0  0  0  0  0  0
  146.0496  139.4317  156.1261 H   0  0  0  0  0  0  0  0  0  0  0  0
  1  2  1  0  0  0  0
  1 22  1  0  0  0  0
  1 23  1  0  0  0  0
  1 24  1  0  0  0  0
  2  3  1  0  0  0  0
  2 25  1  0  0  0  0
  3  4  2  0  0  0  0
  3  5  1  0  0  0  0
  5  6  1  0  0  0  0
  5 26  1  0  0  0  0
  5 27  1  0  0  0  0
  6 21  1  0  0  0  0
  6  7  1  0  0  0  0
  7  8  1  0  0  0  0
  7 28  1  0  0  0  0
  7 29  1  0  0  0  0
  8  9  1  0  0  0  0
  8 30  1  0  0  0  0
  8 31  1  0  0  0  0
  9 10  1  0  0  0  0
  9 20  1  0  0  0  0
  9 32  1  0  0  0  0
 10 11  1  0  0  0  0
 10 33  1  0  0  0  0
 11 12  2  0  0  0  0
 11 13  1  0  0  0  0
 13 14  1  0  0  0  0
 13 34  1  0  0  0  0
 14 19  1  0  0  0  0
 14 15  2  0  0  0  0
 15 16  1  0  0  0  0
 15 35  1  0  0  0  0
 16 17  2  0  0  0  0
 16 36  1  0  0  0  0
 17 18  1  0  0  0  0
 18 19  2  0  0  0  0
 18 37  1  0  0  0  0
 19 38  1  0  0  0  0
 20 21  1  0  0  0  0
 20 39  1  0  0  0  0
 20 40  1  0  0  0  0
 21 41  1  0  0  0  0
 21 42  1  0  0  0  0
M  END
> <s_m_source_file>
AV-unprocessed.smi

> <i_m_source_file_index>
1929

> <i_lp_mmshare_version>
43012

> <i_f3d_flags>
0

> <s_epik_input>
W0NIM11bTkhdQyg9TylbQ0gyXU4xW0NIMl1bQ0gyXVtDSF0oW0NIMl1bQ0gyXTEpW05IXUMoPU8pW05IXWMyW2NIXVtjSF1uW2NIXVtjSF0y

> <s_epik_cmdline>
J2VwaWtfcHl0aG9uJywgJy1waCcsICc3LjAnLCAnLXRuJywgJzgnLCAnLW1hJywgJzIwMCcsICctbWV0YWxfYmluZGluZycsICctaW1hZScsICc8aW5maWxlLm1hZT4nLCAnLW9tYWUnLCAnPG91dGZpbGUubWFlPic=

> <r_epik_Ionization_Penalty>
0.286942

> <r_epik_Ionization_Penalty_Charging>
0

> <r_epik_Ionization_Penalty_Neutral>
0.286942

> <r_epik_State_Penalty>
0.264061

> <r_epik_Charging_Adjusted_Penalty>
0.264061

> <i_epik_Tot_Q>
0

> <i_epik_Tot_abs_Q>
0

> <r_epik_Metal_State_Penalty>
0.245324

> <b_epik_Metal_Only>
0

> <s_lp_Force_Field>
OPLS_2005

> <r_lp_Energy>
20.0656

> <b_lp_Chiralities_Consistent>
1

> <s_lp_Variant>
AV-unprocessed.smi:1929-1

> <Gold.Version>
5.8.1

> <Gold.Id.Protein>
6NUR|6NUR_protein|mol2

> <Gold.PLP.Fitness>
43.7076

> <Gold.PLP.PLP>
-29.6259

> <Gold.PLP.part.hbond>
-4.4397

> <Gold.PLP.part.metal>
0.0000

> <Gold.PLP.part.buried>
-4.2908

> <Gold.PLP.part.nonpolar>
-21.7727

> <Gold.PLP.part.repulsive>
0.4733

> <Gold.PLP.ligand.clash>
0.0000

> <Gold.PLP.ligand.torsion>
0.0622

> <Gold.PLP.Chemscore.Hbond>
3.0410

> <Gold.PLP.Chemscore.CHOScore>
1.6880

> <Gold.PLP.Chemscore.Metal>
0.0000

> <Gold.Chemscore.Hbonds>
donor molecule, donor type, donor heavy atom, donor atom, acceptor molecule, acceptor atom, score
      L1  H     2    25       P1  8028  1.00
      L1  H    10    33       P1  7948  1.00
      L1  H    13    34       P1  7948  0.91
      P1  H 10785 10796       L1    17  0.13
      L1  C    16    36       P1 10747  0.68
      L1  C    18    37       P1 10186  1.00

> <Gold.PLP.Chemscore.Internal.Correction>
0.0191

> <Gold.Rescore>
     Score         DG    S(hbond)    S(metal)    S(lipo)     H(rot)  DE(clash)    DE(int)     intcor
     16.76     -19.31       2.95        0.00      70.44       1.66       0.08       2.47       ----

> <Gold.Chemscore.Fitness>
16.7641

> <Gold.Chemscore.DG>
-19.3148

> <Gold.Chemscore.ZeroCoef>
-5.4800

> <Gold.Chemscore.Hbond>
2.9486

> <Gold.Chemscore.Metal>
0.0000

> <Gold.Chemscore.Lipo>
70.4423

> <Gold.Chemscore.Internal_Hbond>
0.0000

> <Gold.Chemscore.DEClash>
0.0811

> <Gold.Chemscore.DEInternal>
2.4696

> <Gold.Chemscore.Rot>
1.6623

> <Gold.Chemscore.Internal.Correction>
   9.000000E+99

> <Gold.Chemscore.Hbonds>
donor molecule, donor type, donor heavy atom, donor atom, acceptor molecule, acceptor atom, score
      L1  H     2    25       P1  8028  0.96
      L1  H    10    33       P1  7948  0.93
      L1  H    13    34       P1  7948  0.73
      P1  H 10785 10796       L1    17  0.09

> <Gold.Chemscore.Hbond.Weighted>
-9.8485

> <Gold.Chemscore.Metal.Weighted>
-0.0000

> <Gold.Chemscore.Lipo.Weighted>
-8.2418

> <Gold.Chemscore.Internal_Hbond.Weighted>
0.0000

> <Gold.Chemscore.DEClash.Weighted>
0.0811

> <Gold.Chemscore.DEInternal.Weighted>
2.4696

> <Gold.Chemscore.Rot.Weighted>
4.2554

> <Gold.Chemscore.Internal.Correction.Weighted>
   9.000000E+99

> <Gold.Protein.RotatedTorsions>
[ 6907 6896 6895 6894 ] final -175.85 input  -60.11 | X-H torsion
[ 7974 7965 7964 7962 ] final  -18.02 input  175.53 | X-H torsion
[ 8008 7997 7996 7995 ] final  -36.98 input   59.86 | X-H torsion
[ 10167 10162 10161 10158 ] final  -20.22 input  -65.29 | X-H torsion
[ 10718 10713 10712 10709 ] final   18.28 input   66.30 | X-H torsion
[ 10763 10752 10751 10750 ] final -113.00 input  -60.55 | X-H torsion
[ 11005 11000 10999 10996 ] final   35.10 input  -57.11 | X-H torsion

> <Gold.Protein.ActiveResidues>
 VAL166  LYS551  ARG553  GLY616  TRP617  ASP618  TYR619  PRO620  LYS621  CYS622 
 ASP623  PHE694  ASN695  SER759  ASP760  ASP761  ALA762  ILE779  LEU786  VAL792 
 PHE793  MET794  SER795  GLU796  ALA797  LYS798  CYS799  TRP800  GLU811  SER814 

> <Gold.Protein.RotatedAtoms>
  151.5952  133.3362  159.3035 H   0  0  0  0  0  0  0  0  0  0  0  0  # atno 6907 bound_to 6896
  150.8238  134.7462  159.6806 H   0  0  0  0  0  0  0  0  0  0  0  0  # atno 6908 bound_to 6896
  152.4329  134.5748  159.9983 H   0  0  0  0  0  0  0  0  0  0  0  0  # atno 6909 bound_to 6896
  146.1913  140.3862  142.8457 H   0  0  0  0  0  0  0  0  0  0  0  0  # atno 7974 bound_to 7965
  154.4062  140.1616  156.2463 H   0  0  0  0  0  0  0  0  0  0  0  0  # atno 8008 bound_to 7997
  155.9158  140.3424  155.6111 H   0  0  0  0  0  0  0  0  0  0  0  0  # atno 8009 bound_to 7997
  155.7281  140.0777  157.2291 H   0  0  0  0  0  0  0  0  0  0  0  0  # atno 8010 bound_to 7997
  140.7274  143.4743  151.0203 H   0  0  0  0  0  0  0  0  0  0  0  0  # atno 10167 bound_to 10162
  157.0941  130.6440  149.5856 H   0  0  0  0  0  0  0  0  0  0  0  0  # atno 10718 bound_to 10713
  154.8376  135.4470  154.1281 H   0  0  0  0  0  0  0  0  0  0  0  0  # atno 10763 bound_to 10752
  153.2499  135.6925  153.7697 H   0  0  0  0  0  0  0  0  0  0  0  0  # atno 10764 bound_to 10752
  153.7013  135.3371  155.3201 H   0  0  0  0  0  0  0  0  0  0  0  0  # atno 10765 bound_to 10752
  140.2461  134.3357  155.7907 H   0  0  0  0  0  0  0  0  0  0  0  0  # atno 11005 bound_to 11000
  144.8492  140.6975  143.6179 LP  0  0  0  0  0  0  0  0  0  0  0  0  # atno 17320 bound_to 7965
  145.3785  139.1642  143.4294 LP  0  0  0  0  0  0  0  0  0  0  0  0  # atno 17321 bound_to 7965
  139.8437  143.7529  152.3180 LP  0  0  0  0  0  0  0  0  0  0  0  0  # atno 17342 bound_to 10162
  139.7687  144.7483  151.0256 LP  0  0  0  0  0  0  0  0  0  0  0  0  # atno 17343 bound_to 10162
  155.9890  130.4936  150.7196 LP  0  0  0  0  0  0  0  0  0  0  0  0  # atno 17370 bound_to 10713
  157.4696  131.0892  151.0657 LP  0  0  0  0  0  0  0  0  0  0  0  0  # atno 17371 bound_to 10713
  141.2206  133.7327  156.8963 LP  0  0  0  0  0  0  0  0  0  0  0  0  # atno 17394 bound_to 11000
  140.1604  134.9169  157.2707 LP  0  0  0  0  0  0  0  0  0  0  0  0  # atno 17395 bound_to 11000

$$$$
