AV-unprocessed.smi:3162|AV-procd|sdf|12063|dock2
  -GOLD-   2272017493D 1   1.00000     0.00000
 Structure written by MMmdl.
 37 37  0  0  0  0  0  0  0  0  2 V2000
  147.7234  141.4207  152.8023 C   0  0  0  0  0  0  0  0  0  0  0  0
  147.0492  140.3814  153.7122 C   0  0  0  0  0  0  0  0  0  0  0  0
  147.3881  138.9123  153.3758 C   0  0  2  0  0  0  0  0  0  0  0  0
  148.8482  138.7940  153.1446 N   0  3  0  0  0  0  0  0  0  0  0  0
  149.7261  138.9653  154.3272 C   0  0  2  0  0  0  0  0  0  0  0  0
  149.1867  138.1010  155.4794 C   0  0  0  0  0  0  0  0  0  0  0  0
  149.8756  140.4545  154.7171 C   0  0  0  0  0  0  0  0  0  0  0  0
  150.6814  140.6501  155.9089 N   0  0  0  0  0  0  0  0  0  0  0  0
  150.9381  141.8242  156.5845 C   0  0  0  0  0  0  0  0  0  0  0  0
  151.7431  141.5206  157.6456 C   0  0  0  0  0  0  0  0  0  0  0  0
  152.3071  142.4416  158.6892 C   0  0  0  0  0  0  0  0  0  0  0  0
  151.9247  140.1127  157.5307 C   0  0  0  0  0  0  0  0  0  0  0  0
  151.2874  139.5950  156.4932 N   0  0  0  0  0  0  0  0  0  0  0  0
  146.6052  138.4255  152.1460 C   0  0  0  0  0  0  0  0  0  0  0  0
  147.0257  138.8414  150.9485 N   0  0  0  0  0  0  0  0  0  0  0  0
  145.6344  137.6820  152.2755 O   0  0  0  0  0  0  0  0  0  0  0  0
  147.3767  142.4258  153.0435 H   0  0  0  0  0  0  0  0  0  0  0  0
  147.4929  141.2350  151.7531 H   0  0  0  0  0  0  0  0  0  0  0  0
  148.8074  141.4162  152.9158 H   0  0  0  0  0  0  0  0  0  0  0  0
  147.3002  140.5958  154.7523 H   0  0  0  0  0  0  0  0  0  0  0  0
  145.9699  140.5191  153.6328 H   0  0  0  0  0  0  0  0  0  0  0  0
  147.1171  138.2999  154.2377 H   0  0  0  0  0  0  0  0  0  0  0  0
  149.0397  137.9057  152.7024 H   0  0  0  0  0  0  0  0  0  0  0  0
  150.7106  138.5716  154.0703 H   0  0  0  0  0  0  0  0  0  0  0  0
  149.8633  138.1009  156.3342 H   0  0  0  0  0  0  0  0  0  0  0  0
  149.0658  137.0631  155.1680 H   0  0  0  0  0  0  0  0  0  0  0  0
  148.2160  138.4605  155.8230 H   0  0  0  0  0  0  0  0  0  0  0  0
  150.3473  141.0178  153.9121 H   0  0  0  0  0  0  0  0  0  0  0  0
  148.8937  140.9037  154.8774 H   0  0  0  0  0  0  0  0  0  0  0  0
  150.5310  142.7697  156.2572 H   0  0  0  0  0  0  0  0  0  0  0  0
  152.6715  141.8939  159.5586 H   0  0  0  0  0  0  0  0  0  0  0  0
  151.5605  143.1504  159.0477 H   0  0  0  0  0  0  0  0  0  0  0  0
  153.1439  143.0231  158.3021 H   0  0  0  0  0  0  0  0  0  0  0  0
  152.4972  139.4553  158.1685 H   0  0  0  0  0  0  0  0  0  0  0  0
  146.5394  138.5559  150.1108 H   0  0  0  0  0  0  0  0  0  0  0  0
  147.8288  139.4510  150.8845 H   0  0  0  0  0  0  0  0  0  0  0  0
  149.0969  139.5274  152.4967 H   0  0  0  0  0  0  0  0  0  0  0  0
  1  2  1  0  0  0  0
  1 17  1  0  0  0  0
  1 18  1  0  0  0  0
  1 19  1  0  0  0  0
  2  3  1  0  0  0  0
  2 20  1  0  0  0  0
  2 21  1  0  0  0  0
  3  4  1  0  0  0  0
  3 14  1  0  0  0  0
  3 22  1  0  0  0  0
  4  5  1  0  0  0  0
  4 23  1  0  0  0  0
  4 37  1  0  0  0  0
  5  6  1  0  0  0  0
  5  7  1  0  0  0  0
  5 24  1  0  0  0  0
  6 25  1  0  0  0  0
  6 26  1  0  0  0  0
  6 27  1  0  0  0  0
  7  8  1  0  0  0  0
  7 28  1  0  0  0  0
  7 29  1  0  0  0  0
  8 13  1  0  0  0  0
  8  9  1  0  0  0  0
  9 10  2  0  0  0  0
  9 30  1  0  0  0  0
 10 11  1  0  0  0  0
 10 12  1  0  0  0  0
 11 31  1  0  0  0  0
 11 32  1  0  0  0  0
 11 33  1  0  0  0  0
 12 13  2  0  0  0  0
 12 34  1  0  0  0  0
 14 15  1  0  0  0  0
 14 16  2  0  0  0  0
 15 35  1  0  0  0  0
 15 36  1  0  0  0  0
M  CHG  1   4   1
M  END
> <s_m_source_file>
AV-unprocessed.smi

> <i_m_source_file_index>
3162

> <i_lp_mmshare_version>
43012

> <i_f3d_flags>
0

> <s_epik_input>
W0NIM11bQ0gyXVtDQEBIXShDKD1PKVtOSDJdKVtOSF1bQ0BIXShbQ0gzXSlbQ0gyXW4xW2NIXWMoW0NIM10pW2NIXW4x

> <s_epik_cmdline>
J2VwaWtfcHl0aG9uJywgJy1waCcsICc3LjAnLCAnLXRuJywgJzgnLCAnLW1hJywgJzIwMCcsICctbWV0YWxfYmluZGluZycsICctaW1hZScsICc8aW5maWxlLm1hZT4nLCAnLW9tYWUnLCAnPG91dGZpbGUubWFlPic=

> <r_lp_tautomer_probability>
1

> <r_epik_Ionization_Penalty>
0.112112

> <r_epik_Ionization_Penalty_Charging>
0.112102

> <r_epik_Ionization_Penalty_Neutral>
9.73799e-06

> <r_epik_State_Penalty>
0.101811

> <r_epik_Charging_Adjusted_Penalty>
0.213914

> <i_epik_Tot_Q>
1

> <i_epik_Tot_abs_Q>
1

> <r_epik_Metal_State_Penalty>
0.101821

> <b_epik_Metal_Only>
0

> <s_lp_Force_Field>
OPLS_2005

> <r_lp_Energy>
5.61804

> <b_lp_Chiralities_Consistent>
1

> <s_lp_Variant>
AV-unprocessed.smi:3162-1

> <Gold.Version>
5.8.1

> <Gold.Id.Protein>
6NUR|6NUR_protein|mol2

> <Gold.PLP.Fitness>
42.1867

> <Gold.PLP.PLP>
-29.5039

> <Gold.PLP.part.hbond>
-3.1254

> <Gold.PLP.part.metal>
0.0000

> <Gold.PLP.part.buried>
-4.9998

> <Gold.PLP.part.nonpolar>
-22.0097

> <Gold.PLP.part.repulsive>
1.1811

> <Gold.PLP.ligand.clash>
0.0000

> <Gold.PLP.ligand.torsion>
0.7045

> <Gold.PLP.Chemscore.Hbond>
3.6248

> <Gold.PLP.Chemscore.CHOScore>
1.0000

> <Gold.PLP.Chemscore.Metal>
0.0000

> <Gold.Chemscore.Hbonds>
donor molecule, donor type, donor heavy atom, donor atom, acceptor molecule, acceptor atom, score
      L1  H     4    23       P1  7948  2.00
      L1  H     4    37       P1  7957  0.96
      L1  H    15    36       P1  7957  1.00
      L1  C     9    30       P1  8028  0.78

> <Gold.PLP.Chemscore.Internal.Correction>
0.2174

> <Gold.Rescore>
     Score         DG    S(hbond)    S(metal)    S(lipo)     H(rot)  DE(clash)    DE(int)     intcor
     11.86     -16.05       2.78        0.00      65.81       2.51       1.48       2.72       ----

> <Gold.Chemscore.Fitness>
11.8575

> <Gold.Chemscore.DG>
-16.0515

> <Gold.Chemscore.ZeroCoef>
-5.4800

> <Gold.Chemscore.Hbond>
2.7807

> <Gold.Chemscore.Metal>
0.0000

> <Gold.Chemscore.Lipo>
65.8096

> <Gold.Chemscore.Internal_Hbond>
0.0000

> <Gold.Chemscore.DEClash>
1.4752

> <Gold.Chemscore.DEInternal>
2.7187

> <Gold.Chemscore.Rot>
2.5062

> <Gold.Chemscore.Internal.Correction>
   9.000000E+99

> <Gold.Chemscore.Hbonds>
donor molecule, donor type, donor heavy atom, donor atom, acceptor molecule, acceptor atom, score
      L1  H     4    23       P1  7948  0.99
      L1  H     4    37       P1  7957  0.88
      L1  H    15    36       P1  7957  0.50

> <Gold.Chemscore.Hbond.Weighted>
-9.2876

> <Gold.Chemscore.Metal.Weighted>
-0.0000

> <Gold.Chemscore.Lipo.Weighted>
-7.6997

> <Gold.Chemscore.Internal_Hbond.Weighted>
0.0000

> <Gold.Chemscore.DEClash.Weighted>
1.4752

> <Gold.Chemscore.DEInternal.Weighted>
2.7187

> <Gold.Chemscore.Rot.Weighted>
6.4159

> <Gold.Chemscore.Internal.Correction.Weighted>
   9.000000E+99

> <Gold.Protein.RotatedTorsions>
[ 6907 6896 6895 6894 ] final   75.73 input  -60.11 | X-H torsion
[ 7974 7965 7964 7962 ] final -174.77 input  175.53 | X-H torsion
[ 8008 7997 7996 7995 ] final  166.71 input   59.86 | X-H torsion
[ 10167 10162 10161 10158 ] final -128.52 input  -65.29 | X-H torsion
[ 10718 10713 10712 10709 ] final   85.44 input   66.30 | X-H torsion
[ 10763 10752 10751 10750 ] final  -72.74 input  -60.55 | X-H torsion
[ 11005 11000 10999 10996 ] final   74.47 input  -57.11 | X-H torsion

> <Gold.Protein.ActiveResidues>
 VAL166  LYS551  ARG553  GLY616  TRP617  ASP618  TYR619  PRO620  LYS621  CYS622 
 ASP623  PHE694  ASN695  SER759  ASP760  ASP761  ALA762  ILE779  LEU786  VAL792 
 PHE793  MET794  SER795  GLU796  ALA797  LYS798  CYS799  TRP800  GLU811  SER814 

> <Gold.Protein.RotatedAtoms>
  152.5040  134.4076  159.9437 H   0  0  0  0  0  0  0  0  0  0  0  0  # atno 6907 bound_to 6896
  151.4043  133.3741  159.2744 H   0  0  0  0  0  0  0  0  0  0  0  0  # atno 6908 bound_to 6896
  150.9338  134.8773  159.7628 H   0  0  0  0  0  0  0  0  0  0  0  0  # atno 6909 bound_to 6896
  144.7130  140.1421  143.6391 H   0  0  0  0  0  0  0  0  0  0  0  0  # atno 7974 bound_to 7965
  156.1696  140.1636  156.8471 H   0  0  0  0  0  0  0  0  0  0  0  0  # atno 8008 bound_to 7997
  154.5242  140.0771  156.8263 H   0  0  0  0  0  0  0  0  0  0  0  0  # atno 8009 bound_to 7997
  155.3541  140.3391  155.4242 H   0  0  0  0  0  0  0  0  0  0  0  0  # atno 8010 bound_to 7997
  139.9494  143.6072  152.2480 H   0  0  0  0  0  0  0  0  0  0  0  0  # atno 10167 bound_to 10162
  157.6914  131.0175  150.2823 H   0  0  0  0  0  0  0  0  0  0  0  0  # atno 10718 bound_to 10713
  154.4499  135.5920  153.6185 H   0  0  0  0  0  0  0  0  0  0  0  0  # atno 10763 bound_to 10752
  152.9812  135.6018  154.3617 H   0  0  0  0  0  0  0  0  0  0  0  0  # atno 10764 bound_to 10752
  154.3477  135.2841  155.2367 H   0  0  0  0  0  0  0  0  0  0  0  0  # atno 10765 bound_to 10752
  139.9389  134.7436  156.1152 H   0  0  0  0  0  0  0  0  0  0  0  0  # atno 11005 bound_to 11000
  145.9192  139.2535  143.1391 LP  0  0  0  0  0  0  0  0  0  0  0  0  # atno 17320 bound_to 7965
  145.9637  140.8815  143.0197 LP  0  0  0  0  0  0  0  0  0  0  0  0  # atno 17321 bound_to 7965
  139.6640  144.7662  151.1908 LP  0  0  0  0  0  0  0  0  0  0  0  0  # atno 17342 bound_to 10162
  140.7587  143.5966  150.8742 LP  0  0  0  0  0  0  0  0  0  0  0  0  # atno 17343 bound_to 10162
  156.3368  130.3809  149.7443 LP  0  0  0  0  0  0  0  0  0  0  0  0  # atno 17370 bound_to 10713
  156.4965  130.8109  151.3115 LP  0  0  0  0  0  0  0  0  0  0  0  0  # atno 17371 bound_to 10713
  141.1015  133.6675  156.2766 LP  0  0  0  0  0  0  0  0  0  0  0  0  # atno 17394 bound_to 11000
  140.6003  134.5562  157.5516 LP  0  0  0  0  0  0  0  0  0  0  0  0  # atno 17395 bound_to 11000

$$$$
