AV-unprocessed.smi:1648|AV-procd|sdf|6628|dock9
  -GOLD-   22720 7323D 1   1.00000     0.00000
 Structure written by MMmdl.
 42 42  0  0  0  0  0  0  0  0  2 V2000
  147.0782  139.2804  153.1722 C   0  0  0  0  0  0  0  0  0  0  0  0
  147.4283  138.3483  154.3337 C   0  0  0  0  0  0  0  0  0  0  0  0
  146.9187  138.5391  155.4353 O   0  0  0  0  0  0  0  0  0  0  0  0
  148.2865  137.3336  154.1294 N   0  0  0  0  0  0  0  0  0  0  0  0
  148.7447  136.3401  155.1054 C   0  0  1  0  0  0  0  0  0  0  0  0
  147.9355  135.0427  154.9073 C   0  0  0  0  0  0  0  0  0  0  0  0
  147.3940  134.4895  155.8656 O   0  0  0  0  0  0  0  0  0  0  0  0
  147.8599  134.5764  153.6505 N   0  0  0  0  0  0  0  0  0  0  0  0
  147.2179  133.3312  153.2320 C   0  0  2  0  0  0  0  0  0  0  0  0
  148.0412  132.1546  153.7737 C   0  0  0  0  0  0  0  0  0  0  0  0
  147.0775  133.2508  151.6954 C   0  0  0  0  0  0  0  0  0  0  0  0
  145.8825  133.9323  151.1835 N   0  0  0  0  0  0  0  0  0  0  0  0
  145.7078  135.2814  151.0050 C   0  0  0  0  0  0  0  0  0  0  0  0
  144.4387  135.4507  150.5151 C   0  0  0  0  0  0  0  0  0  0  0  0
  143.8863  134.2011  150.4308 N   0  3  0  0  0  0  0  0  0  0  0  0
  144.7618  133.2805  150.8474 C   0  0  0  0  0  0  0  0  0  0  0  0
  150.2589  136.0620  154.8684 C   0  0  0  0  0  0  0  0  0  0  0  0
  150.8712  135.1356  155.9386 C   0  0  0  0  0  0  0  0  0  0  0  0
  151.0867  137.3616  154.8047 C   0  0  0  0  0  0  0  0  0  0  0  0
  147.9702  139.7728  152.7847 H   0  0  0  0  0  0  0  0  0  0  0  0
  146.3853  140.0561  153.5001 H   0  0  0  0  0  0  0  0  0  0  0  0
  146.6013  138.7276  152.3628 H   0  0  0  0  0  0  0  0  0  0  0  0
  148.6506  137.2302  153.1933 H   0  0  0  0  0  0  0  0  0  0  0  0
  148.6064  136.7200  156.1193 H   0  0  0  0  0  0  0  0  0  0  0  0
  148.3293  135.1046  152.9288 H   0  0  0  0  0  0  0  0  0  0  0  0
  146.2285  133.2624  153.6877 H   0  0  0  0  0  0  0  0  0  0  0  0
  147.5775  131.2007  153.5207 H   0  0  0  0  0  0  0  0  0  0  0  0
  148.1242  132.1998  154.8603 H   0  0  0  0  0  0  0  0  0  0  0  0
  149.0513  132.1523  153.3622 H   0  0  0  0  0  0  0  0  0  0  0  0
  147.9601  133.6623  151.2028 H   0  0  0  0  0  0  0  0  0  0  0  0
  146.9984  132.2096  151.3801 H   0  0  0  0  0  0  0  0  0  0  0  0
  146.4827  136.0016  151.2246 H   0  0  0  0  0  0  0  0  0  0  0  0
  143.9005  136.3432  150.2311 H   0  0  0  0  0  0  0  0  0  0  0  0
  144.5950  132.2192  150.8958 H   0  0  0  0  0  0  0  0  0  0  0  0
  150.3732  135.5646  153.9034 H   0  0  0  0  0  0  0  0  0  0  0  0
  150.7673  135.5641  156.9358 H   0  0  0  0  0  0  0  0  0  0  0  0
  151.9345  134.9762  155.7570 H   0  0  0  0  0  0  0  0  0  0  0  0
  150.4033  134.1531  155.9497 H   0  0  0  0  0  0  0  0  0  0  0  0
  150.9894  137.9370  155.7258 H   0  0  0  0  0  0  0  0  0  0  0  0
  150.7819  138.0031  153.9780 H   0  0  0  0  0  0  0  0  0  0  0  0
  152.1457  137.1458  154.6605 H   0  0  0  0  0  0  0  0  0  0  0  0
  142.9493  134.0006  150.1039 H   0  0  0  0  0  0  0  0  0  0  0  0
  1  2  1  0  0  0  0
  1 20  1  0  0  0  0
  1 21  1  0  0  0  0
  1 22  1  0  0  0  0
  2  3  2  0  0  0  0
  2  4  1  0  0  0  0
  4  5  1  0  0  0  0
  4 23  1  0  0  0  0
  5  6  1  0  0  0  0
  5 17  1  0  0  0  0
  5 24  1  0  0  0  0
  6  7  2  0  0  0  0
  6  8  1  0  0  0  0
  8  9  1  0  0  0  0
  8 25  1  0  0  0  0
  9 10  1  0  0  0  0
  9 11  1  0  0  0  0
  9 26  1  0  0  0  0
 10 27  1  0  0  0  0
 10 28  1  0  0  0  0
 10 29  1  0  0  0  0
 11 12  1  0  0  0  0
 11 30  1  0  0  0  0
 11 31  1  0  0  0  0
 12 16  1  0  0  0  0
 12 13  1  0  0  0  0
 13 14  2  0  0  0  0
 13 32  1  0  0  0  0
 14 15  1  0  0  0  0
 14 33  1  0  0  0  0
 15 16  2  0  0  0  0
 15 42  1  0  0  0  0
 16 34  1  0  0  0  0
 17 18  1  0  0  0  0
 17 19  1  0  0  0  0
 17 35  1  0  0  0  0
 18 36  1  0  0  0  0
 18 37  1  0  0  0  0
 18 38  1  0  0  0  0
 19 39  1  0  0  0  0
 19 40  1  0  0  0  0
 19 41  1  0  0  0  0
M  CHG  1  15   1
M  END
> <s_m_source_file>
AV-unprocessed.smi

> <i_m_source_file_index>
1648

> <i_lp_mmshare_version>
43012

> <i_f3d_flags>
0

> <s_epik_input>
W0NIM11DKD1PKVtOSF1bQ0BASF0oW0NIXShbQ0gzXSlbQ0gzXSlDKD1PKVtOSF1bQ0BIXShbQ0gzXSlbQ0gyXW4xW2NIXVtjSF1uW2NIXTE=

> <s_epik_cmdline>
J2VwaWtfcHl0aG9uJywgJy1waCcsICc3LjAnLCAnLXRuJywgJzgnLCAnLW1hJywgJzIwMCcsICctbWV0YWxfYmluZGluZycsICctaW1hZScsICc8aW5maWxlLm1hZT4nLCAnLW9tYWUnLCAnPG91dGZpbGUubWFlPic=

> <r_lp_tautomer_probability>
1

> <r_epik_Ionization_Penalty>
0.251562

> <r_epik_Ionization_Penalty_Charging>
0

> <r_epik_Ionization_Penalty_Neutral>
0.251562

> <r_epik_State_Penalty>
0.242926

> <r_epik_Charging_Adjusted_Penalty>
0.242926

> <i_epik_Tot_Q>
1

> <i_epik_Tot_abs_Q>
1

> <r_epik_Metal_State_Penalty>
0.53388

> <b_epik_Metal_Only>
0

> <s_lp_Force_Field>
OPLS_2005

> <r_lp_Energy>
11.0591

> <b_lp_Chiralities_Consistent>
1

> <s_lp_Variant>
AV-unprocessed.smi:1648-2

> <Gold.Version>
5.8.1

> <Gold.Id.Protein>
6NUR|6NUR_protein|mol2

> <Gold.PLP.Fitness>
41.3363

> <Gold.PLP.PLP>
-28.5923

> <Gold.PLP.part.hbond>
-3.0000

> <Gold.PLP.part.metal>
0.0000

> <Gold.PLP.part.buried>
-3.1415

> <Gold.PLP.part.nonpolar>
-23.1963

> <Gold.PLP.part.repulsive>
0.0482

> <Gold.PLP.ligand.clash>
0.0000

> <Gold.PLP.ligand.torsion>
1.1602

> <Gold.PLP.Chemscore.Hbond>
3.9920

> <Gold.PLP.Chemscore.CHOScore>
0.9946

> <Gold.PLP.Chemscore.Metal>
0.0000

> <Gold.Chemscore.Hbonds>
donor molecule, donor type, donor heavy atom, donor atom, acceptor molecule, acceptor atom, score
      L1  H     4    23       P1  7948  0.99
      L1  H     8    25       P1  7948  1.00
      L1  H    15    42       P1 10186  1.85
      L1  C    13    32       P1  7948  1.00

> <Gold.PLP.Chemscore.Internal.Correction>
0.1047

> <Gold.Rescore>
     Score         DG    S(hbond)    S(metal)    S(lipo)     H(rot)  DE(clash)    DE(int)     intcor
     13.62     -14.56       2.87        0.00      52.99       2.61       0.04       0.89       ----

> <Gold.Chemscore.Fitness>
13.6203

> <Gold.Chemscore.DG>
-14.5589

> <Gold.Chemscore.ZeroCoef>
-5.4800

> <Gold.Chemscore.Hbond>
2.8653

> <Gold.Chemscore.Metal>
0.0000

> <Gold.Chemscore.Lipo>
52.9853

> <Gold.Chemscore.Internal_Hbond>
0.0000

> <Gold.Chemscore.DEClash>
0.0444

> <Gold.Chemscore.DEInternal>
0.8942

> <Gold.Chemscore.Rot>
2.6135

> <Gold.Chemscore.Internal.Correction>
   9.000000E+99

> <Gold.Chemscore.Hbonds>
donor molecule, donor type, donor heavy atom, donor atom, acceptor molecule, acceptor atom, score
      L1  H     4    23       P1  7948  0.94
      L1  H     8    25       P1  7948  0.88
      L1  H    15    42       P1 10186  0.86

> <Gold.Chemscore.Hbond.Weighted>
-9.5702

> <Gold.Chemscore.Metal.Weighted>
-0.0000

> <Gold.Chemscore.Lipo.Weighted>
-6.1993

> <Gold.Chemscore.Internal_Hbond.Weighted>
0.0000

> <Gold.Chemscore.DEClash.Weighted>
0.0444

> <Gold.Chemscore.DEInternal.Weighted>
0.8942

> <Gold.Chemscore.Rot.Weighted>
6.6906

> <Gold.Chemscore.Internal.Correction.Weighted>
   9.000000E+99

> <Gold.Protein.RotatedTorsions>
[ 6907 6896 6895 6894 ] final   68.32 input  -60.11 | X-H torsion
[ 7974 7965 7964 7962 ] final   12.81 input  175.53 | X-H torsion
[ 8008 7997 7996 7995 ] final   53.04 input   59.86 | X-H torsion
[ 10167 10162 10161 10158 ] final   -8.76 input  -65.29 | X-H torsion
[ 10718 10713 10712 10709 ] final    1.58 input   66.30 | X-H torsion
[ 10763 10752 10751 10750 ] final  171.66 input  -60.55 | X-H torsion
[ 11005 11000 10999 10996 ] final   86.91 input  -57.11 | X-H torsion

> <Gold.Protein.ActiveResidues>
 VAL166  LYS551  ARG553  GLY616  TRP617  ASP618  TYR619  PRO620  LYS621  CYS622 
 ASP623  PHE694  ASN695  SER759  ASP760  ASP761  ALA762  ILE779  LEU786  VAL792 
 PHE793  MET794  SER795  GLU796  ALA797  LYS798  CYS799  TRP800  GLU811  SER814 

> <Gold.Protein.RotatedAtoms>
  152.4612  134.5179  159.9773 H   0  0  0  0  0  0  0  0  0  0  0  0  # atno 6907 bound_to 6896
  151.5228  133.3457  159.2912 H   0  0  0  0  0  0  0  0  0  0  0  0  # atno 6908 bound_to 6896
  150.8576  134.7949  159.7120 H   0  0  0  0  0  0  0  0  0  0  0  0  # atno 6909 bound_to 6896
  146.2343  139.9282  142.8500 H   0  0  0  0  0  0  0  0  0  0  0  0  # atno 7974 bound_to 7965
  155.4617  140.3462  155.4313 H   0  0  0  0  0  0  0  0  0  0  0  0  # atno 8008 bound_to 7997
  156.1156  140.1473  156.9306 H   0  0  0  0  0  0  0  0  0  0  0  0  # atno 8009 bound_to 7997
  154.4787  140.0877  156.7304 H   0  0  0  0  0  0  0  0  0  0  0  0  # atno 8010 bound_to 7997
  140.7068  143.5933  150.8871 H   0  0  0  0  0  0  0  0  0  0  0  0  # atno 10167 bound_to 10162
  156.8503  130.5551  149.5670 H   0  0  0  0  0  0  0  0  0  0  0  0  # atno 10718 bound_to 10713
  154.4150  135.2757  155.2012 H   0  0  0  0  0  0  0  0  0  0  0  0  # atno 10763 bound_to 10752
  154.3982  135.6050  153.5885 H   0  0  0  0  0  0  0  0  0  0  0  0  # atno 10764 bound_to 10752
  152.9832  135.5920  154.4438 H   0  0  0  0  0  0  0  0  0  0  0  0  # atno 10765 bound_to 10752
  139.8932  134.8387  156.2787 H   0  0  0  0  0  0  0  0  0  0  0  0  # atno 11005 bound_to 11000
  145.2070  140.9879  143.4122 LP  0  0  0  0  0  0  0  0  0  0  0  0  # atno 17320 bound_to 7965
  144.9724  139.3866  143.6302 LP  0  0  0  0  0  0  0  0  0  0  0  0  # atno 17321 bound_to 7965
  139.9658  143.6112  152.2988 LP  0  0  0  0  0  0  0  0  0  0  0  0  # atno 17342 bound_to 10162
  139.6681  144.7661  151.1835 LP  0  0  0  0  0  0  0  0  0  0  0  0  # atno 17343 bound_to 10162
  156.0831  130.5837  150.9600 LP  0  0  0  0  0  0  0  0  0  0  0  0  # atno 17370 bound_to 10713
  157.6307  131.0921  150.8447 LP  0  0  0  0  0  0  0  0  0  0  0  0  # atno 17371 bound_to 10713
  141.0053  133.7127  156.1025 LP  0  0  0  0  0  0  0  0  0  0  0  0  # atno 17394 bound_to 11000
  140.7442  134.4117  157.5550 LP  0  0  0  0  0  0  0  0  0  0  0  0  # atno 17395 bound_to 11000

$$$$
