AV-unprocessed.smi:1424|AV-procd|sdf|5801|dock10
  -GOLD-   22720 5453D 1   1.00000     0.00000
 Structure written by MMmdl.
 46 48  0  0  0  0  0  0  0  0  2 V2000
  149.7974  135.2578  155.9951 O   0  0  0  0  0  0  0  0  0  0  0  0
  149.5173  135.6473  154.8617 C   0  0  0  0  0  0  0  0  0  0  0  0
  149.3500  136.9381  154.5418 N   0  0  0  0  0  0  0  0  0  0  0  0
  149.4784  138.0558  155.4717 C   0  0  0  0  0  0  0  0  0  0  0  0
  150.7181  138.9340  155.1828 C   0  0  2  0  0  0  0  0  0  0  0  0
  151.9695  138.1012  154.8216 C   0  0  0  0  0  0  0  0  0  0  0  0
  152.5866  137.5305  156.1055 C   0  0  0  0  0  0  0  0  0  0  0  0
  152.2116  138.7468  157.4247 S   0  0  0  0  0  0  0  0  0  0  0  0
  151.4318  138.0794  158.4780 O   0  0  0  0  0  0  0  0  0  0  0  0
  153.4223  139.5158  157.7498 O   0  0  0  0  0  0  0  0  0  0  0  0
  151.0960  139.7853  156.4055 C   0  0  0  0  0  0  0  0  0  0  0  0
  149.3179  134.8516  153.7975 N   0  0  0  0  0  0  0  0  0  0  0  0
  149.3772  133.4297  153.7376 C   0  0  0  0  0  0  0  0  0  0  0  0
  150.3479  132.7006  154.4723 C   0  0  0  0  0  0  0  0  0  0  0  0
  150.3682  131.2946  154.4098 C   0  0  0  0  0  0  0  0  0  0  0  0
  149.4195  130.6361  153.6096 C   0  0  0  0  0  0  0  0  0  0  0  0
  148.5223  131.3573  152.9068 N   0  3  0  0  0  0  0  0  0  0  0  0
  148.4614  132.7126  152.9129 C   0  0  0  0  0  0  0  0  0  0  0  0
  147.4737  133.3311  152.1125 N   0  0  0  0  0  0  0  0  0  0  0  0
  146.5656  134.3161  152.6890 C   0  0  0  0  0  0  0  0  0  0  0  0
  145.4519  134.4791  151.6583 C   0  0  0  0  0  0  0  0  0  0  0  0
  145.3228  133.0694  151.0897 C   0  0  0  0  0  0  0  0  0  0  0  0
  146.7568  132.5308  151.1247 C   0  0  0  0  0  0  0  0  0  0  0  0
  149.1192  137.1685  153.5864 H   0  0  0  0  0  0  0  0  0  0  0  0
  148.5712  138.6614  155.4357 H   0  0  0  0  0  0  0  0  0  0  0  0
  149.5280  137.6469  156.4811 H   0  0  0  0  0  0  0  0  0  0  0  0
  150.4753  139.5998  154.3538 H   0  0  0  0  0  0  0  0  0  0  0  0
  151.7629  137.3180  154.0923 H   0  0  0  0  0  0  0  0  0  0  0  0
  152.6990  138.7654  154.3567 H   0  0  0  0  0  0  0  0  0  0  0  0
  152.1199  136.5833  156.3763 H   0  0  0  0  0  0  0  0  0  0  0  0
  153.6633  137.3789  156.0280 H   0  0  0  0  0  0  0  0  0  0  0  0
  151.6566  140.6678  156.0963 H   0  0  0  0  0  0  0  0  0  0  0  0
  150.2400  140.1142  156.9951 H   0  0  0  0  0  0  0  0  0  0  0  0
  148.9940  135.3089  152.9581 H   0  0  0  0  0  0  0  0  0  0  0  0
  151.0858  133.1993  155.0822 H   0  0  0  0  0  0  0  0  0  0  0  0
  151.1002  130.7311  154.9698 H   0  0  0  0  0  0  0  0  0  0  0  0
  149.3560  129.5627  153.5037 H   0  0  0  0  0  0  0  0  0  0  0  0
  146.1453  133.9471  153.6254 H   0  0  0  0  0  0  0  0  0  0  0  0
  147.0745  135.2598  152.8878 H   0  0  0  0  0  0  0  0  0  0  0  0
  144.5234  134.8536  152.0902 H   0  0  0  0  0  0  0  0  0  0  0  0
  145.7651  135.1699  150.8740 H   0  0  0  0  0  0  0  0  0  0  0  0
  144.6888  132.4689  151.7435 H   0  0  0  0  0  0  0  0  0  0  0  0
  144.8872  133.0505  150.0904 H   0  0  0  0  0  0  0  0  0  0  0  0
  147.2293  132.6696  150.1521 H   0  0  0  0  0  0  0  0  0  0  0  0
  146.7749  131.4669  151.3654 H   0  0  0  0  0  0  0  0  0  0  0  0
  147.8532  130.8505  152.3272 H   0  0  0  0  0  0  0  0  0  0  0  0
  1  2  2  0  0  0  0
  2  3  1  0  0  0  0
  2 12  1  0  0  0  0
  3  4  1  0  0  0  0
  3 24  1  0  0  0  0
  4  5  1  0  0  0  0
  4 25  1  0  0  0  0
  4 26  1  0  0  0  0
  5 11  1  0  0  0  0
  5  6  1  0  0  0  0
  5 27  1  0  0  0  0
  6  7  1  0  0  0  0
  6 28  1  0  0  0  0
  6 29  1  0  0  0  0
  7  8  1  0  0  0  0
  7 30  1  0  0  0  0
  7 31  1  0  0  0  0
  8  9  2  0  0  0  0
  8 10  2  0  0  0  0
  8 11  1  0  0  0  0
 11 32  1  0  0  0  0
 11 33  1  0  0  0  0
 12 13  1  0  0  0  0
 12 34  1  0  0  0  0
 13 18  1  0  0  0  0
 13 14  2  0  0  0  0
 14 15  1  0  0  0  0
 14 35  1  0  0  0  0
 15 16  2  0  0  0  0
 15 36  1  0  0  0  0
 16 17  1  0  0  0  0
 16 37  1  0  0  0  0
 17 18  2  0  0  0  0
 17 46  1  0  0  0  0
 18 19  1  0  0  0  0
 19 23  1  0  0  0  0
 19 20  1  0  0  0  0
 20 21  1  0  0  0  0
 20 38  1  0  0  0  0
 20 39  1  0  0  0  0
 21 22  1  0  0  0  0
 21 40  1  0  0  0  0
 21 41  1  0  0  0  0
 22 23  1  0  0  0  0
 22 42  1  0  0  0  0
 22 43  1  0  0  0  0
 23 44  1  0  0  0  0
 23 45  1  0  0  0  0
M  CHG  1  17   1
M  END
> <s_m_source_file>
AV-unprocessed.smi

> <i_m_source_file_index>
1424

> <i_lp_mmshare_version>
43012

> <i_f3d_flags>
0

> <s_epik_input>
Tz1TMSg9TylbQ0gyXVtDSDJdW0NASF0oW0NIMl0xKVtDSDJdW05IXUMoPU8pW05IXWMyW2NIXVtjSF1bY0hdbmMyTjNbQ0gyXVtDSDJdW0NIMl1bQ0gyXTM=

> <s_epik_cmdline>
J2VwaWtfcHl0aG9uJywgJy1waCcsICc3LjAnLCAnLXRuJywgJzgnLCAnLW1hJywgJzIwMCcsICctbWV0YWxfYmluZGluZycsICctaW1hZScsICc8aW5maWxlLm1hZT4nLCAnLW9tYWUnLCAnPG91dGZpbGUubWFlPic=

> <r_lp_tautomer_probability>
0.999994

> <r_epik_Ionization_Penalty>
1.12573

> <r_epik_Ionization_Penalty_Charging>
1.12571

> <r_epik_Ionization_Penalty_Neutral>
1.92863e-05

> <r_epik_State_Penalty>
1.18495

> <r_epik_Charging_Adjusted_Penalty>
2.31065

> <i_epik_Tot_Q>
1

> <i_epik_Tot_abs_Q>
1

> <r_epik_Metal_State_Penalty>
1.26881

> <b_epik_Metal_Only>
0

> <s_lp_Force_Field>
OPLS_2005

> <r_lp_Energy>
41.4787

> <b_lp_Chiralities_Consistent>
1

> <s_lp_Variant>
AV-unprocessed.smi:1424-3

> <Gold.Version>
5.8.1

> <Gold.Id.Protein>
6NUR|6NUR_protein|mol2

> <Gold.PLP.Fitness>
40.1686

> <Gold.PLP.PLP>
-32.6520

> <Gold.PLP.part.hbond>
-2.9726

> <Gold.PLP.part.metal>
0.0000

> <Gold.PLP.part.buried>
-1.6753

> <Gold.PLP.part.nonpolar>
-27.8101

> <Gold.PLP.part.repulsive>
0.2104

> <Gold.PLP.ligand.clash>
0.0000

> <Gold.PLP.ligand.torsion>
0.6827

> <Gold.PLP.Chemscore.Hbond>
2.8320

> <Gold.PLP.Chemscore.CHOScore>
0.0000

> <Gold.PLP.Chemscore.Metal>
0.0000

> <Gold.Chemscore.Hbonds>
donor molecule, donor type, donor heavy atom, donor atom, acceptor molecule, acceptor atom, score
      L1  H     3    24       P1  7948  0.75
      L1  H    12    34       P1  7948  0.67
      P1  H  7997  8008       L1    10  0.98

> <Gold.PLP.Chemscore.Internal.Correction>
0.3860

> <Gold.Rescore>
     Score         DG    S(hbond)    S(metal)    S(lipo)     H(rot)  DE(clash)    DE(int)     intcor
     16.45     -18.38       2.63        0.00      67.90       1.50       0.09       1.84       ----

> <Gold.Chemscore.Fitness>
16.4489

> <Gold.Chemscore.DG>
-18.3775

> <Gold.Chemscore.ZeroCoef>
-5.4800

> <Gold.Chemscore.Hbond>
2.6299

> <Gold.Chemscore.Metal>
0.0000

> <Gold.Chemscore.Lipo>
67.8957

> <Gold.Chemscore.Internal_Hbond>
0.0000

> <Gold.Chemscore.DEClash>
0.0875

> <Gold.Chemscore.DEInternal>
1.8411

> <Gold.Chemscore.Rot>
1.4962

> <Gold.Chemscore.Internal.Correction>
   9.000000E+99

> <Gold.Chemscore.Hbonds>
donor molecule, donor type, donor heavy atom, donor atom, acceptor molecule, acceptor atom, score
      L1  H     3    24       P1  7948  0.75
      L1  H    12    34       P1  7948  0.20
      L1  H    17    46       P1 10747  0.02
      P1  H  7997  8008       L1    10  0.89

> <Gold.Chemscore.Hbond.Weighted>
-8.7840

> <Gold.Chemscore.Metal.Weighted>
-0.0000

> <Gold.Chemscore.Lipo.Weighted>
-7.9438

> <Gold.Chemscore.Internal_Hbond.Weighted>
0.0000

> <Gold.Chemscore.DEClash.Weighted>
0.0875

> <Gold.Chemscore.DEInternal.Weighted>
1.8411

> <Gold.Chemscore.Rot.Weighted>
3.8303

> <Gold.Chemscore.Internal.Correction.Weighted>
   9.000000E+99

> <Gold.Protein.RotatedTorsions>
[ 6907 6896 6895 6894 ] final   16.84 input  -60.11 | X-H torsion
[ 7974 7965 7964 7962 ] final -112.56 input  175.53 | X-H torsion
[ 8008 7997 7996 7995 ] final  -96.38 input   59.86 | X-H torsion
[ 10167 10162 10161 10158 ] final -157.14 input  -65.29 | X-H torsion
[ 10718 10713 10712 10709 ] final  145.25 input   66.30 | X-H torsion
[ 10763 10752 10751 10750 ] final  -72.43 input  -60.55 | X-H torsion
[ 11005 11000 10999 10996 ] final   59.95 input  -57.11 | X-H torsion

> <Gold.Protein.ActiveResidues>
 VAL166  LYS551  ARG553  GLY616  TRP617  ASP618  TYR619  PRO620  LYS621  CYS622 
 ASP623  PHE694  ASN695  SER759  ASP760  ASP761  ALA762  ILE779  LEU786  VAL792 
 PHE793  MET794  SER795  GLU796  ALA797  LYS798  CYS799  TRP800  GLU811  SER814 

> <Gold.Protein.RotatedAtoms>
  151.8402  135.0592  160.0446 H   0  0  0  0  0  0  0  0  0  0  0  0  # atno 6907 bound_to 6896
  152.2814  133.5470  159.5509 H   0  0  0  0  0  0  0  0  0  0  0  0  # atno 6908 bound_to 6896
  150.7191  134.0474  159.3829 H   0  0  0  0  0  0  0  0  0  0  0  0  # atno 6909 bound_to 6896
  145.1426  140.8786  143.3693 H   0  0  0  0  0  0  0  0  0  0  0  0  # atno 7974 bound_to 7965
  154.7737  140.0472  157.1072 H   0  0  0  0  0  0  0  0  0  0  0  0  # atno 8008 bound_to 7997
  154.9788  140.3099  155.4936 H   0  0  0  0  0  0  0  0  0  0  0  0  # atno 8009 bound_to 7997
  156.2925  140.2239  156.4886 H   0  0  0  0  0  0  0  0  0  0  0  0  # atno 8010 bound_to 7997
  139.6794  143.9606  152.2328 H   0  0  0  0  0  0  0  0  0  0  0  0  # atno 10167 bound_to 10162
  157.3475  131.0945  151.1029 H   0  0  0  0  0  0  0  0  0  0  0  0  # atno 10718 bound_to 10713
  154.4456  135.5930  153.6157 H   0  0  0  0  0  0  0  0  0  0  0  0  # atno 10763 bound_to 10752
  152.9809  135.6008  154.3669 H   0  0  0  0  0  0  0  0  0  0  0  0  # atno 10764 bound_to 10752
  154.3524  135.2841  155.2344 H   0  0  0  0  0  0  0  0  0  0  0  0  # atno 10765 bound_to 10752
  140.0267  134.6072  155.9563 H   0  0  0  0  0  0  0  0  0  0  0  0  # atno 11005 bound_to 11000
  145.0516  139.3177  143.5925 LP  0  0  0  0  0  0  0  0  0  0  0  0  # atno 17320 bound_to 7965
  146.3503  139.9926  142.8684 LP  0  0  0  0  0  0  0  0  0  0  0  0  # atno 17321 bound_to 7965
  139.9392  144.6692  150.8283 LP  0  0  0  0  0  0  0  0  0  0  0  0  # atno 17342 bound_to 10162
  140.7647  143.3256  151.2524 LP  0  0  0  0  0  0  0  0  0  0  0  0  # atno 17343 bound_to 10162
  157.2217  130.6484  149.5814 LP  0  0  0  0  0  0  0  0  0  0  0  0  # atno 17370 bound_to 10713
  155.9716  130.4627  150.6155 LP  0  0  0  0  0  0  0  0  0  0  0  0  # atno 17371 bound_to 10713
  141.1807  133.6546  156.5007 LP  0  0  0  0  0  0  0  0  0  0  0  0  # atno 17394 bound_to 11000
  140.4295  134.7115  157.4934 LP  0  0  0  0  0  0  0  0  0  0  0  0  # atno 17395 bound_to 11000

$$$$
