AV-unprocessed.smi:840|AV-procd|sdf|3914|dock3
  -GOLD-   22720 1373D 1   1.00000     0.00000
 Structure written by MMmdl.
 36 37  0  0  0  0  0  0  0  0  2 V2000
  149.9281  138.7044  154.2659 C   0  0  0  0  0  0  0  0  0  0  0  0
  151.2435  137.9197  154.4049 C   0  0  1  0  0  0  0  0  0  0  0  0
  152.1211  138.6603  155.3105 N   0  0  0  0  0  0  0  0  0  0  0  0
  151.7709  139.1771  156.4983 C   0  0  0  0  0  0  0  0  0  0  0  0
  150.6191  139.0332  156.9158 O   0  0  0  0  0  0  0  0  0  0  0  0
  152.7755  139.8285  157.1276 N   0  5  0  0  0  0  0  0  0  0  0  0
  152.4959  140.7586  158.0550 C   0  0  0  0  0  0  0  0  0  0  0  0
  153.3288  141.0603  159.0575 N   0  0  0  0  0  0  0  0  0  0  0  0
  152.8425  142.0596  159.9022 C   0  0  0  0  0  0  0  0  0  0  0  0
  151.6140  142.5363  159.5294 C   0  0  0  0  0  0  0  0  0  0  0  0
  151.0284  141.7404  158.0963 S   0  0  0  0  0  0  0  0  0  0  0  0
  150.9214  136.5354  154.9893 C   0  0  0  0  0  0  0  0  0  0  0  0
  151.5340  136.1091  155.9699 O   0  0  0  0  0  0  0  0  0  0  0  0
  149.9450  135.8484  154.3778 N   0  0  0  0  0  0  0  0  0  0  0  0
  149.4893  134.5154  154.7617 C   0  0  0  0  0  0  0  0  0  0  0  0
  149.5542  133.5307  153.5762 C   0  0  0  0  0  0  0  0  0  0  0  0
  148.1044  133.2444  153.1841 C   0  0  0  0  0  0  0  0  0  0  0  0
  147.3285  133.3877  154.4893 C   0  0  0  0  0  0  0  0  0  0  0  0
  148.0161  134.5474  155.2117 C   0  0  0  0  0  0  0  0  0  0  0  0
  149.2336  138.1970  153.5954 H   0  0  0  0  0  0  0  0  0  0  0  0
  150.1105  139.6969  153.8527 H   0  0  0  0  0  0  0  0  0  0  0  0
  149.4280  138.8359  155.2268 H   0  0  0  0  0  0  0  0  0  0  0  0
  151.7137  137.8220  153.4242 H   0  0  0  0  0  0  0  0  0  0  0  0
  153.0717  138.8064  155.0047 H   0  0  0  0  0  0  0  0  0  0  0  0
  153.4394  142.3709  160.7466 H   0  0  0  0  0  0  0  0  0  0  0  0
  151.0218  143.3031  160.0052 H   0  0  0  0  0  0  0  0  0  0  0  0
  149.4995  136.2723  153.5770 H   0  0  0  0  0  0  0  0  0  0  0  0
  150.1085  134.1406  155.5788 H   0  0  0  0  0  0  0  0  0  0  0  0
  150.1371  133.9021  152.7318 H   0  0  0  0  0  0  0  0  0  0  0  0
  150.0274  132.6050  153.9062 H   0  0  0  0  0  0  0  0  0  0  0  0
  147.7626  133.9937  152.4690 H   0  0  0  0  0  0  0  0  0  0  0  0
  147.9795  132.2632  152.7252 H   0  0  0  0  0  0  0  0  0  0  0  0
  146.2646  133.5641  154.3294 H   0  0  0  0  0  0  0  0  0  0  0  0
  147.4314  132.4753  155.0782 H   0  0  0  0  0  0  0  0  0  0  0  0
  147.9144  134.4705  156.2946 H   0  0  0  0  0  0  0  0  0  0  0  0
  147.5415  135.4826  154.9099 H   0  0  0  0  0  0  0  0  0  0  0  0
  1  2  1  0  0  0  0
  1 20  1  0  0  0  0
  1 21  1  0  0  0  0
  1 22  1  0  0  0  0
  2  3  1  0  0  0  0
  2 12  1  0  0  0  0
  2 23  1  0  0  0  0
  3  4  1  0  0  0  0
  3 24  1  0  0  0  0
  4  5  2  0  0  0  0
  4  6  1  0  0  0  0
  6  7  1  0  0  0  0
  7 11  1  0  0  0  0
  7  8  2  0  0  0  0
  8  9  1  0  0  0  0
  9 10  2  0  0  0  0
  9 25  1  0  0  0  0
 10 11  1  0  0  0  0
 10 26  1  0  0  0  0
 12 13  2  0  0  0  0
 12 14  1  0  0  0  0
 14 15  1  0  0  0  0
 14 27  1  0  0  0  0
 15 19  1  0  0  0  0
 15 16  1  0  0  0  0
 15 28  1  0  0  0  0
 16 17  1  0  0  0  0
 16 29  1  0  0  0  0
 16 30  1  0  0  0  0
 17 18  1  0  0  0  0
 17 31  1  0  0  0  0
 17 32  1  0  0  0  0
 18 19  1  0  0  0  0
 18 33  1  0  0  0  0
 18 34  1  0  0  0  0
 19 35  1  0  0  0  0
 19 36  1  0  0  0  0
M  CHG  1   6  -1
M  END
> <s_m_source_file>
AV-unprocessed.smi

> <i_m_source_file_index>
840

> <i_lp_mmshare_version>
43012

> <i_f3d_flags>
0

> <s_epik_input>
W0NIMl0xW0NIMl1bQ0gyXVtDSDJdW0NIXTFbTkhdQyg9TylbQ0BIXShbQ0gzXSlbTkhdQyg9TylbTkhdYzJuW2NIXVtjSF1zMg==

> <s_epik_cmdline>
J2VwaWtfcHl0aG9uJywgJy1waCcsICc3LjAnLCAnLXRuJywgJzgnLCAnLW1hJywgJzIwMCcsICctbWV0YWxfYmluZGluZycsICctaW1hZScsICc8aW5maWxlLm1hZT4nLCAnLW9tYWUnLCAnPG91dGZpbGUubWFlPic=

> <r_lp_tautomer_probability>
1

> <r_epik_Ionization_Penalty>
6.35467

> <r_epik_Ionization_Penalty_Charging>
5.47395

> <r_epik_Ionization_Penalty_Neutral>
0.880717

> <r_epik_State_Penalty>
5.4739

> <r_epik_Charging_Adjusted_Penalty>
10.9479

> <i_epik_Tot_Q>
-1

> <i_epik_Tot_abs_Q>
1

> <r_epik_Metal_State_Penalty>
1.48639

> <b_epik_Metal_Only>
1

> <s_lp_Force_Field>
OPLS_2005

> <r_lp_Energy>
13.1034

> <b_lp_Chiralities_Consistent>
1

> <s_lp_Variant>
AV-unprocessed.smi:840-4

> <Gold.Version>
5.8.1

> <Gold.Id.Protein>
6NUR|6NUR_protein|mol2

> <Gold.PLP.Fitness>
40.4222

> <Gold.PLP.PLP>
-29.6223

> <Gold.PLP.part.hbond>
-3.7349

> <Gold.PLP.part.metal>
0.0000

> <Gold.PLP.part.buried>
-1.1759

> <Gold.PLP.part.nonpolar>
-22.9332

> <Gold.PLP.part.repulsive>
0.2628

> <Gold.PLP.ligand.clash>
0.0000

> <Gold.PLP.ligand.torsion>
0.6118

> <Gold.PLP.Chemscore.Hbond>
4.0000

> <Gold.PLP.Chemscore.CHOScore>
0.0000

> <Gold.PLP.Chemscore.Metal>
0.0000

> <Gold.Chemscore.Hbonds>
donor molecule, donor type, donor heavy atom, donor atom, acceptor molecule, acceptor atom, score
      L1  H    14    27       P1  7948  1.00
      P1  H  7997  8008       L1     6  2.00
      P1  H 10752 10764       L1    13  1.00

> <Gold.PLP.Chemscore.Internal.Correction>
0.0235

> <Gold.Rescore>
     Score         DG    S(hbond)    S(metal)    S(lipo)     H(rot)  DE(clash)    DE(int)     intcor
     12.36     -15.86       2.19        0.00      61.57       1.62       0.33       3.17       ----

> <Gold.Chemscore.Fitness>
12.3638

> <Gold.Chemscore.DG>
-15.8628

> <Gold.Chemscore.ZeroCoef>
-5.4800

> <Gold.Chemscore.Hbond>
2.1936

> <Gold.Chemscore.Metal>
0.0000

> <Gold.Chemscore.Lipo>
61.5741

> <Gold.Chemscore.Internal_Hbond>
0.0000

> <Gold.Chemscore.DEClash>
0.3306

> <Gold.Chemscore.DEInternal>
3.1683

> <Gold.Chemscore.Rot>
1.6204

> <Gold.Chemscore.Internal.Correction>
   9.000000E+99

> <Gold.Chemscore.Hbonds>
donor molecule, donor type, donor heavy atom, donor atom, acceptor molecule, acceptor atom, score
      L1  H    14    27       P1  7948  0.57
      P1  H  7997  8008       L1     6  0.55
      P1  H 10752 10764       L1    13  0.25

> <Gold.Chemscore.Hbond.Weighted>
-7.3267

> <Gold.Chemscore.Metal.Weighted>
-0.0000

> <Gold.Chemscore.Lipo.Weighted>
-7.2042

> <Gold.Chemscore.Internal_Hbond.Weighted>
0.0000

> <Gold.Chemscore.DEClash.Weighted>
0.3306

> <Gold.Chemscore.DEInternal.Weighted>
3.1683

> <Gold.Chemscore.Rot.Weighted>
4.1481

> <Gold.Chemscore.Internal.Correction.Weighted>
   9.000000E+99

> <Gold.Protein.RotatedTorsions>
[ 6907 6896 6895 6894 ] final  126.58 input  -60.11 | X-H torsion
[ 7974 7965 7964 7962 ] final   27.86 input  175.53 | X-H torsion
[ 8008 7997 7996 7995 ] final  -62.39 input   59.86 | X-H torsion
[ 10167 10162 10161 10158 ] final -125.86 input  -65.29 | X-H torsion
[ 10718 10713 10712 10709 ] final  -30.89 input   66.30 | X-H torsion
[ 10763 10752 10751 10750 ] final  -24.96 input  -60.55 | X-H torsion
[ 11005 11000 10999 10996 ] final   40.04 input  -57.11 | X-H torsion

> <Gold.Protein.ActiveResidues>
 VAL166  LYS551  ARG553  GLY616  TRP617  ASP618  TYR619  PRO620  LYS621  CYS622 
 ASP623  PHE694  ASN695  SER759  ASP760  ASP761  ALA762  ILE779  LEU786  VAL792 
 PHE793  MET794  SER795  GLU796  ALA797  LYS798  CYS799  TRP800  GLU811  SER814 

> <Gold.Protein.RotatedAtoms>
  152.3891  133.6653  159.6222 H   0  0  0  0  0  0  0  0  0  0  0  0  # atno 6907 bound_to 6896
  150.7803  133.8985  159.3343 H   0  0  0  0  0  0  0  0  0  0  0  0  # atno 6908 bound_to 6896
  151.6775  135.0968  160.0261 H   0  0  0  0  0  0  0  0  0  0  0  0  # atno 6909 bound_to 6896
  146.1761  139.7134  142.8933 H   0  0  0  0  0  0  0  0  0  0  0  0  # atno 7974 bound_to 7965
  154.4497  140.0997  156.6579 H   0  0  0  0  0  0  0  0  0  0  0  0  # atno 8008 bound_to 7997
  155.5325  140.3481  155.4411 H   0  0  0  0  0  0  0  0  0  0  0  0  # atno 8009 bound_to 7997
  156.0654  140.1336  156.9881 H   0  0  0  0  0  0  0  0  0  0  0  0  # atno 8010 bound_to 7997
  139.9776  143.5777  152.2390 H   0  0  0  0  0  0  0  0  0  0  0  0  # atno 10167 bound_to 10162
  156.3941  130.4378  149.7372 H   0  0  0  0  0  0  0  0  0  0  0  0  # atno 10718 bound_to 10713
  153.6922  135.6961  153.5086 H   0  0  0  0  0  0  0  0  0  0  0  0  # atno 10763 bound_to 10752
  153.2404  135.4308  155.0691 H   0  0  0  0  0  0  0  0  0  0  0  0  # atno 10764 bound_to 10752
  154.8369  135.3506  154.6464 H   0  0  0  0  0  0  0  0  0  0  0  0  # atno 10765 bound_to 10752
  140.1969  134.3918  155.8116 H   0  0  0  0  0  0  0  0  0  0  0  0  # atno 11005 bound_to 11000
  145.4207  141.0406  143.2965 LP  0  0  0  0  0  0  0  0  0  0  0  0  # atno 17320 bound_to 7965
  144.8239  139.5744  143.6974 LP  0  0  0  0  0  0  0  0  0  0  0  0  # atno 17321 bound_to 7965
  139.6433  144.7656  151.2294 LP  0  0  0  0  0  0  0  0  0  0  0  0  # atno 17342 bound_to 10162
  140.7500  143.6280  150.8450 LP  0  0  0  0  0  0  0  0  0  0  0  0  # atno 17343 bound_to 10162
  156.4414  130.7863  151.2884 LP  0  0  0  0  0  0  0  0  0  0  0  0  # atno 17370 bound_to 10713
  157.7500  131.0124  150.3382 LP  0  0  0  0  0  0  0  0  0  0  0  0  # atno 17371 bound_to 10713
  141.2227  133.7074  156.8191 LP  0  0  0  0  0  0  0  0  0  0  0  0  # atno 17394 bound_to 11000
  140.2097  134.8836  157.3261 LP  0  0  0  0  0  0  0  0  0  0  0  0  # atno 17395 bound_to 11000

$$$$
