AV-unprocessed.smi:1578|AV-procd|sdf|6350|dock4
  -GOLD-   22720 6573D 1   1.00000     0.00000
 Structure written by MMmdl.
 44 45  0  0  0  0  0  0  0  0  1 V2000
  145.3651  140.2700  155.4809 C   0  0  0  0  0  0  0  0  0  0  0  0
  145.8180  141.7382  155.5367 C   0  0  2  0  0  0  0  0  0  0  0  0
  144.9695  142.6216  154.5955 C   0  0  0  0  0  0  0  0  0  0  0  0
  143.6055  142.9063  155.0468 N   0  0  0  0  0  0  0  0  0  0  0  0
  143.5501  143.3889  156.4257 C   0  0  0  0  0  0  0  0  0  0  0  0
  142.1164  143.7295  156.8663 C   0  0  0  0  0  0  0  0  0  0  0  0
  141.5510  144.6794  155.9695 O   0  0  0  0  0  0  0  0  0  0  0  0
  141.5328  144.2154  154.6240 C   0  0  0  0  0  0  0  0  0  0  0  0
  142.9677  143.8887  154.1760 C   0  0  0  0  0  0  0  0  0  0  0  0
  147.2232  141.8248  155.1511 N   0  0  0  0  0  0  0  0  0  0  0  0
  148.2442  141.1743  155.7348 C   0  0  0  0  0  0  0  0  0  0  0  0
  148.0853  140.3652  156.6477 O   0  0  0  0  0  0  0  0  0  0  0  0
  149.6695  141.4788  155.2420 C   0  0  0  0  0  0  0  0  0  0  0  0
  150.6604  141.6810  156.3153 N   0  0  0  0  0  0  0  0  0  0  0  0
  150.5947  142.8940  157.0290 C   0  0  0  0  0  0  0  0  0  0  0  0
  151.4189  143.1873  158.0530 C   0  0  0  0  0  0  0  0  0  0  0  0
  151.3535  144.5250  158.7734 C   0  0  0  0  0  0  0  0  0  0  0  0
  150.1878  144.6756  159.4027 F   0  0  0  0  0  0  0  0  0  0  0  0
  152.3325  144.6357  159.6722 F   0  0  0  0  0  0  0  0  0  0  0  0
  151.4829  145.5182  157.8949 F   0  0  0  0  0  0  0  0  0  0  0  0
  152.4248  142.1947  158.3764 C   0  0  0  0  0  0  0  0  0  0  0  0
  152.5066  141.0330  157.6989 C   0  0  0  0  0  0  0  0  0  0  0  0
  151.5861  140.7174  156.6045 C   0  0  0  0  0  0  0  0  0  0  0  0
  151.6382  139.6505  155.9924 O   0  0  0  0  0  0  0  0  0  0  0  0
  144.3214  140.1699  155.7800 H   0  0  0  0  0  0  0  0  0  0  0  0
  145.9557  139.6461  156.1526 H   0  0  0  0  0  0  0  0  0  0  0  0
  145.4637  139.8618  154.4743 H   0  0  0  0  0  0  0  0  0  0  0  0
  145.6914  142.0922  156.5617 H   0  0  0  0  0  0  0  0  0  0  0  0
  145.4966  143.5511  154.3730 H   0  0  0  0  0  0  0  0  0  0  0  0
  144.8950  142.0992  153.6407 H   0  0  0  0  0  0  0  0  0  0  0  0
  143.9419  142.6336  157.1053 H   0  0  0  0  0  0  0  0  0  0  0  0
  144.1817  144.2719  156.5351 H   0  0  0  0  0  0  0  0  0  0  0  0
  141.4975  142.8314  156.8935 H   0  0  0  0  0  0  0  0  0  0  0  0
  142.1199  144.1469  157.8734 H   0  0  0  0  0  0  0  0  0  0  0  0
  140.8911  143.3366  154.5419 H   0  0  0  0  0  0  0  0  0  0  0  0
  141.1027  144.9877  153.9864 H   0  0  0  0  0  0  0  0  0  0  0  0
  143.5562  144.8075  154.1625 H   0  0  0  0  0  0  0  0  0  0  0  0
  142.9471  143.5171  153.1509 H   0  0  0  0  0  0  0  0  0  0  0  0
  147.4442  142.4676  154.4046 H   0  0  0  0  0  0  0  0  0  0  0  0
  149.9886  140.6712  154.5807 H   0  0  0  0  0  0  0  0  0  0  0  0
  149.6217  142.3608  154.6022 H   0  0  0  0  0  0  0  0  0  0  0  0
  149.8227  143.5712  156.6930 H   0  0  0  0  0  0  0  0  0  0  0  0
  153.1227  142.3829  159.1788 H   0  0  0  0  0  0  0  0  0  0  0  0
  153.2671  140.3150  157.9689 H   0  0  0  0  0  0  0  0  0  0  0  0
  1  2  1  0  0  0  0
  1 25  1  0  0  0  0
  1 26  1  0  0  0  0
  1 27  1  0  0  0  0
  2  3  1  0  0  0  0
  2 10  1  0  0  0  0
  2 28  1  0  0  0  0
  3  4  1  0  0  0  0
  3 29  1  0  0  0  0
  3 30  1  0  0  0  0
  4  9  1  0  0  0  0
  4  5  1  0  0  0  0
  5  6  1  0  0  0  0
  5 31  1  0  0  0  0
  5 32  1  0  0  0  0
  6  7  1  0  0  0  0
  6 33  1  0  0  0  0
  6 34  1  0  0  0  0
  7  8  1  0  0  0  0
  8  9  1  0  0  0  0
  8 35  1  0  0  0  0
  8 36  1  0  0  0  0
  9 37  1  0  0  0  0
  9 38  1  0  0  0  0
 10 11  1  0  0  0  0
 10 39  1  0  0  0  0
 11 12  2  0  0  0  0
 11 13  1  0  0  0  0
 13 14  1  0  0  0  0
 13 40  1  0  0  0  0
 13 41  1  0  0  0  0
 14 23  1  0  0  0  0
 14 15  1  0  0  0  0
 15 16  2  0  0  0  0
 15 42  1  0  0  0  0
 16 17  1  0  0  0  0
 16 21  1  0  0  0  0
 17 18  1  0  0  0  0
 17 19  1  0  0  0  0
 17 20  1  0  0  0  0
 21 22  2  0  0  0  0
 21 43  1  0  0  0  0
 22 23  1  0  0  0  0
 22 44  1  0  0  0  0
 23 24  2  0  0  0  0
M  END
> <s_m_source_file>
AV-unprocessed.smi

> <i_m_source_file_index>
1578

> <i_lp_mmshare_version>
43012

> <i_f3d_flags>
0

> <s_epik_input>
W0NIMl0xW0NIMl1PW0NIMl1bQ0gyXU4xW0NIMl1bQ0BASF0oW0NIM10pW05IXUMoPU8pW0NIMl1uMltjSF1jKEMoRikoRilGKVtjSF1bY0hdYzI9Tw==

> <s_epik_cmdline>
J2VwaWtfcHl0aG9uJywgJy1waCcsICc3LjAnLCAnLXRuJywgJzgnLCAnLW1hJywgJzIwMCcsICctbWV0YWxfYmluZGluZycsICctaW1hZScsICc8aW5maWxlLm1hZT4nLCAnLW9tYWUnLCAnPG91dGZpbGUubWFlPic=

> <r_lp_tautomer_probability>
1

> <r_epik_Ionization_Penalty>
0.237382

> <r_epik_Ionization_Penalty_Charging>
1.80451e-08

> <r_epik_Ionization_Penalty_Neutral>
0.237382

> <r_epik_State_Penalty>
0.228245

> <r_epik_Charging_Adjusted_Penalty>
0.228245

> <i_epik_Tot_Q>
0

> <i_epik_Tot_abs_Q>
0

> <r_epik_Metal_State_Penalty>
0.228219

> <b_epik_Metal_Only>
0

> <s_lp_Force_Field>
OPLS_2005

> <r_lp_Energy>
37.3685

> <b_lp_Chiralities_Consistent>
1

> <s_lp_Variant>
AV-unprocessed.smi:1578-1

> <Gold.Version>
5.8.1

> <Gold.Id.Protein>
6NUR|6NUR_protein|mol2

> <Gold.PLP.Fitness>
49.3208

> <Gold.PLP.PLP>
-47.2698

> <Gold.PLP.part.hbond>
-1.0000

> <Gold.PLP.part.metal>
0.0000

> <Gold.PLP.part.buried>
-7.4642

> <Gold.PLP.part.nonpolar>
-40.0048

> <Gold.PLP.part.repulsive>
0.2917

> <Gold.PLP.ligand.clash>
0.0000

> <Gold.PLP.ligand.torsion>
0.5442

> <Gold.PLP.Chemscore.Hbond>
0.0000

> <Gold.PLP.Chemscore.CHOScore>
1.0000

> <Gold.PLP.Chemscore.Metal>
0.0000

> <Gold.Chemscore.Hbonds>
donor molecule, donor type, donor heavy atom, donor atom, acceptor molecule, acceptor atom, score
      L1  C    15    42       P1  8028  0.42

> <Gold.PLP.Chemscore.Internal.Correction>
0.1394

> <Gold.Rescore>
     Score         DG    S(hbond)    S(metal)    S(lipo)     H(rot)  DE(clash)    DE(int)     intcor
      9.92     -10.33       0.00        0.00      87.25       2.09       0.20       0.21       ----

> <Gold.Chemscore.Fitness>
9.9206

> <Gold.Chemscore.DG>
-10.3313

> <Gold.Chemscore.ZeroCoef>
-5.4800

> <Gold.Chemscore.Hbond>
0.0000

> <Gold.Chemscore.Metal>
0.0000

> <Gold.Chemscore.Lipo>
87.2477

> <Gold.Chemscore.Internal_Hbond>
0.0000

> <Gold.Chemscore.DEClash>
0.2022

> <Gold.Chemscore.DEInternal>
0.2086

> <Gold.Chemscore.Rot>
2.0924

> <Gold.Chemscore.Internal.Correction>
   9.000000E+99

> <Gold.Chemscore.Hbond.Weighted>
-0.0000

> <Gold.Chemscore.Metal.Weighted>
-0.0000

> <Gold.Chemscore.Lipo.Weighted>
-10.2080

> <Gold.Chemscore.Internal_Hbond.Weighted>
0.0000

> <Gold.Chemscore.DEClash.Weighted>
0.2022

> <Gold.Chemscore.DEInternal.Weighted>
0.2086

> <Gold.Chemscore.Rot.Weighted>
5.3566

> <Gold.Chemscore.Internal.Correction.Weighted>
   9.000000E+99

> <Gold.Protein.RotatedTorsions>
[ 6907 6896 6895 6894 ] final  155.73 input  -60.11 | X-H torsion
[ 7974 7965 7964 7962 ] final  167.06 input  175.53 | X-H torsion
[ 8008 7997 7996 7995 ] final   -7.88 input   59.86 | X-H torsion
[ 10167 10162 10161 10158 ] final  -39.78 input  -65.29 | X-H torsion
[ 10718 10713 10712 10709 ] final  106.39 input   66.30 | X-H torsion
[ 10763 10752 10751 10750 ] final -160.43 input  -60.55 | X-H torsion
[ 11005 11000 10999 10996 ] final   94.34 input  -57.11 | X-H torsion

> <Gold.Protein.ActiveResidues>
 VAL166  LYS551  ARG553  GLY616  TRP617  ASP618  TYR619  PRO620  LYS621  CYS622 
 ASP623  PHE694  ASN695  SER759  ASP760  ASP761  ALA762  ILE779  LEU786  VAL792 
 PHE793  MET794  SER795  GLU796  ALA797  LYS798  CYS799  TRP800  GLU811  SER814 

> <Gold.Protein.RotatedAtoms>
  152.0399  133.3973  159.4332 H   0  0  0  0  0  0  0  0  0  0  0  0  # atno 6907 bound_to 6896
  150.6876  134.3426  159.4884 H   0  0  0  0  0  0  0  0  0  0  0  0  # atno 6908 bound_to 6896
  152.1223  134.9196  160.0613 H   0  0  0  0  0  0  0  0  0  0  0  0  # atno 6909 bound_to 6896
  144.7438  139.8706  143.6388 H   0  0  0  0  0  0  0  0  0  0  0  0  # atno 7974 bound_to 7965
  154.5795  140.2395  155.8075 H   0  0  0  0  0  0  0  0  0  0  0  0  # atno 8008 bound_to 7997
  156.2168  140.3010  155.9815 H   0  0  0  0  0  0  0  0  0  0  0  0  # atno 8009 bound_to 7997
  155.2567  140.0413  157.2983 H   0  0  0  0  0  0  0  0  0  0  0  0  # atno 8010 bound_to 7997
  140.7054  143.3193  151.2831 H   0  0  0  0  0  0  0  0  0  0  0  0  # atno 10167 bound_to 10162
  157.6670  131.0849  150.5999 H   0  0  0  0  0  0  0  0  0  0  0  0  # atno 10718 bound_to 10713
  154.7391  135.3064  154.8760 H   0  0  0  0  0  0  0  0  0  0  0  0  # atno 10763 bound_to 10752
  153.9580  135.6756  153.4749 H   0  0  0  0  0  0  0  0  0  0  0  0  # atno 10764 bound_to 10752
  153.0991  135.4921  154.8757 H   0  0  0  0  0  0  0  0  0  0  0  0  # atno 10765 bound_to 10752
  139.8800  134.8840  156.3849 H   0  0  0  0  0  0  0  0  0  0  0  0  # atno 11005 bound_to 11000
  146.1283  139.4313  143.0185 LP  0  0  0  0  0  0  0  0  0  0  0  0  # atno 17320 bound_to 7965
  145.7202  141.0077  143.1407 LP  0  0  0  0  0  0  0  0  0  0  0  0  # atno 17321 bound_to 7965
  139.6642  144.0135  152.2712 LP  0  0  0  0  0  0  0  0  0  0  0  0  # atno 17342 bound_to 10162
  139.9712  144.6492  150.7987 LP  0  0  0  0  0  0  0  0  0  0  0  0  # atno 17343 bound_to 10162
  156.6300  130.4429  149.5790 LP  0  0  0  0  0  0  0  0  0  0  0  0  # atno 17370 bound_to 10713
  156.2289  130.6783  151.1444 LP  0  0  0  0  0  0  0  0  0  0  0  0  # atno 17371 bound_to 10713
  140.9373  133.7538  156.0101 LP  0  0  0  0  0  0  0  0  0  0  0  0  # atno 17394 bound_to 11000
  140.8261  134.3233  157.5365 LP  0  0  0  0  0  0  0  0  0  0  0  0  # atno 17395 bound_to 11000

$$$$
