AV-unprocessed.smi:2710|AV-procd|sdf|10465|dock5
  -GOLD-   2272014503D 1   1.00000     0.00000
 Structure written by MMmdl.
 53 54  0  0  0  0  0  0  0  0  2 V2000
  148.9138  142.1072  158.1144 C   0  0  0  0  0  0  0  0  0  0  0  0
  148.1633  141.5502  156.8953 C   0  0  0  0  0  0  0  0  0  0  0  0
  148.7970  141.9294  155.5983 N   0  3  1  0  0  0  0  0  0  0  0  0
  150.2333  141.5466  155.4896 C   0  0  0  0  0  0  0  0  0  0  0  0
  150.4149  140.0288  155.2880 C   0  0  0  0  0  0  0  0  0  0  0  0
  149.6144  139.5218  154.0748 C   0  0  1  0  0  0  0  0  0  0  0  0
  149.6788  138.0640  154.0070 N   0  0  0  0  0  0  0  0  0  0  0  0
  149.6291  137.2276  155.0540 C   0  0  0  0  0  0  0  0  0  0  0  0
  149.5224  137.6009  156.2217 O   0  0  0  0  0  0  0  0  0  0  0  0
  149.6888  135.9463  154.6537 N   0  0  0  0  0  0  0  0  0  0  0  0
  149.6760  134.7773  155.4599 C   0  0  0  0  0  0  0  0  0  0  0  0
  149.5872  133.5145  154.8405 C   0  0  0  0  0  0  0  0  0  0  0  0
  149.5806  132.3680  155.5523 N   0  0  0  0  0  0  0  0  0  0  0  0
  149.6675  132.4658  156.8853 C   0  0  0  0  0  0  0  0  0  0  0  0
  149.6852  131.1407  157.6688 C   0  0  0  0  0  0  0  0  0  0  0  0
  150.9997  130.9507  158.4652 C   0  0  0  0  0  0  0  0  0  0  0  0
  149.5553  129.9560  156.6907 C   0  0  0  0  0  0  0  0  0  0  0  0
  148.5326  131.1219  158.6948 C   0  0  0  0  0  0  0  0  0  0  0  0
  149.7874  133.6105  157.5708 N   0  0  0  0  0  0  0  0  0  0  0  0
  149.7884  134.7648  156.8705 C   0  0  0  0  0  0  0  0  0  0  0  0
  148.1469  139.9772  154.1652 C   0  0  0  0  0  0  0  0  0  0  0  0
  148.0517  141.5026  154.3751 C   0  0  1  0  0  0  0  0  0  0  0  0
  146.6024  142.0183  154.3224 C   0  0  0  0  0  0  0  0  0  0  0  0
  148.3464  141.9228  159.0267 H   0  0  0  0  0  0  0  0  0  0  0  0
  149.0585  143.1846  158.0307 H   0  0  0  0  0  0  0  0  0  0  0  0
  149.8894  141.6412  158.2487 H   0  0  0  0  0  0  0  0  0  0  0  0
  148.0596  140.4688  156.9791 H   0  0  0  0  0  0  0  0  0  0  0  0
  147.1546  141.9545  156.9480 H   0  0  0  0  0  0  0  0  0  0  0  0
  150.6638  142.0736  154.6371 H   0  0  0  0  0  0  0  0  0  0  0  0
  150.8013  141.8862  156.3542 H   0  0  0  0  0  0  0  0  0  0  0  0
  151.4734  139.8037  155.1505 H   0  0  0  0  0  0  0  0  0  0  0  0
  150.1096  139.4953  156.1886 H   0  0  0  0  0  0  0  0  0  0  0  0
  150.0462  139.9655  153.1758 H   0  0  0  0  0  0  0  0  0  0  0  0
  149.7635  137.6578  153.0866 H   0  0  0  0  0  0  0  0  0  0  0  0
  149.6865  135.7867  153.6569 H   0  0  0  0  0  0  0  0  0  0  0  0
  149.5162  133.4199  153.7666 H   0  0  0  0  0  0  0  0  0  0  0  0
  150.9917  130.0155  159.0264 H   0  0  0  0  0  0  0  0  0  0  0  0
  151.1546  131.7562  159.1845 H   0  0  0  0  0  0  0  0  0  0  0  0
  151.8699  130.9194  157.8081 H   0  0  0  0  0  0  0  0  0  0  0  0
  150.3671  129.9533  155.9625 H   0  0  0  0  0  0  0  0  0  0  0  0
  148.6167  129.9939  156.1366 H   0  0  0  0  0  0  0  0  0  0  0  0
  149.5808  129.0013  157.2170 H   0  0  0  0  0  0  0  0  0  0  0  0
  148.5397  130.2043  159.2842 H   0  0  0  0  0  0  0  0  0  0  0  0
  147.5576  131.1834  158.2107 H   0  0  0  0  0  0  0  0  0  0  0  0
  148.6082  131.9596  159.3892 H   0  0  0  0  0  0  0  0  0  0  0  0
  149.9021  135.6655  157.4536 H   0  0  0  0  0  0  0  0  0  0  0  0
  147.6246  139.6980  153.2490 H   0  0  0  0  0  0  0  0  0  0  0  0
  147.6379  139.4551  154.9768 H   0  0  0  0  0  0  0  0  0  0  0  0
  148.5610  141.9778  153.5349 H   0  0  0  0  0  0  0  0  0  0  0  0
  146.1828  141.8753  153.3261 H   0  0  0  0  0  0  0  0  0  0  0  0
  146.5521  143.0840  154.5472 H   0  0  0  0  0  0  0  0  0  0  0  0
  145.9493  141.4902  155.0171 H   0  0  0  0  0  0  0  0  0  0  0  0
  148.7789  142.9392  155.5839 H   0  0  0  0  0  0  0  0  0  0  0  0
  1  2  1  0  0  0  0
  1 24  1  0  0  0  0
  1 25  1  0  0  0  0
  1 26  1  0  0  0  0
  2  3  1  0  0  0  0
  2 27  1  0  0  0  0
  2 28  1  0  0  0  0
  3 22  1  0  0  0  0
  3  4  1  0  0  0  0
  3 53  1  0  0  0  0
  4  5  1  0  0  0  0
  4 29  1  0  0  0  0
  4 30  1  0  0  0  0
  5  6  1  0  0  0  0
  5 31  1  0  0  0  0
  5 32  1  0  0  0  0
  6  7  1  0  0  0  0
  6 21  1  0  0  0  0
  6 33  1  0  0  0  0
  7  8  1  0  0  0  0
  7 34  1  0  0  0  0
  8  9  2  0  0  0  0
  8 10  1  0  0  0  0
 10 11  1  0  0  0  0
 10 35  1  0  0  0  0
 11 20  1  0  0  0  0
 11 12  2  0  0  0  0
 12 13  1  0  0  0  0
 12 36  1  0  0  0  0
 13 14  2  0  0  0  0
 14 15  1  0  0  0  0
 14 19  1  0  0  0  0
 15 16  1  0  0  0  0
 15 17  1  0  0  0  0
 15 18  1  0  0  0  0
 16 37  1  0  0  0  0
 16 38  1  0  0  0  0
 16 39  1  0  0  0  0
 17 40  1  0  0  0  0
 17 41  1  0  0  0  0
 17 42  1  0  0  0  0
 18 43  1  0  0  0  0
 18 44  1  0  0  0  0
 18 45  1  0  0  0  0
 19 20  2  0  0  0  0
 20 46  1  0  0  0  0
 21 22  1  0  0  0  0
 21 47  1  0  0  0  0
 21 48  1  0  0  0  0
 22 23  1  0  0  0  0
 22 49  1  0  0  0  0
 23 50  1  0  0  0  0
 23 51  1  0  0  0  0
 23 52  1  0  0  0  0
M  CHG  1   3   1
M  END
> <s_m_source_file>
AV-unprocessed.smi

> <i_m_source_file_index>
2710

> <i_lp_mmshare_version>
43012

> <i_f3d_flags>
0

> <s_epik_input>
W0NIM11bQ0gyXU4xW0NIMl1bQ0gyXVtDQEhdKFtDSDJdW0NASF0xW0NIM10pW05IXUMoPU8pW05IXWMyW2NIXW5jKEMoW0NIM10pKFtDSDNdKVtDSDNdKW5bY0hdMg==

> <s_epik_cmdline>
J2VwaWtfcHl0aG9uJywgJy1waCcsICc3LjAnLCAnLXRuJywgJzgnLCAnLW1hJywgJzIwMCcsICctbWV0YWxfYmluZGluZycsICctaW1hZScsICc8aW5maWxlLm1hZT4nLCAnLW9tYWUnLCAnPG91dGZpbGUubWFlPic=

> <r_lp_tautomer_probability>
1

> <r_epik_Ionization_Penalty>
0.00396003

> <r_epik_Ionization_Penalty_Charging>
0.0039379

> <r_epik_Ionization_Penalty_Neutral>
2.21316e-05

> <r_epik_State_Penalty>
0.00281651

> <r_epik_Charging_Adjusted_Penalty>
0.00675441

> <i_epik_Tot_Q>
1

> <i_epik_Tot_abs_Q>
1

> <r_epik_Metal_State_Penalty>
-0

> <b_epik_Metal_Only>
0

> <s_lp_Force_Field>
OPLS_2005

> <r_lp_Energy>
21.9784

> <b_lp_Chiralities_Consistent>
1

> <s_lp_Variant>
AV-unprocessed.smi:2710-2

> <Gold.Version>
5.8.1

> <Gold.Id.Protein>
6NUR|6NUR_protein|mol2

> <Gold.PLP.Fitness>
43.3129

> <Gold.PLP.PLP>
-29.2708

> <Gold.PLP.part.hbond>
-4.0000

> <Gold.PLP.part.metal>
0.0000

> <Gold.PLP.part.buried>
-3.6282

> <Gold.PLP.part.nonpolar>
-22.7981

> <Gold.PLP.part.repulsive>
0.2066

> <Gold.PLP.ligand.clash>
0.0000

> <Gold.PLP.ligand.torsion>
0.3456

> <Gold.PLP.Chemscore.Hbond>
4.8960

> <Gold.PLP.Chemscore.CHOScore>
0.0000

> <Gold.PLP.Chemscore.Metal>
0.0000

> <Gold.Chemscore.Hbonds>
donor molecule, donor type, donor heavy atom, donor atom, acceptor molecule, acceptor atom, score
      L1  H     3    53       P1  8028  2.00
      L1  H     7    34       P1  7948  0.88
      L1  H    10    35       P1  7948  0.90
      P1  H  6896  6907       L1    19  1.00

> <Gold.PLP.Chemscore.Internal.Correction>
0.0452

> <Gold.Rescore>
     Score         DG    S(hbond)    S(metal)    S(lipo)     H(rot)  DE(clash)    DE(int)     intcor
     19.46     -22.46       3.80        0.00      65.33       1.31       0.07       2.93       ----

> <Gold.Chemscore.Fitness>
19.4579

> <Gold.Chemscore.DG>
-22.4641

> <Gold.Chemscore.ZeroCoef>
-5.4800

> <Gold.Chemscore.Hbond>
3.7993

> <Gold.Chemscore.Metal>
0.0000

> <Gold.Chemscore.Lipo>
65.3266

> <Gold.Chemscore.Internal_Hbond>
0.0000

> <Gold.Chemscore.DEClash>
0.0727

> <Gold.Chemscore.DEInternal>
2.9335

> <Gold.Chemscore.Rot>
1.3081

> <Gold.Chemscore.Internal.Correction>
   9.000000E+99

> <Gold.Chemscore.Hbonds>
donor molecule, donor type, donor heavy atom, donor atom, acceptor molecule, acceptor atom, score
      L1  H     3    53       P1  8028  1.00
      L1  H     7    34       P1  7948  0.50
      L1  H    10    35       P1  7948  0.17
      P1  H  6896  6907       L1    19  0.81

> <Gold.Chemscore.Hbond.Weighted>
-12.6897

> <Gold.Chemscore.Metal.Weighted>
-0.0000

> <Gold.Chemscore.Lipo.Weighted>
-7.6432

> <Gold.Chemscore.Internal_Hbond.Weighted>
0.0000

> <Gold.Chemscore.DEClash.Weighted>
0.0727

> <Gold.Chemscore.DEInternal.Weighted>
2.9335

> <Gold.Chemscore.Rot.Weighted>
3.3488

> <Gold.Chemscore.Internal.Correction.Weighted>
   9.000000E+99

> <Gold.Protein.RotatedTorsions>
[ 6907 6896 6895 6894 ] final -126.68 input  -60.11 | X-H torsion
[ 7974 7965 7964 7962 ] final -170.98 input  175.53 | X-H torsion
[ 8008 7997 7996 7995 ] final -100.28 input   59.86 | X-H torsion
[ 10167 10162 10161 10158 ] final   71.75 input  -65.29 | X-H torsion
[ 10718 10713 10712 10709 ] final  178.43 input   66.30 | X-H torsion
[ 10763 10752 10751 10750 ] final  -70.50 input  -60.55 | X-H torsion
[ 11005 11000 10999 10996 ] final -113.83 input  -57.11 | X-H torsion

> <Gold.Protein.ActiveResidues>
 VAL166  LYS551  ARG553  GLY616  TRP617  ASP618  TYR619  PRO620  LYS621  CYS622 
 ASP623  PHE694  ASN695  SER759  ASP760  ASP761  ALA762  ILE779  LEU786  VAL792 
 PHE793  MET794  SER795  GLU796  ALA797  LYS798  CYS799  TRP800  GLU811  SER814 

> <Gold.Protein.RotatedAtoms>
  150.8994  133.7138  159.2882 H   0  0  0  0  0  0  0  0  0  0  0  0  # atno 6907 bound_to 6896
  151.4661  135.1041  159.9748 H   0  0  0  0  0  0  0  0  0  0  0  0  # atno 6908 bound_to 6896
  152.4868  133.8345  159.7176 H   0  0  0  0  0  0  0  0  0  0  0  0  # atno 6909 bound_to 6896
  144.7163  140.1990  143.6340 H   0  0  0  0  0  0  0  0  0  0  0  0  # atno 7974 bound_to 7965
  154.8265  140.0442  157.1447 H   0  0  0  0  0  0  0  0  0  0  0  0  # atno 8008 bound_to 7997
  154.9201  140.3025  155.5201 H   0  0  0  0  0  0  0  0  0  0  0  0  # atno 8009 bound_to 7997
  156.2984  140.2342  156.4250 H   0  0  0  0  0  0  0  0  0  0  0  0  # atno 8010 bound_to 7997
  140.0427  144.5376  150.7422 H   0  0  0  0  0  0  0  0  0  0  0  0  # atno 10167 bound_to 10162
  156.8906  130.9846  151.3050 H   0  0  0  0  0  0  0  0  0  0  0  0  # atno 10718 bound_to 10713
  154.4185  135.5992  153.5995 H   0  0  0  0  0  0  0  0  0  0  0  0  # atno 10763 bound_to 10752
  152.9793  135.5946  154.3984 H   0  0  0  0  0  0  0  0  0  0  0  0  # atno 10764 bound_to 10752
  154.3806  135.2841  155.2192 H   0  0  0  0  0  0  0  0  0  0  0  0  # atno 10765 bound_to 10752
  141.0590  133.9566  157.2702 H   0  0  0  0  0  0  0  0  0  0  0  0  # atno 11005 bound_to 11000
  145.8697  139.2265  143.1668 LP  0  0  0  0  0  0  0  0  0  0  0  0  # atno 17320 bound_to 7965
  146.0096  140.8447  142.9977 LP  0  0  0  0  0  0  0  0  0  0  0  0  # atno 17321 bound_to 7965
  140.7253  143.2629  151.4143 LP  0  0  0  0  0  0  0  0  0  0  0  0  # atno 17342 bound_to 10162
  139.6003  144.1309  152.2190 LP  0  0  0  0  0  0  0  0  0  0  0  0  # atno 17343 bound_to 10162
  157.6086  130.8566  149.8915 LP  0  0  0  0  0  0  0  0  0  0  0  0  # atno 17370 bound_to 10713
  156.0631  130.3696  150.0938 LP  0  0  0  0  0  0  0  0  0  0  0  0  # atno 17371 bound_to 10713
  139.9415  135.0190  156.8723 LP  0  0  0  0  0  0  0  0  0  0  0  0  # atno 17394 bound_to 11000
  140.5907  134.0264  155.7498 LP  0  0  0  0  0  0  0  0  0  0  0  0  # atno 17395 bound_to 11000

$$$$
