AV-unprocessed.smi:2614|AV-procd|sdf|10214|dock4
  -GOLD-   2272014223D 1   1.00000     0.00000
 Structure written by MMmdl.
 24 25  0  0  0  0  0  0  0  0  2 V2000
  154.7583  139.9200  160.4754 C   0  0  0  0  0  0  0  0  0  0  0  0
  153.8935  141.1298  160.3743 C   0  0  0  0  0  0  0  0  0  0  0  0
  153.6881  141.9858  161.4172 N   0  0  0  0  0  0  0  0  0  0  0  0
  152.8732  142.8643  160.8437 C   0  0  0  0  0  0  0  0  0  0  0  0
  152.2963  144.0572  161.5331 C   0  0  0  0  0  0  0  0  0  0  0  0
  152.6111  142.5730  159.5620 N   0  0  0  0  0  0  0  0  0  0  0  0
  151.7809  143.2471  158.6030 C   0  0  0  0  0  0  0  0  0  0  0  0
  152.1256  144.6351  158.0577 C   0  0  0  0  0  0  0  0  0  0  0  0
  150.6939  144.9003  158.0023 N   0  3  0  0  0  0  0  0  0  0  0  0
  150.4687  143.8970  159.0360 C   0  0  0  0  0  0  0  0  0  0  0  0
  153.2677  141.4336  159.2396 N   0  0  0  0  0  0  0  0  0  0  0  0
  155.2502  139.8767  161.4477 H   0  0  0  0  0  0  0  0  0  0  0  0
  155.5263  139.9377  159.7017 H   0  0  0  0  0  0  0  0  0  0  0  0
  154.1597  139.0174  160.3506 H   0  0  0  0  0  0  0  0  0  0  0  0
  152.6407  144.1036  162.5667 H   0  0  0  0  0  0  0  0  0  0  0  0
  151.2075  144.0013  161.5331 H   0  0  0  0  0  0  0  0  0  0  0  0
  152.6032  144.9709  161.0243 H   0  0  0  0  0  0  0  0  0  0  0  0
  151.6178  142.5431  157.7838 H   0  0  0  0  0  0  0  0  0  0  0  0
  152.6287  145.2878  158.7741 H   0  0  0  0  0  0  0  0  0  0  0  0
  152.6161  144.6381  157.0839 H   0  0  0  0  0  0  0  0  0  0  0  0
  150.4388  145.8385  158.2765 H   0  0  0  0  0  0  0  0  0  0  0  0
  149.5785  143.2873  158.8784 H   0  0  0  0  0  0  0  0  0  0  0  0
  150.5036  144.3240  160.0403 H   0  0  0  0  0  0  0  0  0  0  0  0
  150.2999  144.6157  157.1169 H   0  0  0  0  0  0  0  0  0  0  0  0
  1  2  1  0  0  0  0
  1 12  1  0  0  0  0
  1 13  1  0  0  0  0
  1 14  1  0  0  0  0
  2 11  2  0  0  0  0
  2  3  1  0  0  0  0
  3  4  2  0  0  0  0
  4  5  1  0  0  0  0
  4  6  1  0  0  0  0
  5 15  1  0  0  0  0
  5 16  1  0  0  0  0
  5 17  1  0  0  0  0
  6  7  1  0  0  0  0
  6 11  1  0  0  0  0
  7 10  1  0  0  0  0
  7  8  1  0  0  0  0
  7 18  1  0  0  0  0
  8  9  1  0  0  0  0
  8 19  1  0  0  0  0
  8 20  1  0  0  0  0
  9 10  1  0  0  0  0
  9 21  1  0  0  0  0
  9 24  1  0  0  0  0
 10 22  1  0  0  0  0
 10 23  1  0  0  0  0
M  CHG  1   9   1
M  END
> <s_m_source_file>
AV-unprocessed.smi

> <i_m_source_file_index>
2614

> <i_lp_mmshare_version>
43012

> <i_f3d_flags>
0

> <s_epik_input>
W0NIM11jMW5jKFtDSDNdKW4objEpW0NIXTJbQ0gyXVtOSF1bQ0gyXTI=

> <s_epik_cmdline>
J2VwaWtfcHl0aG9uJywgJy1waCcsICc3LjAnLCAnLXRuJywgJzgnLCAnLW1hJywgJzIwMCcsICctbWV0YWxfYmluZGluZycsICctaW1hZScsICc8aW5maWxlLm1hZT4nLCAnLW9tYWUnLCAnPG91dGZpbGUubWFlPic=

> <r_lp_tautomer_probability>
1

> <r_epik_Ionization_Penalty>
0.00796611

> <r_epik_Ionization_Penalty_Charging>
0.00792139

> <r_epik_Ionization_Penalty_Neutral>
4.47227e-05

> <r_epik_State_Penalty>
0.00594323

> <r_epik_Charging_Adjusted_Penalty>
0.0138646

> <i_epik_Tot_Q>
1

> <i_epik_Tot_abs_Q>
1

> <r_epik_Metal_State_Penalty>
-0

> <b_epik_Metal_Only>
0

> <s_lp_Force_Field>
OPLS_2005

> <r_lp_Energy>
14.7939

> <b_lp_Chiralities_Consistent>
1

> <s_lp_Variant>
AV-unprocessed.smi:2614-1

> <Gold.Version>
5.8.1

> <Gold.Id.Protein>
6NUR|6NUR_protein|mol2

> <Gold.PLP.Fitness>
36.1440

> <Gold.PLP.PLP>
-30.6281

> <Gold.PLP.part.hbond>
-1.9259

> <Gold.PLP.part.metal>
0.0000

> <Gold.PLP.part.buried>
-3.3110

> <Gold.PLP.part.nonpolar>
-24.7262

> <Gold.PLP.part.repulsive>
0.1627

> <Gold.PLP.ligand.clash>
0.0000

> <Gold.PLP.ligand.torsion>
0.3636

> <Gold.PLP.Chemscore.Hbond>
2.0000

> <Gold.PLP.Chemscore.CHOScore>
0.0000

> <Gold.PLP.Chemscore.Metal>
0.0000

> <Gold.Chemscore.Hbonds>
donor molecule, donor type, donor heavy atom, donor atom, acceptor molecule, acceptor atom, score
      L1  H     9    24       P1  8028  2.00

> <Gold.PLP.Chemscore.Internal.Correction>
0.2431

> <Gold.Rescore>
     Score         DG    S(hbond)    S(metal)    S(lipo)     H(rot)  DE(clash)    DE(int)     intcor
     11.18     -11.47       0.73        0.00      52.19       1.00       0.03       0.27       ----

> <Gold.Chemscore.Fitness>
11.1761

> <Gold.Chemscore.DG>
-11.4735

> <Gold.Chemscore.ZeroCoef>
-5.4800

> <Gold.Chemscore.Hbond>
0.7328

> <Gold.Chemscore.Metal>
0.0000

> <Gold.Chemscore.Lipo>
52.1881

> <Gold.Chemscore.Internal_Hbond>
0.0000

> <Gold.Chemscore.DEClash>
0.0310

> <Gold.Chemscore.DEInternal>
0.2664

> <Gold.Chemscore.Rot>
1.0000

> <Gold.Chemscore.Internal.Correction>
   9.000000E+99

> <Gold.Chemscore.Hbonds>
donor molecule, donor type, donor heavy atom, donor atom, acceptor molecule, acceptor atom, score
      L1  H     9    24       P1  8028  0.51

> <Gold.Chemscore.Hbond.Weighted>
-2.4475

> <Gold.Chemscore.Metal.Weighted>
-0.0000

> <Gold.Chemscore.Lipo.Weighted>
-6.1060

> <Gold.Chemscore.Internal_Hbond.Weighted>
0.0000

> <Gold.Chemscore.DEClash.Weighted>
0.0310

> <Gold.Chemscore.DEInternal.Weighted>
0.2664

> <Gold.Chemscore.Rot.Weighted>
2.5600

> <Gold.Chemscore.Internal.Correction.Weighted>
   9.000000E+99

> <Gold.Protein.RotatedTorsions>
[ 6907 6896 6895 6894 ] final  114.95 input  -60.11 | X-H torsion
[ 7974 7965 7964 7962 ] final   82.40 input  175.53 | X-H torsion
[ 8008 7997 7996 7995 ] final  -84.64 input   59.86 | X-H torsion
[ 10167 10162 10161 10158 ] final  -51.21 input  -65.29 | X-H torsion
[ 10718 10713 10712 10709 ] final   24.75 input   66.30 | X-H torsion
[ 10763 10752 10751 10750 ] final  174.84 input  -60.55 | X-H torsion
[ 11005 11000 10999 10996 ] final   73.16 input  -57.11 | X-H torsion

> <Gold.Protein.ActiveResidues>
 VAL166  LYS551  ARG553  GLY616  TRP617  ASP618  TYR619  PRO620  LYS621  CYS622 
 ASP623  PHE694  ASN695  SER759  ASP760  ASP761  ALA762  ILE779  LEU786  VAL792 
 PHE793  MET794  SER795  GLU796  ALA797  LYS798  CYS799  TRP800  GLU811  SER814 

> <Gold.Protein.RotatedAtoms>
  152.4771  133.8165  159.7030 H   0  0  0  0  0  0  0  0  0  0  0  0  # atno 6907 bound_to 6896
  150.8795  133.7382  159.2943 H   0  0  0  0  0  0  0  0  0  0  0  0  # atno 6908 bound_to 6896
  151.4891  135.1060  159.9850 H   0  0  0  0  0  0  0  0  0  0  0  0  # atno 6909 bound_to 6896
  145.6255  139.2394  143.2114 H   0  0  0  0  0  0  0  0  0  0  0  0  # atno 7974 bound_to 7965
  154.6320  140.0602  156.9744 H   0  0  0  0  0  0  0  0  0  0  0  0  # atno 8008 bound_to 7997
  155.1650  140.3286  155.4385 H   0  0  0  0  0  0  0  0  0  0  0  0  # atno 8009 bound_to 7997
  156.2488  140.1924  156.6755 H   0  0  0  0  0  0  0  0  0  0  0  0  # atno 8010 bound_to 7997
  140.6599  143.2628  151.4471 H   0  0  0  0  0  0  0  0  0  0  0  0  # atno 10167 bound_to 10162
  157.1841  130.6816  149.6124 H   0  0  0  0  0  0  0  0  0  0  0  0  # atno 10718 bound_to 10713
  154.4595  135.2767  155.1723 H   0  0  0  0  0  0  0  0  0  0  0  0  # atno 10763 bound_to 10752
  154.3517  135.6148  153.5650 H   0  0  0  0  0  0  0  0  0  0  0  0  # atno 10764 bound_to 10752
  152.9853  135.5813  154.4954 H   0  0  0  0  0  0  0  0  0  0  0  0  # atno 10765 bound_to 10752
  139.9454  134.7323  156.0993 H   0  0  0  0  0  0  0  0  0  0  0  0  # atno 11005 bound_to 11000
  146.1397  140.7074  142.9373 LP  0  0  0  0  0  0  0  0  0  0  0  0  # atno 17320 bound_to 7965
  144.7214  140.4385  143.7005 LP  0  0  0  0  0  0  0  0  0  0  0  0  # atno 17321 bound_to 7965
  139.5831  144.1666  152.1993 LP  0  0  0  0  0  0  0  0  0  0  0  0  # atno 17342 bound_to 10162
  140.0997  144.5550  150.6997 LP  0  0  0  0  0  0  0  0  0  0  0  0  # atno 17343 bound_to 10162
  155.9720  130.4637  150.6190 LP  0  0  0  0  0  0  0  0  0  0  0  0  # atno 17370 bound_to 10713
  157.3924  131.0797  151.1382 LP  0  0  0  0  0  0  0  0  0  0  0  0  # atno 17371 bound_to 10713
  141.1102  133.6646  156.2961 LP  0  0  0  0  0  0  0  0  0  0  0  0  # atno 17394 bound_to 11000
  140.5848  134.5709  157.5487 LP  0  0  0  0  0  0  0  0  0  0  0  0  # atno 17395 bound_to 11000

$$$$
