AV-unprocessed.smi:2990|AV-procd|sdf|11395|dock8
  -GOLD-   2272016323D 1   1.00000     0.00000
 Structure written by MMmdl.
 40 42  0  0  0  0  0  0  0  0  2 V2000
  147.5443  139.9597  152.4954 C   0  0  0  0  0  0  0  0  0  0  0  0
  148.7223  139.5777  153.3273 C   0  0  0  0  0  0  0  0  0  0  0  0
  149.3564  138.3715  153.3150 N   0  3  0  0  0  0  0  0  0  0  0  0
  150.4140  138.3847  154.2254 C   0  0  0  0  0  0  0  0  0  0  0  0
  151.3375  137.3998  154.5626 C   0  0  0  0  0  0  0  0  0  0  0  0
  152.3000  137.7410  155.5355 C   0  0  0  0  0  0  0  0  0  0  0  0
  152.3200  139.0186  156.1315 C   0  0  0  0  0  0  0  0  0  0  0  0
  151.3769  140.0082  155.7831 C   0  0  0  0  0  0  0  0  0  0  0  0
  150.4270  139.6627  154.8220 C   0  0  0  0  0  0  0  0  0  0  0  0
  149.3636  140.3631  154.2389 N   0  0  0  0  0  0  0  0  0  0  0  0
  149.0864  141.7493  154.6488 C   0  0  0  0  0  0  0  0  0  0  0  0
  148.2929  141.8370  155.9678 C   0  0  2  0  0  0  0  0  0  0  0  0
  146.9941  142.3382  155.7229 O   0  0  0  0  0  0  0  0  0  0  0  0
  148.9736  142.7385  157.0081 C   0  0  0  0  0  0  0  0  0  0  0  0
  150.2299  142.1719  157.3559 O   0  0  0  0  0  0  0  0  0  0  0  0
  151.0638  142.8909  158.1848 C   0  0  0  0  0  0  0  0  0  0  0  0
  151.9897  142.1553  158.9532 C   0  0  0  0  0  0  0  0  0  0  0  0
  152.8781  142.8070  159.8302 C   0  0  0  0  0  0  0  0  0  0  0  0
  152.8484  144.2085  159.9486 C   0  0  0  0  0  0  0  0  0  0  0  0
  151.9308  144.9555  159.1870 C   0  0  0  0  0  0  0  0  0  0  0  0
  151.0427  144.3037  158.3086 C   0  0  0  0  0  0  0  0  0  0  0  0
  147.2636  139.1430  151.8300 H   0  0  0  0  0  0  0  0  0  0  0  0
  147.7788  140.8352  151.8897 H   0  0  0  0  0  0  0  0  0  0  0  0
  146.6934  140.1951  153.1348 H   0  0  0  0  0  0  0  0  0  0  0  0
  151.3252  136.4210  154.1059 H   0  0  0  0  0  0  0  0  0  0  0  0
  153.0384  137.0087  155.8289 H   0  0  0  0  0  0  0  0  0  0  0  0
  153.0745  139.2453  156.8709 H   0  0  0  0  0  0  0  0  0  0  0  0
  151.4059  140.9854  156.2421 H   0  0  0  0  0  0  0  0  0  0  0  0
  150.0500  142.2474  154.7612 H   0  0  0  0  0  0  0  0  0  0  0  0
  148.5729  142.2707  153.8408 H   0  0  0  0  0  0  0  0  0  0  0  0
  148.1800  140.8378  156.3902 H   0  0  0  0  0  0  0  0  0  0  0  0
  146.4855  141.6605  155.3042 H   0  0  0  0  0  0  0  0  0  0  0  0
  149.1013  143.7459  156.6078 H   0  0  0  0  0  0  0  0  0  0  0  0
  148.3465  142.8037  157.8993 H   0  0  0  0  0  0  0  0  0  0  0  0
  152.0194  141.0790  158.8691 H   0  0  0  0  0  0  0  0  0  0  0  0
  153.5817  142.2304  160.4122 H   0  0  0  0  0  0  0  0  0  0  0  0
  153.5278  144.7094  160.6223 H   0  0  0  0  0  0  0  0  0  0  0  0
  151.9071  146.0315  159.2771 H   0  0  0  0  0  0  0  0  0  0  0  0
  150.3536  144.9115  157.7425 H   0  0  0  0  0  0  0  0  0  0  0  0
  149.0835  137.5962  152.7248 H   0  0  0  0  0  0  0  0  0  0  0  0
  1  2  1  0  0  0  0
  1 22  1  0  0  0  0
  1 23  1  0  0  0  0
  1 24  1  0  0  0  0
  2 10  1  0  0  0  0
  2  3  2  0  0  0  0
  3  4  1  0  0  0  0
  3 40  1  0  0  0  0
  4  9  2  0  0  0  0
  4  5  1  0  0  0  0
  5  6  2  0  0  0  0
  5 25  1  0  0  0  0
  6  7  1  0  0  0  0
  6 26  1  0  0  0  0
  7  8  2  0  0  0  0
  7 27  1  0  0  0  0
  8  9  1  0  0  0  0
  8 28  1  0  0  0  0
  9 10  1  0  0  0  0
 10 11  1  0  0  0  0
 11 12  1  0  0  0  0
 11 29  1  0  0  0  0
 11 30  1  0  0  0  0
 12 13  1  0  0  0  0
 12 14  1  0  0  0  0
 12 31  1  0  0  0  0
 13 32  1  0  0  0  0
 14 15  1  0  0  0  0
 14 33  1  0  0  0  0
 14 34  1  0  0  0  0
 15 16  1  0  0  0  0
 16 21  1  0  0  0  0
 16 17  2  0  0  0  0
 17 18  1  0  0  0  0
 17 35  1  0  0  0  0
 18 19  2  0  0  0  0
 18 36  1  0  0  0  0
 19 20  1  0  0  0  0
 19 37  1  0  0  0  0
 20 21  2  0  0  0  0
 20 38  1  0  0  0  0
 21 39  1  0  0  0  0
M  CHG  1   3   1
M  END
> <s_m_source_file>
AV-unprocessed.smi

> <i_m_source_file_index>
2990

> <i_lp_mmshare_version>
43012

> <i_f3d_flags>
0

> <s_epik_input>
W2NIXTFbY0hdW2NIXVtjSF1jKGMxMiluKGMobjIpW0NIM10pW0NIMl1bQ0BIXShbT0hdKVtDSDJdT2MzW2NIXVtjSF1bY0hdW2NIXVtjSF0z

> <s_epik_cmdline>
J2VwaWtfcHl0aG9uJywgJy1waCcsICc3LjAnLCAnLXRuJywgJzgnLCAnLW1hJywgJzIwMCcsICctbWV0YWxfYmluZGluZycsICctaW1hZScsICc8aW5maWxlLm1hZT4nLCAnLW9tYWUnLCAnPG91dGZpbGUubWFlPic=

> <r_lp_tautomer_probability>
1

> <r_epik_Ionization_Penalty>
1.00673

> <r_epik_Ionization_Penalty_Charging>
1.00673

> <r_epik_Ionization_Penalty_Neutral>
2.3993e-06

> <r_epik_State_Penalty>
1.05579

> <r_epik_Charging_Adjusted_Penalty>
2.06252

> <i_epik_Tot_Q>
1

> <i_epik_Tot_abs_Q>
1

> <r_epik_Metal_State_Penalty>
5.03947

> <b_epik_Metal_Only>
0

> <s_lp_Force_Field>
OPLS_2005

> <r_lp_Energy>
19.3411

> <b_lp_Chiralities_Consistent>
1

> <s_lp_Variant>
AV-unprocessed.smi:2990-3

> <Gold.Version>
5.8.1

> <Gold.Id.Protein>
6NUR|6NUR_protein|mol2

> <Gold.PLP.Fitness>
48.8637

> <Gold.PLP.PLP>
-45.5932

> <Gold.PLP.part.hbond>
-2.0000

> <Gold.PLP.part.metal>
0.0000

> <Gold.PLP.part.buried>
-2.1499

> <Gold.PLP.part.nonpolar>
-40.8264

> <Gold.PLP.part.repulsive>
0.1653

> <Gold.PLP.ligand.clash>
0.0000

> <Gold.PLP.ligand.torsion>
1.3907

> <Gold.PLP.Chemscore.Hbond>
2.0000

> <Gold.PLP.Chemscore.CHOScore>
0.0000

> <Gold.PLP.Chemscore.Metal>
0.0000

> <Gold.Chemscore.Hbonds>
donor molecule, donor type, donor heavy atom, donor atom, acceptor molecule, acceptor atom, score
      L1  H     3    40       P1  7948  2.00

> <Gold.PLP.Chemscore.Internal.Correction>
0.0518

> <Gold.Rescore>
     Score         DG    S(hbond)    S(metal)    S(lipo)     H(rot)  DE(clash)    DE(int)     intcor
     16.62     -17.94       0.95        0.00     125.59       2.12       0.24       1.08       ----

> <Gold.Chemscore.Fitness>
16.6172

> <Gold.Chemscore.DG>
-17.9364

> <Gold.Chemscore.ZeroCoef>
-5.4800

> <Gold.Chemscore.Hbond>
0.9537

> <Gold.Chemscore.Metal>
0.0000

> <Gold.Chemscore.Lipo>
125.5911

> <Gold.Chemscore.Internal_Hbond>
0.0000

> <Gold.Chemscore.DEClash>
0.2358

> <Gold.Chemscore.DEInternal>
1.0835

> <Gold.Chemscore.Rot>
2.1184

> <Gold.Chemscore.Internal.Correction>
   9.000000E+99

> <Gold.Chemscore.Hbonds>
donor molecule, donor type, donor heavy atom, donor atom, acceptor molecule, acceptor atom, score
      L1  H     3    40       P1  7948  0.97

> <Gold.Chemscore.Hbond.Weighted>
-3.1854

> <Gold.Chemscore.Metal.Weighted>
-0.0000

> <Gold.Chemscore.Lipo.Weighted>
-14.6942

> <Gold.Chemscore.Internal_Hbond.Weighted>
0.0000

> <Gold.Chemscore.DEClash.Weighted>
0.2358

> <Gold.Chemscore.DEInternal.Weighted>
1.0835

> <Gold.Chemscore.Rot.Weighted>
5.4231

> <Gold.Chemscore.Internal.Correction.Weighted>
   9.000000E+99

> <Gold.Protein.RotatedTorsions>
[ 6907 6896 6895 6894 ] final  121.34 input  -60.11 | X-H torsion
[ 7974 7965 7964 7962 ] final  -78.55 input  175.53 | X-H torsion
[ 8008 7997 7996 7995 ] final  -73.42 input   59.86 | X-H torsion
[ 10167 10162 10161 10158 ] final -102.39 input  -65.29 | X-H torsion
[ 10718 10713 10712 10709 ] final  125.41 input   66.30 | X-H torsion
[ 10763 10752 10751 10750 ] final  -75.42 input  -60.55 | X-H torsion
[ 11005 11000 10999 10996 ] final -140.04 input  -57.11 | X-H torsion

> <Gold.Protein.ActiveResidues>
 VAL166  LYS551  ARG553  GLY616  TRP617  ASP618  TYR619  PRO620  LYS621  CYS622 
 ASP623  PHE694  ASN695  SER759  ASP760  ASP761  ALA762  ILE779  LEU786  VAL792 
 PHE793  MET794  SER795  GLU796  ALA797  LYS798  CYS799  TRP800  GLU811  SER814 

> <Gold.Protein.RotatedAtoms>
  152.4329  133.7310  159.6586 H   0  0  0  0  0  0  0  0  0  0  0  0  # atno 6907 bound_to 6896
  150.8210  133.8242  159.3145 H   0  0  0  0  0  0  0  0  0  0  0  0  # atno 6908 bound_to 6896
  151.5924  135.1055  160.0093 H   0  0  0  0  0  0  0  0  0  0  0  0  # atno 6909 bound_to 6896
  145.5849  140.9441  143.1323 H   0  0  0  0  0  0  0  0  0  0  0  0  # atno 7974 bound_to 7965
  154.5246  140.0779  156.8235 H   0  0  0  0  0  0  0  0  0  0  0  0  # atno 8008 bound_to 7997
  155.3503  140.3412  155.4221 H   0  0  0  0  0  0  0  0  0  0  0  0  # atno 8009 bound_to 7997
  156.1718  140.1622  156.8421 H   0  0  0  0  0  0  0  0  0  0  0  0  # atno 8010 bound_to 7997
  140.2311  143.3606  152.0885 H   0  0  0  0  0  0  0  0  0  0  0  0  # atno 10167 bound_to 10162
  157.5505  131.1094  150.8709 H   0  0  0  0  0  0  0  0  0  0  0  0  # atno 10718 bound_to 10713
  154.4863  135.5832  153.6426 H   0  0  0  0  0  0  0  0  0  0  0  0  # atno 10763 bound_to 10752
  152.9855  135.6102  154.3182 H   0  0  0  0  0  0  0  0  0  0  0  0  # atno 10764 bound_to 10752
  154.3078  135.2845  155.2560 H   0  0  0  0  0  0  0  0  0  0  0  0  # atno 10765 bound_to 10752
  140.8461  134.2343  157.4785 H   0  0  0  0  0  0  0  0  0  0  0  0  # atno 11005 bound_to 11000
  144.7377  139.7538  143.7323 LP  0  0  0  0  0  0  0  0  0  0  0  0  # atno 17320 bound_to 7965
  146.1689  139.4831  142.9940 LP  0  0  0  0  0  0  0  0  0  0  0  0  # atno 17321 bound_to 7965
  139.5109  144.6893  151.5804 LP  0  0  0  0  0  0  0  0  0  0  0  0  # atno 17342 bound_to 10162
  140.6184  143.9305  150.6506 LP  0  0  0  0  0  0  0  0  0  0  0  0  # atno 17343 bound_to 10162
  156.9236  130.5324  149.5279 LP  0  0  0  0  0  0  0  0  0  0  0  0  # atno 17370 bound_to 10713
  156.0573  130.5632  150.9118 LP  0  0  0  0  0  0  0  0  0  0  0  0  # atno 17371 bound_to 10713
  139.8703  134.9660  156.4547 LP  0  0  0  0  0  0  0  0  0  0  0  0  # atno 17394 bound_to 11000
  140.8842  133.7895  155.9500 LP  0  0  0  0  0  0  0  0  0  0  0  0  # atno 17395 bound_to 11000

$$$$
