AV-unprocessed.smi:257|AV-procd|sdf|1963|dock8
  -GOLD-   2262021113D 1   1.00000     0.00000
 Structure written by MMmdl.
 50 53  0  0  0  0  0  0  0  0  1 V2000
  149.1874  143.0760  158.4868 C   0  0  0  0  0  0  0  0  0  0  0  0
  149.2167  142.7108  157.0791 N   0  0  0  0  0  0  0  0  0  0  0  0
  148.9462  141.4838  156.6119 C   0  0  0  0  0  0  0  0  0  0  0  0
  148.6327  140.5415  157.3413 O   0  0  0  0  0  0  0  0  0  0  0  0
  149.0378  141.3059  155.0853 C   0  0  2  0  0  0  0  0  0  0  0  0
  147.9330  142.0906  154.3561 C   0  0  0  0  0  0  0  0  0  0  0  0
  146.7758  141.1006  154.2370 C   0  0  0  0  0  0  0  0  0  0  0  0
  147.4867  139.7620  154.0434 C   0  0  0  0  0  0  0  0  0  0  0  0
  148.7934  139.9229  154.6738 N   0  0  0  0  0  0  0  0  0  0  0  0
  149.7020  138.9098  154.7375 C   0  0  0  0  0  0  0  0  0  0  0  0
  151.0150  139.2280  154.5831 N   0  0  0  0  0  0  0  0  0  0  0  0
  151.9591  138.2855  154.6304 C   0  0  0  0  0  0  0  0  0  0  0  0
  151.8169  136.9747  154.8216 N   0  0  0  0  0  0  0  0  0  0  0  0
  150.5060  136.6390  154.9824 C   0  0  0  0  0  0  0  0  0  0  0  0
  149.3932  137.5311  154.9544 C   0  0  0  0  0  0  0  0  0  0  0  0
  148.2221  136.8066  155.1546 N   0  0  0  0  0  0  0  0  0  0  0  0
  148.6165  135.5713  155.2890 C   0  0  0  0  0  0  0  0  0  0  0  0
  149.9758  135.3806  155.2092 N   0  0  0  0  0  0  0  0  0  0  0  0
  150.6847  134.1141  155.3244 C   0  0  0  0  0  0  0  0  0  0  0  0
  150.4061  133.3485  156.6472 C   0  0  0  0  0  0  0  0  0  0  0  0
  150.2425  134.3118  157.6721 O   0  0  0  0  0  0  0  0  0  0  0  0
  149.0979  132.5360  156.5722 C   0  0  0  0  0  0  0  0  0  0  0  0
  149.2665  131.2643  155.7207 C   0  0  0  0  0  0  0  0  0  0  0  0
  150.3340  130.4736  156.2319 O   0  0  0  0  0  0  0  0  0  0  0  0
  151.5907  131.1407  156.1918 C   0  0  0  0  0  0  0  0  0  0  0  0
  151.5451  132.3988  157.0771 C   0  0  0  0  0  0  0  0  0  0  0  0
  149.4280  144.1327  158.6015 H   0  0  0  0  0  0  0  0  0  0  0  0
  149.9182  142.4962  159.0521 H   0  0  0  0  0  0  0  0  0  0  0  0
  148.1988  142.9017  158.9133 H   0  0  0  0  0  0  0  0  0  0  0  0
  149.4659  143.4326  156.4183 H   0  0  0  0  0  0  0  0  0  0  0  0
  150.0079  141.6517  154.7271 H   0  0  0  0  0  0  0  0  0  0  0  0
  147.6427  143.0116  154.8639 H   0  0  0  0  0  0  0  0  0  0  0  0
  148.2803  142.3658  153.3592 H   0  0  0  0  0  0  0  0  0  0  0  0
  146.2048  141.0875  155.1665 H   0  0  0  0  0  0  0  0  0  0  0  0
  146.0903  141.3389  153.4236 H   0  0  0  0  0  0  0  0  0  0  0  0
  146.9153  138.9459  154.4873 H   0  0  0  0  0  0  0  0  0  0  0  0
  147.6236  139.5507  152.9820 H   0  0  0  0  0  0  0  0  0  0  0  0
  152.9731  138.6318  154.4953 H   0  0  0  0  0  0  0  0  0  0  0  0
  147.9227  134.7603  155.4565 H   0  0  0  0  0  0  0  0  0  0  0  0
  150.4062  133.4965  154.4694 H   0  0  0  0  0  0  0  0  0  0  0  0
  151.7496  134.3143  155.2095 H   0  0  0  0  0  0  0  0  0  0  0  0
  149.4586  134.8090  157.4944 H   0  0  0  0  0  0  0  0  0  0  0  0
  148.7947  132.2340  157.5760 H   0  0  0  0  0  0  0  0  0  0  0  0
  148.2853  133.1488  156.1797 H   0  0  0  0  0  0  0  0  0  0  0  0
  148.3507  130.6737  155.7509 H   0  0  0  0  0  0  0  0  0  0  0  0
  149.4463  131.5071  154.6730 H   0  0  0  0  0  0  0  0  0  0  0  0
  152.3602  130.4591  156.5541 H   0  0  0  0  0  0  0  0  0  0  0  0
  151.8486  131.3861  155.1616 H   0  0  0  0  0  0  0  0  0  0  0  0
  152.5107  132.9044  157.0707 H   0  0  0  0  0  0  0  0  0  0  0  0
  151.3838  132.0797  158.1080 H   0  0  0  0  0  0  0  0  0  0  0  0
  1  2  1  0  0  0  0
  1 27  1  0  0  0  0
  1 28  1  0  0  0  0
  1 29  1  0  0  0  0
  2  3  1  0  0  0  0
  2 30  1  0  0  0  0
  3  4  2  0  0  0  0
  3  5  1  0  0  0  0
  5  9  1  0  0  0  0
  5  6  1  0  0  0  0
  5 31  1  0  0  0  0
  6  7  1  0  0  0  0
  6 32  1  0  0  0  0
  6 33  1  0  0  0  0
  7  8  1  0  0  0  0
  7 34  1  0  0  0  0
  7 35  1  0  0  0  0
  8  9  1  0  0  0  0
  8 36  1  0  0  0  0
  8 37  1  0  0  0  0
  9 10  1  0  0  0  0
 10 15  1  0  0  0  0
 10 11  2  0  0  0  0
 11 12  1  0  0  0  0
 12 13  2  0  0  0  0
 12 38  1  0  0  0  0
 13 14  1  0  0  0  0
 14 18  1  0  0  0  0
 14 15  2  0  0  0  0
 15 16  1  0  0  0  0
 16 17  2  0  0  0  0
 17 18  1  0  0  0  0
 17 39  1  0  0  0  0
 18 19  1  0  0  0  0
 19 20  1  0  0  0  0
 19 40  1  0  0  0  0
 19 41  1  0  0  0  0
 20 26  1  0  0  0  0
 20 21  1  0  0  0  0
 20 22  1  0  0  0  0
 21 42  1  0  0  0  0
 22 23  1  0  0  0  0
 22 43  1  0  0  0  0
 22 44  1  0  0  0  0
 23 24  1  0  0  0  0
 23 45  1  0  0  0  0
 23 46  1  0  0  0  0
 24 25  1  0  0  0  0
 25 26  1  0  0  0  0
 25 47  1  0  0  0  0
 25 48  1  0  0  0  0
 26 49  1  0  0  0  0
 26 50  1  0  0  0  0
M  END
> <s_m_source_file>
AV-unprocessed.smi

> <i_m_source_file_index>
257

> <i_lp_mmshare_version>
43012

> <i_f3d_flags>
0

> <s_epik_input>
W0NIM11bTkhdQyg9TylbQ0BASF0xW0NIMl1bQ0gyXVtDSDJdTjFjKG5bY0hdbjIpYyhjMjMpbltjSF1uM1tDSDJdQzQoW09IXSlbQ0gyXVtDSDJdT1tDSDJdW0NIMl00

> <s_epik_cmdline>
J2VwaWtfcHl0aG9uJywgJy1waCcsICc3LjAnLCAnLXRuJywgJzgnLCAnLW1hJywgJzIwMCcsICctbWV0YWxfYmluZGluZycsICctaW1hZScsICc8aW5maWxlLm1hZT4nLCAnLW9tYWUnLCAnPG91dGZpbGUubWFlPic=

> <r_lp_tautomer_probability>
1

> <r_epik_Ionization_Penalty>
0.000951012

> <r_epik_Ionization_Penalty_Charging>
0

> <r_epik_Ionization_Penalty_Neutral>
0.000951012

> <r_epik_State_Penalty>
0.000495984

> <r_epik_Charging_Adjusted_Penalty>
0.000495984

> <i_epik_Tot_Q>
0

> <i_epik_Tot_abs_Q>
0

> <r_epik_Metal_State_Penalty>
-0

> <b_epik_Metal_Only>
0

> <s_lp_Force_Field>
OPLS_2005

> <r_lp_Energy>
35.0404

> <b_lp_Chiralities_Consistent>
1

> <s_lp_Variant>
AV-unprocessed.smi:257-1

> <Gold.Version>
5.8.1

> <Gold.Id.Protein>
6NUR|6NUR_protein|mol2

> <Gold.PLP.Fitness>
42.2151

> <Gold.PLP.PLP>
-33.0162

> <Gold.PLP.part.hbond>
-4.0000

> <Gold.PLP.part.metal>
0.0000

> <Gold.PLP.part.buried>
-4.6080

> <Gold.PLP.part.nonpolar>
-26.6073

> <Gold.PLP.part.repulsive>
0.4014

> <Gold.PLP.ligand.clash>
0.0000

> <Gold.PLP.ligand.torsion>
0.9627

> <Gold.PLP.Chemscore.Hbond>
3.6891

> <Gold.PLP.Chemscore.CHOScore>
0.0000

> <Gold.PLP.Chemscore.Metal>
0.0000

> <Gold.Chemscore.Hbonds>
donor molecule, donor type, donor heavy atom, donor atom, acceptor molecule, acceptor atom, score
      L1  H     2    30       P1  8028  0.85
      P1  H  6896  6909       L1    21  0.69
      P1  H  7989  7998       L1    11  0.94
      P1  H 10752 10765       L1    13  1.00

> <Gold.PLP.Chemscore.Internal.Correction>
0.0570

> <Gold.Rescore>
     Score         DG    S(hbond)    S(metal)    S(lipo)     H(rot)  DE(clash)    DE(int)     intcor
     15.60     -16.69       2.98        0.00      60.85       2.29       0.13       0.96       ----

> <Gold.Chemscore.Fitness>
15.6040

> <Gold.Chemscore.DG>
-16.6936

> <Gold.Chemscore.ZeroCoef>
-5.4800

> <Gold.Chemscore.Hbond>
2.9800

> <Gold.Chemscore.Metal>
0.0000

> <Gold.Chemscore.Lipo>
60.8539

> <Gold.Chemscore.Internal_Hbond>
0.0000

> <Gold.Chemscore.DEClash>
0.1304

> <Gold.Chemscore.DEInternal>
0.9593

> <Gold.Chemscore.Rot>
2.2889

> <Gold.Chemscore.Internal.Correction>
   9.000000E+99

> <Gold.Chemscore.Hbonds>
donor molecule, donor type, donor heavy atom, donor atom, acceptor molecule, acceptor atom, score
      L1  H     2    30       P1  8028  0.82
      P1  H  6896  6909       L1    21  0.60
      P1  H  7989  7998       L1    11  0.70
      P1  H 10752 10765       L1    13  0.90

> <Gold.Chemscore.Hbond.Weighted>
-9.9533

> <Gold.Chemscore.Metal.Weighted>
-0.0000

> <Gold.Chemscore.Lipo.Weighted>
-7.1199

> <Gold.Chemscore.Internal_Hbond.Weighted>
0.0000

> <Gold.Chemscore.DEClash.Weighted>
0.1304

> <Gold.Chemscore.DEInternal.Weighted>
0.9593

> <Gold.Chemscore.Rot.Weighted>
5.8596

> <Gold.Chemscore.Internal.Correction.Weighted>
   9.000000E+99

> <Gold.Protein.RotatedTorsions>
[ 6907 6896 6895 6894 ] final   -4.95 input  -60.11 | X-H torsion
[ 7974 7965 7964 7962 ] final    3.33 input  175.53 | X-H torsion
[ 8008 7997 7996 7995 ] final -102.30 input   59.86 | X-H torsion
[ 10167 10162 10161 10158 ] final  170.58 input  -65.29 | X-H torsion
[ 10718 10713 10712 10709 ] final   64.95 input   66.30 | X-H torsion
[ 10763 10752 10751 10750 ] final  178.79 input  -60.55 | X-H torsion
[ 11005 11000 10999 10996 ] final   32.61 input  -57.11 | X-H torsion

> <Gold.Protein.ActiveResidues>
 VAL166  LYS551  ARG553  GLY616  TRP617  ASP618  TYR619  PRO620  LYS621  CYS622 
 ASP623  PHE694  ASN695  SER759  ASP760  ASP761  ALA762  ILE779  LEU786  VAL792 
 PHE793  MET794  SER795  GLU796  ALA797  LYS798  CYS799  TRP800  GLU811  SER814 

> <Gold.Protein.RotatedAtoms>
  151.4895  135.1056  159.9799 H   0  0  0  0  0  0  0  0  0  0  0  0  # atno 6907 bound_to 6896
  152.4747  133.8106  159.7012 H   0  0  0  0  0  0  0  0  0  0  0  0  # atno 6908 bound_to 6896
  150.8777  133.7353  159.2968 H   0  0  0  0  0  0  0  0  0  0  0  0  # atno 6909 bound_to 6896
  146.2445  140.0702  142.8363 H   0  0  0  0  0  0  0  0  0  0  0  0  # atno 7974 bound_to 7965
  154.8547  140.0429  157.1627 H   0  0  0  0  0  0  0  0  0  0  0  0  # atno 8008 bound_to 7997
  154.8904  140.2985  155.5353 H   0  0  0  0  0  0  0  0  0  0  0  0  # atno 8009 bound_to 7997
  156.2997  140.2394  156.3919 H   0  0  0  0  0  0  0  0  0  0  0  0  # atno 8010 bound_to 7997
  139.5022  144.3580  151.9854 H   0  0  0  0  0  0  0  0  0  0  0  0  # atno 10167 bound_to 10162
  157.6074  130.9188  149.9913 H   0  0  0  0  0  0  0  0  0  0  0  0  # atno 10718 bound_to 10713
  154.5123  135.2789  155.1332 H   0  0  0  0  0  0  0  0  0  0  0  0  # atno 10763 bound_to 10752
  154.2923  135.6264  153.5394 H   0  0  0  0  0  0  0  0  0  0  0  0  # atno 10764 bound_to 10752
  152.9921  135.5677  154.5591 H   0  0  0  0  0  0  0  0  0  0  0  0  # atno 10765 bound_to 10752
  140.2717  134.3075  155.7826 H   0  0  0  0  0  0  0  0  0  0  0  0  # atno 11005 bound_to 11000
  145.0823  140.9229  143.4818 LP  0  0  0  0  0  0  0  0  0  0  0  0  # atno 17320 bound_to 7965
  145.0857  139.2927  143.5760 LP  0  0  0  0  0  0  0  0  0  0  0  0  # atno 17321 bound_to 7965
  140.3016  144.3639  150.6058 LP  0  0  0  0  0  0  0  0  0  0  0  0  # atno 17342 bound_to 10162
  140.5868  143.2169  151.7326 LP  0  0  0  0  0  0  0  0  0  0  0  0  # atno 17343 bound_to 10162
  156.1164  130.3647  149.9961 LP  0  0  0  0  0  0  0  0  0  0  0  0  # atno 17370 bound_to 10713
  156.8049  130.9304  151.3645 LP  0  0  0  0  0  0  0  0  0  0  0  0  # atno 17371 bound_to 10713
  141.2176  133.7471  156.9344 LP  0  0  0  0  0  0  0  0  0  0  0  0  # atno 17394 bound_to 11000
  140.1367  134.9320  157.2411 LP  0  0  0  0  0  0  0  0  0  0  0  0  # atno 17395 bound_to 11000

$$$$
