AV-unprocessed.smi:1795|AV-procd|sdf|7250|dock9
  -GOLD-   22720 8503D 1   1.00000     0.00000
 Structure written by MMmdl.
 48 49  0  0  0  0  0  0  0  0  2 V2000
  143.2624  137.7837  153.8041 C   0  0  0  0  0  0  0  0  0  0  0  0
  143.8387  138.0116  155.2131 C   0  0  1  0  0  0  0  0  0  0  0  0
  145.2721  138.5745  155.2102 C   0  0  0  0  0  0  0  0  0  0  0  0
  145.3011  140.0028  154.7942 N   0  3  2  0  0  0  0  0  0  0  0  0
  146.6989  140.5282  154.6532 C   0  0  1  0  0  0  0  0  0  0  0  0
  146.9751  140.8684  153.1712 C   0  0  0  0  0  0  0  0  0  0  0  0
  147.0116  141.7438  155.5702 C   0  0  0  0  0  0  0  0  0  0  0  0
  148.4371  142.0566  155.6295 N   0  0  0  0  0  0  0  0  0  0  0  0
  149.4006  141.2267  156.0587 C   0  0  0  0  0  0  0  0  0  0  0  0
  149.1822  140.0757  156.4381 O   0  0  0  0  0  0  0  0  0  0  0  0
  150.8291  141.7869  156.0505 C   0  0  0  0  0  0  0  0  0  0  0  0
  151.3348  142.0760  157.4025 N   0  0  0  0  0  0  0  0  0  0  0  0
  150.9109  143.2767  158.0064 C   0  0  0  0  0  0  0  0  0  0  0  0
  151.3138  143.6333  159.2362 C   0  0  0  0  0  0  0  0  0  0  0  0
  152.2060  142.7478  159.9460 C   0  0  0  0  0  0  0  0  0  0  0  0
  152.6209  141.5988  159.3761 C   0  0  0  0  0  0  0  0  0  0  0  0
  152.1866  141.2070  158.0303 C   0  0  0  0  0  0  0  0  0  0  0  0
  152.5654  140.1624  157.4989 O   0  0  0  0  0  0  0  0  0  0  0  0
  144.3868  140.7874  155.6669 C   0  0  0  0  0  0  0  0  0  0  0  0
  142.9628  140.2008  155.6406 C   0  0  2  0  0  0  0  0  0  0  0  0
  142.0231  140.9326  156.6054 C   0  0  0  0  0  0  0  0  0  0  0  0
  142.9974  138.8300  156.0220 O   0  0  0  0  0  0  0  0  0  0  0  0
  143.8496  137.0418  153.2627 H   0  0  0  0  0  0  0  0  0  0  0  0
  143.2600  138.6933  153.2040 H   0  0  0  0  0  0  0  0  0  0  0  0
  142.2377  137.4153  153.8584 H   0  0  0  0  0  0  0  0  0  0  0  0
  143.8668  137.0372  155.7019 H   0  0  0  0  0  0  0  0  0  0  0  0
  145.6930  138.4912  156.2137 H   0  0  0  0  0  0  0  0  0  0  0  0
  145.8947  137.9569  154.5649 H   0  0  0  0  0  0  0  0  0  0  0  0
  147.3814  139.7302  154.9508 H   0  0  0  0  0  0  0  0  0  0  0  0
  148.0172  141.1402  153.0061 H   0  0  0  0  0  0  0  0  0  0  0  0
  146.3597  141.7057  152.8408 H   0  0  0  0  0  0  0  0  0  0  0  0
  146.7757  140.0329  152.5028 H   0  0  0  0  0  0  0  0  0  0  0  0
  146.4358  142.6166  155.2571 H   0  0  0  0  0  0  0  0  0  0  0  0
  146.7204  141.5311  156.5989 H   0  0  0  0  0  0  0  0  0  0  0  0
  148.7122  142.9816  155.3316 H   0  0  0  0  0  0  0  0  0  0  0  0
  151.4713  141.0670  155.5419 H   0  0  0  0  0  0  0  0  0  0  0  0
  150.8718  142.6903  155.4391 H   0  0  0  0  0  0  0  0  0  0  0  0
  150.2493  143.8859  157.4079 H   0  0  0  0  0  0  0  0  0  0  0  0
  150.9820  144.5596  159.6817 H   0  0  0  0  0  0  0  0  0  0  0  0
  152.5432  143.0083  160.9385 H   0  0  0  0  0  0  0  0  0  0  0  0
  153.2886  140.9488  159.9222 H   0  0  0  0  0  0  0  0  0  0  0  0
  144.7767  140.8019  156.6861 H   0  0  0  0  0  0  0  0  0  0  0  0
  144.3152  141.8200  155.3273 H   0  0  0  0  0  0  0  0  0  0  0  0
  142.5489  140.2923  154.6363 H   0  0  0  0  0  0  0  0  0  0  0  0
  141.9424  141.9895  156.3504 H   0  0  0  0  0  0  0  0  0  0  0  0
  142.3789  140.8626  157.6337 H   0  0  0  0  0  0  0  0  0  0  0  0
  141.0201  140.5065  156.5708 H   0  0  0  0  0  0  0  0  0  0  0  0
  144.8961  140.0478  153.8698 H   0  0  0  0  0  0  0  0  0  0  0  0
  1  2  1  0  0  0  0
  1 23  1  0  0  0  0
  1 24  1  0  0  0  0
  1 25  1  0  0  0  0
  2 22  1  0  0  0  0
  2  3  1  0  0  0  0
  2 26  1  0  0  0  0
  3  4  1  0  0  0  0
  3 27  1  0  0  0  0
  3 28  1  0  0  0  0
  4  5  1  0  0  0  0
  4 19  1  0  0  0  0
  4 48  1  0  0  0  0
  5  6  1  0  0  0  0
  5  7  1  0  0  0  0
  5 29  1  0  0  0  0
  6 30  1  0  0  0  0
  6 31  1  0  0  0  0
  6 32  1  0  0  0  0
  7  8  1  0  0  0  0
  7 33  1  0  0  0  0
  7 34  1  0  0  0  0
  8  9  1  0  0  0  0
  8 35  1  0  0  0  0
  9 10  2  0  0  0  0
  9 11  1  0  0  0  0
 11 12  1  0  0  0  0
 11 36  1  0  0  0  0
 11 37  1  0  0  0  0
 12 17  1  0  0  0  0
 12 13  1  0  0  0  0
 13 14  2  0  0  0  0
 13 38  1  0  0  0  0
 14 15  1  0  0  0  0
 14 39  1  0  0  0  0
 15 16  2  0  0  0  0
 15 40  1  0  0  0  0
 16 17  1  0  0  0  0
 16 41  1  0  0  0  0
 17 18  2  0  0  0  0
 19 20  1  0  0  0  0
 19 42  1  0  0  0  0
 19 43  1  0  0  0  0
 20 21  1  0  0  0  0
 20 22  1  0  0  0  0
 20 44  1  0  0  0  0
 21 45  1  0  0  0  0
 21 46  1  0  0  0  0
 21 47  1  0  0  0  0
M  CHG  1   4   1
M  END
> <s_m_source_file>
AV-unprocessed.smi

> <i_m_source_file_index>
1795

> <i_lp_mmshare_version>
43012

> <i_f3d_flags>
0

> <s_epik_input>
W0NIM11bQ0BASF0xW0NIMl1OKFtDSDJdW0NASF0oTzEpW0NIM10pW0NASF0oW0NIM10pW0NIMl1bTkhdQyg9TylbQ0gyXW4yW2NIXVtjSF1bY0hdW2NIXWMyPU8=

> <s_epik_cmdline>
J2VwaWtfcHl0aG9uJywgJy1waCcsICc3LjAnLCAnLXRuJywgJzgnLCAnLW1hJywgJzIwMCcsICctbWV0YWxfYmluZGluZycsICctaW1hZScsICc8aW5maWxlLm1hZT4nLCAnLW9tYWUnLCAnPG91dGZpbGUubWFlPic=

> <r_lp_tautomer_probability>
1

> <r_epik_Ionization_Penalty>
0.656654

> <r_epik_Ionization_Penalty_Charging>
0.656654

> <r_epik_Ionization_Penalty_Neutral>
8.90321e-08

> <r_epik_State_Penalty>
0.675641

> <r_epik_Charging_Adjusted_Penalty>
1.33229

> <i_epik_Tot_Q>
1

> <i_epik_Tot_abs_Q>
1

> <r_epik_Metal_State_Penalty>
0.675691

> <b_epik_Metal_Only>
0

> <s_lp_Force_Field>
OPLS_2005

> <r_lp_Energy>
30.8259

> <b_lp_Chiralities_Consistent>
1

> <s_lp_Variant>
AV-unprocessed.smi:1795-14

> <Gold.Version>
5.8.1

> <Gold.Id.Protein>
6NUR|6NUR_protein|mol2

> <Gold.PLP.Fitness>
40.0494

> <Gold.PLP.PLP>
-28.9415

> <Gold.PLP.part.hbond>
-3.0000

> <Gold.PLP.part.metal>
0.0000

> <Gold.PLP.part.buried>
-2.6538

> <Gold.PLP.part.nonpolar>
-22.7290

> <Gold.PLP.part.repulsive>
0.1625

> <Gold.PLP.ligand.clash>
0.0000

> <Gold.PLP.ligand.torsion>
1.9513

> <Gold.PLP.Chemscore.Hbond>
3.9760

> <Gold.PLP.Chemscore.CHOScore>
1.0000

> <Gold.PLP.Chemscore.Metal>
0.0000

> <Gold.Chemscore.Hbonds>
donor molecule, donor type, donor heavy atom, donor atom, acceptor molecule, acceptor atom, score
      L1  H     4    48       P1 10175  2.00
      L1  H     8    35       P1  8028  1.00
      P1  H  7997  8008       L1    18  1.00
      L1  C    13    38       P1  8028  1.00

> <Gold.PLP.Chemscore.Internal.Correction>
0.0825

> <Gold.Rescore>
     Score         DG    S(hbond)    S(metal)    S(lipo)     H(rot)  DE(clash)    DE(int)     intcor
     14.99     -18.19       2.85        0.00      68.59       1.89       0.08       3.12       ----

> <Gold.Chemscore.Fitness>
14.9893

> <Gold.Chemscore.DG>
-18.1898

> <Gold.Chemscore.ZeroCoef>
-5.4800

> <Gold.Chemscore.Hbond>
2.8491

> <Gold.Chemscore.Metal>
0.0000

> <Gold.Chemscore.Lipo>
68.5855

> <Gold.Chemscore.Internal_Hbond>
0.0000

> <Gold.Chemscore.DEClash>
0.0849

> <Gold.Chemscore.DEInternal>
3.1156

> <Gold.Chemscore.Rot>
1.8870

> <Gold.Chemscore.Internal.Correction>
   9.000000E+99

> <Gold.Chemscore.Hbonds>
donor molecule, donor type, donor heavy atom, donor atom, acceptor molecule, acceptor atom, score
      L1  H     4    48       P1 10175  0.99
      L1  H     8    35       P1  8028  0.95
      P1  H  7997  8008       L1    18  0.89

> <Gold.Chemscore.Hbond.Weighted>
-9.5160

> <Gold.Chemscore.Metal.Weighted>
-0.0000

> <Gold.Chemscore.Lipo.Weighted>
-8.0245

> <Gold.Chemscore.Internal_Hbond.Weighted>
0.0000

> <Gold.Chemscore.DEClash.Weighted>
0.0849

> <Gold.Chemscore.DEInternal.Weighted>
3.1156

> <Gold.Chemscore.Rot.Weighted>
4.8308

> <Gold.Chemscore.Internal.Correction.Weighted>
   9.000000E+99

> <Gold.Protein.RotatedTorsions>
[ 6907 6896 6895 6894 ] final    4.42 input  -60.11 | X-H torsion
[ 7974 7965 7964 7962 ] final -115.53 input  175.53 | X-H torsion
[ 8008 7997 7996 7995 ] final  -68.11 input   59.86 | X-H torsion
[ 10167 10162 10161 10158 ] final  104.88 input  -65.29 | X-H torsion
[ 10718 10713 10712 10709 ] final  -52.17 input   66.30 | X-H torsion
[ 10763 10752 10751 10750 ] final   66.37 input  -60.55 | X-H torsion
[ 11005 11000 10999 10996 ] final  177.38 input  -57.11 | X-H torsion

> <Gold.Protein.ActiveResidues>
 VAL166  LYS551  ARG553  GLY616  TRP617  ASP618  TYR619  PRO620  LYS621  CYS622 
 ASP623  PHE694  ASN695  SER759  ASP760  ASP761  ALA762  ILE779  LEU786  VAL792 
 PHE793  MET794  SER795  GLU796  ALA797  LYS798  CYS799  TRP800  GLU811  SER814 

> <Gold.Protein.RotatedAtoms>
  151.6410  135.1013  160.0141 H   0  0  0  0  0  0  0  0  0  0  0  0  # atno 6907 bound_to 6896
  152.4054  133.6877  159.6360 H   0  0  0  0  0  0  0  0  0  0  0  0  # atno 6908 bound_to 6896
  150.7949  133.8635  159.3279 H   0  0  0  0  0  0  0  0  0  0  0  0  # atno 6909 bound_to 6896
  145.1073  140.8590  143.3890 H   0  0  0  0  0  0  0  0  0  0  0  0  # atno 7974 bound_to 7965
  154.4845  140.0879  156.7455 H   0  0  0  0  0  0  0  0  0  0  0  0  # atno 8008 bound_to 7997
  155.4385  140.3452  155.4269 H   0  0  0  0  0  0  0  0  0  0  0  0  # atno 8009 bound_to 7997
  156.1241  140.1482  156.9150 H   0  0  0  0  0  0  0  0  0  0  0  0  # atno 8010 bound_to 7997
  139.7140  144.7072  151.0981 H   0  0  0  0  0  0  0  0  0  0  0  0  # atno 10167 bound_to 10162
  156.1645  130.4149  149.9742 H   0  0  0  0  0  0  0  0  0  0  0  0  # atno 10718 bound_to 10713
  153.0137  135.5323  154.6813 H   0  0  0  0  0  0  0  0  0  0  0  0  # atno 10763 bound_to 10752
  154.5972  135.2864  155.0575 H   0  0  0  0  0  0  0  0  0  0  0  0  # atno 10764 bound_to 10752
  154.1646  135.6542  153.5047 H   0  0  0  0  0  0  0  0  0  0  0  0  # atno 10765 bound_to 10752
  140.3835  134.6926  157.4465 H   0  0  0  0  0  0  0  0  0  0  0  0  # atno 11005 bound_to 11000
  145.0887  139.2906  143.5746 LP  0  0  0  0  0  0  0  0  0  0  0  0  # atno 17320 bound_to 7965
  146.3527  140.0416  142.8642 LP  0  0  0  0  0  0  0  0  0  0  0  0  # atno 17321 bound_to 7965
  140.7739  143.5255  150.9485 LP  0  0  0  0  0  0  0  0  0  0  0  0  # atno 17342 bound_to 10162
  139.8940  143.6917  152.3141 LP  0  0  0  0  0  0  0  0  0  0  0  0  # atno 17343 bound_to 10162
  156.7561  130.9133  151.3639 LP  0  0  0  0  0  0  0  0  0  0  0  0  # atno 17370 bound_to 10713
  157.6757  130.9092  150.0145 LP  0  0  0  0  0  0  0  0  0  0  0  0  # atno 17371 bound_to 10713
  140.0461  134.6198  155.8920 LP  0  0  0  0  0  0  0  0  0  0  0  0  # atno 17394 bound_to 11000
  141.1915  133.6572  156.5461 LP  0  0  0  0  0  0  0  0  0  0  0  0  # atno 17395 bound_to 11000

$$$$
