AV-unprocessed.smi:2056|AV-procd|sdf|8338|dock4
  -GOLD-   2272011 03D 1   1.00000     0.00000
 Structure written by MMmdl.
 34 34  0  0  0  0  0  0  0  0  1 V2000
  149.8986  144.1528  159.5075 C   0  0  0  0  0  0  0  0  0  0  0  0
  151.4035  144.2780  159.1873 C   0  0  0  0  0  0  0  0  0  0  0  0
  151.8451  145.7246  159.4835 C   0  0  0  0  0  0  0  0  0  0  0  0
  152.1998  143.3303  160.1096 C   0  0  0  0  0  0  0  0  0  0  0  0
  151.6817  143.9885  157.6843 C   0  0  0  0  0  0  0  0  0  0  0  0
  151.2197  142.6166  157.1718 C   0  0  0  0  0  0  0  0  0  0  0  0
  151.6573  141.5916  157.6948 O   0  0  0  0  0  0  0  0  0  0  0  0
  150.3603  142.6397  156.1357 N   0  0  0  0  0  0  0  0  0  0  0  0
  149.7608  141.5436  155.4629 C   0  0  0  0  0  0  0  0  0  0  0  0
  148.5889  141.6007  154.8206 N   0  0  0  0  0  0  0  0  0  0  0  0
  148.2344  140.3715  154.2540 C   0  0  0  0  0  0  0  0  0  0  0  0
  146.9461  140.2393  153.4947 C   0  0  0  0  0  0  0  0  0  0  0  0
  146.7928  138.8163  152.9542 C   0  0  0  0  0  0  0  0  0  0  0  0
  147.6888  138.4055  152.0524 N   0  0  0  0  0  0  0  0  0  0  0  0
  145.8758  138.0961  153.3431 O   0  0  0  0  0  0  0  0  0  0  0  0
  149.1688  139.3868  154.4706 C   0  0  0  0  0  0  0  0  0  0  0  0
  150.5202  139.9609  155.4097 S   0  0  0  0  0  0  0  0  0  0  0  0
  149.6897  144.4336  160.5404 H   0  0  0  0  0  0  0  0  0  0  0  0
  149.5370  143.1325  159.3748 H   0  0  0  0  0  0  0  0  0  0  0  0
  149.3009  144.8004  158.8652 H   0  0  0  0  0  0  0  0  0  0  0  0
  151.2987  146.4416  158.8697 H   0  0  0  0  0  0  0  0  0  0  0  0
  152.9081  145.8646  159.2830 H   0  0  0  0  0  0  0  0  0  0  0  0
  151.6717  145.9904  160.5269 H   0  0  0  0  0  0  0  0  0  0  0  0
  152.0806  143.6075  161.1576 H   0  0  0  0  0  0  0  0  0  0  0  0
  153.2661  143.3588  159.8826 H   0  0  0  0  0  0  0  0  0  0  0  0
  151.8697  142.2955  160.0173 H   0  0  0  0  0  0  0  0  0  0  0  0
  151.2200  144.7643  157.0711 H   0  0  0  0  0  0  0  0  0  0  0  0
  152.7527  144.0657  157.4911 H   0  0  0  0  0  0  0  0  0  0  0  0
  150.0900  143.5531  155.8018 H   0  0  0  0  0  0  0  0  0  0  0  0
  146.0931  140.4718  154.1341 H   0  0  0  0  0  0  0  0  0  0  0  0
  146.9115  140.9507  152.6687 H   0  0  0  0  0  0  0  0  0  0  0  0
  147.6266  137.4752  151.6654 H   0  0  0  0  0  0  0  0  0  0  0  0
  148.4254  139.0308  151.7591 H   0  0  0  0  0  0  0  0  0  0  0  0
  149.1408  138.3593  154.1396 H   0  0  0  0  0  0  0  0  0  0  0  0
  1  2  1  0  0  0  0
  1 18  1  0  0  0  0
  1 19  1  0  0  0  0
  1 20  1  0  0  0  0
  2  3  1  0  0  0  0
  2  4  1  0  0  0  0
  2  5  1  0  0  0  0
  3 21  1  0  0  0  0
  3 22  1  0  0  0  0
  3 23  1  0  0  0  0
  4 24  1  0  0  0  0
  4 25  1  0  0  0  0
  4 26  1  0  0  0  0
  5  6  1  0  0  0  0
  5 27  1  0  0  0  0
  5 28  1  0  0  0  0
  6  7  2  0  0  0  0
  6  8  1  0  0  0  0
  8  9  1  0  0  0  0
  8 29  1  0  0  0  0
  9 17  1  0  0  0  0
  9 10  2  0  0  0  0
 10 11  1  0  0  0  0
 11 12  1  0  0  0  0
 11 16  2  0  0  0  0
 12 13  1  0  0  0  0
 12 30  1  0  0  0  0
 12 31  1  0  0  0  0
 13 14  1  0  0  0  0
 13 15  2  0  0  0  0
 14 32  1  0  0  0  0
 14 33  1  0  0  0  0
 16 17  1  0  0  0  0
 16 34  1  0  0  0  0
M  END
> <s_m_source_file>
AV-unprocessed.smi

> <i_m_source_file_index>
2056

> <i_lp_mmshare_version>
43012

> <i_f3d_flags>
0

> <s_epik_input>
W0NIM11DKFtDSDNdKShbQ0gzXSlbQ0gyXUMoPU8pW05IXWMxbmMoW2NIXXMxKVtDSDJdQyg9TylbTkgyXQ==

> <s_epik_cmdline>
J2VwaWtfcHl0aG9uJywgJy1waCcsICc3LjAnLCAnLXRuJywgJzgnLCAnLW1hJywgJzIwMCcsICctbWV0YWxfYmluZGluZycsICctaW1hZScsICc8aW5maWxlLm1hZT4nLCAnLW9tYWUnLCAnPG91dGZpbGUubWFlPic=

> <r_lp_tautomer_probability>
1

> <r_epik_Ionization_Penalty>
0.000211791

> <r_epik_Ionization_Penalty_Charging>
0

> <r_epik_Ionization_Penalty_Neutral>
0.000211791

> <r_epik_State_Penalty>
-0

> <r_epik_Charging_Adjusted_Penalty>
0

> <i_epik_Tot_Q>
0

> <i_epik_Tot_abs_Q>
0

> <r_epik_Metal_State_Penalty>
0.129621

> <b_epik_Metal_Only>
0

> <s_lp_Force_Field>
OPLS_2005

> <r_lp_Energy>
3.85365

> <b_lp_Chiralities_Consistent>
1

> <s_lp_Variant>
AV-unprocessed.smi:2056-1

> <Gold.Version>
5.8.1

> <Gold.Id.Protein>
6NUR|6NUR_protein|mol2

> <Gold.PLP.Fitness>
44.8751

> <Gold.PLP.PLP>
-37.9923

> <Gold.PLP.part.hbond>
-2.9569

> <Gold.PLP.part.metal>
0.0000

> <Gold.PLP.part.buried>
-5.3112

> <Gold.PLP.part.nonpolar>
-31.8826

> <Gold.PLP.part.repulsive>
0.7134

> <Gold.PLP.ligand.clash>
0.0000

> <Gold.PLP.ligand.torsion>
0.1837

> <Gold.PLP.Chemscore.Hbond>
2.4080

> <Gold.PLP.Chemscore.CHOScore>
0.0000

> <Gold.PLP.Chemscore.Metal>
0.0000

> <Gold.Chemscore.Hbonds>
donor molecule, donor type, donor heavy atom, donor atom, acceptor molecule, acceptor atom, score
      L1  H     8    29       P1  8028  0.98
      L1  H    14    32       P1  7948  0.46
      L1  H    14    33       P1  7957  1.00

> <Gold.PLP.Chemscore.Internal.Correction>
0.0262

> <Gold.Rescore>
     Score         DG    S(hbond)    S(metal)    S(lipo)     H(rot)  DE(clash)    DE(int)     intcor
     17.17     -17.59       2.69        0.00      74.83       2.20       0.01       0.41       ----

> <Gold.Chemscore.Fitness>
17.1682

> <Gold.Chemscore.DG>
-17.5871

> <Gold.Chemscore.ZeroCoef>
-5.4800

> <Gold.Chemscore.Hbond>
2.6891

> <Gold.Chemscore.Metal>
0.0000

> <Gold.Chemscore.Lipo>
74.8301

> <Gold.Chemscore.Internal_Hbond>
0.0000

> <Gold.Chemscore.DEClash>
0.0060

> <Gold.Chemscore.DEInternal>
0.4129

> <Gold.Chemscore.Rot>
2.1991

> <Gold.Chemscore.Internal.Correction>
   9.000000E+99

> <Gold.Chemscore.Hbonds>
donor molecule, donor type, donor heavy atom, donor atom, acceptor molecule, acceptor atom, score
      L1  H     8    29       P1  8028  0.93
      L1  H    14    32       P1  7948  0.46
      L1  H    14    33       P1  7957  0.90

> <Gold.Chemscore.Hbond.Weighted>
-8.9816

> <Gold.Chemscore.Metal.Weighted>
-0.0000

> <Gold.Chemscore.Lipo.Weighted>
-8.7551

> <Gold.Chemscore.Internal_Hbond.Weighted>
0.0000

> <Gold.Chemscore.DEClash.Weighted>
0.0060

> <Gold.Chemscore.DEInternal.Weighted>
0.4129

> <Gold.Chemscore.Rot.Weighted>
5.6297

> <Gold.Chemscore.Internal.Correction.Weighted>
   9.000000E+99

> <Gold.Protein.RotatedTorsions>
[ 6907 6896 6895 6894 ] final -156.89 input  -60.11 | X-H torsion
[ 7974 7965 7964 7962 ] final   28.24 input  175.53 | X-H torsion
[ 8008 7997 7996 7995 ] final    2.94 input   59.86 | X-H torsion
[ 10167 10162 10161 10158 ] final   -8.44 input  -65.29 | X-H torsion
[ 10718 10713 10712 10709 ] final -127.05 input   66.30 | X-H torsion
[ 10763 10752 10751 10750 ] final -175.46 input  -60.55 | X-H torsion
[ 11005 11000 10999 10996 ] final    2.11 input  -57.11 | X-H torsion

> <Gold.Protein.ActiveResidues>
 VAL166  LYS551  ARG553  GLY616  TRP617  ASP618  TYR619  PRO620  LYS621  CYS622 
 ASP623  PHE694  ASN695  SER759  ASP760  ASP761  ALA762  ILE779  LEU786  VAL792 
 PHE793  MET794  SER795  GLU796  ALA797  LYS798  CYS799  TRP800  GLU811  SER814 

> <Gold.Protein.RotatedAtoms>
  151.2945  133.4150  159.2635 H   0  0  0  0  0  0  0  0  0  0  0  0  # atno 6907 bound_to 6896
  151.0249  134.9497  159.8090 H   0  0  0  0  0  0  0  0  0  0  0  0  # atno 6908 bound_to 6896
  152.5332  134.2907  159.9094 H   0  0  0  0  0  0  0  0  0  0  0  0  # atno 6909 bound_to 6896
  146.1740  139.7083  142.8947 H   0  0  0  0  0  0  0  0  0  0  0  0  # atno 7974 bound_to 7965
  154.6977  140.2666  155.6750 H   0  0  0  0  0  0  0  0  0  0  0  0  # atno 8008 bound_to 7997
  156.2754  140.2778  156.1500 H   0  0  0  0  0  0  0  0  0  0  0  0  # atno 8009 bound_to 7997
  155.0809  140.0372  157.2629 H   0  0  0  0  0  0  0  0  0  0  0  0  # atno 8010 bound_to 7997
  140.7059  143.5968  150.8838 H   0  0  0  0  0  0  0  0  0  0  0  0  # atno 10167 bound_to 10162
  156.1821  130.6739  151.0318 H   0  0  0  0  0  0  0  0  0  0  0  0  # atno 10718 bound_to 10713
  154.5841  135.2839  155.0703 H   0  0  0  0  0  0  0  0  0  0  0  0  # atno 10763 bound_to 10752
  154.2028  135.6421  153.5096 H   0  0  0  0  0  0  0  0  0  0  0  0  # atno 10764 bound_to 10752
  153.0098  135.5473  154.6504 H   0  0  0  0  0  0  0  0  0  0  0  0  # atno 10765 bound_to 10752
  140.6080  133.9775  155.8163 H   0  0  0  0  0  0  0  0  0  0  0  0  # atno 11005 bound_to 11000
  145.4263  141.0411  143.2936 LP  0  0  0  0  0  0  0  0  0  0  0  0  # atno 17320 bound_to 7965
  144.8207  139.5797  143.6988 LP  0  0  0  0  0  0  0  0  0  0  0  0  # atno 17321 bound_to 7965
  139.9693  143.6075  152.2978 LP  0  0  0  0  0  0  0  0  0  0  0  0  # atno 17342 bound_to 10162
  139.6656  144.7662  151.1880 LP  0  0  0  0  0  0  0  0  0  0  0  0  # atno 17343 bound_to 10162
  157.6875  131.0820  150.7201 LP  0  0  0  0  0  0  0  0  0  0  0  0  # atno 17370 bound_to 10713
  156.7258  130.4694  149.5511 LP  0  0  0  0  0  0  0  0  0  0  0  0  # atno 17371 bound_to 10713
  141.0828  134.0037  157.3360 LP  0  0  0  0  0  0  0  0  0  0  0  0  # atno 17394 bound_to 11000
  139.9204  135.0200  156.8043 LP  0  0  0  0  0  0  0  0  0  0  0  0  # atno 17395 bound_to 11000

$$$$
