AV-unprocessed.smi:2440|AV-procd|sdf|9618|dock5
  -GOLD-   2272013253D 1   1.00000     0.00000
 Structure written by MMmdl.
 53 55  0  0  0  0  0  0  0  0  3 V2000
  152.0105  144.4133  159.2323 C   0  0  0  0  0  0  0  0  0  0  0  0
  152.4570  143.0051  159.5861 C   0  0  0  0  0  0  0  0  0  0  0  0
  153.3194  142.8044  160.6862 C   0  0  0  0  0  0  0  0  0  0  0  0
  153.7265  141.5591  161.0108 N   0  3  0  0  0  0  0  0  0  0  0  0
  153.3480  140.4642  160.3193 C   0  0  0  0  0  0  0  0  0  0  0  0
  152.4885  140.5960  159.2109 C   0  0  0  0  0  0  0  0  0  0  0  0
  152.0193  141.8818  158.8381 C   0  0  0  0  0  0  0  0  0  0  0  0
  151.1676  142.0967  157.7176 N   0  0  0  0  0  0  0  0  0  0  0  0
  150.1361  141.3447  157.2966 C   0  0  0  0  0  0  0  0  0  0  0  0
  149.7327  140.3223  157.8507 O   0  0  0  0  0  0  0  0  0  0  0  0
  149.5769  141.8626  156.1929 N   0  0  0  0  0  0  0  0  0  0  0  0
  148.4329  141.3063  155.4741 C   0  0  2  0  0  0  0  0  0  0  0  0
  148.2656  142.0227  154.1214 C   0  0  0  0  0  0  0  0  0  0  0  0
  146.9731  141.5723  153.4136 C   0  0  0  0  0  0  0  0  0  0  0  0
  145.7680  141.8090  154.2601 N   0  3  2  0  0  0  0  0  0  0  0  0
  145.3666  143.2488  154.4310 C   0  0  0  0  0  0  0  0  0  0  0  0
  144.0158  143.3854  155.1850 C   0  0  0  0  0  0  0  0  0  0  0  0
  143.5465  144.8429  155.3157 C   0  0  0  0  0  0  0  0  0  0  0  0
  143.4427  145.5214  153.9470 C   0  0  0  0  0  0  0  0  0  0  0  0
  144.7861  145.4459  153.2162 C   0  0  0  0  0  0  0  0  0  0  0  0
  145.2652  143.9928  153.0714 C   0  0  0  0  0  0  0  0  0  0  0  0
  145.9056  141.0285  155.5243 C   0  0  0  0  0  0  0  0  0  0  0  0
  147.1560  141.4445  156.3245 C   0  0  0  0  0  0  0  0  0  0  0  0
  152.4407  145.1482  159.9134 H   0  0  0  0  0  0  0  0  0  0  0  0
  150.9248  144.4946  159.2919 H   0  0  0  0  0  0  0  0  0  0  0  0
  152.3218  144.6706  158.2195 H   0  0  0  0  0  0  0  0  0  0  0  0
  153.6970  143.5987  161.3138 H   0  0  0  0  0  0  0  0  0  0  0  0
  153.7461  139.5219  160.6664 H   0  0  0  0  0  0  0  0  0  0  0  0
  152.2158  139.7091  158.6593 H   0  0  0  0  0  0  0  0  0  0  0  0
  151.3209  142.9601  157.2174 H   0  0  0  0  0  0  0  0  0  0  0  0
  149.9750  142.7112  155.8175 H   0  0  0  0  0  0  0  0  0  0  0  0
  148.5888  140.2453  155.2698 H   0  0  0  0  0  0  0  0  0  0  0  0
  148.2557  143.1040  154.2628 H   0  0  0  0  0  0  0  0  0  0  0  0
  149.1247  141.8092  153.4839 H   0  0  0  0  0  0  0  0  0  0  0  0
  146.8847  142.0256  152.4287 H   0  0  0  0  0  0  0  0  0  0  0  0
  147.0391  140.5022  153.2117 H   0  0  0  0  0  0  0  0  0  0  0  0
  146.1287  143.7544  155.0241 H   0  0  0  0  0  0  0  0  0  0  0  0
  143.2483  142.8026  154.6740 H   0  0  0  0  0  0  0  0  0  0  0  0
  144.0873  142.9903  156.1967 H   0  0  0  0  0  0  0  0  0  0  0  0
  142.5798  144.8772  155.8190 H   0  0  0  0  0  0  0  0  0  0  0  0
  144.2425  145.3967  155.9472 H   0  0  0  0  0  0  0  0  0  0  0  0
  142.6677  145.0381  153.3505 H   0  0  0  0  0  0  0  0  0  0  0  0
  143.1403  146.5621  154.0671 H   0  0  0  0  0  0  0  0  0  0  0  0
  144.6975  145.9067  152.2319 H   0  0  0  0  0  0  0  0  0  0  0  0
  145.5327  146.0250  153.7614 H   0  0  0  0  0  0  0  0  0  0  0  0
  146.2326  144.0341  152.5736 H   0  0  0  0  0  0  0  0  0  0  0  0
  144.5902  143.4538  152.4051 H   0  0  0  0  0  0  0  0  0  0  0  0
  145.0122  141.0776  156.1422 H   0  0  0  0  0  0  0  0  0  0  0  0
  145.9940  139.9735  155.2604 H   0  0  0  0  0  0  0  0  0  0  0  0
  147.2405  140.8239  157.2176 H   0  0  0  0  0  0  0  0  0  0  0  0
  147.0462  142.4696  156.6797 H   0  0  0  0  0  0  0  0  0  0  0  0
  144.9996  141.3844  153.7602 H   0  0  0  0  0  0  0  0  0  0  0  0
  154.3507  141.4412  161.8094 H   0  0  0  0  0  0  0  0  0  0  0  0
  1  2  1  0  0  0  0
  1 24  1  0  0  0  0
  1 25  1  0  0  0  0
  1 26  1  0  0  0  0
  2  7  1  0  0  0  0
  2  3  2  0  0  0  0
  3  4  1  0  0  0  0
  3 27  1  0  0  0  0
  4  5  2  0  0  0  0
  4 53  1  0  0  0  0
  5  6  1  0  0  0  0
  5 28  1  0  0  0  0
  6  7  2  0  0  0  0
  6 29  1  0  0  0  0
  7  8  1  0  0  0  0
  8  9  1  0  0  0  0
  8 30  1  0  0  0  0
  9 10  2  0  0  0  0
  9 11  1  0  0  0  0
 11 12  1  0  0  0  0
 11 31  1  0  0  0  0
 12 23  1  0  0  0  0
 12 13  1  0  0  0  0
 12 32  1  0  0  0  0
 13 14  1  0  0  0  0
 13 33  1  0  0  0  0
 13 34  1  0  0  0  0
 14 15  1  0  0  0  0
 14 35  1  0  0  0  0
 14 36  1  0  0  0  0
 15 16  1  0  0  0  0
 15 22  1  0  0  0  0
 15 52  1  0  0  0  0
 16 21  1  0  0  0  0
 16 17  1  0  0  0  0
 16 37  1  0  0  0  0
 17 18  1  0  0  0  0
 17 38  1  0  0  0  0
 17 39  1  0  0  0  0
 18 19  1  0  0  0  0
 18 40  1  0  0  0  0
 18 41  1  0  0  0  0
 19 20  1  0  0  0  0
 19 42  1  0  0  0  0
 19 43  1  0  0  0  0
 20 21  1  0  0  0  0
 20 44  1  0  0  0  0
 20 45  1  0  0  0  0
 21 46  1  0  0  0  0
 21 47  1  0  0  0  0
 22 23  1  0  0  0  0
 22 48  1  0  0  0  0
 22 49  1  0  0  0  0
 23 50  1  0  0  0  0
 23 51  1  0  0  0  0
M  CHG  1   4   1
M  CHG  1  15   1
M  END
> <s_m_source_file>
AV-unprocessed.smi

> <i_m_source_file_index>
2440

> <i_lp_mmshare_version>
43012

> <i_f3d_flags>
0

> <s_epik_input>
W0NIM11jMVtjSF1uW2NIXVtjSF1jMVtOSF1DKD1PKVtOSF1bQ0hdMltDSDJdW0NIMl1OKFtDSDJdW0NIMl0yKVtDSF0zW0NIMl1bQ0gyXVtDSDJdW0NIMl1bQ0gyXTM=

> <s_epik_cmdline>
J2VwaWtfcHl0aG9uJywgJy1waCcsICc3LjAnLCAnLXRuJywgJzgnLCAnLW1hJywgJzIwMCcsICctbWV0YWxfYmluZGluZycsICctaW1hZScsICc8aW5maWxlLm1hZT4nLCAnLW9tYWUnLCAnPG91dGZpbGUubWFlPic=

> <r_epik_Ionization_Penalty>
0.799454

> <r_epik_Ionization_Penalty_Charging>
0.799436

> <r_epik_Ionization_Penalty_Neutral>
1.84398e-05

> <r_epik_State_Penalty>
0.81805

> <r_epik_Charging_Adjusted_Penalty>
1.61749

> <i_epik_Tot_Q>
2

> <i_epik_Tot_abs_Q>
2

> <r_epik_Metal_State_Penalty>
0.955144

> <b_epik_Metal_Only>
0

> <s_lp_Force_Field>
OPLS_2005

> <r_lp_Energy>
43.248

> <b_lp_Chiralities_Consistent>
1

> <s_lp_Variant>
AV-unprocessed.smi:2440-4

> <Gold.Version>
5.8.1

> <Gold.Id.Protein>
6NUR|6NUR_protein|mol2

> <Gold.PLP.Fitness>
48.8038

> <Gold.PLP.PLP>
-43.0721

> <Gold.PLP.part.hbond>
-1.9995

> <Gold.PLP.part.metal>
0.0000

> <Gold.PLP.part.buried>
-4.5808

> <Gold.PLP.part.nonpolar>
-37.7110

> <Gold.PLP.part.repulsive>
0.1518

> <Gold.PLP.ligand.clash>
0.0000

> <Gold.PLP.ligand.torsion>
0.4193

> <Gold.PLP.Chemscore.Hbond>
2.1747

> <Gold.PLP.Chemscore.CHOScore>
0.0000

> <Gold.PLP.Chemscore.Metal>
0.0000

> <Gold.Chemscore.Hbonds>
donor molecule, donor type, donor heavy atom, donor atom, acceptor molecule, acceptor atom, score
      L1  H    11    31       P1  8028  0.18
      L1  H    15    52       P1 10175  2.00

> <Gold.PLP.Chemscore.Internal.Correction>
0.0461

> <Gold.Rescore>
     Score         DG    S(hbond)    S(metal)    S(lipo)     H(rot)  DE(clash)    DE(int)     intcor
     18.24     -20.45       1.29        0.00     117.06       1.18       0.98       1.23       ----

> <Gold.Chemscore.Fitness>
18.2425

> <Gold.Chemscore.DG>
-20.4523

> <Gold.Chemscore.ZeroCoef>
-5.4800

> <Gold.Chemscore.Hbond>
1.2902

> <Gold.Chemscore.Metal>
0.0000

> <Gold.Chemscore.Lipo>
117.0553

> <Gold.Chemscore.Internal_Hbond>
0.0000

> <Gold.Chemscore.DEClash>
0.9758

> <Gold.Chemscore.DEInternal>
1.2341

> <Gold.Chemscore.Rot>
1.1846

> <Gold.Chemscore.Internal.Correction>
   9.000000E+99

> <Gold.Chemscore.Hbonds>
donor molecule, donor type, donor heavy atom, donor atom, acceptor molecule, acceptor atom, score
      L1  H    11    31       P1  8028  0.18
      L1  H    15    52       P1 10175  0.28

> <Gold.Chemscore.Hbond.Weighted>
-4.3094

> <Gold.Chemscore.Metal.Weighted>
-0.0000

> <Gold.Chemscore.Lipo.Weighted>
-13.6955

> <Gold.Chemscore.Internal_Hbond.Weighted>
0.0000

> <Gold.Chemscore.DEClash.Weighted>
0.9758

> <Gold.Chemscore.DEInternal.Weighted>
1.2341

> <Gold.Chemscore.Rot.Weighted>
3.0326

> <Gold.Chemscore.Internal.Correction.Weighted>
   9.000000E+99

> <Gold.Protein.RotatedTorsions>
[ 6907 6896 6895 6894 ] final  -85.70 input  -60.11 | X-H torsion
[ 7974 7965 7964 7962 ] final  161.89 input  175.53 | X-H torsion
[ 8008 7997 7996 7995 ] final  -89.16 input   59.86 | X-H torsion
[ 10167 10162 10161 10158 ] final  -37.83 input  -65.29 | X-H torsion
[ 10718 10713 10712 10709 ] final  -16.75 input   66.30 | X-H torsion
[ 10763 10752 10751 10750 ] final  -24.24 input  -60.55 | X-H torsion
[ 11005 11000 10999 10996 ] final  154.46 input  -57.11 | X-H torsion

> <Gold.Protein.ActiveResidues>
 VAL166  LYS551  ARG553  GLY616  TRP617  ASP618  TYR619  PRO620  LYS621  CYS622 
 ASP623  PHE694  ASN695  SER759  ASP760  ASP761  ALA762  ILE779  LEU786  VAL792 
 PHE793  MET794  SER795  GLU796  ALA797  LYS798  CYS799  TRP800  GLU811  SER814 

> <Gold.Protein.RotatedAtoms>
  150.6869  134.3164  159.4767 H   0  0  0  0  0  0  0  0  0  0  0  0  # atno 6907 bound_to 6896
  152.1044  134.9316  160.0578 H   0  0  0  0  0  0  0  0  0  0  0  0  # atno 6908 bound_to 6896
  152.0583  133.4015  159.4443 H   0  0  0  0  0  0  0  0  0  0  0  0  # atno 6909 bound_to 6896
  144.7663  139.7962  143.6314 H   0  0  0  0  0  0  0  0  0  0  0  0  # atno 7974 bound_to 7965
  154.6833  140.0545  157.0289 H   0  0  0  0  0  0  0  0  0  0  0  0  # atno 8008 bound_to 7997
  155.0920  140.3220  155.4552 H   0  0  0  0  0  0  0  0  0  0  0  0  # atno 8009 bound_to 7997
  156.2702  140.2046  156.6047 H   0  0  0  0  0  0  0  0  0  0  0  0  # atno 8010 bound_to 7997
  140.7108  143.3316  151.2556 H   0  0  0  0  0  0  0  0  0  0  0  0  # atno 10167 bound_to 10162
  156.5831  130.4779  149.6311 H   0  0  0  0  0  0  0  0  0  0  0  0  # atno 10718 bound_to 10713
  153.6807  135.6967  153.5119 H   0  0  0  0  0  0  0  0  0  0  0  0  # atno 10763 bound_to 10752
  153.2487  135.4282  155.0774 H   0  0  0  0  0  0  0  0  0  0  0  0  # atno 10764 bound_to 10752
  154.8401  135.3526  154.6350 H   0  0  0  0  0  0  0  0  0  0  0  0  # atno 10765 bound_to 10752
  140.1491  134.8687  157.2431 H   0  0  0  0  0  0  0  0  0  0  0  0  # atno 11005 bound_to 11000
  146.1774  139.4950  142.9889 LP  0  0  0  0  0  0  0  0  0  0  0  0  # atno 17320 bound_to 7965
  145.6459  141.0274  143.1786 LP  0  0  0  0  0  0  0  0  0  0  0  0  # atno 17321 bound_to 7965
  139.6800  143.9871  152.2803 LP  0  0  0  0  0  0  0  0  0  0  0  0  # atno 17342 bound_to 10162
  139.9498  144.6628  150.8183 LP  0  0  0  0  0  0  0  0  0  0  0  0  # atno 17343 bound_to 10162
  156.2614  130.6964  151.1734 LP  0  0  0  0  0  0  0  0  0  0  0  0  # atno 17370 bound_to 10713
  157.7322  131.0602  150.5642 LP  0  0  0  0  0  0  0  0  0  0  0  0  # atno 17371 bound_to 10713
  140.2627  134.3553  155.7401 LP  0  0  0  0  0  0  0  0  0  0  0  0  # atno 17394 bound_to 11000
  141.2196  133.7378  156.9104 LP  0  0  0  0  0  0  0  0  0  0  0  0  # atno 17395 bound_to 11000

$$$$
