AV-unprocessed.smi:1669|AV-procd|sdf|6686|dock10
  -GOLD-   22720 7413D 1   1.00000     0.00000
 Structure written by MMmdl.
 48 50  0  0  0  0  0  0  0  0  2 V2000
  146.1782  137.8850  152.7539 C   0  0  0  0  0  0  0  0  0  0  0  0
  147.3085  137.5941  153.6670 N   0  3  2  0  0  0  0  0  0  0  0  0
  146.9732  136.5638  154.6836 C   0  0  0  0  0  0  0  0  0  0  0  0
  147.7991  135.3029  154.5046 C   0  0  0  0  0  0  0  0  0  0  0  0
  147.2959  134.2375  153.7282 C   0  0  0  0  0  0  0  0  0  0  0  0
  148.0571  133.0649  153.5579 C   0  0  0  0  0  0  0  0  0  0  0  0
  149.3246  132.9537  154.1619 C   0  0  0  0  0  0  0  0  0  0  0  0
  149.8311  134.0158  154.9360 C   0  0  0  0  0  0  0  0  0  0  0  0
  149.0705  135.1889  155.1066 C   0  0  0  0  0  0  0  0  0  0  0  0
  147.8793  138.8305  154.2591 C   0  0  0  0  0  0  0  0  0  0  0  0
  149.4080  138.7406  154.4347 C   0  0  1  0  0  0  0  0  0  0  0  0
  149.9574  138.1106  153.2937 O   0  0  0  0  0  0  0  0  0  0  0  0
  150.0448  140.1328  154.6113 C   0  0  0  0  0  0  0  0  0  0  0  0
  150.9766  140.1823  155.7306 N   0  0  0  0  0  0  0  0  0  0  0  0
  152.0809  139.4233  155.9499 C   0  0  0  0  0  0  0  0  0  0  0  0
  152.5233  138.3549  154.9972 C   0  0  0  0  0  0  0  0  0  0  0  0
  152.2958  137.0542  155.4957 O   0  0  0  0  0  0  0  0  0  0  0  0
  152.7522  139.6884  157.0709 N   0  0  0  0  0  0  0  0  0  0  0  0
  152.0210  140.7185  157.6290 C   0  0  0  0  0  0  0  0  0  0  0  0
  152.2172  141.4415  158.8272 C   0  0  0  0  0  0  0  0  0  0  0  0
  151.3227  142.4676  159.1964 C   0  0  0  0  0  0  0  0  0  0  0  0
  150.2222  142.7856  158.3742 C   0  0  0  0  0  0  0  0  0  0  0  0
  150.0084  142.0777  157.1759 C   0  0  0  0  0  0  0  0  0  0  0  0
  150.9034  141.0533  156.8131 C   0  0  0  0  0  0  0  0  0  0  0  0
  145.3436  138.3321  153.2956 H   0  0  0  0  0  0  0  0  0  0  0  0
  145.8217  136.9801  152.2621 H   0  0  0  0  0  0  0  0  0  0  0  0
  146.4852  138.5767  151.9688 H   0  0  0  0  0  0  0  0  0  0  0  0
  147.1635  136.9378  155.6895 H   0  0  0  0  0  0  0  0  0  0  0  0
  145.9075  136.3321  154.6451 H   0  0  0  0  0  0  0  0  0  0  0  0
  146.3242  134.3162  153.2623 H   0  0  0  0  0  0  0  0  0  0  0  0
  147.6696  132.2503  152.9637 H   0  0  0  0  0  0  0  0  0  0  0  0
  149.9086  132.0545  154.0306 H   0  0  0  0  0  0  0  0  0  0  0  0
  150.8036  133.9301  155.3984 H   0  0  0  0  0  0  0  0  0  0  0  0
  149.4660  135.9987  155.7024 H   0  0  0  0  0  0  0  0  0  0  0  0
  147.6560  139.6891  153.6230 H   0  0  0  0  0  0  0  0  0  0  0  0
  147.3913  139.0286  155.2148 H   0  0  0  0  0  0  0  0  0  0  0  0
  149.6554  138.1314  155.3035 H   0  0  0  0  0  0  0  0  0  0  0  0
  149.8055  138.6641  152.5420 H   0  0  0  0  0  0  0  0  0  0  0  0
  150.5486  140.4435  153.6962 H   0  0  0  0  0  0  0  0  0  0  0  0
  149.2662  140.8751  154.7918 H   0  0  0  0  0  0  0  0  0  0  0  0
  151.9818  138.4648  154.0568 H   0  0  0  0  0  0  0  0  0  0  0  0
  153.5807  138.4779  154.7640 H   0  0  0  0  0  0  0  0  0  0  0  0
  152.5104  137.0425  156.4155 H   0  0  0  0  0  0  0  0  0  0  0  0
  153.0577  141.2065  159.4633 H   0  0  0  0  0  0  0  0  0  0  0  0
  151.4825  143.0140  160.1144 H   0  0  0  0  0  0  0  0  0  0  0  0
  149.5432  143.5740  158.6645 H   0  0  0  0  0  0  0  0  0  0  0  0
  149.1669  142.3201  156.5445 H   0  0  0  0  0  0  0  0  0  0  0  0
  148.0421  137.2059  153.0905 H   0  0  0  0  0  0  0  0  0  0  0  0
  1  2  1  0  0  0  0
  1 25  1  0  0  0  0
  1 26  1  0  0  0  0
  1 27  1  0  0  0  0
  2  3  1  0  0  0  0
  2 10  1  0  0  0  0
  2 48  1  0  0  0  0
  3  4  1  0  0  0  0
  3 28  1  0  0  0  0
  3 29  1  0  0  0  0
  4  9  1  0  0  0  0
  4  5  2  0  0  0  0
  5  6  1  0  0  0  0
  5 30  1  0  0  0  0
  6  7  2  0  0  0  0
  6 31  1  0  0  0  0
  7  8  1  0  0  0  0
  7 32  1  0  0  0  0
  8  9  2  0  0  0  0
  8 33  1  0  0  0  0
  9 34  1  0  0  0  0
 10 11  1  0  0  0  0
 10 35  1  0  0  0  0
 10 36  1  0  0  0  0
 11 12  1  0  0  0  0
 11 13  1  0  0  0  0
 11 37  1  0  0  0  0
 12 38  1  0  0  0  0
 13 14  1  0  0  0  0
 13 39  1  0  0  0  0
 13 40  1  0  0  0  0
 14 24  1  0  0  0  0
 14 15  1  0  0  0  0
 15 16  1  0  0  0  0
 15 18  2  0  0  0  0
 16 17  1  0  0  0  0
 16 41  1  0  0  0  0
 16 42  1  0  0  0  0
 17 43  1  0  0  0  0
 18 19  1  0  0  0  0
 19 24  2  0  0  0  0
 19 20  1  0  0  0  0
 20 21  2  0  0  0  0
 20 44  1  0  0  0  0
 21 22  1  0  0  0  0
 21 45  1  0  0  0  0
 22 23  2  0  0  0  0
 22 46  1  0  0  0  0
 23 24  1  0  0  0  0
 23 47  1  0  0  0  0
M  CHG  1   2   1
M  END
> <s_m_source_file>
AV-unprocessed.smi

> <i_m_source_file_index>
1669

> <i_lp_mmshare_version>
43012

> <i_f3d_flags>
0

> <s_epik_input>
W2NIXTFbY0hdW2NIXVtjSF1bY0hdYzFbQ0gyXU4oW0NIM10pW0NIMl1bQ0BIXShbT0hdKVtDSDJdbihjKG4yKVtDSDJdW09IXSljKGMyMylbY0hdW2NIXVtjSF1bY0hdMw==

> <s_epik_cmdline>
J2VwaWtfcHl0aG9uJywgJy1waCcsICc3LjAnLCAnLXRuJywgJzgnLCAnLW1hJywgJzIwMCcsICctbWV0YWxfYmluZGluZycsICctaW1hZScsICc8aW5maWxlLm1hZT4nLCAnLW9tYWUnLCAnPG91dGZpbGUubWFlPic=

> <r_epik_Ionization_Penalty>
0.0949884

> <r_epik_Ionization_Penalty_Charging>
0.0475377

> <r_epik_Ionization_Penalty_Neutral>
0.0474507

> <r_epik_State_Penalty>
0.078247

> <r_epik_Charging_Adjusted_Penalty>
0.125785

> <i_epik_Tot_Q>
1

> <i_epik_Tot_abs_Q>
1

> <r_epik_Metal_State_Penalty>
0.0403451

> <b_epik_Metal_Only>
0

> <s_lp_Force_Field>
OPLS_2005

> <r_lp_Energy>
16.6823

> <b_lp_Chiralities_Consistent>
1

> <s_lp_Variant>
AV-unprocessed.smi:1669-4

> <Gold.Version>
5.8.1

> <Gold.Id.Protein>
6NUR|6NUR_protein|mol2

> <Gold.PLP.Fitness>
51.1797

> <Gold.PLP.PLP>
-41.5821

> <Gold.PLP.part.hbond>
-5.8180

> <Gold.PLP.part.metal>
0.0000

> <Gold.PLP.part.buried>
1.2354

> <Gold.PLP.part.nonpolar>
-35.6280

> <Gold.PLP.part.repulsive>
0.0036

> <Gold.PLP.ligand.clash>
0.0000

> <Gold.PLP.ligand.torsion>
2.4933

> <Gold.PLP.Chemscore.Hbond>
4.7680

> <Gold.PLP.Chemscore.CHOScore>
0.0000

> <Gold.PLP.Chemscore.Metal>
0.0000

> <Gold.Chemscore.Hbonds>
donor molecule, donor type, donor heavy atom, donor atom, acceptor molecule, acceptor atom, score
      L1  H     2    48       P1  7948  2.00
      L1  H    12    38       P1  7957  1.00
      P1  H  7997  8008       L1    18  0.95
      P1  H 10752 10765       L1    17  0.85

> <Gold.PLP.Chemscore.Internal.Correction>
0.2802

> <Gold.Rescore>
     Score         DG    S(hbond)    S(metal)    S(lipo)     H(rot)  DE(clash)    DE(int)     intcor
     14.76     -18.14       2.66        0.00     101.83       3.17       0.93       2.45       ----

> <Gold.Chemscore.Fitness>
14.7569

> <Gold.Chemscore.DG>
-18.1394

> <Gold.Chemscore.ZeroCoef>
-5.4800

> <Gold.Chemscore.Hbond>
2.6551

> <Gold.Chemscore.Metal>
0.0000

> <Gold.Chemscore.Lipo>
101.8325

> <Gold.Chemscore.Internal_Hbond>
0.0000

> <Gold.Chemscore.DEClash>
0.9285

> <Gold.Chemscore.DEInternal>
2.4541

> <Gold.Chemscore.Rot>
3.1731

> <Gold.Chemscore.Internal.Correction>
   9.000000E+99

> <Gold.Chemscore.Hbonds>
donor molecule, donor type, donor heavy atom, donor atom, acceptor molecule, acceptor atom, score
      L1  H     2    48       P1  7948  1.00
      L1  H    12    38       P1  7957  0.44
      P1  H  7997  8008       L1    18  0.19
      P1  H 10752 10765       L1    17  0.47

> <Gold.Chemscore.Hbond.Weighted>
-8.8681

> <Gold.Chemscore.Metal.Weighted>
-0.0000

> <Gold.Chemscore.Lipo.Weighted>
-11.9144

> <Gold.Chemscore.Internal_Hbond.Weighted>
0.0000

> <Gold.Chemscore.DEClash.Weighted>
0.9285

> <Gold.Chemscore.DEInternal.Weighted>
2.4541

> <Gold.Chemscore.Rot.Weighted>
8.1230

> <Gold.Chemscore.Internal.Correction.Weighted>
   9.000000E+99

> <Gold.Protein.RotatedTorsions>
[ 6907 6896 6895 6894 ] final -109.45 input  -60.11 | X-H torsion
[ 7974 7965 7964 7962 ] final   -5.10 input  175.53 | X-H torsion
[ 8008 7997 7996 7995 ] final  -41.87 input   59.86 | X-H torsion
[ 10167 10162 10161 10158 ] final  118.08 input  -65.29 | X-H torsion
[ 10718 10713 10712 10709 ] final   78.73 input   66.30 | X-H torsion
[ 10763 10752 10751 10750 ] final -167.90 input  -60.55 | X-H torsion
[ 11005 11000 10999 10996 ] final   14.71 input  -57.11 | X-H torsion

> <Gold.Protein.ActiveResidues>
 VAL166  LYS551  ARG553  GLY616  TRP617  ASP618  TYR619  PRO620  LYS621  CYS622 
 ASP623  PHE694  ASN695  SER759  ASP760  ASP761  ALA762  ILE779  LEU786  VAL792 
 PHE793  MET794  SER795  GLU796  ALA797  LYS798  CYS799  TRP800  GLU811  SER814 

> <Gold.Protein.RotatedAtoms>
  150.7563  133.9527  159.3490 H   0  0  0  0  0  0  0  0  0  0  0  0  # atno 6907 bound_to 6896
  151.7446  135.0844  160.0330 H   0  0  0  0  0  0  0  0  0  0  0  0  # atno 6908 bound_to 6896
  152.3506  133.6138  159.5978 H   0  0  0  0  0  0  0  0  0  0  0  0  # atno 6909 bound_to 6896
  146.2359  140.1970  142.8333 H   0  0  0  0  0  0  0  0  0  0  0  0  # atno 7974 bound_to 7965
  154.4001  140.1488  156.3261 H   0  0  0  0  0  0  0  0  0  0  0  0  # atno 8008 bound_to 7997
  155.8486  140.3459  155.5657 H   0  0  0  0  0  0  0  0  0  0  0  0  # atno 8009 bound_to 7997
  155.8009  140.0870  157.1948 H   0  0  0  0  0  0  0  0  0  0  0  0  # atno 8010 bound_to 7997
  139.6136  144.7087  151.2790 H   0  0  0  0  0  0  0  0  0  0  0  0  # atno 10167 bound_to 10162
  157.6754  130.9881  150.1828 H   0  0  0  0  0  0  0  0  0  0  0  0  # atno 10718 bound_to 10713
  154.6684  135.2935  154.9775 H   0  0  0  0  0  0  0  0  0  0  0  0  # atno 10763 bound_to 10752
  154.0810  135.6604  153.4842 H   0  0  0  0  0  0  0  0  0  0  0  0  # atno 10764 bound_to 10752
  153.0471  135.5197  154.7668 H   0  0  0  0  0  0  0  0  0  0  0  0  # atno 10765 bound_to 10752
  140.4665  134.1075  155.7725 H   0  0  0  0  0  0  0  0  0  0  0  0  # atno 11005 bound_to 11000
  144.9812  140.8461  143.5396 LP  0  0  0  0  0  0  0  0  0  0  0  0  # atno 17320 bound_to 7965
  145.1964  139.2274  143.5216 LP  0  0  0  0  0  0  0  0  0  0  0  0  # atno 17321 bound_to 7965
  140.7335  143.6791  150.8016 LP  0  0  0  0  0  0  0  0  0  0  0  0  # atno 17342 bound_to 10162
  140.0390  143.5365  152.2726 LP  0  0  0  0  0  0  0  0  0  0  0  0  # atno 17343 bound_to 10162
  156.2557  130.3705  149.8184 LP  0  0  0  0  0  0  0  0  0  0  0  0  # atno 17370 bound_to 10713
  156.5944  130.8520  151.3416 LP  0  0  0  0  0  0  0  0  0  0  0  0  # atno 17371 bound_to 10713
  141.1597  133.8816  157.1881 LP  0  0  0  0  0  0  0  0  0  0  0  0  # atno 17394 bound_to 11000
  139.9912  135.0064  156.9980 LP  0  0  0  0  0  0  0  0  0  0  0  0  # atno 17395 bound_to 11000

$$$$
