AV-unprocessed.smi:3105|AV-procd|sdf|11821|dock4
  -GOLD-   2272017193D 1   1.00000     0.00000
 Structure written by MMmdl.
 34 34  0  0  0  0  0  0  0  0  2 V2000
  151.5477  140.5536  157.7592 C   0  0  0  0  0  0  0  0  0  0  0  0
  150.9887  141.9924  157.7523 C   0  0  2  0  0  0  0  0  0  0  0  0
  150.4711  142.3283  156.4061 N   0  3  0  0  0  0  0  0  0  0  0  0
  149.5791  141.3163  155.7963 C   0  0  0  0  0  0  0  0  0  0  0  0
  150.3204  140.4374  154.7690 C   0  0  0  0  0  0  0  0  0  0  0  0
  149.6333  139.1000  154.4599 C   0  0  0  0  0  0  0  0  0  0  0  0
  149.4443  138.8098  153.1706 N   0  0  0  0  0  0  0  0  0  0  0  0
  149.2782  138.3384  155.3580 O   0  0  0  0  0  0  0  0  0  0  0  0
  152.0406  143.0490  158.1855 C   0  0  1  0  0  0  0  0  0  0  0  0
  151.6146  144.4870  157.8301 C   0  0  0  0  0  0  0  0  0  0  0  0
  152.3634  142.9598  159.6045 N   0  0  0  0  0  0  0  0  0  0  0  0
  152.1580  143.9061  160.5876 C   0  0  0  0  0  0  0  0  0  0  0  0
  152.6189  143.3828  161.7615 C   0  0  0  0  0  0  0  0  0  0  0  0
  153.0936  142.0932  161.3937 C   0  0  0  0  0  0  0  0  0  0  0  0
  152.9405  141.8428  160.1036 N   0  0  0  0  0  0  0  0  0  0  0  0
  151.8739  140.2498  158.7539 H   0  0  0  0  0  0  0  0  0  0  0  0
  152.4020  140.4608  157.0877 H   0  0  0  0  0  0  0  0  0  0  0  0
  150.8012  139.8252  157.4447 H   0  0  0  0  0  0  0  0  0  0  0  0
  150.1572  142.0389  158.4575 H   0  0  0  0  0  0  0  0  0  0  0  0
  149.9413  143.1846  156.4858 H   0  0  0  0  0  0  0  0  0  0  0  0
  149.1339  140.6864  156.5667 H   0  0  0  0  0  0  0  0  0  0  0  0
  148.7549  141.8311  155.3010 H   0  0  0  0  0  0  0  0  0  0  0  0
  150.4119  140.9911  153.8338 H   0  0  0  0  0  0  0  0  0  0  0  0
  151.3374  140.2413  155.1113 H   0  0  0  0  0  0  0  0  0  0  0  0
  149.0028  137.9414  152.9040 H   0  0  0  0  0  0  0  0  0  0  0  0
  149.7504  139.4603  152.4610 H   0  0  0  0  0  0  0  0  0  0  0  0
  152.9654  142.8396  157.6453 H   0  0  0  0  0  0  0  0  0  0  0  0
  151.4876  144.6146  156.7552 H   0  0  0  0  0  0  0  0  0  0  0  0
  152.3667  145.2077  158.1534 H   0  0  0  0  0  0  0  0  0  0  0  0
  150.6724  144.7564  158.3087 H   0  0  0  0  0  0  0  0  0  0  0  0
  151.7074  144.8641  160.3732 H   0  0  0  0  0  0  0  0  0  0  0  0
  152.6171  143.8501  162.7351 H   0  0  0  0  0  0  0  0  0  0  0  0
  153.5423  141.3372  162.0213 H   0  0  0  0  0  0  0  0  0  0  0  0
  151.2543  142.4930  155.7894 H   0  0  0  0  0  0  0  0  0  0  0  0
  1  2  1  0  0  0  0
  1 16  1  0  0  0  0
  1 17  1  0  0  0  0
  1 18  1  0  0  0  0
  2  3  1  0  0  0  0
  2  9  1  0  0  0  0
  2 19  1  0  0  0  0
  3  4  1  0  0  0  0
  3 20  1  0  0  0  0
  3 34  1  0  0  0  0
  4  5  1  0  0  0  0
  4 21  1  0  0  0  0
  4 22  1  0  0  0  0
  5  6  1  0  0  0  0
  5 23  1  0  0  0  0
  5 24  1  0  0  0  0
  6  7  1  0  0  0  0
  6  8  2  0  0  0  0
  7 25  1  0  0  0  0
  7 26  1  0  0  0  0
  9 10  1  0  0  0  0
  9 11  1  0  0  0  0
  9 27  1  0  0  0  0
 10 28  1  0  0  0  0
 10 29  1  0  0  0  0
 10 30  1  0  0  0  0
 11 15  1  0  0  0  0
 11 12  1  0  0  0  0
 12 13  2  0  0  0  0
 12 31  1  0  0  0  0
 13 14  1  0  0  0  0
 13 32  1  0  0  0  0
 14 15  2  0  0  0  0
 14 33  1  0  0  0  0
M  CHG  1   3   1
M  END
> <s_m_source_file>
AV-unprocessed.smi

> <i_m_source_file_index>
3105

> <i_lp_mmshare_version>
43012

> <i_f3d_flags>
0

> <s_epik_input>
W05IMl1DKD1PKVtDSDJdW0NIMl1bTkhdW0NAQEhdKFtDSDNdKVtDQEhdKFtDSDNdKW4xW2NIXVtjSF1bY0hdbjE=

> <s_epik_cmdline>
J2VwaWtfcHl0aG9uJywgJy1waCcsICc3LjAnLCAnLXRuJywgJzgnLCAnLW1hJywgJzIwMCcsICctbWV0YWxfYmluZGluZycsICctaW1hZScsICc8aW5maWxlLm1hZT4nLCAnLW9tYWUnLCAnPG91dGZpbGUubWFlPic=

> <r_lp_tautomer_probability>
1

> <r_epik_Ionization_Penalty>
0.00475669

> <r_epik_Ionization_Penalty_Charging>
0.00474654

> <r_epik_Ionization_Penalty_Neutral>
1.01546e-05

> <r_epik_State_Penalty>
-0

> <r_epik_Charging_Adjusted_Penalty>
0.00474654

> <i_epik_Tot_Q>
1

> <i_epik_Tot_abs_Q>
1

> <r_epik_Metal_State_Penalty>
-0

> <b_epik_Metal_Only>
0

> <s_lp_Force_Field>
OPLS_2005

> <r_lp_Energy>
6.92169

> <b_lp_Chiralities_Consistent>
1

> <s_lp_Variant>
AV-unprocessed.smi:3105-3

> <Gold.Version>
5.8.1

> <Gold.Id.Protein>
6NUR|6NUR_protein|mol2

> <Gold.PLP.Fitness>
47.3408

> <Gold.PLP.PLP>
-36.8045

> <Gold.PLP.part.hbond>
-2.8279

> <Gold.PLP.part.metal>
0.0000

> <Gold.PLP.part.buried>
-3.3141

> <Gold.PLP.part.nonpolar>
-30.4340

> <Gold.PLP.part.repulsive>
0.2457

> <Gold.PLP.ligand.clash>
0.0000

> <Gold.PLP.ligand.torsion>
0.7935

> <Gold.PLP.Chemscore.Hbond>
3.9760

> <Gold.PLP.Chemscore.CHOScore>
0.0000

> <Gold.PLP.Chemscore.Metal>
0.0000

> <Gold.Chemscore.Hbonds>
donor molecule, donor type, donor heavy atom, donor atom, acceptor molecule, acceptor atom, score
      L1  H     3    20       P1  8028  1.98
      L1  H     7    25       P1  7948  1.00
      L1  H     7    26       P1  7957  0.73

> <Gold.PLP.Chemscore.Internal.Correction>
0.1953

> <Gold.Rescore>
     Score         DG    S(hbond)    S(metal)    S(lipo)     H(rot)  DE(clash)    DE(int)     intcor
     16.33     -17.33       2.70        0.00      86.45       2.85       0.09       0.91       ----

> <Gold.Chemscore.Fitness>
16.3328

> <Gold.Chemscore.DG>
-17.3324

> <Gold.Chemscore.ZeroCoef>
-5.4800

> <Gold.Chemscore.Hbond>
2.7027

> <Gold.Chemscore.Metal>
0.0000

> <Gold.Chemscore.Lipo>
86.4492

> <Gold.Chemscore.Internal_Hbond>
0.0000

> <Gold.Chemscore.DEClash>
0.0901

> <Gold.Chemscore.DEInternal>
0.9095

> <Gold.Chemscore.Rot>
2.8473

> <Gold.Chemscore.Internal.Correction>
   9.000000E+99

> <Gold.Chemscore.Hbonds>
donor molecule, donor type, donor heavy atom, donor atom, acceptor molecule, acceptor atom, score
      L1  H     3    20       P1  8028  0.89
      L1  H     7    25       P1  7948  0.92
      L1  H     7    26       P1  7957  0.68

> <Gold.Chemscore.Hbond.Weighted>
-9.0271

> <Gold.Chemscore.Metal.Weighted>
-0.0000

> <Gold.Chemscore.Lipo.Weighted>
-10.1146

> <Gold.Chemscore.Internal_Hbond.Weighted>
0.0000

> <Gold.Chemscore.DEClash.Weighted>
0.0901

> <Gold.Chemscore.DEInternal.Weighted>
0.9095

> <Gold.Chemscore.Rot.Weighted>
7.2892

> <Gold.Chemscore.Internal.Correction.Weighted>
   9.000000E+99

> <Gold.Protein.RotatedTorsions>
[ 6907 6896 6895 6894 ] final  131.85 input  -60.11 | X-H torsion
[ 7974 7965 7964 7962 ] final -105.62 input  175.53 | X-H torsion
[ 8008 7997 7996 7995 ] final  -36.93 input   59.86 | X-H torsion
[ 10167 10162 10161 10158 ] final  -89.90 input  -65.29 | X-H torsion
[ 10718 10713 10712 10709 ] final -168.06 input   66.30 | X-H torsion
[ 10763 10752 10751 10750 ] final  120.95 input  -60.55 | X-H torsion
[ 11005 11000 10999 10996 ] final   96.93 input  -57.11 | X-H torsion

> <Gold.Protein.ActiveResidues>
 VAL166  LYS551  ARG553  GLY616  TRP617  ASP618  TYR619  PRO620  LYS621  CYS622 
 ASP623  PHE694  ASN695  SER759  ASP760  ASP761  ALA762  ILE779  LEU786  VAL792 
 PHE793  MET794  SER795  GLU796  ALA797  LYS798  CYS799  TRP800  GLU811  SER814 

> <Gold.Protein.RotatedAtoms>
  152.3384  133.6038  159.5858 H   0  0  0  0  0  0  0  0  0  0  0  0  # atno 6907 bound_to 6896
  150.7464  133.9760  159.3570 H   0  0  0  0  0  0  0  0  0  0  0  0  # atno 6908 bound_to 6896
  151.7627  135.0807  160.0399 H   0  0  0  0  0  0  0  0  0  0  0  0  # atno 6909 bound_to 6896
  145.2282  140.9160  143.3220 H   0  0  0  0  0  0  0  0  0  0  0  0  # atno 7974 bound_to 7965
  154.4063  140.1617  156.2455 H   0  0  0  0  0  0  0  0  0  0  0  0  # atno 8008 bound_to 7997
  155.9164  140.3424  155.6116 H   0  0  0  0  0  0  0  0  0  0  0  0  # atno 8009 bound_to 7997
  155.7274  140.0776  157.2294 H   0  0  0  0  0  0  0  0  0  0  0  0  # atno 8010 bound_to 7997
  140.3602  143.2846  151.9623 H   0  0  0  0  0  0  0  0  0  0  0  0  # atno 10167 bound_to 10162
  156.6914  130.9160  151.3069 H   0  0  0  0  0  0  0  0  0  0  0  0  # atno 10718 bound_to 10713
  153.6065  135.3438  155.2964 H   0  0  0  0  0  0  0  0  0  0  0  0  # atno 10763 bound_to 10752
  154.8626  135.4240  154.2356 H   0  0  0  0  0  0  0  0  0  0  0  0  # atno 10764 bound_to 10752
  153.3197  135.7037  153.7114 H   0  0  0  0  0  0  0  0  0  0  0  0  # atno 10765 bound_to 10752
  139.8778  134.8975  156.4231 H   0  0  0  0  0  0  0  0  0  0  0  0  # atno 11005 bound_to 11000
  144.9701  139.3889  143.6313 LP  0  0  0  0  0  0  0  0  0  0  0  0  # atno 17320 bound_to 7965
  146.3359  139.8795  142.8826 LP  0  0  0  0  0  0  0  0  0  0  0  0  # atno 17321 bound_to 7965
  139.4815  144.5999  151.7624 LP  0  0  0  0  0  0  0  0  0  0  0  0  # atno 17342 bound_to 10162
  140.5134  144.0990  150.6001 LP  0  0  0  0  0  0  0  0  0  0  0  0  # atno 17343 bound_to 10162
  157.7007  130.9330  150.0778 LP  0  0  0  0  0  0  0  0  0  0  0  0  # atno 17370 bound_to 10713
  156.1795  130.3649  149.9055 LP  0  0  0  0  0  0  0  0  0  0  0  0  # atno 17371 bound_to 10713
  140.9119  133.7705  155.9802 LP  0  0  0  0  0  0  0  0  0  0  0  0  # atno 17394 bound_to 11000
  140.8536  134.2924  157.5265 LP  0  0  0  0  0  0  0  0  0  0  0  0  # atno 17395 bound_to 11000

$$$$
