AV-unprocessed.smi:655|AV-procd|sdf|3215|dock2
  -GOLD-   22720 0153D 1   1.00000     0.00000
 Structure written by MMmdl.
 35 36  0  0  0  0  0  0  0  0  1 V2000
  153.9672  142.1050  160.2368 C   0  0  0  0  0  0  0  0  0  0  0  0
  152.5281  142.2825  159.7326 C   0  0  2  0  0  0  0  0  0  0  0  0
  151.9774  140.9787  159.1286 C   0  0  0  0  0  0  0  0  0  0  0  0
  150.5338  141.1484  158.6191 C   0  0  0  0  0  0  0  0  0  0  0  0
  150.3888  142.3078  157.6034 C   0  0  2  0  0  0  0  0  0  0  0  0
  149.0062  142.5699  157.4500 O   0  0  0  0  0  0  0  0  0  0  0  0
  150.9705  142.0242  156.1855 C   0  0  0  0  0  0  0  0  0  0  0  0
  151.0572  140.6258  155.8080 N   0  0  0  0  0  0  0  0  0  0  0  0
  151.9972  139.7778  156.3762 C   0  0  0  0  0  0  0  0  0  0  0  0
  152.1066  138.4643  156.0637 C   0  0  0  0  0  0  0  0  0  0  0  0
  153.3103  137.4800  156.8161 Cl  0  0  0  0  0  0  0  0  0  0  0  0
  151.2012  137.8690  155.0829 C   0  0  0  0  0  0  0  0  0  0  0  0
  151.2122  136.6933  154.7237 O   0  0  0  0  0  0  0  0  0  0  0  0
  150.2635  138.7531  154.5427 N   0  0  0  0  0  0  0  0  0  0  0  0
  150.1414  140.1058  154.8613 C   0  0  0  0  0  0  0  0  0  0  0  0
  149.2631  140.7753  154.3203 O   0  0  0  0  0  0  0  0  0  0  0  0
  150.9834  143.6031  158.2065 C   0  0  0  0  0  0  0  0  0  0  0  0
  152.4269  143.4260  158.7077 C   0  0  0  0  0  0  0  0  0  0  0  0
  149.6152  138.3791  153.8648 H   0  0  0  0  0  0  0  0  0  0  0  0
  154.6441  141.8469  159.4219 H   0  0  0  0  0  0  0  0  0  0  0  0
  154.0262  141.3121  160.9829 H   0  0  0  0  0  0  0  0  0  0  0  0
  154.3377  143.0202  160.6994 H   0  0  0  0  0  0  0  0  0  0  0  0
  151.9088  142.5439  160.5920 H   0  0  0  0  0  0  0  0  0  0  0  0
  152.6288  140.6575  158.3180 H   0  0  0  0  0  0  0  0  0  0  0  0
  152.0058  140.1833  159.8740 H   0  0  0  0  0  0  0  0  0  0  0  0
  150.1696  140.2112  158.1990 H   0  0  0  0  0  0  0  0  0  0  0  0
  149.8963  141.3472  159.4823 H   0  0  0  0  0  0  0  0  0  0  0  0
  148.9045  143.4348  157.0837 H   0  0  0  0  0  0  0  0  0  0  0  0
  150.3428  142.4816  155.4182 H   0  0  0  0  0  0  0  0  0  0  0  0
  151.9529  142.4766  156.0446 H   0  0  0  0  0  0  0  0  0  0  0  0
  152.6819  140.1839  157.1074 H   0  0  0  0  0  0  0  0  0  0  0  0
  150.9419  144.4148  157.4792 H   0  0  0  0  0  0  0  0  0  0  0  0
  150.3717  143.9274  159.0501 H   0  0  0  0  0  0  0  0  0  0  0  0
  152.7683  144.3578  159.1598 H   0  0  0  0  0  0  0  0  0  0  0  0
  153.0946  143.2354  157.8670 H   0  0  0  0  0  0  0  0  0  0  0  0
  1  2  1  0  0  0  0
  1 20  1  0  0  0  0
  1 21  1  0  0  0  0
  1 22  1  0  0  0  0
  2 18  1  0  0  0  0
  2  3  1  0  0  0  0
  2 23  1  0  0  0  0
  3  4  1  0  0  0  0
  3 24  1  0  0  0  0
  3 25  1  0  0  0  0
  4  5  1  0  0  0  0
  4 26  1  0  0  0  0
  4 27  1  0  0  0  0
  5  6  1  0  0  0  0
  5  7  1  0  0  0  0
  5 17  1  0  0  0  0
  6 28  1  0  0  0  0
  7  8  1  0  0  0  0
  7 29  1  0  0  0  0
  7 30  1  0  0  0  0
  8 15  1  0  0  0  0
  8  9  1  0  0  0  0
  9 10  2  0  0  0  0
  9 31  1  0  0  0  0
 10 11  1  0  0  0  0
 10 12  1  0  0  0  0
 12 13  2  0  0  0  0
 12 14  1  0  0  0  0
 14 19  1  0  0  0  0
 14 15  1  0  0  0  0
 15 16  2  0  0  0  0
 17 18  1  0  0  0  0
 17 32  1  0  0  0  0
 17 33  1  0  0  0  0
 18 34  1  0  0  0  0
 18 35  1  0  0  0  0
M  END
> <s_m_source_file>
AV-unprocessed.smi

> <i_m_source_file_index>
655

> <i_lp_mmshare_version>
43012

> <i_f3d_flags>
0

> <s_epik_input>
W0NIMl0xW0NIMl1bQ0BIXShbQ0gzXSlbQ0gyXVtDSDJdW0NAQF0xKFtPSF0pW0NIMl1uMltjSF1jKENsKWMoPU8pW25IXWMyPU8=

> <s_epik_cmdline>
J2VwaWtfcHl0aG9uJywgJy1waCcsICc3LjAnLCAnLXRuJywgJzgnLCAnLW1hJywgJzIwMCcsICctbWV0YWxfYmluZGluZycsICctaW1hZScsICc8aW5maWxlLm1hZT4nLCAnLW9tYWUnLCAnPG91dGZpbGUubWFlPic=

> <r_lp_tautomer_probability>
0.999537

> <r_epik_Ionization_Penalty>
0.0114762

> <r_epik_Ionization_Penalty_Charging>
0.0114753

> <r_epik_Ionization_Penalty_Neutral>
8.25878e-07

> <r_epik_State_Penalty>
0.00883314

> <r_epik_Charging_Adjusted_Penalty>
0.0203085

> <i_epik_Tot_Q>
0

> <i_epik_Tot_abs_Q>
0

> <r_epik_Metal_State_Penalty>
1.64347

> <b_epik_Metal_Only>
0

> <s_lp_Force_Field>
OPLS_2005

> <r_lp_Energy>
18.8489

> <b_lp_Chiralities_Consistent>
1

> <s_lp_Variant>
AV-unprocessed.smi:655-2

> <Gold.Version>
5.8.1

> <Gold.Id.Protein>
6NUR|6NUR_protein|mol2

> <Gold.PLP.Fitness>
39.7654

> <Gold.PLP.PLP>
-35.3836

> <Gold.PLP.part.hbond>
-2.6246

> <Gold.PLP.part.metal>
0.0000

> <Gold.PLP.part.buried>
-3.8080

> <Gold.PLP.part.nonpolar>
-29.3254

> <Gold.PLP.part.repulsive>
0.3722

> <Gold.PLP.ligand.clash>
0.0000

> <Gold.PLP.ligand.torsion>
0.8152

> <Gold.PLP.Chemscore.Hbond>
2.0000

> <Gold.PLP.Chemscore.CHOScore>
0.0000

> <Gold.PLP.Chemscore.Metal>
0.0000

> <Gold.Chemscore.Hbonds>
donor molecule, donor type, donor heavy atom, donor atom, acceptor molecule, acceptor atom, score
      L1  H     6    28       P1  8028  1.00
      P1  H 10752 10764       L1    13  0.89

> <Gold.PLP.Chemscore.Internal.Correction>
0.0122

> <Gold.Rescore>
     Score         DG    S(hbond)    S(metal)    S(lipo)     H(rot)  DE(clash)    DE(int)     intcor
     16.02     -17.08       1.90        0.00      85.08       1.84       0.16       0.89       ----

> <Gold.Chemscore.Fitness>
16.0219

> <Gold.Chemscore.DG>
-17.0772

> <Gold.Chemscore.ZeroCoef>
-5.4800

> <Gold.Chemscore.Hbond>
1.9041

> <Gold.Chemscore.Metal>
0.0000

> <Gold.Chemscore.Lipo>
85.0752

> <Gold.Chemscore.Internal_Hbond>
0.0000

> <Gold.Chemscore.DEClash>
0.1646

> <Gold.Chemscore.DEInternal>
0.8907

> <Gold.Chemscore.Rot>
1.8424

> <Gold.Chemscore.Internal.Correction>
   9.000000E+99

> <Gold.Chemscore.Hbonds>
donor molecule, donor type, donor heavy atom, donor atom, acceptor molecule, acceptor atom, score
      L1  H     6    28       P1  8028  0.49
      P1  H 10752 10764       L1    13  0.86

> <Gold.Chemscore.Hbond.Weighted>
-6.3599

> <Gold.Chemscore.Metal.Weighted>
-0.0000

> <Gold.Chemscore.Lipo.Weighted>
-9.9538

> <Gold.Chemscore.Internal_Hbond.Weighted>
0.0000

> <Gold.Chemscore.DEClash.Weighted>
0.1646

> <Gold.Chemscore.DEInternal.Weighted>
0.8907

> <Gold.Chemscore.Rot.Weighted>
4.7164

> <Gold.Chemscore.Internal.Correction.Weighted>
   9.000000E+99

> <Gold.Protein.RotatedTorsions>
[ 6907 6896 6895 6894 ] final   86.12 input  -60.11 | X-H torsion
[ 7974 7965 7964 7962 ] final  -85.26 input  175.53 | X-H torsion
[ 8008 7997 7996 7995 ] final   99.67 input   59.86 | X-H torsion
[ 10167 10162 10161 10158 ] final   36.59 input  -65.29 | X-H torsion
[ 10718 10713 10712 10709 ] final -105.84 input   66.30 | X-H torsion
[ 10763 10752 10751 10750 ] final  -80.84 input  -60.55 | X-H torsion
[ 11005 11000 10999 10996 ] final  -17.28 input  -57.11 | X-H torsion

> <Gold.Protein.ActiveResidues>
 VAL166  LYS551  ARG553  GLY616  TRP617  ASP618  TYR619  PRO620  LYS621  CYS622 
 ASP623  PHE694  ASN695  SER759  ASP760  ASP761  ALA762  ILE779  LEU786  VAL792 
 PHE793  MET794  SER795  GLU796  ALA797  LYS798  CYS799  TRP800  GLU811  SER814 

> <Gold.Protein.RotatedAtoms>
  152.5388  134.2480  159.8887 H   0  0  0  0  0  0  0  0  0  0  0  0  # atno 6907 bound_to 6896
  151.2444  133.4376  159.2616 H   0  0  0  0  0  0  0  0  0  0  0  0  # atno 6908 bound_to 6896
  151.0597  134.9742  159.8310 H   0  0  0  0  0  0  0  0  0  0  0  0  # atno 6909 bound_to 6896
  145.4956  140.9550  143.1788 H   0  0  0  0  0  0  0  0  0  0  0  0  # atno 7974 bound_to 7965
  156.1128  140.3225  155.8097 H   0  0  0  0  0  0  0  0  0  0  0  0  # atno 8008 bound_to 7997
  155.4642  140.0541  157.3004 H   0  0  0  0  0  0  0  0  0  0  0  0  # atno 8009 bound_to 7997
  154.4772  140.2037  155.9864 H   0  0  0  0  0  0  0  0  0  0  0  0  # atno 8010 bound_to 7997
  140.4113  144.1588  150.6139 H   0  0  0  0  0  0  0  0  0  0  0  0  # atno 10167 bound_to 10162
  156.0363  130.5583  150.7596 H   0  0  0  0  0  0  0  0  0  0  0  0  # atno 10718 bound_to 10713
  154.5562  135.5647  153.6966 H   0  0  0  0  0  0  0  0  0  0  0  0  # atno 10763 bound_to 10752
  153.0004  135.6263  154.2307 H   0  0  0  0  0  0  0  0  0  0  0  0  # atno 10764 bound_to 10752
  154.2244  135.2868  155.2893 H   0  0  0  0  0  0  0  0  0  0  0  0  # atno 10765 bound_to 10752
  140.8153  133.8110  155.9604 H   0  0  0  0  0  0  0  0  0  0  0  0  # atno 11005 bound_to 11000
  144.7809  139.6529  143.7155 LP  0  0  0  0  0  0  0  0  0  0  0  0  # atno 17320 bound_to 7965
  146.2257  139.5718  142.9589 LP  0  0  0  0  0  0  0  0  0  0  0  0  # atno 17321 bound_to 7965
  140.4634  143.2440  151.9188 LP  0  0  0  0  0  0  0  0  0  0  0  0  # atno 17342 bound_to 10162
  139.4782  144.5444  151.8480 LP  0  0  0  0  0  0  0  0  0  0  0  0  # atno 17343 bound_to 10162
  157.5119  131.0926  151.0187 LP  0  0  0  0  0  0  0  0  0  0  0  0  # atno 17370 bound_to 10713
  157.0540  130.5799  149.5375 LP  0  0  0  0  0  0  0  0  0  0  0  0  # atno 17371 bound_to 10713
  140.9156  134.2206  157.4959 LP  0  0  0  0  0  0  0  0  0  0  0  0  # atno 17394 bound_to 11000
  139.8711  134.9769  156.4940 LP  0  0  0  0  0  0  0  0  0  0  0  0  # atno 17395 bound_to 11000

$$$$
