AV-unprocessed.smi:67|AV-procd|sdf|635|dock5
  -GOLD-   2262016533D 1   1.00000     0.00000
 Structure written by MMmdl.
 48 50  0  0  0  0  0  0  0  0  2 V2000
  150.4016  141.3178  152.7973 O   0  0  0  0  0  0  0  0  0  0  0  0
  149.2003  141.0171  153.4850 C   0  0  1  0  0  0  0  0  0  0  0  0
  149.4853  139.8729  154.4947 C   0  0  0  0  0  0  0  0  0  0  0  0
  150.4175  140.2336  155.6024 N   0  3  2  0  0  0  0  0  0  0  0  0
  151.8389  140.1627  155.1641 C   0  0  0  0  0  0  0  0  0  0  0  0
  152.7977  140.6969  156.2402 C   0  0  0  0  0  0  0  0  0  0  0  0
  152.5775  139.9540  157.5705 C   0  0  1  0  0  0  0  0  0  0  0  0
  153.5141  140.2709  158.6032 O   0  0  0  0  0  0  0  0  0  0  0  0
  153.2279  141.1057  159.6664 C   0  0  0  0  0  0  0  0  0  0  0  0
  153.4347  140.8128  161.0375 C   0  0  0  0  0  0  0  0  0  0  0  0
  153.1035  141.7573  162.0280 C   0  0  0  0  0  0  0  0  0  0  0  0
  152.5584  143.0030  161.6684 C   0  0  0  0  0  0  0  0  0  0  0  0
  152.3383  143.3103  160.3098 C   0  0  0  0  0  0  0  0  0  0  0  0
  151.7522  144.6512  159.8924 C   0  0  0  0  0  0  0  0  0  0  0  0
  150.4240  144.5982  159.9852 F   0  0  0  0  0  0  0  0  0  0  0  0
  152.2010  145.6150  160.6968 F   0  0  0  0  0  0  0  0  0  0  0  0
  152.0807  144.9656  158.6389 F   0  0  0  0  0  0  0  0  0  0  0  0
  152.6809  142.3604  159.3247 C   0  0  0  0  0  0  0  0  0  0  0  0
  151.0992  139.9604  158.0016 C   0  0  0  0  0  0  0  0  0  0  0  0
  150.1963  139.4640  156.8583 C   0  0  0  0  0  0  0  0  0  0  0  0
  148.5769  142.2852  154.1082 C   0  0  0  0  0  0  0  0  0  0  0  0
  147.3507  142.5919  153.2513 C   0  0  0  0  0  0  0  0  0  0  0  0
  146.9347  141.2991  152.7433 N   0  0  0  0  0  0  0  0  0  0  0  0
  148.1614  140.5889  152.4235 C   0  0  0  0  0  0  0  0  0  0  0  0
  150.4462  140.7839  152.0183 H   0  0  0  0  0  0  0  0  0  0  0  0
  148.5577  139.4629  154.8975 H   0  0  0  0  0  0  0  0  0  0  0  0
  149.9417  139.0581  153.9306 H   0  0  0  0  0  0  0  0  0  0  0  0
  152.0885  139.1296  154.9168 H   0  0  0  0  0  0  0  0  0  0  0  0
  151.9795  140.7475  154.2544 H   0  0  0  0  0  0  0  0  0  0  0  0
  153.8283  140.5613  155.9108 H   0  0  0  0  0  0  0  0  0  0  0  0
  152.6522  141.7699  156.3367 H   0  0  0  0  0  0  0  0  0  0  0  0
  152.8094  138.9094  157.3577 H   0  0  0  0  0  0  0  0  0  0  0  0
  153.8460  139.8773  161.3729 H   0  0  0  0  0  0  0  0  0  0  0  0
  153.2691  141.5249  163.0696 H   0  0  0  0  0  0  0  0  0  0  0  0
  152.3134  143.7165  162.4414 H   0  0  0  0  0  0  0  0  0  0  0  0
  152.5197  142.5979  158.2833 H   0  0  0  0  0  0  0  0  0  0  0  0
  150.9692  139.3178  158.8729 H   0  0  0  0  0  0  0  0  0  0  0  0
  150.7628  140.9476  158.3071 H   0  0  0  0  0  0  0  0  0  0  0  0
  149.1661  139.5617  157.1903 H   0  0  0  0  0  0  0  0  0  0  0  0
  150.3731  138.4037  156.6710 H   0  0  0  0  0  0  0  0  0  0  0  0
  148.2298  142.0824  155.1218 H   0  0  0  0  0  0  0  0  0  0  0  0
  149.2664  143.1291  154.1575 H   0  0  0  0  0  0  0  0  0  0  0  0
  146.5574  143.0859  153.8126 H   0  0  0  0  0  0  0  0  0  0  0  0
  147.6322  143.2427  152.4223 H   0  0  0  0  0  0  0  0  0  0  0  0
  146.3537  141.4061  151.9173 H   0  0  0  0  0  0  0  0  0  0  0  0
  148.4908  140.8886  151.4271 H   0  0  0  0  0  0  0  0  0  0  0  0
  147.9981  139.5114  152.3901 H   0  0  0  0  0  0  0  0  0  0  0  0
  150.2347  141.2041  155.8151 H   0  0  0  0  0  0  0  0  0  0  0  0
  1  2  1  0  0  0  0
  1 25  1  0  0  0  0
  2 24  1  0  0  0  0
  2  3  1  0  0  0  0
  2 21  1  0  0  0  0
  3  4  1  0  0  0  0
  3 26  1  0  0  0  0
  3 27  1  0  0  0  0
  4 20  1  0  0  0  0
  4  5  1  0  0  0  0
  4 48  1  0  0  0  0
  5  6  1  0  0  0  0
  5 28  1  0  0  0  0
  5 29  1  0  0  0  0
  6  7  1  0  0  0  0
  6 30  1  0  0  0  0
  6 31  1  0  0  0  0
  7  8  1  0  0  0  0
  7 19  1  0  0  0  0
  7 32  1  0  0  0  0
  8  9  1  0  0  0  0
  9 18  1  0  0  0  0
  9 10  2  0  0  0  0
 10 11  1  0  0  0  0
 10 33  1  0  0  0  0
 11 12  2  0  0  0  0
 11 34  1  0  0  0  0
 12 13  1  0  0  0  0
 12 35  1  0  0  0  0
 13 14  1  0  0  0  0
 13 18  2  0  0  0  0
 14 15  1  0  0  0  0
 14 16  1  0  0  0  0
 14 17  1  0  0  0  0
 18 36  1  0  0  0  0
 19 20  1  0  0  0  0
 19 37  1  0  0  0  0
 19 38  1  0  0  0  0
 20 39  1  0  0  0  0
 20 40  1  0  0  0  0
 21 22  1  0  0  0  0
 21 41  1  0  0  0  0
 21 42  1  0  0  0  0
 22 23  1  0  0  0  0
 22 43  1  0  0  0  0
 22 44  1  0  0  0  0
 23 24  1  0  0  0  0
 23 45  1  0  0  0  0
 24 46  1  0  0  0  0
 24 47  1  0  0  0  0
M  CHG  1   4   1
M  END
> <s_m_source_file>
AV-unprocessed.smi

> <i_m_source_file_index>
67

> <i_lp_mmshare_version>
43012

> <i_f3d_flags>
0

> <s_epik_input>
W0NIMl0xW05IXVtDSDJdW0NIMl1bQ0BAXTEoW09IXSlbQ0gyXU4yW0NIMl1bQ0gyXVtDSF0oW0NIMl1bQ0gyXTIpT2MzW2NIXVtjSF1bY0hdYyhDKEYpKEYpRilbY0hdMw==

> <s_epik_cmdline>
J2VwaWtfcHl0aG9uJywgJy1waCcsICc3LjAnLCAnLXRuJywgJzgnLCAnLW1hJywgJzIwMCcsICctbWV0YWxfYmluZGluZycsICctaW1hZScsICc8aW5maWxlLm1hZT4nLCAnLW9tYWUnLCAnPG91dGZpbGUubWFlPic=

> <r_epik_Ionization_Penalty>
2.37709

> <r_epik_Ionization_Penalty_Charging>
0.0305656

> <r_epik_Ionization_Penalty_Neutral>
2.34653

> <r_epik_State_Penalty>
2.56959

> <r_epik_Charging_Adjusted_Penalty>
2.60016

> <i_epik_Tot_Q>
1

> <i_epik_Tot_abs_Q>
1

> <r_epik_Metal_State_Penalty>
2.56925

> <b_epik_Metal_Only>
0

> <s_lp_Force_Field>
OPLS_2005

> <r_lp_Energy>
55.5379

> <b_lp_Chiralities_Consistent>
1

> <s_lp_Variant>
AV-unprocessed.smi:67-7

> <Gold.Version>
5.8.1

> <Gold.Id.Protein>
6NUR|6NUR_protein|mol2

> <Gold.PLP.Fitness>
61.7626

> <Gold.PLP.PLP>
-54.3324

> <Gold.PLP.part.hbond>
-4.0801

> <Gold.PLP.part.metal>
0.0000

> <Gold.PLP.part.buried>
-5.7728

> <Gold.PLP.part.nonpolar>
-44.3083

> <Gold.PLP.part.repulsive>
0.0352

> <Gold.PLP.ligand.clash>
0.0000

> <Gold.PLP.ligand.torsion>
1.8531

> <Gold.PLP.Chemscore.Hbond>
3.5025

> <Gold.PLP.Chemscore.CHOScore>
0.0000

> <Gold.PLP.Chemscore.Metal>
0.0000

> <Gold.Chemscore.Hbonds>
donor molecule, donor type, donor heavy atom, donor atom, acceptor molecule, acceptor atom, score
      L1  H     1    25       P1  7957  0.52
      P1  H  7997  8010       L1     8  0.21
      P1  H  8011  8017       L1     1  0.19

> <Gold.PLP.Chemscore.Internal.Correction>
0.6289

> <Gold.Rescore>
     Score         DG    S(hbond)    S(metal)    S(lipo)     H(rot)  DE(clash)    DE(int)     intcor
     18.79     -21.10       1.95        0.00     125.41       2.17       1.22       1.09       ----

> <Gold.Chemscore.Fitness>
18.7946

> <Gold.Chemscore.DG>
-21.1034

> <Gold.Chemscore.ZeroCoef>
-5.4800

> <Gold.Chemscore.Hbond>
1.9505

> <Gold.Chemscore.Metal>
0.0000

> <Gold.Chemscore.Lipo>
125.4078

> <Gold.Chemscore.Internal_Hbond>
0.0000

> <Gold.Chemscore.DEClash>
1.2178

> <Gold.Chemscore.DEInternal>
1.0910

> <Gold.Chemscore.Rot>
2.1734

> <Gold.Chemscore.Internal.Correction>
   9.000000E+99

> <Gold.Chemscore.Hbonds>
donor molecule, donor type, donor heavy atom, donor atom, acceptor molecule, acceptor atom, score
      L1  H     1    25       P1  7957  0.44

> <Gold.Chemscore.Hbond.Weighted>
-6.5147

> <Gold.Chemscore.Metal.Weighted>
-0.0000

> <Gold.Chemscore.Lipo.Weighted>
-14.6727

> <Gold.Chemscore.Internal_Hbond.Weighted>
0.0000

> <Gold.Chemscore.DEClash.Weighted>
1.2178

> <Gold.Chemscore.DEInternal.Weighted>
1.0910

> <Gold.Chemscore.Rot.Weighted>
5.5640

> <Gold.Chemscore.Internal.Correction.Weighted>
   9.000000E+99

> <Gold.Protein.RotatedTorsions>
[ 6907 6896 6895 6894 ] final  144.15 input  -60.11 | X-H torsion
[ 7974 7965 7964 7962 ] final  -72.54 input  175.53 | X-H torsion
[ 8008 7997 7996 7995 ] final   14.17 input   59.86 | X-H torsion
[ 10167 10162 10161 10158 ] final  128.60 input  -65.29 | X-H torsion
[ 10718 10713 10712 10709 ] final  109.17 input   66.30 | X-H torsion
[ 10763 10752 10751 10750 ] final   12.08 input  -60.55 | X-H torsion
[ 11005 11000 10999 10996 ] final  -19.43 input  -57.11 | X-H torsion

> <Gold.Protein.ActiveResidues>
 VAL166  LYS551  ARG553  GLY616  TRP617  ASP618  TYR619  PRO620  LYS621  CYS622 
 ASP623  PHE694  ASN695  SER759  ASP760  ASP761  ALA762  ILE779  LEU786  VAL792 
 PHE793  MET794  SER795  GLU796  ALA797  LYS798  CYS799  TRP800  GLU811  SER814 

> <Gold.Protein.RotatedAtoms>
  152.1972  133.4815  159.5039 H   0  0  0  0  0  0  0  0  0  0  0  0  # atno 6907 bound_to 6896
  150.6962  134.1636  159.4195 H   0  0  0  0  0  0  0  0  0  0  0  0  # atno 6908 bound_to 6896
  151.9553  135.0149  160.0595 H   0  0  0  0  0  0  0  0  0  0  0  0  # atno 6909 bound_to 6896
  145.6638  140.9244  143.0920 H   0  0  0  0  0  0  0  0  0  0  0  0  # atno 7974 bound_to 7965
  154.8447  140.2920  155.5637 H   0  0  0  0  0  0  0  0  0  0  0  0  # atno 8008 bound_to 7997
  156.3013  140.2507  156.3327 H   0  0  0  0  0  0  0  0  0  0  0  0  # atno 8009 bound_to 7997
  154.9087  140.0389  157.1923 H   0  0  0  0  0  0  0  0  0  0  0  0  # atno 8010 bound_to 7997
  139.5519  144.6819  151.4298 H   0  0  0  0  0  0  0  0  0  0  0  0  # atno 10167 bound_to 10162
  157.6553  131.0908  150.6414 H   0  0  0  0  0  0  0  0  0  0  0  0  # atno 10718 bound_to 10713
  153.1859  135.6835  153.8415 H   0  0  0  0  0  0  0  0  0  0  0  0  # atno 10763 bound_to 10752
  153.7731  135.3193  155.3356 H   0  0  0  0  0  0  0  0  0  0  0  0  # atno 10764 bound_to 10752
  154.8088  135.4731  154.0559 H   0  0  0  0  0  0  0  0  0  0  0  0  # atno 10765 bound_to 10752
  140.8366  133.7957  155.9815 H   0  0  0  0  0  0  0  0  0  0  0  0  # atno 11005 bound_to 11000
  144.7080  139.8483  143.7424 LP  0  0  0  0  0  0  0  0  0  0  0  0  # atno 17320 bound_to 7965
  146.1103  139.4107  143.0292 LP  0  0  0  0  0  0  0  0  0  0  0  0  # atno 17321 bound_to 7965
  140.6783  143.8139  150.7088 LP  0  0  0  0  0  0  0  0  0  0  0  0  # atno 17342 bound_to 10162
  140.1584  143.4296  152.2083 LP  0  0  0  0  0  0  0  0  0  0  0  0  # atno 17343 bound_to 10162
  156.6721  130.4542  149.5654 LP  0  0  0  0  0  0  0  0  0  0  0  0  # atno 17370 bound_to 10713
  156.1990  130.6608  151.1146 LP  0  0  0  0  0  0  0  0  0  0  0  0  # atno 17371 bound_to 10713
  140.8941  134.2459  157.5078 LP  0  0  0  0  0  0  0  0  0  0  0  0  # atno 17394 bound_to 11000
  139.8704  134.9675  156.4600 LP  0  0  0  0  0  0  0  0  0  0  0  0  # atno 17395 bound_to 11000

$$$$
