AV-unprocessed.smi:1762|AV-procd|sdf|7114|dock5
  -GOLD-   22720 8343D 1   1.00000     0.00000
 Structure written by MMmdl.
 53 54  0  0  0  0  0  0  0  0  2 V2000
  148.6897  130.4688  154.2438 C   0  0  0  0  0  0  0  0  0  0  0  0
  147.7604  131.5947  153.7775 C   0  0  1  0  0  0  0  0  0  0  0  0
  148.5324  132.9046  153.5057 C   0  0  0  0  0  0  0  0  0  0  0  0
  147.6363  133.9677  152.9651 N   0  3  2  0  0  0  0  0  0  0  0  0
  146.7503  134.6299  153.9879 C   0  0  1  0  0  0  0  0  0  0  0  0
  147.4517  134.7106  155.3609 C   0  0  0  0  0  0  0  0  0  0  0  0
  148.4590  135.4051  155.5011 O   0  0  0  0  0  0  0  0  0  0  0  0
  146.9130  133.9910  156.3584 N   0  0  0  0  0  0  0  0  0  0  0  0
  147.4402  133.9210  157.7163 C   0  0  0  0  0  0  0  0  0  0  0  0
  147.4019  135.2943  158.4082 C   0  0  0  0  0  0  0  0  0  0  0  0
  147.4221  135.1774  159.9207 C   0  0  0  0  0  0  0  0  0  0  0  0
  147.3910  133.9133  160.5476 C   0  0  0  0  0  0  0  0  0  0  0  0
  147.4062  133.8621  161.9551 C   0  0  0  0  0  0  0  0  0  0  0  0
  147.4505  135.0701  162.6777 C   0  0  0  0  0  0  0  0  0  0  0  0
  147.4780  136.2810  161.9576 C   0  0  0  0  0  0  0  0  0  0  0  0
  147.4642  136.3412  160.6082 N   0  0  0  0  0  0  0  0  0  0  0  0
  146.2202  136.0381  153.5542 C   0  0  0  0  0  0  0  0  0  0  0  0
  145.3205  136.7232  154.6040 C   0  0  0  0  0  0  0  0  0  0  0  0
  145.5196  136.0304  152.1809 C   0  0  0  0  0  0  0  0  0  0  0  0
  146.9626  133.4292  151.7514 C   0  0  0  0  0  0  0  0  0  0  0  0
  146.1980  132.1277  152.0667 C   0  0  1  0  0  0  0  0  0  0  0  0
  145.5401  131.5300  150.8184 C   0  0  0  0  0  0  0  0  0  0  0  0
  147.1191  131.1702  152.5791 O   0  0  0  0  0  0  0  0  0  0  0  0
  149.1943  130.7365  155.1723 H   0  0  0  0  0  0  0  0  0  0  0  0
  149.4547  130.2519  153.4977 H   0  0  0  0  0  0  0  0  0  0  0  0
  148.1301  129.5505  154.4236 H   0  0  0  0  0  0  0  0  0  0  0  0
  147.0071  131.7511  154.5505 H   0  0  0  0  0  0  0  0  0  0  0  0
  149.0639  133.2255  154.4009 H   0  0  0  0  0  0  0  0  0  0  0  0
  149.3102  132.7143  152.7647 H   0  0  0  0  0  0  0  0  0  0  0  0
  145.8723  133.9959  154.1135 H   0  0  0  0  0  0  0  0  0  0  0  0
  146.0817  133.4514  156.1645 H   0  0  0  0  0  0  0  0  0  0  0  0
  146.8833  133.1826  158.2960 H   0  0  0  0  0  0  0  0  0  0  0  0
  148.4684  133.5621  157.6627 H   0  0  0  0  0  0  0  0  0  0  0  0
  148.2500  135.8985  158.0831 H   0  0  0  0  0  0  0  0  0  0  0  0
  146.5058  135.8422  158.1128 H   0  0  0  0  0  0  0  0  0  0  0  0
  147.3550  133.0034  159.9666 H   0  0  0  0  0  0  0  0  0  0  0  0
  147.3837  132.9134  162.4710 H   0  0  0  0  0  0  0  0  0  0  0  0
  147.4627  135.0692  163.7576 H   0  0  0  0  0  0  0  0  0  0  0  0
  147.5113  137.2261  162.4790 H   0  0  0  0  0  0  0  0  0  0  0  0
  147.0846  136.6816  153.3978 H   0  0  0  0  0  0  0  0  0  0  0  0
  144.3772  136.1933  154.7363 H   0  0  0  0  0  0  0  0  0  0  0  0
  145.0779  137.7416  154.2997 H   0  0  0  0  0  0  0  0  0  0  0  0
  145.8027  136.7861  155.5790 H   0  0  0  0  0  0  0  0  0  0  0  0
  144.5647  135.5045  152.2093 H   0  0  0  0  0  0  0  0  0  0  0  0
  146.1428  135.5548  151.4231 H   0  0  0  0  0  0  0  0  0  0  0  0
  145.3161  137.0470  151.8431 H   0  0  0  0  0  0  0  0  0  0  0  0
  146.3188  134.1600  151.2675 H   0  0  0  0  0  0  0  0  0  0  0  0
  147.7346  133.2136  151.0110 H   0  0  0  0  0  0  0  0  0  0  0  0
  145.4195  132.3159  152.8074 H   0  0  0  0  0  0  0  0  0  0  0  0
  144.8139  132.2206  150.3887 H   0  0  0  0  0  0  0  0  0  0  0  0
  145.0157  130.6051  151.0599 H   0  0  0  0  0  0  0  0  0  0  0  0
  146.2806  131.3025  150.0511 H   0  0  0  0  0  0  0  0  0  0  0  0
  148.2434  134.7071  152.6397 H   0  0  0  0  0  0  0  0  0  0  0  0
  1  2  1  0  0  0  0
  1 24  1  0  0  0  0
  1 25  1  0  0  0  0
  1 26  1  0  0  0  0
  2 23  1  0  0  0  0
  2  3  1  0  0  0  0
  2 27  1  0  0  0  0
  3  4  1  0  0  0  0
  3 28  1  0  0  0  0
  3 29  1  0  0  0  0
  4  5  1  0  0  0  0
  4 20  1  0  0  0  0
  4 53  1  0  0  0  0
  5  6  1  0  0  0  0
  5 17  1  0  0  0  0
  5 30  1  0  0  0  0
  6  7  2  0  0  0  0
  6  8  1  0  0  0  0
  8  9  1  0  0  0  0
  8 31  1  0  0  0  0
  9 10  1  0  0  0  0
  9 32  1  0  0  0  0
  9 33  1  0  0  0  0
 10 11  1  0  0  0  0
 10 34  1  0  0  0  0
 10 35  1  0  0  0  0
 11 16  1  0  0  0  0
 11 12  2  0  0  0  0
 12 13  1  0  0  0  0
 12 36  1  0  0  0  0
 13 14  2  0  0  0  0
 13 37  1  0  0  0  0
 14 15  1  0  0  0  0
 14 38  1  0  0  0  0
 15 16  2  0  0  0  0
 15 39  1  0  0  0  0
 17 18  1  0  0  0  0
 17 19  1  0  0  0  0
 17 40  1  0  0  0  0
 18 41  1  0  0  0  0
 18 42  1  0  0  0  0
 18 43  1  0  0  0  0
 19 44  1  0  0  0  0
 19 45  1  0  0  0  0
 19 46  1  0  0  0  0
 20 21  1  0  0  0  0
 20 47  1  0  0  0  0
 20 48  1  0  0  0  0
 21 22  1  0  0  0  0
 21 23  1  0  0  0  0
 21 49  1  0  0  0  0
 22 50  1  0  0  0  0
 22 51  1  0  0  0  0
 22 52  1  0  0  0  0
M  CHG  1   4   1
M  END
> <s_m_source_file>
AV-unprocessed.smi

> <i_m_source_file_index>
1762

> <i_lp_mmshare_version>
43012

> <i_f3d_flags>
0

> <s_epik_input>
W0NIM11bQ0BASF0xW0NIMl1OKFtDSDJdW0NASF0oTzEpW0NIM10pW0NAQEhdKFtDSF0oW0NIM10pW0NIM10pQyg9TylbTkhdW0NIMl1bQ0gyXWMyW2NIXVtjSF1bY0hdW2NIXW4y

> <s_epik_cmdline>
J2VwaWtfcHl0aG9uJywgJy1waCcsICc3LjAnLCAnLXRuJywgJzgnLCAnLW1hJywgJzIwMCcsICctbWV0YWxfYmluZGluZycsICctaW1hZScsICc8aW5maWxlLm1hZT4nLCAnLW9tYWUnLCAnPG91dGZpbGUubWFlPic=

> <r_epik_Ionization_Penalty>
2.27005

> <r_epik_Ionization_Penalty_Charging>
2.24983

> <r_epik_Ionization_Penalty_Neutral>
0.0202209

> <r_epik_State_Penalty>
2.40228

> <r_epik_Charging_Adjusted_Penalty>
4.65211

> <i_epik_Tot_Q>
1

> <i_epik_Tot_abs_Q>
1

> <r_epik_Metal_State_Penalty>
2.40762

> <b_epik_Metal_Only>
0

> <s_lp_Force_Field>
OPLS_2005

> <r_lp_Energy>
25.1603

> <b_lp_Chiralities_Consistent>
1

> <s_lp_Variant>
AV-unprocessed.smi:1762-16

> <Gold.Version>
5.8.1

> <Gold.Id.Protein>
6NUR|6NUR_protein|mol2

> <Gold.PLP.Fitness>
38.1256

> <Gold.PLP.PLP>
-32.9845

> <Gold.PLP.part.hbond>
-1.0000

> <Gold.PLP.part.metal>
0.0000

> <Gold.PLP.part.buried>
-4.9691

> <Gold.PLP.part.nonpolar>
-28.0714

> <Gold.PLP.part.repulsive>
1.0977

> <Gold.PLP.ligand.clash>
0.0000

> <Gold.PLP.ligand.torsion>
0.5768

> <Gold.PLP.Chemscore.Hbond>
2.0000

> <Gold.PLP.Chemscore.CHOScore>
0.0000

> <Gold.PLP.Chemscore.Metal>
0.0000

> <Gold.Chemscore.Hbonds>
donor molecule, donor type, donor heavy atom, donor atom, acceptor molecule, acceptor atom, score
      L1  H     4    53       P1  7948  2.00

> <Gold.PLP.Chemscore.Internal.Correction>
0.2948

> <Gold.Rescore>
     Score         DG    S(hbond)    S(metal)    S(lipo)     H(rot)  DE(clash)    DE(int)     intcor
     13.52     -14.37       0.98        0.00      84.48       1.66       0.06       0.79       ----

> <Gold.Chemscore.Fitness>
13.5229

> <Gold.Chemscore.DG>
-14.3746

> <Gold.Chemscore.ZeroCoef>
-5.4800

> <Gold.Chemscore.Hbond>
0.9789

> <Gold.Chemscore.Metal>
0.0000

> <Gold.Chemscore.Lipo>
84.4755

> <Gold.Chemscore.Internal_Hbond>
0.0000

> <Gold.Chemscore.DEClash>
0.0595

> <Gold.Chemscore.DEInternal>
0.7922

> <Gold.Chemscore.Rot>
1.6635

> <Gold.Chemscore.Internal.Correction>
   9.000000E+99

> <Gold.Chemscore.Hbonds>
donor molecule, donor type, donor heavy atom, donor atom, acceptor molecule, acceptor atom, score
      L1  H     4    53       P1  7948  0.45

> <Gold.Chemscore.Hbond.Weighted>
-3.2696

> <Gold.Chemscore.Metal.Weighted>
-0.0000

> <Gold.Chemscore.Lipo.Weighted>
-9.8836

> <Gold.Chemscore.Internal_Hbond.Weighted>
0.0000

> <Gold.Chemscore.DEClash.Weighted>
0.0595

> <Gold.Chemscore.DEInternal.Weighted>
0.7922

> <Gold.Chemscore.Rot.Weighted>
4.2586

> <Gold.Chemscore.Internal.Correction.Weighted>
   9.000000E+99

> <Gold.Protein.RotatedTorsions>
[ 6907 6896 6895 6894 ] final   77.71 input  -60.11 | X-H torsion
[ 7974 7965 7964 7962 ] final  151.89 input  175.53 | X-H torsion
[ 8008 7997 7996 7995 ] final   40.68 input   59.86 | X-H torsion
[ 10167 10162 10161 10158 ] final -113.74 input  -65.29 | X-H torsion
[ 10718 10713 10712 10709 ] final -119.53 input   66.30 | X-H torsion
[ 10763 10752 10751 10750 ] final  144.82 input  -60.55 | X-H torsion
[ 11005 11000 10999 10996 ] final -167.18 input  -57.11 | X-H torsion

> <Gold.Protein.ActiveResidues>
 VAL166  LYS551  ARG553  GLY616  TRP617  ASP618  TYR619  PRO620  LYS621  CYS622 
 ASP623  PHE694  ASN695  SER759  ASP760  ASP761  ALA762  ILE779  LEU786  VAL792 
 PHE793  MET794  SER795  GLU796  ALA797  LYS798  CYS799  TRP800  GLU811  SER814 

> <Gold.Protein.RotatedAtoms>
  152.5129  134.3775  159.9339 H   0  0  0  0  0  0  0  0  0  0  0  0  # atno 6907 bound_to 6896
  151.3731  133.3841  159.2709 H   0  0  0  0  0  0  0  0  0  0  0  0  # atno 6908 bound_to 6896
  150.9562  134.8976  159.7761 H   0  0  0  0  0  0  0  0  0  0  0  0  # atno 6909 bound_to 6896
  144.8261  139.6596  143.6079 H   0  0  0  0  0  0  0  0  0  0  0  0  # atno 7974 bound_to 7965
  155.2571  140.3356  155.4276 H   0  0  0  0  0  0  0  0  0  0  0  0  # atno 8008 bound_to 7997
  156.2191  140.1801  156.7563 H   0  0  0  0  0  0  0  0  0  0  0  0  # atno 8009 bound_to 7997
  154.5797  140.0655  156.9071 H   0  0  0  0  0  0  0  0  0  0  0  0  # atno 8010 bound_to 7997
  140.1086  143.4548  152.1767 H   0  0  0  0  0  0  0  0  0  0  0  0  # atno 10167 bound_to 10162
  156.1188  130.6307  150.9428 H   0  0  0  0  0  0  0  0  0  0  0  0  # atno 10718 bound_to 10713
  153.9952  135.2928  155.3408 H   0  0  0  0  0  0  0  0  0  0  0  0  # atno 10763 bound_to 10752
  154.7191  135.5117  153.8788 H   0  0  0  0  0  0  0  0  0  0  0  0  # atno 10764 bound_to 10752
  153.0791  135.6673  154.0200 H   0  0  0  0  0  0  0  0  0  0  0  0  # atno 10765 bound_to 10752
  140.5561  134.5379  157.5133 H   0  0  0  0  0  0  0  0  0  0  0  0  # atno 11005 bound_to 11000
  146.2566  139.6316  142.9391 LP  0  0  0  0  0  0  0  0  0  0  0  0  # atno 17320 bound_to 7965
  145.4998  141.0438  143.2547 LP  0  0  0  0  0  0  0  0  0  0  0  0  # atno 17321 bound_to 7965
  139.5632  144.7418  151.4097 LP  0  0  0  0  0  0  0  0  0  0  0  0  # atno 17342 bound_to 10162
  140.6938  143.7798  150.7295 LP  0  0  0  0  0  0  0  0  0  0  0  0  # atno 17343 bound_to 10162
  157.6372  131.0914  150.8325 LP  0  0  0  0  0  0  0  0  0  0  0  0  # atno 17370 bound_to 10713
  156.8424  130.5052  149.5320 LP  0  0  0  0  0  0  0  0  0  0  0  0  # atno 17371 bound_to 10713
  139.9431  134.7751  156.0630 LP  0  0  0  0  0  0  0  0  0  0  0  0  # atno 17394 bound_to 11000
  141.1142  133.6633  156.3054 LP  0  0  0  0  0  0  0  0  0  0  0  0  # atno 17395 bound_to 11000

$$$$
