AV-unprocessed.smi:3019|AV-procd|sdf|11493|dock1
  -GOLD-   2272016433D 1   1.00000     0.00000
 Structure written by MMmdl.
 30 31  0  0  0  0  0  0  0  0  3 V2000
  153.4562  141.5620  160.5699 C   0  0  0  0  0  0  0  0  0  0  0  0
  153.1459  142.2219  159.2195 C   0  0  0  0  0  0  0  0  0  0  0  0
  152.4005  143.5561  159.3590 C   0  0  0  0  0  0  0  0  0  0  0  0
  152.4215  141.2707  158.2862 C   0  0  0  0  0  0  0  0  0  0  0  0
  152.8847  140.0825  157.8580 N   0  5  0  0  0  0  0  0  0  0  0  0
  152.0007  139.5178  157.0616 N   0  0  0  0  0  0  0  0  0  0  0  0
  150.9700  140.3744  157.0097 C   0  0  0  0  0  0  0  0  0  0  0  0
  149.7242  140.1660  156.1745 C   0  0  2  0  0  0  0  0  0  0  0  0
  150.0871  139.7641  154.7312 C   0  0  0  0  0  0  0  0  0  0  0  0
  148.8632  139.5844  153.9263 N   0  3  0  0  0  0  0  0  0  0  0  0
  148.0024  140.7819  153.9726 C   0  0  0  0  0  0  0  0  0  0  0  0
  147.7000  141.1565  155.4330 C   0  0  0  0  0  0  0  0  0  0  0  0
  148.9203  141.3441  156.1398 O   0  0  0  0  0  0  0  0  0  0  0  0
  151.2199  141.4638  157.7497 N   0  0  0  0  0  0  0  0  0  0  0  0
  154.0443  140.6537  160.4351 H   0  0  0  0  0  0  0  0  0  0  0  0
  152.5407  141.2911  161.0965 H   0  0  0  0  0  0  0  0  0  0  0  0
  154.0255  142.2331  161.2133 H   0  0  0  0  0  0  0  0  0  0  0  0
  154.1042  142.4428  158.7474 H   0  0  0  0  0  0  0  0  0  0  0  0
  152.2588  144.0289  158.3867 H   0  0  0  0  0  0  0  0  0  0  0  0
  152.9555  144.2523  159.9883 H   0  0  0  0  0  0  0  0  0  0  0  0
  151.4164  143.4135  159.8068 H   0  0  0  0  0  0  0  0  0  0  0  0
  149.1493  139.3659  156.6446 H   0  0  0  0  0  0  0  0  0  0  0  0
  150.7102  140.5312  154.2687 H   0  0  0  0  0  0  0  0  0  0  0  0
  150.6601  138.8365  154.7221 H   0  0  0  0  0  0  0  0  0  0  0  0
  149.1181  139.3889  152.9686 H   0  0  0  0  0  0  0  0  0  0  0  0
  148.5087  141.6068  153.4695 H   0  0  0  0  0  0  0  0  0  0  0  0
  147.0797  140.5874  153.4257 H   0  0  0  0  0  0  0  0  0  0  0  0
  147.1230  142.0806  155.4726 H   0  0  0  0  0  0  0  0  0  0  0  0
  147.0997  140.3854  155.9185 H   0  0  0  0  0  0  0  0  0  0  0  0
  148.3467  138.8000  154.2979 H   0  0  0  0  0  0  0  0  0  0  0  0
  1  2  1  0  0  0  0
  1 15  1  0  0  0  0
  1 16  1  0  0  0  0
  1 17  1  0  0  0  0
  2  3  1  0  0  0  0
  2  4  1  0  0  0  0
  2 18  1  0  0  0  0
  3 19  1  0  0  0  0
  3 20  1  0  0  0  0
  3 21  1  0  0  0  0
  4 14  2  0  0  0  0
  4  5  1  0  0  0  0
  5  6  1  0  0  0  0
  6  7  2  0  0  0  0
  7  8  1  0  0  0  0
  7 14  1  0  0  0  0
  8 13  1  0  0  0  0
  8  9  1  0  0  0  0
  8 22  1  0  0  0  0
  9 10  1  0  0  0  0
  9 23  1  0  0  0  0
  9 24  1  0  0  0  0
 10 11  1  0  0  0  0
 10 25  1  0  0  0  0
 10 30  1  0  0  0  0
 11 12  1  0  0  0  0
 11 26  1  0  0  0  0
 11 27  1  0  0  0  0
 12 13  1  0  0  0  0
 12 28  1  0  0  0  0
 12 29  1  0  0  0  0
M  CHG  1   5  -1
M  CHG  1  10   1
M  END
> <s_m_source_file>
AV-unprocessed.smi

> <i_m_source_file_index>
3019

> <i_lp_mmshare_version>
43012

> <i_f3d_flags>
0

> <s_epik_input>
W0NIM11bQ0hdKFtDSDNdKWMxbltuSF1jKG4xKVtDQEBIXTJbQ0gyXVtOSF1bQ0gyXVtDSDJdTzI=

> <s_epik_cmdline>
J2VwaWtfcHl0aG9uJywgJy1waCcsICc3LjAnLCAnLXRuJywgJzgnLCAnLW1hJywgJzIwMCcsICctbWV0YWxfYmluZGluZycsICctaW1hZScsICc8aW5maWxlLm1hZT4nLCAnLW9tYWUnLCAnPG91dGZpbGUubWFlPic=

> <r_lp_tautomer_probability>
0.948284

> <r_epik_Ionization_Penalty>
5.01189

> <r_epik_Ionization_Penalty_Charging>
5.01189

> <r_epik_Ionization_Penalty_Neutral>
1.51292e-13

> <r_epik_State_Penalty>
2.75157

> <r_epik_Charging_Adjusted_Penalty>
7.76346

> <i_epik_Tot_Q>
0

> <i_epik_Tot_abs_Q>
2

> <r_epik_Metal_State_Penalty>
0.54282

> <b_epik_Metal_Only>
1

> <s_lp_Force_Field>
OPLS_2005

> <r_lp_Energy>
3.44279

> <b_lp_Chiralities_Consistent>
1

> <s_lp_Variant>
AV-unprocessed.smi:3019-9

> <Gold.Version>
5.8.1

> <Gold.Id.Protein>
6NUR|6NUR_protein|mol2

> <Gold.PLP.Fitness>
34.5972

> <Gold.PLP.PLP>
-26.0146

> <Gold.PLP.part.hbond>
-2.0000

> <Gold.PLP.part.metal>
0.0000

> <Gold.PLP.part.buried>
-2.7575

> <Gold.PLP.part.nonpolar>
-20.9854

> <Gold.PLP.part.repulsive>
0.7925

> <Gold.PLP.ligand.clash>
0.0000

> <Gold.PLP.ligand.torsion>
0.2210

> <Gold.PLP.Chemscore.Hbond>
2.9840

> <Gold.PLP.Chemscore.CHOScore>
0.0000

> <Gold.PLP.Chemscore.Metal>
0.0000

> <Gold.Chemscore.Hbonds>
donor molecule, donor type, donor heavy atom, donor atom, acceptor molecule, acceptor atom, score
      L1  H    10    25       P1  7957  1.00
      P1  H  7997  8009       L1     5  2.00

> <Gold.PLP.Chemscore.Internal.Correction>
0.0725

> <Gold.Rescore>
     Score         DG    S(hbond)    S(metal)    S(lipo)     H(rot)  DE(clash)    DE(int)     intcor
     14.36     -14.84       1.77        0.00      57.01       1.26       0.19       0.29       ----

> <Gold.Chemscore.Fitness>
14.3615

> <Gold.Chemscore.DG>
-14.8423

> <Gold.Chemscore.ZeroCoef>
-5.4800

> <Gold.Chemscore.Hbond>
1.7738

> <Gold.Chemscore.Metal>
0.0000

> <Gold.Chemscore.Lipo>
57.0078

> <Gold.Chemscore.Internal_Hbond>
0.0000

> <Gold.Chemscore.DEClash>
0.1922

> <Gold.Chemscore.DEInternal>
0.2886

> <Gold.Chemscore.Rot>
1.2625

> <Gold.Chemscore.Internal.Correction>
   9.000000E+99

> <Gold.Chemscore.Hbonds>
donor molecule, donor type, donor heavy atom, donor atom, acceptor molecule, acceptor atom, score
      L1  H    10    25       P1  7957  0.92
      P1  H  7997  8009       L1     5  0.60

> <Gold.Chemscore.Hbond.Weighted>
-5.9244

> <Gold.Chemscore.Metal.Weighted>
-0.0000

> <Gold.Chemscore.Lipo.Weighted>
-6.6699

> <Gold.Chemscore.Internal_Hbond.Weighted>
0.0000

> <Gold.Chemscore.DEClash.Weighted>
0.1922

> <Gold.Chemscore.DEInternal.Weighted>
0.2886

> <Gold.Chemscore.Rot.Weighted>
3.2320

> <Gold.Chemscore.Internal.Correction.Weighted>
   9.000000E+99

> <Gold.Protein.RotatedTorsions>
[ 6907 6896 6895 6894 ] final   42.55 input  -60.11 | X-H torsion
[ 7974 7965 7964 7962 ] final   15.43 input  175.53 | X-H torsion
[ 8008 7997 7996 7995 ] final  157.93 input   59.86 | X-H torsion
[ 10167 10162 10161 10158 ] final -116.16 input  -65.29 | X-H torsion
[ 10718 10713 10712 10709 ] final -157.33 input   66.30 | X-H torsion
[ 10763 10752 10751 10750 ] final   47.39 input  -60.55 | X-H torsion
[ 11005 11000 10999 10996 ] final  145.93 input  -57.11 | X-H torsion

> <Gold.Protein.ActiveResidues>
 VAL166  LYS551  ARG553  GLY616  TRP617  ASP618  TYR619  PRO620  LYS621  CYS622 
 ASP623  PHE694  ASN695  SER759  ASP760  ASP761  ALA762  ILE779  LEU786  VAL792 
 PHE793  MET794  SER795  GLU796  ALA797  LYS798  CYS799  TRP800  GLU811  SER814 

> <Gold.Protein.RotatedAtoms>
  152.2093  134.8516  160.0498 H   0  0  0  0  0  0  0  0  0  0  0  0  # atno 6907 bound_to 6896
  151.9341  133.3614  159.3949 H   0  0  0  0  0  0  0  0  0  0  0  0  # atno 6908 bound_to 6896
  150.6972  134.4432  159.5346 H   0  0  0  0  0  0  0  0  0  0  0  0  # atno 6909 bound_to 6896
  146.2278  139.8895  142.8557 H   0  0  0  0  0  0  0  0  0  0  0  0  # atno 7974 bound_to 7965
  156.2334  140.1872  156.7183 H   0  0  0  0  0  0  0  0  0  0  0  0  # atno 8008 bound_to 7997
  154.6063  140.0628  156.9462 H   0  0  0  0  0  0  0  0  0  0  0  0  # atno 8009 bound_to 7997
  155.2091  140.3298  155.4334 H   0  0  0  0  0  0  0  0  0  0  0  0  # atno 8010 bound_to 7997
  140.0822  143.4777  152.1919 H   0  0  0  0  0  0  0  0  0  0  0  0  # atno 10167 bound_to 10162
  156.5388  130.8554  151.2741 H   0  0  0  0  0  0  0  0  0  0  0  0  # atno 10718 bound_to 10713
  152.9800  135.5978  154.3754 H   0  0  0  0  0  0  0  0  0  0  0  0  # atno 10763 bound_to 10752
  154.3424  135.2767  155.2417 H   0  0  0  0  0  0  0  0  0  0  0  0  # atno 10764 bound_to 10752
  154.4493  135.5993  153.6236 H   0  0  0  0  0  0  0  0  0  0  0  0  # atno 10765 bound_to 10752
  140.0752  134.9129  157.1410 H   0  0  0  0  0  0  0  0  0  0  0  0  # atno 11005 bound_to 11000
  145.2431  141.0016  143.3924 LP  0  0  0  0  0  0  0  0  0  0  0  0  # atno 17320 bound_to 7965
  144.9435  139.4162  143.6437 LP  0  0  0  0  0  0  0  0  0  0  0  0  # atno 17321 bound_to 7965
  139.5773  144.7493  151.3732 LP  0  0  0  0  0  0  0  0  0  0  0  0  # atno 17342 bound_to 10162
  140.7072  143.7484  150.7502 LP  0  0  0  0  0  0  0  0  0  0  0  0  # atno 17343 bound_to 10162
  157.7409  130.9859  150.2408 LP  0  0  0  0  0  0  0  0  0  0  0  0  # atno 17370 bound_to 10713
  156.2991  130.3756  149.7767 LP  0  0  0  0  0  0  0  0  0  0  0  0  # atno 17371 bound_to 10713
  140.3569  134.2537  155.7191 LP  0  0  0  0  0  0  0  0  0  0  0  0  # atno 17394 bound_to 11000
  141.2027  133.7932  157.0379 LP  0  0  0  0  0  0  0  0  0  0  0  0  # atno 17395 bound_to 11000

$$$$
