AV-unprocessed.smi:1809|AV-procd|sdf|7324|dock2
  -GOLD-   22720 8583D 1   1.00000     0.00000
 Structure written by MMmdl.
 39 41  0  0  0  0  0  0  0  0  3 V2000
  146.1949  136.3845  162.2621 C   0  0  0  0  0  0  0  0  0  0  0  0
  147.2285  136.0362  161.2465 C   0  0  0  0  0  0  0  0  0  0  0  0
  148.3486  136.7445  161.0842 N   0  0  0  0  0  0  0  0  0  0  0  0
  149.1502  136.2306  160.0750 N   0  0  0  0  0  0  0  0  0  0  0  0
  148.6225  135.1492  159.4836 C   0  0  0  0  0  0  0  0  0  0  0  0
  149.2416  134.5020  158.4824 N   0  5  0  0  0  0  0  0  0  0  0  0
  148.5431  133.6609  157.6877 C   0  0  0  0  0  0  0  0  0  0  0  0
  147.5841  132.9626  158.0253 O   0  0  0  0  0  0  0  0  0  0  0  0
  148.9866  133.6199  156.4236 N   0  0  0  0  0  0  0  0  0  0  0  0
  148.4389  132.7895  155.3564 C   0  0  0  0  0  0  0  0  0  0  0  0
  147.7467  133.6380  154.2757 C   0  0  1  0  0  0  0  0  0  0  0  0
  147.7557  132.9435  152.9054 C   0  0  0  0  0  0  0  0  0  0  0  0
  147.0565  133.7609  151.8820 N   0  3  1  0  0  0  0  0  0  0  0  0
  146.7998  133.0023  150.6378 C   0  0  0  0  0  0  0  0  0  0  0  0
  145.3433  132.5080  150.7135 C   0  0  0  0  0  0  0  0  0  0  0  0
  144.7708  133.1009  152.0060 C   0  0  0  0  0  0  0  0  0  0  0  0
  145.7321  134.2440  152.3312 C   0  0  1  0  0  0  0  0  0  0  0  0
  145.7252  134.7403  153.7920 C   0  0  0  0  0  0  0  0  0  0  0  0
  146.3869  133.8224  154.6495 O   0  0  0  0  0  0  0  0  0  0  0  0
  147.0696  134.6633  160.1638 S   0  0  0  0  0  0  0  0  0  0  0  0
  145.5940  137.2225  161.9087 H   0  0  0  0  0  0  0  0  0  0  0  0
  146.6689  136.6630  163.2035 H   0  0  0  0  0  0  0  0  0  0  0  0
  145.5381  135.5333  162.4415 H   0  0  0  0  0  0  0  0  0  0  0  0
  149.7721  134.2090  156.1886 H   0  0  0  0  0  0  0  0  0  0  0  0
  149.2377  132.1900  154.9168 H   0  0  0  0  0  0  0  0  0  0  0  0
  147.7301  132.0866  155.7949 H   0  0  0  0  0  0  0  0  0  0  0  0
  148.2490  134.6039  154.1957 H   0  0  0  0  0  0  0  0  0  0  0  0
  148.7809  132.7675  152.5777 H   0  0  0  0  0  0  0  0  0  0  0  0
  147.2778  131.9660  152.9903 H   0  0  0  0  0  0  0  0  0  0  0  0
  146.9115  133.6831  149.7931 H   0  0  0  0  0  0  0  0  0  0  0  0
  147.5103  132.1873  150.4906 H   0  0  0  0  0  0  0  0  0  0  0  0
  144.7824  132.8583  149.8462 H   0  0  0  0  0  0  0  0  0  0  0  0
  145.2859  131.4190  150.7237 H   0  0  0  0  0  0  0  0  0  0  0  0
  143.7395  133.4373  151.8946 H   0  0  0  0  0  0  0  0  0  0  0  0
  144.7925  132.3514  152.7986 H   0  0  0  0  0  0  0  0  0  0  0  0
  145.4645  135.0848  151.6886 H   0  0  0  0  0  0  0  0  0  0  0  0
  146.2132  135.7139  153.8630 H   0  0  0  0  0  0  0  0  0  0  0  0
  144.7014  134.8816  154.1392 H   0  0  0  0  0  0  0  0  0  0  0  0
  147.6437  134.5577  151.6799 H   0  0  0  0  0  0  0  0  0  0  0  0
  1  2  1  0  0  0  0
  1 21  1  0  0  0  0
  1 22  1  0  0  0  0
  1 23  1  0  0  0  0
  2 20  1  0  0  0  0
  2  3  2  0  0  0  0
  3  4  1  0  0  0  0
  4  5  2  0  0  0  0
  5  6  1  0  0  0  0
  5 20  1  0  0  0  0
  6  7  1  0  0  0  0
  7  8  2  0  0  0  0
  7  9  1  0  0  0  0
  9 10  1  0  0  0  0
  9 24  1  0  0  0  0
 10 11  1  0  0  0  0
 10 25  1  0  0  0  0
 10 26  1  0  0  0  0
 11 19  1  0  0  0  0
 11 12  1  0  0  0  0
 11 27  1  0  0  0  0
 12 13  1  0  0  0  0
 12 28  1  0  0  0  0
 12 29  1  0  0  0  0
 13 17  1  0  0  0  0
 13 14  1  0  0  0  0
 13 39  1  0  0  0  0
 14 15  1  0  0  0  0
 14 30  1  0  0  0  0
 14 31  1  0  0  0  0
 15 16  1  0  0  0  0
 15 32  1  0  0  0  0
 15 33  1  0  0  0  0
 16 17  1  0  0  0  0
 16 34  1  0  0  0  0
 16 35  1  0  0  0  0
 17 18  1  0  0  0  0
 17 36  1  0  0  0  0
 18 19  1  0  0  0  0
 18 37  1  0  0  0  0
 18 38  1  0  0  0  0
M  CHG  1   6  -1
M  CHG  1  13   1
M  END
> <s_m_source_file>
AV-unprocessed.smi

> <i_m_source_file_index>
1809

> <i_lp_mmshare_version>
43012

> <i_f3d_flags>
0

> <s_epik_input>
W0NIM11jMW5uYyhzMSlbTkhdQyg9TylbTkhdW0NIMl1bQ0BIXShbQ0gyXTIpT1tDSDJdW0NAQEhdKE4yMylbQ0gyXVtDSDJdW0NIMl0z

> <s_epik_cmdline>
J2VwaWtfcHl0aG9uJywgJy1waCcsICc3LjAnLCAnLXRuJywgJzgnLCAnLW1hJywgJzIwMCcsICctbWV0YWxfYmluZGluZycsICctaW1hZScsICc8aW5maWxlLm1hZT4nLCAnLW9tYWUnLCAnPG91dGZpbGUubWFlPic=

> <r_lp_tautomer_probability>
1

> <r_epik_Ionization_Penalty>
3.2601

> <r_epik_Ionization_Penalty_Charging>
3.1406

> <r_epik_Ionization_Penalty_Neutral>
0.119497

> <r_epik_State_Penalty>
3.08894

> <r_epik_Charging_Adjusted_Penalty>
6.22954

> <i_epik_Tot_Q>
0

> <i_epik_Tot_abs_Q>
2

> <r_epik_Metal_State_Penalty>
0.510807

> <b_epik_Metal_Only>
1

> <s_lp_Force_Field>
OPLS_2005

> <r_lp_Energy>
28.9947

> <b_lp_Chiralities_Consistent>
1

> <s_lp_Variant>
AV-unprocessed.smi:1809-16

> <Gold.Version>
5.8.1

> <Gold.Id.Protein>
6NUR|6NUR_protein|mol2

> <Gold.PLP.Fitness>
40.5350

> <Gold.PLP.PLP>
-24.8376

> <Gold.PLP.part.hbond>
-4.8469

> <Gold.PLP.part.metal>
0.0000

> <Gold.PLP.part.buried>
-2.6513

> <Gold.PLP.part.nonpolar>
-17.2253

> <Gold.PLP.part.repulsive>
0.1348

> <Gold.PLP.ligand.clash>
0.0000

> <Gold.PLP.ligand.torsion>
0.6497

> <Gold.PLP.Chemscore.Hbond>
5.6581

> <Gold.PLP.Chemscore.CHOScore>
0.0000

> <Gold.PLP.Chemscore.Metal>
0.0000

> <Gold.Chemscore.Hbonds>
donor molecule, donor type, donor heavy atom, donor atom, acceptor molecule, acceptor atom, score
      L1  H    13    39       P1  7948  1.79
      P1  H  6896  6907       L1     6  1.50
      P1  H  6931  6943       L1     3  1.00

> <Gold.PLP.Chemscore.Internal.Correction>
0.0225

> <Gold.Rescore>
     Score         DG    S(hbond)    S(metal)    S(lipo)     H(rot)  DE(clash)    DE(int)     intcor
     12.89     -14.98       1.89        0.00      56.20       1.32       0.01       2.08       ----

> <Gold.Chemscore.Fitness>
12.8881

> <Gold.Chemscore.DG>
-14.9800

> <Gold.Chemscore.ZeroCoef>
-5.4800

> <Gold.Chemscore.Hbond>
1.8910

> <Gold.Chemscore.Metal>
0.0000

> <Gold.Chemscore.Lipo>
56.1970

> <Gold.Chemscore.Internal_Hbond>
0.0000

> <Gold.Chemscore.DEClash>
0.0112

> <Gold.Chemscore.DEInternal>
2.0807

> <Gold.Chemscore.Rot>
1.3246

> <Gold.Chemscore.Internal.Correction>
   9.000000E+99

> <Gold.Chemscore.Hbonds>
donor molecule, donor type, donor heavy atom, donor atom, acceptor molecule, acceptor atom, score
      L1  H    13    39       P1  7948  0.22
      P1  H  6896  6907       L1     6  0.09
      P1  H  6931  6943       L1     3  0.88

> <Gold.Chemscore.Hbond.Weighted>
-6.3159

> <Gold.Chemscore.Metal.Weighted>
-0.0000

> <Gold.Chemscore.Lipo.Weighted>
-6.5751

> <Gold.Chemscore.Internal_Hbond.Weighted>
0.0000

> <Gold.Chemscore.DEClash.Weighted>
0.0112

> <Gold.Chemscore.DEInternal.Weighted>
2.0807

> <Gold.Chemscore.Rot.Weighted>
3.3910

> <Gold.Chemscore.Internal.Correction.Weighted>
   9.000000E+99

> <Gold.Protein.RotatedTorsions>
[ 6907 6896 6895 6894 ] final  -96.46 input  -60.11 | X-H torsion
[ 7974 7965 7964 7962 ] final -116.07 input  175.53 | X-H torsion
[ 8008 7997 7996 7995 ] final  -87.24 input   59.86 | X-H torsion
[ 10167 10162 10161 10158 ] final   18.82 input  -65.29 | X-H torsion
[ 10718 10713 10712 10709 ] final  -63.10 input   66.30 | X-H torsion
[ 10763 10752 10751 10750 ] final -106.46 input  -60.55 | X-H torsion
[ 11005 11000 10999 10996 ] final  -53.24 input  -57.11 | X-H torsion

> <Gold.Protein.ActiveResidues>
 VAL166  LYS551  ARG553  GLY616  TRP617  ASP618  TYR619  PRO620  LYS621  CYS622 
 ASP623  PHE694  ASN695  SER759  ASP760  ASP761  ALA762  ILE779  LEU786  VAL792 
 PHE793  MET794  SER795  GLU796  ALA797  LYS798  CYS799  TRP800  GLU811  SER814 

> <Gold.Protein.RotatedAtoms>
  150.6989  134.1500  159.4136 H   0  0  0  0  0  0  0  0  0  0  0  0  # atno 6907 bound_to 6896
  151.9483  135.0179  160.0549 H   0  0  0  0  0  0  0  0  0  0  0  0  # atno 6908 bound_to 6896
  152.2034  133.4822  159.5107 H   0  0  0  0  0  0  0  0  0  0  0  0  # atno 6909 bound_to 6896
  145.1010  140.8552  143.3926 H   0  0  0  0  0  0  0  0  0  0  0  0  # atno 7974 bound_to 7965
  154.6609  140.0568  157.0061 H   0  0  0  0  0  0  0  0  0  0  0  0  # atno 8008 bound_to 7997
  155.1229  140.3249  155.4474 H   0  0  0  0  0  0  0  0  0  0  0  0  # atno 8009 bound_to 7997
  156.2618  140.1994  156.6351 H   0  0  0  0  0  0  0  0  0  0  0  0  # atno 8010 bound_to 7997
  140.5625  143.9312  150.6652 H   0  0  0  0  0  0  0  0  0  0  0  0  # atno 10167 bound_to 10162
  156.0812  130.4217  150.1230 H   0  0  0  0  0  0  0  0  0  0  0  0  # atno 10718 bound_to 10713
  154.8013  135.4711  154.0284 H   0  0  0  0  0  0  0  0  0  0  0  0  # atno 10763 bound_to 10752
  153.1787  135.6837  153.8515 H   0  0  0  0  0  0  0  0  0  0  0  0  # atno 10764 bound_to 10752
  153.8073  135.3222  155.3374 H   0  0  0  0  0  0  0  0  0  0  0  0  # atno 10765 bound_to 10752
  141.0966  133.6624  156.4142 H   0  0  0  0  0  0  0  0  0  0  0  0  # atno 11005 bound_to 11000
  145.0955  139.2859  143.5713 LP  0  0  0  0  0  0  0  0  0  0  0  0  # atno 17320 bound_to 7965
  146.3529  140.0505  142.8636 LP  0  0  0  0  0  0  0  0  0  0  0  0  # atno 17321 bound_to 7965
  140.2766  143.3419  152.1190 LP  0  0  0  0  0  0  0  0  0  0  0  0  # atno 17342 bound_to 10162
  139.5077  144.6836  151.5945 LP  0  0  0  0  0  0  0  0  0  0  0  0  # atno 17343 bound_to 10162
  156.9260  130.9698  151.3541 LP  0  0  0  0  0  0  0  0  0  0  0  0  # atno 17370 bound_to 10713
  157.5930  130.8457  149.8686 LP  0  0  0  0  0  0  0  0  0  0  0  0  # atno 17371 bound_to 10713
  140.5126  134.6381  157.5290 LP  0  0  0  0  0  0  0  0  0  0  0  0  # atno 17394 bound_to 11000
  139.9804  134.7147  155.9870 LP  0  0  0  0  0  0  0  0  0  0  0  0  # atno 17395 bound_to 11000

$$$$
