AV-unprocessed.smi:1791|AV-procd|sdf|7219|dock4
  -GOLD-   22720 8463D 1   1.00000     0.00000
 Structure written by MMmdl.
 38 39  0  0  0  0  0  0  0  0  1 V2000
  147.6803  128.5381  153.4397 C   0  0  0  0  0  0  0  0  0  0  0  0
  148.5756  129.1042  154.3908 O   0  0  0  0  0  0  0  0  0  0  0  0
  148.7934  130.4665  154.3546 C   0  0  0  0  0  0  0  0  0  0  0  0
  149.7301  131.0247  155.2473 C   0  0  0  0  0  0  0  0  0  0  0  0
  149.9603  132.4136  155.2145 C   0  0  0  0  0  0  0  0  0  0  0  0
  149.2478  133.2030  154.2801 C   0  0  0  0  0  0  0  0  0  0  0  0
  149.3747  134.6130  154.1513 N   0  0  0  0  0  0  0  0  0  0  0  0
  149.9743  135.4859  154.9793 C   0  0  0  0  0  0  0  0  0  0  0  0
  150.5313  135.1964  156.0377 O   0  0  0  0  0  0  0  0  0  0  0  0
  149.9046  136.7331  154.4917 N   0  0  0  0  0  0  0  0  0  0  0  0
  150.4517  137.9325  155.1228 C   0  0  1  0  0  0  0  0  0  0  0  0
  151.9858  137.8599  155.0724 C   0  0  0  0  0  0  0  0  0  0  0  0
  149.9000  139.1834  154.4112 C   0  0  2  0  0  0  0  0  0  0  0  0
  150.2871  140.5130  155.0620 C   0  0  0  0  0  0  0  0  0  0  0  0
  149.1631  141.4565  154.6610 C   0  0  0  0  0  0  0  0  0  0  0  0
  148.0750  140.5304  154.1129 C   0  0  0  0  0  0  0  0  0  0  0  0
  148.4830  139.2230  154.4874 O   0  0  0  0  0  0  0  0  0  0  0  0
  148.3228  132.5487  153.4407 C   0  0  0  0  0  0  0  0  0  0  0  0
  148.0979  131.2183  153.4663 N   0  0  0  0  0  0  0  0  0  0  0  0
  147.6174  127.4617  153.5986 H   0  0  0  0  0  0  0  0  0  0  0  0
  148.0282  128.7012  152.4187 H   0  0  0  0  0  0  0  0  0  0  0  0
  146.6744  128.9467  153.5450 H   0  0  0  0  0  0  0  0  0  0  0  0
  150.2616  130.3980  155.9483 H   0  0  0  0  0  0  0  0  0  0  0  0
  150.6656  132.8387  155.9110 H   0  0  0  0  0  0  0  0  0  0  0  0
  149.0161  134.9990  153.2903 H   0  0  0  0  0  0  0  0  0  0  0  0
  149.4259  136.8682  153.6135 H   0  0  0  0  0  0  0  0  0  0  0  0
  150.1563  137.9754  156.1725 H   0  0  0  0  0  0  0  0  0  0  0  0
  152.4409  138.7128  155.5763 H   0  0  0  0  0  0  0  0  0  0  0  0
  152.3504  137.8471  154.0448 H   0  0  0  0  0  0  0  0  0  0  0  0
  152.3511  136.9592  155.5667 H   0  0  0  0  0  0  0  0  0  0  0  0
  150.1948  139.1864  153.3596 H   0  0  0  0  0  0  0  0  0  0  0  0
  150.3049  140.4113  156.1480 H   0  0  0  0  0  0  0  0  0  0  0  0
  151.2681  140.8661  154.7423 H   0  0  0  0  0  0  0  0  0  0  0  0
  148.8104  142.0244  155.5227 H   0  0  0  0  0  0  0  0  0  0  0  0
  149.4851  142.1674  153.8996 H   0  0  0  0  0  0  0  0  0  0  0  0
  147.0862  140.7634  154.5087 H   0  0  0  0  0  0  0  0  0  0  0  0
  148.0300  140.5939  153.0248 H   0  0  0  0  0  0  0  0  0  0  0  0
  147.7462  133.1090  152.7192 H   0  0  0  0  0  0  0  0  0  0  0  0
  1  2  1  0  0  0  0
  1 20  1  0  0  0  0
  1 21  1  0  0  0  0
  1 22  1  0  0  0  0
  2  3  1  0  0  0  0
  3 19  1  0  0  0  0
  3  4  2  0  0  0  0
  4  5  1  0  0  0  0
  4 23  1  0  0  0  0
  5  6  2  0  0  0  0
  5 24  1  0  0  0  0
  6  7  1  0  0  0  0
  6 18  1  0  0  0  0
  7  8  1  0  0  0  0
  7 25  1  0  0  0  0
  8  9  2  0  0  0  0
  8 10  1  0  0  0  0
 10 11  1  0  0  0  0
 10 26  1  0  0  0  0
 11 12  1  0  0  0  0
 11 13  1  0  0  0  0
 11 27  1  0  0  0  0
 12 28  1  0  0  0  0
 12 29  1  0  0  0  0
 12 30  1  0  0  0  0
 13 17  1  0  0  0  0
 13 14  1  0  0  0  0
 13 31  1  0  0  0  0
 14 15  1  0  0  0  0
 14 32  1  0  0  0  0
 14 33  1  0  0  0  0
 15 16  1  0  0  0  0
 15 34  1  0  0  0  0
 15 35  1  0  0  0  0
 16 17  1  0  0  0  0
 16 36  1  0  0  0  0
 16 37  1  0  0  0  0
 18 19  2  0  0  0  0
 18 38  1  0  0  0  0
M  END
> <s_m_source_file>
AV-unprocessed.smi

> <i_m_source_file_index>
1791

> <i_lp_mmshare_version>
43012

> <i_f3d_flags>
0

> <s_epik_input>
W0NIM11PYzFbY0hdW2NIXWMoW2NIXW4xKVtOSF1DKD1PKVtOSF1bQ0BIXShbQ0gzXSlbQ0BASF0yW0NIMl1bQ0gyXVtDSDJdTzI=

> <s_epik_cmdline>
J2VwaWtfcHl0aG9uJywgJy1waCcsICc3LjAnLCAnLXRuJywgJzgnLCAnLW1hJywgJzIwMCcsICctbWV0YWxfYmluZGluZycsICctaW1hZScsICc8aW5maWxlLm1hZT4nLCAnLW9tYWUnLCAnPG91dGZpbGUubWFlPic=

> <r_lp_tautomer_probability>
1

> <r_epik_Ionization_Penalty>
9.18737e-05

> <r_epik_Ionization_Penalty_Charging>
0

> <r_epik_Ionization_Penalty_Neutral>
9.18737e-05

> <r_epik_State_Penalty>
-0

> <r_epik_Charging_Adjusted_Penalty>
0

> <i_epik_Tot_Q>
0

> <i_epik_Tot_abs_Q>
0

> <r_epik_Metal_State_Penalty>
-0

> <b_epik_Metal_Only>
0

> <s_lp_Force_Field>
OPLS_2005

> <r_lp_Energy>
20.9022

> <b_lp_Chiralities_Consistent>
1

> <s_lp_Variant>
AV-unprocessed.smi:1791-2

> <Gold.Version>
5.8.1

> <Gold.Id.Protein>
6NUR|6NUR_protein|mol2

> <Gold.PLP.Fitness>
37.1136

> <Gold.PLP.PLP>
-32.1681

> <Gold.PLP.part.hbond>
-2.3268

> <Gold.PLP.part.metal>
0.0000

> <Gold.PLP.part.buried>
-2.7172

> <Gold.PLP.part.nonpolar>
-28.9637

> <Gold.PLP.part.repulsive>
0.9025

> <Gold.PLP.ligand.clash>
0.0000

> <Gold.PLP.ligand.torsion>
0.1725

> <Gold.PLP.Chemscore.Hbond>
1.7500

> <Gold.PLP.Chemscore.CHOScore>
0.0000

> <Gold.PLP.Chemscore.Metal>
0.0000

> <Gold.Chemscore.Hbonds>
donor molecule, donor type, donor heavy atom, donor atom, acceptor molecule, acceptor atom, score
      L1  H     7    25       P1  7948  0.95
      L1  H    10    26       P1  7948  0.98

> <Gold.PLP.Chemscore.Internal.Correction>
0.0404

> <Gold.Rescore>
     Score         DG    S(hbond)    S(metal)    S(lipo)     H(rot)  DE(clash)    DE(int)     intcor
     12.77     -14.14       1.36        0.00      67.26       1.47       0.01       1.36       ----

> <Gold.Chemscore.Fitness>
12.7748

> <Gold.Chemscore.DG>
-14.1433

> <Gold.Chemscore.ZeroCoef>
-5.4800

> <Gold.Chemscore.Hbond>
1.3638

> <Gold.Chemscore.Metal>
0.0000

> <Gold.Chemscore.Lipo>
67.2603

> <Gold.Chemscore.Internal_Hbond>
0.0000

> <Gold.Chemscore.DEClash>
0.0131

> <Gold.Chemscore.DEInternal>
1.3555

> <Gold.Chemscore.Rot>
1.4693

> <Gold.Chemscore.Internal.Correction>
   9.000000E+99

> <Gold.Chemscore.Hbonds>
donor molecule, donor type, donor heavy atom, donor atom, acceptor molecule, acceptor atom, score
      L1  H     7    25       P1  7948  0.21
      L1  H    10    26       P1  7948  0.84

> <Gold.Chemscore.Hbond.Weighted>
-4.5552

> <Gold.Chemscore.Metal.Weighted>
-0.0000

> <Gold.Chemscore.Lipo.Weighted>
-7.8695

> <Gold.Chemscore.Internal_Hbond.Weighted>
0.0000

> <Gold.Chemscore.DEClash.Weighted>
0.0131

> <Gold.Chemscore.DEInternal.Weighted>
1.3555

> <Gold.Chemscore.Rot.Weighted>
3.7613

> <Gold.Chemscore.Internal.Correction.Weighted>
   9.000000E+99

> <Gold.Protein.RotatedTorsions>
[ 6907 6896 6895 6894 ] final   23.59 input  -60.11 | X-H torsion
[ 7974 7965 7964 7962 ] final -109.38 input  175.53 | X-H torsion
[ 8008 7997 7996 7995 ] final  -64.74 input   59.86 | X-H torsion
[ 10167 10162 10161 10158 ] final  -50.77 input  -65.29 | X-H torsion
[ 10718 10713 10712 10709 ] final  -53.29 input   66.30 | X-H torsion
[ 10763 10752 10751 10750 ] final  -79.61 input  -60.55 | X-H torsion
[ 11005 11000 10999 10996 ] final  119.67 input  -57.11 | X-H torsion

> <Gold.Protein.ActiveResidues>
 VAL166  LYS551  ARG553  GLY616  TRP617  ASP618  TYR619  PRO620  LYS621  CYS622 
 ASP623  PHE694  ASN695  SER759  ASP760  ASP761  ALA762  ILE779  LEU786  VAL792 
 PHE793  MET794  SER795  GLU796  ALA797  LYS798  CYS799  TRP800  GLU811  SER814 

> <Gold.Protein.RotatedAtoms>
  151.9447  135.0197  160.0537 H   0  0  0  0  0  0  0  0  0  0  0  0  # atno 6907 bound_to 6896
  152.2005  133.4833  159.5064 H   0  0  0  0  0  0  0  0  0  0  0  0  # atno 6908 bound_to 6896
  150.6953  134.1513  159.4184 H   0  0  0  0  0  0  0  0  0  0  0  0  # atno 6909 bound_to 6896
  145.1812  140.8972  143.3479 H   0  0  0  0  0  0  0  0  0  0  0  0  # atno 7974 bound_to 7965
  154.4630  140.0947  156.6944 H   0  0  0  0  0  0  0  0  0  0  0  0  # atno 8008 bound_to 7997
  155.4940  140.3471  155.4341 H   0  0  0  0  0  0  0  0  0  0  0  0  # atno 8009 bound_to 7997
  156.0904  140.1396  156.9587 H   0  0  0  0  0  0  0  0  0  0  0  0  # atno 8010 bound_to 7997
  140.6621  143.2645  151.4408 H   0  0  0  0  0  0  0  0  0  0  0  0  # atno 10167 bound_to 10162
  156.1548  130.4150  149.9887 H   0  0  0  0  0  0  0  0  0  0  0  0  # atno 10718 bound_to 10713
  154.5408  135.5689  153.6838 H   0  0  0  0  0  0  0  0  0  0  0  0  # atno 10763 bound_to 10752
  152.9963  135.6227  154.2504 H   0  0  0  0  0  0  0  0  0  0  0  0  # atno 10764 bound_to 10752
  154.2435  135.2861  155.2824 H   0  0  0  0  0  0  0  0  0  0  0  0  # atno 10765 bound_to 10752
  139.9155  134.9630  156.7690 H   0  0  0  0  0  0  0  0  0  0  0  0  # atno 11005 bound_to 11000
  145.0134  139.3489  143.6108 LP  0  0  0  0  0  0  0  0  0  0  0  0  # atno 17320 bound_to 7965
  146.3453  139.9406  142.8741 LP  0  0  0  0  0  0  0  0  0  0  0  0  # atno 17321 bound_to 7965
  139.5858  144.1608  152.2027 LP  0  0  0  0  0  0  0  0  0  0  0  0  # atno 17342 bound_to 10162
  140.0947  144.5591  150.7030 LP  0  0  0  0  0  0  0  0  0  0  0  0  # atno 17343 bound_to 10162
  156.7734  130.9194  151.3645 LP  0  0  0  0  0  0  0  0  0  0  0  0  # atno 17370 bound_to 10713
  157.6686  130.9030  149.9988 LP  0  0  0  0  0  0  0  0  0  0  0  0  # atno 17371 bound_to 10713
  140.6636  133.9622  155.7818 LP  0  0  0  0  0  0  0  0  0  0  0  0  # atno 17394 bound_to 11000
  141.0626  134.0324  157.3637 LP  0  0  0  0  0  0  0  0  0  0  0  0  # atno 17395 bound_to 11000

$$$$
