AV-unprocessed.smi:1779|AV-procd|sdf|7181|dock10
  -GOLD-   22720 8423D 1   1.00000     0.00000
 Structure written by MMmdl.
 47 48  0  0  0  0  0  0  0  0  2 V2000
  146.3383  129.2848  151.8524 C   0  0  0  0  0  0  0  0  0  0  0  0
  146.9206  130.6504  152.0690 C   0  0  0  0  0  0  0  0  0  0  0  0
  146.2832  131.9142  151.9003 C   0  0  0  0  0  0  0  0  0  0  0  0
  147.2733  132.7974  152.2342 C   0  0  0  0  0  0  0  0  0  0  0  0
  147.2312  134.1558  152.2672 N   0  0  0  0  0  0  0  0  0  0  0  0
  146.1901  134.9554  152.5566 C   0  0  0  0  0  0  0  0  0  0  0  0
  145.0540  134.5757  152.8406 O   0  0  0  0  0  0  0  0  0  0  0  0
  146.5371  136.2482  152.4808 N   0  0  0  0  0  0  0  0  0  0  0  0
  145.6490  137.3785  152.7348 C   0  0  0  0  0  0  0  0  0  0  0  0
  146.3215  138.7270  152.4099 C   0  0  2  0  0  0  0  0  0  0  0  0
  147.2401  138.5074  151.3583 O   0  0  0  0  0  0  0  0  0  0  0  0
  147.0775  139.3462  153.6057 C   0  0  0  0  0  0  0  0  0  0  0  0
  146.3121  140.4410  154.2554 N   0  3  0  0  0  0  0  0  0  0  0  0
  146.9177  141.7762  154.0112 C   0  0  0  0  0  0  0  0  0  0  0  0
  146.0305  142.9010  154.5718 C   0  0  0  0  0  0  0  0  0  0  0  0
  145.7551  142.6920  156.0665 C   0  0  0  0  0  0  0  0  0  0  0  0
  145.1615  141.2966  156.2984 C   0  0  0  0  0  0  0  0  0  0  0  0
  146.0696  140.2068  155.7047 C   0  0  0  0  0  0  0  0  0  0  0  0
  148.4041  132.0901  152.5765 N   0  0  0  0  0  0  0  0  0  0  0  0
  149.7011  132.5765  153.0047 C   0  0  0  0  0  0  0  0  0  0  0  0
  148.1819  130.7624  152.4701 N   0  0  0  0  0  0  0  0  0  0  0  0
  145.2809  129.3433  151.5939 H   0  0  0  0  0  0  0  0  0  0  0  0
  146.4260  128.6730  152.7507 H   0  0  0  0  0  0  0  0  0  0  0  0
  146.8496  128.7646  151.0420 H   0  0  0  0  0  0  0  0  0  0  0  0
  145.2688  132.1152  151.5903 H   0  0  0  0  0  0  0  0  0  0  0  0
  148.0955  134.6181  152.0261 H   0  0  0  0  0  0  0  0  0  0  0  0
  147.4933  136.4691  152.2431 H   0  0  0  0  0  0  0  0  0  0  0  0
  144.7041  137.2732  152.1985 H   0  0  0  0  0  0  0  0  0  0  0  0
  145.3988  137.3424  153.7959 H   0  0  0  0  0  0  0  0  0  0  0  0
  145.5597  139.4120  152.0386 H   0  0  0  0  0  0  0  0  0  0  0  0
  147.9737  139.0936  151.4683 H   0  0  0  0  0  0  0  0  0  0  0  0
  147.3091  138.5924  154.3583 H   0  0  0  0  0  0  0  0  0  0  0  0
  148.0382  139.7211  153.2490 H   0  0  0  0  0  0  0  0  0  0  0  0
  147.9098  141.8161  154.4642 H   0  0  0  0  0  0  0  0  0  0  0  0
  147.0512  141.9303  152.9395 H   0  0  0  0  0  0  0  0  0  0  0  0
  146.5093  143.8679  154.4130 H   0  0  0  0  0  0  0  0  0  0  0  0
  145.0864  142.9296  154.0259 H   0  0  0  0  0  0  0  0  0  0  0  0
  146.6823  142.7981  156.6313 H   0  0  0  0  0  0  0  0  0  0  0  0
  145.0737  143.4588  156.4364 H   0  0  0  0  0  0  0  0  0  0  0  0
  145.0206  141.1242  157.3659 H   0  0  0  0  0  0  0  0  0  0  0  0
  144.1723  141.2375  155.8420 H   0  0  0  0  0  0  0  0  0  0  0  0
  145.6020  139.2354  155.8607 H   0  0  0  0  0  0  0  0  0  0  0  0
  147.0228  140.1847  156.2354 H   0  0  0  0  0  0  0  0  0  0  0  0
  150.0675  133.3202  152.2963 H   0  0  0  0  0  0  0  0  0  0  0  0
  150.4200  131.7575  153.0583 H   0  0  0  0  0  0  0  0  0  0  0  0
  149.6112  133.0348  153.9899 H   0  0  0  0  0  0  0  0  0  0  0  0
  145.4085  140.4567  153.8034 H   0  0  0  0  0  0  0  0  0  0  0  0
  1  2  1  0  0  0  0
  1 22  1  0  0  0  0
  1 23  1  0  0  0  0
  1 24  1  0  0  0  0
  2 21  2  0  0  0  0
  2  3  1  0  0  0  0
  3  4  2  0  0  0  0
  3 25  1  0  0  0  0
  4  5  1  0  0  0  0
  4 19  1  0  0  0  0
  5  6  1  0  0  0  0
  5 26  1  0  0  0  0
  6  7  2  0  0  0  0
  6  8  1  0  0  0  0
  8  9  1  0  0  0  0
  8 27  1  0  0  0  0
  9 10  1  0  0  0  0
  9 28  1  0  0  0  0
  9 29  1  0  0  0  0
 10 11  1  0  0  0  0
 10 12  1  0  0  0  0
 10 30  1  0  0  0  0
 11 31  1  0  0  0  0
 12 13  1  0  0  0  0
 12 32  1  0  0  0  0
 12 33  1  0  0  0  0
 13 18  1  0  0  0  0
 13 14  1  0  0  0  0
 13 47  1  0  0  0  0
 14 15  1  0  0  0  0
 14 34  1  0  0  0  0
 14 35  1  0  0  0  0
 15 16  1  0  0  0  0
 15 36  1  0  0  0  0
 15 37  1  0  0  0  0
 16 17  1  0  0  0  0
 16 38  1  0  0  0  0
 16 39  1  0  0  0  0
 17 18  1  0  0  0  0
 17 40  1  0  0  0  0
 17 41  1  0  0  0  0
 18 42  1  0  0  0  0
 18 43  1  0  0  0  0
 19 20  1  0  0  0  0
 19 21  1  0  0  0  0
 20 44  1  0  0  0  0
 20 45  1  0  0  0  0
 20 46  1  0  0  0  0
M  CHG  1  13   1
M  END
> <s_m_source_file>
AV-unprocessed.smi

> <i_m_source_file_index>
1779

> <i_lp_mmshare_version>
43012

> <i_f3d_flags>
0

> <s_epik_input>
W0NIM11jMVtjSF1jKG4objEpW0NIM10pW05IXUMoPU8pW05IXVtDSDJdW0NASF0oW09IXSlbQ0gyXU4yW0NIMl1bQ0gyXVtDSDJdW0NIMl1bQ0gyXTI=

> <s_epik_cmdline>
J2VwaWtfcHl0aG9uJywgJy1waCcsICc3LjAnLCAnLXRuJywgJzgnLCAnLW1hJywgJzIwMCcsICctbWV0YWxfYmluZGluZycsICctaW1hZScsICc8aW5maWxlLm1hZT4nLCAnLW9tYWUnLCAnPG91dGZpbGUubWFlPic=

> <r_lp_tautomer_probability>
1

> <r_epik_Ionization_Penalty>
0.00528203

> <r_epik_Ionization_Penalty_Charging>
0.00519125

> <r_epik_Ionization_Penalty_Neutral>
9.07781e-05

> <r_epik_State_Penalty>
0.0037836

> <r_epik_Charging_Adjusted_Penalty>
0.00897485

> <i_epik_Tot_Q>
1

> <i_epik_Tot_abs_Q>
1

> <r_epik_Metal_State_Penalty>
-0

> <b_epik_Metal_Only>
0

> <s_lp_Force_Field>
OPLS_2005

> <r_lp_Energy>
18.32

> <b_lp_Chiralities_Consistent>
1

> <s_lp_Variant>
AV-unprocessed.smi:1779-1

> <Gold.Version>
5.8.1

> <Gold.Id.Protein>
6NUR|6NUR_protein|mol2

> <Gold.PLP.Fitness>
52.1149

> <Gold.PLP.PLP>
-38.6346

> <Gold.PLP.part.hbond>
-6.0000

> <Gold.PLP.part.metal>
0.0000

> <Gold.PLP.part.buried>
-3.5000

> <Gold.PLP.part.nonpolar>
-29.5029

> <Gold.PLP.part.repulsive>
0.4428

> <Gold.PLP.ligand.clash>
0.0000

> <Gold.PLP.ligand.torsion>
1.9179

> <Gold.PLP.Chemscore.Hbond>
5.7560

> <Gold.PLP.Chemscore.CHOScore>
0.0000

> <Gold.PLP.Chemscore.Metal>
0.0000

> <Gold.Chemscore.Hbonds>
donor molecule, donor type, donor heavy atom, donor atom, acceptor molecule, acceptor atom, score
      L1  H     5    26       P1  7948  0.80
      L1  H     8    27       P1  7948  0.96
      L1  H    11    31       P1  7957  1.00
      L1  H    13    47       P1 10175  1.27
      P1  H  7954  7966       L1    11  0.25

> <Gold.PLP.Chemscore.Internal.Correction>
0.0481

> <Gold.Rescore>
     Score         DG    S(hbond)    S(metal)    S(lipo)     H(rot)  DE(clash)    DE(int)     intcor
     17.60     -19.39       3.77        0.00      62.84       2.36       0.27       1.52       ----

> <Gold.Chemscore.Fitness>
17.5974

> <Gold.Chemscore.DG>
-19.3865

> <Gold.Chemscore.ZeroCoef>
-5.4800

> <Gold.Chemscore.Hbond>
3.7687

> <Gold.Chemscore.Metal>
0.0000

> <Gold.Chemscore.Lipo>
62.8444

> <Gold.Chemscore.Internal_Hbond>
0.0000

> <Gold.Chemscore.DEClash>
0.2705

> <Gold.Chemscore.DEInternal>
1.5186

> <Gold.Chemscore.Rot>
2.3569

> <Gold.Chemscore.Internal.Correction>
   9.000000E+99

> <Gold.Chemscore.Hbonds>
donor molecule, donor type, donor heavy atom, donor atom, acceptor molecule, acceptor atom, score
      L1  H     5    26       P1  7948  0.13
      L1  H     8    27       P1  7948  0.90
      L1  H    11    31       P1  7957  0.82
      L1  H    13    47       P1 10175  0.64

> <Gold.Chemscore.Hbond.Weighted>
-12.5874

> <Gold.Chemscore.Metal.Weighted>
-0.0000

> <Gold.Chemscore.Lipo.Weighted>
-7.3528

> <Gold.Chemscore.Internal_Hbond.Weighted>
0.0000

> <Gold.Chemscore.DEClash.Weighted>
0.2705

> <Gold.Chemscore.DEInternal.Weighted>
1.5186

> <Gold.Chemscore.Rot.Weighted>
6.0337

> <Gold.Chemscore.Internal.Correction.Weighted>
   9.000000E+99

> <Gold.Protein.RotatedTorsions>
[ 6907 6896 6895 6894 ] final  -34.61 input  -60.11 | X-H torsion
[ 7974 7965 7964 7962 ] final  125.17 input  175.53 | X-H torsion
[ 8008 7997 7996 7995 ] final   44.40 input   59.86 | X-H torsion
[ 10167 10162 10161 10158 ] final -122.30 input  -65.29 | X-H torsion
[ 10718 10713 10712 10709 ] final -163.58 input   66.30 | X-H torsion
[ 10763 10752 10751 10750 ] final  -83.79 input  -60.55 | X-H torsion
[ 11005 11000 10999 10996 ] final  131.87 input  -57.11 | X-H torsion

> <Gold.Protein.ActiveResidues>
 VAL166  LYS551  ARG553  GLY616  TRP617  ASP618  TYR619  PRO620  LYS621  CYS622 
 ASP623  PHE694  ASN695  SER759  ASP760  ASP761  ALA762  ILE779  LEU786  VAL792 
 PHE793  MET794  SER795  GLU796  ALA797  LYS798  CYS799  TRP800  GLU811  SER814 

> <Gold.Protein.RotatedAtoms>
  151.0504  134.9669  159.8208 H   0  0  0  0  0  0  0  0  0  0  0  0  # atno 6907 bound_to 6896
  152.5379  134.2545  159.8921 H   0  0  0  0  0  0  0  0  0  0  0  0  # atno 6908 bound_to 6896
  151.2560  133.4283  159.2647 H   0  0  0  0  0  0  0  0  0  0  0  0  # atno 6909 bound_to 6896
  145.0760  139.3693  143.4933 H   0  0  0  0  0  0  0  0  0  0  0  0  # atno 7974 bound_to 7965
  155.3187  140.3395  155.4242 H   0  0  0  0  0  0  0  0  0  0  0  0  # atno 8008 bound_to 7997
  156.1920  140.1701  156.8111 H   0  0  0  0  0  0  0  0  0  0  0  0  # atno 8009 bound_to 7997
  154.5453  140.0716  156.8562 H   0  0  0  0  0  0  0  0  0  0  0  0  # atno 8010 bound_to 7997
  140.0157  143.5396  152.2243 H   0  0  0  0  0  0  0  0  0  0  0  0  # atno 10167 bound_to 10162
  156.6268  130.8913  151.2969 H   0  0  0  0  0  0  0  0  0  0  0  0  # atno 10718 bound_to 10713
  154.5919  135.5543  153.7287 H   0  0  0  0  0  0  0  0  0  0  0  0  # atno 10763 bound_to 10752
  153.0120  135.6345  154.1836 H   0  0  0  0  0  0  0  0  0  0  0  0  # atno 10764 bound_to 10752
  154.1777  135.2889  155.3041 H   0  0  0  0  0  0  0  0  0  0  0  0  # atno 10765 bound_to 10752
  139.9756  134.9564  156.9501 H   0  0  0  0  0  0  0  0  0  0  0  0  # atno 11005 bound_to 11000
  146.3530  140.0527  142.8634 LP  0  0  0  0  0  0  0  0  0  0  0  0  # atno 17320 bound_to 7965
  145.1235  140.9476  143.4586 LP  0  0  0  0  0  0  0  0  0  0  0  0  # atno 17321 bound_to 7965
  139.6174  144.7622  151.2815 LP  0  0  0  0  0  0  0  0  0  0  0  0  # atno 17342 bound_to 10162
  140.7363  143.6711  150.8081 LP  0  0  0  0  0  0  0  0  0  0  0  0  # atno 17343 bound_to 10162
  157.7212  130.9561  150.1445 LP  0  0  0  0  0  0  0  0  0  0  0  0  # atno 17370 bound_to 10713
  156.2267  130.3678  149.8492 LP  0  0  0  0  0  0  0  0  0  0  0  0  # atno 17371 bound_to 10713
  140.5201  134.0915  155.7290 LP  0  0  0  0  0  0  0  0  0  0  0  0  # atno 17394 bound_to 11000
  141.1433  133.9099  157.2274 LP  0  0  0  0  0  0  0  0  0  0  0  0  # atno 17395 bound_to 11000

$$$$
