AV-unprocessed.smi:217|AV-procd|sdf|1661|dock2
  -GOLD-   2262020 53D 1   1.00000     0.00000
 Structure written by MMmdl.
 57 61  0  0  0  0  0  0  0  0  1 V2000
  145.1888  133.5380  149.8686 O   0  0  0  0  0  0  0  0  0  0  0  0
  145.7867  133.7877  151.1240 C   0  0  0  0  0  0  0  0  0  0  0  0
  145.0821  134.9397  151.8593 C   0  0  0  0  0  0  0  0  0  0  0  0
  143.5552  134.7937  151.6945 C   0  0  0  0  0  0  0  0  0  0  0  0
  143.0587  133.6777  152.4056 O   0  0  0  0  0  0  0  0  0  0  0  0
  145.5662  135.1988  153.3038 C   0  0  0  0  0  0  0  0  0  0  0  0
  145.5103  136.7061  153.0448 C   0  0  0  0  0  0  0  0  0  0  0  0
  146.4319  137.6030  153.6788 N   0  0  0  0  0  0  0  0  0  0  0  0
  146.5601  138.9534  153.4449 C   0  0  0  0  0  0  0  0  0  0  0  0
  147.4384  139.5667  154.1907 N   0  0  0  0  0  0  0  0  0  0  0  0
  147.9327  138.5701  155.0243 C   0  0  0  0  0  0  0  0  0  0  0  0
  148.8888  138.5425  156.0796 C   0  0  0  0  0  0  0  0  0  0  0  0
  149.5842  139.6411  156.4724 N   0  0  0  0  0  0  0  0  0  0  0  0
  148.7906  140.6444  157.1805 C   0  0  0  0  0  0  0  0  0  0  0  0
  149.6971  141.6463  157.9140 C   0  0  0  0  0  0  0  0  0  0  0  0
  150.7134  142.2965  156.9536 C   0  0  0  0  0  0  0  0  0  0  0  0
  151.6364  143.2878  157.6909 C   0  0  1  0  0  0  0  0  0  0  0  0
  150.9268  144.5052  158.2855 C   0  0  0  0  0  0  0  0  0  0  0  0
  151.8488  144.9412  159.4129 C   0  0  0  0  0  0  0  0  0  0  0  0
  152.7476  143.7244  159.6498 C   0  0  0  0  0  0  0  0  0  0  0  0
  152.1945  142.6885  158.8500 O   0  0  0  0  0  0  0  0  0  0  0  0
  151.5087  141.1802  156.2466 C   0  0  0  0  0  0  0  0  0  0  0  0
  150.5733  140.1854  155.5406 C   0  0  0  0  0  0  0  0  0  0  0  0
  149.0906  137.3520  156.7065 N   0  0  0  0  0  0  0  0  0  0  0  0
  148.4137  136.2642  156.3278 C   0  0  0  0  0  0  0  0  0  0  0  0
  147.5026  136.1435  155.3614 N   0  0  0  0  0  0  0  0  0  0  0  0
  147.2927  137.3329  154.7282 C   0  0  0  0  0  0  0  0  0  0  0  0
  145.6418  136.3487  151.5624 C   0  0  0  0  0  0  0  0  0  0  0  0
  145.6692  134.0126  149.2072 H   0  0  0  0  0  0  0  0  0  0  0  0
  145.7769  132.8693  151.7113 H   0  0  0  0  0  0  0  0  0  0  0  0
  146.8366  134.0258  150.9499 H   0  0  0  0  0  0  0  0  0  0  0  0
  143.0336  135.6772  152.0625 H   0  0  0  0  0  0  0  0  0  0  0  0
  143.2740  134.6951  150.6458 H   0  0  0  0  0  0  0  0  0  0  0  0
  142.5406  133.1524  151.8150 H   0  0  0  0  0  0  0  0  0  0  0  0
  144.8918  134.8529  154.0879 H   0  0  0  0  0  0  0  0  0  0  0  0
  146.5837  134.8464  153.4840 H   0  0  0  0  0  0  0  0  0  0  0  0
  144.5146  137.0970  153.2615 H   0  0  0  0  0  0  0  0  0  0  0  0
  145.9806  139.4740  152.6962 H   0  0  0  0  0  0  0  0  0  0  0  0
  148.1663  141.1702  156.4569 H   0  0  0  0  0  0  0  0  0  0  0  0
  148.1127  140.1838  157.8982 H   0  0  0  0  0  0  0  0  0  0  0  0
  149.0803  142.4110  158.3865 H   0  0  0  0  0  0  0  0  0  0  0  0
  150.2249  141.1342  158.7196 H   0  0  0  0  0  0  0  0  0  0  0  0
  150.1560  142.8501  156.1964 H   0  0  0  0  0  0  0  0  0  0  0  0
  152.4482  143.6128  157.0369 H   0  0  0  0  0  0  0  0  0  0  0  0
  150.7544  145.2943  157.5532 H   0  0  0  0  0  0  0  0  0  0  0  0
  149.9604  144.2130  158.6988 H   0  0  0  0  0  0  0  0  0  0  0  0
  152.4463  145.8071  159.1249 H   0  0  0  0  0  0  0  0  0  0  0  0
  151.2797  145.2070  160.3041 H   0  0  0  0  0  0  0  0  0  0  0  0
  153.7663  143.9299  159.3182 H   0  0  0  0  0  0  0  0  0  0  0  0
  152.7842  143.4294  160.6987 H   0  0  0  0  0  0  0  0  0  0  0  0
  152.1964  141.6042  155.5144 H   0  0  0  0  0  0  0  0  0  0  0  0
  152.1222  140.6474  156.9744 H   0  0  0  0  0  0  0  0  0  0  0  0
  151.1670  139.3773  155.1111 H   0  0  0  0  0  0  0  0  0  0  0  0
  150.0581  140.6815  154.7168 H   0  0  0  0  0  0  0  0  0  0  0  0
  148.6347  135.3610  156.8771 H   0  0  0  0  0  0  0  0  0  0  0  0
  146.6806  136.3301  151.2269 H   0  0  0  0  0  0  0  0  0  0  0  0
  145.0277  136.9541  150.8950 H   0  0  0  0  0  0  0  0  0  0  0  0
  1  2  1  0  0  0  0
  1 29  1  0  0  0  0
  2  3  1  0  0  0  0
  2 30  1  0  0  0  0
  2 31  1  0  0  0  0
  3 28  1  0  0  0  0
  3  4  1  0  0  0  0
  3  6  1  0  0  0  0
  4  5  1  0  0  0  0
  4 32  1  0  0  0  0
  4 33  1  0  0  0  0
  5 34  1  0  0  0  0
  6  7  1  0  0  0  0
  6 35  1  0  0  0  0
  6 36  1  0  0  0  0
  7  8  1  0  0  0  0
  7 28  1  0  0  0  0
  7 37  1  0  0  0  0
  8 27  1  0  0  0  0
  8  9  1  0  0  0  0
  9 10  2  0  0  0  0
  9 38  1  0  0  0  0
 10 11  1  0  0  0  0
 11 27  2  0  0  0  0
 11 12  1  0  0  0  0
 12 13  1  0  0  0  0
 12 24  2  0  0  0  0
 13 23  1  0  0  0  0
 13 14  1  0  0  0  0
 14 15  1  0  0  0  0
 14 39  1  0  0  0  0
 14 40  1  0  0  0  0
 15 16  1  0  0  0  0
 15 41  1  0  0  0  0
 15 42  1  0  0  0  0
 16 17  1  0  0  0  0
 16 22  1  0  0  0  0
 16 43  1  0  0  0  0
 17 21  1  0  0  0  0
 17 18  1  0  0  0  0
 17 44  1  0  0  0  0
 18 19  1  0  0  0  0
 18 45  1  0  0  0  0
 18 46  1  0  0  0  0
 19 20  1  0  0  0  0
 19 47  1  0  0  0  0
 19 48  1  0  0  0  0
 20 21  1  0  0  0  0
 20 49  1  0  0  0  0
 20 50  1  0  0  0  0
 22 23  1  0  0  0  0
 22 51  1  0  0  0  0
 22 52  1  0  0  0  0
 23 53  1  0  0  0  0
 23 54  1  0  0  0  0
 24 25  1  0  0  0  0
 25 26  2  0  0  0  0
 25 55  1  0  0  0  0
 26 27  1  0  0  0  0
 28 56  1  0  0  0  0
 28 57  1  0  0  0  0
M  END
> <s_m_source_file>
AV-unprocessed.smi

> <i_m_source_file_index>
217

> <i_lp_mmshare_version>
43012

> <i_f3d_flags>
0

> <s_epik_input>
W09IXVtDSDJdQzEoW0NIMl1bT0hdKVtDSDJdW0NIXShbQ0gyXTEpbihbY0hdbjIpYyhjMjMpbltjSF1uYzNONFtDSDJdW0NIMl1bQ0hdKFtDSDJdW0NIMl00KVtDQEBIXTVbQ0gyXVtDSDJdW0NIMl1PNQ==

> <s_epik_cmdline>
J2VwaWtfcHl0aG9uJywgJy1waCcsICc3LjAnLCAnLXRuJywgJzgnLCAnLW1hJywgJzIwMCcsICctbWV0YWxfYmluZGluZycsICctaW1hZScsICc8aW5maWxlLm1hZT4nLCAnLW9tYWUnLCAnPG91dGZpbGUubWFlPic=

> <r_lp_tautomer_probability>
1

> <r_epik_Ionization_Penalty>
0.0037022

> <r_epik_Ionization_Penalty_Charging>
0

> <r_epik_Ionization_Penalty_Neutral>
0.0037022

> <r_epik_State_Penalty>
0.00257654

> <r_epik_Charging_Adjusted_Penalty>
0.00257654

> <i_epik_Tot_Q>
0

> <i_epik_Tot_abs_Q>
0

> <r_epik_Metal_State_Penalty>
-0

> <b_epik_Metal_Only>
0

> <s_lp_Force_Field>
OPLS_2005

> <r_lp_Energy>
55.0996

> <b_lp_Chiralities_Consistent>
1

> <s_lp_Variant>
AV-unprocessed.smi:217-2

> <Gold.Version>
5.8.1

> <Gold.Id.Protein>
6NUR|6NUR_protein|mol2

> <Gold.PLP.Fitness>
43.5456

> <Gold.PLP.PLP>
-38.1349

> <Gold.PLP.part.hbond>
-1.8802

> <Gold.PLP.part.metal>
0.0000

> <Gold.PLP.part.buried>
-7.7624

> <Gold.PLP.part.nonpolar>
-29.9747

> <Gold.PLP.part.repulsive>
0.2075

> <Gold.PLP.ligand.clash>
0.0000

> <Gold.PLP.ligand.torsion>
0.7620

> <Gold.PLP.Chemscore.Hbond>
1.0000

> <Gold.PLP.Chemscore.CHOScore>
1.0000

> <Gold.PLP.Chemscore.Metal>
0.0000

> <Gold.Chemscore.Hbonds>
donor molecule, donor type, donor heavy atom, donor atom, acceptor molecule, acceptor atom, score
      L1  H     1    29       P1  7921  1.00
      L1  C     9    38       P1 10175  1.00

> <Gold.PLP.Chemscore.Internal.Correction>
0.9348

> <Gold.Rescore>
     Score         DG    S(hbond)    S(metal)    S(lipo)     H(rot)  DE(clash)    DE(int)     intcor
     10.51     -12.65       0.98        0.00     105.06       3.28       0.24       1.91       ----

> <Gold.Chemscore.Fitness>
10.5114

> <Gold.Chemscore.DG>
-12.6518

> <Gold.Chemscore.ZeroCoef>
-5.4800

> <Gold.Chemscore.Hbond>
0.9847

> <Gold.Chemscore.Metal>
0.0000

> <Gold.Chemscore.Lipo>
105.0618

> <Gold.Chemscore.Internal_Hbond>
0.0000

> <Gold.Chemscore.DEClash>
0.2352

> <Gold.Chemscore.DEInternal>
1.9052

> <Gold.Chemscore.Rot>
3.2848

> <Gold.Chemscore.Internal.Correction>
   9.000000E+99

> <Gold.Chemscore.Hbonds>
donor molecule, donor type, donor heavy atom, donor atom, acceptor molecule, acceptor atom, score
      L1  H     1    29       P1  7921  0.55

> <Gold.Chemscore.Hbond.Weighted>
-3.2888

> <Gold.Chemscore.Metal.Weighted>
-0.0000

> <Gold.Chemscore.Lipo.Weighted>
-12.2922

> <Gold.Chemscore.Internal_Hbond.Weighted>
0.0000

> <Gold.Chemscore.DEClash.Weighted>
0.2352

> <Gold.Chemscore.DEInternal.Weighted>
1.9052

> <Gold.Chemscore.Rot.Weighted>
8.4092

> <Gold.Chemscore.Internal.Correction.Weighted>
   9.000000E+99

> <Gold.Protein.RotatedTorsions>
[ 6907 6896 6895 6894 ] final  -59.11 input  -60.11 | X-H torsion
[ 7974 7965 7964 7962 ] final  -78.11 input  175.53 | X-H torsion
[ 8008 7997 7996 7995 ] final  -94.52 input   59.86 | X-H torsion
[ 10167 10162 10161 10158 ] final  117.08 input  -65.29 | X-H torsion
[ 10718 10713 10712 10709 ] final  -89.46 input   66.30 | X-H torsion
[ 10763 10752 10751 10750 ] final   76.59 input  -60.55 | X-H torsion
[ 11005 11000 10999 10996 ] final  -18.56 input  -57.11 | X-H torsion

> <Gold.Protein.ActiveResidues>
 VAL166  LYS551  ARG553  GLY616  TRP617  ASP618  TYR619  PRO620  LYS621  CYS622 
 ASP623  PHE694  ASN695  SER759  ASP760  ASP761  ALA762  ILE779  LEU786  VAL792 
 PHE793  MET794  SER795  GLU796  ALA797  LYS798  CYS799  TRP800  GLU811  SER814 

> <Gold.Protein.RotatedAtoms>
  150.7955  134.7011  159.6550 H   0  0  0  0  0  0  0  0  0  0  0  0  # atno 6907 bound_to 6896
  152.4066  134.6192  160.0056 H   0  0  0  0  0  0  0  0  0  0  0  0  # atno 6908 bound_to 6896
  151.6448  133.3287  159.3174 H   0  0  0  0  0  0  0  0  0  0  0  0  # atno 6909 bound_to 6896
  145.5908  140.9429  143.1293 H   0  0  0  0  0  0  0  0  0  0  0  0  # atno 7974 bound_to 7965
  154.7495  140.0488  157.0881 H   0  0  0  0  0  0  0  0  0  0  0  0  # atno 8008 bound_to 7997
  155.0075  140.3132  155.4823 H   0  0  0  0  0  0  0  0  0  0  0  0  # atno 8009 bound_to 7997
  156.2882  140.2190  156.5188 H   0  0  0  0  0  0  0  0  0  0  0  0  # atno 8010 bound_to 7997
  139.6203  144.7099  151.2649 H   0  0  0  0  0  0  0  0  0  0  0  0  # atno 10167 bound_to 10162
  155.9984  130.4873  150.5174 H   0  0  0  0  0  0  0  0  0  0  0  0  # atno 10718 bound_to 10713
  153.0736  135.4946  154.8358 H   0  0  0  0  0  0  0  0  0  0  0  0  # atno 10763 bound_to 10752
  154.7057  135.3010  154.9276 H   0  0  0  0  0  0  0  0  0  0  0  0  # atno 10764 bound_to 10752
  153.9986  135.6769  153.4811 H   0  0  0  0  0  0  0  0  0  0  0  0  # atno 10765 bound_to 10752
  140.8280  133.8018  155.9728 H   0  0  0  0  0  0  0  0  0  0  0  0  # atno 11005 bound_to 11000
  144.7352  139.7607  143.7332 LP  0  0  0  0  0  0  0  0  0  0  0  0  # atno 17320 bound_to 7965
  146.1648  139.4775  142.9965 LP  0  0  0  0  0  0  0  0  0  0  0  0  # atno 17321 bound_to 7965
  140.7377  143.6669  150.8115 LP  0  0  0  0  0  0  0  0  0  0  0  0  # atno 17342 bound_to 10162
  140.0278  143.5475  152.2773 LP  0  0  0  0  0  0  0  0  0  0  0  0  # atno 17343 bound_to 10162
  157.3139  131.0669  151.1981 LP  0  0  0  0  0  0  0  0  0  0  0  0  # atno 17370 bound_to 10713
  157.2917  130.6799  149.6117 LP  0  0  0  0  0  0  0  0  0  0  0  0  # atno 17371 bound_to 10713
  140.9029  134.2356  157.5031 LP  0  0  0  0  0  0  0  0  0  0  0  0  # atno 17394 bound_to 11000
  139.8706  134.9715  156.4738 LP  0  0  0  0  0  0  0  0  0  0  0  0  # atno 17395 bound_to 11000

$$$$
