AV-unprocessed.smi:1047|AV-procd|sdf|4579|dock4
  -GOLD-   22720 3 43D 1   1.00000     0.00000
 Structure written by MMmdl.
 56 58  0  0  0  0  0  0  0  0  2 V2000
  145.7800  134.9298  151.0765 C   0  0  0  0  0  0  0  0  0  0  0  0
  145.8767  136.4542  150.9212 C   0  0  0  0  0  0  0  0  0  0  0  0
  146.5131  137.1073  152.0923 N   0  3  2  0  0  0  0  0  0  0  0  0
  145.9379  136.6847  153.3930 C   0  0  0  0  0  0  0  0  0  0  0  0
  146.6613  137.3861  154.5543 C   0  0  0  0  0  0  0  0  0  0  0  0
  146.5922  138.7953  154.3773 O   0  0  0  0  0  0  0  0  0  0  0  0
  147.2421  139.2199  153.1833 C   0  0  2  0  0  0  0  0  0  0  0  0
  147.2009  140.7545  153.1324 C   0  0  0  0  0  0  0  0  0  0  0  0
  147.7604  141.3326  154.3497 N   0  0  0  0  0  0  0  0  0  0  0  0
  149.2196  141.2992  154.3945 C   0  0  0  0  0  0  0  0  0  0  0  0
  149.7233  141.0567  155.8308 C   0  0  1  0  0  0  0  0  0  0  0  0
  149.1090  139.8854  156.3262 O   0  0  0  0  0  0  0  0  0  0  0  0
  151.2473  140.8481  155.9277 C   0  0  0  0  0  0  0  0  0  0  0  0
  151.7097  140.7070  157.2965 N   0  0  0  0  0  0  0  0  0  0  0  0
  152.1206  139.5743  157.8982 C   0  0  0  0  0  0  0  0  0  0  0  0
  152.5070  139.6646  159.1674 N   0  0  0  0  0  0  0  0  0  0  0  0
  152.3328  141.0153  159.4166 C   0  0  0  0  0  0  0  0  0  0  0  0
  152.5648  141.7681  160.5884 C   0  0  0  0  0  0  0  0  0  0  0  0
  152.3129  143.1582  160.6184 C   0  0  0  0  0  0  0  0  0  0  0  0
  152.5766  143.9292  161.8999 C   0  0  0  0  0  0  0  0  0  0  0  0
  151.8219  143.8164  159.4623 C   0  0  0  0  0  0  0  0  0  0  0  0
  151.5468  145.3097  159.4700 C   0  0  0  0  0  0  0  0  0  0  0  0
  151.5823  143.0789  158.2840 C   0  0  0  0  0  0  0  0  0  0  0  0
  151.8371  141.6961  158.2662 C   0  0  0  0  0  0  0  0  0  0  0  0
  146.5120  138.5860  151.9833 C   0  0  0  0  0  0  0  0  0  0  0  0
  145.3948  134.4764  150.1629 H   0  0  0  0  0  0  0  0  0  0  0  0
  145.1096  134.6420  151.8858 H   0  0  0  0  0  0  0  0  0  0  0  0
  146.7580  134.4902  151.2747 H   0  0  0  0  0  0  0  0  0  0  0  0
  146.4732  136.6612  150.0316 H   0  0  0  0  0  0  0  0  0  0  0  0
  144.8913  136.8862  150.7399 H   0  0  0  0  0  0  0  0  0  0  0  0
  144.8742  136.9263  153.4190 H   0  0  0  0  0  0  0  0  0  0  0  0
  146.0247  135.6056  153.5167 H   0  0  0  0  0  0  0  0  0  0  0  0
  146.1896  137.1261  155.5021 H   0  0  0  0  0  0  0  0  0  0  0  0
  147.7022  137.0647  154.6186 H   0  0  0  0  0  0  0  0  0  0  0  0
  148.2823  138.8876  153.1876 H   0  0  0  0  0  0  0  0  0  0  0  0
  147.7764  141.1025  152.2737 H   0  0  0  0  0  0  0  0  0  0  0  0
  146.1761  141.0960  152.9811 H   0  0  0  0  0  0  0  0  0  0  0  0
  147.4390  142.2905  154.4506 H   0  0  0  0  0  0  0  0  0  0  0  0
  149.6115  140.5373  153.7193 H   0  0  0  0  0  0  0  0  0  0  0  0
  149.5982  142.2547  154.0315 H   0  0  0  0  0  0  0  0  0  0  0  0
  149.4404  141.8945  156.4702 H   0  0  0  0  0  0  0  0  0  0  0  0
  148.3178  140.1334  156.7797 H   0  0  0  0  0  0  0  0  0  0  0  0
  151.5410  139.9522  155.3786 H   0  0  0  0  0  0  0  0  0  0  0  0
  151.7759  141.6820  155.4645 H   0  0  0  0  0  0  0  0  0  0  0  0
  152.1333  138.6293  157.3747 H   0  0  0  0  0  0  0  0  0  0  0  0
  152.9399  141.2665  161.4683 H   0  0  0  0  0  0  0  0  0  0  0  0
  153.3629  144.6682  161.7446 H   0  0  0  0  0  0  0  0  0  0  0  0
  152.8928  143.2665  162.7060 H   0  0  0  0  0  0  0  0  0  0  0  0
  151.6750  144.4463  162.2287 H   0  0  0  0  0  0  0  0  0  0  0  0
  151.2302  145.6607  158.4873 H   0  0  0  0  0  0  0  0  0  0  0  0
  152.4441  145.8629  159.7482 H   0  0  0  0  0  0  0  0  0  0  0  0
  150.7566  145.5483  160.1821 H   0  0  0  0  0  0  0  0  0  0  0  0
  151.2060  143.5686  157.3982 H   0  0  0  0  0  0  0  0  0  0  0  0
  147.0046  138.8843  151.0568 H   0  0  0  0  0  0  0  0  0  0  0  0
  145.4835  138.9479  151.9314 H   0  0  0  0  0  0  0  0  0  0  0  0
  147.4827  136.8237  152.0903 H   0  0  0  0  0  0  0  0  0  0  0  0
  1  2  1  0  0  0  0
  1 26  1  0  0  0  0
  1 27  1  0  0  0  0
  1 28  1  0  0  0  0
  2  3  1  0  0  0  0
  2 29  1  0  0  0  0
  2 30  1  0  0  0  0
  3 25  1  0  0  0  0
  3  4  1  0  0  0  0
  3 56  1  0  0  0  0
  4  5  1  0  0  0  0
  4 31  1  0  0  0  0
  4 32  1  0  0  0  0
  5  6  1  0  0  0  0
  5 33  1  0  0  0  0
  5 34  1  0  0  0  0
  6  7  1  0  0  0  0
  7  8  1  0  0  0  0
  7 25  1  0  0  0  0
  7 35  1  0  0  0  0
  8  9  1  0  0  0  0
  8 36  1  0  0  0  0
  8 37  1  0  0  0  0
  9 10  1  0  0  0  0
  9 38  1  0  0  0  0
 10 11  1  0  0  0  0
 10 39  1  0  0  0  0
 10 40  1  0  0  0  0
 11 12  1  0  0  0  0
 11 13  1  0  0  0  0
 11 41  1  0  0  0  0
 12 42  1  0  0  0  0
 13 14  1  0  0  0  0
 13 43  1  0  0  0  0
 13 44  1  0  0  0  0
 14 24  1  0  0  0  0
 14 15  1  0  0  0  0
 15 16  2  0  0  0  0
 15 45  1  0  0  0  0
 16 17  1  0  0  0  0
 17 24  2  0  0  0  0
 17 18  1  0  0  0  0
 18 19  2  0  0  0  0
 18 46  1  0  0  0  0
 19 20  1  0  0  0  0
 19 21  1  0  0  0  0
 20 47  1  0  0  0  0
 20 48  1  0  0  0  0
 20 49  1  0  0  0  0
 21 22  1  0  0  0  0
 21 23  2  0  0  0  0
 22 50  1  0  0  0  0
 22 51  1  0  0  0  0
 22 52  1  0  0  0  0
 23 24  1  0  0  0  0
 23 53  1  0  0  0  0
 25 54  1  0  0  0  0
 25 55  1  0  0  0  0
M  CHG  1   3   1
M  END
> <s_m_source_file>
AV-unprocessed.smi

> <i_m_source_file_index>
1047

> <i_lp_mmshare_version>
43012

> <i_f3d_flags>
0

> <s_epik_input>
W0NIM11bQ0gyXU4xW0NIMl1bQ0gyXU9bQ0BIXShbQ0gyXTEpW0NIMl1bTkhdW0NIMl1bQ0BIXShbT0hdKVtDSDJdbihbY0hdbjIpYyhjMjMpW2NIXWMoW0NIM10pYyhbY0hdMylbQ0gzXQ==

> <s_epik_cmdline>
J2VwaWtfcHl0aG9uJywgJy1waCcsICc3LjAnLCAnLXRuJywgJzgnLCAnLW1hJywgJzIwMCcsICctbWV0YWxfYmluZGluZycsICctaW1hZScsICc8aW5maWxlLm1hZT4nLCAnLW9tYWUnLCAnPG91dGZpbGUubWFlPic=

> <r_epik_Ionization_Penalty>
1.19246

> <r_epik_Ionization_Penalty_Charging>
0.210041

> <r_epik_Ionization_Penalty_Neutral>
0.982415

> <r_epik_State_Penalty>
1.57595

> <r_epik_Charging_Adjusted_Penalty>
1.78599

> <i_epik_Tot_Q>
1

> <i_epik_Tot_abs_Q>
1

> <r_epik_Metal_State_Penalty>
1.46172

> <b_epik_Metal_Only>
0

> <s_lp_Force_Field>
OPLS_2005

> <r_lp_Energy>
30.8486

> <b_lp_Chiralities_Consistent>
1

> <s_lp_Variant>
AV-unprocessed.smi:1047-20

> <Gold.Version>
5.8.1

> <Gold.Id.Protein>
6NUR|6NUR_protein|mol2

> <Gold.PLP.Fitness>
57.3158

> <Gold.PLP.PLP>
-52.2433

> <Gold.PLP.part.hbond>
-1.0000

> <Gold.PLP.part.metal>
0.0000

> <Gold.PLP.part.buried>
-3.8648

> <Gold.PLP.part.nonpolar>
-46.6553

> <Gold.PLP.part.repulsive>
0.1723

> <Gold.PLP.ligand.clash>
0.0000

> <Gold.PLP.ligand.torsion>
0.5515

> <Gold.PLP.Chemscore.Hbond>
2.0000

> <Gold.PLP.Chemscore.CHOScore>
0.0000

> <Gold.PLP.Chemscore.Metal>
0.0000

> <Gold.Chemscore.Hbonds>
donor molecule, donor type, donor heavy atom, donor atom, acceptor molecule, acceptor atom, score
      L1  H     3    56       P1  7948  2.00

> <Gold.PLP.Chemscore.Internal.Correction>
0.1755

> <Gold.Rescore>
     Score         DG    S(hbond)    S(metal)    S(lipo)     H(rot)  DE(clash)    DE(int)     intcor
     18.78     -19.41       1.00        0.00     147.89       2.62       0.11       0.51       ----

> <Gold.Chemscore.Fitness>
18.7791

> <Gold.Chemscore.DG>
-19.4051

> <Gold.Chemscore.ZeroCoef>
-5.4800

> <Gold.Chemscore.Hbond>
0.9975

> <Gold.Chemscore.Metal>
0.0000

> <Gold.Chemscore.Lipo>
147.8885

> <Gold.Chemscore.Internal_Hbond>
0.0000

> <Gold.Chemscore.DEClash>
0.1142

> <Gold.Chemscore.DEInternal>
0.5118

> <Gold.Chemscore.Rot>
2.6209

> <Gold.Chemscore.Internal.Correction>
   9.000000E+99

> <Gold.Chemscore.Hbonds>
donor molecule, donor type, donor heavy atom, donor atom, acceptor molecule, acceptor atom, score
      L1  H     3    56       P1  7948  0.98

> <Gold.Chemscore.Hbond.Weighted>
-3.3318

> <Gold.Chemscore.Metal.Weighted>
-0.0000

> <Gold.Chemscore.Lipo.Weighted>
-17.3030

> <Gold.Chemscore.Internal_Hbond.Weighted>
0.0000

> <Gold.Chemscore.DEClash.Weighted>
0.1142

> <Gold.Chemscore.DEInternal.Weighted>
0.5118

> <Gold.Chemscore.Rot.Weighted>
6.7096

> <Gold.Chemscore.Internal.Correction.Weighted>
   9.000000E+99

> <Gold.Protein.RotatedTorsions>
[ 6907 6896 6895 6894 ] final  105.49 input  -60.11 | X-H torsion
[ 7974 7965 7964 7962 ] final  112.91 input  175.53 | X-H torsion
[ 8008 7997 7996 7995 ] final  -73.81 input   59.86 | X-H torsion
[ 10167 10162 10161 10158 ] final  -20.20 input  -65.29 | X-H torsion
[ 10718 10713 10712 10709 ] final -166.51 input   66.30 | X-H torsion
[ 10763 10752 10751 10750 ] final  -50.20 input  -60.55 | X-H torsion
[ 11005 11000 10999 10996 ] final  -63.99 input  -57.11 | X-H torsion

> <Gold.Protein.ActiveResidues>
 VAL166  LYS551  ARG553  GLY616  TRP617  ASP618  TYR619  PRO620  LYS621  CYS622 
 ASP623  PHE694  ASN695  SER759  ASP760  ASP761  ALA762  ILE779  LEU786  VAL792 
 PHE793  MET794  SER795  GLU796  ALA797  LYS798  CYS799  TRP800  GLU811  SER814 

> <Gold.Protein.RotatedAtoms>
  152.5228  133.9520  159.7676 H   0  0  0  0  0  0  0  0  0  0  0  0  # atno 6907 bound_to 6896
  150.9828  133.6220  159.2727 H   0  0  0  0  0  0  0  0  0  0  0  0  # atno 6908 bound_to 6896
  151.3391  135.0865  159.9418 H   0  0  0  0  0  0  0  0  0  0  0  0  # atno 6909 bound_to 6896
  145.2236  139.2851  143.4205 H   0  0  0  0  0  0  0  0  0  0  0  0  # atno 7974 bound_to 7965
  154.5278  140.0772  156.8290 H   0  0  0  0  0  0  0  0  0  0  0  0  # atno 8008 bound_to 7997
  155.3438  140.3409  155.4221 H   0  0  0  0  0  0  0  0  0  0  0  0  # atno 8009 bound_to 7997
  156.1750  140.1632  156.8366 H   0  0  0  0  0  0  0  0  0  0  0  0  # atno 8010 bound_to 7997
  140.7274  143.4745  151.0201 H   0  0  0  0  0  0  0  0  0  0  0  0  # atno 10167 bound_to 10162
  156.6690  130.9076  151.3041 H   0  0  0  0  0  0  0  0  0  0  0  0  # atno 10718 bound_to 10713
  154.1065  135.6555  153.4877 H   0  0  0  0  0  0  0  0  0  0  0  0  # atno 10763 bound_to 10752
  153.0271  135.5237  154.7234 H   0  0  0  0  0  0  0  0  0  0  0  0  # atno 10764 bound_to 10752
  154.6402  135.2987  155.0082 H   0  0  0  0  0  0  0  0  0  0  0  0  # atno 10765 bound_to 10752
  141.1411  133.6659  156.5764 H   0  0  0  0  0  0  0  0  0  0  0  0  # atno 11005 bound_to 11000
  146.3370  140.2549  142.8600 LP  0  0  0  0  0  0  0  0  0  0  0  0  # atno 17320 bound_to 7965
  144.9743  140.8398  143.5436 LP  0  0  0  0  0  0  0  0  0  0  0  0  # atno 17321 bound_to 7965
  139.8439  143.7527  152.3180 LP  0  0  0  0  0  0  0  0  0  0  0  0  # atno 17342 bound_to 10162
  139.7685  144.7484  151.0258 LP  0  0  0  0  0  0  0  0  0  0  0  0  # atno 17343 bound_to 10162
  157.7084  130.9411  150.1006 LP  0  0  0  0  0  0  0  0  0  0  0  0  # atno 17370 bound_to 10713
  156.1953  130.3657  149.8857 LP  0  0  0  0  0  0  0  0  0  0  0  0  # atno 17371 bound_to 10713
  140.3872  134.7472  157.4699 LP  0  0  0  0  0  0  0  0  0  0  0  0  # atno 17394 bound_to 11000
  140.0593  134.6018  155.8768 LP  0  0  0  0  0  0  0  0  0  0  0  0  # atno 17395 bound_to 11000

$$$$
