AV-unprocessed.smi:65|AV-procd|sdf|616|dock9
  -GOLD-   2262016513D 1   1.00000     0.00000
 Structure written by MMmdl.
 26 27  0  0  0  0  0  0  0  0  2 V2000
  149.3158  134.2944  154.0652 N   0  0  0  0  0  0  0  0  0  0  0  0
  148.5152  133.2691  153.6245 C   0  0  0  0  0  0  0  0  0  0  0  0
  148.5957  132.0885  154.2450 N   0  0  0  0  0  0  0  0  0  0  0  0
  147.8122  131.0792  153.8195 C   0  0  0  0  0  0  0  0  0  0  0  0
  146.9226  131.2421  152.7447 C   0  0  0  0  0  0  0  0  0  0  0  0
  146.8840  132.5111  152.1242 C   0  0  0  0  0  0  0  0  0  0  0  0
  146.0297  132.7982  151.0429 N   0  0  0  0  0  0  0  0  0  0  0  0
  145.6281  134.1653  150.7367 C   0  0  0  0  0  0  0  0  0  0  0  0
  144.2529  134.0519  150.0667 C   0  0  0  0  0  0  0  0  0  0  0  0
  144.2208  132.6137  149.5468 C   0  0  2  0  0  0  0  0  0  0  0  0
  142.9077  132.1151  149.4078 O   0  0  0  0  0  0  0  0  0  0  0  0
  145.0160  131.8514  150.6054 C   0  0  0  0  0  0  0  0  0  0  0  0
  147.6906  133.5009  152.5936 N   0  3  0  0  0  0  0  0  0  0  0  0
  149.2788  135.1994  153.6181 H   0  0  0  0  0  0  0  0  0  0  0  0
  149.9411  134.1616  154.8469 H   0  0  0  0  0  0  0  0  0  0  0  0
  147.8946  130.1373  154.3414 H   0  0  0  0  0  0  0  0  0  0  0  0
  146.2970  130.4218  152.4245 H   0  0  0  0  0  0  0  0  0  0  0  0
  145.5755  134.7923  151.6274 H   0  0  0  0  0  0  0  0  0  0  0  0
  146.3570  134.6010  150.0528 H   0  0  0  0  0  0  0  0  0  0  0  0
  143.4751  134.1943  150.8190 H   0  0  0  0  0  0  0  0  0  0  0  0
  144.0996  134.7938  149.2824 H   0  0  0  0  0  0  0  0  0  0  0  0
  144.7362  132.5581  148.5869 H   0  0  0  0  0  0  0  0  0  0  0  0
  142.3046  132.8431  149.4173 H   0  0  0  0  0  0  0  0  0  0  0  0
  145.4570  130.9395  150.2014 H   0  0  0  0  0  0  0  0  0  0  0  0
  144.3833  131.5851  151.4537 H   0  0  0  0  0  0  0  0  0  0  0  0
  147.6640  134.4199  152.1522 H   0  0  0  0  0  0  0  0  0  0  0  0
  1  2  1  0  0  0  0
  1 14  1  0  0  0  0
  1 15  1  0  0  0  0
  2 13  1  0  0  0  0
  2  3  2  0  0  0  0
  3  4  1  0  0  0  0
  4  5  2  0  0  0  0
  4 16  1  0  0  0  0
  5  6  1  0  0  0  0
  5 17  1  0  0  0  0
  6  7  1  0  0  0  0
  6 13  2  0  0  0  0
  7 12  1  0  0  0  0
  7  8  1  0  0  0  0
  8  9  1  0  0  0  0
  8 18  1  0  0  0  0
  8 19  1  0  0  0  0
  9 10  1  0  0  0  0
  9 20  1  0  0  0  0
  9 21  1  0  0  0  0
 10 11  1  0  0  0  0
 10 12  1  0  0  0  0
 10 22  1  0  0  0  0
 11 23  1  0  0  0  0
 12 24  1  0  0  0  0
 12 25  1  0  0  0  0
 13 26  1  0  0  0  0
M  CHG  1  13   1
M  END
> <s_m_source_file>
AV-unprocessed.smi

> <i_m_source_file_index>
65

> <i_lp_mmshare_version>
43012

> <i_f3d_flags>
0

> <s_epik_input>
W05IMl1jMW5bY0hdW2NIXWMobjEpTjJbQ0gyXVtDSDJdW0NAQEhdKFtPSF0pW0NIMl0y

> <s_epik_cmdline>
J2VwaWtfcHl0aG9uJywgJy1waCcsICc3LjAnLCAnLXRuJywgJzgnLCAnLW1hJywgJzIwMCcsICctbWV0YWxfYmluZGluZycsICctaW1hZScsICc8aW5maWxlLm1hZT4nLCAnLW9tYWUnLCAnPG91dGZpbGUubWFlPic=

> <r_lp_tautomer_probability>
0.424989

> <r_epik_Ionization_Penalty>
0.57487

> <r_epik_Ionization_Penalty_Charging>
0.574865

> <r_epik_Ionization_Penalty_Neutral>
4.40886e-06

> <r_epik_State_Penalty>
0.845539

> <r_epik_Charging_Adjusted_Penalty>
1.4204

> <i_epik_Tot_Q>
1

> <i_epik_Tot_abs_Q>
1

> <r_epik_Metal_State_Penalty>
1.14248

> <b_epik_Metal_Only>
0

> <s_lp_Force_Field>
OPLS_2005

> <r_lp_Energy>
20.8145

> <b_lp_Chiralities_Consistent>
1

> <s_lp_Variant>
AV-unprocessed.smi:65-6

> <Gold.Version>
5.8.1

> <Gold.Id.Protein>
6NUR|6NUR_protein|mol2

> <Gold.PLP.Fitness>
40.9909

> <Gold.PLP.PLP>
-27.2635

> <Gold.PLP.part.hbond>
-4.7646

> <Gold.PLP.part.metal>
0.0000

> <Gold.PLP.part.buried>
-2.8951

> <Gold.PLP.part.nonpolar>
-19.5087

> <Gold.PLP.part.repulsive>
0.0790

> <Gold.PLP.ligand.clash>
0.0000

> <Gold.PLP.ligand.torsion>
0.1264

> <Gold.PLP.Chemscore.Hbond>
4.5898

> <Gold.PLP.Chemscore.CHOScore>
0.0000

> <Gold.PLP.Chemscore.Metal>
0.0000

> <Gold.Chemscore.Hbonds>
donor molecule, donor type, donor heavy atom, donor atom, acceptor molecule, acceptor atom, score
      L1  H     1    14       P1  7948  1.82
      L1  H    11    23       P1 10186  0.98
      L1  H    13    26       P1  7948  0.96
      P1  H 10785 10796       L1    11  0.83

> <Gold.PLP.Chemscore.Internal.Correction>
0.2110

> <Gold.Rescore>
     Score         DG    S(hbond)    S(metal)    S(lipo)     H(rot)  DE(clash)    DE(int)     intcor
     14.75     -14.86       2.01        0.00      44.64       1.00       0.00       0.12       ----

> <Gold.Chemscore.Fitness>
14.7455

> <Gold.Chemscore.DG>
-14.8644

> <Gold.Chemscore.ZeroCoef>
-5.4800

> <Gold.Chemscore.Hbond>
2.0124

> <Gold.Chemscore.Metal>
0.0000

> <Gold.Chemscore.Lipo>
44.6419

> <Gold.Chemscore.Internal_Hbond>
0.0000

> <Gold.Chemscore.DEClash>
0.0015

> <Gold.Chemscore.DEInternal>
0.1174

> <Gold.Chemscore.Rot>
1.0000

> <Gold.Chemscore.Internal.Correction>
   9.000000E+99

> <Gold.Chemscore.Hbonds>
donor molecule, donor type, donor heavy atom, donor atom, acceptor molecule, acceptor atom, score
      L1  H     1    14       P1  7948  0.21
      L1  H    11    23       P1 10186  0.92
      L1  H    13    26       P1  7948  0.21
      P1  H 10785 10796       L1    11  0.36

> <Gold.Chemscore.Hbond.Weighted>
-6.7213

> <Gold.Chemscore.Metal.Weighted>
-0.0000

> <Gold.Chemscore.Lipo.Weighted>
-5.2231

> <Gold.Chemscore.Internal_Hbond.Weighted>
0.0000

> <Gold.Chemscore.DEClash.Weighted>
0.0015

> <Gold.Chemscore.DEInternal.Weighted>
0.1174

> <Gold.Chemscore.Rot.Weighted>
2.5600

> <Gold.Chemscore.Internal.Correction.Weighted>
   9.000000E+99

> <Gold.Protein.RotatedTorsions>
[ 6907 6896 6895 6894 ] final -119.30 input  -60.11 | X-H torsion
[ 7974 7965 7964 7962 ] final  -44.65 input  175.53 | X-H torsion
[ 8008 7997 7996 7995 ] final  -61.66 input   59.86 | X-H torsion
[ 10167 10162 10161 10158 ] final   29.91 input  -65.29 | X-H torsion
[ 10718 10713 10712 10709 ] final   23.91 input   66.30 | X-H torsion
[ 10763 10752 10751 10750 ] final  102.86 input  -60.55 | X-H torsion
[ 11005 11000 10999 10996 ] final  -97.42 input  -57.11 | X-H torsion

> <Gold.Protein.ActiveResidues>
 VAL166  LYS551  ARG553  GLY616  TRP617  ASP618  TYR619  PRO620  LYS621  CYS622 
 ASP623  PHE694  ASN695  SER759  ASP760  ASP761  ALA762  ILE779  LEU786  VAL792 
 PHE793  MET794  SER795  GLU796  ALA797  LYS798  CYS799  TRP800  GLU811  SER814 

> <Gold.Protein.RotatedAtoms>
  150.8294  133.8117  159.3104 H   0  0  0  0  0  0  0  0  0  0  0  0  # atno 6907 bound_to 6896
  151.5852  135.1055  160.0036 H   0  0  0  0  0  0  0  0  0  0  0  0  # atno 6908 bound_to 6896
  152.4375  133.7346  159.6663 H   0  0  0  0  0  0  0  0  0  0  0  0  # atno 6909 bound_to 6896
  145.9899  140.7192  142.9322 H   0  0  0  0  0  0  0  0  0  0  0  0  # atno 7974 bound_to 7965
  154.4459  140.1013  156.6465 H   0  0  0  0  0  0  0  0  0  0  0  0  # atno 8008 bound_to 7997
  155.5444  140.3484  155.4435 H   0  0  0  0  0  0  0  0  0  0  0  0  # atno 8009 bound_to 7997
  156.0574  140.1318  156.9970 H   0  0  0  0  0  0  0  0  0  0  0  0  # atno 8010 bound_to 7997
  140.4724  144.0742  150.6241 H   0  0  0  0  0  0  0  0  0  0  0  0  # atno 10167 bound_to 10162
  157.1726  130.6766  149.6083 H   0  0  0  0  0  0  0  0  0  0  0  0  # atno 10718 bound_to 10713
  153.3451  135.3996  155.1602 H   0  0  0  0  0  0  0  0  0  0  0  0  # atno 10763 bound_to 10752
  154.8651  135.3643  154.5295 H   0  0  0  0  0  0  0  0  0  0  0  0  # atno 10764 bound_to 10752
  153.5742  135.7078  153.5551 H   0  0  0  0  0  0  0  0  0  0  0  0  # atno 10765 bound_to 10752
  141.1379  133.8169  157.0703 H   0  0  0  0  0  0  0  0  0  0  0  0  # atno 11005 bound_to 11000
  144.6886  140.3052  143.7257 LP  0  0  0  0  0  0  0  0  0  0  0  0  # atno 17320 bound_to 7965
  145.7646  139.1836  143.2247 LP  0  0  0  0  0  0  0  0  0  0  0  0  # atno 17321 bound_to 7965
  140.3960  143.2728  152.0004 LP  0  0  0  0  0  0  0  0  0  0  0  0  # atno 17342 bound_to 10162
  139.4820  144.6037  151.7559 LP  0  0  0  0  0  0  0  0  0  0  0  0  # atno 17343 bound_to 10162
  155.9736  130.4674  150.6323 LP  0  0  0  0  0  0  0  0  0  0  0  0  # atno 17370 bound_to 10713
  157.4029  131.0812  151.1292 LP  0  0  0  0  0  0  0  0  0  0  0  0  # atno 17371 bound_to 10713
  140.0515  134.9803  157.1145 LP  0  0  0  0  0  0  0  0  0  0  0  0  # atno 17394 bound_to 11000
  140.3982  134.2111  155.7164 LP  0  0  0  0  0  0  0  0  0  0  0  0  # atno 17395 bound_to 11000

$$$$
