AV-unprocessed.smi:203|AV-procd|sdf|1583|dock6
  -GOLD-   2262019473D 1   1.00000     0.00000
 Structure written by MMmdl.
 57 61  0  0  0  0  0  0  0  0  1 V2000
  143.8274  131.7506  149.8909 O   0  0  0  0  0  0  0  0  0  0  0  0
  144.1872  132.8395  150.3316 C   0  0  0  0  0  0  0  0  0  0  0  0
  144.7143  133.0404  151.7420 C   0  0  0  0  0  0  0  0  0  0  0  0
  144.7991  134.5729  151.8846 C   0  0  2  0  0  0  0  0  0  0  0  0
  143.7732  135.1725  152.8982 C   0  0  2  0  0  0  0  0  0  0  0  0
  142.3302  134.6471  152.6742 C   0  0  0  0  0  0  0  0  0  0  0  0
  141.3425  135.2488  153.6826 C   0  0  0  0  0  0  0  0  0  0  0  0
  141.4011  136.7786  153.6211 C   0  0  0  0  0  0  0  0  0  0  0  0
  142.8368  137.2669  153.8539 C   0  0  0  0  0  0  0  0  0  0  0  0
  143.7699  136.6467  152.9135 N   0  0  0  0  0  0  0  0  0  0  0  0
  144.9764  137.2514  152.9884 C   0  0  0  0  0  0  0  0  0  0  0  0
  145.4612  137.8080  151.8516 N   0  0  0  0  0  0  0  0  0  0  0  0
  146.6502  138.4183  151.8630 C   0  0  0  0  0  0  0  0  0  0  0  0
  147.4939  138.5852  152.8840 N   0  0  0  0  0  0  0  0  0  0  0  0
  147.0019  138.0336  154.0304 C   0  0  0  0  0  0  0  0  0  0  0  0
  145.7621  137.3500  154.1710 C   0  0  0  0  0  0  0  0  0  0  0  0
  145.6014  136.9218  155.4830 N   0  0  0  0  0  0  0  0  0  0  0  0
  146.6841  137.3315  156.0850 C   0  0  0  0  0  0  0  0  0  0  0  0
  147.5704  138.0252  155.2919 N   0  0  0  0  0  0  0  0  0  0  0  0
  148.8379  138.6028  155.7035 C   0  0  0  0  0  0  0  0  0  0  0  0
  149.2430  139.8514  154.8857 C   0  0  2  0  0  0  0  0  0  0  0  0
  150.1484  139.4525  153.8773 O   0  0  0  0  0  0  0  0  0  0  0  0
  149.8593  141.0361  155.6673 C   0  0  2  0  0  0  0  0  0  0  0  0
  151.2212  140.7954  156.3228 C   0  0  0  0  0  0  0  0  0  0  0  0
  151.2401  141.8841  157.3723 C   0  0  0  0  0  0  0  0  0  0  0  0
  149.7846  141.9093  157.8338 C   0  0  0  0  0  0  0  0  0  0  0  0
  149.0067  141.4877  156.7161 O   0  0  0  0  0  0  0  0  0  0  0  0
  144.6512  135.1164  150.4454 C   0  0  0  0  0  0  0  0  0  0  0  0
  144.1793  133.9907  149.6629 N   0  0  0  0  0  0  0  0  0  0  0  0
  144.0704  132.5698  152.4850 H   0  0  0  0  0  0  0  0  0  0  0  0
  145.7019  132.5841  151.8179 H   0  0  0  0  0  0  0  0  0  0  0  0
  145.8091  134.7939  152.2309 H   0  0  0  0  0  0  0  0  0  0  0  0
  144.0754  134.8469  153.8940 H   0  0  0  0  0  0  0  0  0  0  0  0
  141.9909  134.8879  151.6665 H   0  0  0  0  0  0  0  0  0  0  0  0
  142.2945  133.5614  152.7555 H   0  0  0  0  0  0  0  0  0  0  0  0
  140.3306  134.9018  153.4718 H   0  0  0  0  0  0  0  0  0  0  0  0
  141.5885  134.9083  154.6891 H   0  0  0  0  0  0  0  0  0  0  0  0
  141.0489  137.1229  152.6478 H   0  0  0  0  0  0  0  0  0  0  0  0
  140.7333  137.2112  154.3665 H   0  0  0  0  0  0  0  0  0  0  0  0
  142.8711  138.3529  153.7526 H   0  0  0  0  0  0  0  0  0  0  0  0
  143.1429  137.0338  154.8748 H   0  0  0  0  0  0  0  0  0  0  0  0
  146.9708  138.8343  150.9193 H   0  0  0  0  0  0  0  0  0  0  0  0
  146.8586  137.1488  157.1353 H   0  0  0  0  0  0  0  0  0  0  0  0
  148.7768  138.8460  156.7649 H   0  0  0  0  0  0  0  0  0  0  0  0
  149.6048  137.8328  155.6115 H   0  0  0  0  0  0  0  0  0  0  0  0
  148.3590  140.2242  154.3674 H   0  0  0  0  0  0  0  0  0  0  0  0
  149.7024  139.4826  153.0449 H   0  0  0  0  0  0  0  0  0  0  0  0
  149.9566  141.8861  154.9891 H   0  0  0  0  0  0  0  0  0  0  0  0
  151.2699  139.8216  156.8081 H   0  0  0  0  0  0  0  0  0  0  0  0
  152.0503  140.8674  155.6185 H   0  0  0  0  0  0  0  0  0  0  0  0
  151.9410  141.6872  158.1839 H   0  0  0  0  0  0  0  0  0  0  0  0
  151.5055  142.8383  156.9154 H   0  0  0  0  0  0  0  0  0  0  0  0
  149.6302  141.2018  158.6491 H   0  0  0  0  0  0  0  0  0  0  0  0
  149.4772  142.8956  158.1821 H   0  0  0  0  0  0  0  0  0  0  0  0
  143.9646  135.9598  150.3704 H   0  0  0  0  0  0  0  0  0  0  0  0
  145.6153  135.4415  150.0529 H   0  0  0  0  0  0  0  0  0  0  0  0
  143.8684  134.0862  148.7069 H   0  0  0  0  0  0  0  0  0  0  0  0
  1  2  2  0  0  0  0
  2 29  1  0  0  0  0
  2  3  1  0  0  0  0
  3  4  1  0  0  0  0
  3 30  1  0  0  0  0
  3 31  1  0  0  0  0
  4  5  1  0  0  0  0
  4 28  1  0  0  0  0
  4 32  1  0  0  0  0
  5 10  1  0  0  0  0
  5  6  1  0  0  0  0
  5 33  1  0  0  0  0
  6  7  1  0  0  0  0
  6 34  1  0  0  0  0
  6 35  1  0  0  0  0
  7  8  1  0  0  0  0
  7 36  1  0  0  0  0
  7 37  1  0  0  0  0
  8  9  1  0  0  0  0
  8 38  1  0  0  0  0
  8 39  1  0  0  0  0
  9 10  1  0  0  0  0
  9 40  1  0  0  0  0
  9 41  1  0  0  0  0
 10 11  1  0  0  0  0
 11 16  1  0  0  0  0
 11 12  2  0  0  0  0
 12 13  1  0  0  0  0
 13 14  2  0  0  0  0
 13 42  1  0  0  0  0
 14 15  1  0  0  0  0
 15 19  1  0  0  0  0
 15 16  2  0  0  0  0
 16 17  1  0  0  0  0
 17 18  2  0  0  0  0
 18 19  1  0  0  0  0
 18 43  1  0  0  0  0
 19 20  1  0  0  0  0
 20 21  1  0  0  0  0
 20 44  1  0  0  0  0
 20 45  1  0  0  0  0
 21 22  1  0  0  0  0
 21 23  1  0  0  0  0
 21 46  1  0  0  0  0
 22 47  1  0  0  0  0
 23 27  1  0  0  0  0
 23 24  1  0  0  0  0
 23 48  1  0  0  0  0
 24 25  1  0  0  0  0
 24 49  1  0  0  0  0
 24 50  1  0  0  0  0
 25 26  1  0  0  0  0
 25 51  1  0  0  0  0
 25 52  1  0  0  0  0
 26 27  1  0  0  0  0
 26 53  1  0  0  0  0
 26 54  1  0  0  0  0
 28 29  1  0  0  0  0
 28 55  1  0  0  0  0
 28 56  1  0  0  0  0
 29 57  1  0  0  0  0
M  END
> <s_m_source_file>
AV-unprocessed.smi

> <i_m_source_file_index>
203

> <i_lp_mmshare_version>
43012

> <i_f3d_flags>
0

> <s_epik_input>
Tz1DMVtDSDJdW0NASF0oW0NIMl1bTkhdMSlbQ0BASF0yW0NIMl1bQ0gyXVtDSDJdW0NIMl1OMmMobltjSF1uMyljKGMzNCluW2NIXW40W0NIMl1bQ0BIXShbT0hdKVtDQEBIXTVbQ0gyXVtDSDJdW0NIMl1PNQ==

> <s_epik_cmdline>
J2VwaWtfcHl0aG9uJywgJy1waCcsICc3LjAnLCAnLXRuJywgJzgnLCAnLW1hJywgJzIwMCcsICctbWV0YWxfYmluZGluZycsICctaW1hZScsICc8aW5maWxlLm1hZT4nLCAnLW9tYWUnLCAnPG91dGZpbGUubWFlPic=

> <r_lp_tautomer_probability>
1

> <r_epik_Ionization_Penalty>
0.00175146

> <r_epik_Ionization_Penalty_Charging>
0

> <r_epik_Ionization_Penalty_Neutral>
0.00175146

> <r_epik_State_Penalty>
0.00109045

> <r_epik_Charging_Adjusted_Penalty>
0.00109045

> <i_epik_Tot_Q>
0

> <i_epik_Tot_abs_Q>
0

> <r_epik_Metal_State_Penalty>
-0

> <b_epik_Metal_Only>
0

> <s_lp_Force_Field>
OPLS_2005

> <r_lp_Energy>
56.3505

> <b_lp_Chiralities_Consistent>
1

> <s_lp_Variant>
AV-unprocessed.smi:203-2

> <Gold.Version>
5.8.1

> <Gold.Id.Protein>
6NUR|6NUR_protein|mol2

> <Gold.PLP.Fitness>
45.6330

> <Gold.PLP.PLP>
-39.5524

> <Gold.PLP.part.hbond>
-4.7102

> <Gold.PLP.part.metal>
0.0000

> <Gold.PLP.part.buried>
-9.9896

> <Gold.PLP.part.nonpolar>
-31.7638

> <Gold.PLP.part.repulsive>
5.7838

> <Gold.PLP.ligand.clash>
0.0000

> <Gold.PLP.ligand.torsion>
1.2396

> <Gold.PLP.Chemscore.Hbond>
2.6922

> <Gold.PLP.Chemscore.CHOScore>
0.0654

> <Gold.PLP.Chemscore.Metal>
0.0000

> <Gold.Chemscore.Hbonds>
donor molecule, donor type, donor heavy atom, donor atom, acceptor molecule, acceptor atom, score
      L1  H    22    47       P1  7957  1.00
      P1  H  7989  7998       L1    22  0.80
      P1  H 10785 10796       L1     1  0.74
      L1  C    13    42       P1  7957  0.13

> <Gold.PLP.Chemscore.Internal.Correction>
0.2871

> <Gold.Rescore>
     Score         DG    S(hbond)    S(metal)    S(lipo)     H(rot)  DE(clash)    DE(int)     intcor
      9.64     -13.39       1.91        0.00      72.39       2.72       1.48       2.27       ----

> <Gold.Chemscore.Fitness>
9.6362

> <Gold.Chemscore.DG>
-13.3896

> <Gold.Chemscore.ZeroCoef>
-5.4800

> <Gold.Chemscore.Hbond>
1.9147

> <Gold.Chemscore.Metal>
0.0000

> <Gold.Chemscore.Lipo>
72.3933

> <Gold.Chemscore.Internal_Hbond>
0.0000

> <Gold.Chemscore.DEClash>
1.4839

> <Gold.Chemscore.DEInternal>
2.2695

> <Gold.Chemscore.Rot>
2.7171

> <Gold.Chemscore.Internal.Correction>
   9.000000E+99

> <Gold.Chemscore.Hbonds>
donor molecule, donor type, donor heavy atom, donor atom, acceptor molecule, acceptor atom, score
      L1  H    22    47       P1  7957  0.94
      P1  H  7989  7998       L1    22  0.13
      P1  H 10785 10796       L1     1  0.72

> <Gold.Chemscore.Hbond.Weighted>
-6.3953

> <Gold.Chemscore.Metal.Weighted>
-0.0000

> <Gold.Chemscore.Lipo.Weighted>
-8.4700

> <Gold.Chemscore.Internal_Hbond.Weighted>
0.0000

> <Gold.Chemscore.DEClash.Weighted>
1.4839

> <Gold.Chemscore.DEInternal.Weighted>
2.2695

> <Gold.Chemscore.Rot.Weighted>
6.9557

> <Gold.Chemscore.Internal.Correction.Weighted>
   9.000000E+99

> <Gold.Protein.RotatedTorsions>
[ 6907 6896 6895 6894 ] final  -44.53 input  -60.11 | X-H torsion
[ 7974 7965 7964 7962 ] final  107.23 input  175.53 | X-H torsion
[ 8008 7997 7996 7995 ] final   27.70 input   59.86 | X-H torsion
[ 10167 10162 10161 10158 ] final  165.02 input  -65.29 | X-H torsion
[ 10718 10713 10712 10709 ] final  110.33 input   66.30 | X-H torsion
[ 10763 10752 10751 10750 ] final -163.46 input  -60.55 | X-H torsion
[ 11005 11000 10999 10996 ] final -122.41 input  -57.11 | X-H torsion

> <Gold.Protein.ActiveResidues>
 VAL166  LYS551  ARG553  GLY616  TRP617  ASP618  TYR619  PRO620  LYS621  CYS622 
 ASP623  PHE694  ASN695  SER759  ASP760  ASP761  ALA762  ILE779  LEU786  VAL792 
 PHE793  MET794  SER795  GLU796  ALA797  LYS798  CYS799  TRP800  GLU811  SER814 

> <Gold.Protein.RotatedAtoms>
  150.9318  134.8733  159.7555 H   0  0  0  0  0  0  0  0  0  0  0  0  # atno 6907 bound_to 6896
  152.5041  134.4068  159.9445 H   0  0  0  0  0  0  0  0  0  0  0  0  # atno 6908 bound_to 6896
  151.4094  133.3692  159.2777 H   0  0  0  0  0  0  0  0  0  0  0  0  # atno 6909 bound_to 6896
  145.2963  139.2584  143.3838 H   0  0  0  0  0  0  0  0  0  0  0  0  # atno 7974 bound_to 7965
  155.0470  140.3175  155.4705 H   0  0  0  0  0  0  0  0  0  0  0  0  # atno 8008 bound_to 7997
  156.2842  140.2153  156.5538 H   0  0  0  0  0  0  0  0  0  0  0  0  # atno 8009 bound_to 7997
  154.7242  140.0487  157.0655 H   0  0  0  0  0  0  0  0  0  0  0  0  # atno 8010 bound_to 7997
  139.4899  144.4175  151.9227 H   0  0  0  0  0  0  0  0  0  0  0  0  # atno 10167 bound_to 10162
  157.6499  131.0930  150.6585 H   0  0  0  0  0  0  0  0  0  0  0  0  # atno 10718 bound_to 10713
  154.7120  135.3008  154.9182 H   0  0  0  0  0  0  0  0  0  0  0  0  # atno 10763 bound_to 10752
  154.0081  135.6698  153.4767 H   0  0  0  0  0  0  0  0  0  0  0  0  # atno 10764 bound_to 10752
  153.0763  135.5033  154.8324 H   0  0  0  0  0  0  0  0  0  0  0  0  # atno 10765 bound_to 10752
  140.9997  134.0420  157.3552 H   0  0  0  0  0  0  0  0  0  0  0  0  # atno 11005 bound_to 11000
  146.3167  140.3466  142.8652 LP  0  0  0  0  0  0  0  0  0  0  0  0  # atno 17320 bound_to 7965
  144.9131  140.7780  143.5795 LP  0  0  0  0  0  0  0  0  0  0  0  0  # atno 17321 bound_to 7965
  140.3618  144.2964  150.5932 LP  0  0  0  0  0  0  0  0  0  0  0  0  # atno 17342 bound_to 10162
  140.5396  143.2226  151.8106 LP  0  0  0  0  0  0  0  0  0  0  0  0  # atno 17343 bound_to 10162
  156.6898  130.4591  149.5603 LP  0  0  0  0  0  0  0  0  0  0  0  0  # atno 17370 bound_to 10713
  156.1870  130.6535  151.1017 LP  0  0  0  0  0  0  0  0  0  0  0  0  # atno 17371 bound_to 10713
  139.9033  135.0172  156.7369 LP  0  0  0  0  0  0  0  0  0  0  0  0  # atno 17394 bound_to 11000
  140.6908  133.9392  155.7965 LP  0  0  0  0  0  0  0  0  0  0  0  0  # atno 17395 bound_to 11000

$$$$
