AV-unprocessed.smi:3230|AV-procd|sdf|12330|dock7
  -GOLD-   2272018183D 1   1.00000     0.00000
 Structure written by MMmdl.
 40 40  0  0  0  0  0  0  0  0  1 V2000
  147.0824  139.0326  153.0782 C   0  0  0  0  0  0  0  0  0  0  0  0
  147.6593  139.8314  154.2564 C   0  0  0  0  0  0  0  0  0  0  0  0
  149.1998  140.0014  154.2296 C   0  0  0  0  0  0  0  0  0  0  0  0
  149.9164  138.7848  154.8709 C   0  0  0  0  0  0  0  0  0  0  0  0
  151.4443  138.7936  154.7125 C   0  0  0  0  0  0  0  0  0  0  0  0
  149.6562  141.3527  154.8493 C   0  0  1  0  0  0  0  0  0  0  0  0
  148.9970  142.4112  154.1803 O   0  0  0  0  0  0  0  0  0  0  0  0
  149.3700  141.4633  156.3649 C   0  0  0  0  0  0  0  0  0  0  0  0
  150.5458  141.1474  157.1688 N   0  0  0  0  0  0  0  0  0  0  0  0
  151.3191  142.0473  157.7961 C   0  0  0  0  0  0  0  0  0  0  0  0
  151.1175  143.2608  157.7555 O   0  0  0  0  0  0  0  0  0  0  0  0
  152.5064  141.4960  158.5863 C   0  0  0  0  0  0  0  0  0  0  0  0
  152.4935  142.0373  159.9902 C   0  0  0  0  0  0  0  0  0  0  0  0
  153.4237  141.7952  161.0391 C   0  0  0  0  0  0  0  0  0  0  0  0
  152.9317  142.5255  162.0831 C   0  0  0  0  0  0  0  0  0  0  0  0
  153.3944  142.7358  163.4840 C   0  0  0  0  0  0  0  0  0  0  0  0
  151.7920  143.1638  161.7128 O   0  0  0  0  0  0  0  0  0  0  0  0
  151.5193  142.8458  160.3777 N   0  0  0  0  0  0  0  0  0  0  0  0
  146.0199  138.8419  153.2298 H   0  0  0  0  0  0  0  0  0  0  0  0
  147.5787  138.0675  152.9739 H   0  0  0  0  0  0  0  0  0  0  0  0
  147.1795  139.5688  152.1349 H   0  0  0  0  0  0  0  0  0  0  0  0
  147.1734  140.8061  154.3082 H   0  0  0  0  0  0  0  0  0  0  0  0
  147.3662  139.3093  155.1659 H   0  0  0  0  0  0  0  0  0  0  0  0
  149.4950  140.0254  153.1794 H   0  0  0  0  0  0  0  0  0  0  0  0
  149.7093  138.7530  155.9399 H   0  0  0  0  0  0  0  0  0  0  0  0
  149.5141  137.8565  154.4634 H   0  0  0  0  0  0  0  0  0  0  0  0
  151.8904  137.9666  155.2652 H   0  0  0  0  0  0  0  0  0  0  0  0
  151.8755  139.7176  155.0984 H   0  0  0  0  0  0  0  0  0  0  0  0
  151.7498  138.6867  153.6724 H   0  0  0  0  0  0  0  0  0  0  0  0
  150.7285  141.4691  154.6964 H   0  0  0  0  0  0  0  0  0  0  0  0
  148.7945  143.0843  154.8126 H   0  0  0  0  0  0  0  0  0  0  0  0
  148.9604  142.4387  156.6340 H   0  0  0  0  0  0  0  0  0  0  0  0
  148.6135  140.7307  156.6477 H   0  0  0  0  0  0  0  0  0  0  0  0
  150.7857  140.1705  157.2609 H   0  0  0  0  0  0  0  0  0  0  0  0
  152.4715  140.4055  158.5849 H   0  0  0  0  0  0  0  0  0  0  0  0
  153.4331  141.7749  158.0838 H   0  0  0  0  0  0  0  0  0  0  0  0
  154.3129  141.1828  161.0254 H   0  0  0  0  0  0  0  0  0  0  0  0
  154.3757  142.2880  163.6416 H   0  0  0  0  0  0  0  0  0  0  0  0
  152.6994  142.2844  164.1919 H   0  0  0  0  0  0  0  0  0  0  0  0
  153.4680  143.7994  163.7118 H   0  0  0  0  0  0  0  0  0  0  0  0
  1  2  1  0  0  0  0
  1 19  1  0  0  0  0
  1 20  1  0  0  0  0
  1 21  1  0  0  0  0
  2  3  1  0  0  0  0
  2 22  1  0  0  0  0
  2 23  1  0  0  0  0
  3  4  1  0  0  0  0
  3  6  1  0  0  0  0
  3 24  1  0  0  0  0
  4  5  1  0  0  0  0
  4 25  1  0  0  0  0
  4 26  1  0  0  0  0
  5 27  1  0  0  0  0
  5 28  1  0  0  0  0
  5 29  1  0  0  0  0
  6  7  1  0  0  0  0
  6  8  1  0  0  0  0
  6 30  1  0  0  0  0
  7 31  1  0  0  0  0
  8  9  1  0  0  0  0
  8 32  1  0  0  0  0
  8 33  1  0  0  0  0
  9 10  1  0  0  0  0
  9 34  1  0  0  0  0
 10 11  2  0  0  0  0
 10 12  1  0  0  0  0
 12 13  1  0  0  0  0
 12 35  1  0  0  0  0
 12 36  1  0  0  0  0
 13 18  2  0  0  0  0
 13 14  1  0  0  0  0
 14 15  2  0  0  0  0
 14 37  1  0  0  0  0
 15 16  1  0  0  0  0
 15 17  1  0  0  0  0
 16 38  1  0  0  0  0
 16 39  1  0  0  0  0
 16 40  1  0  0  0  0
 17 18  1  0  0  0  0
M  END
> <s_m_source_file>
AV-unprocessed.smi

> <i_m_source_file_index>
3230

> <i_lp_mmshare_version>
43012

> <i_f3d_flags>
0

> <s_epik_input>
W0NIM11bQ0gyXVtDSF0oW0NIMl1bQ0gzXSlbQ0BIXShbT0hdKVtDSDJdW05IXUMoPU8pW0NIMl1jMVtjSF1jKFtDSDNdKW9uMQ==

> <s_epik_cmdline>
J2VwaWtfcHl0aG9uJywgJy1waCcsICc3LjAnLCAnLXRuJywgJzgnLCAnLW1hJywgJzIwMCcsICctbWV0YWxfYmluZGluZycsICctaW1hZScsICc8aW5maWxlLm1hZT4nLCAnLW9tYWUnLCAnPG91dGZpbGUubWFlPic=

> <r_lp_tautomer_probability>
1

> <r_epik_Ionization_Penalty>
2.40054e-07

> <r_epik_Ionization_Penalty_Charging>
0

> <r_epik_Ionization_Penalty_Neutral>
2.40054e-07

> <r_epik_State_Penalty>
-0

> <r_epik_Charging_Adjusted_Penalty>
0

> <i_epik_Tot_Q>
0

> <i_epik_Tot_abs_Q>
0

> <r_epik_Metal_State_Penalty>
-0

> <b_epik_Metal_Only>
0

> <s_lp_Force_Field>
OPLS_2005

> <r_lp_Energy>
9.12341

> <b_lp_Chiralities_Consistent>
1

> <s_lp_Variant>
AV-unprocessed.smi:3230-2

> <Gold.Version>
5.8.1

> <Gold.Id.Protein>
6NUR|6NUR_protein|mol2

> <Gold.PLP.Fitness>
42.8980

> <Gold.PLP.PLP>
-40.9657

> <Gold.PLP.part.hbond>
-3.7015

> <Gold.PLP.part.metal>
0.0000

> <Gold.PLP.part.buried>
-5.0610

> <Gold.PLP.part.nonpolar>
-32.0052

> <Gold.PLP.part.repulsive>
0.3731

> <Gold.PLP.ligand.clash>
0.0000

> <Gold.PLP.ligand.torsion>
1.0940

> <Gold.PLP.Chemscore.Hbond>
1.2794

> <Gold.PLP.Chemscore.CHOScore>
0.0000

> <Gold.PLP.Chemscore.Metal>
0.0000

> <Gold.Chemscore.Hbonds>
donor molecule, donor type, donor heavy atom, donor atom, acceptor molecule, acceptor atom, score
      L1  H     7    31       P1  8028  1.00
      P1  H  6933  6945       L1    17  0.07
      P1  H  8011  8017       L1     7  0.18

> <Gold.PLP.Chemscore.Internal.Correction>
0.2821

> <Gold.Rescore>
     Score         DG    S(hbond)    S(metal)    S(lipo)     H(rot)  DE(clash)    DE(int)     intcor
     11.75     -14.30       1.23        0.00      96.57       2.57       0.01       2.54       ----

> <Gold.Chemscore.Fitness>
11.7539

> <Gold.Chemscore.DG>
-14.2984

> <Gold.Chemscore.ZeroCoef>
-5.4800

> <Gold.Chemscore.Hbond>
1.2284

> <Gold.Chemscore.Metal>
0.0000

> <Gold.Chemscore.Lipo>
96.5690

> <Gold.Chemscore.Internal_Hbond>
0.0000

> <Gold.Chemscore.DEClash>
0.0077

> <Gold.Chemscore.DEInternal>
2.5368

> <Gold.Chemscore.Rot>
2.5715

> <Gold.Chemscore.Internal.Correction>
   9.000000E+99

> <Gold.Chemscore.Hbonds>
donor molecule, donor type, donor heavy atom, donor atom, acceptor molecule, acceptor atom, score
      L1  H     7    31       P1  8028  0.99
      P1  H  8011  8017       L1     7  0.09

> <Gold.Chemscore.Hbond.Weighted>
-4.1030

> <Gold.Chemscore.Metal.Weighted>
-0.0000

> <Gold.Chemscore.Lipo.Weighted>
-11.2986

> <Gold.Chemscore.Internal_Hbond.Weighted>
0.0000

> <Gold.Chemscore.DEClash.Weighted>
0.0077

> <Gold.Chemscore.DEInternal.Weighted>
2.5368

> <Gold.Chemscore.Rot.Weighted>
6.5831

> <Gold.Chemscore.Internal.Correction.Weighted>
   9.000000E+99

> <Gold.Protein.RotatedTorsions>
[ 6907 6896 6895 6894 ] final  117.87 input  -60.11 | X-H torsion
[ 7974 7965 7964 7962 ] final  117.82 input  175.53 | X-H torsion
[ 8008 7997 7996 7995 ] final -111.31 input   59.86 | X-H torsion
[ 10167 10162 10161 10158 ] final   88.44 input  -65.29 | X-H torsion
[ 10718 10713 10712 10709 ] final -102.60 input   66.30 | X-H torsion
[ 10763 10752 10751 10750 ] final   63.65 input  -60.55 | X-H torsion
[ 11005 11000 10999 10996 ] final   58.01 input  -57.11 | X-H torsion

> <Gold.Protein.ActiveResidues>
 VAL166  LYS551  ARG553  GLY616  TRP617  ASP618  TYR619  PRO620  LYS621  CYS622 
 ASP623  PHE694  ASN695  SER759  ASP760  ASP761  ALA762  ILE779  LEU786  VAL792 
 PHE793  MET794  SER795  GLU796  ALA797  LYS798  CYS799  TRP800  GLU811  SER814 

> <Gold.Protein.RotatedAtoms>
  152.4582  133.7768  159.6828 H   0  0  0  0  0  0  0  0  0  0  0  0  # atno 6907 bound_to 6896
  150.8516  133.7768  159.3029 H   0  0  0  0  0  0  0  0  0  0  0  0  # atno 6908 bound_to 6896
  151.5361  135.1071  159.9966 H   0  0  0  0  0  0  0  0  0  0  0  0  # atno 6909 bound_to 6896
  145.1627  139.3146  143.4509 H   0  0  0  0  0  0  0  0  0  0  0  0  # atno 7974 bound_to 7965
  154.9879  140.0395  157.2306 H   0  0  0  0  0  0  0  0  0  0  0  0  # atno 8008 bound_to 7997
  154.7655  140.2792  155.6157 H   0  0  0  0  0  0  0  0  0  0  0  0  # atno 8009 bound_to 7997
  156.2912  140.2620  156.2444 H   0  0  0  0  0  0  0  0  0  0  0  0  # atno 8010 bound_to 7997
  139.8672  144.6512  150.8990 H   0  0  0  0  0  0  0  0  0  0  0  0  # atno 10167 bound_to 10162
  156.0235  130.5428  150.7132 H   0  0  0  0  0  0  0  0  0  0  0  0  # atno 10718 bound_to 10713
  153.0025  135.5421  154.6385 H   0  0  0  0  0  0  0  0  0  0  0  0  # atno 10763 bound_to 10752
  154.5645  135.2836  155.0889 H   0  0  0  0  0  0  0  0  0  0  0  0  # atno 10764 bound_to 10752
  154.2078  135.6472  153.5159 H   0  0  0  0  0  0  0  0  0  0  0  0  # atno 10765 bound_to 10752
  140.0409  134.5875  155.9383 H   0  0  0  0  0  0  0  0  0  0  0  0  # atno 11005 bound_to 11000
  146.3480  140.1743  142.8589 LP  0  0  0  0  0  0  0  0  0  0  0  0  # atno 17320 bound_to 7965
  145.0315  140.8874  143.5107 LP  0  0  0  0  0  0  0  0  0  0  0  0  # atno 17321 bound_to 7965
  140.7766  143.3694  151.1678 LP  0  0  0  0  0  0  0  0  0  0  0  0  # atno 17342 bound_to 10162
  139.7317  143.9061  152.3022 LP  0  0  0  0  0  0  0  0  0  0  0  0  # atno 17343 bound_to 10162
  157.4765  131.0898  151.0584 LP  0  0  0  0  0  0  0  0  0  0  0  0  # atno 17370 bound_to 10713
  157.1029  130.5989  149.5464 LP  0  0  0  0  0  0  0  0  0  0  0  0  # atno 17371 bound_to 10713
  141.1882  133.6562  156.5316 LP  0  0  0  0  0  0  0  0  0  0  0  0  # atno 17394 bound_to 11000
  140.4071  134.7305  157.4814 LP  0  0  0  0  0  0  0  0  0  0  0  0  # atno 17395 bound_to 11000

$$$$
