AV-unprocessed.smi:1490|AV-procd|sdf|6031|dock3
  -GOLD-   22720 6133D 1   1.00000     0.00000
 Structure written by MMmdl.
 37 38  0  0  0  0  0  0  0  0  3 V2000
  149.1118  127.7175  154.1794 C   0  0  0  0  0  0  0  0  0  0  0  0
  149.8769  128.7232  153.5404 O   0  0  0  0  0  0  0  0  0  0  0  0
  149.9016  129.9415  154.2656 C   0  0  0  0  0  0  0  0  0  0  0  0
  148.4633  130.4322  154.4848 C   0  0  0  0  0  0  0  0  0  0  0  0
  148.1601  131.6297  153.6886 N   0  0  0  0  0  0  0  0  0  0  0  0
  148.6869  132.8849  153.7466 C   0  0  0  0  0  0  0  0  0  0  0  0
  149.9474  133.4372  154.8475 S   0  0  0  0  0  0  0  0  0  0  0  0
  149.1229  134.5807  155.9912 C   0  0  0  0  0  0  0  0  0  0  0  0
  148.9912  134.0028  157.3997 C   0  0  0  0  0  0  0  0  0  0  0  0
  149.7524  133.1071  157.7625 O   0  0  0  0  0  0  0  0  0  0  0  0
  147.9959  134.5963  158.0947 N   0  5  0  0  0  0  0  0  0  0  0  0
  147.9073  134.3765  159.5246 C   0  0  0  0  0  0  0  0  0  0  0  0
  147.8803  135.6606  160.2416 C   0  0  0  0  0  0  0  0  0  0  0  0
  147.8589  136.6714  160.8052 N   0  0  0  0  0  0  0  0  0  0  0  0
  148.0530  133.6424  152.8095 N   0  3  0  0  0  0  0  0  0  0  0  0
  147.1020  132.8643  152.1472 C   0  0  0  0  0  0  0  0  0  0  0  0
  146.2129  133.1858  151.1265 C   0  0  0  0  0  0  0  0  0  0  0  0
  145.3634  132.1536  150.6762 C   0  0  0  0  0  0  0  0  0  0  0  0
  144.2348  132.4792  149.4131 Cl  0  0  0  0  0  0  0  0  0  0  0  0
  145.4183  130.8618  151.2402 C   0  0  0  0  0  0  0  0  0  0  0  0
  146.3238  130.5463  152.2747 C   0  0  0  0  0  0  0  0  0  0  0  0
  147.1620  131.5719  152.7102 C   0  0  0  0  0  0  0  0  0  0  0  0
  149.1296  126.8084  153.5782 H   0  0  0  0  0  0  0  0  0  0  0  0
  148.0720  128.0259  154.2933 H   0  0  0  0  0  0  0  0  0  0  0  0
  149.5174  127.4794  155.1634 H   0  0  0  0  0  0  0  0  0  0  0  0
  150.3932  129.7957  155.2284 H   0  0  0  0  0  0  0  0  0  0  0  0
  150.4741  130.6901  153.7156 H   0  0  0  0  0  0  0  0  0  0  0  0
  147.7557  129.6542  154.1969 H   0  0  0  0  0  0  0  0  0  0  0  0
  148.2752  130.6444  155.5375 H   0  0  0  0  0  0  0  0  0  0  0  0
  149.6847  135.5146  156.0235 H   0  0  0  0  0  0  0  0  0  0  0  0
  148.1315  134.8243  155.6061 H   0  0  0  0  0  0  0  0  0  0  0  0
  147.0066  133.8327  159.8121 H   0  0  0  0  0  0  0  0  0  0  0  0
  148.7538  133.8088  159.9116 H   0  0  0  0  0  0  0  0  0  0  0  0
  146.1683  134.1758  150.6969 H   0  0  0  0  0  0  0  0  0  0  0  0
  144.7513  130.0955  150.8723 H   0  0  0  0  0  0  0  0  0  0  0  0
  146.3544  129.5547  152.7012 H   0  0  0  0  0  0  0  0  0  0  0  0
  148.2536  134.6205  152.6458 H   0  0  0  0  0  0  0  0  0  0  0  0
  1  2  1  0  0  0  0
  1 23  1  0  0  0  0
  1 24  1  0  0  0  0
  1 25  1  0  0  0  0
  2  3  1  0  0  0  0
  3  4  1  0  0  0  0
  3 26  1  0  0  0  0
  3 27  1  0  0  0  0
  4  5  1  0  0  0  0
  4 28  1  0  0  0  0
  4 29  1  0  0  0  0
  5 22  1  0  0  0  0
  5  6  1  0  0  0  0
  6  7  1  0  0  0  0
  6 15  2  0  0  0  0
  7  8  1  0  0  0  0
  8  9  1  0  0  0  0
  8 30  1  0  0  0  0
  8 31  1  0  0  0  0
  9 10  2  0  0  0  0
  9 11  1  0  0  0  0
 11 12  1  0  0  0  0
 12 13  1  0  0  0  0
 12 32  1  0  0  0  0
 12 33  1  0  0  0  0
 13 14  3  0  0  0  0
 15 16  1  0  0  0  0
 15 37  1  0  0  0  0
 16 22  2  0  0  0  0
 16 17  1  0  0  0  0
 17 18  2  0  0  0  0
 17 34  1  0  0  0  0
 18 19  1  0  0  0  0
 18 20  1  0  0  0  0
 20 21  2  0  0  0  0
 20 35  1  0  0  0  0
 21 22  1  0  0  0  0
 21 36  1  0  0  0  0
M  CHG  1  11  -1
M  CHG  1  15   1
M  END
> <s_m_source_file>
AV-unprocessed.smi

> <i_m_source_file_index>
1490

> <i_lp_mmshare_version>
43012

> <i_f3d_flags>
0

> <s_epik_input>
W2NIXTFjKENsKVtjSF1bY0hdYyhjMTIpbihbQ0gyXVtDSDJdT1tDSDNdKWMobjIpU1tDSDJdQyg9TylbTkhdW0NIMl1DI04=

> <s_epik_cmdline>
J2VwaWtfcHl0aG9uJywgJy1waCcsICc3LjAnLCAnLXRuJywgJzgnLCAnLW1hJywgJzIwMCcsICctbWV0YWxfYmluZGluZycsICctaW1hZScsICc8aW5maWxlLm1hZT4nLCAnLW9tYWUnLCAnPG91dGZpbGUubWFlPic=

> <r_epik_Ionization_Penalty>
9.25224

> <r_epik_Ionization_Penalty_Charging>
9.25224

> <r_epik_Ionization_Penalty_Neutral>
2.90678e-12

> <r_epik_State_Penalty>
9.37242

> <r_epik_Charging_Adjusted_Penalty>
18.6247

> <i_epik_Tot_Q>
0

> <i_epik_Tot_abs_Q>
2

> <r_epik_Metal_State_Penalty>
5.29561

> <b_epik_Metal_Only>
1

> <s_lp_Force_Field>
OPLS_2005

> <r_lp_Energy>
5.70634

> <b_lp_Chiralities_Consistent>
1

> <s_lp_Variant>
AV-unprocessed.smi:1490-3

> <Gold.Version>
5.8.1

> <Gold.Id.Protein>
6NUR|6NUR_protein|mol2

> <Gold.PLP.Fitness>
50.5027

> <Gold.PLP.PLP>
-38.4101

> <Gold.PLP.part.hbond>
-4.0000

> <Gold.PLP.part.metal>
0.0000

> <Gold.PLP.part.buried>
-3.4931

> <Gold.PLP.part.nonpolar>
-30.4451

> <Gold.PLP.part.repulsive>
0.1880

> <Gold.PLP.ligand.clash>
0.0000

> <Gold.PLP.ligand.torsion>
1.1553

> <Gold.PLP.Chemscore.Hbond>
4.7120

> <Gold.PLP.Chemscore.CHOScore>
0.0000

> <Gold.PLP.Chemscore.Metal>
0.0000

> <Gold.Chemscore.Hbonds>
donor molecule, donor type, donor heavy atom, donor atom, acceptor molecule, acceptor atom, score
      L1  H    15    37       P1  7948  2.00
      P1  H  6896  6907       L1    10  1.00
      P1  H  6931  6943       L1    14  0.44

> <Gold.PLP.Chemscore.Internal.Correction>
0.2671

> <Gold.Rescore>
     Score         DG    S(hbond)    S(metal)    S(lipo)     H(rot)  DE(clash)    DE(int)     intcor
     17.97     -19.12       3.49        0.00      77.05       2.74       0.00       1.15       ----

> <Gold.Chemscore.Fitness>
17.9690

> <Gold.Chemscore.DG>
-19.1180

> <Gold.Chemscore.ZeroCoef>
-5.4800

> <Gold.Chemscore.Hbond>
3.4859

> <Gold.Chemscore.Metal>
0.0000

> <Gold.Chemscore.Lipo>
77.0471

> <Gold.Chemscore.Internal_Hbond>
0.0000

> <Gold.Chemscore.DEClash>
0.0000

> <Gold.Chemscore.DEInternal>
1.1489

> <Gold.Chemscore.Rot>
2.7420

> <Gold.Chemscore.Internal.Correction>
   9.000000E+99

> <Gold.Chemscore.Hbonds>
donor molecule, donor type, donor heavy atom, donor atom, acceptor molecule, acceptor atom, score
      L1  H    15    37       P1  7948  0.39
      P1  H  6896  6907       L1    10  0.43
      P1  H  6931  6943       L1    14  0.42
      P1  H  6934  6947       L1    14  0.05

> <Gold.Chemscore.Hbond.Weighted>
-11.6429

> <Gold.Chemscore.Metal.Weighted>
-0.0000

> <Gold.Chemscore.Lipo.Weighted>
-9.0145

> <Gold.Chemscore.Internal_Hbond.Weighted>
0.0000

> <Gold.Chemscore.DEClash.Weighted>
0.0000

> <Gold.Chemscore.DEInternal.Weighted>
1.1489

> <Gold.Chemscore.Rot.Weighted>
7.0194

> <Gold.Chemscore.Internal.Correction.Weighted>
   9.000000E+99

> <Gold.Protein.RotatedTorsions>
[ 6907 6896 6895 6894 ] final -111.56 input  -60.11 | X-H torsion
[ 7974 7965 7964 7962 ] final  112.39 input  175.53 | X-H torsion
[ 8008 7997 7996 7995 ] final  -58.54 input   59.86 | X-H torsion
[ 10167 10162 10161 10158 ] final  102.31 input  -65.29 | X-H torsion
[ 10718 10713 10712 10709 ] final  132.34 input   66.30 | X-H torsion
[ 10763 10752 10751 10750 ] final -152.03 input  -60.55 | X-H torsion
[ 11005 11000 10999 10996 ] final   63.26 input  -57.11 | X-H torsion

> <Gold.Protein.ActiveResidues>
 VAL166  LYS551  ARG553  GLY616  TRP617  ASP618  TYR619  PRO620  LYS621  CYS622 
 ASP623  PHE694  ASN695  SER759  ASP760  ASP761  ALA762  ILE779  LEU786  VAL792 
 PHE793  MET794  SER795  GLU796  ALA797  LYS798  CYS799  TRP800  GLU811  SER814 

> <Gold.Protein.RotatedAtoms>
  150.7698  133.9218  159.3400 H   0  0  0  0  0  0  0  0  0  0  0  0  # atno 6907 bound_to 6896
  151.7107  135.0911  160.0276 H   0  0  0  0  0  0  0  0  0  0  0  0  # atno 6908 bound_to 6896
  152.3711  133.6382  159.6123 H   0  0  0  0  0  0  0  0  0  0  0  0  # atno 6909 bound_to 6896
  145.2301  139.2823  143.4172 H   0  0  0  0  0  0  0  0  0  0  0  0  # atno 7974 bound_to 7965
  154.4313  140.1082  156.5973 H   0  0  0  0  0  0  0  0  0  0  0  0  # atno 8008 bound_to 7997
  155.5948  140.3492  155.4558 H   0  0  0  0  0  0  0  0  0  0  0  0  # atno 8009 bound_to 7997
  156.0219  140.1241  157.0338 H   0  0  0  0  0  0  0  0  0  0  0  0  # atno 8010 bound_to 7997
  139.7361  144.7023  151.0646 H   0  0  0  0  0  0  0  0  0  0  0  0  # atno 10167 bound_to 10162
  157.4880  131.1089  150.9594 H   0  0  0  0  0  0  0  0  0  0  0  0  # atno 10718 bound_to 10713
  154.8020  135.3246  154.7525 H   0  0  0  0  0  0  0  0  0  0  0  0  # atno 10763 bound_to 10752
  153.8192  135.6889  153.4834 H   0  0  0  0  0  0  0  0  0  0  0  0  # atno 10764 bound_to 10752
  153.1743  135.4611  154.9887 H   0  0  0  0  0  0  0  0  0  0  0  0  # atno 10765 bound_to 10752
  140.0036  134.6403  155.9890 H   0  0  0  0  0  0  0  0  0  0  0  0  # atno 11005 bound_to 11000
  146.3355  140.2634  142.8603 LP  0  0  0  0  0  0  0  0  0  0  0  0  # atno 17320 bound_to 7965
  144.9684  140.8344  143.5470 LP  0  0  0  0  0  0  0  0  0  0  0  0  # atno 17321 bound_to 7965
  140.7779  143.4982  150.9805 LP  0  0  0  0  0  0  0  0  0  0  0  0  # atno 17342 bound_to 10162
  139.8670  143.7241  152.3169 LP  0  0  0  0  0  0  0  0  0  0  0  0  # atno 17343 bound_to 10162
  157.0305  130.5709  149.5342 LP  0  0  0  0  0  0  0  0  0  0  0  0  # atno 17370 bound_to 10713
  156.0158  130.5252  150.8129 LP  0  0  0  0  0  0  0  0  0  0  0  0  # atno 17371 bound_to 10713
  141.1661  133.6537  156.4483 LP  0  0  0  0  0  0  0  0  0  0  0  0  # atno 17394 bound_to 11000
  140.4681  134.6778  157.5117 LP  0  0  0  0  0  0  0  0  0  0  0  0  # atno 17395 bound_to 11000

$$$$
