AV-unprocessed.smi:3313|AV-procd|sdf|12730|dock10
  -GOLD-   2272019 73D 1   1.00000     0.00000
 Structure written by MMmdl.
 43 43  0  0  0  0  0  0  0  0  2 V2000
  151.0315  141.1232  156.2981 C   0  0  0  0  0  0  0  0  0  0  0  0
  150.5852  142.1898  157.3119 C   0  0  1  0  0  0  0  0  0  0  0  0
  151.4847  143.4380  157.2212 C   0  0  0  0  0  0  0  0  0  0  0  0
  151.7244  144.0428  158.5197 N   0  0  0  0  0  0  0  0  0  0  0  0
  151.5382  145.3552  158.8999 C   0  0  0  0  0  0  0  0  0  0  0  0
  151.9018  145.4531  160.2124 C   0  0  0  0  0  0  0  0  0  0  0  0
  152.3011  144.1304  160.5529 C   0  0  0  0  0  0  0  0  0  0  0  0
  152.1963  143.2889  159.5368 N   0  0  0  0  0  0  0  0  0  0  0  0
  149.1695  142.5638  157.0932 N   0  3  0  0  0  0  0  0  0  0  0  0
  148.3101  142.5315  158.2971 C   0  0  0  0  0  0  0  0  0  0  0  0
  146.8414  142.8603  157.9636 C   0  0  0  0  0  0  0  0  0  0  0  0
  145.8671  142.6567  159.1309 C   0  0  0  0  0  0  0  0  0  0  0  0
  145.7800  141.5617  159.6874 O   0  0  0  0  0  0  0  0  0  0  0  0
  145.1407  143.7338  159.4784 N   0  0  0  0  0  0  0  0  0  0  0  0
  144.1270  143.8497  160.5340 C   0  0  0  0  0  0  0  0  0  0  0  0
  144.8842  144.0084  161.8644 C   0  0  0  0  0  0  0  0  0  0  0  0
  143.2589  142.5752  160.6003 C   0  0  0  0  0  0  0  0  0  0  0  0
  143.2456  145.0962  160.3074 C   0  0  0  0  0  0  0  0  0  0  0  0
  152.0811  140.8642  156.4408 H   0  0  0  0  0  0  0  0  0  0  0  0
  150.9149  141.4774  155.2730 H   0  0  0  0  0  0  0  0  0  0  0  0
  150.4588  140.2017  156.3994 H   0  0  0  0  0  0  0  0  0  0  0  0
  150.6843  141.7769  158.3172 H   0  0  0  0  0  0  0  0  0  0  0  0
  152.4531  143.1716  156.7951 H   0  0  0  0  0  0  0  0  0  0  0  0
  151.0488  144.1843  156.5547 H   0  0  0  0  0  0  0  0  0  0  0  0
  151.1671  146.1018  158.2130 H   0  0  0  0  0  0  0  0  0  0  0  0
  151.8833  146.3347  160.8358 H   0  0  0  0  0  0  0  0  0  0  0  0
  152.6619  143.7598  161.5011 H   0  0  0  0  0  0  0  0  0  0  0  0
  149.1578  143.5101  156.7389 H   0  0  0  0  0  0  0  0  0  0  0  0
  148.3723  141.5551  158.7778 H   0  0  0  0  0  0  0  0  0  0  0  0
  148.6856  143.2591  159.0176 H   0  0  0  0  0  0  0  0  0  0  0  0
  146.7681  143.8998  157.6425 H   0  0  0  0  0  0  0  0  0  0  0  0
  146.5163  142.2521  157.1179 H   0  0  0  0  0  0  0  0  0  0  0  0
  145.3063  144.5774  158.9484 H   0  0  0  0  0  0  0  0  0  0  0  0
  144.1955  144.1050  162.7045 H   0  0  0  0  0  0  0  0  0  0  0  0
  145.5185  144.8958  161.8589 H   0  0  0  0  0  0  0  0  0  0  0  0
  145.5243  143.1479  162.0640 H   0  0  0  0  0  0  0  0  0  0  0  0
  143.8728  141.6826  160.7267 H   0  0  0  0  0  0  0  0  0  0  0  0
  142.6587  142.4385  159.7007 H   0  0  0  0  0  0  0  0  0  0  0  0
  142.5661  142.6168  161.4412 H   0  0  0  0  0  0  0  0  0  0  0  0
  142.5524  145.2415  161.1365 H   0  0  0  0  0  0  0  0  0  0  0  0
  142.6449  145.0165  159.4016 H   0  0  0  0  0  0  0  0  0  0  0  0
  143.8497  146.0005  160.2248 H   0  0  0  0  0  0  0  0  0  0  0  0
  148.7763  141.9557  156.3885 H   0  0  0  0  0  0  0  0  0  0  0  0
  1  2  1  0  0  0  0
  1 19  1  0  0  0  0
  1 20  1  0  0  0  0
  1 21  1  0  0  0  0
  2  3  1  0  0  0  0
  2  9  1  0  0  0  0
  2 22  1  0  0  0  0
  3  4  1  0  0  0  0
  3 23  1  0  0  0  0
  3 24  1  0  0  0  0
  4  8  1  0  0  0  0
  4  5  1  0  0  0  0
  5  6  2  0  0  0  0
  5 25  1  0  0  0  0
  6  7  1  0  0  0  0
  6 26  1  0  0  0  0
  7  8  2  0  0  0  0
  7 27  1  0  0  0  0
  9 10  1  0  0  0  0
  9 28  1  0  0  0  0
  9 43  1  0  0  0  0
 10 11  1  0  0  0  0
 10 29  1  0  0  0  0
 10 30  1  0  0  0  0
 11 12  1  0  0  0  0
 11 31  1  0  0  0  0
 11 32  1  0  0  0  0
 12 13  2  0  0  0  0
 12 14  1  0  0  0  0
 14 15  1  0  0  0  0
 14 33  1  0  0  0  0
 15 16  1  0  0  0  0
 15 17  1  0  0  0  0
 15 18  1  0  0  0  0
 16 34  1  0  0  0  0
 16 35  1  0  0  0  0
 16 36  1  0  0  0  0
 17 37  1  0  0  0  0
 17 38  1  0  0  0  0
 17 39  1  0  0  0  0
 18 40  1  0  0  0  0
 18 41  1  0  0  0  0
 18 42  1  0  0  0  0
M  CHG  1   9   1
M  END
> <s_m_source_file>
AV-unprocessed.smi

> <i_m_source_file_index>
3313

> <i_lp_mmshare_version>
43012

> <i_f3d_flags>
0

> <s_epik_input>
bjFbY0hdW2NIXVtjSF1uMVtDSDJdW0NAQEhdKFtDSDNdKVtOSF1bQ0gyXVtDSDJdQyg9TylbTkhdQyhbQ0gzXSkoW0NIM10pW0NIM10=

> <s_epik_cmdline>
J2VwaWtfcHl0aG9uJywgJy1waCcsICc3LjAnLCAnLXRuJywgJzgnLCAnLW1hJywgJzIwMCcsICctbWV0YWxfYmluZGluZycsICctaW1hZScsICc8aW5maWxlLm1hZT4nLCAnLW9tYWUnLCAnPG91dGZpbGUubWFlPic=

> <r_lp_tautomer_probability>
1

> <r_epik_Ionization_Penalty>
0.0056766

> <r_epik_Ionization_Penalty_Charging>
0.00567288

> <r_epik_Ionization_Penalty_Neutral>
3.71277e-06

> <r_epik_State_Penalty>
0.0041598

> <r_epik_Charging_Adjusted_Penalty>
0.00983268

> <i_epik_Tot_Q>
1

> <i_epik_Tot_abs_Q>
1

> <r_epik_Metal_State_Penalty>
-0

> <b_epik_Metal_Only>
0

> <s_lp_Force_Field>
OPLS_2005

> <r_lp_Energy>
4.0528

> <b_lp_Chiralities_Consistent>
1

> <s_lp_Variant>
AV-unprocessed.smi:3313-2

> <Gold.Version>
5.8.1

> <Gold.Id.Protein>
6NUR|6NUR_protein|mol2

> <Gold.PLP.Fitness>
41.9505

> <Gold.PLP.PLP>
-36.1394

> <Gold.PLP.part.hbond>
-2.0000

> <Gold.PLP.part.metal>
0.0000

> <Gold.PLP.part.buried>
-6.3625

> <Gold.PLP.part.nonpolar>
-28.1229

> <Gold.PLP.part.repulsive>
0.0333

> <Gold.PLP.ligand.clash>
0.0000

> <Gold.PLP.ligand.torsion>
1.6384

> <Gold.PLP.Chemscore.Hbond>
3.0000

> <Gold.PLP.Chemscore.CHOScore>
0.0000

> <Gold.PLP.Chemscore.Metal>
0.0000

> <Gold.Chemscore.Hbonds>
donor molecule, donor type, donor heavy atom, donor atom, acceptor molecule, acceptor atom, score
      L1  H     9    28       P1  8028  2.00
      P1  H  6934  6946       L1    13  1.00

> <Gold.PLP.Chemscore.Internal.Correction>
0.0879

> <Gold.Rescore>
     Score         DG    S(hbond)    S(metal)    S(lipo)     H(rot)  DE(clash)    DE(int)     intcor
     13.32     -16.06       1.85        0.00      85.75       2.20       0.01       2.73       ----

> <Gold.Chemscore.Fitness>
13.3187

> <Gold.Chemscore.DG>
-16.0568

> <Gold.Chemscore.ZeroCoef>
-5.4800

> <Gold.Chemscore.Hbond>
1.8513

> <Gold.Chemscore.Metal>
0.0000

> <Gold.Chemscore.Lipo>
85.7460

> <Gold.Chemscore.Internal_Hbond>
0.0000

> <Gold.Chemscore.DEClash>
0.0089

> <Gold.Chemscore.DEInternal>
2.7292

> <Gold.Chemscore.Rot>
2.2027

> <Gold.Chemscore.Internal.Correction>
   9.000000E+99

> <Gold.Chemscore.Hbonds>
donor molecule, donor type, donor heavy atom, donor atom, acceptor molecule, acceptor atom, score
      L1  H     9    28       P1  8028  0.91
      P1  H  6934  6946       L1    13  0.97

> <Gold.Chemscore.Hbond.Weighted>
-6.1835

> <Gold.Chemscore.Metal.Weighted>
-0.0000

> <Gold.Chemscore.Lipo.Weighted>
-10.0323

> <Gold.Chemscore.Internal_Hbond.Weighted>
0.0000

> <Gold.Chemscore.DEClash.Weighted>
0.0089

> <Gold.Chemscore.DEInternal.Weighted>
2.7292

> <Gold.Chemscore.Rot.Weighted>
5.6390

> <Gold.Chemscore.Internal.Correction.Weighted>
   9.000000E+99

> <Gold.Protein.RotatedTorsions>
[ 6907 6896 6895 6894 ] final  171.34 input  -60.11 | X-H torsion
[ 7974 7965 7964 7962 ] final -140.95 input  175.53 | X-H torsion
[ 8008 7997 7996 7995 ] final  -71.02 input   59.86 | X-H torsion
[ 10167 10162 10161 10158 ] final   10.43 input  -65.29 | X-H torsion
[ 10718 10713 10712 10709 ] final  155.91 input   66.30 | X-H torsion
[ 10763 10752 10751 10750 ] final  128.02 input  -60.55 | X-H torsion
[ 11005 11000 10999 10996 ] final  160.81 input  -57.11 | X-H torsion

> <Gold.Protein.ActiveResidues>
 VAL166  LYS551  ARG553  GLY616  TRP617  ASP618  TYR619  PRO620  LYS621  CYS622 
 ASP623  PHE694  ASN695  SER759  ASP760  ASP761  ALA762  ILE779  LEU786  VAL792 
 PHE793  MET794  SER795  GLU796  ALA797  LYS798  CYS799  TRP800  GLU811  SER814 

> <Gold.Protein.RotatedAtoms>
  151.8017  133.3371  159.3528 H   0  0  0  0  0  0  0  0  0  0  0  0  # atno 6907 bound_to 6896
  150.7356  134.5747  159.5918 H   0  0  0  0  0  0  0  0  0  0  0  0  # atno 6908 bound_to 6896
  152.3138  134.7466  160.0381 H   0  0  0  0  0  0  0  0  0  0  0  0  # atno 6909 bound_to 6896
  144.8557  140.6138  143.5361 H   0  0  0  0  0  0  0  0  0  0  0  0  # atno 7974 bound_to 7965
  154.5056  140.0823  156.7887 H   0  0  0  0  0  0  0  0  0  0  0  0  # atno 8008 bound_to 7997
  155.3902  140.3432  155.4233 H   0  0  0  0  0  0  0  0  0  0  0  0  # atno 8009 bound_to 7997
  156.1511  140.1558  156.8756 H   0  0  0  0  0  0  0  0  0  0  0  0  # atno 8010 bound_to 7997
  140.6195  143.8236  150.7158 H   0  0  0  0  0  0  0  0  0  0  0  0  # atno 10167 bound_to 10162
  157.2121  131.0700  151.1963 H   0  0  0  0  0  0  0  0  0  0  0  0  # atno 10718 bound_to 10713
  153.7188  135.3256  155.3262 H   0  0  0  0  0  0  0  0  0  0  0  0  # atno 10763 bound_to 10752
  154.8362  135.4494  154.1238 H   0  0  0  0  0  0  0  0  0  0  0  0  # atno 10764 bound_to 10752
  153.2353  135.6964  153.7924 H   0  0  0  0  0  0  0  0  0  0  0  0  # atno 10765 bound_to 10752
  140.2095  134.8278  157.3106 H   0  0  0  0  0  0  0  0  0  0  0  0  # atno 11005 bound_to 11000
  145.4411  139.1535  143.3970 LP  0  0  0  0  0  0  0  0  0  0  0  0  # atno 17320 bound_to 7965
  146.2821  140.4532  142.8772 LP  0  0  0  0  0  0  0  0  0  0  0  0  # atno 17321 bound_to 7965
  140.1823  143.4105  152.1924 LP  0  0  0  0  0  0  0  0  0  0  0  0  # atno 17342 bound_to 10162
  139.5426  144.7270  151.4684 LP  0  0  0  0  0  0  0  0  0  0  0  0  # atno 17343 bound_to 10162
  157.3662  130.7157  149.6534 LP  0  0  0  0  0  0  0  0  0  0  0  0  # atno 17370 bound_to 10713
  155.9690  130.4211  150.4456 LP  0  0  0  0  0  0  0  0  0  0  0  0  # atno 17371 bound_to 10713
  140.1966  134.4306  155.7686 LP  0  0  0  0  0  0  0  0  0  0  0  0  # atno 17394 bound_to 11000
  141.2226  133.7052  156.8114 LP  0  0  0  0  0  0  0  0  0  0  0  0  # atno 17395 bound_to 11000

$$$$
