AV-unprocessed.smi:34|AV-procd|sdf|241|dock6
  -GOLD-   2262015593D 1   1.00000     0.00000
 Structure written by MMmdl.
 54 58  0  0  0  0  0  0  0  0  2 V2000
  150.0453  140.6251  157.2893 O   0  0  0  0  0  0  0  0  0  0  0  0
  151.2555  140.8606  157.2846 C   0  0  0  0  0  0  0  0  0  0  0  0
  152.2417  140.1344  156.6994 N   0  5  0  0  0  0  0  0  0  0  0  0
  152.1216  138.8018  156.6002 C   0  0  0  0  0  0  0  0  0  0  0  0
  153.0864  137.9887  157.1017 N   0  0  0  0  0  0  0  0  0  0  0  0
  152.9700  136.6591  157.0026 C   0  0  0  0  0  0  0  0  0  0  0  0
  151.9885  135.9398  156.4484 N   0  0  0  0  0  0  0  0  0  0  0  0
  151.0178  136.7486  155.9329 C   0  0  0  0  0  0  0  0  0  0  0  0
  151.0157  138.1725  155.9648 C   0  0  0  0  0  0  0  0  0  0  0  0
  149.8803  138.6741  155.3455 N   0  0  0  0  0  0  0  0  0  0  0  0
  149.2562  137.5562  154.9791 C   0  0  0  0  0  0  0  0  0  0  0  0
  149.8464  136.3841  155.2939 N   0  0  0  0  0  0  0  0  0  0  0  0
  149.3967  134.9836  155.0090 C   0  0  2  0  0  0  0  0  0  0  0  0
  148.1629  135.0268  154.3486 O   0  0  0  0  0  0  0  0  0  0  0  0
  147.1299  134.4727  155.1592 C   0  0  2  0  0  0  0  0  0  0  0  0
  146.3980  135.5963  155.9117 C   0  0  0  0  0  0  0  0  0  0  0  0
  146.5493  135.4040  157.3086 O   0  0  0  0  0  0  0  0  0  0  0  0
  146.4611  136.4528  158.1488 C   0  0  0  0  0  0  0  0  0  0  0  0
  146.4353  137.6269  157.7742 O   0  0  0  0  0  0  0  0  0  0  0  0
  146.4004  136.0433  159.5818 C   0  0  0  0  0  0  0  0  0  0  0  0
  146.4311  134.6681  159.9119 C   0  0  0  0  0  0  0  0  0  0  0  0
  146.3709  134.2514  161.2560 C   0  0  0  0  0  0  0  0  0  0  0  0
  146.2794  135.2048  162.2867 C   0  0  0  0  0  0  0  0  0  0  0  0
  146.2482  136.5758  161.9716 C   0  0  0  0  0  0  0  0  0  0  0  0
  146.3083  136.9945  160.6280 C   0  0  0  0  0  0  0  0  0  0  0  0
  147.8642  133.4887  156.0716 C   0  0  1  0  0  0  0  0  0  0  0  0
  148.0274  132.3305  155.4299 F   0  0  0  0  0  0  0  0  0  0  0  0
  149.2183  134.1396  156.2917 C   0  0  2  0  0  0  0  0  0  0  0  0
  149.2220  134.8810  157.4996 O   0  0  0  0  0  0  0  0  0  0  0  0
  151.7660  142.0477  158.0579 C   0  0  0  0  0  0  0  0  0  0  0  0
  152.3719  141.8525  159.3203 C   0  0  0  0  0  0  0  0  0  0  0  0
  152.8308  142.9510  160.0729 C   0  0  0  0  0  0  0  0  0  0  0  0
  152.6819  144.2586  159.5747 C   0  0  0  0  0  0  0  0  0  0  0  0
  152.0692  144.4670  158.3252 C   0  0  0  0  0  0  0  0  0  0  0  0
  151.6087  143.3692  157.5726 C   0  0  0  0  0  0  0  0  0  0  0  0
  153.7802  136.0885  157.4316 H   0  0  0  0  0  0  0  0  0  0  0  0
  148.3157  137.5980  154.4507 H   0  0  0  0  0  0  0  0  0  0  0  0
  150.1578  134.5871  154.3357 H   0  0  0  0  0  0  0  0  0  0  0  0
  146.4139  133.9535  154.5208 H   0  0  0  0  0  0  0  0  0  0  0  0
  146.7847  136.5745  155.6247 H   0  0  0  0  0  0  0  0  0  0  0  0
  145.3368  135.5789  155.6602 H   0  0  0  0  0  0  0  0  0  0  0  0
  146.5000  133.9177  159.1373 H   0  0  0  0  0  0  0  0  0  0  0  0
  146.3944  133.1985  161.4956 H   0  0  0  0  0  0  0  0  0  0  0  0
  146.2326  134.8849  163.3172 H   0  0  0  0  0  0  0  0  0  0  0  0
  146.1776  137.3089  162.7617 H   0  0  0  0  0  0  0  0  0  0  0  0
  146.2805  138.0544  160.4212 H   0  0  0  0  0  0  0  0  0  0  0  0
  147.3294  133.2607  156.9947 H   0  0  0  0  0  0  0  0  0  0  0  0
  150.0165  133.3989  156.3513 H   0  0  0  0  0  0  0  0  0  0  0  0
  148.4190  135.3780  157.5484 H   0  0  0  0  0  0  0  0  0  0  0  0
  152.4920  140.8554  159.7186 H   0  0  0  0  0  0  0  0  0  0  0  0
  153.2956  142.7890  161.0340 H   0  0  0  0  0  0  0  0  0  0  0  0
  153.0331  145.1009  160.1520 H   0  0  0  0  0  0  0  0  0  0  0  0
  151.9477  145.4703  157.9440 H   0  0  0  0  0  0  0  0  0  0  0  0
  151.1304  143.5532  156.6213 H   0  0  0  0  0  0  0  0  0  0  0  0
  1  2  2  0  0  0  0
  2  3  1  0  0  0  0
  2 30  1  0  0  0  0
  3  4  1  0  0  0  0
  4  9  1  0  0  0  0
  4  5  2  0  0  0  0
  5  6  1  0  0  0  0
  6  7  2  0  0  0  0
  6 36  1  0  0  0  0
  7  8  1  0  0  0  0
  8 12  1  0  0  0  0
  8  9  2  0  0  0  0
  9 10  1  0  0  0  0
 10 11  2  0  0  0  0
 11 12  1  0  0  0  0
 11 37  1  0  0  0  0
 12 13  1  0  0  0  0
 13 28  1  0  0  0  0
 13 14  1  0  0  0  0
 13 38  1  0  0  0  0
 14 15  1  0  0  0  0
 15 16  1  0  0  0  0
 15 26  1  0  0  0  0
 15 39  1  0  0  0  0
 16 17  1  0  0  0  0
 16 40  1  0  0  0  0
 16 41  1  0  0  0  0
 17 18  1  0  0  0  0
 18 19  2  0  0  0  0
 18 20  1  0  0  0  0
 20 25  1  0  0  0  0
 20 21  2  0  0  0  0
 21 22  1  0  0  0  0
 21 42  1  0  0  0  0
 22 23  2  0  0  0  0
 22 43  1  0  0  0  0
 23 24  1  0  0  0  0
 23 44  1  0  0  0  0
 24 25  2  0  0  0  0
 24 45  1  0  0  0  0
 25 46  1  0  0  0  0
 26 27  1  0  0  0  0
 26 28  1  0  0  0  0
 26 47  1  0  0  0  0
 28 29  1  0  0  0  0
 28 48  1  0  0  0  0
 29 49  1  0  0  0  0
 30 35  1  0  0  0  0
 30 31  2  0  0  0  0
 31 32  1  0  0  0  0
 31 50  1  0  0  0  0
 32 33  2  0  0  0  0
 32 51  1  0  0  0  0
 33 34  1  0  0  0  0
 33 52  1  0  0  0  0
 34 35  2  0  0  0  0
 34 53  1  0  0  0  0
 35 54  1  0  0  0  0
M  CHG  1   3  -1
M  END
> <s_m_source_file>
AV-unprocessed.smi

> <i_m_source_file_index>
34

> <i_lp_mmshare_version>
43012

> <i_f3d_flags>
0

> <s_epik_input>
W2NIXTFbY0hdW2NIXVtjSF1bY0hdYzFDKD1PKVtOSF1jKG5bY0hdbjIpYyhjMjMpbltjSF1uM1tDQEBIXTRPW0NASF0oW0NAQEhdKEYpW0NASF00W09IXSlbQ0gyXU9DKD1PKWM1W2NIXVtjSF1bY0hdW2NIXVtjSF01

> <s_epik_cmdline>
J2VwaWtfcHl0aG9uJywgJy1waCcsICc3LjAnLCAnLXRuJywgJzgnLCAnLW1hJywgJzIwMCcsICctbWV0YWxfYmluZGluZycsICctaW1hZScsICc8aW5maWxlLm1hZT4nLCAnLW9tYWUnLCAnPG91dGZpbGUubWFlPic=

> <r_lp_tautomer_probability>
1

> <r_epik_Ionization_Penalty>
4.33227

> <r_epik_Ionization_Penalty_Charging>
3.41027

> <r_epik_Ionization_Penalty_Neutral>
0.922001

> <r_epik_State_Penalty>
3.41358

> <r_epik_Charging_Adjusted_Penalty>
6.82385

> <i_epik_Tot_Q>
-1

> <i_epik_Tot_abs_Q>
1

> <r_epik_Metal_State_Penalty>
0.496292

> <b_epik_Metal_Only>
1

> <s_epik_Chemistry_Notes>
This compound has an ester and may undergo hydrolysis at high or low pH. This compound contains an acetal/aminal-like group ( X-CH(R)-Y where X, Y are N, S, or O) that may be acid/base labile, releasing an aldehyde.

> <s_lp_Force_Field>
OPLS_2005

> <r_lp_Energy>
50.7645

> <b_lp_Chiralities_Consistent>
1

> <s_lp_Variant>
AV-unprocessed.smi:34-27

> <Gold.Version>
5.8.1

> <Gold.Id.Protein>
6NUR|6NUR_protein|mol2

> <Gold.PLP.Fitness>
51.9967

> <Gold.PLP.PLP>
-50.0659

> <Gold.PLP.part.hbond>
-3.6765

> <Gold.PLP.part.metal>
0.0000

> <Gold.PLP.part.buried>
-5.1900

> <Gold.PLP.part.nonpolar>
-42.1129

> <Gold.PLP.part.repulsive>
0.1773

> <Gold.PLP.ligand.clash>
0.0000

> <Gold.PLP.ligand.torsion>
3.1388

> <Gold.PLP.Chemscore.Hbond>
2.5740

> <Gold.PLP.Chemscore.CHOScore>
0.0000

> <Gold.PLP.Chemscore.Metal>
0.0000

> <Gold.Chemscore.Hbonds>
donor molecule, donor type, donor heavy atom, donor atom, acceptor molecule, acceptor atom, score
      P1  H  7997  8010       L1     3  1.19
      P1  H 10752 10764       L1     7  0.60

> <Gold.PLP.Chemscore.Internal.Correction>
0.4864

> <Gold.Rescore>
     Score         DG    S(hbond)    S(metal)    S(lipo)     H(rot)  DE(clash)    DE(int)     intcor
      8.55     -16.64       0.98        0.00     126.35       2.69       0.02       8.07       ----

> <Gold.Chemscore.Fitness>
8.5468

> <Gold.Chemscore.DG>
-16.6362

> <Gold.Chemscore.ZeroCoef>
-5.4800

> <Gold.Chemscore.Hbond>
0.9791

> <Gold.Chemscore.Metal>
0.0000

> <Gold.Chemscore.Lipo>
126.3547

> <Gold.Chemscore.Internal_Hbond>
0.0000

> <Gold.Chemscore.DEClash>
0.0155

> <Gold.Chemscore.DEInternal>
8.0739

> <Gold.Chemscore.Rot>
2.6944

> <Gold.Chemscore.Internal.Correction>
   9.000000E+99

> <Gold.Chemscore.Hbonds>
donor molecule, donor type, donor heavy atom, donor atom, acceptor molecule, acceptor atom, score
      P1  H  6896  6908       L1    29  0.04
      P1  H  7997  8010       L1     3  0.07
      P1  H 10752 10764       L1     7  0.02

> <Gold.Chemscore.Hbond.Weighted>
-3.2702

> <Gold.Chemscore.Metal.Weighted>
-0.0000

> <Gold.Chemscore.Lipo.Weighted>
-14.7835

> <Gold.Chemscore.Internal_Hbond.Weighted>
0.0000

> <Gold.Chemscore.DEClash.Weighted>
0.0155

> <Gold.Chemscore.DEInternal.Weighted>
8.0739

> <Gold.Chemscore.Rot.Weighted>
6.8975

> <Gold.Chemscore.Internal.Correction.Weighted>
   9.000000E+99

> <Gold.Protein.RotatedTorsions>
[ 6907 6896 6895 6894 ] final  144.92 input  -60.11 | X-H torsion
[ 7974 7965 7964 7962 ] final  -78.84 input  175.53 | X-H torsion
[ 8008 7997 7996 7995 ] final   73.77 input   59.86 | X-H torsion
[ 10167 10162 10161 10158 ] final  -17.49 input  -65.29 | X-H torsion
[ 10718 10713 10712 10709 ] final  114.48 input   66.30 | X-H torsion
[ 10763 10752 10751 10750 ] final  -38.50 input  -60.55 | X-H torsion
[ 11005 11000 10999 10996 ] final  -85.39 input  -57.11 | X-H torsion

> <Gold.Protein.ActiveResidues>
 VAL166  LYS551  ARG553  GLY616  TRP617  ASP618  TYR619  PRO620  LYS621  CYS622 
 ASP623  PHE694  ASN695  SER759  ASP760  ASP761  ALA762  ILE779  LEU786  VAL792 
 PHE793  MET794  SER795  GLU796  ALA797  LYS798  CYS799  TRP800  GLU811  SER814 

> <Gold.Protein.RotatedAtoms>
  152.1876  133.4750  159.4990 H   0  0  0  0  0  0  0  0  0  0  0  0  # atno 6907 bound_to 6896
  150.6945  134.1754  159.4237 H   0  0  0  0  0  0  0  0  0  0  0  0  # atno 6908 bound_to 6896
  151.9668  135.0096  160.0601 H   0  0  0  0  0  0  0  0  0  0  0  0  # atno 6909 bound_to 6896
  145.5812  140.9448  143.1343 H   0  0  0  0  0  0  0  0  0  0  0  0  # atno 7974 bound_to 7965
  155.7885  140.3480  155.5336 H   0  0  0  0  0  0  0  0  0  0  0  0  # atno 8008 bound_to 7997
  155.8657  140.0978  157.1604 H   0  0  0  0  0  0  0  0  0  0  0  0  # atno 8009 bound_to 7997
  154.4014  140.1350  156.4004 H   0  0  0  0  0  0  0  0  0  0  0  0  # atno 8010 bound_to 7997
  140.7248  143.5010  150.9869 H   0  0  0  0  0  0  0  0  0  0  0  0  # atno 10167 bound_to 10162
  157.6279  131.0999  150.7192 H   0  0  0  0  0  0  0  0  0  0  0  0  # atno 10718 bound_to 10713
  153.9139  135.6789  153.4750 H   0  0  0  0  0  0  0  0  0  0  0  0  # atno 10763 bound_to 10752
  153.1064  135.4803  154.8956 H   0  0  0  0  0  0  0  0  0  0  0  0  # atno 10764 bound_to 10752
  154.7513  135.3185  154.8508 H   0  0  0  0  0  0  0  0  0  0  0  0  # atno 10765 bound_to 10752
  141.1641  133.7397  156.9008 H   0  0  0  0  0  0  0  0  0  0  0  0  # atno 11005 bound_to 11000
  144.7393  139.7495  143.7317 LP  0  0  0  0  0  0  0  0  0  0  0  0  # atno 17320 bound_to 7965
  146.1715  139.4867  142.9925 LP  0  0  0  0  0  0  0  0  0  0  0  0  # atno 17321 bound_to 7965
  139.8720  143.7181  152.3165 LP  0  0  0  0  0  0  0  0  0  0  0  0  # atno 17342 bound_to 10162
  139.7433  144.7554  151.0619 LP  0  0  0  0  0  0  0  0  0  0  0  0  # atno 17343 bound_to 10162
  156.7537  130.4776  149.5451 LP  0  0  0  0  0  0  0  0  0  0  0  0  # atno 17370 bound_to 10713
  156.1462  130.6279  151.0534 LP  0  0  0  0  0  0  0  0  0  0  0  0  # atno 17371 bound_to 10713
  140.1584  134.9183  157.2683 LP  0  0  0  0  0  0  0  0  0  0  0  0  # atno 17394 bound_to 11000
  140.2641  134.3537  155.7396 LP  0  0  0  0  0  0  0  0  0  0  0  0  # atno 17395 bound_to 11000

$$$$
