AV-unprocessed.smi:221|AV-procd|sdf|1694|dock2
  -GOLD-   2262020143D 1   1.00000     0.00000
 Structure written by MMmdl.
 50 53  0  0  0  0  0  0  0  0  1 V2000
  148.9545  136.2641  154.4338 N   0  0  0  0  0  0  0  0  0  0  0  0
  148.0137  136.8789  155.1544 C   0  0  0  0  0  0  0  0  0  0  0  0
  147.3458  136.2853  155.9995 O   0  0  0  0  0  0  0  0  0  0  0  0
  147.8135  138.3791  154.8949 C   0  0  2  0  0  0  0  0  0  0  0  0
  146.5389  138.6555  154.0866 C   0  0  0  0  0  0  0  0  0  0  0  0
  146.8234  140.0093  153.4456 C   0  0  1  0  0  0  0  0  0  0  0  0
  146.5611  140.9813  154.3205 F   0  0  0  0  0  0  0  0  0  0  0  0
  148.3282  139.9603  153.1706 C   0  0  0  0  0  0  0  0  0  0  0  0
  148.8796  138.9484  154.0679 N   0  0  0  0  0  0  0  0  0  0  0  0
  150.0100  139.2980  154.7207 C   0  0  0  0  0  0  0  0  0  0  0  0
  151.1477  138.6433  154.3833 N   0  0  0  0  0  0  0  0  0  0  0  0
  152.2960  138.9402  154.9997 C   0  0  0  0  0  0  0  0  0  0  0  0
  152.5206  139.8395  155.9608 N   0  0  0  0  0  0  0  0  0  0  0  0
  151.3753  140.4983  156.2999 C   0  0  0  0  0  0  0  0  0  0  0  0
  150.0863  140.2947  155.7336 C   0  0  0  0  0  0  0  0  0  0  0  0
  149.1655  141.1499  156.3271 N   0  0  0  0  0  0  0  0  0  0  0  0
  149.8700  141.8190  157.1984 C   0  0  0  0  0  0  0  0  0  0  0  0
  151.2046  141.4855  157.2534 N   0  0  0  0  0  0  0  0  0  0  0  0
  152.2121  142.0585  158.1272 C   0  0  0  0  0  0  0  0  0  0  0  0
  151.6943  143.2486  158.9722 C   0  0  2  0  0  0  0  0  0  0  0  0
  151.4473  144.5274  158.1304 C   0  0  0  0  0  0  0  0  0  0  0  0
  150.3823  145.2961  158.6512 O   0  0  0  0  0  0  0  0  0  0  0  0
  152.6326  143.4837  160.1836 C   0  0  1  0  0  0  0  0  0  0  0  0
  151.9874  144.0975  161.4212 C   0  0  0  0  0  0  0  0  0  0  0  0
  152.8835  143.5819  162.5382 C   0  0  0  0  0  0  0  0  0  0  0  0
  153.1448  142.2472  162.1380 O   0  0  0  0  0  0  0  0  0  0  0  0
  153.3398  142.2294  160.7277 C   0  0  0  0  0  0  0  0  0  0  0  0
  147.7551  138.9086  155.8479 H   0  0  0  0  0  0  0  0  0  0  0  0
  146.2274  140.2012  152.5530 H   0  0  0  0  0  0  0  0  0  0  0  0
  149.1203  135.2770  154.5663 H   0  0  0  0  0  0  0  0  0  0  0  0
  149.4934  136.7852  153.7576 H   0  0  0  0  0  0  0  0  0  0  0  0
  146.4027  137.9055  153.3051 H   0  0  0  0  0  0  0  0  0  0  0  0
  145.6395  138.6630  154.7033 H   0  0  0  0  0  0  0  0  0  0  0  0
  148.5090  139.6241  152.1491 H   0  0  0  0  0  0  0  0  0  0  0  0
  148.7913  140.9434  153.2726 H   0  0  0  0  0  0  0  0  0  0  0  0
  153.1580  138.3753  154.6771 H   0  0  0  0  0  0  0  0  0  0  0  0
  149.4303  142.5728  157.8352 H   0  0  0  0  0  0  0  0  0  0  0  0
  152.5756  141.2625  158.7782 H   0  0  0  0  0  0  0  0  0  0  0  0
  153.0608  142.3691  157.5169 H   0  0  0  0  0  0  0  0  0  0  0  0
  150.7356  142.9499  159.3999 H   0  0  0  0  0  0  0  0  0  0  0  0
  152.3262  145.1705  158.1183 H   0  0  0  0  0  0  0  0  0  0  0  0
  151.2316  144.2751  157.0918 H   0  0  0  0  0  0  0  0  0  0  0  0
  149.6345  145.1992  158.0813 H   0  0  0  0  0  0  0  0  0  0  0  0
  153.4256  144.1626  159.8652 H   0  0  0  0  0  0  0  0  0  0  0  0
  151.9446  145.1863  161.3831 H   0  0  0  0  0  0  0  0  0  0  0  0
  150.9750  143.7249  161.5735 H   0  0  0  0  0  0  0  0  0  0  0  0
  153.8182  144.1431  162.5823 H   0  0  0  0  0  0  0  0  0  0  0  0
  152.4062  143.6236  163.5175 H   0  0  0  0  0  0  0  0  0  0  0  0
  152.9553  141.2981  160.3121 H   0  0  0  0  0  0  0  0  0  0  0  0
  154.4074  142.2676  160.5071 H   0  0  0  0  0  0  0  0  0  0  0  0
  1  2  1  0  0  0  0
  1 30  1  0  0  0  0
  1 31  1  0  0  0  0
  2  3  2  0  0  0  0
  2  4  1  0  0  0  0
  4 28  1  0  0  0  0
  4  9  1  0  0  0  0
  4  5  1  0  0  0  0
  5  6  1  0  0  0  0
  5 32  1  0  0  0  0
  5 33  1  0  0  0  0
  6 29  1  0  0  0  0
  6  7  1  0  0  0  0
  6  8  1  0  0  0  0
  8  9  1  0  0  0  0
  8 34  1  0  0  0  0
  8 35  1  0  0  0  0
  9 10  1  0  0  0  0
 10 15  1  0  0  0  0
 10 11  2  0  0  0  0
 11 12  1  0  0  0  0
 12 13  2  0  0  0  0
 12 36  1  0  0  0  0
 13 14  1  0  0  0  0
 14 18  1  0  0  0  0
 14 15  2  0  0  0  0
 15 16  1  0  0  0  0
 16 17  2  0  0  0  0
 17 18  1  0  0  0  0
 17 37  1  0  0  0  0
 18 19  1  0  0  0  0
 19 20  1  0  0  0  0
 19 38  1  0  0  0  0
 19 39  1  0  0  0  0
 20 21  1  0  0  0  0
 20 23  1  0  0  0  0
 20 40  1  0  0  0  0
 21 22  1  0  0  0  0
 21 41  1  0  0  0  0
 21 42  1  0  0  0  0
 22 43  1  0  0  0  0
 23 27  1  0  0  0  0
 23 24  1  0  0  0  0
 23 44  1  0  0  0  0
 24 25  1  0  0  0  0
 24 45  1  0  0  0  0
 24 46  1  0  0  0  0
 25 26  1  0  0  0  0
 25 47  1  0  0  0  0
 25 48  1  0  0  0  0
 26 27  1  0  0  0  0
 27 49  1  0  0  0  0
 27 50  1  0  0  0  0
M  END
> <s_m_source_file>
AV-unprocessed.smi

> <i_m_source_file_index>
221

> <i_lp_mmshare_version>
43012

> <i_f3d_flags>
0

> <s_epik_input>
W05IMl1DKD1PKVtDQEBIXTFbQ0gyXVtDQEBIXShGKVtDSDJdTjFjKG5bY0hdbjIpYyhjMjMpbltjSF1uM1tDSDJdW0NASF0oW0NIMl1bT0hdKVtDQEBIXTRbQ0gyXVtDSDJdT1tDSDJdNA==

> <s_epik_cmdline>
J2VwaWtfcHl0aG9uJywgJy1waCcsICc3LjAnLCAnLXRuJywgJzgnLCAnLW1hJywgJzIwMCcsICctbWV0YWxfYmluZGluZycsICctaW1hZScsICc8aW5maWxlLm1hZT4nLCAnLW9tYWUnLCAnPG91dGZpbGUubWFlPic=

> <r_lp_tautomer_probability>
1

> <r_epik_Ionization_Penalty>
0.000818822

> <r_epik_Ionization_Penalty_Charging>
0

> <r_epik_Ionization_Penalty_Neutral>
0.000818822

> <r_epik_State_Penalty>
0.000440551

> <r_epik_Charging_Adjusted_Penalty>
0.000440551

> <i_epik_Tot_Q>
0

> <i_epik_Tot_abs_Q>
0

> <r_epik_Metal_State_Penalty>
-0

> <b_epik_Metal_Only>
0

> <s_lp_Force_Field>
OPLS_2005

> <r_lp_Energy>
51.8706

> <b_lp_Chiralities_Consistent>
1

> <s_lp_Variant>
AV-unprocessed.smi:221-9

> <Gold.Version>
5.8.1

> <Gold.Id.Protein>
6NUR|6NUR_protein|mol2

> <Gold.PLP.Fitness>
49.5181

> <Gold.PLP.PLP>
-45.5705

> <Gold.PLP.part.hbond>
-3.0956

> <Gold.PLP.part.metal>
0.0000

> <Gold.PLP.part.buried>
-3.1365

> <Gold.PLP.part.nonpolar>
-40.7193

> <Gold.PLP.part.repulsive>
0.5179

> <Gold.PLP.ligand.clash>
0.0000

> <Gold.PLP.ligand.torsion>
1.4634

> <Gold.PLP.Chemscore.Hbond>
2.1990

> <Gold.PLP.Chemscore.CHOScore>
0.0000

> <Gold.PLP.Chemscore.Metal>
0.0000

> <Gold.Chemscore.Hbonds>
donor molecule, donor type, donor heavy atom, donor atom, acceptor molecule, acceptor atom, score
      L1  H     1    31       P1  7948  0.22
      L1  H    22    43       P1  8029  0.98
      P1  H  7997  8008       L1    13  1.00

> <Gold.PLP.Chemscore.Internal.Correction>
0.2774

> <Gold.Rescore>
     Score         DG    S(hbond)    S(metal)    S(lipo)     H(rot)  DE(clash)    DE(int)     intcor
     11.14     -13.43       1.89        0.00      95.25       3.72       0.39       1.90       ----

> <Gold.Chemscore.Fitness>
11.1395

> <Gold.Chemscore.DG>
-13.4281

> <Gold.Chemscore.ZeroCoef>
-5.4800

> <Gold.Chemscore.Hbond>
1.8946

> <Gold.Chemscore.Metal>
0.0000

> <Gold.Chemscore.Lipo>
95.2454

> <Gold.Chemscore.Internal_Hbond>
0.0000

> <Gold.Chemscore.DEClash>
0.3872

> <Gold.Chemscore.DEInternal>
1.9014

> <Gold.Chemscore.Rot>
3.7202

> <Gold.Chemscore.Internal.Correction>
   9.000000E+99

> <Gold.Chemscore.Hbonds>
donor molecule, donor type, donor heavy atom, donor atom, acceptor molecule, acceptor atom, score
      L1  H     1    31       P1  7948  0.18
      L1  H    22    43       P1  8029  0.22
      P1  H  7997  8008       L1    13  0.90

> <Gold.Chemscore.Hbond.Weighted>
-6.3281

> <Gold.Chemscore.Metal.Weighted>
-0.0000

> <Gold.Chemscore.Lipo.Weighted>
-11.1437

> <Gold.Chemscore.Internal_Hbond.Weighted>
0.0000

> <Gold.Chemscore.DEClash.Weighted>
0.3872

> <Gold.Chemscore.DEInternal.Weighted>
1.9014

> <Gold.Chemscore.Rot.Weighted>
9.5237

> <Gold.Chemscore.Internal.Correction.Weighted>
   9.000000E+99

> <Gold.Protein.RotatedTorsions>
[ 6907 6896 6895 6894 ] final  -10.89 input  -60.11 | X-H torsion
[ 7974 7965 7964 7962 ] final  114.63 input  175.53 | X-H torsion
[ 8008 7997 7996 7995 ] final  -44.71 input   59.86 | X-H torsion
[ 10167 10162 10161 10158 ] final -167.31 input  -65.29 | X-H torsion
[ 10718 10713 10712 10709 ] final   51.82 input   66.30 | X-H torsion
[ 10763 10752 10751 10750 ] final  -61.17 input  -60.55 | X-H torsion
[ 11005 11000 10999 10996 ] final -131.11 input  -57.11 | X-H torsion

> <Gold.Protein.ActiveResidues>
 VAL166  LYS551  ARG553  GLY616  TRP617  ASP618  TYR619  PRO620  LYS621  CYS622 
 ASP623  PHE694  ASN695  SER759  ASP760  ASP761  ALA762  ILE779  LEU786  VAL792 
 PHE793  MET794  SER795  GLU796  ALA797  LYS798  CYS799  TRP800  GLU811  SER814 

> <Gold.Protein.RotatedAtoms>
  151.3948  135.0962  159.9537 H   0  0  0  0  0  0  0  0  0  0  0  0  # atno 6907 bound_to 6896
  152.5068  133.8944  159.7420 H   0  0  0  0  0  0  0  0  0  0  0  0  # atno 6908 bound_to 6896
  150.9406  133.6605  159.2820 H   0  0  0  0  0  0  0  0  0  0  0  0  # atno 6909 bound_to 6896
  145.2020  139.2948  143.4313 H   0  0  0  0  0  0  0  0  0  0  0  0  # atno 7974 bound_to 7965
  154.3998  140.1415  156.3729 H   0  0  0  0  0  0  0  0  0  0  0  0  # atno 8008 bound_to 7997
  155.8076  140.3474  155.5418 H   0  0  0  0  0  0  0  0  0  0  0  0  # atno 8009 bound_to 7997
  155.8419  140.0928  157.1719 H   0  0  0  0  0  0  0  0  0  0  0  0  # atno 8010 bound_to 7997
  139.6057  144.0917  152.1791 H   0  0  0  0  0  0  0  0  0  0  0  0  # atno 10167 bound_to 10162
  157.5017  130.8442  149.8325 H   0  0  0  0  0  0  0  0  0  0  0  0  # atno 10718 bound_to 10713
  154.2804  135.6273  153.5345 H   0  0  0  0  0  0  0  0  0  0  0  0  # atno 10763 bound_to 10752
  152.9866  135.5631  154.5501 H   0  0  0  0  0  0  0  0  0  0  0  0  # atno 10764 bound_to 10752
  154.5091  135.2876  155.1333 H   0  0  0  0  0  0  0  0  0  0  0  0  # atno 10765 bound_to 10752
  140.9287  134.1348  157.4253 H   0  0  0  0  0  0  0  0  0  0  0  0  # atno 11005 bound_to 11000
  146.3415  140.2267  142.8592 LP  0  0  0  0  0  0  0  0  0  0  0  0  # atno 17320 bound_to 7965
  144.9939  140.8571  143.5323 LP  0  0  0  0  0  0  0  0  0  0  0  0  # atno 17321 bound_to 7965
  140.0524  144.5922  150.7326 LP  0  0  0  0  0  0  0  0  0  0  0  0  # atno 17342 bound_to 10162
  140.7283  143.2660  151.4042 LP  0  0  0  0  0  0  0  0  0  0  0  0  # atno 17343 bound_to 10162
  156.0233  130.3788  150.1896 LP  0  0  0  0  0  0  0  0  0  0  0  0  # atno 17370 bound_to 10713
  157.0086  130.9944  151.3372 LP  0  0  0  0  0  0  0  0  0  0  0  0  # atno 17371 bound_to 10713
  139.8791  134.9997  156.5971 LP  0  0  0  0  0  0  0  0  0  0  0  0  # atno 17394 bound_to 11000
  140.7891  133.8597  155.8631 LP  0  0  0  0  0  0  0  0  0  0  0  0  # atno 17395 bound_to 11000

$$$$
