AV-unprocessed.smi:228|AV-procd|sdf|1744|dock4
  -GOLD-   2262020253D 1   1.00000     0.00000
 Structure written by MMmdl.
 60 63  0  0  0  0  0  0  0  0  2 V2000
  152.3087  138.8180  154.7734 C   0  0  0  0  0  0  0  0  0  0  0  0
  151.4927  139.4333  155.8127 N   0  0  0  0  0  0  0  0  0  0  0  0
  150.2738  140.1129  155.3659 C   0  0  0  0  0  0  0  0  0  0  0  0
  150.2997  141.6407  155.6053 C   0  0  1  0  0  0  0  0  0  0  0  0
  149.3435  142.2356  154.7514 O   0  0  0  0  0  0  0  0  0  0  0  0
  149.9210  141.9949  157.0569 C   0  0  0  0  0  0  0  0  0  0  0  0
  150.5636  143.2522  157.5155 N   0  3  0  0  0  0  0  0  0  0  0  0
  150.1535  143.6360  158.8869 C   0  0  0  0  0  0  0  0  0  0  0  0
  150.8002  144.9735  159.2858 C   0  0  0  0  0  0  0  0  0  0  0  0
  152.2147  144.8702  159.1808 O   0  0  0  0  0  0  0  0  0  0  0  0
  152.6307  144.5849  157.8509 C   0  0  0  0  0  0  0  0  0  0  0  0
  152.0442  143.2348  157.4057 C   0  0  0  0  0  0  0  0  0  0  0  0
  151.4301  138.6756  156.9394 C   0  0  0  0  0  0  0  0  0  0  0  0
  150.3803  137.8325  157.1359 N   0  0  0  0  0  0  0  0  0  0  0  0
  150.3080  137.0921  158.2452 C   0  0  0  0  0  0  0  0  0  0  0  0
  151.1597  137.0429  159.2698 N   0  0  0  0  0  0  0  0  0  0  0  0
  152.2172  137.8836  159.0812 C   0  0  0  0  0  0  0  0  0  0  0  0
  152.4282  138.7256  157.9525 C   0  0  0  0  0  0  0  0  0  0  0  0
  153.6036  139.4483  158.1146 N   0  0  0  0  0  0  0  0  0  0  0  0
  154.0657  139.0513  159.2686 C   0  0  0  0  0  0  0  0  0  0  0  0
  153.2954  138.1146  159.9214 N   0  0  0  0  0  0  0  0  0  0  0  0
  153.5711  137.5263  161.2028 C   0  0  0  0  0  0  0  0  0  0  0  0
  154.7272  138.0212  162.0765 C   0  0  0  0  0  0  0  0  0  0  0  0
  154.9452  136.5780  162.5888 C   0  0  0  0  0  0  0  0  0  0  0  0
  156.4092  136.1170  162.7335 C   0  0  0  0  0  0  0  0  0  0  0  0
  156.5159  134.7716  163.1550 O   0  0  0  0  0  0  0  0  0  0  0  0
  154.2362  136.2742  163.9217 C   0  0  0  0  0  0  0  0  0  0  0  0
  154.7486  137.0631  164.9767 O   0  0  0  0  0  0  0  0  0  0  0  0
  154.1852  136.1290  161.3182 C   0  0  0  0  0  0  0  0  0  0  0  0
  153.3525  138.7443  155.0785 H   0  0  0  0  0  0  0  0  0  0  0  0
  152.2784  139.4066  153.8560 H   0  0  0  0  0  0  0  0  0  0  0  0
  151.9468  137.8152  154.5423 H   0  0  0  0  0  0  0  0  0  0  0  0
  150.0920  139.9012  154.3112 H   0  0  0  0  0  0  0  0  0  0  0  0
  149.4320  139.6644  155.8952 H   0  0  0  0  0  0  0  0  0  0  0  0
  151.2766  142.0560  155.3642 H   0  0  0  0  0  0  0  0  0  0  0  0
  149.0410  143.0372  155.1516 H   0  0  0  0  0  0  0  0  0  0  0  0
  148.8351  142.0789  157.1268 H   0  0  0  0  0  0  0  0  0  0  0  0
  150.2053  141.1889  157.7352 H   0  0  0  0  0  0  0  0  0  0  0  0
  149.0676  143.7259  158.9375 H   0  0  0  0  0  0  0  0  0  0  0  0
  150.4450  142.8537  159.5894 H   0  0  0  0  0  0  0  0  0  0  0  0
  150.4350  145.7864  158.6557 H   0  0  0  0  0  0  0  0  0  0  0  0
  150.5393  145.2257  160.3138 H   0  0  0  0  0  0  0  0  0  0  0  0
  152.3203  145.3863  157.1785 H   0  0  0  0  0  0  0  0  0  0  0  0
  153.7198  144.5484  157.8219 H   0  0  0  0  0  0  0  0  0  0  0  0
  152.4485  142.4339  158.0268 H   0  0  0  0  0  0  0  0  0  0  0  0
  152.3537  143.0279  156.3819 H   0  0  0  0  0  0  0  0  0  0  0  0
  149.4446  136.4482  158.3244 H   0  0  0  0  0  0  0  0  0  0  0  0
  154.9870  139.4393  159.6786 H   0  0  0  0  0  0  0  0  0  0  0  0
  152.6383  137.5653  161.7688 H   0  0  0  0  0  0  0  0  0  0  0  0
  155.5617  138.4119  161.4939 H   0  0  0  0  0  0  0  0  0  0  0  0
  154.4302  138.7368  162.8439 H   0  0  0  0  0  0  0  0  0  0  0  0
  156.9404  136.2132  161.7862 H   0  0  0  0  0  0  0  0  0  0  0  0
  156.9453  136.7303  163.4581 H   0  0  0  0  0  0  0  0  0  0  0  0
  157.4292  134.5285  163.1561 H   0  0  0  0  0  0  0  0  0  0  0  0
  153.1628  136.4490  163.8431 H   0  0  0  0  0  0  0  0  0  0  0  0
  154.3549  135.2272  164.2018 H   0  0  0  0  0  0  0  0  0  0  0  0
  155.4739  137.5716  164.6473 H   0  0  0  0  0  0  0  0  0  0  0  0
  153.4551  135.3345  161.4759 H   0  0  0  0  0  0  0  0  0  0  0  0
  154.8407  135.8843  160.4820 H   0  0  0  0  0  0  0  0  0  0  0  0
  150.2252  143.9829  156.9053 H   0  0  0  0  0  0  0  0  0  0  0  0
  1  2  1  0  0  0  0
  1 30  1  0  0  0  0
  1 31  1  0  0  0  0
  1 32  1  0  0  0  0
  2  3  1  0  0  0  0
  2 13  1  0  0  0  0
  3  4  1  0  0  0  0
  3 33  1  0  0  0  0
  3 34  1  0  0  0  0
  4  5  1  0  0  0  0
  4  6  1  0  0  0  0
  4 35  1  0  0  0  0
  5 36  1  0  0  0  0
  6  7  1  0  0  0  0
  6 37  1  0  0  0  0
  6 38  1  0  0  0  0
  7 12  1  0  0  0  0
  7  8  1  0  0  0  0
  7 60  1  0  0  0  0
  8  9  1  0  0  0  0
  8 39  1  0  0  0  0
  8 40  1  0  0  0  0
  9 10  1  0  0  0  0
  9 41  1  0  0  0  0
  9 42  1  0  0  0  0
 10 11  1  0  0  0  0
 11 12  1  0  0  0  0
 11 43  1  0  0  0  0
 11 44  1  0  0  0  0
 12 45  1  0  0  0  0
 12 46  1  0  0  0  0
 13 18  1  0  0  0  0
 13 14  2  0  0  0  0
 14 15  1  0  0  0  0
 15 16  2  0  0  0  0
 15 47  1  0  0  0  0
 16 17  1  0  0  0  0
 17 21  1  0  0  0  0
 17 18  2  0  0  0  0
 18 19  1  0  0  0  0
 19 20  2  0  0  0  0
 20 21  1  0  0  0  0
 20 48  1  0  0  0  0
 21 22  1  0  0  0  0
 22 29  1  0  0  0  0
 22 23  1  0  0  0  0
 22 49  1  0  0  0  0
 23 24  1  0  0  0  0
 23 50  1  0  0  0  0
 23 51  1  0  0  0  0
 24 25  1  0  0  0  0
 24 27  1  0  0  0  0
 24 29  1  0  0  0  0
 25 26  1  0  0  0  0
 25 52  1  0  0  0  0
 25 53  1  0  0  0  0
 26 54  1  0  0  0  0
 27 28  1  0  0  0  0
 27 55  1  0  0  0  0
 27 56  1  0  0  0  0
 28 57  1  0  0  0  0
 29 58  1  0  0  0  0
 29 59  1  0  0  0  0
M  CHG  1   7   1
M  END
> <s_m_source_file>
AV-unprocessed.smi

> <i_m_source_file_index>
228

> <i_lp_mmshare_version>
43012

> <i_f3d_flags>
0

> <s_epik_input>
W0NIMl0xW0NIMl1PW0NIMl1bQ0gyXU4xW0NIMl1bQ0BASF0oW09IXSlbQ0gyXU4oW0NIM10pYyhuW2NIXW4yKWMoYzIzKW5bY0hdbjNbQ0hdKFtDSDJdNClbQ0gyXUM0KFtDSDJdW09IXSlbQ0gyXVtPSF0=

> <s_epik_cmdline>
J2VwaWtfcHl0aG9uJywgJy1waCcsICc3LjAnLCAnLXRuJywgJzgnLCAnLW1hJywgJzIwMCcsICctbWV0YWxfYmluZGluZycsICctaW1hZScsICc8aW5maWxlLm1hZT4nLCAnLW9tYWUnLCAnPG91dGZpbGUubWFlPic=

> <r_lp_tautomer_probability>
1

> <r_epik_Ionization_Penalty>
0.403032

> <r_epik_Ionization_Penalty_Charging>
0.40072

> <r_epik_Ionization_Penalty_Neutral>
0.00231206

> <r_epik_State_Penalty>
0.387266

> <r_epik_Charging_Adjusted_Penalty>
0.787986

> <i_epik_Tot_Q>
1

> <i_epik_Tot_abs_Q>
1

> <r_epik_Metal_State_Penalty>
0.385845

> <b_epik_Metal_Only>
0

> <s_lp_Force_Field>
OPLS_2005

> <r_lp_Energy>
50.3724

> <b_lp_Chiralities_Consistent>
1

> <s_lp_Variant>
AV-unprocessed.smi:228-2

> <Gold.Version>
5.8.1

> <Gold.Id.Protein>
6NUR|6NUR_protein|mol2

> <Gold.PLP.Fitness>
62.5167

> <Gold.PLP.PLP>
-50.9818

> <Gold.PLP.part.hbond>
-6.2040

> <Gold.PLP.part.metal>
0.0000

> <Gold.PLP.part.buried>
-7.6556

> <Gold.PLP.part.nonpolar>
-36.1546

> <Gold.PLP.part.repulsive>
0.0837

> <Gold.PLP.ligand.clash>
0.0000

> <Gold.PLP.ligand.torsion>
2.3380

> <Gold.PLP.Chemscore.Hbond>
5.0000

> <Gold.PLP.Chemscore.CHOScore>
0.0000

> <Gold.PLP.Chemscore.Metal>
0.0000

> <Gold.Chemscore.Hbonds>
donor molecule, donor type, donor heavy atom, donor atom, acceptor molecule, acceptor atom, score
      L1  H     5    36       P1  8028  1.00
      L1  H     7    60       P1  8028  2.00
      P1  H  6896  6908       L1    16  1.00
      P1  H  7997  8010       L1    19  1.00

> <Gold.PLP.Chemscore.Internal.Correction>
1.2109

> <Gold.Rescore>
     Score         DG    S(hbond)    S(metal)    S(lipo)     H(rot)  DE(clash)    DE(int)     intcor
     12.58     -15.23       3.07        0.00     107.65       5.11       0.12       2.54       ----

> <Gold.Chemscore.Fitness>
12.5786

> <Gold.Chemscore.DG>
-15.2319

> <Gold.Chemscore.ZeroCoef>
-5.4800

> <Gold.Chemscore.Hbond>
3.0690

> <Gold.Chemscore.Metal>
0.0000

> <Gold.Chemscore.Lipo>
107.6538

> <Gold.Chemscore.Internal_Hbond>
0.0000

> <Gold.Chemscore.DEClash>
0.1159

> <Gold.Chemscore.DEInternal>
2.5374

> <Gold.Chemscore.Rot>
5.1149

> <Gold.Chemscore.Internal.Correction>
   9.000000E+99

> <Gold.Chemscore.Hbonds>
donor molecule, donor type, donor heavy atom, donor atom, acceptor molecule, acceptor atom, score
      L1  H     5    36       P1  8028  1.00
      L1  H     7    60       P1  8028  0.94
      P1  H  6896  6908       L1    16  0.70
      P1  H  7997  8010       L1    19  0.96
      P1  H  8011  8017       L1     5  0.01

> <Gold.Chemscore.Hbond.Weighted>
-10.2506

> <Gold.Chemscore.Metal.Weighted>
-0.0000

> <Gold.Chemscore.Lipo.Weighted>
-12.5955

> <Gold.Chemscore.Internal_Hbond.Weighted>
0.0000

> <Gold.Chemscore.DEClash.Weighted>
0.1159

> <Gold.Chemscore.DEInternal.Weighted>
2.5374

> <Gold.Chemscore.Rot.Weighted>
13.0942

> <Gold.Chemscore.Internal.Correction.Weighted>
   9.000000E+99

> <Gold.Protein.RotatedTorsions>
[ 6907 6896 6895 6894 ] final -134.10 input  -60.11 | X-H torsion
[ 7974 7965 7964 7962 ] final   94.01 input  175.53 | X-H torsion
[ 8008 7997 7996 7995 ] final   37.43 input   59.86 | X-H torsion
[ 10167 10162 10161 10158 ] final -139.16 input  -65.29 | X-H torsion
[ 10718 10713 10712 10709 ] final   93.16 input   66.30 | X-H torsion
[ 10763 10752 10751 10750 ] final  158.64 input  -60.55 | X-H torsion
[ 11005 11000 10999 10996 ] final  115.74 input  -57.11 | X-H torsion

> <Gold.Protein.ActiveResidues>
 VAL166  LYS551  ARG553  GLY616  TRP617  ASP618  TYR619  PRO620  LYS621  CYS622 
 ASP623  PHE694  ASN695  SER759  ASP760  ASP761  ALA762  ILE779  LEU786  VAL792 
 PHE793  MET794  SER795  GLU796  ALA797  LYS798  CYS799  TRP800  GLU811  SER814 

> <Gold.Protein.RotatedAtoms>
  150.9819  133.6237  159.2721 H   0  0  0  0  0  0  0  0  0  0  0  0  # atno 6907 bound_to 6896
  151.3489  135.0879  159.9406 H   0  0  0  0  0  0  0  0  0  0  0  0  # atno 6908 bound_to 6896
  152.5218  133.9416  159.7683 H   0  0  0  0  0  0  0  0  0  0  0  0  # atno 6909 bound_to 6896
  145.4713  139.2282  143.2933 H   0  0  0  0  0  0  0  0  0  0  0  0  # atno 7974 bound_to 7965
  155.2036  140.3318  155.4339 H   0  0  0  0  0  0  0  0  0  0  0  0  # atno 8008 bound_to 7997
  156.2397  140.1889  156.7071 H   0  0  0  0  0  0  0  0  0  0  0  0  # atno 8009 bound_to 7997
  154.6125  140.0607  156.9498 H   0  0  0  0  0  0  0  0  0  0  0  0  # atno 8010 bound_to 7997
  139.8407  143.7326  152.2663 H   0  0  0  0  0  0  0  0  0  0  0  0  # atno 10167 bound_to 10162
  157.6956  131.0468  150.3992 H   0  0  0  0  0  0  0  0  0  0  0  0  # atno 10718 bound_to 10713
  154.2192  135.2783  155.2931 H   0  0  0  0  0  0  0  0  0  0  0  0  # atno 10763 bound_to 10752
  154.5715  135.5617  153.7103 H   0  0  0  0  0  0  0  0  0  0  0  0  # atno 10764 bound_to 10752
  153.0045  135.6322  154.2332 H   0  0  0  0  0  0  0  0  0  0  0  0  # atno 10765 bound_to 10752
  139.9019  134.9588  156.7091 H   0  0  0  0  0  0  0  0  0  0  0  0  # atno 11005 bound_to 11000
  146.2395  140.5491  142.8940 LP  0  0  0  0  0  0  0  0  0  0  0  0  # atno 17320 bound_to 7965
  144.7943  140.6093  143.6520 LP  0  0  0  0  0  0  0  0  0  0  0  0  # atno 17321 bound_to 7965
  139.7562  144.7520  151.0432 LP  0  0  0  0  0  0  0  0  0  0  0  0  # atno 17342 bound_to 10162
  140.7798  143.4803  151.0027 LP  0  0  0  0  0  0  0  0  0  0  0  0  # atno 17343 bound_to 10162
  156.4387  130.3987  149.6711 LP  0  0  0  0  0  0  0  0  0  0  0  0  # atno 17370 bound_to 10713
  156.3903  130.7623  151.2624 LP  0  0  0  0  0  0  0  0  0  0  0  0  # atno 17371 bound_to 10713
  140.7090  133.9240  155.8072 LP  0  0  0  0  0  0  0  0  0  0  0  0  # atno 17394 bound_to 11000
  141.0315  134.0750  157.4009 LP  0  0  0  0  0  0  0  0  0  0  0  0  # atno 17395 bound_to 11000

$$$$
