AV-unprocessed.smi:2636|AV-procd|sdf|10257|dock5
  -GOLD-   2272014263D 1   1.00000     0.00000
 Structure written by MMmdl.
 36 37  0  0  0  0  0  0  0  0  1 V2000
  151.5090  137.5338  155.1075 C   0  0  0  0  0  0  0  0  0  0  0  0
  151.2440  138.3116  156.3858 C   0  0  0  0  0  0  0  0  0  0  0  0
  151.9363  138.0859  157.5318 C   0  0  0  0  0  0  0  0  0  0  0  0
  151.7138  138.7824  158.7083 N   0  0  0  0  0  0  0  0  0  0  0  0
  152.4233  138.4901  159.9409 C   0  0  0  0  0  0  0  0  0  0  0  0
  153.7725  138.7808  159.7661 O   0  0  0  0  0  0  0  0  0  0  0  0
  154.3269  139.5279  160.8359 C   0  0  0  0  0  0  0  0  0  0  0  0
  153.8646  140.9665  160.7665 C   0  0  0  0  0  0  0  0  0  0  0  0
  153.1173  141.4720  159.7685 C   0  0  0  0  0  0  0  0  0  0  0  0
  152.6371  142.8601  159.6462 C   0  0  0  0  0  0  0  0  0  0  0  0
  152.4846  143.7158  160.7629 C   0  0  0  0  0  0  0  0  0  0  0  0
  152.0244  145.0367  160.5949 C   0  0  0  0  0  0  0  0  0  0  0  0
  151.7116  145.5180  159.3103 C   0  0  0  0  0  0  0  0  0  0  0  0
  151.8599  144.6756  158.1930 C   0  0  0  0  0  0  0  0  0  0  0  0
  152.3201  143.3553  158.3622 C   0  0  0  0  0  0  0  0  0  0  0  0
  150.7051  139.7670  158.7615 C   0  0  0  0  0  0  0  0  0  0  0  0
  150.4407  140.4060  159.7802 O   0  0  0  0  0  0  0  0  0  0  0  0
  149.9966  140.0004  157.5839 N   0  0  0  0  0  0  0  0  0  0  0  0
  150.1945  139.3359  156.3700 C   0  0  0  0  0  0  0  0  0  0  0  0
  149.5045  139.6331  155.3963 O   0  0  0  0  0  0  0  0  0  0  0  0
  149.2761  140.7070  157.6110 H   0  0  0  0  0  0  0  0  0  0  0  0
  152.3166  136.8123  155.2338 H   0  0  0  0  0  0  0  0  0  0  0  0
  151.7890  138.2109  154.2997 H   0  0  0  0  0  0  0  0  0  0  0  0
  150.6162  136.9869  154.8027 H   0  0  0  0  0  0  0  0  0  0  0  0
  152.7023  137.3235  157.5295 H   0  0  0  0  0  0  0  0  0  0  0  0
  152.0103  139.1050  160.7428 H   0  0  0  0  0  0  0  0  0  0  0  0
  152.2680  137.4404  160.2028 H   0  0  0  0  0  0  0  0  0  0  0  0
  154.0385  139.0897  161.7930 H   0  0  0  0  0  0  0  0  0  0  0  0
  155.4163  139.5125  160.7804 H   0  0  0  0  0  0  0  0  0  0  0  0
  154.1791  141.5871  161.5911 H   0  0  0  0  0  0  0  0  0  0  0  0
  152.8304  140.8064  158.9670 H   0  0  0  0  0  0  0  0  0  0  0  0
  152.7157  143.3772  161.7609 H   0  0  0  0  0  0  0  0  0  0  0  0
  151.9118  145.6813  161.4542 H   0  0  0  0  0  0  0  0  0  0  0  0
  151.3590  146.5308  159.1821 H   0  0  0  0  0  0  0  0  0  0  0  0
  151.6214  145.0415  157.2053 H   0  0  0  0  0  0  0  0  0  0  0  0
  152.4296  142.7211  157.4945 H   0  0  0  0  0  0  0  0  0  0  0  0
  1  2  1  0  0  0  0
  1 22  1  0  0  0  0
  1 23  1  0  0  0  0
  1 24  1  0  0  0  0
  2 19  1  0  0  0  0
  2  3  2  0  0  0  0
  3  4  1  0  0  0  0
  3 25  1  0  0  0  0
  4  5  1  0  0  0  0
  4 16  1  0  0  0  0
  5  6  1  0  0  0  0
  5 26  1  0  0  0  0
  5 27  1  0  0  0  0
  6  7  1  0  0  0  0
  7  8  1  0  0  0  0
  7 28  1  0  0  0  0
  7 29  1  0  0  0  0
  8  9  2  0  0  0  0
  8 30  1  0  0  0  0
  9 10  1  0  0  0  0
  9 31  1  0  0  0  0
 10 15  1  0  0  0  0
 10 11  2  0  0  0  0
 11 12  1  0  0  0  0
 11 32  1  0  0  0  0
 12 13  2  0  0  0  0
 12 33  1  0  0  0  0
 13 14  1  0  0  0  0
 13 34  1  0  0  0  0
 14 15  2  0  0  0  0
 14 35  1  0  0  0  0
 15 36  1  0  0  0  0
 16 17  2  0  0  0  0
 16 18  1  0  0  0  0
 18 21  1  0  0  0  0
 18 19  1  0  0  0  0
 19 20  2  0  0  0  0
M  END
> <s_m_source_file>
AV-unprocessed.smi

> <i_m_source_file_index>
2636

> <i_lp_mmshare_version>
43012

> <i_f3d_flags>
0

> <s_epik_input>
Tz1jMVtuSF1jKD1PKW4oW2NIXWMxW0NIM10pW0NIMl1PW0NIMl0vW0NIXT1bQ0hdL2MyW2NIXVtjSF1bY0hdW2NIXVtjSF0y

> <s_epik_cmdline>
J2VwaWtfcHl0aG9uJywgJy1waCcsICc3LjAnLCAnLXRuJywgJzgnLCAnLW1hJywgJzIwMCcsICctbWV0YWxfYmluZGluZycsICctaW1hZScsICc8aW5maWxlLm1hZT4nLCAnLW9tYWUnLCAnPG91dGZpbGUubWFlPic=

> <r_lp_tautomer_probability>
0.999537

> <r_epik_Ionization_Penalty>
0.00179702

> <r_epik_Ionization_Penalty_Charging>
0.00179702

> <r_epik_Ionization_Penalty_Neutral>
9.83266e-13

> <r_epik_State_Penalty>
0.00121868

> <r_epik_Charging_Adjusted_Penalty>
0.0030157

> <i_epik_Tot_Q>
0

> <i_epik_Tot_abs_Q>
0

> <r_epik_Metal_State_Penalty>
0.826903

> <b_epik_Metal_Only>
0

> <s_epik_Chemistry_Notes>
This compound contains an acetal/aminal-like group ( X-CH(R)-Y where X, Y are N, S, or O) that may be acid/base labile, releasing an aldehyde.

> <s_lp_Force_Field>
OPLS_2005

> <r_lp_Energy>
1.95272

> <b_lp_Chiralities_Consistent>
1

> <s_lp_Variant>
AV-unprocessed.smi:2636-1

> <Gold.Version>
5.8.1

> <Gold.Id.Protein>
6NUR|6NUR_protein|mol2

> <Gold.PLP.Fitness>
49.9717

> <Gold.PLP.PLP>
-47.9973

> <Gold.PLP.part.hbond>
-1.7561

> <Gold.PLP.part.metal>
0.0000

> <Gold.PLP.part.buried>
-2.4011

> <Gold.PLP.part.nonpolar>
-43.9012

> <Gold.PLP.part.repulsive>
0.1416

> <Gold.PLP.ligand.clash>
0.0000

> <Gold.PLP.ligand.torsion>
0.5308

> <Gold.PLP.Chemscore.Hbond>
1.0000

> <Gold.PLP.Chemscore.CHOScore>
0.0000

> <Gold.PLP.Chemscore.Metal>
0.0000

> <Gold.PLP.Chemscore.Internal.Correction>
0.0360

> <Gold.Rescore>
     Score         DG    S(hbond)    S(metal)    S(lipo)     H(rot)  DE(clash)    DE(int)     intcor
     17.45     -18.56       0.95        0.00     126.67       1.92       0.58       0.53       ----

> <Gold.Chemscore.Fitness>
17.4542

> <Gold.Chemscore.DG>
-18.5649

> <Gold.Chemscore.ZeroCoef>
-5.4800

> <Gold.Chemscore.Hbond>
0.9533

> <Gold.Chemscore.Metal>
0.0000

> <Gold.Chemscore.Lipo>
126.6693

> <Gold.Chemscore.Internal_Hbond>
0.0000

> <Gold.Chemscore.DEClash>
0.5827

> <Gold.Chemscore.DEInternal>
0.5280

> <Gold.Chemscore.Rot>
1.9216

> <Gold.Chemscore.Internal.Correction>
   9.000000E+99

> <Gold.Chemscore.Hbond.Weighted>
-3.1839

> <Gold.Chemscore.Metal.Weighted>
-0.0000

> <Gold.Chemscore.Lipo.Weighted>
-14.8203

> <Gold.Chemscore.Internal_Hbond.Weighted>
0.0000

> <Gold.Chemscore.DEClash.Weighted>
0.5827

> <Gold.Chemscore.DEInternal.Weighted>
0.5280

> <Gold.Chemscore.Rot.Weighted>
4.9193

> <Gold.Chemscore.Internal.Correction.Weighted>
   9.000000E+99

> <Gold.Protein.RotatedTorsions>
[ 6907 6896 6895 6894 ] final -141.21 input  -60.11 | X-H torsion
[ 7974 7965 7964 7962 ] final   51.77 input  175.53 | X-H torsion
[ 8008 7997 7996 7995 ] final  116.15 input   59.86 | X-H torsion
[ 10167 10162 10161 10158 ] final    5.05 input  -65.29 | X-H torsion
[ 10718 10713 10712 10709 ] final  -49.38 input   66.30 | X-H torsion
[ 10763 10752 10751 10750 ] final  155.58 input  -60.55 | X-H torsion
[ 11005 11000 10999 10996 ] final    8.60 input  -57.11 | X-H torsion

> <Gold.Protein.ActiveResidues>
 VAL166  LYS551  ARG553  GLY616  TRP617  ASP618  TYR619  PRO620  LYS621  CYS622 
 ASP623  PHE694  ASN695  SER759  ASP760  ASP761  ALA762  ILE779  LEU786  VAL792 
 PHE793  MET794  SER795  GLU796  ALA797  LYS798  CYS799  TRP800  GLU811  SER814 

> <Gold.Protein.RotatedAtoms>
  151.0709  133.5467  159.2626 H   0  0  0  0  0  0  0  0  0  0  0  0  # atno 6907 bound_to 6896
  151.2407  135.0587  159.9034 H   0  0  0  0  0  0  0  0  0  0  0  0  # atno 6908 bound_to 6896
  152.5411  134.0484  159.8152 H   0  0  0  0  0  0  0  0  0  0  0  0  # atno 6909 bound_to 6896
  145.9881  139.4310  143.0091 H   0  0  0  0  0  0  0  0  0  0  0  0  # atno 7974 bound_to 7965
  156.2423  140.2923  156.0479 H   0  0  0  0  0  0  0  0  0  0  0  0  # atno 8008 bound_to 7997
  155.1914  140.0407  157.2918 H   0  0  0  0  0  0  0  0  0  0  0  0  # atno 8009 bound_to 7997
  154.6192  140.2471  155.7578 H   0  0  0  0  0  0  0  0  0  0  0  0  # atno 8010 bound_to 7997
  140.6503  143.7562  150.7564 H   0  0  0  0  0  0  0  0  0  0  0  0  # atno 10167 bound_to 10162
  156.1898  130.4152  149.9387 H   0  0  0  0  0  0  0  0  0  0  0  0  # atno 10718 bound_to 10713
  154.1707  135.2804  155.3082 H   0  0  0  0  0  0  0  0  0  0  0  0  # atno 10763 bound_to 10752
  154.6077  135.5509  153.7444 H   0  0  0  0  0  0  0  0  0  0  0  0  # atno 10764 bound_to 10752
  153.0165  135.6407  154.1847 H   0  0  0  0  0  0  0  0  0  0  0  0  # atno 10765 bound_to 10752
  140.5351  134.0428  155.7886 H   0  0  0  0  0  0  0  0  0  0  0  0  # atno 11005 bound_to 11000
  145.7671  140.9912  143.1169 LP  0  0  0  0  0  0  0  0  0  0  0  0  # atno 17320 bound_to 7965
  144.6880  139.9402  143.7475 LP  0  0  0  0  0  0  0  0  0  0  0  0  # atno 17321 bound_to 7965
  140.1211  143.4611  152.2312 LP  0  0  0  0  0  0  0  0  0  0  0  0  # atno 17342 bound_to 10162
  139.5717  144.7466  151.3873 LP  0  0  0  0  0  0  0  0  0  0  0  0  # atno 17343 bound_to 10162
  156.7131  130.8978  151.3611 LP  0  0  0  0  0  0  0  0  0  0  0  0  # atno 17370 bound_to 10713
  157.6922  130.9245  150.0545 LP  0  0  0  0  0  0  0  0  0  0  0  0  # atno 17371 bound_to 10713
  141.1259  133.9384  157.2636 LP  0  0  0  0  0  0  0  0  0  0  0  0  # atno 17394 bound_to 11000
  139.9533  135.0171  156.9057 LP  0  0  0  0  0  0  0  0  0  0  0  0  # atno 17395 bound_to 11000

$$$$
