AV-unprocessed.smi:694|AV-procd|sdf|3383|dock1
  -GOLD-   22720 0363D 1   1.00000     0.00000
 Structure written by MMmdl.
 42 43  0  0  0  0  0  0  0  0  1 V2000
  154.0614  141.4181  162.1507 C   0  0  0  0  0  0  0  0  0  0  0  0
  153.2122  142.5721  161.8727 N   0  0  0  0  0  0  0  0  0  0  0  0
  153.1127  143.6518  162.8468 C   0  0  0  0  0  0  0  0  0  0  0  0
  152.4517  142.6158  160.6816 C   0  0  0  0  0  0  0  0  0  0  0  0
  151.6342  143.7294  160.3660 C   0  0  0  0  0  0  0  0  0  0  0  0
  150.8999  143.7245  159.1650 C   0  0  0  0  0  0  0  0  0  0  0  0
  151.0000  142.6194  158.2989 C   0  0  0  0  0  0  0  0  0  0  0  0
  150.2358  142.6360  157.1013 N   0  0  0  0  0  0  0  0  0  0  0  0
  150.0399  141.6380  156.2228 C   0  0  0  0  0  0  0  0  0  0  0  0
  150.5220  140.5088  156.3100 O   0  0  0  0  0  0  0  0  0  0  0  0
  149.2624  142.0353  155.2054 N   0  0  0  0  0  0  0  0  0  0  0  0
  148.8821  141.2149  154.0593 C   0  0  0  0  0  0  0  0  0  0  0  0
  147.4931  140.5737  154.2498 C   0  0  1  0  0  0  0  0  0  0  0  0
  147.1294  139.5130  153.1996 C   0  0  0  0  0  0  0  0  0  0  0  0
  146.1155  138.5736  153.8700 C   0  0  0  0  0  0  0  0  0  0  0  0
  146.0999  138.9449  155.3586 C   0  0  0  0  0  0  0  0  0  0  0  0
  147.3405  139.8154  155.5717 C   0  0  2  0  0  0  0  0  0  0  0  0
  147.1780  140.6859  156.6721 O   0  0  0  0  0  0  0  0  0  0  0  0
  151.8290  141.5462  158.7012 C   0  0  0  0  0  0  0  0  0  0  0  0
  152.5328  141.5466  159.8526 N   0  0  0  0  0  0  0  0  0  0  0  0
  153.4560  140.5182  162.2639 H   0  0  0  0  0  0  0  0  0  0  0  0
  154.6327  141.5556  163.0688 H   0  0  0  0  0  0  0  0  0  0  0  0
  154.7721  141.2582  161.3393 H   0  0  0  0  0  0  0  0  0  0  0  0
  153.4530  144.5920  162.4118 H   0  0  0  0  0  0  0  0  0  0  0  0
  153.7254  143.4508  163.7256 H   0  0  0  0  0  0  0  0  0  0  0  0
  152.0822  143.7734  163.1819 H   0  0  0  0  0  0  0  0  0  0  0  0
  151.5562  144.5860  161.0179 H   0  0  0  0  0  0  0  0  0  0  0  0
  150.2714  144.5662  158.9123 H   0  0  0  0  0  0  0  0  0  0  0  0
  149.8425  143.5312  156.8511 H   0  0  0  0  0  0  0  0  0  0  0  0
  148.9149  142.9830  155.2169 H   0  0  0  0  0  0  0  0  0  0  0  0
  148.9150  141.7933  153.1342 H   0  0  0  0  0  0  0  0  0  0  0  0
  149.6333  140.4322  153.9522 H   0  0  0  0  0  0  0  0  0  0  0  0
  146.7329  141.3565  154.2130 H   0  0  0  0  0  0  0  0  0  0  0  0
  146.7363  139.9596  152.2859 H   0  0  0  0  0  0  0  0  0  0  0  0
  148.0163  138.9402  152.9252 H   0  0  0  0  0  0  0  0  0  0  0  0
  145.1217  138.6877  153.4359 H   0  0  0  0  0  0  0  0  0  0  0  0
  146.4148  137.5344  153.7296 H   0  0  0  0  0  0  0  0  0  0  0  0
  145.1979  139.5215  155.5699 H   0  0  0  0  0  0  0  0  0  0  0  0
  146.0888  138.0694  156.0083 H   0  0  0  0  0  0  0  0  0  0  0  0
  148.2105  139.1786  155.7390 H   0  0  0  0  0  0  0  0  0  0  0  0
  147.9759  141.1798  156.7840 H   0  0  0  0  0  0  0  0  0  0  0  0
  151.9296  140.6477  158.1128 H   0  0  0  0  0  0  0  0  0  0  0  0
  1  2  1  0  0  0  0
  1 21  1  0  0  0  0
  1 22  1  0  0  0  0
  1 23  1  0  0  0  0
  2  3  1  0  0  0  0
  2  4  1  0  0  0  0
  3 24  1  0  0  0  0
  3 25  1  0  0  0  0
  3 26  1  0  0  0  0
  4 20  1  0  0  0  0
  4  5  2  0  0  0  0
  5  6  1  0  0  0  0
  5 27  1  0  0  0  0
  6  7  2  0  0  0  0
  6 28  1  0  0  0  0
  7  8  1  0  0  0  0
  7 19  1  0  0  0  0
  8  9  1  0  0  0  0
  8 29  1  0  0  0  0
  9 10  2  0  0  0  0
  9 11  1  0  0  0  0
 11 12  1  0  0  0  0
 11 30  1  0  0  0  0
 12 13  1  0  0  0  0
 12 31  1  0  0  0  0
 12 32  1  0  0  0  0
 13 17  1  0  0  0  0
 13 14  1  0  0  0  0
 13 33  1  0  0  0  0
 14 15  1  0  0  0  0
 14 34  1  0  0  0  0
 14 35  1  0  0  0  0
 15 16  1  0  0  0  0
 15 36  1  0  0  0  0
 15 37  1  0  0  0  0
 16 17  1  0  0  0  0
 16 38  1  0  0  0  0
 16 39  1  0  0  0  0
 17 18  1  0  0  0  0
 17 40  1  0  0  0  0
 18 41  1  0  0  0  0
 19 20  2  0  0  0  0
 19 42  1  0  0  0  0
M  END
> <s_m_source_file>
AV-unprocessed.smi

> <i_m_source_file_index>
694

> <i_lp_mmshare_version>
43012

> <i_f3d_flags>
0

> <s_epik_input>
W0NIM11OKFtDSDNdKWMxW2NIXVtjSF1jKFtjSF1uMSlbTkhdQyg9TylbTkhdW0NIMl1bQ0BASF0yW0NIMl1bQ0gyXVtDSDJdW0NASF0yW09IXQ==

> <s_epik_cmdline>
J2VwaWtfcHl0aG9uJywgJy1waCcsICc3LjAnLCAnLXRuJywgJzgnLCAnLW1hJywgJzIwMCcsICctbWV0YWxfYmluZGluZycsICctaW1hZScsICc8aW5maWxlLm1hZT4nLCAnLW9tYWUnLCAnPG91dGZpbGUubWFlPic=

> <r_lp_tautomer_probability>
1

> <r_epik_Ionization_Penalty>
0.60335

> <r_epik_Ionization_Penalty_Charging>
0

> <r_epik_Ionization_Penalty_Neutral>
0.60335

> <r_epik_State_Penalty>
0.616805

> <r_epik_Charging_Adjusted_Penalty>
0.616805

> <i_epik_Tot_Q>
0

> <i_epik_Tot_abs_Q>
0

> <r_epik_Metal_State_Penalty>
0.301709

> <b_epik_Metal_Only>
0

> <s_lp_Force_Field>
OPLS_2005

> <r_lp_Energy>
25.3577

> <b_lp_Chiralities_Consistent>
1

> <s_lp_Variant>
AV-unprocessed.smi:694-8

> <Gold.Version>
5.8.1

> <Gold.Id.Protein>
6NUR|6NUR_protein|mol2

> <Gold.PLP.Fitness>
41.3482

> <Gold.PLP.PLP>
-35.7897

> <Gold.PLP.part.hbond>
-2.0000

> <Gold.PLP.part.metal>
0.0000

> <Gold.PLP.part.buried>
-4.2437

> <Gold.PLP.part.nonpolar>
-29.4429

> <Gold.PLP.part.repulsive>
0.2267

> <Gold.PLP.ligand.clash>
0.0000

> <Gold.PLP.ligand.torsion>
0.2246

> <Gold.PLP.Chemscore.Hbond>
2.0000

> <Gold.PLP.Chemscore.CHOScore>
0.0000

> <Gold.PLP.Chemscore.Metal>
0.0000

> <Gold.Chemscore.Hbonds>
donor molecule, donor type, donor heavy atom, donor atom, acceptor molecule, acceptor atom, score
      L1  H     8    29       P1  8028  1.00
      L1  H    11    30       P1  8028  1.00

> <Gold.PLP.Chemscore.Internal.Correction>
0.0077

> <Gold.Rescore>
     Score         DG    S(hbond)    S(metal)    S(lipo)     H(rot)  DE(clash)    DE(int)     intcor
     14.66     -17.75       1.98        0.00      86.22       1.73       0.37       2.72       ----

> <Gold.Chemscore.Fitness>
14.6572

> <Gold.Chemscore.DG>
-17.7464

> <Gold.Chemscore.ZeroCoef>
-5.4800

> <Gold.Chemscore.Hbond>
1.9752

> <Gold.Chemscore.Metal>
0.0000

> <Gold.Chemscore.Lipo>
86.2195

> <Gold.Chemscore.Internal_Hbond>
0.0000

> <Gold.Chemscore.DEClash>
0.3682

> <Gold.Chemscore.DEInternal>
2.7210

> <Gold.Chemscore.Rot>
1.7259

> <Gold.Chemscore.Internal.Correction>
   9.000000E+99

> <Gold.Chemscore.Hbonds>
donor molecule, donor type, donor heavy atom, donor atom, acceptor molecule, acceptor atom, score
      L1  H     8    29       P1  8028  0.97
      L1  H    11    30       P1  8028  0.99

> <Gold.Chemscore.Hbond.Weighted>
-6.5971

> <Gold.Chemscore.Metal.Weighted>
-0.0000

> <Gold.Chemscore.Lipo.Weighted>
-10.0877

> <Gold.Chemscore.Internal_Hbond.Weighted>
0.0000

> <Gold.Chemscore.DEClash.Weighted>
0.3682

> <Gold.Chemscore.DEInternal.Weighted>
2.7210

> <Gold.Chemscore.Rot.Weighted>
4.4184

> <Gold.Chemscore.Internal.Correction.Weighted>
   9.000000E+99

> <Gold.Protein.RotatedTorsions>
[ 6907 6896 6895 6894 ] final   29.52 input  -60.11 | X-H torsion
[ 7974 7965 7964 7962 ] final  -32.23 input  175.53 | X-H torsion
[ 8008 7997 7996 7995 ] final   87.57 input   59.86 | X-H torsion
[ 10167 10162 10161 10158 ] final   21.28 input  -65.29 | X-H torsion
[ 10718 10713 10712 10709 ] final -150.79 input   66.30 | X-H torsion
[ 10763 10752 10751 10750 ] final -178.22 input  -60.55 | X-H torsion
[ 11005 11000 10999 10996 ] final  138.79 input  -57.11 | X-H torsion

> <Gold.Protein.ActiveResidues>
 VAL166  LYS551  ARG553  GLY616  TRP617  ASP618  TYR619  PRO620  LYS621  CYS622 
 ASP623  PHE694  ASN695  SER759  ASP760  ASP761  ALA762  ILE779  LEU786  VAL792 
 PHE793  MET794  SER795  GLU796  ALA797  LYS798  CYS799  TRP800  GLU811  SER814 

> <Gold.Protein.RotatedAtoms>
  152.0327  134.9758  160.0572 H   0  0  0  0  0  0  0  0  0  0  0  0  # atno 6907 bound_to 6896
  152.1228  133.4358  159.4692 H   0  0  0  0  0  0  0  0  0  0  0  0  # atno 6908 bound_to 6896
  150.6850  134.2433  159.4524 H   0  0  0  0  0  0  0  0  0  0  0  0  # atno 6909 bound_to 6896
  146.1006  140.5766  142.8822 H   0  0  0  0  0  0  0  0  0  0  0  0  # atno 7974 bound_to 7965
  155.9770  140.3380  155.6627 H   0  0  0  0  0  0  0  0  0  0  0  0  # atno 8008 bound_to 7997
  155.6600  140.0715  157.2575 H   0  0  0  0  0  0  0  0  0  0  0  0  # atno 8009 bound_to 7997
  154.4181  140.1710  156.1753 H   0  0  0  0  0  0  0  0  0  0  0  0  # atno 8010 bound_to 7997
  140.5439  143.9628  150.6536 H   0  0  0  0  0  0  0  0  0  0  0  0  # atno 10167 bound_to 10162
  156.4507  130.8166  151.2397 H   0  0  0  0  0  0  0  0  0  0  0  0  # atno 10718 bound_to 10713
  154.5504  135.2812  155.1013 H   0  0  0  0  0  0  0  0  0  0  0  0  # atno 10763 bound_to 10752
  154.2461  135.6348  153.5228 H   0  0  0  0  0  0  0  0  0  0  0  0  # atno 10764 bound_to 10752
  153.0001  135.5571  154.6069 H   0  0  0  0  0  0  0  0  0  0  0  0  # atno 10765 bound_to 10752
  140.0209  134.9397  157.0471 H   0  0  0  0  0  0  0  0  0  0  0  0  # atno 11005 bound_to 11000
  144.7430  140.4993  143.6856 LP  0  0  0  0  0  0  0  0  0  0  0  0  # atno 17320 bound_to 7965
  145.5861  139.1492  143.3208 LP  0  0  0  0  0  0  0  0  0  0  0  0  # atno 17321 bound_to 7965
  140.3036  143.3244  152.0947 LP  0  0  0  0  0  0  0  0  0  0  0  0  # atno 17342 bound_to 10162
  139.4999  144.6681  151.6309 LP  0  0  0  0  0  0  0  0  0  0  0  0  # atno 17343 bound_to 10162
  157.7503  131.0139  150.3441 LP  0  0  0  0  0  0  0  0  0  0  0  0  # atno 17370 bound_to 10713
  156.3819  130.3882  149.7095 LP  0  0  0  0  0  0  0  0  0  0  0  0  # atno 17371 bound_to 10713
  140.4389  134.1701  155.7172 LP  0  0  0  0  0  0  0  0  0  0  0  0  # atno 17394 bound_to 11000
  141.1773  133.8488  157.1379 LP  0  0  0  0  0  0  0  0  0  0  0  0  # atno 17395 bound_to 11000

$$$$
