AV-unprocessed.smi:153|AV-procd|sdf|1263|dock8
  -GOLD-   2262018513D 1   1.00000     0.00000
 Structure written by MMmdl.
 59 62  0  0  0  0  0  0  0  0  1 V2000
  145.2999  134.9878  151.2326 C   0  0  0  0  0  0  0  0  0  0  0  0
  144.9074  133.5029  151.1634 C   0  0  1  0  0  0  0  0  0  0  0  0
  143.9516  133.3350  150.1198 O   0  0  0  0  0  0  0  0  0  0  0  0
  144.1026  132.0382  149.5704 C   0  0  0  0  0  0  0  0  0  0  0  0
  145.6137  131.8803  149.5331 C   0  0  0  0  0  0  0  0  0  0  0  0
  146.0507  132.4927  150.8645 C   0  0  1  0  0  0  0  0  0  0  0  0
  147.3051  133.1249  150.6718 O   0  0  0  0  0  0  0  0  0  0  0  0
  146.1925  131.4597  152.0134 C   0  0  0  0  0  0  0  0  0  0  0  0
  146.8674  131.9687  153.1983 N   0  0  0  0  0  0  0  0  0  0  0  0
  146.5154  133.0733  153.9377 C   0  0  0  0  0  0  0  0  0  0  0  0
  147.2806  133.3187  154.9647 N   0  0  0  0  0  0  0  0  0  0  0  0
  148.2339  132.3054  154.9425 C   0  0  0  0  0  0  0  0  0  0  0  0
  149.3560  131.9623  155.7583 C   0  0  0  0  0  0  0  0  0  0  0  0
  149.7727  132.6788  156.8417 N   0  0  0  0  0  0  0  0  0  0  0  0
  151.0768  132.3632  157.4215 C   0  0  0  0  0  0  0  0  0  0  0  0
  149.2723  134.0417  157.0239 C   0  0  0  0  0  0  0  0  0  0  0  0
  147.8819  134.1000  157.6955 C   0  0  1  0  0  0  0  0  0  0  0  0
  147.8604  133.3394  158.8870 O   0  0  0  0  0  0  0  0  0  0  0  0
  147.4137  135.5382  158.0140 C   0  0  0  0  0  0  0  0  0  0  0  0
  146.1459  135.6761  158.7385 N   0  0  0  0  0  0  0  0  0  0  0  0
  145.3776  136.8517  158.3328 C   0  0  0  0  0  0  0  0  0  0  0  0
  144.0681  136.9876  159.1297 C   0  0  0  0  0  0  0  0  0  0  0  0
  144.3544  137.0231  160.5238 O   0  0  0  0  0  0  0  0  0  0  0  0
  145.0600  135.8688  160.9667 C   0  0  0  0  0  0  0  0  0  0  0  0
  146.3746  135.7369  160.1786 C   0  0  0  0  0  0  0  0  0  0  0  0
  150.0425  130.8387  155.4138 N   0  0  0  0  0  0  0  0  0  0  0  0
  149.6831  130.1131  154.3522 C   0  0  0  0  0  0  0  0  0  0  0  0
  148.6773  130.3217  153.5035 N   0  0  0  0  0  0  0  0  0  0  0  0
  147.9724  131.4382  153.8413 C   0  0  0  0  0  0  0  0  0  0  0  0
  146.0202  135.1683  152.0312 H   0  0  0  0  0  0  0  0  0  0  0  0
  144.4264  135.6093  151.4308 H   0  0  0  0  0  0  0  0  0  0  0  0
  145.7401  135.3282  150.2946 H   0  0  0  0  0  0  0  0  0  0  0  0
  144.4114  133.2340  152.0974 H   0  0  0  0  0  0  0  0  0  0  0  0
  143.6434  131.2971  150.2266 H   0  0  0  0  0  0  0  0  0  0  0  0
  143.6449  131.9627  148.5841 H   0  0  0  0  0  0  0  0  0  0  0  0
  145.9304  130.8504  149.3771 H   0  0  0  0  0  0  0  0  0  0  0  0
  146.0001  132.4657  148.6968 H   0  0  0  0  0  0  0  0  0  0  0  0
  147.9699  132.4560  150.6150 H   0  0  0  0  0  0  0  0  0  0  0  0
  145.2075  131.1011  152.3151 H   0  0  0  0  0  0  0  0  0  0  0  0
  146.7373  130.5816  151.6644 H   0  0  0  0  0  0  0  0  0  0  0  0
  145.6684  133.6962  153.6893 H   0  0  0  0  0  0  0  0  0  0  0  0
  151.1589  131.2968  157.6352 H   0  0  0  0  0  0  0  0  0  0  0  0
  151.2252  132.8974  158.3601 H   0  0  0  0  0  0  0  0  0  0  0  0
  151.8822  132.6451  156.7425 H   0  0  0  0  0  0  0  0  0  0  0  0
  149.9887  134.6831  157.5311 H   0  0  0  0  0  0  0  0  0  0  0  0
  149.1850  134.4730  156.0262 H   0  0  0  0  0  0  0  0  0  0  0  0
  147.1390  133.6588  157.0301 H   0  0  0  0  0  0  0  0  0  0  0  0
  147.3688  132.5485  158.7263 H   0  0  0  0  0  0  0  0  0  0  0  0
  148.1960  135.9817  158.6316 H   0  0  0  0  0  0  0  0  0  0  0  0
  147.3946  136.1371  157.1019 H   0  0  0  0  0  0  0  0  0  0  0  0
  145.9790  137.7521  158.4671 H   0  0  0  0  0  0  0  0  0  0  0  0
  145.1275  136.7947  157.2743 H   0  0  0  0  0  0  0  0  0  0  0  0
  143.5466  137.9027  158.8492 H   0  0  0  0  0  0  0  0  0  0  0  0
  143.3964  136.1561  158.9107 H   0  0  0  0  0  0  0  0  0  0  0  0
  145.2643  135.9625  162.0334 H   0  0  0  0  0  0  0  0  0  0  0  0
  144.4395  134.9808  160.8350 H   0  0  0  0  0  0  0  0  0  0  0  0
  146.9008  134.8405  160.5087 H   0  0  0  0  0  0  0  0  0  0  0  0
  147.0222  136.5829  160.4146 H   0  0  0  0  0  0  0  0  0  0  0  0
  150.2895  129.2416  154.1545 H   0  0  0  0  0  0  0  0  0  0  0  0
  1  2  1  0  0  0  0
  1 30  1  0  0  0  0
  1 31  1  0  0  0  0
  1 32  1  0  0  0  0
  2  6  1  0  0  0  0
  2  3  1  0  0  0  0
  2 33  1  0  0  0  0
  3  4  1  0  0  0  0
  4  5  1  0  0  0  0
  4 34  1  0  0  0  0
  4 35  1  0  0  0  0
  5  6  1  0  0  0  0
  5 36  1  0  0  0  0
  5 37  1  0  0  0  0
  6  7  1  0  0  0  0
  6  8  1  0  0  0  0
  7 38  1  0  0  0  0
  8  9  1  0  0  0  0
  8 39  1  0  0  0  0
  8 40  1  0  0  0  0
  9 29  1  0  0  0  0
  9 10  1  0  0  0  0
 10 11  2  0  0  0  0
 10 41  1  0  0  0  0
 11 12  1  0  0  0  0
 12 29  2  0  0  0  0
 12 13  1  0  0  0  0
 13 14  1  0  0  0  0
 13 26  2  0  0  0  0
 14 15  1  0  0  0  0
 14 16  1  0  0  0  0
 15 42  1  0  0  0  0
 15 43  1  0  0  0  0
 15 44  1  0  0  0  0
 16 17  1  0  0  0  0
 16 45  1  0  0  0  0
 16 46  1  0  0  0  0
 17 18  1  0  0  0  0
 17 19  1  0  0  0  0
 17 47  1  0  0  0  0
 18 48  1  0  0  0  0
 19 20  1  0  0  0  0
 19 49  1  0  0  0  0
 19 50  1  0  0  0  0
 20 25  1  0  0  0  0
 20 21  1  0  0  0  0
 21 22  1  0  0  0  0
 21 51  1  0  0  0  0
 21 52  1  0  0  0  0
 22 23  1  0  0  0  0
 22 53  1  0  0  0  0
 22 54  1  0  0  0  0
 23 24  1  0  0  0  0
 24 25  1  0  0  0  0
 24 55  1  0  0  0  0
 24 56  1  0  0  0  0
 25 57  1  0  0  0  0
 25 58  1  0  0  0  0
 26 27  1  0  0  0  0
 27 28  2  0  0  0  0
 27 59  1  0  0  0  0
 28 29  1  0  0  0  0
M  END
> <s_m_source_file>
AV-unprocessed.smi

> <i_m_source_file_index>
153

> <i_lp_mmshare_version>
43012

> <i_f3d_flags>
0

> <s_epik_input>
W0NIMl0xW0NIMl1PW0NAQEhdKFtDSDNdKVtDQEBdMShbT0hdKVtDSDJdbihbY0hdbjIpYyhjMjMpbltjSF1uYzNOKFtDSDNdKVtDSDJdW0NASF0oW09IXSlbQ0gyXU40W0NIMl1bQ0gyXU9bQ0gyXVtDSDJdNA==

> <s_epik_cmdline>
J2VwaWtfcHl0aG9uJywgJy1waCcsICc3LjAnLCAnLXRuJywgJzgnLCAnLW1hJywgJzIwMCcsICctbWV0YWxfYmluZGluZycsICctaW1hZScsICc8aW5maWxlLm1hZT4nLCAnLW9tYWUnLCAnPG91dGZpbGUubWFlPic=

> <r_lp_tautomer_probability>
1

> <r_epik_Ionization_Penalty>
0.424123

> <r_epik_Ionization_Penalty_Charging>
0

> <r_epik_Ionization_Penalty_Neutral>
0.424123

> <r_epik_State_Penalty>
0.421495

> <r_epik_Charging_Adjusted_Penalty>
0.421495

> <i_epik_Tot_Q>
0

> <i_epik_Tot_abs_Q>
0

> <r_epik_Metal_State_Penalty>
0.421223

> <b_epik_Metal_Only>
0

> <s_lp_Force_Field>
OPLS_2005

> <r_lp_Energy>
60.0656

> <b_lp_Chiralities_Consistent>
1

> <s_lp_Variant>
AV-unprocessed.smi:153-14

> <Gold.Version>
5.8.1

> <Gold.Id.Protein>
6NUR|6NUR_protein|mol2

> <Gold.PLP.Fitness>
49.0218

> <Gold.PLP.PLP>
-39.9970

> <Gold.PLP.part.hbond>
-3.5521

> <Gold.PLP.part.metal>
0.0000

> <Gold.PLP.part.buried>
-4.7846

> <Gold.PLP.part.nonpolar>
-32.4193

> <Gold.PLP.part.repulsive>
1.2581

> <Gold.PLP.ligand.clash>
0.0000

> <Gold.PLP.ligand.torsion>
0.9164

> <Gold.PLP.Chemscore.Hbond>
3.0000

> <Gold.PLP.Chemscore.CHOScore>
0.4164

> <Gold.PLP.Chemscore.Metal>
0.0000

> <Gold.Chemscore.Hbonds>
donor molecule, donor type, donor heavy atom, donor atom, acceptor molecule, acceptor atom, score
      L1  H     7    38       P1 10747  1.00

> <Gold.PLP.Chemscore.Internal.Correction>
0.6086

> <Gold.Rescore>
     Score         DG    S(hbond)    S(metal)    S(lipo)     H(rot)  DE(clash)    DE(int)     intcor
     12.80     -16.03       2.90        0.00      84.27       3.52       0.12       3.11       ----

> <Gold.Chemscore.Fitness>
12.8046

> <Gold.Chemscore.DG>
-16.0304

> <Gold.Chemscore.ZeroCoef>
-5.4800

> <Gold.Chemscore.Hbond>
2.9026

> <Gold.Chemscore.Metal>
0.0000

> <Gold.Chemscore.Lipo>
84.2667

> <Gold.Chemscore.Internal_Hbond>
0.0000

> <Gold.Chemscore.DEClash>
0.1187

> <Gold.Chemscore.DEInternal>
3.1071

> <Gold.Chemscore.Rot>
3.5170

> <Gold.Chemscore.Internal.Correction>
   9.000000E+99

> <Gold.Chemscore.Hbonds>
donor molecule, donor type, donor heavy atom, donor atom, acceptor molecule, acceptor atom, score
      L1  H     7    38       P1 10747  1.00

> <Gold.Chemscore.Hbond.Weighted>
-9.6948

> <Gold.Chemscore.Metal.Weighted>
-0.0000

> <Gold.Chemscore.Lipo.Weighted>
-9.8592

> <Gold.Chemscore.Internal_Hbond.Weighted>
0.0000

> <Gold.Chemscore.DEClash.Weighted>
0.1187

> <Gold.Chemscore.DEInternal.Weighted>
3.1071

> <Gold.Chemscore.Rot.Weighted>
9.0036

> <Gold.Chemscore.Internal.Correction.Weighted>
   9.000000E+99

> <Gold.Protein.RotatedTorsions>
[ 6907 6896 6895 6894 ] final  102.78 input  -60.11 | X-H torsion
[ 7974 7965 7964 7962 ] final    4.29 input  175.53 | X-H torsion
[ 8008 7997 7996 7995 ] final   43.49 input   59.86 | X-H torsion
[ 10167 10162 10161 10158 ] final  -45.54 input  -65.29 | X-H torsion
[ 10718 10713 10712 10709 ] final   90.33 input   66.30 | X-H torsion
[ 10763 10752 10751 10750 ] final   33.41 input  -60.55 | X-H torsion
[ 11005 11000 10999 10996 ] final   21.53 input  -57.11 | X-H torsion

> <Gold.Protein.ActiveResidues>
 VAL166  LYS551  ARG553  GLY616  TRP617  ASP618  TYR619  PRO620  LYS621  CYS622 
 ASP623  PHE694  ASN695  SER759  ASP760  ASP761  ALA762  ILE779  LEU786  VAL792 
 PHE793  MET794  SER795  GLU796  ALA797  LYS798  CYS799  TRP800  GLU811  SER814 

> <Gold.Protein.RotatedAtoms>
  152.5314  133.9925  159.7857 H   0  0  0  0  0  0  0  0  0  0  0  0  # atno 6907 bound_to 6896
  151.0158  133.5914  159.2684 H   0  0  0  0  0  0  0  0  0  0  0  0  # atno 6908 bound_to 6896
  151.2972  135.0765  159.9279 H   0  0  0  0  0  0  0  0  0  0  0  0  # atno 6909 bound_to 6896
  146.2444  140.0556  142.8372 H   0  0  0  0  0  0  0  0  0  0  0  0  # atno 7974 bound_to 7965
  155.3035  140.3386  155.4246 H   0  0  0  0  0  0  0  0  0  0  0  0  # atno 8008 bound_to 7997
  156.1990  140.1725  156.7978 H   0  0  0  0  0  0  0  0  0  0  0  0  # atno 8009 bound_to 7997
  154.5534  140.0701  156.8689 H   0  0  0  0  0  0  0  0  0  0  0  0  # atno 8010 bound_to 7997
  140.6854  143.2874  151.3654 H   0  0  0  0  0  0  0  0  0  0  0  0  # atno 10167 bound_to 10162
  157.6958  131.0367  150.3562 H   0  0  0  0  0  0  0  0  0  0  0  0  # atno 10718 bound_to 10713
  153.0213  135.6387  154.1507 H   0  0  0  0  0  0  0  0  0  0  0  0  # atno 10763 bound_to 10752
  154.1242  135.2844  155.3203 H   0  0  0  0  0  0  0  0  0  0  0  0  # atno 10764 bound_to 10752
  154.6242  135.5514  153.7670 H   0  0  0  0  0  0  0  0  0  0  0  0  # atno 10765 bound_to 10752
  140.3906  134.1823  155.7662 H   0  0  0  0  0  0  0  0  0  0  0  0  # atno 11005 bound_to 11000
  145.0945  140.9306  143.4749 LP  0  0  0  0  0  0  0  0  0  0  0  0  # atno 17320 bound_to 7965
  145.0736  139.3013  143.5819 LP  0  0  0  0  0  0  0  0  0  0  0  0  # atno 17321 bound_to 7965
  139.6208  144.0911  152.2389 LP  0  0  0  0  0  0  0  0  0  0  0  0  # atno 17342 bound_to 10162
  140.0355  144.6048  150.7453 LP  0  0  0  0  0  0  0  0  0  0  0  0  # atno 17343 bound_to 10162
  156.4004  130.3914  149.6964 LP  0  0  0  0  0  0  0  0  0  0  0  0  # atno 17370 bound_to 10713
  156.4283  130.7802  151.2822 LP  0  0  0  0  0  0  0  0  0  0  0  0  # atno 17371 bound_to 10713
  141.1892  133.8243  157.0966 LP  0  0  0  0  0  0  0  0  0  0  0  0  # atno 17394 bound_to 11000
  140.0409  134.9854  157.0960 LP  0  0  0  0  0  0  0  0  0  0  0  0  # atno 17395 bound_to 11000

$$$$
