AV-unprocessed.smi:1209|AV-procd|sdf|5071|dock7
  -GOLD-   22720 4113D 1   1.00000     0.00000
 Structure written by MMmdl.
 49 51  0  0  0  0  0  0  0  0  2 V2000
  147.2713  135.3008  161.8877 C   0  0  0  0  0  0  0  0  0  0  0  0
  147.6539  136.0026  160.6300 C   0  0  0  0  0  0  0  0  0  0  0  0
  147.3668  135.7776  159.3139 C   0  0  0  0  0  0  0  0  0  0  0  0
  148.0508  136.8247  158.6364 C   0  0  0  0  0  0  0  0  0  0  0  0
  148.1076  137.1041  157.1574 C   0  0  0  0  0  0  0  0  0  0  0  0
  149.4709  137.2262  156.6358 N   0  0  0  0  0  0  0  0  0  0  0  0
  150.2007  135.9661  156.7799 C   0  0  0  0  0  0  0  0  0  0  0  0
  149.4423  137.6800  155.2424 C   0  0  0  0  0  0  0  0  0  0  0  0
  150.7797  138.1999  154.6768 C   0  0  2  0  0  0  0  0  0  0  0  0
  151.5310  137.0915  154.2226 O   0  0  0  0  0  0  0  0  0  0  0  0
  151.5810  138.9635  155.7498 C   0  0  0  0  0  0  0  0  0  0  0  0
  151.0534  140.3094  156.0179 N   0  0  0  0  0  0  0  0  0  0  0  0
  150.1298  141.0330  155.3291 C   0  0  0  0  0  0  0  0  0  0  0  0
  149.9670  142.2181  155.9799 N   0  3  0  0  0  0  0  0  0  0  0  0
  150.8010  142.2535  157.0993 C   0  0  0  0  0  0  0  0  0  0  0  0
  150.9888  143.2372  158.0630 C   0  0  0  0  0  0  0  0  0  0  0  0
  151.9251  142.9670  159.0863 C   0  0  0  0  0  0  0  0  0  0  0  0
  152.1556  144.0214  160.1556 C   0  0  0  0  0  0  0  0  0  0  0  0
  152.6386  141.7407  159.1177 C   0  0  0  0  0  0  0  0  0  0  0  0
  153.6483  141.4628  160.2182 C   0  0  0  0  0  0  0  0  0  0  0  0
  152.4309  140.7521  158.1295 C   0  0  0  0  0  0  0  0  0  0  0  0
  151.5032  141.0331  157.1291 C   0  0  0  0  0  0  0  0  0  0  0  0
  148.6993  137.6119  159.4793 N   0  0  0  0  0  0  0  0  0  0  0  0
  148.4515  137.0944  160.7555 O   0  0  0  0  0  0  0  0  0  0  0  0
  146.3736  134.7004  161.7398 H   0  0  0  0  0  0  0  0  0  0  0  0
  147.0713  136.0149  162.6869 H   0  0  0  0  0  0  0  0  0  0  0  0
  148.0712  134.6376  162.2175 H   0  0  0  0  0  0  0  0  0  0  0  0
  146.7589  134.9882  158.8975 H   0  0  0  0  0  0  0  0  0  0  0  0
  147.5703  136.3324  156.6032 H   0  0  0  0  0  0  0  0  0  0  0  0
  147.5660  138.0321  156.9711 H   0  0  0  0  0  0  0  0  0  0  0  0
  151.2417  136.0698  156.4781 H   0  0  0  0  0  0  0  0  0  0  0  0
  149.7468  135.1773  156.1784 H   0  0  0  0  0  0  0  0  0  0  0  0
  150.2119  135.6320  157.8175 H   0  0  0  0  0  0  0  0  0  0  0  0
  149.0788  136.8667  154.6122 H   0  0  0  0  0  0  0  0  0  0  0  0
  148.7084  138.4809  155.1388 H   0  0  0  0  0  0  0  0  0  0  0  0
  150.6123  138.8704  153.8349 H   0  0  0  0  0  0  0  0  0  0  0  0
  151.1870  136.8252  153.3831 H   0  0  0  0  0  0  0  0  0  0  0  0
  151.5465  138.4161  156.6926 H   0  0  0  0  0  0  0  0  0  0  0  0
  152.6352  139.0378  155.4814 H   0  0  0  0  0  0  0  0  0  0  0  0
  149.6155  140.7223  154.4312 H   0  0  0  0  0  0  0  0  0  0  0  0
  150.4435  144.1692  158.0310 H   0  0  0  0  0  0  0  0  0  0  0  0
  151.9328  143.6199  161.1447 H   0  0  0  0  0  0  0  0  0  0  0  0
  151.5200  144.8937  160.0006 H   0  0  0  0  0  0  0  0  0  0  0  0
  153.1927  144.3577  160.1434 H   0  0  0  0  0  0  0  0  0  0  0  0
  154.0973  140.4750  160.1072 H   0  0  0  0  0  0  0  0  0  0  0  0
  153.1701  141.5025  161.1969 H   0  0  0  0  0  0  0  0  0  0  0  0
  154.4525  142.1985  160.1938 H   0  0  0  0  0  0  0  0  0  0  0  0
  152.9791  139.8219  158.1502 H   0  0  0  0  0  0  0  0  0  0  0  0
  149.3326  142.9472  155.6801 H   0  0  0  0  0  0  0  0  0  0  0  0
  1  2  1  0  0  0  0
  1 25  1  0  0  0  0
  1 26  1  0  0  0  0
  1 27  1  0  0  0  0
  2 24  1  0  0  0  0
  2  3  2  0  0  0  0
  3  4  1  0  0  0  0
  3 28  1  0  0  0  0
  4  5  1  0  0  0  0
  4 23  2  0  0  0  0
  5  6  1  0  0  0  0
  5 29  1  0  0  0  0
  5 30  1  0  0  0  0
  6  7  1  0  0  0  0
  6  8  1  0  0  0  0
  7 31  1  0  0  0  0
  7 32  1  0  0  0  0
  7 33  1  0  0  0  0
  8  9  1  0  0  0  0
  8 34  1  0  0  0  0
  8 35  1  0  0  0  0
  9 10  1  0  0  0  0
  9 11  1  0  0  0  0
  9 36  1  0  0  0  0
 10 37  1  0  0  0  0
 11 12  1  0  0  0  0
 11 38  1  0  0  0  0
 11 39  1  0  0  0  0
 12 22  1  0  0  0  0
 12 13  1  0  0  0  0
 13 14  2  0  0  0  0
 13 40  1  0  0  0  0
 14 15  1  0  0  0  0
 14 49  1  0  0  0  0
 15 22  2  0  0  0  0
 15 16  1  0  0  0  0
 16 17  2  0  0  0  0
 16 41  1  0  0  0  0
 17 18  1  0  0  0  0
 17 19  1  0  0  0  0
 18 42  1  0  0  0  0
 18 43  1  0  0  0  0
 18 44  1  0  0  0  0
 19 20  1  0  0  0  0
 19 21  2  0  0  0  0
 20 45  1  0  0  0  0
 20 46  1  0  0  0  0
 20 47  1  0  0  0  0
 21 22  1  0  0  0  0
 21 48  1  0  0  0  0
 23 24  1  0  0  0  0
M  CHG  1  14   1
M  END
> <s_m_source_file>
AV-unprocessed.smi

> <i_m_source_file_index>
1209

> <i_lp_mmshare_version>
43012

> <i_f3d_flags>
0

> <s_epik_input>
W0NIM11jMVtjSF1jKG5vMSlbQ0gyXU4oW0NIM10pW0NIMl1bQ0BIXShbT0hdKVtDSDJdbihbY0hdbjIpYyhjMjMpW2NIXWMoW0NIM10pYyhbY0hdMylbQ0gzXQ==

> <s_epik_cmdline>
J2VwaWtfcHl0aG9uJywgJy1waCcsICc3LjAnLCAnLXRuJywgJzgnLCAnLW1hJywgJzIwMCcsICctbWV0YWxfYmluZGluZycsICctaW1hZScsICc8aW5maWxlLm1hZT4nLCAnLW9tYWUnLCAnPG91dGZpbGUubWFlPic=

> <r_epik_Ionization_Penalty>
1.23608

> <r_epik_Ionization_Penalty_Charging>
1.21624

> <r_epik_Ionization_Penalty_Neutral>
0.0198409

> <r_epik_State_Penalty>
1.27749

> <r_epik_Charging_Adjusted_Penalty>
2.49372

> <i_epik_Tot_Q>
1

> <i_epik_Tot_abs_Q>
1

> <r_epik_Metal_State_Penalty>
1.34809

> <b_epik_Metal_Only>
0

> <s_lp_Force_Field>
OPLS_2005

> <r_lp_Energy>
23.9348

> <b_lp_Chiralities_Consistent>
1

> <s_lp_Variant>
AV-unprocessed.smi:1209-3

> <Gold.Version>
5.8.1

> <Gold.Id.Protein>
6NUR|6NUR_protein|mol2

> <Gold.PLP.Fitness>
60.4540

> <Gold.PLP.PLP>
-47.2373

> <Gold.PLP.part.hbond>
-6.3139

> <Gold.PLP.part.metal>
0.0000

> <Gold.PLP.part.buried>
-5.6764

> <Gold.PLP.part.nonpolar>
-35.4983

> <Gold.PLP.part.repulsive>
0.1298

> <Gold.PLP.ligand.clash>
0.0000

> <Gold.PLP.ligand.torsion>
0.6600

> <Gold.PLP.Chemscore.Hbond>
4.8233

> <Gold.PLP.Chemscore.CHOScore>
0.0000

> <Gold.PLP.Chemscore.Metal>
0.0000

> <Gold.Chemscore.Hbonds>
donor molecule, donor type, donor heavy atom, donor atom, acceptor molecule, acceptor atom, score
      L1  H    10    37       P1  7949  0.91
      L1  H    14    49       P1  8028  1.98
      P1  H  6931  6943       L1    24  0.88
      P1  H  6934  6947       L1    24  0.01
      P1  H 10752 10764       L1    10  0.89

> <Gold.PLP.Chemscore.Internal.Correction>
0.0669

> <Gold.Rescore>
     Score         DG    S(hbond)    S(metal)    S(lipo)     H(rot)  DE(clash)    DE(int)     intcor
     20.31     -21.34       2.61        0.00     116.23       2.53       0.06       0.98       ----

> <Gold.Chemscore.Fitness>
20.3093

> <Gold.Chemscore.DG>
-21.3436

> <Gold.Chemscore.ZeroCoef>
-5.4800

> <Gold.Chemscore.Hbond>
2.6145

> <Gold.Chemscore.Metal>
0.0000

> <Gold.Chemscore.Lipo>
116.2305

> <Gold.Chemscore.Internal_Hbond>
0.0000

> <Gold.Chemscore.DEClash>
0.0551

> <Gold.Chemscore.DEInternal>
0.9792

> <Gold.Chemscore.Rot>
2.5265

> <Gold.Chemscore.Internal.Correction>
   9.000000E+99

> <Gold.Chemscore.Hbonds>
donor molecule, donor type, donor heavy atom, donor atom, acceptor molecule, acceptor atom, score
      L1  H    10    37       P1  7949  0.48
      L1  H    14    49       P1  8028  0.93
      P1  H  6931  6943       L1    24  0.52
      P1  H 10752 10764       L1    10  0.16

> <Gold.Chemscore.Hbond.Weighted>
-8.7323

> <Gold.Chemscore.Metal.Weighted>
-0.0000

> <Gold.Chemscore.Lipo.Weighted>
-13.5990

> <Gold.Chemscore.Internal_Hbond.Weighted>
0.0000

> <Gold.Chemscore.DEClash.Weighted>
0.0551

> <Gold.Chemscore.DEInternal.Weighted>
0.9792

> <Gold.Chemscore.Rot.Weighted>
6.4677

> <Gold.Chemscore.Internal.Correction.Weighted>
   9.000000E+99

> <Gold.Protein.RotatedTorsions>
[ 6907 6896 6895 6894 ] final  143.57 input  -60.11 | X-H torsion
[ 7974 7965 7964 7962 ] final  131.50 input  175.53 | X-H torsion
[ 8008 7997 7996 7995 ] final  -42.57 input   59.86 | X-H torsion
[ 10167 10162 10161 10158 ] final  111.12 input  -65.29 | X-H torsion
[ 10718 10713 10712 10709 ] final   -3.94 input   66.30 | X-H torsion
[ 10763 10752 10751 10750 ] final  -66.98 input  -60.55 | X-H torsion
[ 11005 11000 10999 10996 ] final  -33.39 input  -57.11 | X-H torsion

> <Gold.Protein.ActiveResidues>
 VAL166  LYS551  ARG553  GLY616  TRP617  ASP618  TYR619  PRO620  LYS621  CYS622 
 ASP623  PHE694  ASN695  SER759  ASP760  ASP761  ALA762  ILE779  LEU786  VAL792 
 PHE793  MET794  SER795  GLU796  ALA797  LYS798  CYS799  TRP800  GLU811  SER814 

> <Gold.Protein.RotatedAtoms>
  152.2047  133.4866  159.5077 H   0  0  0  0  0  0  0  0  0  0  0  0  # atno 6907 bound_to 6896
  150.6977  134.1545  159.4162 H   0  0  0  0  0  0  0  0  0  0  0  0  # atno 6908 bound_to 6896
  151.9463  135.0189  160.0590 H   0  0  0  0  0  0  0  0  0  0  0  0  # atno 6909 bound_to 6896
  145.0066  139.4260  143.5265 H   0  0  0  0  0  0  0  0  0  0  0  0  # atno 7974 bound_to 7965
  154.3998  140.1470  156.3377 H   0  0  0  0  0  0  0  0  0  0  0  0  # atno 8008 bound_to 7997
  155.8385  140.3463  155.5595 H   0  0  0  0  0  0  0  0  0  0  0  0  # atno 8009 bound_to 7997
  155.8112  140.0884  157.1893 H   0  0  0  0  0  0  0  0  0  0  0  0  # atno 8010 bound_to 7997
  139.6635  144.7128  151.1820 H   0  0  0  0  0  0  0  0  0  0  0  0  # atno 10167 bound_to 10162
  156.7686  130.5292  149.5771 H   0  0  0  0  0  0  0  0  0  0  0  0  # atno 10718 bound_to 10713
  154.3677  135.6102  153.5724 H   0  0  0  0  0  0  0  0  0  0  0  0  # atno 10763 bound_to 10752
  152.9791  135.5830  154.4558 H   0  0  0  0  0  0  0  0  0  0  0  0  # atno 10764 bound_to 10752
  154.4307  135.2848  155.1892 H   0  0  0  0  0  0  0  0  0  0  0  0  # atno 10765 bound_to 10752
  140.9631  133.7153  156.1401 H   0  0  0  0  0  0  0  0  0  0  0  0  # atno 11005 bound_to 11000
  146.3462  139.9486  142.8732 LP  0  0  0  0  0  0  0  0  0  0  0  0  # atno 17320 bound_to 7965
  145.2080  140.9883  143.4117 LP  0  0  0  0  0  0  0  0  0  0  0  0  # atno 17321 bound_to 7965
  140.7590  143.5956  150.8752 LP  0  0  0  0  0  0  0  0  0  0  0  0  # atno 17342 bound_to 10162
  139.9615  143.6158  152.3001 LP  0  0  0  0  0  0  0  0  0  0  0  0  # atno 17343 bound_to 10162
  156.1292  130.6166  151.0309 LP  0  0  0  0  0  0  0  0  0  0  0  0  # atno 17370 bound_to 10713
  157.6701  131.0863  150.7632 LP  0  0  0  0  0  0  0  0  0  0  0  0  # atno 17371 bound_to 10713
  140.7438  134.4120  157.5551 LP  0  0  0  0  0  0  0  0  0  0  0  0  # atno 17394 bound_to 11000
  139.8885  134.8855  156.2471 LP  0  0  0  0  0  0  0  0  0  0  0  0  # atno 17395 bound_to 11000

$$$$
