AV-unprocessed.smi:197|AV-procd|sdf|1545|dock3
  -GOLD-   2262019403D 1   1.00000     0.00000
 Structure written by MMmdl.
 54 57  0  0  0  0  0  0  0  0  1 V2000
  152.1669  140.7423  157.7829 C   0  0  0  0  0  0  0  0  0  0  0  0
  152.6186  139.7699  156.8530 O   0  0  0  0  0  0  0  0  0  0  0  0
  151.8017  138.6094  156.7785 C   0  0  0  0  0  0  0  0  0  0  0  0
  150.7339  138.7356  155.6762 C   0  0  0  0  0  0  0  0  0  0  0  0
  149.3531  139.2074  156.1949 C   0  0  1  0  0  0  0  0  0  0  0  0
  149.3651  140.6629  156.7121 C   0  0  0  0  0  0  0  0  0  0  0  0
  149.5505  141.5670  155.6273 O   0  0  0  0  0  0  0  0  0  0  0  0
  148.4834  141.4965  154.6877 C   0  0  0  0  0  0  0  0  0  0  0  0
  148.4025  140.0804  154.0952 C   0  0  0  0  0  0  0  0  0  0  0  0
  148.3123  139.0910  155.1685 N   0  0  0  0  0  0  0  0  0  0  0  0
  147.9105  137.8325  154.8482 C   0  0  0  0  0  0  0  0  0  0  0  0
  148.6003  136.7637  155.3302 N   0  0  0  0  0  0  0  0  0  0  0  0
  148.2087  135.5194  155.0427 C   0  0  0  0  0  0  0  0  0  0  0  0
  147.1730  135.1212  154.3024 N   0  0  0  0  0  0  0  0  0  0  0  0
  146.4793  136.1863  153.8090 C   0  0  0  0  0  0  0  0  0  0  0  0
  146.7792  137.5616  154.0259 C   0  0  0  0  0  0  0  0  0  0  0  0
  145.8652  138.3550  153.3417 N   0  0  0  0  0  0  0  0  0  0  0  0
  145.0668  137.4999  152.7645 C   0  0  0  0  0  0  0  0  0  0  0  0
  145.3539  136.1754  153.0032 N   0  0  0  0  0  0  0  0  0  0  0  0
  144.6313  135.0226  152.4881 C   0  0  0  0  0  0  0  0  0  0  0  0
  145.3176  134.3338  151.2759 C   0  0  1  0  0  0  0  0  0  0  0  0
  145.2112  135.1626  150.1341 O   0  0  0  0  0  0  0  0  0  0  0  0
  146.7864  133.9972  151.5048 C   0  0  0  0  0  0  0  0  0  0  0  0
  146.7103  132.6711  152.2553 C   0  0  0  0  0  0  0  0  0  0  0  0
  145.5201  132.0367  151.7963 O   0  0  0  0  0  0  0  0  0  0  0  0
  144.7761  132.9249  150.9659 C   0  0  1  0  0  0  0  0  0  0  0  0
  143.2668  132.7075  151.1516 C   0  0  0  0  0  0  0  0  0  0  0  0
  152.8249  141.6103  157.7451 H   0  0  0  0  0  0  0  0  0  0  0  0
  152.1766  140.3678  158.8061 H   0  0  0  0  0  0  0  0  0  0  0  0
  151.1577  141.0793  157.5433 H   0  0  0  0  0  0  0  0  0  0  0  0
  152.4102  137.7144  156.6397 H   0  0  0  0  0  0  0  0  0  0  0  0
  151.3174  138.5067  157.7486 H   0  0  0  0  0  0  0  0  0  0  0  0
  151.0960  139.4079  154.8978 H   0  0  0  0  0  0  0  0  0  0  0  0
  150.6136  137.7637  155.1993 H   0  0  0  0  0  0  0  0  0  0  0  0
  149.0902  138.5746  157.0405 H   0  0  0  0  0  0  0  0  0  0  0  0
  148.4275  140.8914  157.2214 H   0  0  0  0  0  0  0  0  0  0  0  0
  150.1533  140.8184  157.4469 H   0  0  0  0  0  0  0  0  0  0  0  0
  147.5435  141.7680  155.1710 H   0  0  0  0  0  0  0  0  0  0  0  0
  148.6561  142.2258  153.8963 H   0  0  0  0  0  0  0  0  0  0  0  0
  147.5307  140.0114  153.4432 H   0  0  0  0  0  0  0  0  0  0  0  0
  149.2810  139.8789  153.4814 H   0  0  0  0  0  0  0  0  0  0  0  0
  148.8103  134.7299  155.4686 H   0  0  0  0  0  0  0  0  0  0  0  0
  144.2356  137.8139  152.1499 H   0  0  0  0  0  0  0  0  0  0  0  0
  144.5070  134.3126  153.3066 H   0  0  0  0  0  0  0  0  0  0  0  0
  143.6270  135.3522  152.2194 H   0  0  0  0  0  0  0  0  0  0  0  0
  145.7047  134.7693  149.4307 H   0  0  0  0  0  0  0  0  0  0  0  0
  147.2879  133.8305  150.5496 H   0  0  0  0  0  0  0  0  0  0  0  0
  147.3551  134.7598  152.0346 H   0  0  0  0  0  0  0  0  0  0  0  0
  147.5866  132.0465  152.0810 H   0  0  0  0  0  0  0  0  0  0  0  0
  146.6240  132.8414  153.3291 H   0  0  0  0  0  0  0  0  0  0  0  0
  145.0381  132.6667  149.9379 H   0  0  0  0  0  0  0  0  0  0  0  0
  142.6933  133.4076  150.5437 H   0  0  0  0  0  0  0  0  0  0  0  0
  142.9646  132.8341  152.1911 H   0  0  0  0  0  0  0  0  0  0  0  0
  142.9835  131.6988  150.8511 H   0  0  0  0  0  0  0  0  0  0  0  0
  1  2  1  0  0  0  0
  1 28  1  0  0  0  0
  1 29  1  0  0  0  0
  1 30  1  0  0  0  0
  2  3  1  0  0  0  0
  3  4  1  0  0  0  0
  3 31  1  0  0  0  0
  3 32  1  0  0  0  0
  4  5  1  0  0  0  0
  4 33  1  0  0  0  0
  4 34  1  0  0  0  0
  5 10  1  0  0  0  0
  5  6  1  0  0  0  0
  5 35  1  0  0  0  0
  6  7  1  0  0  0  0
  6 36  1  0  0  0  0
  6 37  1  0  0  0  0
  7  8  1  0  0  0  0
  8  9  1  0  0  0  0
  8 38  1  0  0  0  0
  8 39  1  0  0  0  0
  9 10  1  0  0  0  0
  9 40  1  0  0  0  0
  9 41  1  0  0  0  0
 10 11  1  0  0  0  0
 11 16  1  0  0  0  0
 11 12  2  0  0  0  0
 12 13  1  0  0  0  0
 13 14  2  0  0  0  0
 13 42  1  0  0  0  0
 14 15  1  0  0  0  0
 15 19  1  0  0  0  0
 15 16  2  0  0  0  0
 16 17  1  0  0  0  0
 17 18  2  0  0  0  0
 18 19  1  0  0  0  0
 18 43  1  0  0  0  0
 19 20  1  0  0  0  0
 20 21  1  0  0  0  0
 20 44  1  0  0  0  0
 20 45  1  0  0  0  0
 21 26  1  0  0  0  0
 21 22  1  0  0  0  0
 21 23  1  0  0  0  0
 22 46  1  0  0  0  0
 23 24  1  0  0  0  0
 23 47  1  0  0  0  0
 23 48  1  0  0  0  0
 24 25  1  0  0  0  0
 24 49  1  0  0  0  0
 24 50  1  0  0  0  0
 25 26  1  0  0  0  0
 26 27  1  0  0  0  0
 26 51  1  0  0  0  0
 27 52  1  0  0  0  0
 27 53  1  0  0  0  0
 27 54  1  0  0  0  0
M  END
> <s_m_source_file>
AV-unprocessed.smi

> <i_m_source_file_index>
197

> <i_lp_mmshare_version>
43012

> <i_f3d_flags>
0

> <s_epik_input>
W0NIM11PW0NIMl1bQ0gyXVtDQEBIXTFbQ0gyXU9bQ0gyXVtDSDJdTjFjKG5bY0hdbjIpYyhjMjMpbltjSF1uM1tDSDJdW0NAQF00KFtPSF0pW0NIMl1bQ0gyXU9bQ0BIXTRbQ0gzXQ==

> <s_epik_cmdline>
J2VwaWtfcHl0aG9uJywgJy1waCcsICc3LjAnLCAnLXRuJywgJzgnLCAnLW1hJywgJzIwMCcsICctbWV0YWxfYmluZGluZycsICctaW1hZScsICc8aW5maWxlLm1hZT4nLCAnLW9tYWUnLCAnPG91dGZpbGUubWFlPic=

> <r_lp_tautomer_probability>
1

> <r_epik_Ionization_Penalty>
0.000106218

> <r_epik_Ionization_Penalty_Charging>
0

> <r_epik_Ionization_Penalty_Neutral>
0.000106218

> <r_epik_State_Penalty>
-0

> <r_epik_Charging_Adjusted_Penalty>
0

> <i_epik_Tot_Q>
0

> <i_epik_Tot_abs_Q>
0

> <r_epik_Metal_State_Penalty>
-0

> <b_epik_Metal_Only>
0

> <s_lp_Force_Field>
OPLS_2005

> <r_lp_Energy>
43.0465

> <b_lp_Chiralities_Consistent>
1

> <s_lp_Variant>
AV-unprocessed.smi:197-2

> <Gold.Version>
5.8.1

> <Gold.Id.Protein>
6NUR|6NUR_protein|mol2

> <Gold.PLP.Fitness>
36.3400

> <Gold.PLP.PLP>
-27.7932

> <Gold.PLP.part.hbond>
-2.0000

> <Gold.PLP.part.metal>
0.0000

> <Gold.PLP.part.buried>
-3.6735

> <Gold.PLP.part.nonpolar>
-21.9132

> <Gold.PLP.part.repulsive>
0.7057

> <Gold.PLP.ligand.clash>
0.0000

> <Gold.PLP.ligand.torsion>
1.1023

> <Gold.PLP.Chemscore.Hbond>
1.9920

> <Gold.PLP.Chemscore.CHOScore>
1.3903

> <Gold.PLP.Chemscore.Metal>
0.0000

> <Gold.Chemscore.Hbonds>
donor molecule, donor type, donor heavy atom, donor atom, acceptor molecule, acceptor atom, score
      L1  H    22    46       P1  7921  0.93
      P1  H  7997  8009       L1     2  1.00
      L1  C    18    43       P1 10171  1.00
      L1  C    18    43       P1 10175  0.38

> <Gold.PLP.Chemscore.Internal.Correction>
0.6046

> <Gold.Rescore>
     Score         DG    S(hbond)    S(metal)    S(lipo)     H(rot)  DE(clash)    DE(int)     intcor
      9.43     -13.33       1.93        0.00      73.94       2.84       0.25       3.65       ----

> <Gold.Chemscore.Fitness>
9.4264

> <Gold.Chemscore.DG>
-13.3319

> <Gold.Chemscore.ZeroCoef>
-5.4800

> <Gold.Chemscore.Hbond>
1.9344

> <Gold.Chemscore.Metal>
0.0000

> <Gold.Chemscore.Lipo>
73.9357

> <Gold.Chemscore.Internal_Hbond>
0.0000

> <Gold.Chemscore.DEClash>
0.2541

> <Gold.Chemscore.DEInternal>
3.6514

> <Gold.Chemscore.Rot>
2.8358

> <Gold.Chemscore.Internal.Correction>
   9.000000E+99

> <Gold.Chemscore.Hbonds>
donor molecule, donor type, donor heavy atom, donor atom, acceptor molecule, acceptor atom, score
      L1  H    22    46       P1  7921  0.86
      P1  H  7997  8009       L1     2  0.60

> <Gold.Chemscore.Hbond.Weighted>
-6.4610

> <Gold.Chemscore.Metal.Weighted>
-0.0000

> <Gold.Chemscore.Lipo.Weighted>
-8.6505

> <Gold.Chemscore.Internal_Hbond.Weighted>
0.0000

> <Gold.Chemscore.DEClash.Weighted>
0.2541

> <Gold.Chemscore.DEInternal.Weighted>
3.6514

> <Gold.Chemscore.Rot.Weighted>
7.2596

> <Gold.Chemscore.Internal.Correction.Weighted>
   9.000000E+99

> <Gold.Protein.RotatedTorsions>
[ 6907 6896 6895 6894 ] final   95.08 input  -60.11 | X-H torsion
[ 7974 7965 7964 7962 ] final  132.48 input  175.53 | X-H torsion
[ 8008 7997 7996 7995 ] final -172.84 input   59.86 | X-H torsion
[ 10167 10162 10161 10158 ] final  -74.02 input  -65.29 | X-H torsion
[ 10718 10713 10712 10709 ] final    0.06 input   66.30 | X-H torsion
[ 10763 10752 10751 10750 ] final  -87.36 input  -60.55 | X-H torsion
[ 11005 11000 10999 10996 ] final   95.79 input  -57.11 | X-H torsion

> <Gold.Protein.ActiveResidues>
 VAL166  LYS551  ARG553  GLY616  TRP617  ASP618  TYR619  PRO620  LYS621  CYS622 
 ASP623  PHE694  ASN695  SER759  ASP760  ASP761  ALA762  ILE779  LEU786  VAL792 
 PHE793  MET794  SER795  GLU796  ALA797  LYS798  CYS799  TRP800  GLU811  SER814 

> <Gold.Protein.RotatedAtoms>
  152.5446  134.1095  159.8352 H   0  0  0  0  0  0  0  0  0  0  0  0  # atno 6907 bound_to 6896
  151.1164  133.5128  159.2611 H   0  0  0  0  0  0  0  0  0  0  0  0  # atno 6908 bound_to 6896
  151.1828  135.0378  159.8854 H   0  0  0  0  0  0  0  0  0  0  0  0  # atno 6909 bound_to 6896
  144.9964  139.4355  143.5314 H   0  0  0  0  0  0  0  0  0  0  0  0  # atno 7974 bound_to 7965
  155.9497  140.1124  157.0987 H   0  0  0  0  0  0  0  0  0  0  0  0  # atno 8008 bound_to 7997
  154.4107  140.1203  156.5103 H   0  0  0  0  0  0  0  0  0  0  0  0  # atno 8009 bound_to 7997
  155.6857  140.3473  155.4875 H   0  0  0  0  0  0  0  0  0  0  0  0  # atno 8010 bound_to 7997
  140.5062  143.2352  151.7670 H   0  0  0  0  0  0  0  0  0  0  0  0  # atno 10167 bound_to 10162
  156.8278  130.5478  149.5690 H   0  0  0  0  0  0  0  0  0  0  0  0  # atno 10718 bound_to 10713
  154.6328  135.5416  153.7699 H   0  0  0  0  0  0  0  0  0  0  0  0  # atno 10763 bound_to 10752
  153.0293  135.6440  154.1276 H   0  0  0  0  0  0  0  0  0  0  0  0  # atno 10764 bound_to 10752
  154.1205  135.2920  155.3189 H   0  0  0  0  0  0  0  0  0  0  0  0  # atno 10765 bound_to 10752
  139.8786  134.8917  156.4064 H   0  0  0  0  0  0  0  0  0  0  0  0  # atno 11005 bound_to 11000
  146.3443  139.9326  142.8751 LP  0  0  0  0  0  0  0  0  0  0  0  0  # atno 17320 bound_to 7965
  145.2214  140.9936  143.4043 LP  0  0  0  0  0  0  0  0  0  0  0  0  # atno 17321 bound_to 7965
  139.4884  144.4454  151.9716 LP  0  0  0  0  0  0  0  0  0  0  0  0  # atno 17342 bound_to 10162
  140.3545  144.3049  150.5943 LP  0  0  0  0  0  0  0  0  0  0  0  0  # atno 17343 bound_to 10162
  156.0951  130.5926  150.9800 LP  0  0  0  0  0  0  0  0  0  0  0  0  # atno 17370 bound_to 10713
  157.6423  131.0908  150.8226 LP  0  0  0  0  0  0  0  0  0  0  0  0  # atno 17371 bound_to 10713
  140.9231  133.7631  155.9931 LP  0  0  0  0  0  0  0  0  0  0  0  0  # atno 17394 bound_to 11000
  140.8416  134.3059  157.5311 LP  0  0  0  0  0  0  0  0  0  0  0  0  # atno 17395 bound_to 11000

$$$$
