AV-unprocessed.smi:694|AV-procd|sdf|3383|dock7
  -GOLD-   22720 0363D 1   1.00000     0.00000
 Structure written by MMmdl.
 42 43  0  0  0  0  0  0  0  0  1 V2000
  151.7137  140.0415  155.8972 C   0  0  0  0  0  0  0  0  0  0  0  0
  150.4981  140.8224  155.6904 N   0  0  0  0  0  0  0  0  0  0  0  0
  150.3555  142.1258  156.3271 C   0  0  0  0  0  0  0  0  0  0  0  0
  149.4437  140.2908  154.9130 C   0  0  0  0  0  0  0  0  0  0  0  0
  148.4316  141.1217  154.3718 C   0  0  0  0  0  0  0  0  0  0  0  0
  147.4058  140.5424  153.6012 C   0  0  0  0  0  0  0  0  0  0  0  0
  147.4117  139.1528  153.3765 C   0  0  0  0  0  0  0  0  0  0  0  0
  146.3555  138.5944  152.6076 N   0  0  0  0  0  0  0  0  0  0  0  0
  145.8892  137.3341  152.6219 C   0  0  0  0  0  0  0  0  0  0  0  0
  146.3289  136.4209  153.3204 O   0  0  0  0  0  0  0  0  0  0  0  0
  144.8846  137.1805  151.7476 N   0  0  0  0  0  0  0  0  0  0  0  0
  144.1764  135.9318  151.4817 C   0  0  0  0  0  0  0  0  0  0  0  0
  145.0814  134.8981  150.7821 C   0  0  1  0  0  0  0  0  0  0  0  0
  146.0566  134.1664  151.7168 C   0  0  0  0  0  0  0  0  0  0  0  0
  146.3623  132.8172  151.0489 C   0  0  0  0  0  0  0  0  0  0  0  0
  145.3763  132.6789  149.8815 C   0  0  0  0  0  0  0  0  0  0  0  0
  144.3108  133.7508  150.1224 C   0  0  2  0  0  0  0  0  0  0  0  0
  143.6930  134.1457  148.9152 O   0  0  0  0  0  0  0  0  0  0  0  0
  148.4531  138.3994  153.9669 C   0  0  0  0  0  0  0  0  0  0  0  0
  149.4369  138.9510  154.7077 N   0  0  0  0  0  0  0  0  0  0  0  0
  151.4912  139.1306  156.4538 H   0  0  0  0  0  0  0  0  0  0  0  0
  152.4585  140.6048  156.4597 H   0  0  0  0  0  0  0  0  0  0  0  0
  152.1606  139.7640  154.9420 H   0  0  0  0  0  0  0  0  0  0  0  0
  150.2304  142.9066  155.5763 H   0  0  0  0  0  0  0  0  0  0  0  0
  151.2338  142.3746  156.9227 H   0  0  0  0  0  0  0  0  0  0  0  0
  149.4907  142.1366  156.9912 H   0  0  0  0  0  0  0  0  0  0  0  0
  148.4212  142.1893  154.5301 H   0  0  0  0  0  0  0  0  0  0  0  0
  146.6268  141.1638  153.1836 H   0  0  0  0  0  0  0  0  0  0  0  0
  145.9476  139.2109  151.9203 H   0  0  0  0  0  0  0  0  0  0  0  0
  144.5932  137.9866  151.2144 H   0  0  0  0  0  0  0  0  0  0  0  0
  143.7555  135.5161  152.3989 H   0  0  0  0  0  0  0  0  0  0  0  0
  143.3272  136.1663  150.8396 H   0  0  0  0  0  0  0  0  0  0  0  0
  145.6692  135.4038  150.0135 H   0  0  0  0  0  0  0  0  0  0  0  0
  146.9597  134.7483  151.9030 H   0  0  0  0  0  0  0  0  0  0  0  0
  145.5828  133.9849  152.6824 H   0  0  0  0  0  0  0  0  0  0  0  0
  147.3909  132.7766  150.6889 H   0  0  0  0  0  0  0  0  0  0  0  0
  146.2359  132.0049  151.7655 H   0  0  0  0  0  0  0  0  0  0  0  0
  145.9037  132.8794  148.9474 H   0  0  0  0  0  0  0  0  0  0  0  0
  144.9509  131.6775  149.8092 H   0  0  0  0  0  0  0  0  0  0  0  0
  143.5538  133.3670  150.8081 H   0  0  0  0  0  0  0  0  0  0  0  0
  142.7630  134.2204  149.0649 H   0  0  0  0  0  0  0  0  0  0  0  0
  148.5078  137.3260  153.8743 H   0  0  0  0  0  0  0  0  0  0  0  0
  1  2  1  0  0  0  0
  1 21  1  0  0  0  0
  1 22  1  0  0  0  0
  1 23  1  0  0  0  0
  2  3  1  0  0  0  0
  2  4  1  0  0  0  0
  3 24  1  0  0  0  0
  3 25  1  0  0  0  0
  3 26  1  0  0  0  0
  4 20  1  0  0  0  0
  4  5  2  0  0  0  0
  5  6  1  0  0  0  0
  5 27  1  0  0  0  0
  6  7  2  0  0  0  0
  6 28  1  0  0  0  0
  7  8  1  0  0  0  0
  7 19  1  0  0  0  0
  8  9  1  0  0  0  0
  8 29  1  0  0  0  0
  9 10  2  0  0  0  0
  9 11  1  0  0  0  0
 11 12  1  0  0  0  0
 11 30  1  0  0  0  0
 12 13  1  0  0  0  0
 12 31  1  0  0  0  0
 12 32  1  0  0  0  0
 13 17  1  0  0  0  0
 13 14  1  0  0  0  0
 13 33  1  0  0  0  0
 14 15  1  0  0  0  0
 14 34  1  0  0  0  0
 14 35  1  0  0  0  0
 15 16  1  0  0  0  0
 15 36  1  0  0  0  0
 15 37  1  0  0  0  0
 16 17  1  0  0  0  0
 16 38  1  0  0  0  0
 16 39  1  0  0  0  0
 17 18  1  0  0  0  0
 17 40  1  0  0  0  0
 18 41  1  0  0  0  0
 19 20  2  0  0  0  0
 19 42  1  0  0  0  0
M  END
> <s_m_source_file>
AV-unprocessed.smi

> <i_m_source_file_index>
694

> <i_lp_mmshare_version>
43012

> <i_f3d_flags>
0

> <s_epik_input>
W0NIM11OKFtDSDNdKWMxW2NIXVtjSF1jKFtjSF1uMSlbTkhdQyg9TylbTkhdW0NIMl1bQ0BASF0yW0NIMl1bQ0gyXVtDSDJdW0NASF0yW09IXQ==

> <s_epik_cmdline>
J2VwaWtfcHl0aG9uJywgJy1waCcsICc3LjAnLCAnLXRuJywgJzgnLCAnLW1hJywgJzIwMCcsICctbWV0YWxfYmluZGluZycsICctaW1hZScsICc8aW5maWxlLm1hZT4nLCAnLW9tYWUnLCAnPG91dGZpbGUubWFlPic=

> <r_lp_tautomer_probability>
1

> <r_epik_Ionization_Penalty>
0.60335

> <r_epik_Ionization_Penalty_Charging>
0

> <r_epik_Ionization_Penalty_Neutral>
0.60335

> <r_epik_State_Penalty>
0.616805

> <r_epik_Charging_Adjusted_Penalty>
0.616805

> <i_epik_Tot_Q>
0

> <i_epik_Tot_abs_Q>
0

> <r_epik_Metal_State_Penalty>
0.301709

> <b_epik_Metal_Only>
0

> <s_lp_Force_Field>
OPLS_2005

> <r_lp_Energy>
25.3577

> <b_lp_Chiralities_Consistent>
1

> <s_lp_Variant>
AV-unprocessed.smi:694-8

> <Gold.Version>
5.8.1

> <Gold.Id.Protein>
6NUR|6NUR_protein|mol2

> <Gold.PLP.Fitness>
44.3433

> <Gold.PLP.PLP>
-36.7360

> <Gold.PLP.part.hbond>
-3.1805

> <Gold.PLP.part.metal>
0.0000

> <Gold.PLP.part.buried>
-0.8098

> <Gold.PLP.part.nonpolar>
-33.4731

> <Gold.PLP.part.repulsive>
1.1681

> <Gold.PLP.ligand.clash>
0.0000

> <Gold.PLP.ligand.torsion>
0.4661

> <Gold.PLP.Chemscore.Hbond>
1.9920

> <Gold.PLP.Chemscore.CHOScore>
0.8519

> <Gold.PLP.Chemscore.Metal>
0.0000

> <Gold.Chemscore.Hbonds>
donor molecule, donor type, donor heavy atom, donor atom, acceptor molecule, acceptor atom, score
      L1  H    11    30       P1 10171  0.96
      L1  H    18    41       P1 10186  1.00
      L1  C    19    42       P1  7948  0.86

> <Gold.PLP.Chemscore.Internal.Correction>
0.0077

> <Gold.Rescore>
     Score         DG    S(hbond)    S(metal)    S(lipo)     H(rot)  DE(clash)    DE(int)     intcor
     13.88     -17.01       1.96        0.00      80.34       1.73       0.18       2.96       ----

> <Gold.Chemscore.Fitness>
13.8752

> <Gold.Chemscore.DG>
-17.0148

> <Gold.Chemscore.ZeroCoef>
-5.4800

> <Gold.Chemscore.Hbond>
1.9620

> <Gold.Chemscore.Metal>
0.0000

> <Gold.Chemscore.Lipo>
80.3429

> <Gold.Chemscore.Internal_Hbond>
0.0000

> <Gold.Chemscore.DEClash>
0.1801

> <Gold.Chemscore.DEInternal>
2.9595

> <Gold.Chemscore.Rot>
1.7259

> <Gold.Chemscore.Internal.Correction>
   9.000000E+99

> <Gold.Chemscore.Hbonds>
donor molecule, donor type, donor heavy atom, donor atom, acceptor molecule, acceptor atom, score
      L1  H    11    30       P1 10171  0.92
      L1  H    18    41       P1 10186  1.00

> <Gold.Chemscore.Hbond.Weighted>
-6.5531

> <Gold.Chemscore.Metal.Weighted>
-0.0000

> <Gold.Chemscore.Lipo.Weighted>
-9.4001

> <Gold.Chemscore.Internal_Hbond.Weighted>
0.0000

> <Gold.Chemscore.DEClash.Weighted>
0.1801

> <Gold.Chemscore.DEInternal.Weighted>
2.9595

> <Gold.Chemscore.Rot.Weighted>
4.4184

> <Gold.Chemscore.Internal.Correction.Weighted>
   9.000000E+99

> <Gold.Protein.RotatedTorsions>
[ 6907 6896 6895 6894 ] final -165.52 input  -60.11 | X-H torsion
[ 7974 7965 7964 7962 ] final  -50.59 input  175.53 | X-H torsion
[ 8008 7997 7996 7995 ] final   37.35 input   59.86 | X-H torsion
[ 10167 10162 10161 10158 ] final -127.64 input  -65.29 | X-H torsion
[ 10718 10713 10712 10709 ] final   -4.70 input   66.30 | X-H torsion
[ 10763 10752 10751 10750 ] final  153.16 input  -60.55 | X-H torsion
[ 11005 11000 10999 10996 ] final -159.40 input  -57.11 | X-H torsion

> <Gold.Protein.ActiveResidues>
 VAL166  LYS551  ARG553  GLY616  TRP617  ASP618  TYR619  PRO620  LYS621  CYS622 
 ASP623  PHE694  ASN695  SER759  ASP760  ASP761  ALA762  ILE779  LEU786  VAL792 
 PHE793  MET794  SER795  GLU796  ALA797  LYS798  CYS799  TRP800  GLU811  SER814 

> <Gold.Protein.RotatedAtoms>
  151.4290  133.3675  159.2766 H   0  0  0  0  0  0  0  0  0  0  0  0  # atno 6907 bound_to 6896
  150.9238  134.8657  159.7517 H   0  0  0  0  0  0  0  0  0  0  0  0  # atno 6908 bound_to 6896
  152.4995  134.4230  159.9539 H   0  0  0  0  0  0  0  0  0  0  0  0  # atno 6909 bound_to 6896
  145.9282  140.7773  142.9613 H   0  0  0  0  0  0  0  0  0  0  0  0  # atno 7974 bound_to 7965
  155.2023  140.3317  155.4341 H   0  0  0  0  0  0  0  0  0  0  0  0  # atno 8008 bound_to 7997
  156.2402  140.1891  156.7059 H   0  0  0  0  0  0  0  0  0  0  0  0  # atno 8009 bound_to 7997
  154.6133  140.0606  156.9507 H   0  0  0  0  0  0  0  0  0  0  0  0  # atno 8010 bound_to 7997
  139.9587  143.5974  152.2452 H   0  0  0  0  0  0  0  0  0  0  0  0  # atno 10167 bound_to 10162
  156.7575  130.5259  149.5791 H   0  0  0  0  0  0  0  0  0  0  0  0  # atno 10718 bound_to 10713
  154.1317  135.2826  155.3183 H   0  0  0  0  0  0  0  0  0  0  0  0  # atno 10763 bound_to 10752
  154.6350  135.5422  153.7727 H   0  0  0  0  0  0  0  0  0  0  0  0  # atno 10764 bound_to 10752
  153.0279  135.6472  154.1467 H   0  0  0  0  0  0  0  0  0  0  0  0  # atno 10765 bound_to 10752
  140.6430  134.4531  157.5234 H   0  0  0  0  0  0  0  0  0  0  0  0  # atno 11005 bound_to 11000
  144.6761  140.2085  143.7379 LP  0  0  0  0  0  0  0  0  0  0  0  0  # atno 17320 bound_to 7965
  145.8461  139.2153  143.1799 LP  0  0  0  0  0  0  0  0  0  0  0  0  # atno 17321 bound_to 7965
  139.6571  144.7662  151.2035 LP  0  0  0  0  0  0  0  0  0  0  0  0  # atno 17342 bound_to 10162
  140.7560  143.6069  150.8644 LP  0  0  0  0  0  0  0  0  0  0  0  0  # atno 17343 bound_to 10162
  156.1361  130.6212  151.0402 LP  0  0  0  0  0  0  0  0  0  0  0  0  # atno 17370 bound_to 10713
  157.6749  131.0852  150.7518 LP  0  0  0  0  0  0  0  0  0  0  0  0  # atno 17371 bound_to 10713
  139.9073  134.8421  156.1658 LP  0  0  0  0  0  0  0  0  0  0  0  0  # atno 17394 bound_to 11000
  141.0593  133.6850  156.1920 LP  0  0  0  0  0  0  0  0  0  0  0  0  # atno 17395 bound_to 11000

$$$$
