AV-unprocessed.smi:3167|AV-procd|sdf|12098|dock9
  -GOLD-   2272017533D 1   1.00000     0.00000
 Structure written by MMmdl.
 37 38  0  0  0  0  0  0  0  0  2 V2000
  146.9637  139.1543  150.8839 C   0  0  0  0  0  0  0  0  0  0  0  0
  146.8180  139.0249  152.4173 C   0  0  1  0  0  0  0  0  0  0  0  0
  145.7517  137.9629  152.7791 C   0  0  0  0  0  0  0  0  0  0  0  0
  146.0794  136.6505  152.2342 N   0  0  0  0  0  0  0  0  0  0  0  0
  145.1738  135.7057  151.9492 C   0  0  0  0  0  0  0  0  0  0  0  0
  143.9635  135.8554  152.1176 O   0  0  0  0  0  0  0  0  0  0  0  0
  145.7576  134.5970  151.4655 N   0  0  0  0  0  0  0  0  0  0  0  0
  145.1210  133.3979  151.0562 C   0  0  0  0  0  0  0  0  0  0  0  0
  145.7867  132.1602  150.8429 C   0  0  0  0  0  0  0  0  0  0  0  0
  144.9394  131.2139  150.4650 N   0  0  0  0  0  0  0  0  0  0  0  0
  143.7391  131.8357  150.4340 N   0  0  0  0  0  0  0  0  0  0  0  0
  143.8015  133.1660  150.7862 C   0  0  0  0  0  0  0  0  0  0  0  0
  148.1249  138.6992  153.0592 N   0  3  0  0  0  0  0  0  0  0  0  0
  149.1009  139.8090  153.1316 C   0  0  0  0  0  0  0  0  0  0  0  0
  150.0839  139.4026  154.2227 C   0  0  0  0  0  0  0  0  0  0  0  0
  149.1920  138.7114  155.2468 C   0  0  0  0  0  0  0  0  0  0  0  0
  148.0338  138.1261  154.4270 C   0  0  0  0  0  0  0  0  0  0  0  0
  142.8962  131.3445  150.1726 H   0  0  0  0  0  0  0  0  0  0  0  0
  146.0122  139.3848  150.4049 H   0  0  0  0  0  0  0  0  0  0  0  0
  147.3372  138.2295  150.4432 H   0  0  0  0  0  0  0  0  0  0  0  0
  147.6447  139.9574  150.6033 H   0  0  0  0  0  0  0  0  0  0  0  0
  146.4895  139.9907  152.8053 H   0  0  0  0  0  0  0  0  0  0  0  0
  145.6561  137.8869  153.8636 H   0  0  0  0  0  0  0  0  0  0  0  0
  144.7703  138.2443  152.3958 H   0  0  0  0  0  0  0  0  0  0  0  0
  147.0544  136.4483  152.0670 H   0  0  0  0  0  0  0  0  0  0  0  0
  146.7635  134.6098  151.3813 H   0  0  0  0  0  0  0  0  0  0  0  0
  146.8348  131.9219  150.9475 H   0  0  0  0  0  0  0  0  0  0  0  0
  142.9273  133.7992  150.8094 H   0  0  0  0  0  0  0  0  0  0  0  0
  149.6001  139.9781  152.1770 H   0  0  0  0  0  0  0  0  0  0  0  0
  148.5917  140.7301  153.4204 H   0  0  0  0  0  0  0  0  0  0  0  0
  150.8101  138.6931  153.8233 H   0  0  0  0  0  0  0  0  0  0  0  0
  150.6316  140.2488  154.6385 H   0  0  0  0  0  0  0  0  0  0  0  0
  149.7264  137.9534  155.8201 H   0  0  0  0  0  0  0  0  0  0  0  0
  148.8058  139.4481  155.9525 H   0  0  0  0  0  0  0  0  0  0  0  0
  147.0860  138.3726  154.9076 H   0  0  0  0  0  0  0  0  0  0  0  0
  148.1022  137.0396  154.3644 H   0  0  0  0  0  0  0  0  0  0  0  0
  148.5634  137.9887  152.4906 H   0  0  0  0  0  0  0  0  0  0  0  0
  1  2  1  0  0  0  0
  1 19  1  0  0  0  0
  1 20  1  0  0  0  0
  1 21  1  0  0  0  0
  2  3  1  0  0  0  0
  2 13  1  0  0  0  0
  2 22  1  0  0  0  0
  3  4  1  0  0  0  0
  3 23  1  0  0  0  0
  3 24  1  0  0  0  0
  4  5  1  0  0  0  0
  4 25  1  0  0  0  0
  5  6  2  0  0  0  0
  5  7  1  0  0  0  0
  7  8  1  0  0  0  0
  7 26  1  0  0  0  0
  8 12  2  0  0  0  0
  8  9  1  0  0  0  0
  9 10  2  0  0  0  0
  9 27  1  0  0  0  0
 10 11  1  0  0  0  0
 11 18  1  0  0  0  0
 11 12  1  0  0  0  0
 12 28  1  0  0  0  0
 13 17  1  0  0  0  0
 13 14  1  0  0  0  0
 13 37  1  0  0  0  0
 14 15  1  0  0  0  0
 14 29  1  0  0  0  0
 14 30  1  0  0  0  0
 15 16  1  0  0  0  0
 15 31  1  0  0  0  0
 15 32  1  0  0  0  0
 16 17  1  0  0  0  0
 16 33  1  0  0  0  0
 16 34  1  0  0  0  0
 17 35  1  0  0  0  0
 17 36  1  0  0  0  0
M  CHG  1  13   1
M  END
> <s_m_source_file>
AV-unprocessed.smi

> <i_m_source_file_index>
3167

> <i_lp_mmshare_version>
43012

> <i_f3d_flags>
0

> <s_epik_input>
W0NIMl0xW0NIMl1bQ0gyXVtDSDJdTjFbQ0BIXShbQ0gzXSlbQ0gyXVtOSF1DKD1PKVtOSF1jMltjSF1uW25IXVtjSF0y

> <s_epik_cmdline>
J2VwaWtfcHl0aG9uJywgJy1waCcsICc3LjAnLCAnLXRuJywgJzgnLCAnLW1hJywgJzIwMCcsICctbWV0YWxfYmluZGluZycsICctaW1hZScsICc8aW5maWxlLm1hZT4nLCAnLW9tYWUnLCAnPG91dGZpbGUubWFlPic=

> <r_lp_tautomer_probability>
0.5

> <r_epik_Ionization_Penalty>
0.000801258

> <r_epik_Ionization_Penalty_Charging>
0.000761583

> <r_epik_Ionization_Penalty_Neutral>
3.96747e-05

> <r_epik_State_Penalty>
0.000487427

> <r_epik_Charging_Adjusted_Penalty>
0.00124901

> <i_epik_Tot_Q>
1

> <i_epik_Tot_abs_Q>
1

> <r_epik_Metal_State_Penalty>
-0

> <b_epik_Metal_Only>
0

> <s_lp_Force_Field>
OPLS_2005

> <r_lp_Energy>
33.9812

> <b_lp_Chiralities_Consistent>
1

> <s_lp_Variant>
AV-unprocessed.smi:3167-2

> <Gold.Version>
5.8.1

> <Gold.Id.Protein>
6NUR|6NUR_protein|mol2

> <Gold.PLP.Fitness>
38.1161

> <Gold.PLP.PLP>
-23.1322

> <Gold.PLP.part.hbond>
-4.0395

> <Gold.PLP.part.metal>
0.0000

> <Gold.PLP.part.buried>
3.3010

> <Gold.PLP.part.nonpolar>
-22.9390

> <Gold.PLP.part.repulsive>
0.3881

> <Gold.PLP.ligand.clash>
0.0000

> <Gold.PLP.ligand.torsion>
0.5587

> <Gold.PLP.Chemscore.Hbond>
3.3575

> <Gold.PLP.Chemscore.CHOScore>
2.0000

> <Gold.PLP.Chemscore.Metal>
0.0000

> <Gold.Chemscore.Hbonds>
donor molecule, donor type, donor heavy atom, donor atom, acceptor molecule, acceptor atom, score
      L1  H     4    25       P1  7948  1.00
      L1  H    11    18       P1 10952  0.13
      L1  H    13    37       P1  7948  2.00
      L1  C     9    27       P1 10747  1.00
      L1  C    12    28       P1 10186  1.00

> <Gold.PLP.Chemscore.Internal.Correction>
0.0288

> <Gold.Rescore>
     Score         DG    S(hbond)    S(metal)    S(lipo)     H(rot)  DE(clash)    DE(int)     intcor
     14.82     -18.58       2.72        0.00      69.94       1.63       2.34       1.42       ----

> <Gold.Chemscore.Fitness>
14.8155

> <Gold.Chemscore.DG>
-18.5754

> <Gold.Chemscore.ZeroCoef>
-5.4800

> <Gold.Chemscore.Hbond>
2.7210

> <Gold.Chemscore.Metal>
0.0000

> <Gold.Chemscore.Lipo>
69.9393

> <Gold.Chemscore.Internal_Hbond>
0.0000

> <Gold.Chemscore.DEClash>
2.3382

> <Gold.Chemscore.DEInternal>
1.4217

> <Gold.Chemscore.Rot>
1.6311

> <Gold.Chemscore.Internal.Correction>
   9.000000E+99

> <Gold.Chemscore.Hbonds>
donor molecule, donor type, donor heavy atom, donor atom, acceptor molecule, acceptor atom, score
      L1  H     4    25       P1  7948  1.00
      L1  H    11    18       P1 10952  0.12
      L1  H    13    37       P1  7948  0.99

> <Gold.Chemscore.Hbond.Weighted>
-9.0882

> <Gold.Chemscore.Metal.Weighted>
-0.0000

> <Gold.Chemscore.Lipo.Weighted>
-8.1829

> <Gold.Chemscore.Internal_Hbond.Weighted>
0.0000

> <Gold.Chemscore.DEClash.Weighted>
2.3382

> <Gold.Chemscore.DEInternal.Weighted>
1.4217

> <Gold.Chemscore.Rot.Weighted>
4.1757

> <Gold.Chemscore.Internal.Correction.Weighted>
   9.000000E+99

> <Gold.Protein.RotatedTorsions>
[ 6907 6896 6895 6894 ] final  107.14 input  -60.11 | X-H torsion
[ 7974 7965 7964 7962 ] final   69.85 input  175.53 | X-H torsion
[ 8008 7997 7996 7995 ] final  -89.34 input   59.86 | X-H torsion
[ 10167 10162 10161 10158 ] final    4.00 input  -65.29 | X-H torsion
[ 10718 10713 10712 10709 ] final  108.44 input   66.30 | X-H torsion
[ 10763 10752 10751 10750 ] final   49.17 input  -60.55 | X-H torsion
[ 11005 11000 10999 10996 ] final  149.45 input  -57.11 | X-H torsion

> <Gold.Protein.ActiveResidues>
 VAL166  LYS551  ARG553  GLY616  TRP617  ASP618  TYR619  PRO620  LYS621  CYS622 
 ASP623  PHE694  ASN695  SER759  ASP760  ASP761  ALA762  ILE779  LEU786  VAL792 
 PHE793  MET794  SER795  GLU796  ALA797  LYS798  CYS799  TRP800  GLU811  SER814 

> <Gold.Protein.RotatedAtoms>
  152.5166  133.9278  159.7565 H   0  0  0  0  0  0  0  0  0  0  0  0  # atno 6907 bound_to 6896
  150.9636  133.6411  159.2757 H   0  0  0  0  0  0  0  0  0  0  0  0  # atno 6908 bound_to 6896
  151.3647  135.0916  159.9499 H   0  0  0  0  0  0  0  0  0  0  0  0  # atno 6909 bound_to 6896
  145.7854  139.2908  143.1241 H   0  0  0  0  0  0  0  0  0  0  0  0  # atno 7974 bound_to 7965
  154.6855  140.0543  157.0310 H   0  0  0  0  0  0  0  0  0  0  0  0  # atno 8008 bound_to 7997
  155.0891  140.3217  155.4560 H   0  0  0  0  0  0  0  0  0  0  0  0  # atno 8009 bound_to 7997
  156.2709  140.2051  156.6018 H   0  0  0  0  0  0  0  0  0  0  0  0  # atno 8010 bound_to 7997
  140.6557  143.7433  150.7650 H   0  0  0  0  0  0  0  0  0  0  0  0  # atno 10167 bound_to 10162
  157.6586  131.0894  150.6306 H   0  0  0  0  0  0  0  0  0  0  0  0  # atno 10718 bound_to 10713
  152.9788  135.5920  154.4046 H   0  0  0  0  0  0  0  0  0  0  0  0  # atno 10763 bound_to 10752
  154.3687  135.2767  155.2280 H   0  0  0  0  0  0  0  0  0  0  0  0  # atno 10764 bound_to 10752
  154.4245  135.6051  153.6085 H   0  0  0  0  0  0  0  0  0  0  0  0  # atno 10765 bound_to 10752
  140.1046  134.8962  157.1847 H   0  0  0  0  0  0  0  0  0  0  0  0  # atno 11005 bound_to 11000
  146.0031  140.8502  143.0008 LP  0  0  0  0  0  0  0  0  0  0  0  0  # atno 17320 bound_to 7965
  144.6790  140.2381  143.7347 LP  0  0  0  0  0  0  0  0  0  0  0  0  # atno 17321 bound_to 7965
  140.1092  143.4715  152.2380 LP  0  0  0  0  0  0  0  0  0  0  0  0  # atno 17342 bound_to 10162
  139.5779  144.7496  151.3716 LP  0  0  0  0  0  0  0  0  0  0  0  0  # atno 17343 bound_to 10162
  156.6610  130.4512  149.5687 LP  0  0  0  0  0  0  0  0  0  0  0  0  # atno 17370 bound_to 10713
  156.2067  130.6653  151.1226 LP  0  0  0  0  0  0  0  0  0  0  0  0  # atno 17371 bound_to 10713
  140.3173  134.2956  155.7253 LP  0  0  0  0  0  0  0  0  0  0  0  0  # atno 17394 bound_to 11000
  141.2115  133.7688  156.9861 LP  0  0  0  0  0  0  0  0  0  0  0  0  # atno 17395 bound_to 11000

$$$$
