AV-unprocessed.smi:2563|AV-procd|sdf|10060|dock10
  -GOLD-   2272014103D 1   1.00000     0.00000
 Structure written by MMmdl.
 34 35  0  0  0  0  0  0  0  0  1 V2000
  154.5443  140.7570  160.9837 C   0  0  0  0  0  0  0  0  0  0  0  0
  154.3256  141.5308  159.6769 C   0  0  0  0  0  0  0  0  0  0  0  0
  152.9292  141.4957  159.2419 N   0  0  0  0  0  0  0  0  0  0  0  0
  152.2769  140.1966  159.0866 C   0  0  0  0  0  0  0  0  0  0  0  0
  151.5296  140.0706  157.7472 C   0  0  2  0  0  0  0  0  0  0  0  0
  150.6289  138.8197  157.7183 C   0  0  0  0  0  0  0  0  0  0  0  0
  149.9825  138.6850  156.4137 N   0  0  0  0  0  0  0  0  0  0  0  0
  150.9671  138.6666  155.3338 C   0  0  0  0  0  0  0  0  0  0  0  0
  151.8743  139.9060  155.4191 C   0  0  0  0  0  0  0  0  0  0  0  0
  152.4910  139.9519  156.7010 O   0  0  0  0  0  0  0  0  0  0  0  0
  152.2028  142.6973  159.0560 C   0  0  0  0  0  0  0  0  0  0  0  0
  152.8522  143.9413  158.8599 C   0  0  0  0  0  0  0  0  0  0  0  0
  152.0562  145.0857  158.6831 C   0  0  0  0  0  0  0  0  0  0  0  0
  150.6622  144.9145  158.7132 C   0  0  0  0  0  0  0  0  0  0  0  0
  150.0843  143.7094  158.9034 N   0  0  0  0  0  0  0  0  0  0  0  0
  150.8458  142.6233  159.0721 N   0  0  0  0  0  0  0  0  0  0  0  0
  155.5942  140.7833  161.2760 H   0  0  0  0  0  0  0  0  0  0  0  0
  154.2558  139.7109  160.8782 H   0  0  0  0  0  0  0  0  0  0  0  0
  153.9625  141.1849  161.8006 H   0  0  0  0  0  0  0  0  0  0  0  0
  154.6771  142.5579  159.7783 H   0  0  0  0  0  0  0  0  0  0  0  0
  154.9442  141.0889  158.8954 H   0  0  0  0  0  0  0  0  0  0  0  0
  153.0258  139.4070  159.1590 H   0  0  0  0  0  0  0  0  0  0  0  0
  151.6000  140.0233  159.9231 H   0  0  0  0  0  0  0  0  0  0  0  0
  150.9171  140.9597  157.5854 H   0  0  0  0  0  0  0  0  0  0  0  0
  151.2239  137.9304  157.9309 H   0  0  0  0  0  0  0  0  0  0  0  0
  149.8727  138.8849  158.5013 H   0  0  0  0  0  0  0  0  0  0  0  0
  149.4361  137.8300  156.3905 H   0  0  0  0  0  0  0  0  0  0  0  0
  151.5744  137.7633  155.4015 H   0  0  0  0  0  0  0  0  0  0  0  0
  150.4641  138.6349  154.3671 H   0  0  0  0  0  0  0  0  0  0  0  0
  152.6507  139.8558  154.6557 H   0  0  0  0  0  0  0  0  0  0  0  0
  151.3083  140.8211  155.2375 H   0  0  0  0  0  0  0  0  0  0  0  0
  153.9264  144.0426  158.8499 H   0  0  0  0  0  0  0  0  0  0  0  0
  152.4987  146.0590  158.5321 H   0  0  0  0  0  0  0  0  0  0  0  0
  149.9989  145.7569  158.5842 H   0  0  0  0  0  0  0  0  0  0  0  0
  1  2  1  0  0  0  0
  1 17  1  0  0  0  0
  1 18  1  0  0  0  0
  1 19  1  0  0  0  0
  2  3  1  0  0  0  0
  2 20  1  0  0  0  0
  2 21  1  0  0  0  0
  3  4  1  0  0  0  0
  3 11  1  0  0  0  0
  4  5  1  0  0  0  0
  4 22  1  0  0  0  0
  4 23  1  0  0  0  0
  5 10  1  0  0  0  0
  5  6  1  0  0  0  0
  5 24  1  0  0  0  0
  6  7  1  0  0  0  0
  6 25  1  0  0  0  0
  6 26  1  0  0  0  0
  7  8  1  0  0  0  0
  7 27  1  0  0  0  0
  8  9  1  0  0  0  0
  8 28  1  0  0  0  0
  8 29  1  0  0  0  0
  9 10  1  0  0  0  0
  9 30  1  0  0  0  0
  9 31  1  0  0  0  0
 11 16  1  0  0  0  0
 11 12  2  0  0  0  0
 12 13  1  0  0  0  0
 12 32  1  0  0  0  0
 13 14  2  0  0  0  0
 13 33  1  0  0  0  0
 14 15  1  0  0  0  0
 14 34  1  0  0  0  0
 15 16  2  0  0  0  0
M  END
> <s_m_source_file>
AV-unprocessed.smi

> <i_m_source_file_index>
2563

> <i_lp_mmshare_version>
43012

> <i_f3d_flags>
0

> <s_epik_input>
bjFuW2NIXVtjSF1bY0hdYzFOKFtDSDJdW0NIM10pW0NIMl1bQ0BASF0yW0NIMl1bTkhdW0NIMl1bQ0gyXU8y

> <s_epik_cmdline>
J2VwaWtfcHl0aG9uJywgJy1waCcsICc3LjAnLCAnLXRuJywgJzgnLCAnLW1hJywgJzIwMCcsICctbWV0YWxfYmluZGluZycsICctaW1hZScsICc8aW5maWxlLm1hZT4nLCAnLW9tYWUnLCAnPG91dGZpbGUubWFlPic=

> <r_lp_tautomer_probability>
1

> <r_epik_Ionization_Penalty>
2.34719

> <r_epik_Ionization_Penalty_Charging>
0

> <r_epik_Ionization_Penalty_Neutral>
2.34719

> <r_epik_State_Penalty>
2.60452

> <r_epik_Charging_Adjusted_Penalty>
2.60452

> <i_epik_Tot_Q>
0

> <i_epik_Tot_abs_Q>
0

> <r_epik_Metal_State_Penalty>
2.56937

> <b_epik_Metal_Only>
0

> <s_lp_Force_Field>
OPLS_2005

> <r_lp_Energy>
25.5001

> <b_lp_Chiralities_Consistent>
1

> <s_lp_Variant>
AV-unprocessed.smi:2563-5

> <Gold.Version>
5.8.1

> <Gold.Id.Protein>
6NUR|6NUR_protein|mol2

> <Gold.PLP.Fitness>
40.7620

> <Gold.PLP.PLP>
-35.3823

> <Gold.PLP.part.hbond>
-1.5488

> <Gold.PLP.part.metal>
0.0000

> <Gold.PLP.part.buried>
-3.4393

> <Gold.PLP.part.nonpolar>
-30.0268

> <Gold.PLP.part.repulsive>
0.1579

> <Gold.PLP.ligand.clash>
0.0000

> <Gold.PLP.ligand.torsion>
0.3272

> <Gold.PLP.Chemscore.Hbond>
1.0000

> <Gold.PLP.Chemscore.CHOScore>
0.9988

> <Gold.PLP.Chemscore.Metal>
0.0000

> <Gold.Chemscore.Hbonds>
donor molecule, donor type, donor heavy atom, donor atom, acceptor molecule, acceptor atom, score
      P1  H  7997  8008       L1    10  1.00
      L1  C    14    34       P1  8029  1.00

> <Gold.PLP.Chemscore.Internal.Correction>
0.0377

> <Gold.Rescore>
     Score         DG    S(hbond)    S(metal)    S(lipo)     H(rot)  DE(clash)    DE(int)     intcor
     14.31     -15.07       0.90        0.00      86.07       1.36       0.05       0.71       ----

> <Gold.Chemscore.Fitness>
14.3116

> <Gold.Chemscore.DG>
-15.0668

> <Gold.Chemscore.ZeroCoef>
-5.4800

> <Gold.Chemscore.Hbond>
0.8992

> <Gold.Chemscore.Metal>
0.0000

> <Gold.Chemscore.Lipo>
86.0652

> <Gold.Chemscore.Internal_Hbond>
0.0000

> <Gold.Chemscore.DEClash>
0.0477

> <Gold.Chemscore.DEInternal>
0.7074

> <Gold.Chemscore.Rot>
1.3618

> <Gold.Chemscore.Internal.Correction>
   9.000000E+99

> <Gold.Chemscore.Hbonds>
donor molecule, donor type, donor heavy atom, donor atom, acceptor molecule, acceptor atom, score
      P1  H  7997  8008       L1    10  0.55

> <Gold.Chemscore.Hbond.Weighted>
-3.0033

> <Gold.Chemscore.Metal.Weighted>
-0.0000

> <Gold.Chemscore.Lipo.Weighted>
-10.0696

> <Gold.Chemscore.Internal_Hbond.Weighted>
0.0000

> <Gold.Chemscore.DEClash.Weighted>
0.0477

> <Gold.Chemscore.DEInternal.Weighted>
0.7074

> <Gold.Chemscore.Rot.Weighted>
3.4861

> <Gold.Chemscore.Internal.Correction.Weighted>
   9.000000E+99

> <Gold.Protein.RotatedTorsions>
[ 6907 6896 6895 6894 ] final  140.79 input  -60.11 | X-H torsion
[ 7974 7965 7964 7962 ] final  170.03 input  175.53 | X-H torsion
[ 8008 7997 7996 7995 ] final  -43.68 input   59.86 | X-H torsion
[ 10167 10162 10161 10158 ] final -125.49 input  -65.29 | X-H torsion
[ 10718 10713 10712 10709 ] final -146.92 input   66.30 | X-H torsion
[ 10763 10752 10751 10750 ] final  105.58 input  -60.55 | X-H torsion
[ 11005 11000 10999 10996 ] final  103.72 input  -57.11 | X-H torsion

> <Gold.Protein.ActiveResidues>
 VAL166  LYS551  ARG553  GLY616  TRP617  ASP618  TYR619  PRO620  LYS621  CYS622 
 ASP623  PHE694  ASN695  SER759  ASP760  ASP761  ALA762  ILE779  LEU786  VAL792 
 PHE793  MET794  SER795  GLU796  ALA797  LYS798  CYS799  TRP800  GLU811  SER814 

> <Gold.Protein.RotatedAtoms>
  152.2388  133.5118  159.5258 H   0  0  0  0  0  0  0  0  0  0  0  0  # atno 6907 bound_to 6896
  150.7058  134.1116  159.4011 H   0  0  0  0  0  0  0  0  0  0  0  0  # atno 6908 bound_to 6896
  151.9037  135.0367  160.0559 H   0  0  0  0  0  0  0  0  0  0  0  0  # atno 6909 bound_to 6896
  144.7336  139.9142  143.6416 H   0  0  0  0  0  0  0  0  0  0  0  0  # atno 7974 bound_to 7965
  154.3997  140.1441  156.3559 H   0  0  0  0  0  0  0  0  0  0  0  0  # atno 8008 bound_to 7997
  155.8226  140.3469  155.5502 H   0  0  0  0  0  0  0  0  0  0  0  0  # atno 8009 bound_to 7997
  155.8272  140.0907  157.1804 H   0  0  0  0  0  0  0  0  0  0  0  0  # atno 8010 bound_to 7997
  139.9816  143.5737  152.2376 H   0  0  0  0  0  0  0  0  0  0  0  0  # atno 10167 bound_to 10162
  156.4010  130.7934  151.2144 H   0  0  0  0  0  0  0  0  0  0  0  0  # atno 10718 bound_to 10713
  153.3814  135.3905  155.1859 H   0  0  0  0  0  0  0  0  0  0  0  0  # atno 10763 bound_to 10752
  154.8708  135.3726  154.4853 H   0  0  0  0  0  0  0  0  0  0  0  0  # atno 10764 bound_to 10752
  153.5330  135.7085  153.5735 H   0  0  0  0  0  0  0  0  0  0  0  0  # atno 10765 bound_to 10752
  139.8786  134.9273  156.5252 H   0  0  0  0  0  0  0  0  0  0  0  0  # atno 11005 bound_to 11000
  146.0978  139.3971  143.0366 LP  0  0  0  0  0  0  0  0  0  0  0  0  # atno 17320 bound_to 7965
  145.7621  140.9931  143.1194 LP  0  0  0  0  0  0  0  0  0  0  0  0  # atno 17321 bound_to 7965
  139.6406  144.7654  151.2347 LP  0  0  0  0  0  0  0  0  0  0  0  0  # atno 17342 bound_to 10162
  140.7487  143.6324  150.8411 LP  0  0  0  0  0  0  0  0  0  0  0  0  # atno 17343 bound_to 10162
  157.7504  131.0287  150.4059 LP  0  0  0  0  0  0  0  0  0  0  0  0  # atno 17370 bound_to 10713
  156.4338  130.3977  149.6742 LP  0  0  0  0  0  0  0  0  0  0  0  0  # atno 17371 bound_to 10713
  140.8421  133.8197  155.9085 LP  0  0  0  0  0  0  0  0  0  0  0  0  # atno 17394 bound_to 11000
  140.9227  134.2121  157.4916 LP  0  0  0  0  0  0  0  0  0  0  0  0  # atno 17395 bound_to 11000

$$$$
