AV-unprocessed.smi:231|AV-procd|sdf|1766|dock5
  -GOLD-   2262020303D 1   1.00000     0.00000
 Structure written by MMmdl.
 50 53  0  0  0  0  0  0  0  0  1 V2000
  151.9100  130.7927  158.0497 C   0  0  0  0  0  0  0  0  0  0  0  0
  152.1581  131.5784  156.7559 C   0  0  0  0  0  0  0  0  0  0  0  0
  151.2397  131.2221  155.6768 N   0  0  0  0  0  0  0  0  0  0  0  0
  150.4874  132.2264  155.1677 C   0  0  0  0  0  0  0  0  0  0  0  0
  150.7762  133.4905  155.5654 N   0  0  0  0  0  0  0  0  0  0  0  0
  150.0567  134.5176  155.1042 C   0  0  0  0  0  0  0  0  0  0  0  0
  149.0326  134.5017  154.2488 N   0  0  0  0  0  0  0  0  0  0  0  0
  148.7579  133.2339  153.8266 C   0  0  0  0  0  0  0  0  0  0  0  0
  149.4323  132.0473  154.2301 C   0  0  0  0  0  0  0  0  0  0  0  0
  148.8716  130.9471  153.5942 N   0  0  0  0  0  0  0  0  0  0  0  0
  147.9076  131.4508  152.8736 C   0  0  0  0  0  0  0  0  0  0  0  0
  147.7837  132.8204  152.9352 N   0  0  0  0  0  0  0  0  0  0  0  0
  146.7903  133.6263  152.2889 C   0  0  0  0  0  0  0  0  0  0  0  0
  145.2938  133.3319  152.4421 C   0  0  0  0  0  0  0  0  0  0  0  0
  145.0600  133.8582  151.0067 C   0  0  0  0  0  0  0  0  0  0  0  0
  144.0291  133.0964  150.1507 C   0  0  0  0  0  0  0  0  0  0  0  0
  143.8703  133.6573  148.8629 O   0  0  0  0  0  0  0  0  0  0  0  0
  144.6932  135.3532  150.9365 C   0  0  0  0  0  0  0  0  0  0  0  0
  145.0202  135.9108  149.6797 O   0  0  0  0  0  0  0  0  0  0  0  0
  146.5543  133.5302  150.7788 C   0  0  0  0  0  0  0  0  0  0  0  0
  151.2743  129.8979  155.0344 C   0  0  1  0  0  0  0  0  0  0  0  0
  152.7027  129.4339  154.6815 C   0  0  0  0  0  0  0  0  0  0  0  0
  153.0525  128.3460  155.7070 C   0  0  0  0  0  0  0  0  0  0  0  0
  151.7718  127.9400  156.2496 N   0  0  0  0  0  0  0  0  0  0  0  0
  150.7752  128.7642  155.9282 C   0  0  0  0  0  0  0  0  0  0  0  0
  149.6037  128.6330  156.2751 O   0  0  0  0  0  0  0  0  0  0  0  0
  152.6405  131.0673  158.8106 H   0  0  0  0  0  0  0  0  0  0  0  0
  151.9929  129.7184  157.8869 H   0  0  0  0  0  0  0  0  0  0  0  0
  150.9213  130.9991  158.4584 H   0  0  0  0  0  0  0  0  0  0  0  0
  152.0601  132.6463  156.9537 H   0  0  0  0  0  0  0  0  0  0  0  0
  153.1900  131.4282  156.4344 H   0  0  0  0  0  0  0  0  0  0  0  0
  150.3415  135.4913  155.4745 H   0  0  0  0  0  0  0  0  0  0  0  0
  147.2592  130.8306  152.2721 H   0  0  0  0  0  0  0  0  0  0  0  0
  147.0113  134.6554  152.5767 H   0  0  0  0  0  0  0  0  0  0  0  0
  145.0909  132.2662  152.5586 H   0  0  0  0  0  0  0  0  0  0  0  0
  144.8012  133.9069  153.2266 H   0  0  0  0  0  0  0  0  0  0  0  0
  144.3234  132.0538  150.0263 H   0  0  0  0  0  0  0  0  0  0  0  0
  143.0489  133.0916  150.6286 H   0  0  0  0  0  0  0  0  0  0  0  0
  144.6722  134.0980  148.6268 H   0  0  0  0  0  0  0  0  0  0  0  0
  143.6292  135.5050  151.1208 H   0  0  0  0  0  0  0  0  0  0  0  0
  145.2178  135.9275  151.7003 H   0  0  0  0  0  0  0  0  0  0  0  0
  145.2053  135.2064  149.0776 H   0  0  0  0  0  0  0  0  0  0  0  0
  147.1050  134.2657  150.1920 H   0  0  0  0  0  0  0  0  0  0  0  0
  146.7287  132.5229  150.3969 H   0  0  0  0  0  0  0  0  0  0  0  0
  150.6646  129.9291  154.1302 H   0  0  0  0  0  0  0  0  0  0  0  0
  152.6917  128.9895  153.6851 H   0  0  0  0  0  0  0  0  0  0  0  0
  153.4417  130.2340  154.6508 H   0  0  0  0  0  0  0  0  0  0  0  0
  153.5805  127.5059  155.2551 H   0  0  0  0  0  0  0  0  0  0  0  0
  153.6678  128.7500  156.5122 H   0  0  0  0  0  0  0  0  0  0  0  0
  151.6618  127.1196  156.8282 H   0  0  0  0  0  0  0  0  0  0  0  0
  1  2  1  0  0  0  0
  1 27  1  0  0  0  0
  1 28  1  0  0  0  0
  1 29  1  0  0  0  0
  2  3  1  0  0  0  0
  2 30  1  0  0  0  0
  2 31  1  0  0  0  0
  3  4  1  0  0  0  0
  3 21  1  0  0  0  0
  4  9  1  0  0  0  0
  4  5  2  0  0  0  0
  5  6  1  0  0  0  0
  6  7  2  0  0  0  0
  6 32  1  0  0  0  0
  7  8  1  0  0  0  0
  8 12  1  0  0  0  0
  8  9  2  0  0  0  0
  9 10  1  0  0  0  0
 10 11  2  0  0  0  0
 11 12  1  0  0  0  0
 11 33  1  0  0  0  0
 12 13  1  0  0  0  0
 13 20  1  0  0  0  0
 13 14  1  0  0  0  0
 13 34  1  0  0  0  0
 14 15  1  0  0  0  0
 14 35  1  0  0  0  0
 14 36  1  0  0  0  0
 15 16  1  0  0  0  0
 15 18  1  0  0  0  0
 15 20  1  0  0  0  0
 16 17  1  0  0  0  0
 16 37  1  0  0  0  0
 16 38  1  0  0  0  0
 17 39  1  0  0  0  0
 18 19  1  0  0  0  0
 18 40  1  0  0  0  0
 18 41  1  0  0  0  0
 19 42  1  0  0  0  0
 20 43  1  0  0  0  0
 20 44  1  0  0  0  0
 21 25  1  0  0  0  0
 21 22  1  0  0  0  0
 21 45  1  0  0  0  0
 22 23  1  0  0  0  0
 22 46  1  0  0  0  0
 22 47  1  0  0  0  0
 23 24  1  0  0  0  0
 23 48  1  0  0  0  0
 23 49  1  0  0  0  0
 24 25  1  0  0  0  0
 24 50  1  0  0  0  0
 25 26  2  0  0  0  0
M  END
> <s_m_source_file>
AV-unprocessed.smi

> <i_m_source_file_index>
231

> <i_lp_mmshare_version>
43012

> <i_f3d_flags>
0

> <s_epik_input>
Tz1DMVtOSF1bQ0gyXVtDSDJdW0NASF0xTihbQ0gyXVtDSDNdKWMobltjSF1uMiljKGMyMyluW2NIXW4zW0NIXShbQ0gyXTQpW0NIMl1DNChbQ0gyXVtPSF0pW0NIMl1bT0hd

> <s_epik_cmdline>
J2VwaWtfcHl0aG9uJywgJy1waCcsICc3LjAnLCAnLXRuJywgJzgnLCAnLW1hJywgJzIwMCcsICctbWV0YWxfYmluZGluZycsICctaW1hZScsICc8aW5maWxlLm1hZT4nLCAnLW9tYWUnLCAnPG91dGZpbGUubWFlPic=

> <r_lp_tautomer_probability>
1

> <r_epik_Ionization_Penalty>
0.000842899

> <r_epik_Ionization_Penalty_Charging>
0

> <r_epik_Ionization_Penalty_Neutral>
0.000842899

> <r_epik_State_Penalty>
0.000441286

> <r_epik_Charging_Adjusted_Penalty>
0.000441286

> <i_epik_Tot_Q>
0

> <i_epik_Tot_abs_Q>
0

> <r_epik_Metal_State_Penalty>
-0

> <b_epik_Metal_Only>
0

> <s_lp_Force_Field>
OPLS_2005

> <r_lp_Energy>
52.3391

> <b_lp_Chiralities_Consistent>
1

> <s_lp_Variant>
AV-unprocessed.smi:231-2

> <Gold.Version>
5.8.1

> <Gold.Id.Protein>
6NUR|6NUR_protein|mol2

> <Gold.PLP.Fitness>
48.4534

> <Gold.PLP.PLP>
-42.0372

> <Gold.PLP.part.hbond>
-3.7114

> <Gold.PLP.part.metal>
0.0000

> <Gold.PLP.part.buried>
-5.2078

> <Gold.PLP.part.nonpolar>
-33.6457

> <Gold.PLP.part.repulsive>
0.6451

> <Gold.PLP.ligand.clash>
0.0000

> <Gold.PLP.ligand.torsion>
0.6768

> <Gold.PLP.Chemscore.Hbond>
1.9920

> <Gold.PLP.Chemscore.CHOScore>
0.3025

> <Gold.PLP.Chemscore.Metal>
0.0000

> <Gold.Chemscore.Hbonds>
donor molecule, donor type, donor heavy atom, donor atom, acceptor molecule, acceptor atom, score
      L1  H    17    39       P1  7921  1.00
      L1  H    19    42       P1  7921  0.83
      L1  C    11    33       P1 10747  0.17

> <Gold.PLP.Chemscore.Internal.Correction>
0.8864

> <Gold.Rescore>
     Score         DG    S(hbond)    S(metal)    S(lipo)     H(rot)  DE(clash)    DE(int)     intcor
      8.07     -10.38       1.98        0.00      64.67       3.63       0.40       1.90       ----

> <Gold.Chemscore.Fitness>
8.0748

> <Gold.Chemscore.DG>
-10.3834

> <Gold.Chemscore.ZeroCoef>
-5.4800

> <Gold.Chemscore.Hbond>
1.9823

> <Gold.Chemscore.Metal>
0.0000

> <Gold.Chemscore.Lipo>
64.6668

> <Gold.Chemscore.Internal_Hbond>
0.0000

> <Gold.Chemscore.DEClash>
0.4043

> <Gold.Chemscore.DEInternal>
1.9043

> <Gold.Chemscore.Rot>
3.6264

> <Gold.Chemscore.Internal.Correction>
   9.000000E+99

> <Gold.Chemscore.Hbonds>
donor molecule, donor type, donor heavy atom, donor atom, acceptor molecule, acceptor atom, score
      L1  H    17    39       P1  7921  1.00
      L1  H    19    42       P1  7921  0.83

> <Gold.Chemscore.Hbond.Weighted>
-6.6209

> <Gold.Chemscore.Metal.Weighted>
-0.0000

> <Gold.Chemscore.Lipo.Weighted>
-7.5660

> <Gold.Chemscore.Internal_Hbond.Weighted>
0.0000

> <Gold.Chemscore.DEClash.Weighted>
0.4043

> <Gold.Chemscore.DEInternal.Weighted>
1.9043

> <Gold.Chemscore.Rot.Weighted>
9.2835

> <Gold.Chemscore.Internal.Correction.Weighted>
   9.000000E+99

> <Gold.Protein.RotatedTorsions>
[ 6907 6896 6895 6894 ] final   30.77 input  -60.11 | X-H torsion
[ 7974 7965 7964 7962 ] final   90.77 input  175.53 | X-H torsion
[ 8008 7997 7996 7995 ] final  -69.61 input   59.86 | X-H torsion
[ 10167 10162 10161 10158 ] final   -9.47 input  -65.29 | X-H torsion
[ 10718 10713 10712 10709 ] final   55.05 input   66.30 | X-H torsion
[ 10763 10752 10751 10750 ] final   34.77 input  -60.55 | X-H torsion
[ 11005 11000 10999 10996 ] final  -74.48 input  -57.11 | X-H torsion

> <Gold.Protein.ActiveResidues>
 VAL166  LYS551  ARG553  GLY616  TRP617  ASP618  TYR619  PRO620  LYS621  CYS622 
 ASP623  PHE694  ASN695  SER759  ASP760  ASP761  ALA762  ILE779  LEU786  VAL792 
 PHE793  MET794  SER795  GLU796  ALA797  LYS798  CYS799  TRP800  GLU811  SER814 

> <Gold.Protein.RotatedAtoms>
  152.0507  134.9655  160.0574 H   0  0  0  0  0  0  0  0  0  0  0  0  # atno 6907 bound_to 6896
  152.1057  133.4269  159.4616 H   0  0  0  0  0  0  0  0  0  0  0  0  # atno 6908 bound_to 6896
  150.6841  134.2627  159.4599 H   0  0  0  0  0  0  0  0  0  0  0  0  # atno 6909 bound_to 6896
  145.5146  139.2277  143.2706 H   0  0  0  0  0  0  0  0  0  0  0  0  # atno 7974 bound_to 7965
  154.4951  140.0850  156.7679 H   0  0  0  0  0  0  0  0  0  0  0  0  # atno 8008 bound_to 7997
  155.4136  140.3442  155.4247 H   0  0  0  0  0  0  0  0  0  0  0  0  # atno 8009 bound_to 7997
  156.1383  140.1521  156.8949 H   0  0  0  0  0  0  0  0  0  0  0  0  # atno 8010 bound_to 7997
  140.7088  143.5854  150.8949 H   0  0  0  0  0  0  0  0  0  0  0  0  # atno 10167 bound_to 10162
  157.5311  130.8631  149.8688 H   0  0  0  0  0  0  0  0  0  0  0  0  # atno 10718 bound_to 10713
  153.0149  135.6351  154.1722 H   0  0  0  0  0  0  0  0  0  0  0  0  # atno 10763 bound_to 10752
  154.1461  135.2831  155.3149 H   0  0  0  0  0  0  0  0  0  0  0  0  # atno 10764 bound_to 10752
  154.6088  135.5563  153.7512 H   0  0  0  0  0  0  0  0  0  0  0  0  # atno 10765 bound_to 10752
  141.1635  133.6913  156.7371 H   0  0  0  0  0  0  0  0  0  0  0  0  # atno 11005 bound_to 11000
  146.2145  140.5954  142.9045 LP  0  0  0  0  0  0  0  0  0  0  0  0  # atno 17320 bound_to 7965
  144.7709  140.5635  143.6671 LP  0  0  0  0  0  0  0  0  0  0  0  0  # atno 17321 bound_to 7965
  139.9580  143.6196  152.3010 LP  0  0  0  0  0  0  0  0  0  0  0  0  # atno 17342 bound_to 10162
  139.6739  144.7659  151.1732 LP  0  0  0  0  0  0  0  0  0  0  0  0  # atno 17343 bound_to 10162
  156.0423  130.3736  150.1405 LP  0  0  0  0  0  0  0  0  0  0  0  0  # atno 17370 bound_to 10713
  156.9589  130.9798  151.3483 LP  0  0  0  0  0  0  0  0  0  0  0  0  # atno 17371 bound_to 10713
  140.2701  134.8398  157.3840 LP  0  0  0  0  0  0  0  0  0  0  0  0  # atno 17394 bound_to 11000
  140.1529  134.4827  155.7948 LP  0  0  0  0  0  0  0  0  0  0  0  0  # atno 17395 bound_to 11000

$$$$
