AV-unprocessed.smi:2550|AV-procd|sdf|10011|dock4
  -GOLD-   2272014 53D 1   1.00000     0.00000
 Structure written by MMmdl.
 28 29  0  0  0  0  0  0  0  0  2 V2000
  147.4477  127.8427  151.3407 C   0  0  0  0  0  0  0  0  0  0  0  0
  146.9471  128.6471  152.5512 C   0  0  0  0  0  0  0  0  0  0  0  0
  145.9515  127.8463  153.4062 C   0  0  0  0  0  0  0  0  0  0  0  0
  148.0734  128.9167  153.3652 O   0  0  0  0  0  0  0  0  0  0  0  0
  146.3794  129.9840  152.1377 C   0  0  0  0  0  0  0  0  0  0  0  0
  146.2172  130.5314  150.8935 C   0  0  0  0  0  0  0  0  0  0  0  0
  145.6403  131.7563  151.1511 N   0  0  0  0  0  0  0  0  0  0  0  0
  145.3153  132.7864  150.2106 C   0  0  0  0  0  0  0  0  0  0  0  0
  144.6258  134.0776  150.6520 C   0  0  0  0  0  0  0  0  0  0  0  0
  143.9384  134.0768  149.3667 N   0  3  0  0  0  0  0  0  0  0  0  0
  144.1231  132.6342  149.2685 C   0  0  0  0  0  0  0  0  0  0  0  0
  145.5020  131.9727  152.4790 N   0  0  0  0  0  0  0  0  0  0  0  0
  145.9228  130.9066  153.0826 N   0  0  0  0  0  0  0  0  0  0  0  0
  146.6285  127.5994  150.6630 H   0  0  0  0  0  0  0  0  0  0  0  0
  147.9072  126.9029  151.6490 H   0  0  0  0  0  0  0  0  0  0  0  0
  148.1900  128.4030  150.7709 H   0  0  0  0  0  0  0  0  0  0  0  0
  145.0473  127.6121  152.8434 H   0  0  0  0  0  0  0  0  0  0  0  0
  145.6510  128.4051  154.2935 H   0  0  0  0  0  0  0  0  0  0  0  0
  146.3832  126.9022  153.7400 H   0  0  0  0  0  0  0  0  0  0  0  0
  148.6525  129.4948  152.8923 H   0  0  0  0  0  0  0  0  0  0  0  0
  146.4497  130.1715  149.9020 H   0  0  0  0  0  0  0  0  0  0  0  0
  146.2301  133.0009  149.6533 H   0  0  0  0  0  0  0  0  0  0  0  0
  143.9344  133.9436  151.4865 H   0  0  0  0  0  0  0  0  0  0  0  0
  145.2916  134.9281  150.8010 H   0  0  0  0  0  0  0  0  0  0  0  0
  142.9717  134.3655  149.4163 H   0  0  0  0  0  0  0  0  0  0  0  0
  144.3702  132.2837  148.2660 H   0  0  0  0  0  0  0  0  0  0  0  0
  143.2884  132.0815  149.7044 H   0  0  0  0  0  0  0  0  0  0  0  0
  144.4713  134.5666  148.6621 H   0  0  0  0  0  0  0  0  0  0  0  0
  1  2  1  0  0  0  0
  1 14  1  0  0  0  0
  1 15  1  0  0  0  0
  1 16  1  0  0  0  0
  2  3  1  0  0  0  0
  2  4  1  0  0  0  0
  2  5  1  0  0  0  0
  3 17  1  0  0  0  0
  3 18  1  0  0  0  0
  3 19  1  0  0  0  0
  4 20  1  0  0  0  0
  5 13  1  0  0  0  0
  5  6  2  0  0  0  0
  6  7  1  0  0  0  0
  6 21  1  0  0  0  0
  7  8  1  0  0  0  0
  7 12  1  0  0  0  0
  8 11  1  0  0  0  0
  8  9  1  0  0  0  0
  8 22  1  0  0  0  0
  9 10  1  0  0  0  0
  9 23  1  0  0  0  0
  9 24  1  0  0  0  0
 10 11  1  0  0  0  0
 10 25  1  0  0  0  0
 10 28  1  0  0  0  0
 11 26  1  0  0  0  0
 11 27  1  0  0  0  0
 12 13  2  0  0  0  0
M  CHG  1  10   1
M  END
> <s_m_source_file>
AV-unprocessed.smi

> <i_m_source_file_index>
2550

> <i_lp_mmshare_version>
43012

> <i_f3d_flags>
0

> <s_epik_input>
W0NIM11DKFtDSDNdKShbT0hdKWMxW2NIXW4obm4xKVtDSF0yW0NIMl1bTkhdW0NIMl0y

> <s_epik_cmdline>
J2VwaWtfcHl0aG9uJywgJy1waCcsICc3LjAnLCAnLXRuJywgJzgnLCAnLW1hJywgJzIwMCcsICctbWV0YWxfYmluZGluZycsICctaW1hZScsICc8aW5maWxlLm1hZT4nLCAnLW9tYWUnLCAnPG91dGZpbGUubWFlPic=

> <r_lp_tautomer_probability>
1

> <r_epik_Ionization_Penalty>
0.215038

> <r_epik_Ionization_Penalty_Charging>
0.215038

> <r_epik_Ionization_Penalty_Neutral>
3.71976e-07

> <r_epik_State_Penalty>
0.20523

> <r_epik_Charging_Adjusted_Penalty>
0.420268

> <i_epik_Tot_Q>
1

> <i_epik_Tot_abs_Q>
1

> <r_epik_Metal_State_Penalty>
0.20531

> <b_epik_Metal_Only>
0

> <s_lp_Force_Field>
OPLS_2005

> <r_lp_Energy>
9.80929

> <b_lp_Chiralities_Consistent>
1

> <s_lp_Variant>
AV-unprocessed.smi:2550-1

> <Gold.Version>
5.8.1

> <Gold.Id.Protein>
6NUR|6NUR_protein|mol2

> <Gold.PLP.Fitness>
34.4800

> <Gold.PLP.PLP>
-24.8455

> <Gold.PLP.part.hbond>
-2.0000

> <Gold.PLP.part.metal>
0.0000

> <Gold.PLP.part.buried>
-2.4582

> <Gold.PLP.part.nonpolar>
-21.4263

> <Gold.PLP.part.repulsive>
0.4548

> <Gold.PLP.ligand.clash>
0.0000

> <Gold.PLP.ligand.torsion>
0.1704

> <Gold.PLP.Chemscore.Hbond>
3.0000

> <Gold.PLP.Chemscore.CHOScore>
0.2175

> <Gold.PLP.Chemscore.Metal>
0.0000

> <Gold.Chemscore.Hbonds>
donor molecule, donor type, donor heavy atom, donor atom, acceptor molecule, acceptor atom, score
      L1  H    10    25       P1 10186  2.00
      L1  H    10    28       P1  7921  1.00
      L1  C     6    21       P1 10747  0.17

> <Gold.PLP.Chemscore.Internal.Correction>
0.3229

> <Gold.Rescore>
     Score         DG    S(hbond)    S(metal)    S(lipo)     H(rot)  DE(clash)    DE(int)     intcor
     14.54     -15.85       1.91        0.00      72.84       1.78       1.15       0.16       ----

> <Gold.Chemscore.Fitness>
14.5352

> <Gold.Chemscore.DG>
-15.8461

> <Gold.Chemscore.ZeroCoef>
-5.4800

> <Gold.Chemscore.Hbond>
1.9143

> <Gold.Chemscore.Metal>
0.0000

> <Gold.Chemscore.Lipo>
72.8428

> <Gold.Chemscore.Internal_Hbond>
0.0000

> <Gold.Chemscore.DEClash>
1.1493

> <Gold.Chemscore.DEInternal>
0.1617

> <Gold.Chemscore.Rot>
1.7775

> <Gold.Chemscore.Internal.Correction>
   9.000000E+99

> <Gold.Chemscore.Hbonds>
donor molecule, donor type, donor heavy atom, donor atom, acceptor molecule, acceptor atom, score
      L1  H    10    25       P1 10186  0.98
      L1  H    10    28       P1  7921  0.94

> <Gold.Chemscore.Hbond.Weighted>
-6.3938

> <Gold.Chemscore.Metal.Weighted>
-0.0000

> <Gold.Chemscore.Lipo.Weighted>
-8.5226

> <Gold.Chemscore.Internal_Hbond.Weighted>
0.0000

> <Gold.Chemscore.DEClash.Weighted>
1.1493

> <Gold.Chemscore.DEInternal.Weighted>
0.1617

> <Gold.Chemscore.Rot.Weighted>
4.5503

> <Gold.Chemscore.Internal.Correction.Weighted>
   9.000000E+99

> <Gold.Protein.RotatedTorsions>
[ 6907 6896 6895 6894 ] final  -20.42 input  -60.11 | X-H torsion
[ 7974 7965 7964 7962 ] final  112.84 input  175.53 | X-H torsion
[ 8008 7997 7996 7995 ] final  -78.93 input   59.86 | X-H torsion
[ 10167 10162 10161 10158 ] final   67.41 input  -65.29 | X-H torsion
[ 10718 10713 10712 10709 ] final  103.01 input   66.30 | X-H torsion
[ 10763 10752 10751 10750 ] final  118.02 input  -60.55 | X-H torsion
[ 11005 11000 10999 10996 ] final  -80.41 input  -57.11 | X-H torsion

> <Gold.Protein.ActiveResidues>
 VAL166  LYS551  ARG553  GLY616  TRP617  ASP618  TYR619  PRO620  LYS621  CYS622 
 ASP623  PHE694  ASN695  SER759  ASP760  ASP761  ALA762  ILE779  LEU786  VAL792 
 PHE793  MET794  SER795  GLU796  ALA797  LYS798  CYS799  TRP800  GLU811  SER814 

> <Gold.Protein.RotatedAtoms>
  151.2484  135.0613  159.9052 H   0  0  0  0  0  0  0  0  0  0  0  0  # atno 6907 bound_to 6896
  152.5383  134.0358  159.8055 H   0  0  0  0  0  0  0  0  0  0  0  0  # atno 6908 bound_to 6896
  151.0563  133.5533  159.2669 H   0  0  0  0  0  0  0  0  0  0  0  0  # atno 6909 bound_to 6896
  145.2245  139.2847  143.4200 H   0  0  0  0  0  0  0  0  0  0  0  0  # atno 7974 bound_to 7965
  154.5736  140.0686  156.9001 H   0  0  0  0  0  0  0  0  0  0  0  0  # atno 8008 bound_to 7997
  155.2590  140.3357  155.4257 H   0  0  0  0  0  0  0  0  0  0  0  0  # atno 8009 bound_to 7997
  156.2137  140.1769  156.7623 H   0  0  0  0  0  0  0  0  0  0  0  0  # atno 8010 bound_to 7997
  140.0898  144.4998  150.7106 H   0  0  0  0  0  0  0  0  0  0  0  0  # atno 10167 bound_to 10162
  157.6785  131.0768  150.5490 H   0  0  0  0  0  0  0  0  0  0  0  0  # atno 10718 bound_to 10713
  153.5612  135.3520  155.2800 H   0  0  0  0  0  0  0  0  0  0  0  0  # atno 10763 bound_to 10752
  154.8694  135.4137  154.2829 H   0  0  0  0  0  0  0  0  0  0  0  0  # atno 10764 bound_to 10752
  153.3575  135.7058  153.6808 H   0  0  0  0  0  0  0  0  0  0  0  0  # atno 10765 bound_to 10752
  141.1668  133.7149  156.8269 H   0  0  0  0  0  0  0  0  0  0  0  0  # atno 11005 bound_to 11000
  146.3368  140.2561  142.8600 LP  0  0  0  0  0  0  0  0  0  0  0  0  # atno 17320 bound_to 7965
  144.9734  140.8390  143.5441 LP  0  0  0  0  0  0  0  0  0  0  0  0  # atno 17321 bound_to 7965
  140.7034  143.2451  151.4797 LP  0  0  0  0  0  0  0  0  0  0  0  0  # atno 17342 bound_to 10162
  139.5731  144.1882  152.1865 LP  0  0  0  0  0  0  0  0  0  0  0  0  # atno 17343 bound_to 10162
  156.5795  130.4301  149.5983 LP  0  0  0  0  0  0  0  0  0  0  0  0  # atno 17370 bound_to 10713
  156.2673  130.6997  151.1783 LP  0  0  0  0  0  0  0  0  0  0  0  0  # atno 17371 bound_to 10713
  140.2079  134.8849  157.3242 LP  0  0  0  0  0  0  0  0  0  0  0  0  # atno 17394 bound_to 11000
  140.2118  134.4130  155.7609 LP  0  0  0  0  0  0  0  0  0  0  0  0  # atno 17395 bound_to 11000

$$$$
