AV-unprocessed.smi:3335|AV-procd|sdf|12846|dock1
  -GOLD-   2272019233D 1   1.00000     0.00000
 Structure written by MMmdl.
 46 47  0  0  0  0  0  0  0  0  1 V2000
  151.2526  136.3934  155.9074 C   0  0  0  0  0  0  0  0  0  0  0  0
  150.8363  137.6916  155.2784 C   0  0  0  0  0  0  0  0  0  0  0  0
  151.6704  138.7071  154.7321 C   0  0  0  0  0  0  0  0  0  0  0  0
  150.9846  139.7268  154.2440 N   0  0  0  0  0  0  0  0  0  0  0  0
  149.6891  139.4080  154.4657 N   0  0  0  0  0  0  0  0  0  0  0  0
  148.6137  140.2951  154.0268 C   0  0  1  0  0  0  0  0  0  0  0  0
  147.4005  139.5164  153.4798 C   0  0  0  0  0  0  0  0  0  0  0  0
  148.2213  141.3615  155.0855 C   0  0  2  0  0  0  0  0  0  0  0  0
  147.1463  142.3444  154.5892 C   0  0  0  0  0  0  0  0  0  0  0  0
  149.3925  142.1393  155.4858 N   0  0  0  0  0  0  0  0  0  0  0  0
  150.0860  141.6333  156.6816 C   0  0  2  0  0  0  0  0  0  0  0  0
  149.0934  141.3470  157.8244 C   0  0  0  0  0  0  0  0  0  0  0  0
  151.1470  142.6468  157.1551 C   0  0  0  0  0  0  0  0  0  0  0  0
  151.2220  143.7399  156.5904 O   0  0  0  0  0  0  0  0  0  0  0  0
  151.9672  142.3205  158.1784 N   0  0  0  0  0  0  0  0  0  0  0  0
  153.0161  143.2097  158.6754 C   0  0  0  0  0  0  0  0  0  0  0  0
  153.8376  142.3788  159.6612 C   0  0  0  0  0  0  0  0  0  0  0  0
  152.8650  141.3146  160.1484 C   0  0  0  0  0  0  0  0  0  0  0  0
  151.9397  141.0802  158.9543 C   0  0  0  0  0  0  0  0  0  0  0  0
  149.5754  138.1797  155.0845 C   0  0  0  0  0  0  0  0  0  0  0  0
  152.3213  136.3700  156.1213 H   0  0  0  0  0  0  0  0  0  0  0  0
  151.0364  135.5457  155.2572 H   0  0  0  0  0  0  0  0  0  0  0  0
  150.7330  136.2180  156.8496 H   0  0  0  0  0  0  0  0  0  0  0  0
  152.7485  138.7313  154.6726 H   0  0  0  0  0  0  0  0  0  0  0  0
  149.0165  140.8458  153.1753 H   0  0  0  0  0  0  0  0  0  0  0  0
  146.6548  140.1968  153.0680 H   0  0  0  0  0  0  0  0  0  0  0  0
  146.9109  138.9247  154.2541 H   0  0  0  0  0  0  0  0  0  0  0  0
  147.6999  138.8354  152.6828 H   0  0  0  0  0  0  0  0  0  0  0  0
  147.8083  140.8270  155.9423 H   0  0  0  0  0  0  0  0  0  0  0  0
  146.2566  141.8116  154.2533 H   0  0  0  0  0  0  0  0  0  0  0  0
  147.5030  142.9529  153.7577 H   0  0  0  0  0  0  0  0  0  0  0  0
  146.8372  143.0253  155.3825 H   0  0  0  0  0  0  0  0  0  0  0  0
  149.1557  143.1178  155.5680 H   0  0  0  0  0  0  0  0  0  0  0  0
  150.5863  140.7070  156.4012 H   0  0  0  0  0  0  0  0  0  0  0  0
  149.6105  141.0251  158.7289 H   0  0  0  0  0  0  0  0  0  0  0  0
  148.3943  140.5540  157.5593 H   0  0  0  0  0  0  0  0  0  0  0  0
  148.5085  142.2328  158.0760 H   0  0  0  0  0  0  0  0  0  0  0  0
  153.6405  143.5977  157.8689 H   0  0  0  0  0  0  0  0  0  0  0  0
  152.5521  144.0568  159.1829 H   0  0  0  0  0  0  0  0  0  0  0  0
  154.6669  141.9023  159.1367 H   0  0  0  0  0  0  0  0  0  0  0  0
  154.2543  142.9757  160.4729 H   0  0  0  0  0  0  0  0  0  0  0  0
  153.3644  140.4043  160.4816 H   0  0  0  0  0  0  0  0  0  0  0  0
  152.2875  141.7058  160.9872 H   0  0  0  0  0  0  0  0  0  0  0  0
  150.9337  140.8212  159.2864 H   0  0  0  0  0  0  0  0  0  0  0  0
  152.3183  140.2648  158.3364 H   0  0  0  0  0  0  0  0  0  0  0  0
  148.6128  137.7551  155.3293 H   0  0  0  0  0  0  0  0  0  0  0  0
  1  2  1  0  0  0  0
  1 21  1  0  0  0  0
  1 22  1  0  0  0  0
  1 23  1  0  0  0  0
  2 20  2  0  0  0  0
  2  3  1  0  0  0  0
  3  4  2  0  0  0  0
  3 24  1  0  0  0  0
  4  5  1  0  0  0  0
  5  6  1  0  0  0  0
  5 20  1  0  0  0  0
  6  7  1  0  0  0  0
  6  8  1  0  0  0  0
  6 25  1  0  0  0  0
  7 26  1  0  0  0  0
  7 27  1  0  0  0  0
  7 28  1  0  0  0  0
  8  9  1  0  0  0  0
  8 10  1  0  0  0  0
  8 29  1  0  0  0  0
  9 30  1  0  0  0  0
  9 31  1  0  0  0  0
  9 32  1  0  0  0  0
 10 11  1  0  0  0  0
 10 33  1  0  0  0  0
 11 12  1  0  0  0  0
 11 13  1  0  0  0  0
 11 34  1  0  0  0  0
 12 35  1  0  0  0  0
 12 36  1  0  0  0  0
 12 37  1  0  0  0  0
 13 14  2  0  0  0  0
 13 15  1  0  0  0  0
 15 19  1  0  0  0  0
 15 16  1  0  0  0  0
 16 17  1  0  0  0  0
 16 38  1  0  0  0  0
 16 39  1  0  0  0  0
 17 18  1  0  0  0  0
 17 40  1  0  0  0  0
 17 41  1  0  0  0  0
 18 19  1  0  0  0  0
 18 42  1  0  0  0  0
 18 43  1  0  0  0  0
 19 44  1  0  0  0  0
 19 45  1  0  0  0  0
 20 46  1  0  0  0  0
M  END
> <s_m_source_file>
AV-unprocessed.smi

> <i_m_source_file_index>
3335

> <i_lp_mmshare_version>
43012

> <i_f3d_flags>
0

> <s_epik_input>
W0NIM11jMVtjSF1ubihbY0hdMSlbQ0BIXShbQ0gzXSlbQ0BIXShbQ0gzXSlbTkhdW0NASF0oW0NIM10pQyg9TylOMltDSDJdW0NIMl1bQ0gyXVtDSDJdMg==

> <s_epik_cmdline>
J2VwaWtfcHl0aG9uJywgJy1waCcsICc3LjAnLCAnLXRuJywgJzgnLCAnLW1hJywgJzIwMCcsICctbWV0YWxfYmluZGluZycsICctaW1hZScsICc8aW5maWxlLm1hZT4nLCAnLW9tYWUnLCAnPG91dGZpbGUubWFlPic=

> <r_lp_tautomer_probability>
1

> <r_epik_Ionization_Penalty>
0.918803

> <r_epik_Ionization_Penalty_Charging>
0

> <r_epik_Ionization_Penalty_Neutral>
0.918803

> <r_epik_State_Penalty>
0.958258

> <r_epik_Charging_Adjusted_Penalty>
0.958258

> <i_epik_Tot_Q>
0

> <i_epik_Tot_abs_Q>
0

> <r_epik_Metal_State_Penalty>
0.956786

> <b_epik_Metal_Only>
0

> <s_lp_Force_Field>
OPLS_2005

> <r_lp_Energy>
40.4571

> <b_lp_Chiralities_Consistent>
1

> <s_lp_Variant>
AV-unprocessed.smi:3335-10

> <Gold.Version>
5.8.1

> <Gold.Id.Protein>
6NUR|6NUR_protein|mol2

> <Gold.PLP.Fitness>
41.3012

> <Gold.PLP.PLP>
-37.6831

> <Gold.PLP.part.hbond>
-2.0000

> <Gold.PLP.part.metal>
0.0000

> <Gold.PLP.part.buried>
-4.1947

> <Gold.PLP.part.nonpolar>
-35.7643

> <Gold.PLP.part.repulsive>
3.5087

> <Gold.PLP.ligand.clash>
0.0000

> <Gold.PLP.ligand.torsion>
1.2865

> <Gold.PLP.Chemscore.Hbond>
2.0000

> <Gold.PLP.Chemscore.CHOScore>
0.0000

> <Gold.PLP.Chemscore.Metal>
0.0000

> <Gold.Chemscore.Hbonds>
donor molecule, donor type, donor heavy atom, donor atom, acceptor molecule, acceptor atom, score
      L1  H    10    33       P1  8028  1.00
      P1  H  7989  7998       L1     4  0.94

> <Gold.PLP.Chemscore.Internal.Correction>
0.1911

> <Gold.Rescore>
     Score         DG    S(hbond)    S(metal)    S(lipo)     H(rot)  DE(clash)    DE(int)     intcor
     16.20     -19.17       2.00        0.00      95.50       1.62       1.66       1.31       ----

> <Gold.Chemscore.Fitness>
16.1959

> <Gold.Chemscore.DG>
-19.1712

> <Gold.Chemscore.ZeroCoef>
-5.4800

> <Gold.Chemscore.Hbond>
1.9959

> <Gold.Chemscore.Metal>
0.0000

> <Gold.Chemscore.Lipo>
95.4970

> <Gold.Chemscore.Internal_Hbond>
0.0000

> <Gold.Chemscore.DEClash>
1.6628

> <Gold.Chemscore.DEInternal>
1.3125

> <Gold.Chemscore.Rot>
1.6204

> <Gold.Chemscore.Internal.Correction>
   9.000000E+99

> <Gold.Chemscore.Hbonds>
donor molecule, donor type, donor heavy atom, donor atom, acceptor molecule, acceptor atom, score
      L1  H    10    33       P1  8028  0.99
      P1  H  7989  7998       L1     4  0.89

> <Gold.Chemscore.Hbond.Weighted>
-6.6662

> <Gold.Chemscore.Metal.Weighted>
-0.0000

> <Gold.Chemscore.Lipo.Weighted>
-11.1732

> <Gold.Chemscore.Internal_Hbond.Weighted>
0.0000

> <Gold.Chemscore.DEClash.Weighted>
1.6628

> <Gold.Chemscore.DEInternal.Weighted>
1.3125

> <Gold.Chemscore.Rot.Weighted>
4.1482

> <Gold.Chemscore.Internal.Correction.Weighted>
   9.000000E+99

> <Gold.Protein.RotatedTorsions>
[ 6907 6896 6895 6894 ] final  154.98 input  -60.11 | X-H torsion
[ 7974 7965 7964 7962 ] final  -20.72 input  175.53 | X-H torsion
[ 8008 7997 7996 7995 ] final   70.64 input   59.86 | X-H torsion
[ 10167 10162 10161 10158 ] final  171.22 input  -65.29 | X-H torsion
[ 10718 10713 10712 10709 ] final  -45.62 input   66.30 | X-H torsion
[ 10763 10752 10751 10750 ] final  -54.97 input  -60.55 | X-H torsion
[ 11005 11000 10999 10996 ] final -174.47 input  -57.11 | X-H torsion

> <Gold.Protein.ActiveResidues>
 VAL166  LYS551  ARG553  GLY616  TRP617  ASP618  TYR619  PRO620  LYS621  CYS622 
 ASP623  PHE694  ASN695  SER759  ASP760  ASP761  ALA762  ILE779  LEU786  VAL792 
 PHE793  MET794  SER795  GLU796  ALA797  LYS798  CYS799  TRP800  GLU811  SER814 

> <Gold.Protein.RotatedAtoms>
  152.0507  133.4018  159.4375 H   0  0  0  0  0  0  0  0  0  0  0  0  # atno 6907 bound_to 6896
  150.6870  134.3311  159.4836 H   0  0  0  0  0  0  0  0  0  0  0  0  # atno 6908 bound_to 6896
  152.1120  134.9267  160.0617 H   0  0  0  0  0  0  0  0  0  0  0  0  # atno 6909 bound_to 6896
  146.1773  140.4241  142.8508 H   0  0  0  0  0  0  0  0  0  0  0  0  # atno 7974 bound_to 7965
  155.7418  140.3490  155.5108 H   0  0  0  0  0  0  0  0  0  0  0  0  # atno 8008 bound_to 7997
  155.9087  140.1046  157.1317 H   0  0  0  0  0  0  0  0  0  0  0  0  # atno 8009 bound_to 7997
  154.4053  140.1272  156.4515 H   0  0  0  0  0  0  0  0  0  0  0  0  # atno 8010 bound_to 7997
  139.5040  144.3510  151.9922 H   0  0  0  0  0  0  0  0  0  0  0  0  # atno 10167 bound_to 10162
  156.2265  130.4169  149.8927 H   0  0  0  0  0  0  0  0  0  0  0  0  # atno 10718 bound_to 10713
  154.1834  135.6439  153.5040 H   0  0  0  0  0  0  0  0  0  0  0  0  # atno 10763 bound_to 10752
  153.0053  135.5411  154.6491 H   0  0  0  0  0  0  0  0  0  0  0  0  # atno 10764 bound_to 10752
  154.5861  135.2929  155.0656 H   0  0  0  0  0  0  0  0  0  0  0  0  # atno 10765 bound_to 10752
  140.4741  134.6137  157.4894 H   0  0  0  0  0  0  0  0  0  0  0  0  # atno 11005 bound_to 11000
  144.8256  140.6623  143.6324 LP  0  0  0  0  0  0  0  0  0  0  0  0  # atno 17320 bound_to 7965
  145.4177  139.1569  143.4091 LP  0  0  0  0  0  0  0  0  0  0  0  0  # atno 17321 bound_to 7965
  140.2947  144.3714  150.6078 LP  0  0  0  0  0  0  0  0  0  0  0  0  # atno 17342 bound_to 10162
  140.5919  143.2168  151.7236 LP  0  0  0  0  0  0  0  0  0  0  0  0  # atno 17343 bound_to 10162
  156.6556  130.8761  151.3538 LP  0  0  0  0  0  0  0  0  0  0  0  0  # atno 17370 bound_to 10713
  157.7113  130.9444  150.1099 LP  0  0  0  0  0  0  0  0  0  0  0  0  # atno 17371 bound_to 10713
  139.9867  134.7051  155.9762 LP  0  0  0  0  0  0  0  0  0  0  0  0  # atno 17394 bound_to 11000
  141.1563  133.6542  156.4171 LP  0  0  0  0  0  0  0  0  0  0  0  0  # atno 17395 bound_to 11000

$$$$
