AV-unprocessed.smi:2568|AV-procd|sdf|10092|dock9
  -GOLD-   2272014113D 1   1.00000     0.00000
 Structure written by MMmdl.
 25 26  0  0  0  0  0  0  0  0  2 V2000
  146.1947  133.4253  155.9021 C   0  0  0  0  0  0  0  0  0  0  0  0
  146.4501  133.7399  154.4677 C   0  0  0  0  0  0  0  0  0  0  0  0
  147.5231  134.4330  154.0903 N   0  0  0  0  0  0  0  0  0  0  0  0
  147.3671  134.4846  152.7507 N   0  0  0  0  0  0  0  0  0  0  0  0
  146.2493  133.8385  152.4103 C   0  0  0  0  0  0  0  0  0  0  0  0
  145.7930  133.7289  150.9896 C   0  0  2  0  0  0  0  0  0  0  0  0
  144.4046  134.3596  150.7673 C   0  0  0  0  0  0  0  0  0  0  0  0
  143.9650  134.1335  149.3767 N   0  3  0  0  0  0  0  0  0  0  0  0
  143.9927  132.6992  149.0277 C   0  0  0  0  0  0  0  0  0  0  0  0
  145.3870  132.1116  149.3089 C   0  0  0  0  0  0  0  0  0  0  0  0
  145.7398  132.3408  150.6694 O   0  0  0  0  0  0  0  0  0  0  0  0
  145.6112  133.3401  153.4653 N   0  0  0  0  0  0  0  0  0  0  0  0
  148.0225  134.9490  152.1383 H   0  0  0  0  0  0  0  0  0  0  0  0
  146.8802  133.9736  156.5495 H   0  0  0  0  0  0  0  0  0  0  0  0
  146.3283  132.3584  156.0820 H   0  0  0  0  0  0  0  0  0  0  0  0
  145.1743  133.6977  156.1729 H   0  0  0  0  0  0  0  0  0  0  0  0
  146.5322  134.2158  150.3502 H   0  0  0  0  0  0  0  0  0  0  0  0
  143.6721  133.9202  151.4461 H   0  0  0  0  0  0  0  0  0  0  0  0
  144.4299  135.4307  150.9700 H   0  0  0  0  0  0  0  0  0  0  0  0
  143.0272  134.4901  149.2586 H   0  0  0  0  0  0  0  0  0  0  0  0
  143.2377  132.1732  149.6135 H   0  0  0  0  0  0  0  0  0  0  0  0
  143.7279  132.5763  147.9773 H   0  0  0  0  0  0  0  0  0  0  0  0
  145.3877  131.0381  149.1192 H   0  0  0  0  0  0  0  0  0  0  0  0
  146.1358  132.5521  148.6487 H   0  0  0  0  0  0  0  0  0  0  0  0
  144.5868  134.6302  148.7547 H   0  0  0  0  0  0  0  0  0  0  0  0
  1  2  1  0  0  0  0
  1 14  1  0  0  0  0
  1 15  1  0  0  0  0
  1 16  1  0  0  0  0
  2 12  1  0  0  0  0
  2  3  2  0  0  0  0
  3  4  1  0  0  0  0
  4 13  1  0  0  0  0
  4  5  1  0  0  0  0
  5  6  1  0  0  0  0
  5 12  2  0  0  0  0
  6 11  1  0  0  0  0
  6  7  1  0  0  0  0
  6 17  1  0  0  0  0
  7  8  1  0  0  0  0
  7 18  1  0  0  0  0
  7 19  1  0  0  0  0
  8  9  1  0  0  0  0
  8 20  1  0  0  0  0
  8 25  1  0  0  0  0
  9 10  1  0  0  0  0
  9 21  1  0  0  0  0
  9 22  1  0  0  0  0
 10 11  1  0  0  0  0
 10 23  1  0  0  0  0
 10 24  1  0  0  0  0
M  CHG  1   8   1
M  END
> <s_m_source_file>
AV-unprocessed.smi

> <i_m_source_file_index>
2568

> <i_lp_mmshare_version>
43012

> <i_f3d_flags>
0

> <s_epik_input>
W0NIM11jMW5bbkhdYyhuMSlbQ0BASF0yW0NIMl1bTkhdW0NIMl1bQ0gyXU8y

> <s_epik_cmdline>
J2VwaWtfcHl0aG9uJywgJy1waCcsICc3LjAnLCAnLXRuJywgJzgnLCAnLW1hJywgJzIwMCcsICctbWV0YWxfYmluZGluZycsICctaW1hZScsICc8aW5maWxlLm1hZT4nLCAnLW9tYWUnLCAnPG91dGZpbGUubWFlPic=

> <r_epik_Ionization_Penalty>
0.166663

> <r_epik_Ionization_Penalty_Charging>
0.125708

> <r_epik_Ionization_Penalty_Neutral>
0.0409555

> <r_epik_State_Penalty>
1.3004

> <r_epik_Charging_Adjusted_Penalty>
1.42611

> <i_epik_Tot_Q>
1

> <i_epik_Tot_abs_Q>
1

> <r_epik_Metal_State_Penalty>
1.60166

> <b_epik_Metal_Only>
0

> <s_lp_Force_Field>
OPLS_2005

> <r_lp_Energy>
12.4533

> <b_lp_Chiralities_Consistent>
1

> <s_lp_Variant>
AV-unprocessed.smi:2568-5

> <Gold.Version>
5.8.1

> <Gold.Id.Protein>
6NUR|6NUR_protein|mol2

> <Gold.PLP.Fitness>
31.0790

> <Gold.PLP.PLP>
-19.0797

> <Gold.PLP.part.hbond>
-2.8564

> <Gold.PLP.part.metal>
0.0000

> <Gold.PLP.part.buried>
-3.5262

> <Gold.PLP.part.nonpolar>
-12.5331

> <Gold.PLP.part.repulsive>
0.4493

> <Gold.PLP.ligand.clash>
0.0000

> <Gold.PLP.ligand.torsion>
0.0008

> <Gold.PLP.Chemscore.Hbond>
4.0000

> <Gold.PLP.Chemscore.CHOScore>
0.0000

> <Gold.PLP.Chemscore.Metal>
0.0000

> <Gold.Chemscore.Hbonds>
donor molecule, donor type, donor heavy atom, donor atom, acceptor molecule, acceptor atom, score
      L1  H     4    13       P1  7948  1.00
      L1  H     8    20       P1 10186  2.00
      L1  H     8    25       P1  7921  1.00

> <Gold.PLP.Chemscore.Internal.Correction>
0.0010

> <Gold.Rescore>
     Score         DG    S(hbond)    S(metal)    S(lipo)     H(rot)  DE(clash)    DE(int)     intcor
     16.81     -16.81       2.83        0.00      37.84       1.00       0.00       0.00       ----

> <Gold.Chemscore.Fitness>
16.8091

> <Gold.Chemscore.DG>
-16.8109

> <Gold.Chemscore.ZeroCoef>
-5.4800

> <Gold.Chemscore.Hbond>
2.8333

> <Gold.Chemscore.Metal>
0.0000

> <Gold.Chemscore.Lipo>
37.8438

> <Gold.Chemscore.Internal_Hbond>
0.0000

> <Gold.Chemscore.DEClash>
0.0000

> <Gold.Chemscore.DEInternal>
0.0018

> <Gold.Chemscore.Rot>
1.0000

> <Gold.Chemscore.Internal.Correction>
   9.000000E+99

> <Gold.Chemscore.Hbonds>
donor molecule, donor type, donor heavy atom, donor atom, acceptor molecule, acceptor atom, score
      L1  H     4    13       P1  7948  0.50
      L1  H     8    20       P1 10186  0.91
      L1  H     8    25       P1  7921  0.98

> <Gold.Chemscore.Hbond.Weighted>
-9.4632

> <Gold.Chemscore.Metal.Weighted>
-0.0000

> <Gold.Chemscore.Lipo.Weighted>
-4.4277

> <Gold.Chemscore.Internal_Hbond.Weighted>
0.0000

> <Gold.Chemscore.DEClash.Weighted>
0.0000

> <Gold.Chemscore.DEInternal.Weighted>
0.0018

> <Gold.Chemscore.Rot.Weighted>
2.5600

> <Gold.Chemscore.Internal.Correction.Weighted>
   9.000000E+99

> <Gold.Protein.RotatedTorsions>
[ 6907 6896 6895 6894 ] final    5.72 input  -60.11 | X-H torsion
[ 7974 7965 7964 7962 ] final  138.64 input  175.53 | X-H torsion
[ 8008 7997 7996 7995 ] final   56.33 input   59.86 | X-H torsion
[ 10167 10162 10161 10158 ] final   40.68 input  -65.29 | X-H torsion
[ 10718 10713 10712 10709 ] final   57.52 input   66.30 | X-H torsion
[ 10763 10752 10751 10750 ] final   57.90 input  -60.55 | X-H torsion
[ 11005 11000 10999 10996 ] final   87.62 input  -57.11 | X-H torsion

> <Gold.Protein.ActiveResidues>
 VAL166  LYS551  ARG553  GLY616  TRP617  ASP618  TYR619  PRO620  LYS621  CYS622 
 ASP623  PHE694  ASN695  SER759  ASP760  ASP761  ALA762  ILE779  LEU786  VAL792 
 PHE793  MET794  SER795  GLU796  ALA797  LYS798  CYS799  TRP800  GLU811  SER814 

> <Gold.Protein.RotatedAtoms>
  151.6621  135.0988  160.0181 H   0  0  0  0  0  0  0  0  0  0  0  0  # atno 6907 bound_to 6896
  152.3941  133.6716  159.6270 H   0  0  0  0  0  0  0  0  0  0  0  0  # atno 6908 bound_to 6896
  150.7851  133.8821  159.3330 H   0  0  0  0  0  0  0  0  0  0  0  0  # atno 6909 bound_to 6896
  144.9353  139.4996  143.5598 H   0  0  0  0  0  0  0  0  0  0  0  0  # atno 7974 bound_to 7965
  155.5156  140.3478  155.4397 H   0  0  0  0  0  0  0  0  0  0  0  0  # atno 8008 bound_to 7997
  156.0819  140.1389  156.9728 H   0  0  0  0  0  0  0  0  0  0  0  0  # atno 8009 bound_to 7997
  154.4585  140.0944  156.6802 H   0  0  0  0  0  0  0  0  0  0  0  0  # atno 8010 bound_to 7997
  140.3718  144.2095  150.6133 H   0  0  0  0  0  0  0  0  0  0  0  0  # atno 10167 bound_to 10162
  157.5521  130.8773  149.8979 H   0  0  0  0  0  0  0  0  0  0  0  0  # atno 10718 bound_to 10713
  152.9859  135.5625  154.5465 H   0  0  0  0  0  0  0  0  0  0  0  0  # atno 10763 bound_to 10752
  154.4910  135.2793  155.1498 H   0  0  0  0  0  0  0  0  0  0  0  0  # atno 10764 bound_to 10752
  154.2968  135.6315  153.5461 H   0  0  0  0  0  0  0  0  0  0  0  0  # atno 10765 bound_to 10752
  139.8915  134.8434  156.2885 H   0  0  0  0  0  0  0  0  0  0  0  0  # atno 11005 bound_to 11000
  146.3264  139.8334  142.8904 LP  0  0  0  0  0  0  0  0  0  0  0  0  # atno 17320 bound_to 7965
  145.3076  141.0211  143.3573 LP  0  0  0  0  0  0  0  0  0  0  0  0  # atno 17321 bound_to 7965
  140.5026  143.2313  151.8656 LP  0  0  0  0  0  0  0  0  0  0  0  0  # atno 17342 bound_to 10162
  139.4803  144.5042  151.9019 LP  0  0  0  0  0  0  0  0  0  0  0  0  # atno 17343 bound_to 10162
  156.0586  130.3704  150.1034 LP  0  0  0  0  0  0  0  0  0  0  0  0  # atno 17370 bound_to 10713
  156.9206  130.9681  151.3549 LP  0  0  0  0  0  0  0  0  0  0  0  0  # atno 17371 bound_to 10713
  140.9992  133.7162  156.0933 LP  0  0  0  0  0  0  0  0  0  0  0  0  # atno 17394 bound_to 11000
  140.7521  134.4033  157.5539 LP  0  0  0  0  0  0  0  0  0  0  0  0  # atno 17395 bound_to 11000

$$$$
