AV-unprocessed.smi:1900|AV-procd|sdf|7709|dock8
  -GOLD-   22720 9443D 1   1.00000     0.00000
 Structure written by MMmdl.
 44 45  0  0  0  0  0  0  0  0  2 V2000
  150.3199  141.1495  157.1384 C   0  0  0  0  0  0  0  0  0  0  0  0
  150.3611  141.1284  155.6001 C   0  0  2  0  0  0  0  0  0  0  0  0
  149.1135  140.4888  154.9593 C   0  0  0  0  0  0  0  0  0  0  0  0
  149.1217  139.0151  155.1187 N   0  3  1  0  0  0  0  0  0  0  0  0
  147.9008  138.3821  154.5603 C   0  0  0  0  0  0  0  0  0  0  0  0
  147.4518  139.0274  153.2382 C   0  0  0  0  0  0  0  0  0  0  0  0
  146.1893  138.3590  152.6679 C   0  0  0  0  0  0  0  0  0  0  0  0
  146.4722  137.0363  152.1219 N   0  0  0  0  0  0  0  0  0  0  0  0
  145.5449  136.1129  151.8295 C   0  0  0  0  0  0  0  0  0  0  0  0
  144.3355  136.2977  151.9679 O   0  0  0  0  0  0  0  0  0  0  0  0
  146.1065  134.9806  151.3753 N   0  0  0  0  0  0  0  0  0  0  0  0
  145.4438  133.7926  150.9753 C   0  0  0  0  0  0  0  0  0  0  0  0
  146.0904  132.5547  150.7111 C   0  0  0  0  0  0  0  0  0  0  0  0
  145.2202  131.6203  150.3560 N   0  0  0  0  0  0  0  0  0  0  0  0
  144.0244  132.2505  150.3887 N   0  0  0  0  0  0  0  0  0  0  0  0
  144.1120  133.5740  150.7602 C   0  0  0  0  0  0  0  0  0  0  0  0
  150.3824  138.4486  154.5810 C   0  0  0  0  0  0  0  0  0  0  0  0
  151.5994  139.0951  155.2671 C   0  0  1  0  0  0  0  0  0  0  0  0
  152.9225  138.6003  154.6722 C   0  0  0  0  0  0  0  0  0  0  0  0
  151.5453  140.5092  155.0986 O   0  0  0  0  0  0  0  0  0  0  0  0
  143.1668  131.7691  150.1582 H   0  0  0  0  0  0  0  0  0  0  0  0
  149.4776  141.7437  157.4935 H   0  0  0  0  0  0  0  0  0  0  0  0
  151.2290  141.5929  157.5455 H   0  0  0  0  0  0  0  0  0  0  0  0
  150.2139  140.1525  157.5648 H   0  0  0  0  0  0  0  0  0  0  0  0
  150.4044  142.1677  155.2732 H   0  0  0  0  0  0  0  0  0  0  0  0
  148.2113  140.9116  155.4031 H   0  0  0  0  0  0  0  0  0  0  0  0
  149.0837  140.7293  153.8953 H   0  0  0  0  0  0  0  0  0  0  0  0
  148.1042  137.3278  154.3673 H   0  0  0  0  0  0  0  0  0  0  0  0
  147.0973  138.4110  155.2979 H   0  0  0  0  0  0  0  0  0  0  0  0
  147.2564  140.0888  153.3877 H   0  0  0  0  0  0  0  0  0  0  0  0
  148.2588  138.9614  152.5074 H   0  0  0  0  0  0  0  0  0  0  0  0
  145.4407  138.2467  153.4527 H   0  0  0  0  0  0  0  0  0  0  0  0
  145.7389  138.9875  151.8977 H   0  0  0  0  0  0  0  0  0  0  0  0
  147.4430  136.7988  151.9778 H   0  0  0  0  0  0  0  0  0  0  0  0
  147.1143  134.9610  151.3193 H   0  0  0  0  0  0  0  0  0  0  0  0
  147.1405  132.3083  150.7659 H   0  0  0  0  0  0  0  0  0  0  0  0
  143.2442  134.2123  150.8332 H   0  0  0  0  0  0  0  0  0  0  0  0
  150.4147  137.3714  154.7400 H   0  0  0  0  0  0  0  0  0  0  0  0
  150.4251  138.6125  153.5029 H   0  0  0  0  0  0  0  0  0  0  0  0
  151.5948  138.8497  156.3293 H   0  0  0  0  0  0  0  0  0  0  0  0
  153.0233  137.5202  154.7824 H   0  0  0  0  0  0  0  0  0  0  0  0
  153.7729  139.0651  155.1716 H   0  0  0  0  0  0  0  0  0  0  0  0
  152.9911  138.8361  153.6098 H   0  0  0  0  0  0  0  0  0  0  0  0
  149.1139  138.8363  156.1127 H   0  0  0  0  0  0  0  0  0  0  0  0
  1  2  1  0  0  0  0
  1 22  1  0  0  0  0
  1 23  1  0  0  0  0
  1 24  1  0  0  0  0
  2 20  1  0  0  0  0
  2  3  1  0  0  0  0
  2 25  1  0  0  0  0
  3  4  1  0  0  0  0
  3 26  1  0  0  0  0
  3 27  1  0  0  0  0
  4  5  1  0  0  0  0
  4 17  1  0  0  0  0
  4 44  1  0  0  0  0
  5  6  1  0  0  0  0
  5 28  1  0  0  0  0
  5 29  1  0  0  0  0
  6  7  1  0  0  0  0
  6 30  1  0  0  0  0
  6 31  1  0  0  0  0
  7  8  1  0  0  0  0
  7 32  1  0  0  0  0
  7 33  1  0  0  0  0
  8  9  1  0  0  0  0
  8 34  1  0  0  0  0
  9 10  2  0  0  0  0
  9 11  1  0  0  0  0
 11 12  1  0  0  0  0
 11 35  1  0  0  0  0
 12 16  2  0  0  0  0
 12 13  1  0  0  0  0
 13 14  2  0  0  0  0
 13 36  1  0  0  0  0
 14 15  1  0  0  0  0
 15 21  1  0  0  0  0
 15 16  1  0  0  0  0
 16 37  1  0  0  0  0
 17 18  1  0  0  0  0
 17 38  1  0  0  0  0
 17 39  1  0  0  0  0
 18 19  1  0  0  0  0
 18 20  1  0  0  0  0
 18 40  1  0  0  0  0
 19 41  1  0  0  0  0
 19 42  1  0  0  0  0
 19 43  1  0  0  0  0
M  CHG  1   4   1
M  END
> <s_m_source_file>
AV-unprocessed.smi

> <i_m_source_file_index>
1900

> <i_lp_mmshare_version>
43012

> <i_f3d_flags>
0

> <s_epik_input>
W0NIM11bQ0BASF0xW0NIMl1OKFtDSDJdW0NASF0oTzEpW0NIM10pW0NIMl1bQ0gyXVtDSDJdW05IXUMoPU8pW05IXWMyW2NIXW5bbkhdW2NIXTI=

> <s_epik_cmdline>
J2VwaWtfcHl0aG9uJywgJy1waCcsICc3LjAnLCAnLXRuJywgJzgnLCAnLW1hJywgJzIwMCcsICctbWV0YWxfYmluZGluZycsICctaW1hZScsICc8aW5maWxlLm1hZT4nLCAnLW9tYWUnLCAnPG91dGZpbGUubWFlPic=

> <r_lp_tautomer_probability>
0.5

> <r_epik_Ionization_Penalty>
0.270543

> <r_epik_Ionization_Penalty_Charging>
0.270496

> <r_epik_Ionization_Penalty_Neutral>
4.67091e-05

> <r_epik_State_Penalty>
0.262618

> <r_epik_Charging_Adjusted_Penalty>
0.533114

> <i_epik_Tot_Q>
1

> <i_epik_Tot_abs_Q>
1

> <r_epik_Metal_State_Penalty>
0.262618

> <b_epik_Metal_Only>
0

> <s_lp_Force_Field>
OPLS_2005

> <r_lp_Energy>
21.2497

> <b_lp_Chiralities_Consistent>
1

> <s_lp_Variant>
AV-unprocessed.smi:1900-1

> <Gold.Version>
5.8.1

> <Gold.Id.Protein>
6NUR|6NUR_protein|mol2

> <Gold.PLP.Fitness>
46.6321

> <Gold.PLP.PLP>
-34.2491

> <Gold.PLP.part.hbond>
-2.9844

> <Gold.PLP.part.metal>
0.0000

> <Gold.PLP.part.buried>
-4.8332

> <Gold.PLP.part.nonpolar>
-28.0977

> <Gold.PLP.part.repulsive>
1.3364

> <Gold.PLP.ligand.clash>
0.0000

> <Gold.PLP.ligand.torsion>
0.4088

> <Gold.PLP.Chemscore.Hbond>
2.3913

> <Gold.PLP.Chemscore.CHOScore>
2.0000

> <Gold.PLP.Chemscore.Metal>
0.0000

> <Gold.Chemscore.Hbonds>
donor molecule, donor type, donor heavy atom, donor atom, acceptor molecule, acceptor atom, score
      L1  H     8    34       P1  7948  1.00
      L1  H    11    35       P1  7948  0.40
      P1  H  7989  7998       L1    20  0.85
      L1  C    13    36       P1 10747  1.00
      L1  C    16    37       P1 10186  0.88

> <Gold.PLP.Chemscore.Internal.Correction>
0.0268

> <Gold.Rescore>
     Score         DG    S(hbond)    S(metal)    S(lipo)     H(rot)  DE(clash)    DE(int)     intcor
     14.28     -16.03       1.94        0.00      77.02       1.93       0.21       1.54       ----

> <Gold.Chemscore.Fitness>
14.2835

> <Gold.Chemscore.DG>
-16.0277

> <Gold.Chemscore.ZeroCoef>
-5.4800

> <Gold.Chemscore.Hbond>
1.9430

> <Gold.Chemscore.Metal>
0.0000

> <Gold.Chemscore.Lipo>
77.0177

> <Gold.Chemscore.Internal_Hbond>
0.0000

> <Gold.Chemscore.DEClash>
0.2067

> <Gold.Chemscore.DEInternal>
1.5375

> <Gold.Chemscore.Rot>
1.9347

> <Gold.Chemscore.Internal.Correction>
   9.000000E+99

> <Gold.Chemscore.Hbonds>
donor molecule, donor type, donor heavy atom, donor atom, acceptor molecule, acceptor atom, score
      L1  H     8    34       P1  7948  0.99
      L1  H    11    35       P1  7948  0.27
      P1  H  7989  7998       L1    20  0.38

> <Gold.Chemscore.Hbond.Weighted>
-6.4895

> <Gold.Chemscore.Metal.Weighted>
-0.0000

> <Gold.Chemscore.Lipo.Weighted>
-9.0111

> <Gold.Chemscore.Internal_Hbond.Weighted>
0.0000

> <Gold.Chemscore.DEClash.Weighted>
0.2067

> <Gold.Chemscore.DEInternal.Weighted>
1.5375

> <Gold.Chemscore.Rot.Weighted>
4.9528

> <Gold.Chemscore.Internal.Correction.Weighted>
   9.000000E+99

> <Gold.Protein.RotatedTorsions>
[ 6907 6896 6895 6894 ] final -168.43 input  -60.11 | X-H torsion
[ 7974 7965 7964 7962 ] final  -37.70 input  175.53 | X-H torsion
[ 8008 7997 7996 7995 ] final  126.32 input   59.86 | X-H torsion
[ 10167 10162 10161 10158 ] final   68.48 input  -65.29 | X-H torsion
[ 10718 10713 10712 10709 ] final  -92.70 input   66.30 | X-H torsion
[ 10763 10752 10751 10750 ] final   91.99 input  -60.55 | X-H torsion
[ 11005 11000 10999 10996 ] final   62.61 input  -57.11 | X-H torsion

> <Gold.Protein.ActiveResidues>
 VAL166  LYS551  ARG553  GLY616  TRP617  ASP618  TYR619  PRO620  LYS621  CYS622 
 ASP623  PHE694  ASN695  SER759  ASP760  ASP761  ALA762  ILE779  LEU786  VAL792 
 PHE793  MET794  SER795  GLU796  ALA797  LYS798  CYS799  TRP800  GLU811  SER814 

> <Gold.Protein.RotatedAtoms>
  151.4754  133.3559  159.2829 H   0  0  0  0  0  0  0  0  0  0  0  0  # atno 6907 bound_to 6896
  150.8932  134.8340  159.7319 H   0  0  0  0  0  0  0  0  0  0  0  0  # atno 6908 bound_to 6896
  152.4836  134.4666  159.9674 H   0  0  0  0  0  0  0  0  0  0  0  0  # atno 6909 bound_to 6896
  146.0551  140.6427  142.9023 H   0  0  0  0  0  0  0  0  0  0  0  0  # atno 7974 bound_to 7965
  156.2860  140.2695  156.2092 H   0  0  0  0  0  0  0  0  0  0  0  0  # atno 8008 bound_to 7997
  155.0281  140.0386  157.2481 H   0  0  0  0  0  0  0  0  0  0  0  0  # atno 8009 bound_to 7997
  154.7377  140.2719  155.6405 H   0  0  0  0  0  0  0  0  0  0  0  0  # atno 8010 bound_to 7997
  140.0782  144.5093  150.7180 H   0  0  0  0  0  0  0  0  0  0  0  0  # atno 10167 bound_to 10162
  156.0005  130.4997  150.5665 H   0  0  0  0  0  0  0  0  0  0  0  0  # atno 10718 bound_to 10713
  153.2143  135.4377  155.0416 H   0  0  0  0  0  0  0  0  0  0  0  0  # atno 10763 bound_to 10752
  154.8217  135.3340  154.7022 H   0  0  0  0  0  0  0  0  0  0  0  0  # atno 10764 bound_to 10752
  153.7458  135.7001  153.5012 H   0  0  0  0  0  0  0  0  0  0  0  0  # atno 10765 bound_to 10752
  140.0081  134.6339  155.9824 H   0  0  0  0  0  0  0  0  0  0  0  0  # atno 11005 bound_to 11000
  144.7144  140.4155  143.7056 LP  0  0  0  0  0  0  0  0  0  0  0  0  # atno 17320 bound_to 7965
  145.6657  139.1589  143.2783 LP  0  0  0  0  0  0  0  0  0  0  0  0  # atno 17321 bound_to 7965
  140.7091  143.2491  151.4636 LP  0  0  0  0  0  0  0  0  0  0  0  0  # atno 17342 bound_to 10162
  139.5795  144.1742  152.1949 LP  0  0  0  0  0  0  0  0  0  0  0  0  # atno 17343 bound_to 10162
  157.3566  131.0742  151.1670 LP  0  0  0  0  0  0  0  0  0  0  0  0  # atno 17370 bound_to 10713
  157.2469  130.6595  149.5914 LP  0  0  0  0  0  0  0  0  0  0  0  0  # atno 17371 bound_to 10713
  141.1691  133.6537  156.4587 LP  0  0  0  0  0  0  0  0  0  0  0  0  # atno 17394 bound_to 11000
  140.4605  134.6846  157.5083 LP  0  0  0  0  0  0  0  0  0  0  0  0  # atno 17395 bound_to 11000

$$$$
