AV-unprocessed.smi:1008|AV-procd|sdf|4412|dock1
  -GOLD-   22720 2353D 1   1.00000     0.00000
 Structure written by MMmdl.
 23 23  0  0  0  0  0  0  0  0  1 V2000
  152.6739  140.8929  158.8421 C   0  0  0  0  0  0  0  0  0  0  0  0
  152.0068  140.7413  157.4873 C   0  0  0  0  0  0  0  0  0  0  0  0
  152.5156  139.7800  156.6849 N   0  0  0  0  0  0  0  0  0  0  0  0
  151.9499  139.6321  155.4871 C   0  0  0  0  0  0  0  0  0  0  0  0
  152.4706  138.6517  154.6786 N   0  0  0  0  0  0  0  0  0  0  0  0
  150.9318  140.3367  154.9918 N   0  0  0  0  0  0  0  0  0  0  0  0
  150.4090  141.3013  155.7794 C   0  0  0  0  0  0  0  0  0  0  0  0
  149.3714  142.0373  155.2848 O   0  0  0  0  0  0  0  0  0  0  0  0
  150.9187  141.5531  157.0772 C   0  0  0  0  0  0  0  0  0  0  0  0
  150.3324  142.6418  157.9667 C   0  0  0  0  0  0  0  0  0  0  0  0
  151.2693  143.8508  158.0928 C   0  0  0  0  0  0  0  0  0  0  0  0
  151.5372  144.3828  156.8140 O   0  0  0  0  0  0  0  0  0  0  0  0
  149.4486  142.9563  155.4899 H   0  0  0  0  0  0  0  0  0  0  0  0
  152.9709  141.9280  159.0105 H   0  0  0  0  0  0  0  0  0  0  0  0
  153.5682  140.2730  158.9172 H   0  0  0  0  0  0  0  0  0  0  0  0
  151.9899  140.5941  159.6364 H   0  0  0  0  0  0  0  0  0  0  0  0
  153.2427  138.0840  154.9961 H   0  0  0  0  0  0  0  0  0  0  0  0
  152.0985  138.5033  153.7519 H   0  0  0  0  0  0  0  0  0  0  0  0
  150.1094  142.2364  158.9536 H   0  0  0  0  0  0  0  0  0  0  0  0
  149.3708  142.9579  157.5610 H   0  0  0  0  0  0  0  0  0  0  0  0
  150.8191  144.6272  158.7119 H   0  0  0  0  0  0  0  0  0  0  0  0
  152.2103  143.5627  158.5625 H   0  0  0  0  0  0  0  0  0  0  0  0
  150.7168  144.5012  156.3599 H   0  0  0  0  0  0  0  0  0  0  0  0
  1 14  1  0  0  0  0
  1 15  1  0  0  0  0
  1 16  1  0  0  0  0
  1  2  1  0  0  0  0
  2  9  2  0  0  0  0
  2  3  1  0  0  0  0
  3  4  2  0  0  0  0
  4  5  1  0  0  0  0
  4  6  1  0  0  0  0
  5 17  1  0  0  0  0
  5 18  1  0  0  0  0
  6  7  2  0  0  0  0
  7  8  1  0  0  0  0
  7  9  1  0  0  0  0
  8 13  1  0  0  0  0
  9 10  1  0  0  0  0
 10 11  1  0  0  0  0
 10 19  1  0  0  0  0
 10 20  1  0  0  0  0
 11 12  1  0  0  0  0
 11 21  1  0  0  0  0
 11 22  1  0  0  0  0
 12 23  1  0  0  0  0
M  END
> <s_m_source_file>
AV-unprocessed.smi

> <i_m_source_file_index>
1008

> <i_lp_mmshare_version>
43012

> <i_f3d_flags>
0

> <s_epik_input>
W0NIM11jMW5jKFtOSDJdKVtuSF1jKD1PKWMxW0NIMl1bQ0gyXVtPSF0=

> <s_epik_cmdline>
J2VwaWtfcHl0aG9uJywgJy1waCcsICc3LjAnLCAnLXRuJywgJzgnLCAnLW1hJywgJzIwMCcsICctbWV0YWxfYmluZGluZycsICctaW1hZScsICc8aW5maWxlLm1hZT4nLCAnLW9tYWUnLCAnPG91dGZpbGUubWFlPic=

> <r_lp_tautomer_probability>
0.0131372

> <r_epik_Ionization_Penalty>
8.55637

> <r_epik_Ionization_Penalty_Charging>
0

> <r_epik_Ionization_Penalty_Neutral>
8.55637

> <r_epik_State_Penalty>
2.72329

> <r_epik_Charging_Adjusted_Penalty>
2.72329

> <i_epik_Tot_Q>
0

> <i_epik_Tot_abs_Q>
0

> <r_epik_Metal_State_Penalty>
2.85363

> <b_epik_Metal_Only>
0

> <s_lp_Force_Field>
OPLS_2005

> <r_lp_Energy>
-5.16374

> <b_lp_Chiralities_Consistent>
1

> <s_lp_Variant>
AV-unprocessed.smi:1008-3

> <Gold.Version>
5.8.1

> <Gold.Id.Protein>
6NUR|6NUR_protein|mol2

> <Gold.PLP.Fitness>
34.5678

> <Gold.PLP.PLP>
-22.8332

> <Gold.PLP.part.hbond>
-4.0000

> <Gold.PLP.part.metal>
0.0000

> <Gold.PLP.part.buried>
-3.7780

> <Gold.PLP.part.nonpolar>
-15.2677

> <Gold.PLP.part.repulsive>
0.2631

> <Gold.PLP.ligand.clash>
0.0000

> <Gold.PLP.ligand.torsion>
0.1328

> <Gold.PLP.Chemscore.Hbond>
4.0000

> <Gold.PLP.Chemscore.CHOScore>
0.0000

> <Gold.PLP.Chemscore.Metal>
0.0000

> <Gold.Chemscore.Hbonds>
donor molecule, donor type, donor heavy atom, donor atom, acceptor molecule, acceptor atom, score
      L1  H     8    13       P1  8028  1.00
      L1  H    12    23       P1  8028  1.00
      P1  H  7989  7998       L1     6  1.00
      P1  H  7997  8008       L1     3  1.00

> <Gold.PLP.Chemscore.Internal.Correction>
0.0003

> <Gold.Rescore>
     Score         DG    S(hbond)    S(metal)    S(lipo)     H(rot)  DE(clash)    DE(int)     intcor
     13.37     -13.81       3.27        0.00      37.56       2.73       0.24       0.21       ----

> <Gold.Chemscore.Fitness>
13.3683

> <Gold.Chemscore.DG>
-13.8127

> <Gold.Chemscore.ZeroCoef>
-5.4800

> <Gold.Chemscore.Hbond>
3.2697

> <Gold.Chemscore.Metal>
0.0000

> <Gold.Chemscore.Lipo>
37.5620

> <Gold.Chemscore.Internal_Hbond>
0.0000

> <Gold.Chemscore.DEClash>
0.2370

> <Gold.Chemscore.DEInternal>
0.2074

> <Gold.Chemscore.Rot>
2.7277

> <Gold.Chemscore.Internal.Correction>
   9.000000E+99

> <Gold.Chemscore.Hbonds>
donor molecule, donor type, donor heavy atom, donor atom, acceptor molecule, acceptor atom, score
      L1  H     8    13       P1  8028  0.98
      L1  H    12    23       P1  8028  0.99
      P1  H  7989  7998       L1     6  0.23
      P1  H  7997  8008       L1     3  0.41

> <Gold.Chemscore.Hbond.Weighted>
-10.9208

> <Gold.Chemscore.Metal.Weighted>
-0.0000

> <Gold.Chemscore.Lipo.Weighted>
-4.3948

> <Gold.Chemscore.Internal_Hbond.Weighted>
0.0000

> <Gold.Chemscore.DEClash.Weighted>
0.2370

> <Gold.Chemscore.DEInternal.Weighted>
0.2074

> <Gold.Chemscore.Rot.Weighted>
6.9829

> <Gold.Chemscore.Internal.Correction.Weighted>
   9.000000E+99

> <Gold.Protein.RotatedTorsions>
[ 6907 6896 6895 6894 ] final  166.63 input  -60.11 | X-H torsion
[ 7974 7965 7964 7962 ] final -176.53 input  175.53 | X-H torsion
[ 8008 7997 7996 7995 ] final  -68.86 input   59.86 | X-H torsion
[ 10167 10162 10161 10158 ] final   99.78 input  -65.29 | X-H torsion
[ 10718 10713 10712 10709 ] final   36.16 input   66.30 | X-H torsion
[ 10763 10752 10751 10750 ] final -116.95 input  -60.55 | X-H torsion
[ 11005 11000 10999 10996 ] final  121.18 input  -57.11 | X-H torsion

> <Gold.Protein.ActiveResidues>
 VAL166  LYS551  ARG553  GLY616  TRP617  ASP618  TYR619  PRO620  LYS621  CYS622 
 ASP623  PHE694  ASN695  SER759  ASP760  ASP761  ALA762  ILE779  LEU786  VAL792 
 PHE793  MET794  SER795  GLU796  ALA797  LYS798  CYS799  TRP800  GLU811  SER814 

> <Gold.Protein.RotatedAtoms>
  151.8759  133.3485  159.3749 H   0  0  0  0  0  0  0  0  0  0  0  0  # atno 6907 bound_to 6896
  150.7140  134.5067  159.5597 H   0  0  0  0  0  0  0  0  0  0  0  0  # atno 6908 bound_to 6896
  152.2609  134.8036  160.0482 H   0  0  0  0  0  0  0  0  0  0  0  0  # atno 6909 bound_to 6896
  144.7127  140.1157  143.6408 H   0  0  0  0  0  0  0  0  0  0  0  0  # atno 7974 bound_to 7965
  154.4897  140.0864  156.7567 H   0  0  0  0  0  0  0  0  0  0  0  0  # atno 8008 bound_to 7997
  155.4261  140.3448  155.4257 H   0  0  0  0  0  0  0  0  0  0  0  0  # atno 8009 bound_to 7997
  156.1313  140.1502  156.9050 H   0  0  0  0  0  0  0  0  0  0  0  0  # atno 8010 bound_to 7997
  139.7587  144.6961  151.0325 H   0  0  0  0  0  0  0  0  0  0  0  0  # atno 10167 bound_to 10162
  157.3316  130.7500  149.6851 H   0  0  0  0  0  0  0  0  0  0  0  0  # atno 10718 bound_to 10713
  154.8538  135.4327  154.1902 H   0  0  0  0  0  0  0  0  0  0  0  0  # atno 10763 bound_to 10752
  153.2972  135.6966  153.7243 H   0  0  0  0  0  0  0  0  0  0  0  0  # atno 10764 bound_to 10752
  153.6387  135.3472  155.3039 H   0  0  0  0  0  0  0  0  0  0  0  0  # atno 10765 bound_to 10752
  139.9215  134.9638  156.7920 H   0  0  0  0  0  0  0  0  0  0  0  0  # atno 11005 bound_to 11000
  145.9416  139.2672  143.1265 LP  0  0  0  0  0  0  0  0  0  0  0  0  # atno 17320 bound_to 7965
  145.9418  140.8974  143.0304 LP  0  0  0  0  0  0  0  0  0  0  0  0  # atno 17321 bound_to 7965
  140.7805  143.4723  151.0130 LP  0  0  0  0  0  0  0  0  0  0  0  0  # atno 17342 bound_to 10162
  139.8409  143.7565  152.3180 LP  0  0  0  0  0  0  0  0  0  0  0  0  # atno 17343 bound_to 10162
  155.9696  130.4194  150.4372 LP  0  0  0  0  0  0  0  0  0  0  0  0  # atno 17370 bound_to 10713
  157.2404  131.0524  151.2440 LP  0  0  0  0  0  0  0  0  0  0  0  0  # atno 17371 bound_to 10713
  140.6460  133.9775  155.7731 LP  0  0  0  0  0  0  0  0  0  0  0  0  # atno 17394 bound_to 11000
  141.0740  134.0163  157.3485 LP  0  0  0  0  0  0  0  0  0  0  0  0  # atno 17395 bound_to 11000

$$$$
