AV-unprocessed.smi:984|AV-procd|sdf|4317|dock2
  -GOLD-   22720 2223D 1   1.00000     0.00000
 Structure written by MMmdl.
 34 34  0  0  0  0  0  0  0  0  1 V2000
  152.0118  144.8884  159.7714 C   0  0  0  0  0  0  0  0  0  0  0  0
  152.9414  143.6773  159.6436 C   0  0  0  0  0  0  0  0  0  0  0  0
  152.1723  142.3453  159.5758 C   0  0  0  0  0  0  0  0  0  0  0  0
  151.2298  142.2129  158.3639 C   0  0  0  0  0  0  0  0  0  0  0  0
  150.9254  140.8190  158.0546 N   0  0  0  0  0  0  0  0  0  0  0  0
  151.8261  139.8268  157.9877 C   0  0  0  0  0  0  0  0  0  0  0  0
  153.0188  139.9774  158.2543 O   0  0  0  0  0  0  0  0  0  0  0  0
  151.3039  138.4576  157.5439 C   0  0  0  0  0  0  0  0  0  0  0  0
  150.0660  138.1424  158.2476 N   0  0  0  0  0  0  0  0  0  0  0  0
  149.6642  136.9182  158.6251 C   0  0  0  0  0  0  0  0  0  0  0  0
  150.3663  135.9117  158.5365 O   0  0  0  0  0  0  0  0  0  0  0  0
  148.2345  136.8135  159.1566 C   0  0  0  0  0  0  0  0  0  0  0  0
  148.1929  135.9800  160.3467 N   0  0  0  0  0  0  0  0  0  0  0  0
  148.3351  134.6603  160.4873 C   0  0  0  0  0  0  0  0  0  0  0  0
  148.2075  134.2381  161.7376 N   0  0  0  0  0  0  0  0  0  0  0  0
  147.9731  135.4322  162.3590 C   0  0  0  0  0  0  0  0  0  0  0  0
  147.9539  136.5075  161.5711 N   0  0  0  0  0  0  0  0  0  0  0  0
  152.5855  145.8140  159.8224 H   0  0  0  0  0  0  0  0  0  0  0  0
  151.4029  144.8249  160.6736 H   0  0  0  0  0  0  0  0  0  0  0  0
  151.3399  144.9604  158.9159 H   0  0  0  0  0  0  0  0  0  0  0  0
  153.5547  143.8036  158.7511 H   0  0  0  0  0  0  0  0  0  0  0  0
  153.6283  143.6607  160.4904 H   0  0  0  0  0  0  0  0  0  0  0  0
  152.8905  141.5253  159.5424 H   0  0  0  0  0  0  0  0  0  0  0  0
  151.6022  142.2078  160.4955 H   0  0  0  0  0  0  0  0  0  0  0  0
  150.3180  142.7901  158.5260 H   0  0  0  0  0  0  0  0  0  0  0  0
  151.7089  142.6480  157.4867 H   0  0  0  0  0  0  0  0  0  0  0  0
  149.9651  140.6023  157.8299 H   0  0  0  0  0  0  0  0  0  0  0  0
  151.1531  138.4567  156.4633 H   0  0  0  0  0  0  0  0  0  0  0  0
  152.0367  137.6797  157.7615 H   0  0  0  0  0  0  0  0  0  0  0  0
  149.4142  138.9037  158.3711 H   0  0  0  0  0  0  0  0  0  0  0  0
  147.8515  137.8033  159.4090 H   0  0  0  0  0  0  0  0  0  0  0  0
  147.5806  136.3951  158.3898 H   0  0  0  0  0  0  0  0  0  0  0  0
  148.5253  133.9954  159.6574 H   0  0  0  0  0  0  0  0  0  0  0  0
  147.8086  135.5107  163.4235 H   0  0  0  0  0  0  0  0  0  0  0  0
  1  2  1  0  0  0  0
  1 18  1  0  0  0  0
  1 19  1  0  0  0  0
  1 20  1  0  0  0  0
  2  3  1  0  0  0  0
  2 21  1  0  0  0  0
  2 22  1  0  0  0  0
  3  4  1  0  0  0  0
  3 23  1  0  0  0  0
  3 24  1  0  0  0  0
  4  5  1  0  0  0  0
  4 25  1  0  0  0  0
  4 26  1  0  0  0  0
  5  6  1  0  0  0  0
  5 27  1  0  0  0  0
  6  7  2  0  0  0  0
  6  8  1  0  0  0  0
  8  9  1  0  0  0  0
  8 28  1  0  0  0  0
  8 29  1  0  0  0  0
  9 10  1  0  0  0  0
  9 30  1  0  0  0  0
 10 11  2  0  0  0  0
 10 12  1  0  0  0  0
 12 13  1  0  0  0  0
 12 31  1  0  0  0  0
 12 32  1  0  0  0  0
 13 17  1  0  0  0  0
 13 14  1  0  0  0  0
 14 15  2  0  0  0  0
 14 33  1  0  0  0  0
 15 16  1  0  0  0  0
 16 17  2  0  0  0  0
 16 34  1  0  0  0  0
M  END
> <s_m_source_file>
AV-unprocessed.smi

> <i_m_source_file_index>
984

> <i_lp_mmshare_version>
43012

> <i_f3d_flags>
0

> <s_epik_input>
W0NIM11bQ0gyXVtDSDJdW0NIMl1bTkhdQyg9TylbQ0gyXVtOSF1DKD1PKVtDSDJdbjFbY0hdbltjSF1uMQ==

> <s_epik_cmdline>
J2VwaWtfcHl0aG9uJywgJy1waCcsICc3LjAnLCAnLXRuJywgJzgnLCAnLW1hJywgJzIwMCcsICctbWV0YWxfYmluZGluZycsICctaW1hZScsICc8aW5maWxlLm1hZT4nLCAnLW9tYWUnLCAnPG91dGZpbGUubWFlPic=

> <r_lp_tautomer_probability>
1

> <r_epik_Ionization_Penalty>
7.27004e-06

> <r_epik_Ionization_Penalty_Charging>
0

> <r_epik_Ionization_Penalty_Neutral>
7.27004e-06

> <r_epik_State_Penalty>
-0

> <r_epik_Charging_Adjusted_Penalty>
0

> <i_epik_Tot_Q>
0

> <i_epik_Tot_abs_Q>
0

> <r_epik_Metal_State_Penalty>
-0

> <b_epik_Metal_Only>
0

> <s_lp_Force_Field>
OPLS_2005

> <r_lp_Energy>
2.39519

> <b_lp_Chiralities_Consistent>
1

> <s_lp_Variant>
AV-unprocessed.smi:984-1

> <Gold.Version>
5.8.1

> <Gold.Id.Protein>
6NUR|6NUR_protein|mol2

> <Gold.PLP.Fitness>
43.1093

> <Gold.PLP.PLP>
-33.5398

> <Gold.PLP.part.hbond>
-4.0000

> <Gold.PLP.part.metal>
0.0000

> <Gold.PLP.part.buried>
-4.7129

> <Gold.PLP.part.nonpolar>
-24.5716

> <Gold.PLP.part.repulsive>
0.2037

> <Gold.PLP.ligand.clash>
0.0000

> <Gold.PLP.ligand.torsion>
0.8634

> <Gold.PLP.Chemscore.Hbond>
3.7280

> <Gold.PLP.Chemscore.CHOScore>
0.0000

> <Gold.PLP.Chemscore.Metal>
0.0000

> <Gold.Chemscore.Hbonds>
donor molecule, donor type, donor heavy atom, donor atom, acceptor molecule, acceptor atom, score
      P1  H  6896  6907       L1    11  0.91
      P1  H  6931  6943       L1    17  0.89
      P1  H  7997  8010       L1     7  1.00

> <Gold.PLP.Chemscore.Internal.Correction>
0.1123

> <Gold.Rescore>
     Score         DG    S(hbond)    S(metal)    S(lipo)     H(rot)  DE(clash)    DE(int)     intcor
     12.01     -13.29       3.40        0.00      48.60       3.61       0.00       1.28       ----

> <Gold.Chemscore.Fitness>
12.0149

> <Gold.Chemscore.DG>
-13.2942

> <Gold.Chemscore.ZeroCoef>
-5.4800

> <Gold.Chemscore.Hbond>
3.4049

> <Gold.Chemscore.Metal>
0.0000

> <Gold.Chemscore.Lipo>
48.6004

> <Gold.Chemscore.Internal_Hbond>
0.0000

> <Gold.Chemscore.DEClash>
0.0024

> <Gold.Chemscore.DEInternal>
1.2769

> <Gold.Chemscore.Rot>
3.6111

> <Gold.Chemscore.Internal.Correction>
   9.000000E+99

> <Gold.Chemscore.Hbonds>
donor molecule, donor type, donor heavy atom, donor atom, acceptor molecule, acceptor atom, score
      P1  H  6896  6907       L1    11  0.88
      P1  H  6931  6943       L1    17  0.73
      P1  H  7997  8010       L1     7  0.90

> <Gold.Chemscore.Hbond.Weighted>
-11.3724

> <Gold.Chemscore.Metal.Weighted>
-0.0000

> <Gold.Chemscore.Lipo.Weighted>
-5.6863

> <Gold.Chemscore.Internal_Hbond.Weighted>
0.0000

> <Gold.Chemscore.DEClash.Weighted>
0.0024

> <Gold.Chemscore.DEInternal.Weighted>
1.2769

> <Gold.Chemscore.Rot.Weighted>
9.2444

> <Gold.Chemscore.Internal.Correction.Weighted>
   9.000000E+99

> <Gold.Protein.RotatedTorsions>
[ 6907 6896 6895 6894 ] final  -45.56 input  -60.11 | X-H torsion
[ 7974 7965 7964 7962 ] final -164.13 input  175.53 | X-H torsion
[ 8008 7997 7996 7995 ] final   47.49 input   59.86 | X-H torsion
[ 10167 10162 10161 10158 ] final  159.61 input  -65.29 | X-H torsion
[ 10718 10713 10712 10709 ] final  156.28 input   66.30 | X-H torsion
[ 10763 10752 10751 10750 ] final  -30.06 input  -60.55 | X-H torsion
[ 11005 11000 10999 10996 ] final  102.81 input  -57.11 | X-H torsion

> <Gold.Protein.ActiveResidues>
 VAL166  LYS551  ARG553  GLY616  TRP617  ASP618  TYR619  PRO620  LYS621  CYS622 
 ASP623  PHE694  ASN695  SER759  ASP760  ASP761  ALA762  ILE779  LEU786  VAL792 
 PHE793  MET794  SER795  GLU796  ALA797  LYS798  CYS799  TRP800  GLU811  SER814 

> <Gold.Protein.RotatedAtoms>
  150.9206  134.8624  159.7486 H   0  0  0  0  0  0  0  0  0  0  0  0  # atno 6907 bound_to 6896
  152.4991  134.4224  159.9495 H   0  0  0  0  0  0  0  0  0  0  0  0  # atno 6908 bound_to 6896
  151.4258  133.3645  159.2797 H   0  0  0  0  0  0  0  0  0  0  0  0  # atno 6909 bound_to 6896
  144.7306  140.3006  143.6205 H   0  0  0  0  0  0  0  0  0  0  0  0  # atno 7974 bound_to 7965
  155.3700  140.3423  155.4243 H   0  0  0  0  0  0  0  0  0  0  0  0  # atno 8008 bound_to 7997
  156.1668  140.1618  156.8552 H   0  0  0  0  0  0  0  0  0  0  0  0  # atno 8009 bound_to 7997
  154.5193  140.0771  156.8123 H   0  0  0  0  0  0  0  0  0  0  0  0  # atno 8010 bound_to 7997
  139.4833  144.4714  151.8571 H   0  0  0  0  0  0  0  0  0  0  0  0  # atno 10167 bound_to 10162
  157.2071  131.0689  151.1991 H   0  0  0  0  0  0  0  0  0  0  0  0  # atno 10718 bound_to 10713
  153.7748  135.6909  153.4899 H   0  0  0  0  0  0  0  0  0  0  0  0  # atno 10763 bound_to 10752
  153.1850  135.4492  155.0076 H   0  0  0  0  0  0  0  0  0  0  0  0  # atno 10764 bound_to 10752
  154.8104  135.3375  154.7255 H   0  0  0  0  0  0  0  0  0  0  0  0  # atno 10765 bound_to 10752
  139.8779  134.9238  156.5114 H   0  0  0  0  0  0  0  0  0  0  0  0  # atno 11005 bound_to 11000
  145.7764  139.1875  143.2183 LP  0  0  0  0  0  0  0  0  0  0  0  0  # atno 17320 bound_to 7965
  146.0870  140.7700  142.9614 LP  0  0  0  0  0  0  0  0  0  0  0  0  # atno 17321 bound_to 7965
  140.4183  144.2277  150.5887 LP  0  0  0  0  0  0  0  0  0  0  0  0  # atno 17342 bound_to 10162
  140.4899  143.2351  151.8834 LP  0  0  0  0  0  0  0  0  0  0  0  0  # atno 17343 bound_to 10162
  157.3709  130.7181  149.6564 LP  0  0  0  0  0  0  0  0  0  0  0  0  # atno 17370 bound_to 10713
  155.9694  130.4199  150.4397 LP  0  0  0  0  0  0  0  0  0  0  0  0  # atno 17371 bound_to 10713
  140.8517  133.8127  155.9176 LP  0  0  0  0  0  0  0  0  0  0  0  0  # atno 17394 bound_to 11000
  140.9137  134.2228  157.4970 LP  0  0  0  0  0  0  0  0  0  0  0  0  # atno 17395 bound_to 11000

$$$$
