AV-unprocessed.smi:1596|AV-procd|sdf|6418|dock1
  -GOLD-   22720 7 53D 1   1.00000     0.00000
 Structure written by MMmdl.
 48 49  0  0  0  0  0  0  0  0  1 V2000
  155.1992  140.9704  159.8532 C   0  0  0  0  0  0  0  0  0  0  0  0
  153.9978  141.2930  160.7549 C   0  0  0  0  0  0  0  0  0  0  0  0
  153.0474  142.2204  160.1355 N   0  0  0  0  0  0  0  0  0  0  0  0
  152.8076  143.5182  160.7671 C   0  0  0  0  0  0  0  0  0  0  0  0
  152.7235  143.4380  162.2979 C   0  0  0  0  0  0  0  0  0  0  0  0
  152.2654  141.7989  159.0309 C   0  0  0  0  0  0  0  0  0  0  0  0
  152.3361  140.4768  158.5236 C   0  0  0  0  0  0  0  0  0  0  0  0
  151.5299  140.1077  157.4297 C   0  0  0  0  0  0  0  0  0  0  0  0
  150.6671  141.0698  156.8558 C   0  0  0  0  0  0  0  0  0  0  0  0
  149.7865  140.8274  155.7656 N   0  0  0  0  0  0  0  0  0  0  0  0
  149.3972  139.6579  155.2289 C   0  0  0  0  0  0  0  0  0  0  0  0
  149.7998  138.5452  155.5663 O   0  0  0  0  0  0  0  0  0  0  0  0
  148.5026  139.8529  154.2494 N   0  0  0  0  0  0  0  0  0  0  0  0
  147.8644  138.7996  153.4650 C   0  0  2  0  0  0  0  0  0  0  0  0
  147.0534  139.4312  152.3172 C   0  0  0  0  0  0  0  0  0  0  0  0
  146.3042  138.3652  151.5016 C   0  0  0  0  0  0  0  0  0  0  0  0
  145.3986  137.5122  152.4060 C   0  0  1  0  0  0  0  0  0  0  0  0
  144.7763  136.5046  151.6371 O   0  0  0  0  0  0  0  0  0  0  0  0
  146.2072  136.8661  153.5437 C   0  0  0  0  0  0  0  0  0  0  0  0
  146.9597  137.9279  154.3618 C   0  0  0  0  0  0  0  0  0  0  0  0
  150.6605  142.3561  157.4287 C   0  0  0  0  0  0  0  0  0  0  0  0
  151.4316  142.7124  158.4762 N   0  0  0  0  0  0  0  0  0  0  0  0
  155.8796  140.2831  160.3554 H   0  0  0  0  0  0  0  0  0  0  0  0
  155.7655  141.8676  159.6030 H   0  0  0  0  0  0  0  0  0  0  0  0
  154.8896  140.5009  158.9206 H   0  0  0  0  0  0  0  0  0  0  0  0
  153.4793  140.3647  160.9965 H   0  0  0  0  0  0  0  0  0  0  0  0
  154.3405  141.6894  161.7110 H   0  0  0  0  0  0  0  0  0  0  0  0
  153.6192  144.1934  160.4942 H   0  0  0  0  0  0  0  0  0  0  0  0
  151.9099  143.9806  160.3575 H   0  0  0  0  0  0  0  0  0  0  0  0
  152.4902  144.4160  162.7191 H   0  0  0  0  0  0  0  0  0  0  0  0
  153.6685  143.1149  162.7332 H   0  0  0  0  0  0  0  0  0  0  0  0
  151.9480  142.7444  162.6232 H   0  0  0  0  0  0  0  0  0  0  0  0
  152.9945  139.7332  158.9449 H   0  0  0  0  0  0  0  0  0  0  0  0
  151.5886  139.0937  157.0688 H   0  0  0  0  0  0  0  0  0  0  0  0
  149.4081  141.6563  155.3311 H   0  0  0  0  0  0  0  0  0  0  0  0
  148.2345  140.8022  154.0353 H   0  0  0  0  0  0  0  0  0  0  0  0
  148.6377  138.1676  153.0236 H   0  0  0  0  0  0  0  0  0  0  0  0
  146.3344  140.1459  152.7204 H   0  0  0  0  0  0  0  0  0  0  0  0
  147.7147  139.9959  151.6590 H   0  0  0  0  0  0  0  0  0  0  0  0
  145.7114  138.8461  150.7228 H   0  0  0  0  0  0  0  0  0  0  0  0
  147.0270  137.7266  150.9913 H   0  0  0  0  0  0  0  0  0  0  0  0
  144.6151  138.1415  152.8305 H   0  0  0  0  0  0  0  0  0  0  0  0
  144.3101  136.9147  150.9248 H   0  0  0  0  0  0  0  0  0  0  0  0
  145.5459  136.2971  154.1983 H   0  0  0  0  0  0  0  0  0  0  0  0
  146.9241  136.1543  153.1320 H   0  0  0  0  0  0  0  0  0  0  0  0
  147.5538  137.4369  155.1335 H   0  0  0  0  0  0  0  0  0  0  0  0
  146.2385  138.5588  154.8833 H   0  0  0  0  0  0  0  0  0  0  0  0
  150.0150  143.1281  157.0360 H   0  0  0  0  0  0  0  0  0  0  0  0
  1  2  1  0  0  0  0
  1 23  1  0  0  0  0
  1 24  1  0  0  0  0
  1 25  1  0  0  0  0
  2  3  1  0  0  0  0
  2 26  1  0  0  0  0
  2 27  1  0  0  0  0
  3  4  1  0  0  0  0
  3  6  1  0  0  0  0
  4  5  1  0  0  0  0
  4 28  1  0  0  0  0
  4 29  1  0  0  0  0
  5 30  1  0  0  0  0
  5 31  1  0  0  0  0
  5 32  1  0  0  0  0
  6 22  1  0  0  0  0
  6  7  2  0  0  0  0
  7  8  1  0  0  0  0
  7 33  1  0  0  0  0
  8  9  2  0  0  0  0
  8 34  1  0  0  0  0
  9 10  1  0  0  0  0
  9 21  1  0  0  0  0
 10 11  1  0  0  0  0
 10 35  1  0  0  0  0
 11 12  2  0  0  0  0
 11 13  1  0  0  0  0
 13 14  1  0  0  0  0
 13 36  1  0  0  0  0
 14 20  1  0  0  0  0
 14 15  1  0  0  0  0
 14 37  1  0  0  0  0
 15 16  1  0  0  0  0
 15 38  1  0  0  0  0
 15 39  1  0  0  0  0
 16 17  1  0  0  0  0
 16 40  1  0  0  0  0
 16 41  1  0  0  0  0
 17 18  1  0  0  0  0
 17 19  1  0  0  0  0
 17 42  1  0  0  0  0
 18 43  1  0  0  0  0
 19 20  1  0  0  0  0
 19 44  1  0  0  0  0
 19 45  1  0  0  0  0
 20 46  1  0  0  0  0
 20 47  1  0  0  0  0
 21 22  2  0  0  0  0
 21 48  1  0  0  0  0
M  END
> <s_m_source_file>
AV-unprocessed.smi

> <i_m_source_file_index>
1596

> <i_lp_mmshare_version>
43012

> <i_f3d_flags>
0

> <s_epik_input>
W0NIM11bQ0gyXU4oW0NIMl1bQ0gzXSljMVtjSF1bY0hdYyhbY0hdbjEpW05IXUMoPU8pW05IXVtDQEBIXTJbQ0gyXVtDSDJdW0NAQEhdKFtPSF0pW0NIMl1bQ0gyXTI=

> <s_epik_cmdline>
J2VwaWtfcHl0aG9uJywgJy1waCcsICc3LjAnLCAnLXRuJywgJzgnLCAnLW1hJywgJzIwMCcsICctbWV0YWxfYmluZGluZycsICctaW1hZScsICc8aW5maWxlLm1hZT4nLCAnLW9tYWUnLCAnPG91dGZpbGUubWFlPic=

> <r_lp_tautomer_probability>
1

> <r_epik_Ionization_Penalty>
0.709395

> <r_epik_Ionization_Penalty_Charging>
0

> <r_epik_Ionization_Penalty_Neutral>
0.709395

> <r_epik_State_Penalty>
2.20721

> <r_epik_Charging_Adjusted_Penalty>
2.20721

> <i_epik_Tot_Q>
0

> <i_epik_Tot_abs_Q>
0

> <r_epik_Metal_State_Penalty>
1.55411

> <b_epik_Metal_Only>
0

> <s_lp_Force_Field>
OPLS_2005

> <r_lp_Energy>
16.3842

> <b_lp_Chiralities_Consistent>
1

> <s_lp_Variant>
AV-unprocessed.smi:1596-3

> <Gold.Version>
5.8.1

> <Gold.Id.Protein>
6NUR|6NUR_protein|mol2

> <Gold.PLP.Fitness>
43.1540

> <Gold.PLP.PLP>
-37.6733

> <Gold.PLP.part.hbond>
-1.1461

> <Gold.PLP.part.metal>
0.0000

> <Gold.PLP.part.buried>
1.2627

> <Gold.PLP.part.nonpolar>
-37.5192

> <Gold.PLP.part.repulsive>
0.2479

> <Gold.PLP.ligand.clash>
0.0000

> <Gold.PLP.ligand.torsion>
0.3522

> <Gold.PLP.Chemscore.Hbond>
1.0000

> <Gold.PLP.Chemscore.CHOScore>
1.0000

> <Gold.PLP.Chemscore.Metal>
0.0000

> <Gold.Chemscore.Hbonds>
donor molecule, donor type, donor heavy atom, donor atom, acceptor molecule, acceptor atom, score
      L1  H    18    43       P1 10171  0.94
      L1  C    21    48       P1  8028  1.00

> <Gold.PLP.Chemscore.Internal.Correction>
0.1850

> <Gold.Rescore>
     Score         DG    S(hbond)    S(metal)    S(lipo)     H(rot)  DE(clash)    DE(int)     intcor
     13.49     -16.34       1.00        0.00     103.84       1.80       1.47       1.38       ----

> <Gold.Chemscore.Fitness>
13.4874

> <Gold.Chemscore.DG>
-16.3405

> <Gold.Chemscore.ZeroCoef>
-5.4800

> <Gold.Chemscore.Hbond>
0.9968

> <Gold.Chemscore.Metal>
0.0000

> <Gold.Chemscore.Lipo>
103.8373

> <Gold.Chemscore.Internal_Hbond>
0.0000

> <Gold.Chemscore.DEClash>
1.4744

> <Gold.Chemscore.DEInternal>
1.3787

> <Gold.Chemscore.Rot>
1.8038

> <Gold.Chemscore.Internal.Correction>
   9.000000E+99

> <Gold.Chemscore.Hbonds>
donor molecule, donor type, donor heavy atom, donor atom, acceptor molecule, acceptor atom, score
      L1  H    18    43       P1 10171  0.86

> <Gold.Chemscore.Hbond.Weighted>
-3.3292

> <Gold.Chemscore.Metal.Weighted>
-0.0000

> <Gold.Chemscore.Lipo.Weighted>
-12.1490

> <Gold.Chemscore.Internal_Hbond.Weighted>
0.0000

> <Gold.Chemscore.DEClash.Weighted>
1.4744

> <Gold.Chemscore.DEInternal.Weighted>
1.3787

> <Gold.Chemscore.Rot.Weighted>
4.6176

> <Gold.Chemscore.Internal.Correction.Weighted>
   9.000000E+99

> <Gold.Protein.RotatedTorsions>
[ 6907 6896 6895 6894 ] final  173.45 input  -60.11 | X-H torsion
[ 7974 7965 7964 7962 ] final -113.83 input  175.53 | X-H torsion
[ 8008 7997 7996 7995 ] final  -14.58 input   59.86 | X-H torsion
[ 10167 10162 10161 10158 ] final  -75.17 input  -65.29 | X-H torsion
[ 10718 10713 10712 10709 ] final   82.05 input   66.30 | X-H torsion
[ 10763 10752 10751 10750 ] final  -91.24 input  -60.55 | X-H torsion
[ 11005 11000 10999 10996 ] final   14.33 input  -57.11 | X-H torsion

> <Gold.Protein.ActiveResidues>
 VAL166  LYS551  ARG553  GLY616  TRP617  ASP618  TYR619  PRO620  LYS621  CYS622 
 ASP623  PHE694  ASN695  SER759  ASP760  ASP761  ALA762  ILE779  LEU786  VAL792 
 PHE793  MET794  SER795  GLU796  ALA797  LYS798  CYS799  TRP800  GLU811  SER814 

> <Gold.Protein.RotatedAtoms>
  151.7681  133.3339  159.3436 H   0  0  0  0  0  0  0  0  0  0  0  0  # atno 6907 bound_to 6896
  150.7472  134.6044  159.6062 H   0  0  0  0  0  0  0  0  0  0  0  0  # atno 6908 bound_to 6896
  152.3360  134.7199  160.0328 H   0  0  0  0  0  0  0  0  0  0  0  0  # atno 6909 bound_to 6896
  145.1274  140.8704  143.3778 H   0  0  0  0  0  0  0  0  0  0  0  0  # atno 7974 bound_to 7965
  154.5199  140.2219  155.8996 H   0  0  0  0  0  0  0  0  0  0  0  0  # atno 8008 bound_to 7997
  156.1650  140.3134  155.8837 H   0  0  0  0  0  0  0  0  0  0  0  0  # atno 8009 bound_to 7997
  155.3675  140.0464  157.3036 H   0  0  0  0  0  0  0  0  0  0  0  0  # atno 8010 bound_to 7997
  140.4965  143.2369  151.7822 H   0  0  0  0  0  0  0  0  0  0  0  0  # atno 10167 bound_to 10162
  157.6848  131.0031  150.2317 H   0  0  0  0  0  0  0  0  0  0  0  0  # atno 10718 bound_to 10713
  154.6740  135.5275  153.8176 H   0  0  0  0  0  0  0  0  0  0  0  0  # atno 10763 bound_to 10752
  153.0520  135.6536  154.0679 H   0  0  0  0  0  0  0  0  0  0  0  0  # atno 10764 bound_to 10752
  154.0575  135.2964  155.3310 H   0  0  0  0  0  0  0  0  0  0  0  0  # atno 10765 bound_to 10752
  140.4707  134.1034  155.7732 H   0  0  0  0  0  0  0  0  0  0  0  0  # atno 11005 bound_to 11000
  145.0673  139.3058  143.5850 LP  0  0  0  0  0  0  0  0  0  0  0  0  # atno 17320 bound_to 7965
  146.3516  140.0136  142.8665 LP  0  0  0  0  0  0  0  0  0  0  0  0  # atno 17321 bound_to 7965
  139.4862  144.4580  151.9575 LP  0  0  0  0  0  0  0  0  0  0  0  0  # atno 17342 bound_to 10162
  140.3667  144.2905  150.5925 LP  0  0  0  0  0  0  0  0  0  0  0  0  # atno 17343 bound_to 10162
  156.2949  130.3750  149.7806 LP  0  0  0  0  0  0  0  0  0  0  0  0  # atno 17370 bound_to 10713
  156.5454  130.8318  151.3282 LP  0  0  0  0  0  0  0  0  0  0  0  0  # atno 17371 bound_to 10713
  141.1578  133.8850  157.1930 LP  0  0  0  0  0  0  0  0  0  0  0  0  # atno 17394 bound_to 11000
  139.9887  135.0072  156.9923 LP  0  0  0  0  0  0  0  0  0  0  0  0  # atno 17395 bound_to 11000

$$$$
