AV-unprocessed.smi:1695|AV-procd|sdf|6792|dock3
  -GOLD-   22720 7553D 1   1.00000     0.00000
 Structure written by MMmdl.
 51 53  0  0  0  0  0  0  0  0  2 V2000
  152.4908  143.6163  160.7221 C   0  0  0  0  0  0  0  0  0  0  0  0
  152.1501  142.7068  159.5548 C   0  0  0  0  0  0  0  0  0  0  0  0
  152.3483  141.3141  159.6877 C   0  0  0  0  0  0  0  0  0  0  0  0
  152.0440  140.4347  158.6258 C   0  0  0  0  0  0  0  0  0  0  0  0
  152.1571  139.0578  158.5395 N   0  0  0  0  0  0  0  0  0  0  0  0
  151.7154  138.8298  157.3067 C   0  0  0  0  0  0  0  0  0  0  0  0
  151.3422  139.8984  156.5758 N   0  0  0  0  0  0  0  0  0  0  0  0
  150.8381  139.8933  155.2114 C   0  0  0  0  0  0  0  0  0  0  0  0
  149.7688  138.8105  154.9434 C   0  0  1  0  0  0  0  0  0  0  0  0
  149.0945  139.1177  153.7384 O   0  0  0  0  0  0  0  0  0  0  0  0
  150.3557  137.3848  154.8369 C   0  0  0  0  0  0  0  0  0  0  0  0
  149.3214  136.3510  154.5756 N   0  3  1  0  0  0  0  0  0  0  0  0
  149.8427  134.9724  154.7629 C   0  0  0  0  0  0  0  0  0  0  0  0
  148.8003  133.9241  154.3397 C   0  0  0  0  0  0  0  0  0  0  0  0
  147.4795  134.1050  155.1127 C   0  0  2  0  0  0  0  0  0  0  0  0
  146.4219  133.0986  154.6396 C   0  0  0  0  0  0  0  0  0  0  0  0
  145.2188  133.1597  155.2156 N   0  0  0  0  0  0  0  0  0  0  0  0
  146.6868  132.2756  153.7652 O   0  0  0  0  0  0  0  0  0  0  0  0
  146.9861  135.5536  154.9328 C   0  0  0  0  0  0  0  0  0  0  0  0
  148.0682  136.5641  155.3472 C   0  0  0  0  0  0  0  0  0  0  0  0
  151.5333  140.9907  157.4163 C   0  0  0  0  0  0  0  0  0  0  0  0
  151.3290  142.3745  157.2736 C   0  0  0  0  0  0  0  0  0  0  0  0
  151.6383  143.2391  158.3443 C   0  0  0  0  0  0  0  0  0  0  0  0
  151.4161  144.7319  158.1784 C   0  0  0  0  0  0  0  0  0  0  0  0
  152.8778  143.0496  161.5695 H   0  0  0  0  0  0  0  0  0  0  0  0
  151.6049  144.1560  161.0570 H   0  0  0  0  0  0  0  0  0  0  0  0
  153.2504  144.3424  160.4317 H   0  0  0  0  0  0  0  0  0  0  0  0
  152.7359  140.9080  160.6105 H   0  0  0  0  0  0  0  0  0  0  0  0
  151.6686  137.8272  156.9076 H   0  0  0  0  0  0  0  0  0  0  0  0
  150.4199  140.8789  155.0027 H   0  0  0  0  0  0  0  0  0  0  0  0
  151.6818  139.7719  154.5302 H   0  0  0  0  0  0  0  0  0  0  0  0
  149.0392  138.8671  155.7501 H   0  0  0  0  0  0  0  0  0  0  0  0
  149.7306  139.3400  153.0762 H   0  0  0  0  0  0  0  0  0  0  0  0
  151.0957  137.3710  154.0348 H   0  0  0  0  0  0  0  0  0  0  0  0
  150.8949  137.1252  155.7494 H   0  0  0  0  0  0  0  0  0  0  0  0
  150.7459  134.8341  154.1673 H   0  0  0  0  0  0  0  0  0  0  0  0
  150.1254  134.8264  155.8067 H   0  0  0  0  0  0  0  0  0  0  0  0
  148.6258  134.0075  153.2655 H   0  0  0  0  0  0  0  0  0  0  0  0
  149.2002  132.9236  154.5099 H   0  0  0  0  0  0  0  0  0  0  0  0
  147.6734  133.9353  156.1735 H   0  0  0  0  0  0  0  0  0  0  0  0
  144.4893  132.5186  154.9392 H   0  0  0  0  0  0  0  0  0  0  0  0
  145.0420  133.8508  155.9307 H   0  0  0  0  0  0  0  0  0  0  0  0
  146.7064  135.7342  153.8932 H   0  0  0  0  0  0  0  0  0  0  0  0
  146.0865  135.7193  155.5274 H   0  0  0  0  0  0  0  0  0  0  0  0
  148.2764  136.4720  156.4146 H   0  0  0  0  0  0  0  0  0  0  0  0
  147.6873  137.5723  155.1895 H   0  0  0  0  0  0  0  0  0  0  0  0
  150.9393  142.7671  156.3460 H   0  0  0  0  0  0  0  0  0  0  0  0
  151.0226  144.9676  157.1892 H   0  0  0  0  0  0  0  0  0  0  0  0
  152.3536  145.2744  158.3026 H   0  0  0  0  0  0  0  0  0  0  0  0
  150.7028  145.0968  158.9178 H   0  0  0  0  0  0  0  0  0  0  0  0
  149.0851  136.4273  153.5967 H   0  0  0  0  0  0  0  0  0  0  0  0
  1  2  1  0  0  0  0
  1 25  1  0  0  0  0
  1 26  1  0  0  0  0
  1 27  1  0  0  0  0
  2 23  1  0  0  0  0
  2  3  2  0  0  0  0
  3  4  1  0  0  0  0
  3 28  1  0  0  0  0
  4 21  2  0  0  0  0
  4  5  1  0  0  0  0
  5  6  2  0  0  0  0
  6  7  1  0  0  0  0
  6 29  1  0  0  0  0
  7  8  1  0  0  0  0
  7 21  1  0  0  0  0
  8  9  1  0  0  0  0
  8 30  1  0  0  0  0
  8 31  1  0  0  0  0
  9 10  1  0  0  0  0
  9 11  1  0  0  0  0
  9 32  1  0  0  0  0
 10 33  1  0  0  0  0
 11 12  1  0  0  0  0
 11 34  1  0  0  0  0
 11 35  1  0  0  0  0
 12 20  1  0  0  0  0
 12 13  1  0  0  0  0
 12 51  1  0  0  0  0
 13 14  1  0  0  0  0
 13 36  1  0  0  0  0
 13 37  1  0  0  0  0
 14 15  1  0  0  0  0
 14 38  1  0  0  0  0
 14 39  1  0  0  0  0
 15 16  1  0  0  0  0
 15 19  1  0  0  0  0
 15 40  1  0  0  0  0
 16 17  1  0  0  0  0
 16 18  2  0  0  0  0
 17 41  1  0  0  0  0
 17 42  1  0  0  0  0
 19 20  1  0  0  0  0
 19 43  1  0  0  0  0
 19 44  1  0  0  0  0
 20 45  1  0  0  0  0
 20 46  1  0  0  0  0
 21 22  1  0  0  0  0
 22 23  2  0  0  0  0
 22 47  1  0  0  0  0
 23 24  1  0  0  0  0
 24 48  1  0  0  0  0
 24 49  1  0  0  0  0
 24 50  1  0  0  0  0
M  CHG  1  12   1
M  END
> <s_m_source_file>
AV-unprocessed.smi

> <i_m_source_file_index>
1695

> <i_lp_mmshare_version>
43012

> <i_f3d_flags>
0

> <s_epik_input>
W0NIM11jKFtjSF0xKWMoW0NIM10pW2NIXWMoYzEyKW4oW2NIXW4yKVtDSDJdW0NASF0oW09IXSlbQ0gyXU4zW0NIMl1bQ0gyXVtDSF0oQyg9TylbTkgyXSlbQ0gyXVtDSDJdMw==

> <s_epik_cmdline>
J2VwaWtfcHl0aG9uJywgJy1waCcsICc3LjAnLCAnLXRuJywgJzgnLCAnLW1hJywgJzIwMCcsICctbWV0YWxfYmluZGluZycsICctaW1hZScsICc8aW5maWxlLm1hZT4nLCAnLW9tYWUnLCAnPG91dGZpbGUubWFlPic=

> <r_epik_Ionization_Penalty>
0.113899

> <r_epik_Ionization_Penalty_Charging>
0.0258844

> <r_epik_Ionization_Penalty_Neutral>
0.0880147

> <r_epik_State_Penalty>
0.0974403

> <r_epik_Charging_Adjusted_Penalty>
0.123325

> <i_epik_Tot_Q>
1

> <i_epik_Tot_abs_Q>
1

> <r_epik_Metal_State_Penalty>
0.0851148

> <b_epik_Metal_Only>
0

> <s_lp_Force_Field>
OPLS_2005

> <r_lp_Energy>
20.1405

> <b_lp_Chiralities_Consistent>
1

> <s_lp_Variant>
AV-unprocessed.smi:1695-4

> <Gold.Version>
5.8.1

> <Gold.Id.Protein>
6NUR|6NUR_protein|mol2

> <Gold.PLP.Fitness>
50.9110

> <Gold.PLP.PLP>
-40.6290

> <Gold.PLP.part.hbond>
-3.0000

> <Gold.PLP.part.metal>
0.0000

> <Gold.PLP.part.buried>
-4.5338

> <Gold.PLP.part.nonpolar>
-33.3616

> <Gold.PLP.part.repulsive>
0.1188

> <Gold.PLP.ligand.clash>
0.0000

> <Gold.PLP.ligand.torsion>
0.4200

> <Gold.PLP.Chemscore.Hbond>
3.6880

> <Gold.PLP.Chemscore.CHOScore>
0.0000

> <Gold.PLP.Chemscore.Metal>
0.0000

> <Gold.Chemscore.Hbonds>
donor molecule, donor type, donor heavy atom, donor atom, acceptor molecule, acceptor atom, score
      L1  H    10    33       P1  7957  0.67
      L1  H    12    51       P1  7948  2.00
      L1  H    17    41       P1 10957  1.00

> <Gold.PLP.Chemscore.Internal.Correction>
0.0581

> <Gold.Rescore>
     Score         DG    S(hbond)    S(metal)    S(lipo)     H(rot)  DE(clash)    DE(int)     intcor
     19.71     -20.15       2.74        0.00     109.35       2.85       0.02       0.41       ----

> <Gold.Chemscore.Fitness>
19.7136

> <Gold.Chemscore.DG>
-20.1477

> <Gold.Chemscore.ZeroCoef>
-5.4800

> <Gold.Chemscore.Hbond>
2.7426

> <Gold.Chemscore.Metal>
0.0000

> <Gold.Chemscore.Lipo>
109.3508

> <Gold.Chemscore.Internal_Hbond>
0.0000

> <Gold.Chemscore.DEClash>
0.0234

> <Gold.Chemscore.DEInternal>
0.4106

> <Gold.Chemscore.Rot>
2.8464

> <Gold.Chemscore.Internal.Correction>
   9.000000E+99

> <Gold.Chemscore.Hbonds>
donor molecule, donor type, donor heavy atom, donor atom, acceptor molecule, acceptor atom, score
      L1  H    10    33       P1  7957  0.64
      L1  H    12    51       P1  7948  0.98
      L1  H    17    41       P1 10957  0.92

> <Gold.Chemscore.Hbond.Weighted>
-9.1603

> <Gold.Chemscore.Metal.Weighted>
-0.0000

> <Gold.Chemscore.Lipo.Weighted>
-12.7940

> <Gold.Chemscore.Internal_Hbond.Weighted>
0.0000

> <Gold.Chemscore.DEClash.Weighted>
0.0234

> <Gold.Chemscore.DEInternal.Weighted>
0.4106

> <Gold.Chemscore.Rot.Weighted>
7.2867

> <Gold.Chemscore.Internal.Correction.Weighted>
   9.000000E+99

> <Gold.Protein.RotatedTorsions>
[ 6907 6896 6895 6894 ] final  173.65 input  -60.11 | X-H torsion
[ 7974 7965 7964 7962 ] final  178.21 input  175.53 | X-H torsion
[ 8008 7997 7996 7995 ] final   -6.96 input   59.86 | X-H torsion
[ 10167 10162 10161 10158 ] final  -61.16 input  -65.29 | X-H torsion
[ 10718 10713 10712 10709 ] final -175.83 input   66.30 | X-H torsion
[ 10763 10752 10751 10750 ] final  116.23 input  -60.55 | X-H torsion
[ 11005 11000 10999 10996 ] final   73.98 input  -57.11 | X-H torsion

> <Gold.Protein.ActiveResidues>
 VAL166  LYS551  ARG553  GLY616  TRP617  ASP618  TYR619  PRO620  LYS621  CYS622 
 ASP623  PHE694  ASN695  SER759  ASP760  ASP761  ALA762  ILE779  LEU786  VAL792 
 PHE793  MET794  SER795  GLU796  ALA797  LYS798  CYS799  TRP800  GLU811  SER814 

> <Gold.Protein.RotatedAtoms>
  151.7648  133.3336  159.3427 H   0  0  0  0  0  0  0  0  0  0  0  0  # atno 6907 bound_to 6896
  150.7484  134.6072  159.6077 H   0  0  0  0  0  0  0  0  0  0  0  0  # atno 6908 bound_to 6896
  152.3381  134.7173  160.0323 H   0  0  0  0  0  0  0  0  0  0  0  0  # atno 6909 bound_to 6896
  144.7159  140.0363  143.6438 H   0  0  0  0  0  0  0  0  0  0  0  0  # atno 7974 bound_to 7965
  154.5886  140.2419  155.7953 H   0  0  0  0  0  0  0  0  0  0  0  0  # atno 8008 bound_to 7997
  156.2231  140.2991  155.9954 H   0  0  0  0  0  0  0  0  0  0  0  0  # atno 8009 bound_to 7997
  155.2414  140.0407  157.2966 H   0  0  0  0  0  0  0  0  0  0  0  0  # atno 8010 bound_to 7997
  140.6024  143.2365  151.5898 H   0  0  0  0  0  0  0  0  0  0  0  0  # atno 10167 bound_to 10162
  156.8057  130.9568  151.3117 H   0  0  0  0  0  0  0  0  0  0  0  0  # atno 10718 bound_to 10713
  153.5340  135.3572  155.2689 H   0  0  0  0  0  0  0  0  0  0  0  0  # atno 10763 bound_to 10752
  154.8724  135.4075  154.3119 H   0  0  0  0  0  0  0  0  0  0  0  0  # atno 10764 bound_to 10752
  153.3813  135.7068  153.6631 H   0  0  0  0  0  0  0  0  0  0  0  0  # atno 10765 bound_to 10752
  139.9413  134.7394  156.1092 H   0  0  0  0  0  0  0  0  0  0  0  0  # atno 11005 bound_to 11000
  146.0061  139.3131  143.0898 LP  0  0  0  0  0  0  0  0  0  0  0  0  # atno 17320 bound_to 7965
  145.8737  140.9405  143.0637 LP  0  0  0  0  0  0  0  0  0  0  0  0  # atno 17321 bound_to 7965
  139.5301  144.2943  152.1127 LP  0  0  0  0  0  0  0  0  0  0  0  0  # atno 17342 bound_to 10162
  140.2126  144.4547  150.6379 LP  0  0  0  0  0  0  0  0  0  0  0  0  # atno 17343 bound_to 10162
  157.6531  130.8901  149.9674 LP  0  0  0  0  0  0  0  0  0  0  0  0  # atno 17370 bound_to 10713
  156.1074  130.3652  150.0108 LP  0  0  0  0  0  0  0  0  0  0  0  0  # atno 17371 bound_to 10713
  141.1048  133.6664  156.2839 LP  0  0  0  0  0  0  0  0  0  0  0  0  # atno 17394 bound_to 11000
  140.5945  134.5617  157.5506 LP  0  0  0  0  0  0  0  0  0  0  0  0  # atno 17395 bound_to 11000

$$$$
