AV-unprocessed.smi:918|AV-procd|sdf|4163|dock1
  -GOLD-   22720 2 73D 1   1.00000     0.00000
 Structure written by MMmdl.
 31 32  0  0  0  0  0  0  0  0  2 V2000
  152.0442  137.2759  155.2267 O   0  0  0  0  0  0  0  0  0  0  0  0
  151.9471  138.5229  155.2694 C   0  0  0  0  0  0  0  0  0  0  0  0
  152.9040  139.2881  155.5094 O   0  5  0  0  0  0  0  0  0  0  0  0
  150.4757  139.1131  154.9898 C   0  0  0  0  0  0  0  0  0  0  0  0
  149.5642  138.2703  154.4557 C   0  0  0  0  0  0  0  0  0  0  0  0
  148.2310  138.7141  154.1751 C   0  0  0  0  0  0  0  0  0  0  0  0
  147.8787  139.9759  154.4428 C   0  0  0  0  0  0  0  0  0  0  0  0
  148.8187  140.9341  155.0203 C   0  0  0  0  0  0  0  0  0  0  0  0
  148.4230  142.0772  155.2391 O   0  0  0  0  0  0  0  0  0  0  0  0
  150.1013  140.4835  155.2831 N   0  0  0  0  0  0  0  0  0  0  0  0
  151.1341  141.3887  155.8735 C   0  0  0  0  0  0  0  0  0  0  0  0
  151.5935  141.2601  157.3421 C   0  0  0  0  0  0  0  0  0  0  0  0
  151.7947  142.5680  157.8603 O   0  0  0  0  0  0  0  0  0  0  0  0
  152.1927  142.6999  159.1747 C   0  0  0  0  0  0  0  0  0  0  0  0
  152.6985  141.6305  159.9579 C   0  0  0  0  0  0  0  0  0  0  0  0
  153.0851  141.8433  161.2952 C   0  0  0  0  0  0  0  0  0  0  0  0
  152.9725  143.1230  161.8683 C   0  0  0  0  0  0  0  0  0  0  0  0
  152.4723  144.1906  161.1010 C   0  0  0  0  0  0  0  0  0  0  0  0
  152.0848  143.9804  159.7628 C   0  0  0  0  0  0  0  0  0  0  0  0
  151.4741  145.3105  158.8453 Cl  0  0  0  0  0  0  0  0  0  0  0  0
  149.8095  137.2439  154.2251 H   0  0  0  0  0  0  0  0  0  0  0  0
  147.5128  138.0298  153.7482 H   0  0  0  0  0  0  0  0  0  0  0  0
  146.8700  140.2961  154.2259 H   0  0  0  0  0  0  0  0  0  0  0  0
  152.0416  141.2844  155.2782 H   0  0  0  0  0  0  0  0  0  0  0  0
  150.7698  142.4115  155.7747 H   0  0  0  0  0  0  0  0  0  0  0  0
  150.8302  140.7561  157.9374 H   0  0  0  0  0  0  0  0  0  0  0  0
  152.5323  140.7069  157.4007 H   0  0  0  0  0  0  0  0  0  0  0  0
  152.8003  140.6343  159.5553 H   0  0  0  0  0  0  0  0  0  0  0  0
  153.4688  141.0217  161.8818 H   0  0  0  0  0  0  0  0  0  0  0  0
  153.2693  143.2853  162.8941 H   0  0  0  0  0  0  0  0  0  0  0  0
  152.3857  145.1734  161.5408 H   0  0  0  0  0  0  0  0  0  0  0  0
  1  2  2  0  0  0  0
  2  3  1  0  0  0  0
  2  4  1  0  0  0  0
  4 10  1  0  0  0  0
  4  5  2  0  0  0  0
  5  6  1  0  0  0  0
  5 21  1  0  0  0  0
  6  7  2  0  0  0  0
  6 22  1  0  0  0  0
  7  8  1  0  0  0  0
  7 23  1  0  0  0  0
  8  9  2  0  0  0  0
  8 10  1  0  0  0  0
 10 11  1  0  0  0  0
 11 12  1  0  0  0  0
 11 24  1  0  0  0  0
 11 25  1  0  0  0  0
 12 13  1  0  0  0  0
 12 26  1  0  0  0  0
 12 27  1  0  0  0  0
 13 14  1  0  0  0  0
 14 19  1  0  0  0  0
 14 15  2  0  0  0  0
 15 16  1  0  0  0  0
 15 28  1  0  0  0  0
 16 17  2  0  0  0  0
 16 29  1  0  0  0  0
 17 18  1  0  0  0  0
 17 30  1  0  0  0  0
 18 19  2  0  0  0  0
 18 31  1  0  0  0  0
 19 20  1  0  0  0  0
M  CHG  1   3  -1
M  END
> <s_m_source_file>
AV-unprocessed.smi

> <i_m_source_file_index>
918

> <i_lp_mmshare_version>
43012

> <i_f3d_flags>
0

> <s_epik_input>
Tz1DKFtPSF0pYzFbY0hdW2NIXVtjSF1jKD1PKW4xW0NIMl1bQ0gyXU9jMltjSF1bY0hdW2NIXVtjSF1jMkNs

> <s_epik_cmdline>
J2VwaWtfcHl0aG9uJywgJy1waCcsICc3LjAnLCAnLXRuJywgJzgnLCAnLW1hJywgJzIwMCcsICctbWV0YWxfYmluZGluZycsICctaW1hZScsICc8aW5maWxlLm1hZT4nLCAnLW9tYWUnLCAnPG91dGZpbGUubWFlPic=

> <r_lp_tautomer_probability>
1

> <r_epik_Ionization_Penalty>
4.91901e-05

> <r_epik_Ionization_Penalty_Charging>
4.91901e-05

> <r_epik_Ionization_Penalty_Neutral>
0

> <r_epik_State_Penalty>
-0

> <r_epik_Charging_Adjusted_Penalty>
4.91901e-05

> <i_epik_Tot_Q>
-1

> <i_epik_Tot_abs_Q>
1

> <r_epik_Metal_State_Penalty>
-0

> <b_epik_Metal_Only>
0

> <s_lp_Force_Field>
OPLS_2005

> <r_lp_Energy>
37.328

> <b_lp_Chiralities_Consistent>
1

> <s_lp_Variant>
AV-unprocessed.smi:918-1

> <Gold.Version>
5.8.1

> <Gold.Id.Protein>
6NUR|6NUR_protein|mol2

> <Gold.PLP.Fitness>
54.6528

> <Gold.PLP.PLP>
-45.5999

> <Gold.PLP.part.hbond>
-2.0000

> <Gold.PLP.part.metal>
0.0000

> <Gold.PLP.part.buried>
-7.0192

> <Gold.PLP.part.nonpolar>
-38.6146

> <Gold.PLP.part.repulsive>
2.0477

> <Gold.PLP.ligand.clash>
0.0000

> <Gold.PLP.ligand.torsion>
0.6840

> <Gold.PLP.Chemscore.Hbond>
3.4274

> <Gold.PLP.Chemscore.CHOScore>
0.0000

> <Gold.PLP.Chemscore.Metal>
0.0000

> <Gold.Chemscore.Hbonds>
donor molecule, donor type, donor heavy atom, donor atom, acceptor molecule, acceptor atom, score
      P1  H  7997  8009       L1     3  1.86
      P1  H 10752 10765       L1     1  1.76

> <Gold.PLP.Chemscore.Internal.Correction>
0.1387

> <Gold.Rescore>
     Score         DG    S(hbond)    S(metal)    S(lipo)     H(rot)  DE(clash)    DE(int)     intcor
     17.50     -20.02       1.77        0.00     109.60       1.64       0.25       2.27       ----

> <Gold.Chemscore.Fitness>
17.4992

> <Gold.Chemscore.DG>
-20.0235

> <Gold.Chemscore.ZeroCoef>
-5.4800

> <Gold.Chemscore.Hbond>
1.7723

> <Gold.Chemscore.Metal>
0.0000

> <Gold.Chemscore.Lipo>
109.6038

> <Gold.Chemscore.Internal_Hbond>
0.0000

> <Gold.Chemscore.DEClash>
0.2510

> <Gold.Chemscore.DEInternal>
2.2733

> <Gold.Chemscore.Rot>
1.6405

> <Gold.Chemscore.Internal.Correction>
   9.000000E+99

> <Gold.Chemscore.Hbonds>
donor molecule, donor type, donor heavy atom, donor atom, acceptor molecule, acceptor atom, score
      P1  H  7997  8009       L1     3  0.89
      P1  H 10752 10765       L1     1  0.84

> <Gold.Chemscore.Hbond.Weighted>
-5.9194

> <Gold.Chemscore.Metal.Weighted>
-0.0000

> <Gold.Chemscore.Lipo.Weighted>
-12.8236

> <Gold.Chemscore.Internal_Hbond.Weighted>
0.0000

> <Gold.Chemscore.DEClash.Weighted>
0.2510

> <Gold.Chemscore.DEInternal.Weighted>
2.2733

> <Gold.Chemscore.Rot.Weighted>
4.1996

> <Gold.Chemscore.Internal.Correction.Weighted>
   9.000000E+99

> <Gold.Protein.RotatedTorsions>
[ 6907 6896 6895 6894 ] final  106.76 input  -60.11 | X-H torsion
[ 7974 7965 7964 7962 ] final   39.30 input  175.53 | X-H torsion
[ 8008 7997 7996 7995 ] final -124.24 input   59.86 | X-H torsion
[ 10167 10162 10161 10158 ] final  142.99 input  -65.29 | X-H torsion
[ 10718 10713 10712 10709 ] final -175.26 input   66.30 | X-H torsion
[ 10763 10752 10751 10750 ] final -178.82 input  -60.55 | X-H torsion
[ 11005 11000 10999 10996 ] final -178.55 input  -57.11 | X-H torsion

> <Gold.Protein.ActiveResidues>
 VAL166  LYS551  ARG553  GLY616  TRP617  ASP618  TYR619  PRO620  LYS621  CYS622 
 ASP623  PHE694  ASN695  SER759  ASP760  ASP761  ALA762  ILE779  LEU786  VAL792 
 PHE793  MET794  SER795  GLU796  ALA797  LYS798  CYS799  TRP800  GLU811  SER814 

> <Gold.Protein.RotatedAtoms>
  152.5181  133.9334  159.7591 H   0  0  0  0  0  0  0  0  0  0  0  0  # atno 6907 bound_to 6896
  150.9680  133.6366  159.2750 H   0  0  0  0  0  0  0  0  0  0  0  0  # atno 6908 bound_to 6896
  151.3587  135.0905  159.9480 H   0  0  0  0  0  0  0  0  0  0  0  0  # atno 6909 bound_to 6896
  146.0995  139.5668  142.9423 H   0  0  0  0  0  0  0  0  0  0  0  0  # atno 7974 bound_to 7965
  155.1936  140.0414  157.2905 H   0  0  0  0  0  0  0  0  0  0  0  0  # atno 8008 bound_to 7997
  154.6122  140.2479  155.7626 H   0  0  0  0  0  0  0  0  0  0  0  0  # atno 8009 bound_to 7997
  156.2385  140.2912  156.0390 H   0  0  0  0  0  0  0  0  0  0  0  0  # atno 8010 bound_to 7997
  139.4980  144.6071  151.6355 H   0  0  0  0  0  0  0  0  0  0  0  0  # atno 10167 bound_to 10162
  156.7972  130.9539  151.3119 H   0  0  0  0  0  0  0  0  0  0  0  0  # atno 10718 bound_to 10713
  154.5428  135.2807  155.1080 H   0  0  0  0  0  0  0  0  0  0  0  0  # atno 10763 bound_to 10752
  154.2556  135.6331  153.5259 H   0  0  0  0  0  0  0  0  0  0  0  0  # atno 10764 bound_to 10752
  152.9983  135.5593  154.5972 H   0  0  0  0  0  0  0  0  0  0  0  0  # atno 10765 bound_to 10752
  140.4285  134.6541  157.4700 H   0  0  0  0  0  0  0  0  0  0  0  0  # atno 11005 bound_to 11000
  145.5883  141.0373  143.2084 LP  0  0  0  0  0  0  0  0  0  0  0  0  # atno 17320 bound_to 7965
  144.7421  139.7420  143.7306 LP  0  0  0  0  0  0  0  0  0  0  0  0  # atno 17321 bound_to 7965
  140.5735  144.0068  150.6229 LP  0  0  0  0  0  0  0  0  0  0  0  0  # atno 17342 bound_to 10162
  140.3194  143.3147  152.0800 LP  0  0  0  0  0  0  0  0  0  0  0  0  # atno 17343 bound_to 10162
  157.6571  130.8934  149.9753 LP  0  0  0  0  0  0  0  0  0  0  0  0  # atno 17370 bound_to 10713
  156.1123  130.3649  150.0028 LP  0  0  0  0  0  0  0  0  0  0  0  0  # atno 17371 bound_to 10713
  140.0151  134.6632  155.9322 LP  0  0  0  0  0  0  0  0  0  0  0  0  # atno 17394 bound_to 11000
  141.1755  133.6540  156.4813 LP  0  0  0  0  0  0  0  0  0  0  0  0  # atno 17395 bound_to 11000

$$$$
