AV-unprocessed.smi:69|AV-procd|sdf|658|dock1
  -GOLD-   2262016563D 1   1.00000     0.00000
 Structure written by MMmdl.
 32 34  0  0  0  0  0  0  0  0  1 V2000
  141.5760  137.1130  156.0327 N   0  0  0  0  0  0  0  0  0  0  0  0
  141.9377  136.4531  154.9236 C   0  0  0  0  0  0  0  0  0  0  0  0
  141.0473  135.6012  154.3634 N   0  0  0  0  0  0  0  0  0  0  0  0
  141.3847  134.9296  153.2577 C   0  0  0  0  0  0  0  0  0  0  0  0
  142.5314  134.9683  152.5738 N   0  0  0  0  0  0  0  0  0  0  0  0
  143.4279  135.8290  153.1394 C   0  0  0  0  0  0  0  0  0  0  0  0
  143.2075  136.6048  154.3110 C   0  0  0  0  0  0  0  0  0  0  0  0
  144.3352  137.3627  154.5956 N   0  0  0  0  0  0  0  0  0  0  0  0
  145.1728  137.0486  153.6437 C   0  0  0  0  0  0  0  0  0  0  0  0
  144.7075  136.1356  152.7221 N   0  0  0  0  0  0  0  0  0  0  0  0
  145.4308  135.5865  151.5342 C   0  0  1  0  0  0  0  0  0  0  0  0
  145.9361  134.3341  151.8801 O   0  0  0  0  0  0  0  0  0  0  0  0
  145.7540  133.4272  150.7995 C   0  0  1  0  0  0  0  0  0  0  0  0
  145.7364  131.9858  151.3309 C   0  0  0  0  0  0  0  0  0  0  0  0
  147.0030  131.6463  151.8535 O   0  0  0  0  0  0  0  0  0  0  0  0
  144.4164  133.8783  150.2102 C   0  0  2  0  0  0  0  0  0  0  0  0
  144.2272  133.4350  148.8789 O   0  0  0  0  0  0  0  0  0  0  0  0
  144.4741  135.3995  150.3433 C   0  0  2  0  0  0  0  0  0  0  0  0
  144.9879  136.0196  149.1779 O   0  0  0  0  0  0  0  0  0  0  0  0
  146.2418  136.2924  151.3460 H   0  0  0  0  0  0  0  0  0  0  0  0
  146.5491  133.5736  150.0654 H   0  0  0  0  0  0  0  0  0  0  0  0
  143.5986  133.4951  150.8207 H   0  0  0  0  0  0  0  0  0  0  0  0
  143.4911  135.8219  150.5571 H   0  0  0  0  0  0  0  0  0  0  0  0
  142.2229  137.7538  156.4698 H   0  0  0  0  0  0  0  0  0  0  0  0
  140.6598  136.9663  156.4305 H   0  0  0  0  0  0  0  0  0  0  0  0
  140.6281  134.2672  152.8638 H   0  0  0  0  0  0  0  0  0  0  0  0
  146.1614  137.4808  153.5867 H   0  0  0  0  0  0  0  0  0  0  0  0
  144.9624  131.8515  152.0877 H   0  0  0  0  0  0  0  0  0  0  0  0
  145.5206  131.2894  150.5203 H   0  0  0  0  0  0  0  0  0  0  0  0
  147.6269  131.6318  151.1440 H   0  0  0  0  0  0  0  0  0  0  0  0
  144.9275  133.7805  148.3464 H   0  0  0  0  0  0  0  0  0  0  0  0
  144.6153  136.8857  149.1120 H   0  0  0  0  0  0  0  0  0  0  0  0
  1  2  1  0  0  0  0
  1 24  1  0  0  0  0
  1 25  1  0  0  0  0
  2  7  1  0  0  0  0
  2  3  2  0  0  0  0
  3  4  1  0  0  0  0
  4  5  2  0  0  0  0
  4 26  1  0  0  0  0
  5  6  1  0  0  0  0
  6 10  1  0  0  0  0
  6  7  2  0  0  0  0
  7  8  1  0  0  0  0
  8  9  2  0  0  0  0
  9 10  1  0  0  0  0
  9 27  1  0  0  0  0
 10 11  1  0  0  0  0
 11 20  1  0  0  0  0
 11 18  1  0  0  0  0
 11 12  1  0  0  0  0
 12 13  1  0  0  0  0
 13 21  1  0  0  0  0
 13 14  1  0  0  0  0
 13 16  1  0  0  0  0
 14 15  1  0  0  0  0
 14 28  1  0  0  0  0
 14 29  1  0  0  0  0
 15 30  1  0  0  0  0
 16 22  1  0  0  0  0
 16 17  1  0  0  0  0
 16 18  1  0  0  0  0
 17 31  1  0  0  0  0
 18 23  1  0  0  0  0
 18 19  1  0  0  0  0
 19 32  1  0  0  0  0
M  END
> <s_m_source_file>
AV-unprocessed.smi

> <i_m_source_file_index>
69

> <i_lp_mmshare_version>
43012

> <i_f3d_flags>
0

> <s_epik_input>
bjFbY0hdbmMoW05IMl0pYyhjMTIpbltjSF1uMltDQEBIXTNPW0NASF0oW0NIMl1bT0hdKVtDQEBIXShbT0hdKVtDQEhdM1tPSF0=

> <s_epik_cmdline>
J2VwaWtfcHl0aG9uJywgJy1waCcsICc3LjAnLCAnLXRuJywgJzgnLCAnLW1hJywgJzIwMCcsICctbWV0YWxfYmluZGluZycsICctaW1hZScsICc8aW5maWxlLm1hZT4nLCAnLW9tYWUnLCAnPG91dGZpbGUubWFlPic=

> <r_lp_tautomer_probability>
1

> <r_epik_Ionization_Penalty>
0.000428445

> <r_epik_Ionization_Penalty_Charging>
0

> <r_epik_Ionization_Penalty_Neutral>
0.000428445

> <r_epik_State_Penalty>
-0

> <r_epik_Charging_Adjusted_Penalty>
0

> <i_epik_Tot_Q>
0

> <i_epik_Tot_abs_Q>
0

> <r_epik_Metal_State_Penalty>
-0

> <b_epik_Metal_Only>
0

> <s_epik_Chemistry_Notes>
This compound contains an acetal/aminal-like group ( X-CH(R)-Y where X, Y are N, S, or O) that may be acid/base labile, releasing an aldehyde.

> <s_lp_Force_Field>
OPLS_2005

> <r_lp_Energy>
38.6546

> <b_lp_Chiralities_Consistent>
1

> <s_lp_Variant>
AV-unprocessed.smi:69-16

> <Gold.Version>
5.8.1

> <Gold.Id.Protein>
6NUR|6NUR_protein|mol2

> <Gold.PLP.Fitness>
38.3378

> <Gold.PLP.PLP>
-27.4684

> <Gold.PLP.part.hbond>
-4.3023

> <Gold.PLP.part.metal>
0.0000

> <Gold.PLP.part.buried>
-6.4257

> <Gold.PLP.part.nonpolar>
-17.0422

> <Gold.PLP.part.repulsive>
0.4928

> <Gold.PLP.ligand.clash>
0.0000

> <Gold.PLP.ligand.torsion>
0.6223

> <Gold.PLP.Chemscore.Hbond>
3.8480

> <Gold.PLP.Chemscore.CHOScore>
0.1855

> <Gold.PLP.Chemscore.Metal>
0.0000

> <Gold.Chemscore.Hbonds>
donor molecule, donor type, donor heavy atom, donor atom, acceptor molecule, acceptor atom, score
      L1  H    15    30       P1 10747  1.00
      L1  H    17    31       P1  7921  1.00
      L1  H    19    32       P1 10171  1.00
      P1  H 11000 11005       L1     3  0.85
      L1  C     4    26       P1 10187  0.19

> <Gold.PLP.Chemscore.Internal.Correction>
0.0134

> <Gold.Rescore>
     Score         DG    S(hbond)    S(metal)    S(lipo)     H(rot)  DE(clash)    DE(int)     intcor
     10.48     -10.71       3.55        0.00      31.54       4.03       0.01       0.22       ----

> <Gold.Chemscore.Fitness>
10.4800

> <Gold.Chemscore.DG>
-10.7081

> <Gold.Chemscore.ZeroCoef>
-5.4800

> <Gold.Chemscore.Hbond>
3.5475

> <Gold.Chemscore.Metal>
0.0000

> <Gold.Chemscore.Lipo>
31.5419

> <Gold.Chemscore.Internal_Hbond>
0.0000

> <Gold.Chemscore.DEClash>
0.0069

> <Gold.Chemscore.DEInternal>
0.2211

> <Gold.Chemscore.Rot>
4.0277

> <Gold.Chemscore.Internal.Correction>
   9.000000E+99

> <Gold.Chemscore.Hbonds>
donor molecule, donor type, donor heavy atom, donor atom, acceptor molecule, acceptor atom, score
      L1  H    15    30       P1 10747  0.95
      L1  H    17    31       P1  7921  0.96
      L1  H    19    32       P1 10171  0.98
      P1  H 11000 11005       L1     3  0.51

> <Gold.Chemscore.Hbond.Weighted>
-11.8487

> <Gold.Chemscore.Metal.Weighted>
-0.0000

> <Gold.Chemscore.Lipo.Weighted>
-3.6904

> <Gold.Chemscore.Internal_Hbond.Weighted>
0.0000

> <Gold.Chemscore.DEClash.Weighted>
0.0069

> <Gold.Chemscore.DEInternal.Weighted>
0.2211

> <Gold.Chemscore.Rot.Weighted>
10.3110

> <Gold.Chemscore.Internal.Correction.Weighted>
   9.000000E+99

> <Gold.Protein.RotatedTorsions>
[ 6907 6896 6895 6894 ] final -107.88 input  -60.11 | X-H torsion
[ 7974 7965 7964 7962 ] final   17.11 input  175.53 | X-H torsion
[ 8008 7997 7996 7995 ] final  163.69 input   59.86 | X-H torsion
[ 10167 10162 10161 10158 ] final  164.10 input  -65.29 | X-H torsion
[ 10718 10713 10712 10709 ] final  -27.05 input   66.30 | X-H torsion
[ 10763 10752 10751 10750 ] final  166.68 input  -60.55 | X-H torsion
[ 11005 11000 10999 10996 ] final   40.34 input  -57.11 | X-H torsion

> <Gold.Protein.ActiveResidues>
 VAL166  LYS551  ARG553  GLY616  TRP617  ASP618  TYR619  PRO620  LYS621  CYS622 
 ASP623  PHE694  ASN695  SER759  ASP760  ASP761  ALA762  ILE779  LEU786  VAL792 
 PHE793  MET794  SER795  GLU796  ALA797  LYS798  CYS799  TRP800  GLU811  SER814 

> <Gold.Protein.RotatedAtoms>
  150.7470  133.9760  159.3560 H   0  0  0  0  0  0  0  0  0  0  0  0  # atno 6907 bound_to 6896
  151.7697  135.0787  160.0367 H   0  0  0  0  0  0  0  0  0  0  0  0  # atno 6908 bound_to 6896
  152.3347  133.5961  159.5870 H   0  0  0  0  0  0  0  0  0  0  0  0  # atno 6909 bound_to 6896
  146.2229  139.8650  142.8598 H   0  0  0  0  0  0  0  0  0  0  0  0  # atno 7974 bound_to 7965
  156.1937  140.1717  156.8040 H   0  0  0  0  0  0  0  0  0  0  0  0  # atno 8008 bound_to 7997
  154.5503  140.0719  156.8689 H   0  0  0  0  0  0  0  0  0  0  0  0  # atno 8009 bound_to 7997
  155.3041  140.3363  155.4249 H   0  0  0  0  0  0  0  0  0  0  0  0  # atno 8010 bound_to 7997
  139.4883  144.4270  151.9117 H   0  0  0  0  0  0  0  0  0  0  0  0  # atno 10167 bound_to 10162
  156.4432  130.4468  149.7039 H   0  0  0  0  0  0  0  0  0  0  0  0  # atno 10718 bound_to 10713
  154.3427  135.2754  155.2414 H   0  0  0  0  0  0  0  0  0  0  0  0  # atno 10763 bound_to 10752
  154.4678  135.5891  153.6304 H   0  0  0  0  0  0  0  0  0  0  0  0  # atno 10764 bound_to 10752
  152.9856  135.6080  154.3629 H   0  0  0  0  0  0  0  0  0  0  0  0  # atno 10765 bound_to 10752
  140.1940  134.3951  155.8131 H   0  0  0  0  0  0  0  0  0  0  0  0  # atno 11005 bound_to 11000
  145.2666  141.0095  143.3796 LP  0  0  0  0  0  0  0  0  0  0  0  0  # atno 17320 bound_to 7965
  144.9256  139.4359  143.6520 LP  0  0  0  0  0  0  0  0  0  0  0  0  # atno 17321 bound_to 7965
  140.3716  144.2848  150.5919 LP  0  0  0  0  0  0  0  0  0  0  0  0  # atno 17342 bound_to 10162
  140.5314  143.2242  151.8233 LP  0  0  0  0  0  0  0  0  0  0  0  0  # atno 17343 bound_to 10162
  156.3895  130.7620  151.2620 LP  0  0  0  0  0  0  0  0  0  0  0  0  # atno 17370 bound_to 10713
  157.7505  131.0272  150.3994 LP  0  0  0  0  0  0  0  0  0  0  0  0  # atno 17371 bound_to 10713
  141.2227  133.7061  156.8145 LP  0  0  0  0  0  0  0  0  0  0  0  0  # atno 17394 bound_to 11000
  140.2127  134.8815  157.3292 LP  0  0  0  0  0  0  0  0  0  0  0  0  # atno 17395 bound_to 11000

$$$$
