AV-unprocessed.smi:1768|AV-procd|sdf|7149|dock6
  -GOLD-   22720 8383D 1   1.00000     0.00000
 Structure written by MMmdl.
 32 33  0  0  0  0  0  0  0  0  2 V2000
  153.2782  142.9447  162.5085 C   0  0  0  0  0  0  0  0  0  0  0  0
  152.9039  142.2909  161.2229 C   0  0  0  0  0  0  0  0  0  0  0  0
  151.6619  142.3197  160.7335 N   0  0  0  0  0  0  0  0  0  0  0  0
  151.5613  141.6460  159.5247 N   0  0  0  0  0  0  0  0  0  0  0  0
  152.7268  141.1272  159.1128 C   0  0  0  0  0  0  0  0  0  0  0  0
  152.8416  140.4364  157.9664 N   0  5  0  0  0  0  0  0  0  0  0  0
  151.8404  139.6193  157.5664 C   0  0  0  0  0  0  0  0  0  0  0  0
  150.9209  139.1933  158.2693 O   0  0  0  0  0  0  0  0  0  0  0  0
  151.9105  139.2737  156.2729 N   0  0  0  0  0  0  0  0  0  0  0  0
  150.9723  138.4121  155.5566 C   0  0  2  0  0  0  0  0  0  0  0  0
  151.6815  137.7607  154.3560 C   0  0  0  0  0  0  0  0  0  0  0  0
  149.7493  139.2460  155.1288 C   0  0  1  0  0  0  0  0  0  0  0  0
  148.8421  139.6912  156.2776 C   0  0  0  0  0  0  0  0  0  0  0  0
  148.1780  140.9534  155.7483 C   0  0  0  0  0  0  0  0  0  0  0  0
  149.0090  141.3252  154.5179 C   0  0  0  0  0  0  0  0  0  0  0  0
  150.1566  140.4918  154.5832 O   0  0  0  0  0  0  0  0  0  0  0  0
  154.0606  141.4221  160.2283 S   0  0  0  0  0  0  0  0  0  0  0  0
  153.3885  144.0191  162.3612 H   0  0  0  0  0  0  0  0  0  0  0  0
  154.2219  142.5423  162.8772 H   0  0  0  0  0  0  0  0  0  0  0  0
  152.5076  142.7694  163.2597 H   0  0  0  0  0  0  0  0  0  0  0  0
  152.6785  139.6503  155.7370 H   0  0  0  0  0  0  0  0  0  0  0  0
  150.6276  137.6242  156.2288 H   0  0  0  0  0  0  0  0  0  0  0  0
  151.0162  137.0840  153.8199 H   0  0  0  0  0  0  0  0  0  0  0  0
  152.5446  137.1762  154.6765 H   0  0  0  0  0  0  0  0  0  0  0  0
  152.0338  138.5122  153.6489 H   0  0  0  0  0  0  0  0  0  0  0  0
  149.1628  138.7088  154.3805 H   0  0  0  0  0  0  0  0  0  0  0  0
  148.1218  138.9247  156.5652 H   0  0  0  0  0  0  0  0  0  0  0  0
  149.4398  139.9370  157.1566 H   0  0  0  0  0  0  0  0  0  0  0  0
  147.1386  140.7752  155.4713 H   0  0  0  0  0  0  0  0  0  0  0  0
  148.1949  141.7443  156.4989 H   0  0  0  0  0  0  0  0  0  0  0  0
  148.4581  141.1052  153.6024 H   0  0  0  0  0  0  0  0  0  0  0  0
  149.2890  142.3787  154.5026 H   0  0  0  0  0  0  0  0  0  0  0  0
  1  2  1  0  0  0  0
  1 18  1  0  0  0  0
  1 19  1  0  0  0  0
  1 20  1  0  0  0  0
  2 17  1  0  0  0  0
  2  3  2  0  0  0  0
  3  4  1  0  0  0  0
  4  5  2  0  0  0  0
  5  6  1  0  0  0  0
  5 17  1  0  0  0  0
  6  7  1  0  0  0  0
  7  8  2  0  0  0  0
  7  9  1  0  0  0  0
  9 10  1  0  0  0  0
  9 21  1  0  0  0  0
 10 11  1  0  0  0  0
 10 12  1  0  0  0  0
 10 22  1  0  0  0  0
 11 23  1  0  0  0  0
 11 24  1  0  0  0  0
 11 25  1  0  0  0  0
 12 16  1  0  0  0  0
 12 13  1  0  0  0  0
 12 26  1  0  0  0  0
 13 14  1  0  0  0  0
 13 27  1  0  0  0  0
 13 28  1  0  0  0  0
 14 15  1  0  0  0  0
 14 29  1  0  0  0  0
 14 30  1  0  0  0  0
 15 16  1  0  0  0  0
 15 31  1  0  0  0  0
 15 32  1  0  0  0  0
M  CHG  1   6  -1
M  END
> <s_m_source_file>
AV-unprocessed.smi

> <i_m_source_file_index>
1768

> <i_lp_mmshare_version>
43012

> <i_f3d_flags>
0

> <s_epik_input>
W0NIM11jMW5uYyhzMSlbTkhdQyg9TylbTkhdW0NASF0oW0NIM10pW0NAQEhdMltDSDJdW0NIMl1bQ0gyXU8y

> <s_epik_cmdline>
J2VwaWtfcHl0aG9uJywgJy1waCcsICc3LjAnLCAnLXRuJywgJzgnLCAnLW1hJywgJzIwMCcsICctbWV0YWxfYmluZGluZycsICctaW1hZScsICc8aW5maWxlLm1hZT4nLCAnLW9tYWUnLCAnPG91dGZpbGUubWFlPic=

> <r_lp_tautomer_probability>
1

> <r_epik_Ionization_Penalty>
4.3376

> <r_epik_Ionization_Penalty_Charging>
4.19392

> <r_epik_Ionization_Penalty_Neutral>
0.143681

> <r_epik_State_Penalty>
4.19342

> <r_epik_Charging_Adjusted_Penalty>
8.38735

> <i_epik_Tot_Q>
-1

> <i_epik_Tot_abs_Q>
1

> <r_epik_Metal_State_Penalty>
0.686065

> <b_epik_Metal_Only>
1

> <s_lp_Force_Field>
OPLS_2005

> <r_lp_Energy>
16.4236

> <b_lp_Chiralities_Consistent>
1

> <s_lp_Variant>
AV-unprocessed.smi:1768-7

> <Gold.Version>
5.8.1

> <Gold.Id.Protein>
6NUR|6NUR_protein|mol2

> <Gold.PLP.Fitness>
37.8152

> <Gold.PLP.PLP>
-31.0106

> <Gold.PLP.part.hbond>
-3.2383

> <Gold.PLP.part.metal>
0.0000

> <Gold.PLP.part.buried>
-2.9189

> <Gold.PLP.part.nonpolar>
-23.6968

> <Gold.PLP.part.repulsive>
0.2859

> <Gold.PLP.ligand.clash>
0.0000

> <Gold.PLP.ligand.torsion>
0.8532

> <Gold.PLP.Chemscore.Hbond>
2.8248

> <Gold.PLP.Chemscore.CHOScore>
0.0000

> <Gold.PLP.Chemscore.Metal>
0.0000

> <Gold.Chemscore.Hbonds>
donor molecule, donor type, donor heavy atom, donor atom, acceptor molecule, acceptor atom, score
      P1  H  6933  6945       L1     3  0.10
      P1  H  7989  7998       L1    16  0.93
      P1  H  7997  8010       L1     6  1.70

> <Gold.PLP.Chemscore.Internal.Correction>
0.0367

> <Gold.Rescore>
     Score         DG    S(hbond)    S(metal)    S(lipo)     H(rot)  DE(clash)    DE(int)     intcor
     13.64     -16.37       1.81        0.00      69.33       1.28       0.10       2.63       ----

> <Gold.Chemscore.Fitness>
13.6352

> <Gold.Chemscore.DG>
-16.3659

> <Gold.Chemscore.ZeroCoef>
-5.4800

> <Gold.Chemscore.Hbond>
1.8099

> <Gold.Chemscore.Metal>
0.0000

> <Gold.Chemscore.Lipo>
69.3293

> <Gold.Chemscore.Internal_Hbond>
0.0000

> <Gold.Chemscore.DEClash>
0.0962

> <Gold.Chemscore.DEInternal>
2.6345

> <Gold.Chemscore.Rot>
1.2776

> <Gold.Chemscore.Internal.Correction>
   9.000000E+99

> <Gold.Chemscore.Hbonds>
donor molecule, donor type, donor heavy atom, donor atom, acceptor molecule, acceptor atom, score
      P1  H  6933  6945       L1     3  0.08
      P1  H  7989  7998       L1    16  0.87
      P1  H  7997  8010       L1     6  0.64

> <Gold.Chemscore.Hbond.Weighted>
-6.0450

> <Gold.Chemscore.Metal.Weighted>
-0.0000

> <Gold.Chemscore.Lipo.Weighted>
-8.1115

> <Gold.Chemscore.Internal_Hbond.Weighted>
0.0000

> <Gold.Chemscore.DEClash.Weighted>
0.0962

> <Gold.Chemscore.DEInternal.Weighted>
2.6345

> <Gold.Chemscore.Rot.Weighted>
3.2706

> <Gold.Chemscore.Internal.Correction.Weighted>
   9.000000E+99

> <Gold.Protein.RotatedTorsions>
[ 6907 6896 6895 6894 ] final  122.97 input  -60.11 | X-H torsion
[ 7974 7965 7964 7962 ] final   48.19 input  175.53 | X-H torsion
[ 8008 7997 7996 7995 ] final   42.44 input   59.86 | X-H torsion
[ 10167 10162 10161 10158 ] final -116.61 input  -65.29 | X-H torsion
[ 10718 10713 10712 10709 ] final -167.48 input   66.30 | X-H torsion
[ 10763 10752 10751 10750 ] final  -55.25 input  -60.55 | X-H torsion
[ 11005 11000 10999 10996 ] final   79.79 input  -57.11 | X-H torsion

> <Gold.Protein.ActiveResidues>
 VAL166  LYS551  ARG553  GLY616  TRP617  ASP618  TYR619  PRO620  LYS621  CYS622 
 ASP623  PHE694  ASN695  SER759  ASP760  ASP761  ALA762  ILE779  LEU786  VAL792 
 PHE793  MET794  SER795  GLU796  ALA797  LYS798  CYS799  TRP800  GLU811  SER814 

> <Gold.Protein.RotatedAtoms>
  152.4200  133.7101  159.6473 H   0  0  0  0  0  0  0  0  0  0  0  0  # atno 6907 bound_to 6896
  150.8076  133.8470  159.3203 H   0  0  0  0  0  0  0  0  0  0  0  0  # atno 6908 bound_to 6896
  151.6189  135.1036  160.0149 H   0  0  0  0  0  0  0  0  0  0  0  0  # atno 6909 bound_to 6896
  146.0227  139.4670  142.9887 H   0  0  0  0  0  0  0  0  0  0  0  0  # atno 7974 bound_to 7965
  155.2862  140.3376  155.4255 H   0  0  0  0  0  0  0  0  0  0  0  0  # atno 8008 bound_to 7997
  156.2067  140.1754  156.7824 H   0  0  0  0  0  0  0  0  0  0  0  0  # atno 8009 bound_to 7997
  154.5630  140.0684  156.8833 H   0  0  0  0  0  0  0  0  0  0  0  0  # atno 8010 bound_to 7997
  140.0774  143.4820  152.1945 H   0  0  0  0  0  0  0  0  0  0  0  0  # atno 10167 bound_to 10162
  156.6830  130.9129  151.3059 H   0  0  0  0  0  0  0  0  0  0  0  0  # atno 10718 bound_to 10713
  154.1878  135.6432  153.5051 H   0  0  0  0  0  0  0  0  0  0  0  0  # atno 10763 bound_to 10752
  153.0042  135.5421  154.6447 H   0  0  0  0  0  0  0  0  0  0  0  0  # atno 10764 bound_to 10752
  154.5828  135.2927  155.0688 H   0  0  0  0  0  0  0  0  0  0  0  0  # atno 10765 bound_to 10752
  139.9159  134.7870  156.1825 H   0  0  0  0  0  0  0  0  0  0  0  0  # atno 11005 bound_to 11000
  145.7167  141.0088  143.1424 LP  0  0  0  0  0  0  0  0  0  0  0  0  # atno 17320 bound_to 7965
  144.6997  139.8821  143.7448 LP  0  0  0  0  0  0  0  0  0  0  0  0  # atno 17321 bound_to 7965
  139.5800  144.7506  151.3665 LP  0  0  0  0  0  0  0  0  0  0  0  0  # atno 17342 bound_to 10162
  140.7095  143.7427  150.7541 LP  0  0  0  0  0  0  0  0  0  0  0  0  # atno 17343 bound_to 10162
  157.7036  130.9361  150.0862 LP  0  0  0  0  0  0  0  0  0  0  0  0  # atno 17370 bound_to 10713
  156.1853  130.3652  149.8981 LP  0  0  0  0  0  0  0  0  0  0  0  0  # atno 17371 bound_to 10713
  141.0633  133.6831  156.1996 LP  0  0  0  0  0  0  0  0  0  0  0  0  # atno 17394 bound_to 11000
  140.6625  134.4953  157.5584 LP  0  0  0  0  0  0  0  0  0  0  0  0  # atno 17395 bound_to 11000

$$$$
