AV-unprocessed.smi:2171|AV-procd|sdf|8829|dock10
  -GOLD-   2272012 23D 1   1.00000     0.00000
 Structure written by MMmdl.
 39 41  0  0  0  0  0  0  0  0  2 V2000
  151.7162  136.5664  155.9499 O   0  0  0  0  0  0  0  0  0  0  0  0
  151.7072  137.7732  155.7101 C   0  0  0  0  0  0  0  0  0  0  0  0
  151.3618  138.2728  154.3052 C   0  0  0  0  0  0  0  0  0  0  0  0
  150.2926  139.2577  154.3408 N   0  0  0  0  0  0  0  0  0  0  0  0
  148.9664  139.0956  153.9963 C   0  0  0  0  0  0  0  0  0  0  0  0
  148.3489  140.3000  154.1771 C   0  0  0  0  0  0  0  0  0  0  0  0
  149.3913  141.1480  154.6458 C   0  0  0  0  0  0  0  0  0  0  0  0
  150.5528  140.5219  154.7430 N   0  0  0  0  0  0  0  0  0  0  0  0
  151.9652  138.7122  156.6349 N   0  0  0  0  0  0  0  0  0  0  0  0
  152.1921  138.4597  158.0555 C   0  0  1  0  0  0  0  0  0  0  0  0
  153.5308  137.7491  158.3329 C   0  0  0  0  0  0  0  0  0  0  0  0
  154.0927  138.4493  159.5745 C   0  0  0  0  0  0  0  0  0  0  0  0
  153.6159  139.8281  159.4172 N   0  3  2  0  0  0  0  0  0  0  0  0
  153.7563  140.7588  160.5553 C   0  0  0  0  0  0  0  0  0  0  0  0
  153.3615  142.1737  160.0796 C   0  0  0  0  0  0  0  0  0  0  0  0
  151.9724  142.1975  159.4024 C   0  0  0  0  0  0  0  0  0  0  0  0
  151.8471  141.1132  158.3108 C   0  0  0  0  0  0  0  0  0  0  0  0
  152.2347  139.7488  158.9115 C   0  0  1  0  0  0  0  0  0  0  0  0
  152.2450  138.7197  153.8473 H   0  0  0  0  0  0  0  0  0  0  0  0
  151.0549  137.4391  153.6713 H   0  0  0  0  0  0  0  0  0  0  0  0
  148.5776  138.1484  153.6522 H   0  0  0  0  0  0  0  0  0  0  0  0
  147.3100  140.5385  154.0038 H   0  0  0  0  0  0  0  0  0  0  0  0
  149.3392  142.1926  154.9159 H   0  0  0  0  0  0  0  0  0  0  0  0
  151.9446  139.6780  156.3407 H   0  0  0  0  0  0  0  0  0  0  0  0
  151.3910  137.8222  158.4352 H   0  0  0  0  0  0  0  0  0  0  0  0
  153.4142  136.6747  158.4783 H   0  0  0  0  0  0  0  0  0  0  0  0
  154.2180  137.8947  157.4976 H   0  0  0  0  0  0  0  0  0  0  0  0
  153.6736  138.0153  160.4838 H   0  0  0  0  0  0  0  0  0  0  0  0
  155.1802  138.3969  159.6327 H   0  0  0  0  0  0  0  0  0  0  0  0
  153.1263  140.4363  161.3856 H   0  0  0  0  0  0  0  0  0  0  0  0
  154.7876  140.7552  160.9095 H   0  0  0  0  0  0  0  0  0  0  0  0
  153.3802  142.8693  160.9191 H   0  0  0  0  0  0  0  0  0  0  0  0
  154.1078  142.5322  159.3692 H   0  0  0  0  0  0  0  0  0  0  0  0
  151.2031  142.0358  160.1587 H   0  0  0  0  0  0  0  0  0  0  0  0
  151.7797  143.1823  158.9758 H   0  0  0  0  0  0  0  0  0  0  0  0
  150.8249  141.0906  157.9322 H   0  0  0  0  0  0  0  0  0  0  0  0
  152.4937  141.3565  157.4662 H   0  0  0  0  0  0  0  0  0  0  0  0
  151.5830  139.5658  159.7688 H   0  0  0  0  0  0  0  0  0  0  0  0
  154.1650  140.2161  158.6634 H   0  0  0  0  0  0  0  0  0  0  0  0
  1  2  2  0  0  0  0
  2  3  1  0  0  0  0
  2  9  1  0  0  0  0
  3  4  1  0  0  0  0
  3 19  1  0  0  0  0
  3 20  1  0  0  0  0
  4  8  1  0  0  0  0
  4  5  1  0  0  0  0
  5  6  2  0  0  0  0
  5 21  1  0  0  0  0
  6  7  1  0  0  0  0
  6 22  1  0  0  0  0
  7  8  2  0  0  0  0
  7 23  1  0  0  0  0
  9 10  1  0  0  0  0
  9 24  1  0  0  0  0
 10 18  1  0  0  0  0
 10 11  1  0  0  0  0
 10 25  1  0  0  0  0
 11 12  1  0  0  0  0
 11 26  1  0  0  0  0
 11 27  1  0  0  0  0
 12 13  1  0  0  0  0
 12 28  1  0  0  0  0
 12 29  1  0  0  0  0
 13 18  1  0  0  0  0
 13 14  1  0  0  0  0
 13 39  1  0  0  0  0
 14 15  1  0  0  0  0
 14 30  1  0  0  0  0
 14 31  1  0  0  0  0
 15 16  1  0  0  0  0
 15 32  1  0  0  0  0
 15 33  1  0  0  0  0
 16 17  1  0  0  0  0
 16 34  1  0  0  0  0
 16 35  1  0  0  0  0
 17 18  1  0  0  0  0
 17 36  1  0  0  0  0
 17 37  1  0  0  0  0
 18 38  1  0  0  0  0
M  CHG  1  13   1
M  END
> <s_m_source_file>
AV-unprocessed.smi

> <i_m_source_file_index>
2171

> <i_lp_mmshare_version>
43012

> <i_f3d_flags>
0

> <s_epik_input>
bjFbY0hdW2NIXVtjSF1uMVtDSDJdQyg9TylbTkhdW0NASF0oW0NIMl1bQ0gyXTIpW0NAQEhdKE4yMylbQ0gyXVtDSDJdW0NIMl1bQ0gyXTM=

> <s_epik_cmdline>
J2VwaWtfcHl0aG9uJywgJy1waCcsICc3LjAnLCAnLXRuJywgJzgnLCAnLW1hJywgJzIwMCcsICctbWV0YWxfYmluZGluZycsICctaW1hZScsICc8aW5maWxlLm1hZT4nLCAnLW9tYWUnLCAnPG91dGZpbGUubWFlPic=

> <r_lp_tautomer_probability>
1

> <r_epik_Ionization_Penalty>
0.00204179

> <r_epik_Ionization_Penalty_Charging>
0.00203239

> <r_epik_Ionization_Penalty_Neutral>
9.40205e-06

> <r_epik_State_Penalty>
0.00138983

> <r_epik_Charging_Adjusted_Penalty>
0.00342221

> <i_epik_Tot_Q>
1

> <i_epik_Tot_abs_Q>
1

> <r_epik_Metal_State_Penalty>
-0

> <b_epik_Metal_Only>
0

> <s_lp_Force_Field>
OPLS_2005

> <r_lp_Energy>
40.8782

> <b_lp_Chiralities_Consistent>
1

> <s_lp_Variant>
AV-unprocessed.smi:2171-4

> <Gold.Version>
5.8.1

> <Gold.Id.Protein>
6NUR|6NUR_protein|mol2

> <Gold.PLP.Fitness>
42.2879

> <Gold.PLP.PLP>
-33.3360

> <Gold.PLP.part.hbond>
-2.0000

> <Gold.PLP.part.metal>
0.0000

> <Gold.PLP.part.buried>
-3.1546

> <Gold.PLP.part.nonpolar>
-28.1763

> <Gold.PLP.part.repulsive>
0.2791

> <Gold.PLP.ligand.clash>
0.0000

> <Gold.PLP.ligand.torsion>
0.3446

> <Gold.PLP.Chemscore.Hbond>
1.9000

> <Gold.PLP.Chemscore.CHOScore>
1.3123

> <Gold.PLP.Chemscore.Metal>
0.0000

> <Gold.Chemscore.Hbonds>
donor molecule, donor type, donor heavy atom, donor atom, acceptor molecule, acceptor atom, score
      P1  H  7989  7998       L1     8  0.80
      P1  H 10752 10763       L1     1  1.00
      L1  C     5    21       P1  7948  0.74
      L1  C     7    23       P1  8028  0.67

> <Gold.PLP.Chemscore.Internal.Correction>
0.0043

> <Gold.Rescore>
     Score         DG    S(hbond)    S(metal)    S(lipo)     H(rot)  DE(clash)    DE(int)     intcor
     16.99     -17.54       1.84        0.00      82.12       1.44       0.02       0.53       ----

> <Gold.Chemscore.Fitness>
16.9907

> <Gold.Chemscore.DG>
-17.5444

> <Gold.Chemscore.ZeroCoef>
-5.4800

> <Gold.Chemscore.Hbond>
1.8399

> <Gold.Chemscore.Metal>
0.0000

> <Gold.Chemscore.Lipo>
82.1194

> <Gold.Chemscore.Internal_Hbond>
0.0000

> <Gold.Chemscore.DEClash>
0.0248

> <Gold.Chemscore.DEInternal>
0.5289

> <Gold.Chemscore.Rot>
1.4410

> <Gold.Chemscore.Internal.Correction>
   9.000000E+99

> <Gold.Chemscore.Hbonds>
donor molecule, donor type, donor heavy atom, donor atom, acceptor molecule, acceptor atom, score
      P1  H  7989  7998       L1     8  0.10
      P1  H 10752 10763       L1     1  0.88

> <Gold.Chemscore.Hbond.Weighted>
-6.1453

> <Gold.Chemscore.Metal.Weighted>
-0.0000

> <Gold.Chemscore.Lipo.Weighted>
-9.6080

> <Gold.Chemscore.Internal_Hbond.Weighted>
0.0000

> <Gold.Chemscore.DEClash.Weighted>
0.0248

> <Gold.Chemscore.DEInternal.Weighted>
0.5289

> <Gold.Chemscore.Rot.Weighted>
3.6889

> <Gold.Chemscore.Internal.Correction.Weighted>
   9.000000E+99

> <Gold.Protein.RotatedTorsions>
[ 6907 6896 6895 6894 ] final  -83.29 input  -60.11 | X-H torsion
[ 7974 7965 7964 7962 ] final   74.20 input  175.53 | X-H torsion
[ 8008 7997 7996 7995 ] final -144.74 input   59.86 | X-H torsion
[ 10167 10162 10161 10158 ] final -142.58 input  -65.29 | X-H torsion
[ 10718 10713 10712 10709 ] final   53.56 input   66.30 | X-H torsion
[ 10763 10752 10751 10750 ] final   78.74 input  -60.55 | X-H torsion
[ 11005 11000 10999 10996 ] final  176.99 input  -57.11 | X-H torsion

> <Gold.Protein.ActiveResidues>
 VAL166  LYS551  ARG553  GLY616  TRP617  ASP618  TYR619  PRO620  LYS621  CYS622 
 ASP623  PHE694  ASN695  SER759  ASP760  ASP761  ALA762  ILE779  LEU786  VAL792 
 PHE793  MET794  SER795  GLU796  ALA797  LYS798  CYS799  TRP800  GLU811  SER814 

> <Gold.Protein.RotatedAtoms>
  150.6887  134.3535  159.4918 H   0  0  0  0  0  0  0  0  0  0  0  0  # atno 6907 bound_to 6896
  152.1373  134.9087  160.0565 H   0  0  0  0  0  0  0  0  0  0  0  0  # atno 6908 bound_to 6896
  152.0234  133.3873  159.4304 H   0  0  0  0  0  0  0  0  0  0  0  0  # atno 6909 bound_to 6896
  145.7313  139.2685  143.1539 H   0  0  0  0  0  0  0  0  0  0  0  0  # atno 7974 bound_to 7965
  155.5318  140.0600  157.2887 H   0  0  0  0  0  0  0  0  0  0  0  0  # atno 8008 bound_to 7997
  154.4481  140.1934  156.0547 H   0  0  0  0  0  0  0  0  0  0  0  0  # atno 8009 bound_to 7997
  156.0646  140.3268  155.7507 H   0  0  0  0  0  0  0  0  0  0  0  0  # atno 8010 bound_to 7997
  139.8075  143.7749  152.2662 H   0  0  0  0  0  0  0  0  0  0  0  0  # atno 10167 bound_to 10162
  157.5178  130.8544  149.8518 H   0  0  0  0  0  0  0  0  0  0  0  0  # atno 10718 bound_to 10713
  153.0898  135.4866  154.8667 H   0  0  0  0  0  0  0  0  0  0  0  0  # atno 10763 bound_to 10752
  154.7255  135.3048  154.8980 H   0  0  0  0  0  0  0  0  0  0  0  0  # atno 10764 bound_to 10752
  153.9632  135.6810  153.4798 H   0  0  0  0  0  0  0  0  0  0  0  0  # atno 10765 bound_to 10752
  140.3792  134.6961  157.4440 H   0  0  0  0  0  0  0  0  0  0  0  0  # atno 11005 bound_to 11000
  146.0535  140.8045  142.9770 LP  0  0  0  0  0  0  0  0  0  0  0  0  # atno 17320 bound_to 7965
  144.6892  140.3088  143.7251 LP  0  0  0  0  0  0  0  0  0  0  0  0  # atno 17321 bound_to 7965
  139.7887  144.7418  150.9985 LP  0  0  0  0  0  0  0  0  0  0  0  0  # atno 17342 bound_to 10162
  140.7819  143.4464  151.0476 LP  0  0  0  0  0  0  0  0  0  0  0  0  # atno 17343 bound_to 10162
  156.0332  130.3758  150.1631 LP  0  0  0  0  0  0  0  0  0  0  0  0  # atno 17370 bound_to 10713
  156.9819  130.9867  151.3435 LP  0  0  0  0  0  0  0  0  0  0  0  0  # atno 17371 bound_to 10713
  140.0492  134.6156  155.8883 LP  0  0  0  0  0  0  0  0  0  0  0  0  # atno 17394 bound_to 11000
  141.1929  133.6577  156.5523 LP  0  0  0  0  0  0  0  0  0  0  0  0  # atno 17395 bound_to 11000

$$$$
