AV-unprocessed.smi:33|AV-procd|sdf|214|dock4
  -GOLD-   2262015523D 1   1.00000     0.00000
 Structure written by MMmdl.
 67 72  0  0  0  0  0  0  0  0  1 V2000
  151.0185  143.0130  156.3066 O   0  0  0  0  0  0  0  0  0  0  0  0
  150.6673  142.5270  157.3835 C   0  0  0  0  0  0  0  0  0  0  0  0
  149.5823  141.7480  157.5317 O   0  0  0  0  0  0  0  0  0  0  0  0
  148.5653  141.7280  156.5443 C   0  0  0  0  0  0  0  0  0  0  0  0
  148.5314  140.3161  155.9535 C   0  0  1  0  0  0  0  0  0  0  0  0
  147.2060  139.7970  155.9748 O   0  0  0  0  0  0  0  0  0  0  0  0
  147.0942  138.7674  155.0397 C   0  0  2  0  0  0  0  0  0  0  0  0
  146.9809  137.4441  155.7443 N   0  0  0  0  0  0  0  0  0  0  0  0
  146.0174  136.4839  155.5252 C   0  0  0  0  0  0  0  0  0  0  0  0
  146.1109  135.4109  156.2618 N   0  0  0  0  0  0  0  0  0  0  0  0
  147.2224  135.6500  157.0569 C   0  0  0  0  0  0  0  0  0  0  0  0
  147.8816  134.9081  158.0723 C   0  0  0  0  0  0  0  0  0  0  0  0
  147.4575  133.6903  158.4759 N   0  0  0  0  0  0  0  0  0  0  0  0
  146.6868  133.6387  159.7258 C   0  0  0  0  0  0  0  0  0  0  0  0
  145.8964  132.7124  159.9165 O   0  0  0  0  0  0  0  0  0  0  0  0
  146.8272  134.7264  160.7520 C   0  0  0  0  0  0  0  0  0  0  0  0
  146.3329  136.0216  160.4830 C   0  0  0  0  0  0  0  0  0  0  0  0
  146.4485  137.0396  161.4493 C   0  0  0  0  0  0  0  0  0  0  0  0
  147.0402  136.7639  162.6968 C   0  0  0  0  0  0  0  0  0  0  0  0
  147.5092  135.4675  162.9817 C   0  0  0  0  0  0  0  0  0  0  0  0
  147.3962  134.4496  162.0155 C   0  0  0  0  0  0  0  0  0  0  0  0
  147.7987  132.5445  157.6207 C   0  0  0  0  0  0  0  0  0  0  0  0
  147.8237  131.4113  158.1048 O   0  0  0  0  0  0  0  0  0  0  0  0
  148.1673  132.7489  156.1786 C   0  0  0  0  0  0  0  0  0  0  0  0
  149.3408  133.4603  155.8449 C   0  0  0  0  0  0  0  0  0  0  0  0
  149.6989  133.6467  154.4956 C   0  0  0  0  0  0  0  0  0  0  0  0
  148.8969  133.1066  153.4723 C   0  0  0  0  0  0  0  0  0  0  0  0
  147.7417  132.3711  153.7987 C   0  0  0  0  0  0  0  0  0  0  0  0
  147.3819  132.1852  155.1478 C   0  0  0  0  0  0  0  0  0  0  0  0
  148.9786  135.4512  158.6576 N   0  0  0  0  0  0  0  0  0  0  0  0
  149.3981  136.6597  158.2746 C   0  0  0  0  0  0  0  0  0  0  0  0
  148.8784  137.4672  157.3476 N   0  0  0  0  0  0  0  0  0  0  0  0
  147.7801  136.9214  156.7471 C   0  0  0  0  0  0  0  0  0  0  0  0
  148.3252  138.8530  154.1073 C   0  0  2  0  0  0  0  0  0  0  0  0
  149.2799  137.8227  154.2982 O   0  0  0  0  0  0  0  0  0  0  0  0
  148.9173  140.2031  154.4816 C   0  0  1  0  0  0  0  0  0  0  0  0
  148.3312  141.1656  153.7664 F   0  0  0  0  0  0  0  0  0  0  0  0
  151.4002  142.7382  158.6654 C   0  0  0  0  0  0  0  0  0  0  0  0
  151.9417  141.6247  159.3487 C   0  0  0  0  0  0  0  0  0  0  0  0
  152.6400  141.7973  160.5598 C   0  0  0  0  0  0  0  0  0  0  0  0
  152.8065  143.0853  161.1016 C   0  0  0  0  0  0  0  0  0  0  0  0
  152.2744  144.2016  160.4303 C   0  0  0  0  0  0  0  0  0  0  0  0
  151.5756  144.0307  159.2196 C   0  0  0  0  0  0  0  0  0  0  0  0
  147.5982  141.9913  156.9749 H   0  0  0  0  0  0  0  0  0  0  0  0
  148.7998  142.4587  155.7694 H   0  0  0  0  0  0  0  0  0  0  0  0
  149.1936  139.6672  156.5274 H   0  0  0  0  0  0  0  0  0  0  0  0
  146.1476  138.8691  154.5078 H   0  0  0  0  0  0  0  0  0  0  0  0
  145.2344  136.6064  154.7909 H   0  0  0  0  0  0  0  0  0  0  0  0
  145.8767  136.2439  159.5290 H   0  0  0  0  0  0  0  0  0  0  0  0
  146.0817  138.0323  161.2338 H   0  0  0  0  0  0  0  0  0  0  0  0
  147.1281  137.5449  163.4375 H   0  0  0  0  0  0  0  0  0  0  0  0
  147.9546  135.2526  163.9417 H   0  0  0  0  0  0  0  0  0  0  0  0
  147.7548  133.4565  162.2464 H   0  0  0  0  0  0  0  0  0  0  0  0
  149.9636  133.8796  156.6220 H   0  0  0  0  0  0  0  0  0  0  0  0
  150.5899  134.2038  154.2463 H   0  0  0  0  0  0  0  0  0  0  0  0
  149.1715  133.2510  152.4378 H   0  0  0  0  0  0  0  0  0  0  0  0
  147.1311  131.9490  153.0142 H   0  0  0  0  0  0  0  0  0  0  0  0
  146.4949  131.6161  155.3864 H   0  0  0  0  0  0  0  0  0  0  0  0
  150.2748  137.0335  158.7828 H   0  0  0  0  0  0  0  0  0  0  0  0
  147.9983  138.8280  153.0671 H   0  0  0  0  0  0  0  0  0  0  0  0
  149.3327  137.3115  153.5052 H   0  0  0  0  0  0  0  0  0  0  0  0
  149.9918  140.2774  154.3081 H   0  0  0  0  0  0  0  0  0  0  0  0
  151.8269  140.6263  158.9517 H   0  0  0  0  0  0  0  0  0  0  0  0
  153.0487  140.9396  161.0735 H   0  0  0  0  0  0  0  0  0  0  0  0
  153.3430  143.2169  162.0295 H   0  0  0  0  0  0  0  0  0  0  0  0
  152.4033  145.1917  160.8423 H   0  0  0  0  0  0  0  0  0  0  0  0
  151.1840  144.9088  158.7279 H   0  0  0  0  0  0  0  0  0  0  0  0
  1  2  2  0  0  0  0
  2  3  1  0  0  0  0
  2 38  1  0  0  0  0
  3  4  1  0  0  0  0
  4  5  1  0  0  0  0
  4 44  1  0  0  0  0
  4 45  1  0  0  0  0
  5 36  1  0  0  0  0
  5  6  1  0  0  0  0
  5 46  1  0  0  0  0
  6  7  1  0  0  0  0
  7  8  1  0  0  0  0
  7 34  1  0  0  0  0
  7 47  1  0  0  0  0
  8 33  1  0  0  0  0
  8  9  1  0  0  0  0
  9 10  2  0  0  0  0
  9 48  1  0  0  0  0
 10 11  1  0  0  0  0
 11 33  2  0  0  0  0
 11 12  1  0  0  0  0
 12 13  1  0  0  0  0
 12 30  2  0  0  0  0
 13 14  1  0  0  0  0
 13 22  1  0  0  0  0
 14 15  2  0  0  0  0
 14 16  1  0  0  0  0
 16 21  1  0  0  0  0
 16 17  2  0  0  0  0
 17 18  1  0  0  0  0
 17 49  1  0  0  0  0
 18 19  2  0  0  0  0
 18 50  1  0  0  0  0
 19 20  1  0  0  0  0
 19 51  1  0  0  0  0
 20 21  2  0  0  0  0
 20 52  1  0  0  0  0
 21 53  1  0  0  0  0
 22 23  2  0  0  0  0
 22 24  1  0  0  0  0
 24 29  1  0  0  0  0
 24 25  2  0  0  0  0
 25 26  1  0  0  0  0
 25 54  1  0  0  0  0
 26 27  2  0  0  0  0
 26 55  1  0  0  0  0
 27 28  1  0  0  0  0
 27 56  1  0  0  0  0
 28 29  2  0  0  0  0
 28 57  1  0  0  0  0
 29 58  1  0  0  0  0
 30 31  1  0  0  0  0
 31 32  2  0  0  0  0
 31 59  1  0  0  0  0
 32 33  1  0  0  0  0
 34 35  1  0  0  0  0
 34 36  1  0  0  0  0
 34 60  1  0  0  0  0
 35 61  1  0  0  0  0
 36 37  1  0  0  0  0
 36 62  1  0  0  0  0
 38 43  1  0  0  0  0
 38 39  2  0  0  0  0
 39 40  1  0  0  0  0
 39 63  1  0  0  0  0
 40 41  2  0  0  0  0
 40 64  1  0  0  0  0
 41 42  1  0  0  0  0
 41 65  1  0  0  0  0
 42 43  2  0  0  0  0
 42 66  1  0  0  0  0
 43 67  1  0  0  0  0
M  END
> <s_m_source_file>
AV-unprocessed.smi

> <i_m_source_file_index>
33

> <i_lp_mmshare_version>
43012

> <i_f3d_flags>
0

> <s_epik_input>
W2NIXTFbY0hdW2NIXVtjSF1bY0hdYzFDKD1PKU9bQ0gyXVtDQEBIXTJPW0NASF0oW0NAQEhdKFtPSF0pW0NAQEhdMkYpbihbY0hdbjMpYyhjMzQpbltjSF1uYzROKEMoPU8pYzVbY0hdW2NIXVtjSF1bY0hdW2NIXTUpQyg9TyljNltjSF1bY0hdW2NIXVtjSF1bY0hdNg==

> <s_epik_cmdline>
J2VwaWtfcHl0aG9uJywgJy1waCcsICc3LjAnLCAnLXRuJywgJzgnLCAnLW1hJywgJzIwMCcsICctbWV0YWxfYmluZGluZycsICctaW1hZScsICc8aW5maWxlLm1hZT4nLCAnLW9tYWUnLCAnPG91dGZpbGUubWFlPic=

> <r_lp_tautomer_probability>
1

> <r_epik_Ionization_Penalty>
0.00067664

> <r_epik_Ionization_Penalty_Charging>
0

> <r_epik_Ionization_Penalty_Neutral>
0.00067664

> <r_epik_State_Penalty>
0.000428095

> <r_epik_Charging_Adjusted_Penalty>
0.000428095

> <i_epik_Tot_Q>
0

> <i_epik_Tot_abs_Q>
0

> <r_epik_Metal_State_Penalty>
-0

> <b_epik_Metal_Only>
0

> <s_epik_Chemistry_Notes>
This compound has an ester and may undergo hydrolysis at high or low pH. This compound contains an acetal/aminal-like group ( X-CH(R)-Y where X, Y are N, S, or O) that may be acid/base labile, releasing an aldehyde.

> <s_lp_Force_Field>
OPLS_2005

> <r_lp_Energy>
71.2242

> <b_lp_Chiralities_Consistent>
1

> <s_lp_Variant>
AV-unprocessed.smi:33-16

> <Gold.Version>
5.8.1

> <Gold.Id.Protein>
6NUR|6NUR_protein|mol2

> <Gold.PLP.Fitness>
51.8070

> <Gold.PLP.PLP>
-55.7675

> <Gold.PLP.part.hbond>
-2.0000

> <Gold.PLP.part.metal>
0.0000

> <Gold.PLP.part.buried>
-5.2771

> <Gold.PLP.part.nonpolar>
-50.5062

> <Gold.PLP.part.repulsive>
2.4788

> <Gold.PLP.ligand.clash>
0.0000

> <Gold.PLP.ligand.torsion>
7.0643

> <Gold.PLP.Chemscore.Hbond>
1.9750

> <Gold.PLP.Chemscore.CHOScore>
0.0000

> <Gold.PLP.Chemscore.Metal>
0.0000

> <Gold.Chemscore.Hbonds>
donor molecule, donor type, donor heavy atom, donor atom, acceptor molecule, acceptor atom, score
      L1  H    35    61       P1  7948  1.00
      P1  H  6896  6909       L1    30  0.65

> <Gold.PLP.Chemscore.Internal.Correction>
4.2431

> <Gold.Rescore>
     Score         DG    S(hbond)    S(metal)    S(lipo)     H(rot)  DE(clash)    DE(int)     intcor
     10.90     -22.08       1.49        0.00     154.55       2.52       1.84       9.33       ----

> <Gold.Chemscore.Fitness>
10.9043

> <Gold.Chemscore.DG>
-22.0765

> <Gold.Chemscore.ZeroCoef>
-5.4800

> <Gold.Chemscore.Hbond>
1.4901

> <Gold.Chemscore.Metal>
0.0000

> <Gold.Chemscore.Lipo>
154.5545

> <Gold.Chemscore.Internal_Hbond>
0.0000

> <Gold.Chemscore.DEClash>
1.8381

> <Gold.Chemscore.DEInternal>
9.3340

> <Gold.Chemscore.Rot>
2.5247

> <Gold.Chemscore.Internal.Correction>
   9.000000E+99

> <Gold.Chemscore.Hbonds>
donor molecule, donor type, donor heavy atom, donor atom, acceptor molecule, acceptor atom, score
      L1  H    35    61       P1  7948  0.96
      P1  H  6896  6909       L1    30  0.14

> <Gold.Chemscore.Hbond.Weighted>
-4.9769

> <Gold.Chemscore.Metal.Weighted>
-0.0000

> <Gold.Chemscore.Lipo.Weighted>
-18.0829

> <Gold.Chemscore.Internal_Hbond.Weighted>
0.0000

> <Gold.Chemscore.DEClash.Weighted>
1.8381

> <Gold.Chemscore.DEInternal.Weighted>
9.3340

> <Gold.Chemscore.Rot.Weighted>
6.4633

> <Gold.Chemscore.Internal.Correction.Weighted>
   9.000000E+99

> <Gold.Protein.RotatedTorsions>
[ 6907 6896 6895 6894 ] final   64.96 input  -60.11 | X-H torsion
[ 7974 7965 7964 7962 ] final   58.57 input  175.53 | X-H torsion
[ 8008 7997 7996 7995 ] final  -58.94 input   59.86 | X-H torsion
[ 10167 10162 10161 10158 ] final   64.78 input  -65.29 | X-H torsion
[ 10718 10713 10712 10709 ] final  -84.22 input   66.30 | X-H torsion
[ 10763 10752 10751 10750 ] final   63.92 input  -60.55 | X-H torsion
[ 11005 11000 10999 10996 ] final  115.06 input  -57.11 | X-H torsion

> <Gold.Protein.ActiveResidues>
 VAL166  LYS551  ARG553  GLY616  TRP617  ASP618  TYR619  PRO620  LYS621  CYS622 
 ASP623  PHE694  ASN695  SER759  ASP760  ASP761  ALA762  ILE779  LEU786  VAL792 
 PHE793  MET794  SER795  GLU796  ALA797  LYS798  CYS799  TRP800  GLU811  SER814 

> <Gold.Protein.RotatedAtoms>
  152.4371  134.5664  159.9908 H   0  0  0  0  0  0  0  0  0  0  0  0  # atno 6907 bound_to 6896
  151.5771  133.3376  159.3009 H   0  0  0  0  0  0  0  0  0  0  0  0  # atno 6908 bound_to 6896
  150.8271  134.7542  159.6887 H   0  0  0  0  0  0  0  0  0  0  0  0  # atno 6909 bound_to 6896
  145.9168  139.3697  143.0502 H   0  0  0  0  0  0  0  0  0  0  0  0  # atno 7974 bound_to 7965
  154.4330  140.1073  156.6036 H   0  0  0  0  0  0  0  0  0  0  0  0  # atno 8008 bound_to 7997
  155.5885  140.3492  155.4541 H   0  0  0  0  0  0  0  0  0  0  0  0  # atno 8009 bound_to 7997
  156.0265  140.1251  157.0293 H   0  0  0  0  0  0  0  0  0  0  0  0  # atno 8010 bound_to 7997
  140.1185  144.4753  150.6935 H   0  0  0  0  0  0  0  0  0  0  0  0  # atno 10167 bound_to 10162
  156.0009  130.4690  150.4376 H   0  0  0  0  0  0  0  0  0  0  0  0  # atno 10718 bound_to 10713
  153.0036  135.5412  154.6428 H   0  0  0  0  0  0  0  0  0  0  0  0  # atno 10763 bound_to 10752
  154.5679  135.2839  155.0858 H   0  0  0  0  0  0  0  0  0  0  0  0  # atno 10764 bound_to 10752
  154.2035  135.6480  153.5146 H   0  0  0  0  0  0  0  0  0  0  0  0  # atno 10765 bound_to 10752
  139.8999  134.9578  156.6988 H   0  0  0  0  0  0  0  0  0  0  0  0  # atno 11005 bound_to 11000
  145.8602  140.9480  143.0704 LP  0  0  0  0  0  0  0  0  0  0  0  0  # atno 17320 bound_to 7965
  144.6748  140.0520  143.7478 LP  0  0  0  0  0  0  0  0  0  0  0  0  # atno 17321 bound_to 7965
  140.6886  143.2363  151.5194 LP  0  0  0  0  0  0  0  0  0  0  0  0  # atno 17342 bound_to 10162
  139.5581  144.2224  152.1647 LP  0  0  0  0  0  0  0  0  0  0  0  0  # atno 17343 bound_to 10162
  157.2420  131.0527  151.2431 LP  0  0  0  0  0  0  0  0  0  0  0  0  # atno 17370 bound_to 10713
  157.3611  130.7132  149.6502 LP  0  0  0  0  0  0  0  0  0  0  0  0  # atno 17371 bound_to 10713
  140.7167  133.9176  155.8120 LP  0  0  0  0  0  0  0  0  0  0  0  0  # atno 17394 bound_to 11000
  141.0259  134.0824  157.4069 LP  0  0  0  0  0  0  0  0  0  0  0  0  # atno 17395 bound_to 11000

$$$$
