AV-unprocessed.smi:2079|AV-procd|sdf|8479|dock5
  -GOLD-   2272011183D 1   1.00000     0.00000
 Structure written by MMmdl.
 41 42  0  0  0  0  0  0  0  0  3 V2000
  146.7410  135.9464  162.7237 C   0  0  0  0  0  0  0  0  0  0  0  0
  147.4769  135.9102  161.4281 C   0  0  0  0  0  0  0  0  0  0  0  0
  148.0094  134.8905  160.6917 C   0  0  0  0  0  0  0  0  0  0  0  0
  148.5630  135.5579  159.5652 C   0  0  0  0  0  0  0  0  0  0  0  0
  149.2161  134.9763  158.5472 N   0  5  0  0  0  0  0  0  0  0  0  0
  149.2239  135.5550  157.3247 C   0  0  0  0  0  0  0  0  0  0  0  0
  149.7930  136.6037  157.0128 O   0  0  0  0  0  0  0  0  0  0  0  0
  148.5273  134.8769  156.4035 N   0  0  0  0  0  0  0  0  0  0  0  0
  148.3792  135.2730  155.0100 C   0  0  0  0  0  0  0  0  0  0  0  0
  146.9042  135.1912  154.5816 C   0  0  0  0  0  0  0  0  0  0  0  0
  146.7495  135.0314  153.1074 N   0  3  2  0  0  0  0  0  0  0  0  0
  145.4571  135.6082  152.6359 C   0  0  0  0  0  0  0  0  0  0  0  0
  145.3417  135.5913  151.1059 C   0  0  0  0  0  0  0  0  0  0  0  0
  145.4865  134.1645  150.5774 C   0  0  0  0  0  0  0  0  0  0  0  0
  146.8125  133.5769  151.0664 C   0  0  0  0  0  0  0  0  0  0  0  0
  146.9467  133.6309  152.6058 C   0  0  1  0  0  0  0  0  0  0  0  0
  148.3158  133.0309  152.9917 C   0  0  0  0  0  0  0  0  0  0  0  0
  148.3968  136.8687  159.6219 N   0  0  0  0  0  0  0  0  0  0  0  0
  147.6950  137.1025  160.8105 O   0  0  0  0  0  0  0  0  0  0  0  0
  147.4354  135.8941  163.5622 H   0  0  0  0  0  0  0  0  0  0  0  0
  146.0531  135.1045  162.8005 H   0  0  0  0  0  0  0  0  0  0  0  0
  146.1617  136.8648  162.8201 H   0  0  0  0  0  0  0  0  0  0  0  0
  148.0015  133.8351  160.9199 H   0  0  0  0  0  0  0  0  0  0  0  0
  148.0748  134.0229  156.6959 H   0  0  0  0  0  0  0  0  0  0  0  0
  148.7736  136.2826  154.8990 H   0  0  0  0  0  0  0  0  0  0  0  0
  148.9866  134.6167  154.3845 H   0  0  0  0  0  0  0  0  0  0  0  0
  146.4781  134.3481  155.1187 H   0  0  0  0  0  0  0  0  0  0  0  0
  146.3535  136.0712  154.9177 H   0  0  0  0  0  0  0  0  0  0  0  0
  144.6293  135.0497  153.0758 H   0  0  0  0  0  0  0  0  0  0  0  0
  145.3479  136.6382  152.9707 H   0  0  0  0  0  0  0  0  0  0  0  0
  144.3805  136.0055  150.7998 H   0  0  0  0  0  0  0  0  0  0  0  0
  146.1100  136.2310  150.6694 H   0  0  0  0  0  0  0  0  0  0  0  0
  144.6546  133.5505  150.9247 H   0  0  0  0  0  0  0  0  0  0  0  0
  145.4491  134.1588  149.4877 H   0  0  0  0  0  0  0  0  0  0  0  0
  146.8955  132.5463  150.7187 H   0  0  0  0  0  0  0  0  0  0  0  0
  147.6385  134.1219  150.6065 H   0  0  0  0  0  0  0  0  0  0  0  0
  146.1654  133.0043  153.0396 H   0  0  0  0  0  0  0  0  0  0  0  0
  148.4978  132.1001  152.4535 H   0  0  0  0  0  0  0  0  0  0  0  0
  148.3812  132.7778  154.0490 H   0  0  0  0  0  0  0  0  0  0  0  0
  149.1326  133.7120  152.7502 H   0  0  0  0  0  0  0  0  0  0  0  0
  147.4859  135.5807  152.6876 H   0  0  0  0  0  0  0  0  0  0  0  0
  1  2  1  0  0  0  0
  1 20  1  0  0  0  0
  1 21  1  0  0  0  0
  1 22  1  0  0  0  0
  2 19  1  0  0  0  0
  2  3  2  0  0  0  0
  3  4  1  0  0  0  0
  3 23  1  0  0  0  0
  4  5  1  0  0  0  0
  4 18  2  0  0  0  0
  5  6  1  0  0  0  0
  6  7  2  0  0  0  0
  6  8  1  0  0  0  0
  8  9  1  0  0  0  0
  8 24  1  0  0  0  0
  9 10  1  0  0  0  0
  9 25  1  0  0  0  0
  9 26  1  0  0  0  0
 10 11  1  0  0  0  0
 10 27  1  0  0  0  0
 10 28  1  0  0  0  0
 11 16  1  0  0  0  0
 11 12  1  0  0  0  0
 11 41  1  0  0  0  0
 12 13  1  0  0  0  0
 12 29  1  0  0  0  0
 12 30  1  0  0  0  0
 13 14  1  0  0  0  0
 13 31  1  0  0  0  0
 13 32  1  0  0  0  0
 14 15  1  0  0  0  0
 14 33  1  0  0  0  0
 14 34  1  0  0  0  0
 15 16  1  0  0  0  0
 15 35  1  0  0  0  0
 15 36  1  0  0  0  0
 16 17  1  0  0  0  0
 16 37  1  0  0  0  0
 17 38  1  0  0  0  0
 17 39  1  0  0  0  0
 17 40  1  0  0  0  0
 18 19  1  0  0  0  0
M  CHG  1   5  -1
M  CHG  1  11   1
M  END
> <s_m_source_file>
AV-unprocessed.smi

> <i_m_source_file_index>
2079

> <i_lp_mmshare_version>
43012

> <i_f3d_flags>
0

> <s_epik_input>
W0NIM11jMVtjSF1jKG5vMSlbTkhdQyg9TylbTkhdW0NIMl1bQ0gyXU4yW0NIMl1bQ0gyXVtDSDJdW0NIMl1bQ0BIXTJbQ0gzXQ==

> <s_epik_cmdline>
J2VwaWtfcHl0aG9uJywgJy1waCcsICc3LjAnLCAnLXRuJywgJzgnLCAnLW1hJywgJzIwMCcsICctbWV0YWxfYmluZGluZycsICctaW1hZScsICc8aW5maWxlLm1hZT4nLCAnLW9tYWUnLCAnPG91dGZpbGUubWFlPic=

> <r_epik_Ionization_Penalty>
6.22371

> <r_epik_Ionization_Penalty_Charging>
6.22362

> <r_epik_Ionization_Penalty_Neutral>
9.40454e-05

> <r_epik_State_Penalty>
6.22363

> <r_epik_Charging_Adjusted_Penalty>
12.4472

> <i_epik_Tot_Q>
0

> <i_epik_Tot_abs_Q>
2

> <r_epik_Metal_State_Penalty>
2.16675

> <b_epik_Metal_Only>
1

> <s_lp_Force_Field>
OPLS_2005

> <r_lp_Energy>
9.22117

> <b_lp_Chiralities_Consistent>
1

> <s_lp_Variant>
AV-unprocessed.smi:2079-5

> <Gold.Version>
5.8.1

> <Gold.Id.Protein>
6NUR|6NUR_protein|mol2

> <Gold.PLP.Fitness>
43.1721

> <Gold.PLP.PLP>
-28.4400

> <Gold.PLP.part.hbond>
-4.0000

> <Gold.PLP.part.metal>
0.0000

> <Gold.PLP.part.buried>
-3.2264

> <Gold.PLP.part.nonpolar>
-21.1276

> <Gold.PLP.part.repulsive>
0.0149

> <Gold.PLP.ligand.clash>
0.0000

> <Gold.PLP.ligand.torsion>
1.2698

> <Gold.PLP.Chemscore.Hbond>
5.7440

> <Gold.PLP.Chemscore.CHOScore>
0.0000

> <Gold.PLP.Chemscore.Metal>
0.0000

> <Gold.Chemscore.Hbonds>
donor molecule, donor type, donor heavy atom, donor atom, acceptor molecule, acceptor atom, score
      L1  H    11    41       P1  7948  2.00
      P1  H  6896  6908       L1     5  2.00
      P1  H  6931  6943       L1    19  0.79
      P1  H  6934  6947       L1    19  0.93

> <Gold.PLP.Chemscore.Internal.Correction>
0.0398

> <Gold.Rescore>
     Score         DG    S(hbond)    S(metal)    S(lipo)     H(rot)  DE(clash)    DE(int)     intcor
     15.55     -18.15       2.83        0.00      61.15       1.54       0.04       2.57       ----

> <Gold.Chemscore.Fitness>
15.5452

> <Gold.Chemscore.DG>
-18.1536

> <Gold.Chemscore.ZeroCoef>
-5.4800

> <Gold.Chemscore.Hbond>
2.8333

> <Gold.Chemscore.Metal>
0.0000

> <Gold.Chemscore.Lipo>
61.1535

> <Gold.Chemscore.Internal_Hbond>
0.0000

> <Gold.Chemscore.DEClash>
0.0398

> <Gold.Chemscore.DEInternal>
2.5686

> <Gold.Chemscore.Rot>
1.5409

> <Gold.Chemscore.Internal.Correction>
   9.000000E+99

> <Gold.Chemscore.Hbonds>
donor molecule, donor type, donor heavy atom, donor atom, acceptor molecule, acceptor atom, score
      L1  H    11    41       P1  7948  1.00
      P1  H  6896  6908       L1     5  0.39
      P1  H  6931  6943       L1    19  0.21
      P1  H  6934  6947       L1    19  0.65

> <Gold.Chemscore.Hbond.Weighted>
-9.4633

> <Gold.Chemscore.Metal.Weighted>
-0.0000

> <Gold.Chemscore.Lipo.Weighted>
-7.1550

> <Gold.Chemscore.Internal_Hbond.Weighted>
0.0000

> <Gold.Chemscore.DEClash.Weighted>
0.0398

> <Gold.Chemscore.DEInternal.Weighted>
2.5686

> <Gold.Chemscore.Rot.Weighted>
3.9446

> <Gold.Chemscore.Internal.Correction.Weighted>
   9.000000E+99

> <Gold.Protein.RotatedTorsions>
[ 6907 6896 6895 6894 ] final  142.56 input  -60.11 | X-H torsion
[ 7974 7965 7964 7962 ] final  -99.55 input  175.53 | X-H torsion
[ 8008 7997 7996 7995 ] final -148.80 input   59.86 | X-H torsion
[ 10167 10162 10161 10158 ] final -135.13 input  -65.29 | X-H torsion
[ 10718 10713 10712 10709 ] final  109.52 input   66.30 | X-H torsion
[ 10763 10752 10751 10750 ] final  -27.51 input  -60.55 | X-H torsion
[ 11005 11000 10999 10996 ] final  -16.34 input  -57.11 | X-H torsion

> <Gold.Protein.ActiveResidues>
 VAL166  LYS551  ARG553  GLY616  TRP617  ASP618  TYR619  PRO620  LYS621  CYS622 
 ASP623  PHE694  ASN695  SER759  ASP760  ASP761  ALA762  ILE779  LEU786  VAL792 
 PHE793  MET794  SER795  GLU796  ALA797  LYS798  CYS799  TRP800  GLU811  SER814 

> <Gold.Protein.RotatedAtoms>
  152.2172  133.4956  159.5142 H   0  0  0  0  0  0  0  0  0  0  0  0  # atno 6907 bound_to 6896
  150.7004  134.1390  159.4107 H   0  0  0  0  0  0  0  0  0  0  0  0  # atno 6908 bound_to 6896
  151.9310  135.0256  160.0580 H   0  0  0  0  0  0  0  0  0  0  0  0  # atno 6909 bound_to 6896
  145.3061  140.9389  143.2796 H   0  0  0  0  0  0  0  0  0  0  0  0  # atno 7974 bound_to 7965
  155.5975  140.0658  157.2742 H   0  0  0  0  0  0  0  0  0  0  0  0  # atno 8008 bound_to 7997
  154.4288  140.1824  156.1185 H   0  0  0  0  0  0  0  0  0  0  0  0  # atno 8009 bound_to 7997
  156.0185  140.3319  155.7018 H   0  0  0  0  0  0  0  0  0  0  0  0  # atno 8010 bound_to 7997
  139.8810  143.6839  152.2627 H   0  0  0  0  0  0  0  0  0  0  0  0  # atno 10167 bound_to 10162
  157.6537  131.0915  150.6466 H   0  0  0  0  0  0  0  0  0  0  0  0  # atno 10718 bound_to 10713
  153.7332  135.6937  153.4984 H   0  0  0  0  0  0  0  0  0  0  0  0  # atno 10763 bound_to 10752
  153.2121  135.4399  155.0390 H   0  0  0  0  0  0  0  0  0  0  0  0  # atno 10764 bound_to 10752
  154.8246  135.3439  154.6861 H   0  0  0  0  0  0  0  0  0  0  0  0  # atno 10765 bound_to 10752
  140.8058  133.8179  155.9514 H   0  0  0  0  0  0  0  0  0  0  0  0  # atno 11005 bound_to 11000
  144.9054  139.4596  143.6612 LP  0  0  0  0  0  0  0  0  0  0  0  0  # atno 17320 bound_to 7965
  146.3135  139.7832  142.9002 LP  0  0  0  0  0  0  0  0  0  0  0  0  # atno 17321 bound_to 7965
  139.7196  144.7605  151.0977 LP  0  0  0  0  0  0  0  0  0  0  0  0  # atno 17342 bound_to 10162
  140.7744  143.5224  150.9520 LP  0  0  0  0  0  0  0  0  0  0  0  0  # atno 17343 bound_to 10162
  156.6774  130.4557  149.5638 LP  0  0  0  0  0  0  0  0  0  0  0  0  # atno 17370 bound_to 10713
  156.1953  130.6586  151.1108 LP  0  0  0  0  0  0  0  0  0  0  0  0  # atno 17371 bound_to 10713
  140.9249  134.2095  157.4902 LP  0  0  0  0  0  0  0  0  0  0  0  0  # atno 17394 bound_to 11000
  139.8718  134.9808  156.5090 LP  0  0  0  0  0  0  0  0  0  0  0  0  # atno 17395 bound_to 11000

$$$$
