AV-unprocessed.smi:3244|AV-procd|sdf|12401|dock8
  -GOLD-   2272018273D 1   1.00000     0.00000
 Structure written by MMmdl.
 40 41  0  0  0  0  0  0  0  0  1 V2000
  151.9018  145.2620  159.0527 C   0  0  0  0  0  0  0  0  0  0  0  0
  152.0570  144.0063  159.9259 C   0  0  0  0  0  0  0  0  0  0  0  0
  152.4610  142.8264  159.1413 N   0  0  0  0  0  0  0  0  0  0  0  0
  151.6120  142.2899  158.2263 C   0  0  0  0  0  0  0  0  0  0  0  0
  150.5554  142.8387  157.9098 O   0  0  0  0  0  0  0  0  0  0  0  0
  151.9492  140.9558  157.5401 C   0  0  0  0  0  0  0  0  0  0  0  0
  150.8798  140.4855  156.6438 N   0  0  0  0  0  0  0  0  0  0  0  0
  151.3402  140.1190  155.3073 C   0  0  1  0  0  0  0  0  0  0  0  0
  152.5501  139.1839  155.4719 C   0  0  0  0  0  0  0  0  0  0  0  0
  150.2014  139.4982  154.4575 C   0  0  0  0  0  0  0  0  0  0  0  0
  148.9930  140.3063  154.4067 N   0  0  0  0  0  0  0  0  0  0  0  0
  147.6872  139.9097  154.6087 C   0  0  0  0  0  0  0  0  0  0  0  0
  146.8978  141.0132  154.4557 C   0  0  0  0  0  0  0  0  0  0  0  0
  147.8229  142.0509  154.1530 C   0  0  0  0  0  0  0  0  0  0  0  0
  149.0738  141.6233  154.1206 N   0  0  0  0  0  0  0  0  0  0  0  0
  153.6836  142.1985  159.5727 C   0  0  0  0  0  0  0  0  0  0  0  0
  153.6858  140.7484  160.0243 C   0  0  0  0  0  0  0  0  0  0  0  0
  153.8817  141.8444  161.0349 C   0  0  0  0  0  0  0  0  0  0  0  0
  151.5420  146.1021  159.6468 H   0  0  0  0  0  0  0  0  0  0  0  0
  151.1856  145.0946  158.2477 H   0  0  0  0  0  0  0  0  0  0  0  0
  152.8485  145.5626  158.6041 H   0  0  0  0  0  0  0  0  0  0  0  0
  152.7837  144.1930  160.7182 H   0  0  0  0  0  0  0  0  0  0  0  0
  151.1132  143.8339  160.4412 H   0  0  0  0  0  0  0  0  0  0  0  0
  152.8896  141.0703  156.9981 H   0  0  0  0  0  0  0  0  0  0  0  0
  152.1511  140.1904  158.2870 H   0  0  0  0  0  0  0  0  0  0  0  0
  150.3752  139.7128  157.0536 H   0  0  0  0  0  0  0  0  0  0  0  0
  151.6970  141.0214  154.8083 H   0  0  0  0  0  0  0  0  0  0  0  0
  152.9297  138.8636  154.5014 H   0  0  0  0  0  0  0  0  0  0  0  0
  152.2995  138.2890  156.0428 H   0  0  0  0  0  0  0  0  0  0  0  0
  153.3665  139.6860  155.9922 H   0  0  0  0  0  0  0  0  0  0  0  0
  150.5276  139.2908  153.4379 H   0  0  0  0  0  0  0  0  0  0  0  0
  149.9305  138.5304  154.8812 H   0  0  0  0  0  0  0  0  0  0  0  0
  147.4322  138.8870  154.8449 H   0  0  0  0  0  0  0  0  0  0  0  0
  145.8231  141.0703  154.5451 H   0  0  0  0  0  0  0  0  0  0  0  0
  147.6248  143.0939  153.9551 H   0  0  0  0  0  0  0  0  0  0  0  0
  154.5752  142.5153  159.0344 H   0  0  0  0  0  0  0  0  0  0  0  0
  152.7425  140.2085  160.0747 H   0  0  0  0  0  0  0  0  0  0  0  0
  154.5528  140.1446  159.7637 H   0  0  0  0  0  0  0  0  0  0  0  0
  154.8786  141.9764  161.4505 H   0  0  0  0  0  0  0  0  0  0  0  0
  153.0612  142.0202  161.7278 H   0  0  0  0  0  0  0  0  0  0  0  0
  1  2  1  0  0  0  0
  1 19  1  0  0  0  0
  1 20  1  0  0  0  0
  1 21  1  0  0  0  0
  2  3  1  0  0  0  0
  2 22  1  0  0  0  0
  2 23  1  0  0  0  0
  3  4  1  0  0  0  0
  3 16  1  0  0  0  0
  4  5  2  0  0  0  0
  4  6  1  0  0  0  0
  6  7  1  0  0  0  0
  6 24  1  0  0  0  0
  6 25  1  0  0  0  0
  7  8  1  0  0  0  0
  7 26  1  0  0  0  0
  8  9  1  0  0  0  0
  8 10  1  0  0  0  0
  8 27  1  0  0  0  0
  9 28  1  0  0  0  0
  9 29  1  0  0  0  0
  9 30  1  0  0  0  0
 10 11  1  0  0  0  0
 10 31  1  0  0  0  0
 10 32  1  0  0  0  0
 11 15  1  0  0  0  0
 11 12  1  0  0  0  0
 12 13  2  0  0  0  0
 12 33  1  0  0  0  0
 13 14  1  0  0  0  0
 13 34  1  0  0  0  0
 14 15  2  0  0  0  0
 14 35  1  0  0  0  0
 16 18  1  0  0  0  0
 16 17  1  0  0  0  0
 16 36  1  0  0  0  0
 17 18  1  0  0  0  0
 17 37  1  0  0  0  0
 17 38  1  0  0  0  0
 18 39  1  0  0  0  0
 18 40  1  0  0  0  0
M  END
> <s_m_source_file>
AV-unprocessed.smi

> <i_m_source_file_index>
3244

> <i_lp_mmshare_version>
43012

> <i_f3d_flags>
0

> <s_epik_input>
W0NIMl0xW0NIMl1bQ0hdMU4oW0NIMl1bQ0gzXSlDKD1PKVtDSDJdW05IXVtDQEhdKFtDSDNdKVtDSDJdbjJbY0hdW2NIXVtjSF1uMg==

> <s_epik_cmdline>
J2VwaWtfcHl0aG9uJywgJy1waCcsICc3LjAnLCAnLXRuJywgJzgnLCAnLW1hJywgJzIwMCcsICctbWV0YWxfYmluZGluZycsICctaW1hZScsICc8aW5maWxlLm1hZT4nLCAnLW9tYWUnLCAnPG91dGZpbGUubWFlPic=

> <r_lp_tautomer_probability>
1

> <r_epik_Ionization_Penalty>
1.02506

> <r_epik_Ionization_Penalty_Charging>
0

> <r_epik_Ionization_Penalty_Neutral>
1.02506

> <r_epik_State_Penalty>
1.07563

> <r_epik_Charging_Adjusted_Penalty>
1.07563

> <i_epik_Tot_Q>
0

> <i_epik_Tot_abs_Q>
0

> <r_epik_Metal_State_Penalty>
1.07558

> <b_epik_Metal_Only>
0

> <s_lp_Force_Field>
OPLS_2005

> <r_lp_Energy>
38.4793

> <b_lp_Chiralities_Consistent>
1

> <s_lp_Variant>
AV-unprocessed.smi:3244-4

> <Gold.Version>
5.8.1

> <Gold.Id.Protein>
6NUR|6NUR_protein|mol2

> <Gold.PLP.Fitness>
46.6814

> <Gold.PLP.PLP>
-44.0565

> <Gold.PLP.part.hbond>
-1.6153

> <Gold.PLP.part.metal>
0.0000

> <Gold.PLP.part.buried>
-1.4808

> <Gold.PLP.part.nonpolar>
-40.4741

> <Gold.PLP.part.repulsive>
0.3272

> <Gold.PLP.ligand.clash>
0.0000

> <Gold.PLP.ligand.torsion>
0.6841

> <Gold.PLP.Chemscore.Hbond>
0.5472

> <Gold.PLP.Chemscore.CHOScore>
0.6683

> <Gold.PLP.Chemscore.Metal>
0.0000

> <Gold.Chemscore.Hbonds>
donor molecule, donor type, donor heavy atom, donor atom, acceptor molecule, acceptor atom, score
      P1  H  8011  8017       L1    15  0.52
      L1  C    14    35       P1  8028  0.53

> <Gold.PLP.Chemscore.Internal.Correction>
0.3465

> <Gold.Rescore>
     Score         DG    S(hbond)    S(metal)    S(lipo)     H(rot)  DE(clash)    DE(int)     intcor
     12.83     -13.71       0.41        0.00     101.24       1.95       0.05       0.83       ----

> <Gold.Chemscore.Fitness>
12.8281

> <Gold.Chemscore.DG>
-13.7055

> <Gold.Chemscore.ZeroCoef>
-5.4800

> <Gold.Chemscore.Hbond>
0.4148

> <Gold.Chemscore.Metal>
0.0000

> <Gold.Chemscore.Lipo>
101.2370

> <Gold.Chemscore.Internal_Hbond>
0.0000

> <Gold.Chemscore.DEClash>
0.0456

> <Gold.Chemscore.DEInternal>
0.8318

> <Gold.Chemscore.Rot>
1.9550

> <Gold.Chemscore.Internal.Correction>
   9.000000E+99

> <Gold.Chemscore.Hbonds>
donor molecule, donor type, donor heavy atom, donor atom, acceptor molecule, acceptor atom, score
      P1  H  8011  8017       L1    15  0.20

> <Gold.Chemscore.Hbond.Weighted>
-1.3855

> <Gold.Chemscore.Metal.Weighted>
-0.0000

> <Gold.Chemscore.Lipo.Weighted>
-11.8447

> <Gold.Chemscore.Internal_Hbond.Weighted>
0.0000

> <Gold.Chemscore.DEClash.Weighted>
0.0456

> <Gold.Chemscore.DEInternal.Weighted>
0.8318

> <Gold.Chemscore.Rot.Weighted>
5.0047

> <Gold.Chemscore.Internal.Correction.Weighted>
   9.000000E+99

> <Gold.Protein.RotatedTorsions>
[ 6907 6896 6895 6894 ] final  -20.19 input  -60.11 | X-H torsion
[ 7974 7965 7964 7962 ] final -108.16 input  175.53 | X-H torsion
[ 8008 7997 7996 7995 ] final   77.32 input   59.86 | X-H torsion
[ 10167 10162 10161 10158 ] final -168.17 input  -65.29 | X-H torsion
[ 10718 10713 10712 10709 ] final   29.12 input   66.30 | X-H torsion
[ 10763 10752 10751 10750 ] final  -23.21 input  -60.55 | X-H torsion
[ 11005 11000 10999 10996 ] final  -51.83 input  -57.11 | X-H torsion

> <Gold.Protein.ActiveResidues>
 VAL166  LYS551  ARG553  GLY616  TRP617  ASP618  TYR619  PRO620  LYS621  CYS622 
 ASP623  PHE694  ASN695  SER759  ASP760  ASP761  ALA762  ILE779  LEU786  VAL792 
 PHE793  MET794  SER795  GLU796  ALA797  LYS798  CYS799  TRP800  GLU811  SER814 

> <Gold.Protein.RotatedAtoms>
  151.2519  135.0625  159.9064 H   0  0  0  0  0  0  0  0  0  0  0  0  # atno 6907 bound_to 6896
  152.5379  134.0323  159.8040 H   0  0  0  0  0  0  0  0  0  0  0  0  # atno 6908 bound_to 6896
  151.0533  133.5556  159.2671 H   0  0  0  0  0  0  0  0  0  0  0  0  # atno 6909 bound_to 6896
  145.1963  140.9037  143.3395 H   0  0  0  0  0  0  0  0  0  0  0  0  # atno 7974 bound_to 7965
  155.8400  140.3462  155.5626 H   0  0  0  0  0  0  0  0  0  0  0  0  # atno 8008 bound_to 7997
  155.8151  140.0904  157.1901 H   0  0  0  0  0  0  0  0  0  0  0  0  # atno 8009 bound_to 7997
  154.4005  140.1440  156.3420 H   0  0  0  0  0  0  0  0  0  0  0  0  # atno 8010 bound_to 7997
  139.6002  144.1026  152.1735 H   0  0  0  0  0  0  0  0  0  0  0  0  # atno 10167 bound_to 10162
  157.2424  130.7076  149.6365 H   0  0  0  0  0  0  0  0  0  0  0  0  # atno 10718 bound_to 10713
  153.6642  135.6975  153.5167 H   0  0  0  0  0  0  0  0  0  0  0  0  # atno 10763 bound_to 10752
  153.2608  135.4245  155.0891 H   0  0  0  0  0  0  0  0  0  0  0  0  # atno 10764 bound_to 10752
  154.8444  135.3554  154.6187 H   0  0  0  0  0  0  0  0  0  0  0  0  # atno 10765 bound_to 10752
  141.0892  133.6636  156.3935 H   0  0  0  0  0  0  0  0  0  0  0  0  # atno 11005 bound_to 11000
  144.9992  139.3615  143.6176 LP  0  0  0  0  0  0  0  0  0  0  0  0  # atno 17320 bound_to 7965
  146.3426  139.9207  142.8767 LP  0  0  0  0  0  0  0  0  0  0  0  0  # atno 17321 bound_to 7965
  140.0620  144.5848  150.7255 LP  0  0  0  0  0  0  0  0  0  0  0  0  # atno 17342 bound_to 10162
  140.7244  143.2621  151.4171 LP  0  0  0  0  0  0  0  0  0  0  0  0  # atno 17343 bound_to 10162
  155.9669  130.4454  150.5498 LP  0  0  0  0  0  0  0  0  0  0  0  0  # atno 17370 bound_to 10713
  157.3364  131.0709  151.1821 LP  0  0  0  0  0  0  0  0  0  0  0  0  # atno 17371 bound_to 10713
  140.5292  134.6229  157.5344 LP  0  0  0  0  0  0  0  0  0  0  0  0  # atno 17394 bound_to 11000
  139.9715  134.7285  156.0032 LP  0  0  0  0  0  0  0  0  0  0  0  0  # atno 17395 bound_to 11000

$$$$
