AV-unprocessed.smi:2322|AV-procd|sdf|9286|dock10
  -GOLD-   2272012513D 1   1.00000     0.00000
 Structure written by MMmdl.
 38 40  0  0  0  0  0  0  0  0  1 V2000
  147.7858  132.6674  152.2860 C   0  0  0  0  0  0  0  0  0  0  0  0
  148.7694  132.1893  153.2384 N   0  0  0  0  0  0  0  0  0  0  0  0
  148.9045  130.8664  153.4911 N   0  0  0  0  0  0  0  0  0  0  0  0
  149.8849  130.8386  154.3928 C   0  0  0  0  0  0  0  0  0  0  0  0
  150.4047  132.0503  154.7486 N   0  0  0  0  0  0  0  0  0  0  0  0
  149.6603  132.8480  153.9869 C   0  0  0  0  0  0  0  0  0  0  0  0
  149.7300  134.2709  153.9095 N   0  0  0  0  0  0  0  0  0  0  0  0
  150.2695  135.1817  154.7468 C   0  0  0  0  0  0  0  0  0  0  0  0
  150.8219  134.8353  155.7896 O   0  0  0  0  0  0  0  0  0  0  0  0
  150.1628  136.4671  154.3727 N   0  0  0  0  0  0  0  0  0  0  0  0
  150.6574  137.6155  155.1246 C   0  0  1  0  0  0  0  0  0  0  0  0
  152.0991  137.9603  154.7163 C   0  0  0  0  0  0  0  0  0  0  0  0
  152.5531  139.2663  155.3878 C   0  0  0  0  0  0  0  0  0  0  0  0
  151.6494  140.3199  155.0699 O   0  0  0  0  0  0  0  0  0  0  0  0
  150.3271  140.0884  155.5470 C   0  0  1  0  0  0  0  0  0  0  0  0
  149.4948  141.3187  155.2456 C   0  0  0  0  0  0  0  0  0  0  0  0
  147.9916  141.2936  155.3976 C   0  0  0  0  0  0  0  0  0  0  0  0
  148.6091  141.3684  154.0221 C   0  0  0  0  0  0  0  0  0  0  0  0
  149.7538  138.8301  154.8695 C   0  0  0  0  0  0  0  0  0  0  0  0
  148.2909  133.0334  151.3921 H   0  0  0  0  0  0  0  0  0  0  0  0
  147.2082  133.4796  152.7279 H   0  0  0  0  0  0  0  0  0  0  0  0
  147.1034  131.8643  152.0049 H   0  0  0  0  0  0  0  0  0  0  0  0
  150.2396  129.9080  154.8108 H   0  0  0  0  0  0  0  0  0  0  0  0
  149.2989  134.6646  153.0858 H   0  0  0  0  0  0  0  0  0  0  0  0
  149.6957  136.6625  153.4983 H   0  0  0  0  0  0  0  0  0  0  0  0
  150.6325  137.3880  156.1922 H   0  0  0  0  0  0  0  0  0  0  0  0
  152.7763  137.1489  154.9845 H   0  0  0  0  0  0  0  0  0  0  0  0
  152.1607  138.0741  153.6330 H   0  0  0  0  0  0  0  0  0  0  0  0
  152.6189  139.1444  156.4701 H   0  0  0  0  0  0  0  0  0  0  0  0
  153.5489  139.5396  155.0383 H   0  0  0  0  0  0  0  0  0  0  0  0
  150.3552  139.9444  156.6289 H   0  0  0  0  0  0  0  0  0  0  0  0
  149.9846  142.2541  155.5101 H   0  0  0  0  0  0  0  0  0  0  0  0
  147.5261  140.3541  155.6885 H   0  0  0  0  0  0  0  0  0  0  0  0
  147.5121  142.1907  155.7839 H   0  0  0  0  0  0  0  0  0  0  0  0
  148.5421  142.3151  153.4903 H   0  0  0  0  0  0  0  0  0  0  0  0
  148.5558  140.4781  153.3986 H   0  0  0  0  0  0  0  0  0  0  0  0
  149.6638  139.0049  153.7962 H   0  0  0  0  0  0  0  0  0  0  0  0
  148.7469  138.6313  155.2387 H   0  0  0  0  0  0  0  0  0  0  0  0
  1  2  1  0  0  0  0
  1 20  1  0  0  0  0
  1 21  1  0  0  0  0
  1 22  1  0  0  0  0
  2  6  1  0  0  0  0
  2  3  1  0  0  0  0
  3  4  2  0  0  0  0
  4  5  1  0  0  0  0
  4 23  1  0  0  0  0
  5  6  2  0  0  0  0
  6  7  1  0  0  0  0
  7  8  1  0  0  0  0
  7 24  1  0  0  0  0
  8  9  2  0  0  0  0
  8 10  1  0  0  0  0
 10 11  1  0  0  0  0
 10 25  1  0  0  0  0
 11 19  1  0  0  0  0
 11 12  1  0  0  0  0
 11 26  1  0  0  0  0
 12 13  1  0  0  0  0
 12 27  1  0  0  0  0
 12 28  1  0  0  0  0
 13 14  1  0  0  0  0
 13 29  1  0  0  0  0
 13 30  1  0  0  0  0
 14 15  1  0  0  0  0
 15 16  1  0  0  0  0
 15 19  1  0  0  0  0
 15 31  1  0  0  0  0
 16 18  1  0  0  0  0
 16 17  1  0  0  0  0
 16 32  1  0  0  0  0
 17 18  1  0  0  0  0
 17 33  1  0  0  0  0
 17 34  1  0  0  0  0
 18 35  1  0  0  0  0
 18 36  1  0  0  0  0
 19 37  1  0  0  0  0
 19 38  1  0  0  0  0
M  END
> <s_m_source_file>
AV-unprocessed.smi

> <i_m_source_file_index>
2322

> <i_lp_mmshare_version>
43012

> <i_f3d_flags>
0

> <s_epik_input>
W0NIM11uMW5bY0hdbmMxW05IXUMoPU8pW05IXVtDQEBIXTJbQ0gyXVtDSDJdT1tDQEhdKFtDSDJdMilbQ0hdM1tDSDJdW0NIMl0z

> <s_epik_cmdline>
J2VwaWtfcHl0aG9uJywgJy1waCcsICc3LjAnLCAnLXRuJywgJzgnLCAnLW1hJywgJzIwMCcsICctbWV0YWxfYmluZGluZycsICctaW1hZScsICc8aW5maWxlLm1hZT4nLCAnLW9tYWUnLCAnPG91dGZpbGUubWFlPic=

> <r_lp_tautomer_probability>
1

> <r_epik_Ionization_Penalty>
2.16399e-05

> <r_epik_Ionization_Penalty_Charging>
0

> <r_epik_Ionization_Penalty_Neutral>
2.16399e-05

> <r_epik_State_Penalty>
-0

> <r_epik_Charging_Adjusted_Penalty>
0

> <i_epik_Tot_Q>
0

> <i_epik_Tot_abs_Q>
0

> <r_epik_Metal_State_Penalty>
-0

> <b_epik_Metal_Only>
0

> <s_lp_Force_Field>
OPLS_2005

> <r_lp_Energy>
20.3548

> <b_lp_Chiralities_Consistent>
1

> <s_lp_Variant>
AV-unprocessed.smi:2322-2

> <Gold.Version>
5.8.1

> <Gold.Id.Protein>
6NUR|6NUR_protein|mol2

> <Gold.PLP.Fitness>
42.3591

> <Gold.PLP.PLP>
-35.3590

> <Gold.PLP.part.hbond>
-3.2324

> <Gold.PLP.part.metal>
0.0000

> <Gold.PLP.part.buried>
-3.1493

> <Gold.PLP.part.nonpolar>
-30.3361

> <Gold.PLP.part.repulsive>
0.2572

> <Gold.PLP.ligand.clash>
0.0000

> <Gold.PLP.ligand.torsion>
1.0304

> <Gold.PLP.Chemscore.Hbond>
2.6624

> <Gold.PLP.Chemscore.CHOScore>
0.0000

> <Gold.PLP.Chemscore.Metal>
0.0000

> <Gold.Chemscore.Hbonds>
donor molecule, donor type, donor heavy atom, donor atom, acceptor molecule, acceptor atom, score
      L1  H     7    24       P1  7948  0.30
      L1  H    10    25       P1  7948  1.00
      P1  H  7989  7998       L1    14  0.91

> <Gold.PLP.Chemscore.Internal.Correction>
1.0738

> <Gold.Rescore>
     Score         DG    S(hbond)    S(metal)    S(lipo)     H(rot)  DE(clash)    DE(int)     intcor
     15.25     -16.90       2.43        0.00      56.72       1.31       0.01       1.64       ----

> <Gold.Chemscore.Fitness>
15.2457

> <Gold.Chemscore.DG>
-16.8986

> <Gold.Chemscore.ZeroCoef>
-5.4800

> <Gold.Chemscore.Hbond>
2.4336

> <Gold.Chemscore.Metal>
0.0000

> <Gold.Chemscore.Lipo>
56.7241

> <Gold.Chemscore.Internal_Hbond>
0.0000

> <Gold.Chemscore.DEClash>
0.0110

> <Gold.Chemscore.DEInternal>
1.6419

> <Gold.Chemscore.Rot>
1.3072

> <Gold.Chemscore.Internal.Correction>
   9.000000E+99

> <Gold.Chemscore.Hbonds>
donor molecule, donor type, donor heavy atom, donor atom, acceptor molecule, acceptor atom, score
      L1  H    10    25       P1  7948  0.49
      P1  H  7989  7998       L1    14  0.68

> <Gold.Chemscore.Hbond.Weighted>
-8.1283

> <Gold.Chemscore.Metal.Weighted>
-0.0000

> <Gold.Chemscore.Lipo.Weighted>
-6.6367

> <Gold.Chemscore.Internal_Hbond.Weighted>
0.0000

> <Gold.Chemscore.DEClash.Weighted>
0.0110

> <Gold.Chemscore.DEInternal.Weighted>
1.6419

> <Gold.Chemscore.Rot.Weighted>
3.3464

> <Gold.Chemscore.Internal.Correction.Weighted>
   9.000000E+99

> <Gold.Protein.RotatedTorsions>
[ 6907 6896 6895 6894 ] final  110.87 input  -60.11 | X-H torsion
[ 7974 7965 7964 7962 ] final -148.31 input  175.53 | X-H torsion
[ 8008 7997 7996 7995 ] final   95.47 input   59.86 | X-H torsion
[ 10167 10162 10161 10158 ] final  105.49 input  -65.29 | X-H torsion
[ 10718 10713 10712 10709 ] final   81.08 input   66.30 | X-H torsion
[ 10763 10752 10751 10750 ] final   83.53 input  -60.55 | X-H torsion
[ 11005 11000 10999 10996 ] final  113.86 input  -57.11 | X-H torsion

> <Gold.Protein.ActiveResidues>
 VAL166  LYS551  ARG553  GLY616  TRP617  ASP618  TYR619  PRO620  LYS621  CYS622 
 ASP623  PHE694  ASN695  SER759  ASP760  ASP761  ALA762  ILE779  LEU786  VAL792 
 PHE793  MET794  SER795  GLU796  ALA797  LYS798  CYS799  TRP800  GLU811  SER814 

> <Gold.Protein.RotatedAtoms>
  152.4998  133.8739  159.7311 H   0  0  0  0  0  0  0  0  0  0  0  0  # atno 6907 bound_to 6896
  150.9218  133.6862  159.2837 H   0  0  0  0  0  0  0  0  0  0  0  0  # atno 6908 bound_to 6896
  151.4236  135.1005  159.9674 H   0  0  0  0  0  0  0  0  0  0  0  0  # atno 6909 bound_to 6896
  144.8037  140.5213  143.5689 H   0  0  0  0  0  0  0  0  0  0  0  0  # atno 7974 bound_to 7965
  156.0692  140.3286  155.7555 H   0  0  0  0  0  0  0  0  0  0  0  0  # atno 8008 bound_to 7997
  155.5332  140.0595  157.2902 H   0  0  0  0  0  0  0  0  0  0  0  0  # atno 8009 bound_to 7997
  154.4521  140.1923  156.0505 H   0  0  0  0  0  0  0  0  0  0  0  0  # atno 8010 bound_to 7997
  139.7088  144.7081  151.1061 H   0  0  0  0  0  0  0  0  0  0  0  0  # atno 10167 bound_to 10162
  157.6823  130.9988  150.2173 H   0  0  0  0  0  0  0  0  0  0  0  0  # atno 10718 bound_to 10713
  153.1299  135.4688  154.9332 H   0  0  0  0  0  0  0  0  0  0  0  0  # atno 10763 bound_to 10752
  154.7654  135.3143  154.8298 H   0  0  0  0  0  0  0  0  0  0  0  0  # atno 10764 bound_to 10752
  153.8843  135.6891  153.4818 H   0  0  0  0  0  0  0  0  0  0  0  0  # atno 10765 bound_to 10752
  139.8964  134.9557  156.6803 H   0  0  0  0  0  0  0  0  0  0  0  0  # atno 11005 bound_to 11000
  145.5489  139.1476  143.3405 LP  0  0  0  0  0  0  0  0  0  0  0  0  # atno 17320 bound_to 7965
  146.2324  140.5628  142.8969 LP  0  0  0  0  0  0  0  0  0  0  0  0  # atno 17321 bound_to 7965
  140.7728  143.5321  150.9411 LP  0  0  0  0  0  0  0  0  0  0  0  0  # atno 17342 bound_to 10162
  139.9005  143.6841  152.3132 LP  0  0  0  0  0  0  0  0  0  0  0  0  # atno 17343 bound_to 10162
  156.2832  130.3736  149.7914 LP  0  0  0  0  0  0  0  0  0  0  0  0  # atno 17370 bound_to 10713
  156.5596  130.8378  151.3325 LP  0  0  0  0  0  0  0  0  0  0  0  0  # atno 17371 bound_to 10713
  140.7304  133.9063  155.8207 LP  0  0  0  0  0  0  0  0  0  0  0  0  # atno 17394 bound_to 11000
  141.0157  134.0958  157.4174 LP  0  0  0  0  0  0  0  0  0  0  0  0  # atno 17395 bound_to 11000

$$$$
