AV-unprocessed.smi:2253|AV-procd|sdf|9118|dock2
  -GOLD-   2272012323D 1   1.00000     0.00000
 Structure written by MMmdl.
 52 54  0  0  0  0  0  0  0  0  3 V2000
  152.8511  144.8555  158.0235 C   0  0  0  0  0  0  0  0  0  0  0  0
  152.1137  143.7353  158.6471 N   0  3  2  0  0  0  0  0  0  0  0  0
  153.0042  142.6048  159.0113 C   0  0  0  0  0  0  0  0  0  0  0  0
  152.2214  141.4886  159.7286 C   0  0  0  0  0  0  0  0  0  0  0  0
  151.0486  140.9592  158.8678 C   0  0  2  0  0  0  0  0  0  0  0  0
  151.5179  140.1993  157.6566 N   0  3  2  0  0  0  0  0  0  0  0  0
  150.4578  139.7720  156.6981 C   0  0  0  0  0  0  0  0  0  0  0  0
  149.6092  138.6158  157.2595 C   0  0  0  0  0  0  0  0  0  0  0  0
  150.4983  137.4072  157.5982 C   0  0  2  0  0  0  0  0  0  0  0  0
  149.6962  136.3456  158.2001 N   0  0  0  0  0  0  0  0  0  0  0  0
  148.9512  136.4801  159.3079 C   0  0  0  0  0  0  0  0  0  0  0  0
  148.8475  137.5411  159.9217 O   0  0  0  0  0  0  0  0  0  0  0  0
  148.3545  135.3203  159.6343 N   0  0  0  0  0  0  0  0  0  0  0  0
  147.5053  135.0090  160.7340 C   0  0  0  0  0  0  0  0  0  0  0  0
  146.9303  135.9617  161.6113 C   0  0  0  0  0  0  0  0  0  0  0  0
  146.1093  135.5044  162.6617 C   0  0  0  0  0  0  0  0  0  0  0  0
  145.8368  134.2011  162.8812 N   0  0  0  0  0  0  0  0  0  0  0  0
  146.3845  133.2956  162.0438 C   0  0  0  0  0  0  0  0  0  0  0  0
  147.2196  133.6462  160.9640 C   0  0  0  0  0  0  0  0  0  0  0  0
  147.7381  132.6845  160.1622 F   0  0  0  0  0  0  0  0  0  0  0  0
  151.6438  137.8400  158.5341 C   0  0  0  0  0  0  0  0  0  0  0  0
  152.4136  139.0427  157.9517 C   0  0  0  0  0  0  0  0  0  0  0  0
  150.1618  142.1870  158.5451 C   0  0  0  0  0  0  0  0  0  0  0  0
  150.9530  143.2991  157.8312 C   0  0  0  0  0  0  0  0  0  0  0  0
  153.2941  144.5530  157.0736 H   0  0  0  0  0  0  0  0  0  0  0  0
  153.6508  145.2026  158.6788 H   0  0  0  0  0  0  0  0  0  0  0  0
  152.1851  145.6987  157.8373 H   0  0  0  0  0  0  0  0  0  0  0  0
  153.4885  142.2131  158.1153 H   0  0  0  0  0  0  0  0  0  0  0  0
  153.7981  142.9687  159.6649 H   0  0  0  0  0  0  0  0  0  0  0  0
  152.8972  140.6968  160.0448 H   0  0  0  0  0  0  0  0  0  0  0  0
  151.8196  141.8923  160.6594 H   0  0  0  0  0  0  0  0  0  0  0  0
  150.4528  140.2826  159.4799 H   0  0  0  0  0  0  0  0  0  0  0  0
  149.8320  140.6009  156.3743 H   0  0  0  0  0  0  0  0  0  0  0  0
  150.9492  139.4334  155.7847 H   0  0  0  0  0  0  0  0  0  0  0  0
  149.0640  138.9470  158.1442 H   0  0  0  0  0  0  0  0  0  0  0  0
  148.8562  138.3258  156.5258 H   0  0  0  0  0  0  0  0  0  0  0  0
  150.9287  137.0358  156.6658 H   0  0  0  0  0  0  0  0  0  0  0  0
  149.7266  135.4394  157.7555 H   0  0  0  0  0  0  0  0  0  0  0  0
  148.5411  134.5440  159.0164 H   0  0  0  0  0  0  0  0  0  0  0  0
  147.0932  137.0226  161.5123 H   0  0  0  0  0  0  0  0  0  0  0  0
  145.6591  136.2082  163.3461 H   0  0  0  0  0  0  0  0  0  0  0  0
  146.1513  132.2598  162.2406 H   0  0  0  0  0  0  0  0  0  0  0  0
  151.2512  138.0856  159.5211 H   0  0  0  0  0  0  0  0  0  0  0  0
  152.3350  137.0099  158.6847 H   0  0  0  0  0  0  0  0  0  0  0  0
  152.8856  138.7371  157.0166 H   0  0  0  0  0  0  0  0  0  0  0  0
  153.2399  139.3160  158.6034 H   0  0  0  0  0  0  0  0  0  0  0  0
  149.2697  141.9171  157.9823 H   0  0  0  0  0  0  0  0  0  0  0  0
  149.7739  142.5914  159.4815 H   0  0  0  0  0  0  0  0  0  0  0  0
  150.2982  144.1527  157.6512 H   0  0  0  0  0  0  0  0  0  0  0  0
  151.2981  142.9549  156.8551 H   0  0  0  0  0  0  0  0  0  0  0  0
  152.0853  140.8576  157.1422 H   0  0  0  0  0  0  0  0  0  0  0  0
  151.7363  144.0928  159.5137 H   0  0  0  0  0  0  0  0  0  0  0  0
  1  2  1  0  0  0  0
  1 25  1  0  0  0  0
  1 26  1  0  0  0  0
  1 27  1  0  0  0  0
  2 24  1  0  0  0  0
  2  3  1  0  0  0  0
  2 52  1  0  0  0  0
  3  4  1  0  0  0  0
  3 28  1  0  0  0  0
  3 29  1  0  0  0  0
  4  5  1  0  0  0  0
  4 30  1  0  0  0  0
  4 31  1  0  0  0  0
  5  6  1  0  0  0  0
  5 23  1  0  0  0  0
  5 32  1  0  0  0  0
  6 22  1  0  0  0  0
  6  7  1  0  0  0  0
  6 51  1  0  0  0  0
  7  8  1  0  0  0  0
  7 33  1  0  0  0  0
  7 34  1  0  0  0  0
  8  9  1  0  0  0  0
  8 35  1  0  0  0  0
  8 36  1  0  0  0  0
  9 10  1  0  0  0  0
  9 21  1  0  0  0  0
  9 37  1  0  0  0  0
 10 11  1  0  0  0  0
 10 38  1  0  0  0  0
 11 12  2  0  0  0  0
 11 13  1  0  0  0  0
 13 14  1  0  0  0  0
 13 39  1  0  0  0  0
 14 19  1  0  0  0  0
 14 15  2  0  0  0  0
 15 16  1  0  0  0  0
 15 40  1  0  0  0  0
 16 17  2  0  0  0  0
 16 41  1  0  0  0  0
 17 18  1  0  0  0  0
 18 19  2  0  0  0  0
 18 42  1  0  0  0  0
 19 20  1  0  0  0  0
 21 22  1  0  0  0  0
 21 43  1  0  0  0  0
 21 44  1  0  0  0  0
 22 45  1  0  0  0  0
 22 46  1  0  0  0  0
 23 24  1  0  0  0  0
 23 47  1  0  0  0  0
 23 48  1  0  0  0  0
 24 49  1  0  0  0  0
 24 50  1  0  0  0  0
M  CHG  1   2   1
M  CHG  1   6   1
M  END
> <s_m_source_file>
AV-unprocessed.smi

> <i_m_source_file_index>
2253

> <i_lp_mmshare_version>
43012

> <i_f3d_flags>
0

> <s_epik_input>
W0NIM11OMVtDSDJdW0NIMl1bQ0hdKFtDSDJdW0NIMl0xKU4yW0NIMl1bQ0gyXVtDSF0oW0NIMl1bQ0gyXTIpW05IXUMoPU8pW05IXWMzW2NIXVtjSF1uW2NIXWMzRg==

> <s_epik_cmdline>
J2VwaWtfcHl0aG9uJywgJy1waCcsICc3LjAnLCAnLXRuJywgJzgnLCAnLW1hJywgJzIwMCcsICctbWV0YWxfYmluZGluZycsICctaW1hZScsICc8aW5maWxlLm1hZT4nLCAnLW9tYWUnLCAnPG91dGZpbGUubWFlPic=

> <r_epik_Ionization_Penalty>
0.183544

> <r_epik_Ionization_Penalty_Charging>
0.180787

> <r_epik_Ionization_Penalty_Neutral>
0.00275649

> <r_epik_State_Penalty>
0.153592

> <r_epik_Charging_Adjusted_Penalty>
0.334379

> <i_epik_Tot_Q>
2

> <i_epik_Tot_abs_Q>
2

> <r_epik_Metal_State_Penalty>
0.153693

> <b_epik_Metal_Only>
0

> <s_lp_Force_Field>
OPLS_2005

> <r_lp_Energy>
53.0851

> <b_lp_Chiralities_Consistent>
1

> <s_lp_Variant>
AV-unprocessed.smi:2253-4

> <Gold.Version>
5.8.1

> <Gold.Id.Protein>
6NUR|6NUR_protein|mol2

> <Gold.PLP.Fitness>
39.0623

> <Gold.PLP.PLP>
-38.0977

> <Gold.PLP.part.hbond>
-2.9367

> <Gold.PLP.part.metal>
0.0000

> <Gold.PLP.part.buried>
-6.6383

> <Gold.PLP.part.nonpolar>
-29.8165

> <Gold.PLP.part.repulsive>
0.3216

> <Gold.PLP.ligand.clash>
0.0000

> <Gold.PLP.ligand.torsion>
0.0704

> <Gold.PLP.Chemscore.Hbond>
0.3520

> <Gold.PLP.Chemscore.CHOScore>
0.0000

> <Gold.PLP.Chemscore.Metal>
0.0000

> <Gold.Chemscore.Hbonds>
donor molecule, donor type, donor heavy atom, donor atom, acceptor molecule, acceptor atom, score
      P1  H  6931  6943       L1    12  0.29

> <Gold.PLP.Chemscore.Internal.Correction>
0.0494

> <Gold.Rescore>
     Score         DG    S(hbond)    S(metal)    S(lipo)     H(rot)  DE(clash)    DE(int)     intcor
     13.92     -16.26       0.38        0.00     108.81       1.26       0.04       2.30       ----

> <Gold.Chemscore.Fitness>
13.9247

> <Gold.Chemscore.DG>
-16.2596

> <Gold.Chemscore.ZeroCoef>
-5.4800

> <Gold.Chemscore.Hbond>
0.3784

> <Gold.Chemscore.Metal>
0.0000

> <Gold.Chemscore.Lipo>
108.8123

> <Gold.Chemscore.Internal_Hbond>
0.0000

> <Gold.Chemscore.DEClash>
0.0361

> <Gold.Chemscore.DEInternal>
2.2989

> <Gold.Chemscore.Rot>
1.2559

> <Gold.Chemscore.Internal.Correction>
   9.000000E+99

> <Gold.Chemscore.Hbonds>
donor molecule, donor type, donor heavy atom, donor atom, acceptor molecule, acceptor atom, score
      P1  H  6931  6943       L1    12  0.29
      P1  H  6934  6947       L1    12  0.03

> <Gold.Chemscore.Hbond.Weighted>
-1.2637

> <Gold.Chemscore.Metal.Weighted>
-0.0000

> <Gold.Chemscore.Lipo.Weighted>
-12.7310

> <Gold.Chemscore.Internal_Hbond.Weighted>
0.0000

> <Gold.Chemscore.DEClash.Weighted>
0.0361

> <Gold.Chemscore.DEInternal.Weighted>
2.2989

> <Gold.Chemscore.Rot.Weighted>
3.2151

> <Gold.Chemscore.Internal.Correction.Weighted>
   9.000000E+99

> <Gold.Protein.RotatedTorsions>
[ 6907 6896 6895 6894 ] final   98.54 input  -60.11 | X-H torsion
[ 7974 7965 7964 7962 ] final -113.91 input  175.53 | X-H torsion
[ 8008 7997 7996 7995 ] final   11.41 input   59.86 | X-H torsion
[ 10167 10162 10161 10158 ] final   70.96 input  -65.29 | X-H torsion
[ 10718 10713 10712 10709 ] final -169.22 input   66.30 | X-H torsion
[ 10763 10752 10751 10750 ] final  163.14 input  -60.55 | X-H torsion
[ 11005 11000 10999 10996 ] final  -16.65 input  -57.11 | X-H torsion

> <Gold.Protein.ActiveResidues>
 VAL166  LYS551  ARG553  GLY616  TRP617  ASP618  TYR619  PRO620  LYS621  CYS622 
 ASP623  PHE694  ASN695  SER759  ASP760  ASP761  ALA762  ILE779  LEU786  VAL792 
 PHE793  MET794  SER795  GLU796  ALA797  LYS798  CYS799  TRP800  GLU811  SER814 

> <Gold.Protein.RotatedAtoms>
  152.5407  134.0565  159.8133 H   0  0  0  0  0  0  0  0  0  0  0  0  # atno 6907 bound_to 6896
  151.0699  133.5467  159.2635 H   0  0  0  0  0  0  0  0  0  0  0  0  # atno 6908 bound_to 6896
  151.2334  135.0571  159.9050 H   0  0  0  0  0  0  0  0  0  0  0  0  # atno 6909 bound_to 6896
  145.1264  140.8699  143.3784 H   0  0  0  0  0  0  0  0  0  0  0  0  # atno 7974 bound_to 7965
  154.8065  140.2861  155.5884 H   0  0  0  0  0  0  0  0  0  0  0  0  # atno 8008 bound_to 7997
  156.2983  140.2576  156.2874 H   0  0  0  0  0  0  0  0  0  0  0  0  # atno 8009 bound_to 7997
  154.9497  140.0379  157.2127 H   0  0  0  0  0  0  0  0  0  0  0  0  # atno 8010 bound_to 7997
  140.0512  144.5310  150.7361 H   0  0  0  0  0  0  0  0  0  0  0  0  # atno 10167 bound_to 10162
  156.7083  130.9223  151.3087 H   0  0  0  0  0  0  0  0  0  0  0  0  # atno 10718 bound_to 10713
  154.2892  135.2761  155.2662 H   0  0  0  0  0  0  0  0  0  0  0  0  # atno 10763 bound_to 10752
  154.5149  135.5772  153.6637 H   0  0  0  0  0  0  0  0  0  0  0  0  # atno 10764 bound_to 10752
  152.9917  135.6190  154.3055 H   0  0  0  0  0  0  0  0  0  0  0  0  # atno 10765 bound_to 10752
  140.8089  133.8156  155.9543 H   0  0  0  0  0  0  0  0  0  0  0  0  # atno 11005 bound_to 11000
  145.0684  139.3051  143.5845 LP  0  0  0  0  0  0  0  0  0  0  0  0  # atno 17320 bound_to 7965
  146.3517  140.0149  142.8663 LP  0  0  0  0  0  0  0  0  0  0  0  0  # atno 17321 bound_to 7965
  140.7215  143.2594  151.4261 LP  0  0  0  0  0  0  0  0  0  0  0  0  # atno 17342 bound_to 10162
  139.5952  144.1414  152.2135 LP  0  0  0  0  0  0  0  0  0  0  0  0  # atno 17343 bound_to 10162
  157.6946  130.9268  150.0608 LP  0  0  0  0  0  0  0  0  0  0  0  0  # atno 17370 bound_to 10713
  156.1679  130.3645  149.9206 LP  0  0  0  0  0  0  0  0  0  0  0  0  # atno 17371 bound_to 10713
  140.9218  134.2132  157.4921 LP  0  0  0  0  0  0  0  0  0  0  0  0  # atno 17394 bound_to 11000
  139.8715  134.9795  156.5041 LP  0  0  0  0  0  0  0  0  0  0  0  0  # atno 17395 bound_to 11000

$$$$
