AV-unprocessed.smi:1952|AV-procd|sdf|7887|dock10
  -GOLD-   2272010 43D 1   1.00000     0.00000
 Structure written by MMmdl.
 38 39  0  0  0  0  0  0  0  0  2 V2000
  145.9033  134.9691  162.6709 C   0  0  0  0  0  0  0  0  0  0  0  0
  146.8000  135.6659  161.7054 C   0  0  0  0  0  0  0  0  0  0  0  0
  147.6746  135.2124  160.7592 C   0  0  0  0  0  0  0  0  0  0  0  0
  148.2037  136.4099  160.2046 C   0  0  0  0  0  0  0  0  0  0  0  0
  149.1078  136.4892  159.2163 N   0  5  0  0  0  0  0  0  0  0  0  0
  148.7625  136.1607  157.9498 C   0  0  0  0  0  0  0  0  0  0  0  0
  147.6683  136.3592  157.4166 O   0  0  0  0  0  0  0  0  0  0  0  0
  149.7471  135.5678  157.2588 N   0  0  0  0  0  0  0  0  0  0  0  0
  149.6824  135.1251  155.8666 C   0  0  2  0  0  0  0  0  0  0  0  0
  149.9666  133.6180  155.7819 C   0  0  0  0  0  0  0  0  0  0  0  0
  150.6802  135.9323  155.0103 C   0  0  0  0  0  0  0  0  0  0  0  0
  150.6962  137.3772  155.2466 N   0  0  0  0  0  0  0  0  0  0  0  0
  149.6301  138.0811  154.5377 C   0  0  0  0  0  0  0  0  0  0  0  0
  149.6810  139.5986  154.7874 C   0  0  0  0  0  0  0  0  0  0  0  0
  150.9605  140.1038  154.4189 O   0  0  0  0  0  0  0  0  0  0  0  0
  152.0223  139.4733  155.1275 C   0  0  0  0  0  0  0  0  0  0  0  0
  151.9811  137.9571  154.8724 C   0  0  0  0  0  0  0  0  0  0  0  0
  147.6825  137.4943  160.7536 N   0  0  0  0  0  0  0  0  0  0  0  0
  146.7868  137.0259  161.7224 O   0  0  0  0  0  0  0  0  0  0  0  0
  145.2148  134.3059  162.1471 H   0  0  0  0  0  0  0  0  0  0  0  0
  145.3127  135.6825  163.2462 H   0  0  0  0  0  0  0  0  0  0  0  0
  146.4840  134.3690  163.3715 H   0  0  0  0  0  0  0  0  0  0  0  0
  147.9049  134.1885  160.5069 H   0  0  0  0  0  0  0  0  0  0  0  0
  150.6261  135.4306  157.7356 H   0  0  0  0  0  0  0  0  0  0  0  0
  148.6777  135.2900  155.4761 H   0  0  0  0  0  0  0  0  0  0  0  0
  149.9164  133.2681  154.7506 H   0  0  0  0  0  0  0  0  0  0  0  0
  149.2379  133.0466  156.3582 H   0  0  0  0  0  0  0  0  0  0  0  0
  150.9578  133.3779  156.1679 H   0  0  0  0  0  0  0  0  0  0  0  0
  151.6786  135.5374  155.2037 H   0  0  0  0  0  0  0  0  0  0  0  0
  150.4849  135.7392  153.9544 H   0  0  0  0  0  0  0  0  0  0  0  0
  149.7061  137.8866  153.4668 H   0  0  0  0  0  0  0  0  0  0  0  0
  148.6554  137.7127  154.8563 H   0  0  0  0  0  0  0  0  0  0  0  0
  148.9142  140.1054  154.2015 H   0  0  0  0  0  0  0  0  0  0  0  0
  149.4828  139.8223  155.8368 H   0  0  0  0  0  0  0  0  0  0  0  0
  152.9725  139.8890  154.7920 H   0  0  0  0  0  0  0  0  0  0  0  0
  151.9362  139.6884  156.1939 H   0  0  0  0  0  0  0  0  0  0  0  0
  152.7821  137.4760  155.4346 H   0  0  0  0  0  0  0  0  0  0  0  0
  152.1808  137.7642  153.8171 H   0  0  0  0  0  0  0  0  0  0  0  0
  1  2  1  0  0  0  0
  1 20  1  0  0  0  0
  1 21  1  0  0  0  0
  1 22  1  0  0  0  0
  2 19  1  0  0  0  0
  2  3  2  0  0  0  0
  3  4  1  0  0  0  0
  3 23  1  0  0  0  0
  4  5  1  0  0  0  0
  4 18  2  0  0  0  0
  5  6  1  0  0  0  0
  6  7  2  0  0  0  0
  6  8  1  0  0  0  0
  8  9  1  0  0  0  0
  8 24  1  0  0  0  0
  9 10  1  0  0  0  0
  9 11  1  0  0  0  0
  9 25  1  0  0  0  0
 10 26  1  0  0  0  0
 10 27  1  0  0  0  0
 10 28  1  0  0  0  0
 11 12  1  0  0  0  0
 11 29  1  0  0  0  0
 11 30  1  0  0  0  0
 12 17  1  0  0  0  0
 12 13  1  0  0  0  0
 13 14  1  0  0  0  0
 13 31  1  0  0  0  0
 13 32  1  0  0  0  0
 14 15  1  0  0  0  0
 14 33  1  0  0  0  0
 14 34  1  0  0  0  0
 15 16  1  0  0  0  0
 16 17  1  0  0  0  0
 16 35  1  0  0  0  0
 16 36  1  0  0  0  0
 17 37  1  0  0  0  0
 17 38  1  0  0  0  0
 18 19  1  0  0  0  0
M  CHG  1   5  -1
M  END
> <s_m_source_file>
AV-unprocessed.smi

> <i_m_source_file_index>
1952

> <i_lp_mmshare_version>
43012

> <i_f3d_flags>
0

> <s_epik_input>
W0NIM11jMVtjSF1jKG5vMSlbTkhdQyg9TylbTkhdW0NASF0oW0NIM10pW0NIMl1OMltDSDJdW0NIMl1PW0NIMl1bQ0gyXTI=

> <s_epik_cmdline>
J2VwaWtfcHl0aG9uJywgJy1waCcsICc3LjAnLCAnLXRuJywgJzgnLCAnLW1hJywgJzIwMCcsICctbWV0YWxfYmluZGluZycsICctaW1hZScsICc8aW5maWxlLm1hZT4nLCAnLW9tYWUnLCAnPG91dGZpbGUubWFlPic=

> <r_epik_Ionization_Penalty>
6.81701

> <r_epik_Ionization_Penalty_Charging>
6.50532

> <r_epik_Ionization_Penalty_Neutral>
0.311686

> <r_epik_State_Penalty>
6.70952

> <r_epik_Charging_Adjusted_Penalty>
13.2148

> <i_epik_Tot_Q>
-1

> <i_epik_Tot_abs_Q>
1

> <r_epik_Metal_State_Penalty>
2.64135

> <b_epik_Metal_Only>
1

> <s_lp_Force_Field>
OPLS_2005

> <r_lp_Energy>
18.9741

> <b_lp_Chiralities_Consistent>
1

> <s_lp_Variant>
AV-unprocessed.smi:1952-5

> <Gold.Version>
5.8.1

> <Gold.Id.Protein>
6NUR|6NUR_protein|mol2

> <Gold.PLP.Fitness>
40.8624

> <Gold.PLP.PLP>
-29.9130

> <Gold.PLP.part.hbond>
-3.9649

> <Gold.PLP.part.metal>
0.0000

> <Gold.PLP.part.buried>
-4.7944

> <Gold.PLP.part.nonpolar>
-23.2390

> <Gold.PLP.part.repulsive>
0.2655

> <Gold.PLP.ligand.clash>
0.0000

> <Gold.PLP.ligand.torsion>
1.2822

> <Gold.PLP.Chemscore.Hbond>
4.4860

> <Gold.PLP.Chemscore.CHOScore>
0.0000

> <Gold.PLP.Chemscore.Metal>
0.0000

> <Gold.Chemscore.Hbonds>
donor molecule, donor type, donor heavy atom, donor atom, acceptor molecule, acceptor atom, score
      P1  H  6896  6908       L1     5  0.06
      P1  H  6931  6943       L1    18  0.67
      P1  H  6934  6947       L1    18  0.57
      P1  H  7989  7998       L1    15  0.60

> <Gold.PLP.Chemscore.Internal.Correction>
0.0559

> <Gold.Rescore>
     Score         DG    S(hbond)    S(metal)    S(lipo)     H(rot)  DE(clash)    DE(int)     intcor
     15.10     -16.49       2.48        0.00      56.86       1.53       0.00       1.40       ----

> <Gold.Chemscore.Fitness>
15.0970

> <Gold.Chemscore.DG>
-16.4926

> <Gold.Chemscore.ZeroCoef>
-5.4800

> <Gold.Chemscore.Hbond>
2.4795

> <Gold.Chemscore.Metal>
0.0000

> <Gold.Chemscore.Lipo>
56.8554

> <Gold.Chemscore.Internal_Hbond>
0.0000

> <Gold.Chemscore.DEClash>
0.0000

> <Gold.Chemscore.DEInternal>
1.3956

> <Gold.Chemscore.Rot>
1.5317

> <Gold.Chemscore.Internal.Correction>
   9.000000E+99

> <Gold.Chemscore.Hbonds>
donor molecule, donor type, donor heavy atom, donor atom, acceptor molecule, acceptor atom, score
      P1  H  6896  6908       L1     5  0.02
      P1  H  6931  6943       L1    18  0.11
      P1  H  6934  6947       L1    18  0.05
      P1  H  7989  7998       L1    15  0.24

> <Gold.Chemscore.Hbond.Weighted>
-8.2817

> <Gold.Chemscore.Metal.Weighted>
-0.0000

> <Gold.Chemscore.Lipo.Weighted>
-6.6521

> <Gold.Chemscore.Internal_Hbond.Weighted>
0.0000

> <Gold.Chemscore.DEClash.Weighted>
0.0000

> <Gold.Chemscore.DEInternal.Weighted>
1.3956

> <Gold.Chemscore.Rot.Weighted>
3.9211

> <Gold.Chemscore.Internal.Correction.Weighted>
   9.000000E+99

> <Gold.Protein.RotatedTorsions>
[ 6907 6896 6895 6894 ] final -174.87 input  -60.11 | X-H torsion
[ 7974 7965 7964 7962 ] final  -31.18 input  175.53 | X-H torsion
[ 8008 7997 7996 7995 ] final  179.35 input   59.86 | X-H torsion
[ 10167 10162 10161 10158 ] final   38.61 input  -65.29 | X-H torsion
[ 10718 10713 10712 10709 ] final  -89.21 input   66.30 | X-H torsion
[ 10763 10752 10751 10750 ] final  -57.96 input  -60.55 | X-H torsion
[ 11005 11000 10999 10996 ] final -130.27 input  -57.11 | X-H torsion

> <Gold.Protein.ActiveResidues>
 VAL166  LYS551  ARG553  GLY616  TRP617  ASP618  TYR619  PRO620  LYS621  CYS622 
 ASP623  PHE694  ASN695  SER759  ASP760  ASP761  ALA762  ILE779  LEU786  VAL792 
 PHE793  MET794  SER795  GLU796  ALA797  LYS798  CYS799  TRP800  GLU811  SER814 

> <Gold.Protein.RotatedAtoms>
  151.5793  133.3380  159.3004 H   0  0  0  0  0  0  0  0  0  0  0  0  # atno 6907 bound_to 6896
  150.8322  134.7583  159.6874 H   0  0  0  0  0  0  0  0  0  0  0  0  # atno 6908 bound_to 6896
  152.4404  134.5608  159.9945 H   0  0  0  0  0  0  0  0  0  0  0  0  # atno 6909 bound_to 6896
  146.1087  140.5634  142.8788 H   0  0  0  0  0  0  0  0  0  0  0  0  # atno 7974 bound_to 7965
  156.0444  140.1311  157.0120 H   0  0  0  0  0  0  0  0  0  0  0  0  # atno 8008 bound_to 7997
  154.4405  140.1023  156.6355 H   0  0  0  0  0  0  0  0  0  0  0  0  # atno 8009 bound_to 7997
  155.5618  140.3465  155.4495 H   0  0  0  0  0  0  0  0  0  0  0  0  # atno 8010 bound_to 7997
  140.3920  144.1840  150.6131 H   0  0  0  0  0  0  0  0  0  0  0  0  # atno 10167 bound_to 10162
  155.9984  130.4864  150.5136 H   0  0  0  0  0  0  0  0  0  0  0  0  # atno 10718 bound_to 10713
  154.2307  135.6361  153.5174 H   0  0  0  0  0  0  0  0  0  0  0  0  # atno 10763 bound_to 10752
  152.9949  135.5518  154.6016 H   0  0  0  0  0  0  0  0  0  0  0  0  # atno 10764 bound_to 10752
  154.5498  135.2901  155.0993 H   0  0  0  0  0  0  0  0  0  0  0  0  # atno 10765 bound_to 10752
  140.9360  134.1256  157.4193 H   0  0  0  0  0  0  0  0  0  0  0  0  # atno 11005 bound_to 11000
  144.7493  140.5149  143.6813 LP  0  0  0  0  0  0  0  0  0  0  0  0  # atno 17320 bound_to 7965
  145.5708  139.1483  143.3289 LP  0  0  0  0  0  0  0  0  0  0  0  0  # atno 17321 bound_to 7965
  140.4830  143.2373  151.8928 LP  0  0  0  0  0  0  0  0  0  0  0  0  # atno 17342 bound_to 10162
  139.4788  144.5249  151.8749 LP  0  0  0  0  0  0  0  0  0  0  0  0  # atno 17343 bound_to 10162
  157.3106  131.0663  151.2003 LP  0  0  0  0  0  0  0  0  0  0  0  0  # atno 17370 bound_to 10713
  157.2951  130.6815  149.6134 LP  0  0  0  0  0  0  0  0  0  0  0  0  # atno 17371 bound_to 10713
  139.8808  135.0021  156.6106 LP  0  0  0  0  0  0  0  0  0  0  0  0  # atno 17394 bound_to 11000
  140.7799  133.8669  155.8559 LP  0  0  0  0  0  0  0  0  0  0  0  0  # atno 17395 bound_to 11000

$$$$
