AV-unprocessed.smi:1308|AV-procd|sdf|5440|dock2
  -GOLD-   22720 5 03D 1   1.00000     0.00000
 Structure written by MMmdl.
 45 45  0  0  0  0  0  0  0  0  1 V2000
  144.6868  136.9569  155.3483 C   0  0  0  0  0  0  0  0  0  0  0  0
  145.7025  138.0505  155.0992 C   0  0  0  0  0  0  0  0  0  0  0  0
  145.2477  139.3169  155.4277 N   0  0  0  0  0  0  0  0  0  0  0  0
  146.1047  140.3846  155.2270 C   0  0  0  0  0  0  0  0  0  0  0  0
  145.5299  141.7365  155.6120 C   0  0  0  0  0  0  0  0  0  0  0  0
  147.3530  140.1988  154.7278 C   0  0  0  0  0  0  0  0  0  0  0  0
  148.3341  141.3475  154.4960 C   0  0  0  0  0  0  0  0  0  0  0  0
  149.6766  141.2507  155.2256 C   0  0  0  0  0  0  0  0  0  0  0  0
  150.5421  140.4617  154.8456 O   0  0  0  0  0  0  0  0  0  0  0  0
  149.8328  142.0767  156.2717 N   0  0  0  0  0  0  0  0  0  0  0  0
  151.0357  142.2051  157.0934 C   0  0  2  0  0  0  0  0  0  0  0  0
  151.4413  140.8209  157.6181 C   0  0  0  0  0  0  0  0  0  0  0  0
  150.7964  143.2030  158.2431 C   0  0  0  0  0  0  0  0  0  0  0  0
  151.8821  143.1601  159.3364 C   0  0  0  0  0  0  0  0  0  0  0  0
  151.6533  144.1547  160.4927 C   0  0  0  0  0  0  0  0  0  0  0  0
  151.6988  145.6195  160.0258 C   0  0  0  0  0  0  0  0  0  0  0  0
  152.6728  143.9198  161.6177 C   0  0  0  0  0  0  0  0  0  0  0  0
  147.7876  138.8189  154.4071 C   0  0  0  0  0  0  0  0  0  0  0  0
  148.9142  138.5844  153.9717 O   0  0  0  0  0  0  0  0  0  0  0  0
  146.8764  137.7715  154.6196 N   0  0  0  0  0  0  0  0  0  0  0  0
  144.3281  139.4991  155.8028 H   0  0  0  0  0  0  0  0  0  0  0  0
  145.1149  135.9743  155.1466 H   0  0  0  0  0  0  0  0  0  0  0  0
  143.8193  137.0904  154.7013 H   0  0  0  0  0  0  0  0  0  0  0  0
  144.3530  136.9761  156.3862 H   0  0  0  0  0  0  0  0  0  0  0  0
  146.1595  142.2182  156.3603 H   0  0  0  0  0  0  0  0  0  0  0  0
  144.5263  141.6430  156.0288 H   0  0  0  0  0  0  0  0  0  0  0  0
  145.4700  142.3874  154.7396 H   0  0  0  0  0  0  0  0  0  0  0  0
  147.8589  142.2807  154.7982 H   0  0  0  0  0  0  0  0  0  0  0  0
  148.5254  141.4668  153.4288 H   0  0  0  0  0  0  0  0  0  0  0  0
  149.0613  142.6848  156.5056 H   0  0  0  0  0  0  0  0  0  0  0  0
  151.8657  142.5812  156.4925 H   0  0  0  0  0  0  0  0  0  0  0  0
  152.3509  140.8798  158.2165 H   0  0  0  0  0  0  0  0  0  0  0  0
  151.6333  140.1299  156.7966 H   0  0  0  0  0  0  0  0  0  0  0  0
  150.6596  140.3875  158.2430 H   0  0  0  0  0  0  0  0  0  0  0  0
  150.7236  144.2102  157.8318 H   0  0  0  0  0  0  0  0  0  0  0  0
  149.8284  142.9900  158.6985 H   0  0  0  0  0  0  0  0  0  0  0  0
  151.9161  142.1488  159.7440 H   0  0  0  0  0  0  0  0  0  0  0  0
  152.8639  143.3388  158.8964 H   0  0  0  0  0  0  0  0  0  0  0  0
  150.6635  143.9672  160.9106 H   0  0  0  0  0  0  0  0  0  0  0  0
  152.6484  145.8524  159.5434 H   0  0  0  0  0  0  0  0  0  0  0  0
  151.5778  146.3025  160.8671 H   0  0  0  0  0  0  0  0  0  0  0  0
  150.9004  145.8414  159.3181 H   0  0  0  0  0  0  0  0  0  0  0  0
  153.6928  144.0837  161.2682 H   0  0  0  0  0  0  0  0  0  0  0  0
  152.6119  142.8999  161.9987 H   0  0  0  0  0  0  0  0  0  0  0  0
  152.4962  144.5927  162.4573 H   0  0  0  0  0  0  0  0  0  0  0  0
  1 22  1  0  0  0  0
  1 23  1  0  0  0  0
  1 24  1  0  0  0  0
  1  2  1  0  0  0  0
  2  3  1  0  0  0  0
  2 20  2  0  0  0  0
  3  4  1  0  0  0  0
  3 21  1  0  0  0  0
  4  6  2  0  0  0  0
  4  5  1  0  0  0  0
  5 25  1  0  0  0  0
  5 26  1  0  0  0  0
  5 27  1  0  0  0  0
  6 18  1  0  0  0  0
  6  7  1  0  0  0  0
  7  8  1  0  0  0  0
  7 28  1  0  0  0  0
  7 29  1  0  0  0  0
  8  9  2  0  0  0  0
  8 10  1  0  0  0  0
 10 11  1  0  0  0  0
 10 30  1  0  0  0  0
 11 12  1  0  0  0  0
 11 13  1  0  0  0  0
 11 31  1  0  0  0  0
 12 32  1  0  0  0  0
 12 33  1  0  0  0  0
 12 34  1  0  0  0  0
 13 14  1  0  0  0  0
 13 35  1  0  0  0  0
 13 36  1  0  0  0  0
 14 15  1  0  0  0  0
 14 37  1  0  0  0  0
 14 38  1  0  0  0  0
 15 16  1  0  0  0  0
 15 17  1  0  0  0  0
 15 39  1  0  0  0  0
 16 40  1  0  0  0  0
 16 41  1  0  0  0  0
 16 42  1  0  0  0  0
 17 43  1  0  0  0  0
 17 44  1  0  0  0  0
 17 45  1  0  0  0  0
 18 19  2  0  0  0  0
 18 20  1  0  0  0  0
M  END
> <s_m_source_file>
AV-unprocessed.smi

> <i_m_source_file_index>
1308

> <i_lp_mmshare_version>
43012

> <i_f3d_flags>
0

> <s_epik_input>
W0NIM11jMW5jKFtDSDNdKWMoYyg9TylbbkhdMSlbQ0gyXUMoPU8pW05IXVtDQEhdKFtDSDNdKVtDSDJdW0NIMl1bQ0hdKFtDSDNdKVtDSDNd

> <s_epik_cmdline>
J2VwaWtfcHl0aG9uJywgJy1waCcsICc3LjAnLCAnLXRuJywgJzgnLCAnLW1hJywgJzIwMCcsICctbWV0YWxfYmluZGluZycsICctaW1hZScsICc8aW5maWxlLm1hZT4nLCAnLW9tYWUnLCAnPG91dGZpbGUubWFlPic=

> <r_lp_tautomer_probability>
0.156392

> <r_epik_Ionization_Penalty>
0.0141156

> <r_epik_Ionization_Penalty_Charging>
0.0139937

> <r_epik_Ionization_Penalty_Neutral>
0.00012188

> <r_epik_State_Penalty>
1.52994

> <r_epik_Charging_Adjusted_Penalty>
1.54393

> <i_epik_Tot_Q>
0

> <i_epik_Tot_abs_Q>
0

> <r_epik_Metal_State_Penalty>
1.70663

> <b_epik_Metal_Only>
0

> <s_lp_Force_Field>
OPLS_2005

> <r_lp_Energy>
10.8122

> <b_lp_Chiralities_Consistent>
1

> <s_lp_Variant>
AV-unprocessed.smi:1308-3

> <Gold.Version>
5.8.1

> <Gold.Id.Protein>
6NUR|6NUR_protein|mol2

> <Gold.PLP.Fitness>
42.0241

> <Gold.PLP.PLP>
-37.4356

> <Gold.PLP.part.hbond>
-3.0000

> <Gold.PLP.part.metal>
0.0000

> <Gold.PLP.part.buried>
-5.5803

> <Gold.PLP.part.nonpolar>
-29.0167

> <Gold.PLP.part.repulsive>
0.8086

> <Gold.PLP.ligand.clash>
0.0000

> <Gold.PLP.ligand.torsion>
0.3138

> <Gold.PLP.Chemscore.Hbond>
1.7200

> <Gold.PLP.Chemscore.CHOScore>
0.0000

> <Gold.PLP.Chemscore.Metal>
0.0000

> <Gold.Chemscore.Hbonds>
donor molecule, donor type, donor heavy atom, donor atom, acceptor molecule, acceptor atom, score
      L1  H    10    30       P1  8028  0.25
      P1  H  7989  7998       L1     9  1.00

> <Gold.PLP.Chemscore.Internal.Correction>
0.0561

> <Gold.Rescore>
     Score         DG    S(hbond)    S(metal)    S(lipo)     H(rot)  DE(clash)    DE(int)     intcor
     13.14     -16.30       1.59        0.00      90.45       1.98       0.13       3.03       ----

> <Gold.Chemscore.Fitness>
13.1418

> <Gold.Chemscore.DG>
-16.3020

> <Gold.Chemscore.ZeroCoef>
-5.4800

> <Gold.Chemscore.Hbond>
1.5918

> <Gold.Chemscore.Metal>
0.0000

> <Gold.Chemscore.Lipo>
90.4547

> <Gold.Chemscore.Internal_Hbond>
0.0000

> <Gold.Chemscore.DEClash>
0.1315

> <Gold.Chemscore.DEInternal>
3.0286

> <Gold.Chemscore.Rot>
1.9835

> <Gold.Chemscore.Internal.Correction>
   9.000000E+99

> <Gold.Chemscore.Hbonds>
donor molecule, donor type, donor heavy atom, donor atom, acceptor molecule, acceptor atom, score
      L1  H    10    30       P1  8028  0.25
      P1  H  7989  7998       L1     9  0.94

> <Gold.Chemscore.Hbond.Weighted>
-5.3166

> <Gold.Chemscore.Metal.Weighted>
-0.0000

> <Gold.Chemscore.Lipo.Weighted>
-10.5832

> <Gold.Chemscore.Internal_Hbond.Weighted>
0.0000

> <Gold.Chemscore.DEClash.Weighted>
0.1315

> <Gold.Chemscore.DEInternal.Weighted>
3.0286

> <Gold.Chemscore.Rot.Weighted>
5.0778

> <Gold.Chemscore.Internal.Correction.Weighted>
   9.000000E+99

> <Gold.Protein.RotatedTorsions>
[ 6907 6896 6895 6894 ] final  -13.21 input  -60.11 | X-H torsion
[ 7974 7965 7964 7962 ] final -102.34 input  175.53 | X-H torsion
[ 8008 7997 7996 7995 ] final -157.09 input   59.86 | X-H torsion
[ 10167 10162 10161 10158 ] final  -90.04 input  -65.29 | X-H torsion
[ 10718 10713 10712 10709 ] final -115.58 input   66.30 | X-H torsion
[ 10763 10752 10751 10750 ] final   73.07 input  -60.55 | X-H torsion
[ 11005 11000 10999 10996 ] final  -54.41 input  -57.11 | X-H torsion

> <Gold.Protein.ActiveResidues>
 VAL166  LYS551  ARG553  GLY616  TRP617  ASP618  TYR619  PRO620  LYS621  CYS622 
 ASP623  PHE694  ASN695  SER759  ASP760  ASP761  ALA762  ILE779  LEU786  VAL792 
 PHE793  MET794  SER795  GLU796  ALA797  LYS798  CYS799  TRP800  GLU811  SER814 

> <Gold.Protein.RotatedAtoms>
  151.3585  135.0899  159.9426 H   0  0  0  0  0  0  0  0  0  0  0  0  # atno 6907 bound_to 6896
  152.5168  133.9281  159.7578 H   0  0  0  0  0  0  0  0  0  0  0  0  # atno 6908 bound_to 6896
  150.9671  133.6329  159.2773 H   0  0  0  0  0  0  0  0  0  0  0  0  # atno 6909 bound_to 6896
  145.2700  140.9296  143.2992 H   0  0  0  0  0  0  0  0  0  0  0  0  # atno 7974 bound_to 7965
  155.7272  140.0797  157.2305 H   0  0  0  0  0  0  0  0  0  0  0  0  # atno 8008 bound_to 7997
  154.4037  140.1602  156.2523 H   0  0  0  0  0  0  0  0  0  0  0  0  # atno 8009 bound_to 7997
  155.9142  140.3402  155.6125 H   0  0  0  0  0  0  0  0  0  0  0  0  # atno 8010 bound_to 7997
  140.3589  143.2852  151.9638 H   0  0  0  0  0  0  0  0  0  0  0  0  # atno 10167 bound_to 10162
  156.0905  130.6088  150.8924 H   0  0  0  0  0  0  0  0  0  0  0  0  # atno 10718 bound_to 10713
  153.0498  135.5076  154.7839 H   0  0  0  0  0  0  0  0  0  0  0  0  # atno 10763 bound_to 10752
  154.6710  135.2953  154.9744 H   0  0  0  0  0  0  0  0  0  0  0  0  # atno 10764 bound_to 10752
  154.0562  135.6697  153.4859 H   0  0  0  0  0  0  0  0  0  0  0  0  # atno 10765 bound_to 10752
  141.1024  133.6616  156.4317 H   0  0  0  0  0  0  0  0  0  0  0  0  # atno 11005 bound_to 11000
  144.9343  139.4262  143.6480 LP  0  0  0  0  0  0  0  0  0  0  0  0  # atno 17320 bound_to 7965
  146.3249  139.8271  142.8915 LP  0  0  0  0  0  0  0  0  0  0  0  0  # atno 17321 bound_to 7965
  139.4816  144.6011  151.7604 LP  0  0  0  0  0  0  0  0  0  0  0  0  # atno 17342 bound_to 10162
  140.5147  144.0971  150.6005 LP  0  0  0  0  0  0  0  0  0  0  0  0  # atno 17343 bound_to 10162
  157.6053  131.0939  150.8891 LP  0  0  0  0  0  0  0  0  0  0  0  0  # atno 17370 bound_to 10713
  156.9040  130.5257  149.5282 LP  0  0  0  0  0  0  0  0  0  0  0  0  # atno 17371 bound_to 10713
  140.4987  134.6506  157.5240 LP  0  0  0  0  0  0  0  0  0  0  0  0  # atno 17394 bound_to 11000
  139.9881  134.7029  155.9738 LP  0  0  0  0  0  0  0  0  0  0  0  0  # atno 17395 bound_to 11000

$$$$
