AV-unprocessed.smi:1816|AV-procd|sdf|7364|dock3
  -GOLD-   22720 9 23D 1   1.00000     0.00000
 Structure written by MMmdl.
 36 37  0  0  0  0  0  0  0  0  2 V2000
  145.5737  135.9390  150.3705 C   0  0  0  0  0  0  0  0  0  0  0  0
  144.0969  135.7359  150.7778 C   0  0  2  0  0  0  0  0  0  0  0  0
  143.8412  136.2788  152.2082 C   0  0  0  0  0  0  0  0  0  0  0  0
  144.4218  137.5997  152.4295 N   0  0  0  0  0  0  0  0  0  0  0  0
  145.7016  137.8286  152.7553 C   0  0  0  0  0  0  0  0  0  0  0  0
  146.5312  136.9313  152.9040 O   0  0  0  0  0  0  0  0  0  0  0  0
  145.9413  139.1420  152.8959 N   0  0  0  0  0  0  0  0  0  0  0  0
  147.1626  139.7687  153.2466 C   0  0  0  0  0  0  0  0  0  0  0  0
  147.1800  141.0906  153.4248 N   0  0  0  0  0  0  0  0  0  0  0  0
  148.4526  141.5574  153.7667 C   0  0  0  0  0  0  0  0  0  0  0  0
  149.4004  140.5676  153.8464 C   0  0  0  0  0  0  0  0  0  0  0  0
  148.7315  138.9972  153.4920 S   0  0  0  0  0  0  0  0  0  0  0  0
  143.6971  134.3020  150.6842 N   0  3  0  0  0  0  0  0  0  0  0  0
  144.0751  133.6233  149.4178 C   0  0  0  0  0  0  0  0  0  0  0  0
  144.4969  132.1914  149.7753 C   0  0  0  0  0  0  0  0  0  0  0  0
  144.0758  132.0127  151.2288 C   0  0  0  0  0  0  0  0  0  0  0  0
  144.1612  133.4290  151.7848 C   0  0  0  0  0  0  0  0  0  0  0  0
  145.8715  136.9849  150.4456 H   0  0  0  0  0  0  0  0  0  0  0  0
  145.7572  135.6465  149.3369 H   0  0  0  0  0  0  0  0  0  0  0  0
  146.2431  135.3595  151.0067 H   0  0  0  0  0  0  0  0  0  0  0  0
  143.4780  136.2925  150.0723 H   0  0  0  0  0  0  0  0  0  0  0  0
  142.7750  136.3328  152.4320 H   0  0  0  0  0  0  0  0  0  0  0  0
  144.2708  135.5980  152.9438 H   0  0  0  0  0  0  0  0  0  0  0  0
  143.8064  138.3936  152.3242 H   0  0  0  0  0  0  0  0  0  0  0  0
  145.1634  139.7658  152.7385 H   0  0  0  0  0  0  0  0  0  0  0  0
  148.5951  142.6145  153.9364 H   0  0  0  0  0  0  0  0  0  0  0  0
  150.4475  140.6670  154.0908 H   0  0  0  0  0  0  0  0  0  0  0  0
  143.2203  133.6276  148.7408 H   0  0  0  0  0  0  0  0  0  0  0  0
  144.8988  134.1334  148.9158 H   0  0  0  0  0  0  0  0  0  0  0  0
  144.0502  131.4451  149.1176 H   0  0  0  0  0  0  0  0  0  0  0  0
  145.5808  132.0975  149.6938 H   0  0  0  0  0  0  0  0  0  0  0  0
  143.0459  131.6562  151.2766 H   0  0  0  0  0  0  0  0  0  0  0  0
  144.7040  131.3049  151.7704 H   0  0  0  0  0  0  0  0  0  0  0  0
  145.1978  133.6647  152.0320 H   0  0  0  0  0  0  0  0  0  0  0  0
  143.5575  133.5499  152.6848 H   0  0  0  0  0  0  0  0  0  0  0  0
  142.6883  134.2740  150.7226 H   0  0  0  0  0  0  0  0  0  0  0  0
  1  2  1  0  0  0  0
  1 18  1  0  0  0  0
  1 19  1  0  0  0  0
  1 20  1  0  0  0  0
  2  3  1  0  0  0  0
  2 13  1  0  0  0  0
  2 21  1  0  0  0  0
  3  4  1  0  0  0  0
  3 22  1  0  0  0  0
  3 23  1  0  0  0  0
  4  5  1  0  0  0  0
  4 24  1  0  0  0  0
  5  6  2  0  0  0  0
  5  7  1  0  0  0  0
  7  8  1  0  0  0  0
  7 25  1  0  0  0  0
  8 12  1  0  0  0  0
  8  9  2  0  0  0  0
  9 10  1  0  0  0  0
 10 11  2  0  0  0  0
 10 26  1  0  0  0  0
 11 12  1  0  0  0  0
 11 27  1  0  0  0  0
 13 17  1  0  0  0  0
 13 14  1  0  0  0  0
 13 36  1  0  0  0  0
 14 15  1  0  0  0  0
 14 28  1  0  0  0  0
 14 29  1  0  0  0  0
 15 16  1  0  0  0  0
 15 30  1  0  0  0  0
 15 31  1  0  0  0  0
 16 17  1  0  0  0  0
 16 32  1  0  0  0  0
 16 33  1  0  0  0  0
 17 34  1  0  0  0  0
 17 35  1  0  0  0  0
M  CHG  1  13   1
M  END
> <s_m_source_file>
AV-unprocessed.smi

> <i_m_source_file_index>
1816

> <i_lp_mmshare_version>
43012

> <i_f3d_flags>
0

> <s_epik_input>
W0NIMl0xW0NIMl1bQ0gyXVtDSDJdTjFbQ0BIXShbQ0gzXSlbQ0gyXVtOSF1DKD1PKVtOSF1jMm5bY0hdW2NIXXMy

> <s_epik_cmdline>
J2VwaWtfcHl0aG9uJywgJy1waCcsICc3LjAnLCAnLXRuJywgJzgnLCAnLW1hJywgJzIwMCcsICctbWV0YWxfYmluZGluZycsICctaW1hZScsICc8aW5maWxlLm1hZT4nLCAnLW9tYWUnLCAnPG91dGZpbGUubWFlPic=

> <r_lp_tautomer_probability>
0.999

> <r_epik_Ionization_Penalty>
0.000988651

> <r_epik_Ionization_Penalty_Charging>
0.000848324

> <r_epik_Ionization_Penalty_Neutral>
0.000140327

> <r_epik_State_Penalty>
0.000546901

> <r_epik_Charging_Adjusted_Penalty>
0.00139523

> <i_epik_Tot_Q>
1

> <i_epik_Tot_abs_Q>
1

> <r_epik_Metal_State_Penalty>
0.0571994

> <b_epik_Metal_Only>
0

> <s_lp_Force_Field>
OPLS_2005

> <r_lp_Energy>
26.1685

> <b_lp_Chiralities_Consistent>
1

> <s_lp_Variant>
AV-unprocessed.smi:1816-1

> <Gold.Version>
5.8.1

> <Gold.Id.Protein>
6NUR|6NUR_protein|mol2

> <Gold.PLP.Fitness>
43.7797

> <Gold.PLP.PLP>
-29.8859

> <Gold.PLP.part.hbond>
-4.0000

> <Gold.PLP.part.metal>
0.0000

> <Gold.PLP.part.buried>
-0.9401

> <Gold.PLP.part.nonpolar>
-26.7877

> <Gold.PLP.part.repulsive>
1.2300

> <Gold.PLP.ligand.clash>
0.0000

> <Gold.PLP.ligand.torsion>
0.4063

> <Gold.PLP.Chemscore.Hbond>
3.8882

> <Gold.PLP.Chemscore.CHOScore>
1.0000

> <Gold.PLP.Chemscore.Metal>
0.0000

> <Gold.Chemscore.Hbonds>
donor molecule, donor type, donor heavy atom, donor atom, acceptor molecule, acceptor atom, score
      L1  H     4    24       P1 10175  0.87
      L1  H     7    25       P1 10175  1.00
      L1  H    13    36       P1 10186  1.66
      L1  C    10    26       P1  8028  0.57

> <Gold.PLP.Chemscore.Internal.Correction>
0.0419

> <Gold.Rescore>
     Score         DG    S(hbond)    S(metal)    S(lipo)     H(rot)  DE(clash)    DE(int)     intcor
     15.54     -16.63       2.13        0.00      69.45       1.60       0.68       0.41       ----

> <Gold.Chemscore.Fitness>
15.5448

> <Gold.Chemscore.DG>
-16.6264

> <Gold.Chemscore.ZeroCoef>
-5.4800

> <Gold.Chemscore.Hbond>
2.1331

> <Gold.Chemscore.Metal>
0.0000

> <Gold.Chemscore.Lipo>
69.4477

> <Gold.Chemscore.Internal_Hbond>
0.0000

> <Gold.Chemscore.DEClash>
0.6765

> <Gold.Chemscore.DEInternal>
0.4050

> <Gold.Chemscore.Rot>
1.6029

> <Gold.Chemscore.Internal.Correction>
   9.000000E+99

> <Gold.Chemscore.Hbonds>
donor molecule, donor type, donor heavy atom, donor atom, acceptor molecule, acceptor atom, score
      L1  H     4    24       P1 10175  0.81
      L1  H     7    25       P1 10175  1.00
      L1  H    13    36       P1 10186  0.39

> <Gold.Chemscore.Hbond.Weighted>
-7.1245

> <Gold.Chemscore.Metal.Weighted>
-0.0000

> <Gold.Chemscore.Lipo.Weighted>
-8.1254

> <Gold.Chemscore.Internal_Hbond.Weighted>
0.0000

> <Gold.Chemscore.DEClash.Weighted>
0.6765

> <Gold.Chemscore.DEInternal.Weighted>
0.4050

> <Gold.Chemscore.Rot.Weighted>
4.1035

> <Gold.Chemscore.Internal.Correction.Weighted>
   9.000000E+99

> <Gold.Protein.RotatedTorsions>
[ 6907 6896 6895 6894 ] final -145.88 input  -60.11 | X-H torsion
[ 7974 7965 7964 7962 ] final -166.92 input  175.53 | X-H torsion
[ 8008 7997 7996 7995 ] final  170.66 input   59.86 | X-H torsion
[ 10167 10162 10161 10158 ] final   32.95 input  -65.29 | X-H torsion
[ 10718 10713 10712 10709 ] final  103.89 input   66.30 | X-H torsion
[ 10763 10752 10751 10750 ] final  -36.20 input  -60.55 | X-H torsion
[ 11005 11000 10999 10996 ] final -122.15 input  -57.11 | X-H torsion

> <Gold.Protein.ActiveResidues>
 VAL166  LYS551  ARG553  GLY616  TRP617  ASP618  TYR619  PRO620  LYS621  CYS622 
 ASP623  PHE694  ASN695  SER759  ASP760  ASP761  ALA762  ILE779  LEU786  VAL792 
 PHE793  MET794  SER795  GLU796  ALA797  LYS798  CYS799  TRP800  GLU811  SER814 

> <Gold.Protein.RotatedAtoms>
  151.1339  133.5017  159.2598 H   0  0  0  0  0  0  0  0  0  0  0  0  # atno 6907 bound_to 6896
  151.1727  135.0325  159.8769 H   0  0  0  0  0  0  0  0  0  0  0  0  # atno 6908 bound_to 6896
  152.5460  134.1200  159.8448 H   0  0  0  0  0  0  0  0  0  0  0  0  # atno 6909 bound_to 6896
  144.7234  140.2595  143.6267 H   0  0  0  0  0  0  0  0  0  0  0  0  # atno 7974 bound_to 7965
  156.1345  140.1532  156.9016 H   0  0  0  0  0  0  0  0  0  0  0  0  # atno 8008 bound_to 7997
  154.4936  140.0844  156.7687 H   0  0  0  0  0  0  0  0  0  0  0  0  # atno 8009 bound_to 7997
  155.4195  140.3422  155.4272 H   0  0  0  0  0  0  0  0  0  0  0  0  # atno 8010 bound_to 7997
  140.4452  144.1130  150.6181 H   0  0  0  0  0  0  0  0  0  0  0  0  # atno 10167 bound_to 10162
  157.6758  131.0790  150.5624 H   0  0  0  0  0  0  0  0  0  0  0  0  # atno 10718 bound_to 10713
  153.8758  135.6826  153.4771 H   0  0  0  0  0  0  0  0  0  0  0  0  # atno 10763 bound_to 10752
  153.1261  135.4718  154.9273 H   0  0  0  0  0  0  0  0  0  0  0  0  # atno 10764 bound_to 10752
  154.7692  135.3233  154.8175 H   0  0  0  0  0  0  0  0  0  0  0  0  # atno 10765 bound_to 10752
  141.0016  134.0394  157.3529 H   0  0  0  0  0  0  0  0  0  0  0  0  # atno 11005 bound_to 11000
  145.8150  139.2019  143.1971 LP  0  0  0  0  0  0  0  0  0  0  0  0  # atno 17320 bound_to 7965
  146.0563  140.8017  142.9757 LP  0  0  0  0  0  0  0  0  0  0  0  0  # atno 17321 bound_to 7965
  140.4272  143.2584  151.9641 LP  0  0  0  0  0  0  0  0  0  0  0  0  # atno 17342 bound_to 10162
  139.4792  144.5777  151.7984 LP  0  0  0  0  0  0  0  0  0  0  0  0  # atno 17343 bound_to 10162
  156.5927  130.4333  149.5930 LP  0  0  0  0  0  0  0  0  0  0  0  0  # atno 17370 bound_to 10713
  156.2570  130.6940  151.1697 LP  0  0  0  0  0  0  0  0  0  0  0  0  # atno 17371 bound_to 10713
  139.9042  135.0174  156.7409 LP  0  0  0  0  0  0  0  0  0  0  0  0  # atno 17394 bound_to 11000
  140.6879  133.9416  155.7949 LP  0  0  0  0  0  0  0  0  0  0  0  0  # atno 17395 bound_to 11000

$$$$
