AV-unprocessed.smi:1036|AV-procd|sdf|4517|dock5
  -GOLD-   22720 2533D 1   1.00000     0.00000
 Structure written by MMmdl.
 42 44  0  0  0  0  0  0  0  0  2 V2000
  152.0182  136.7952  153.9815 O   0  0  0  0  0  0  0  0  0  0  0  0
  151.7760  138.0983  154.4670 C   0  0  0  0  0  0  0  0  0  0  0  0
  151.2751  138.0320  155.9154 C   0  0  0  0  0  0  0  0  0  0  0  0
  150.5705  139.2457  156.2965 N   0  0  0  0  0  0  0  0  0  0  0  0
  151.1349  140.0838  157.2637 C   0  0  0  0  0  0  0  0  0  0  0  0
  152.2177  139.7972  158.0350 N   0  3  0  0  0  0  0  0  0  0  0  0
  152.4668  140.8923  158.8674 C   0  0  0  0  0  0  0  0  0  0  0  0
  153.4531  141.0978  159.8272 C   0  0  0  0  0  0  0  0  0  0  0  0
  153.4312  142.3354  160.5034 C   0  0  0  0  0  0  0  0  0  0  0  0
  152.4554  143.3127  160.2179 C   0  0  0  0  0  0  0  0  0  0  0  0
  151.4581  143.0959  159.2446 C   0  0  0  0  0  0  0  0  0  0  0  0
  151.4851  141.8708  158.5792 C   0  0  0  0  0  0  0  0  0  0  0  0
  150.6755  141.3232  157.5767 N   0  0  0  0  0  0  0  0  0  0  0  0
  149.5469  142.1022  157.0460 C   0  0  0  0  0  0  0  0  0  0  0  0
  148.2212  141.3165  157.0559 C   0  0  1  0  0  0  0  0  0  0  0  0
  147.7464  141.2016  158.3844 O   0  0  0  0  0  0  0  0  0  0  0  0
  147.2031  141.9498  156.1173 C   0  0  0  0  0  0  0  0  0  0  0  0
  146.0504  142.5877  156.6289 C   0  0  0  0  0  0  0  0  0  0  0  0
  145.1186  143.1817  155.7558 C   0  0  0  0  0  0  0  0  0  0  0  0
  144.0162  143.7899  156.2543 F   0  0  0  0  0  0  0  0  0  0  0  0
  145.3339  143.1457  154.3654 C   0  0  0  0  0  0  0  0  0  0  0  0
  146.4839  142.5194  153.8489 C   0  0  0  0  0  0  0  0  0  0  0  0
  147.4177  141.9255  154.7205 C   0  0  0  0  0  0  0  0  0  0  0  0
  148.5251  141.3365  154.2077 F   0  0  0  0  0  0  0  0  0  0  0  0
  151.4609  136.6444  153.2331 H   0  0  0  0  0  0  0  0  0  0  0  0
  152.6701  138.7162  154.3741 H   0  0  0  0  0  0  0  0  0  0  0  0
  151.0088  138.5463  153.8345 H   0  0  0  0  0  0  0  0  0  0  0  0
  150.5742  137.2017  156.0093 H   0  0  0  0  0  0  0  0  0  0  0  0
  152.0988  137.8328  156.6026 H   0  0  0  0  0  0  0  0  0  0  0  0
  149.8131  139.5799  155.7175 H   0  0  0  0  0  0  0  0  0  0  0  0
  154.2027  140.3521  160.0482 H   0  0  0  0  0  0  0  0  0  0  0  0
  154.1789  142.5396  161.2561 H   0  0  0  0  0  0  0  0  0  0  0  0
  152.4719  144.2489  160.7569 H   0  0  0  0  0  0  0  0  0  0  0  0
  150.7160  143.8516  159.0327 H   0  0  0  0  0  0  0  0  0  0  0  0
  149.4563  143.0097  157.6444 H   0  0  0  0  0  0  0  0  0  0  0  0
  149.8005  142.4262  156.0359 H   0  0  0  0  0  0  0  0  0  0  0  0
  148.4098  140.2979  156.7157 H   0  0  0  0  0  0  0  0  0  0  0  0
  148.2360  141.7971  158.9312 H   0  0  0  0  0  0  0  0  0  0  0  0
  145.8758  142.6290  157.6940 H   0  0  0  0  0  0  0  0  0  0  0  0
  144.6197  143.6016  153.6957 H   0  0  0  0  0  0  0  0  0  0  0  0
  146.6517  142.4971  152.7824 H   0  0  0  0  0  0  0  0  0  0  0  0
  152.7407  138.9323  157.9916 H   0  0  0  0  0  0  0  0  0  0  0  0
  1  2  1  0  0  0  0
  1 25  1  0  0  0  0
  2  3  1  0  0  0  0
  2 26  1  0  0  0  0
  2 27  1  0  0  0  0
  3  4  1  0  0  0  0
  3 28  1  0  0  0  0
  3 29  1  0  0  0  0
  4  5  1  0  0  0  0
  4 30  1  0  0  0  0
  5 13  1  0  0  0  0
  5  6  2  0  0  0  0
  6  7  1  0  0  0  0
  6 42  1  0  0  0  0
  7 12  2  0  0  0  0
  7  8  1  0  0  0  0
  8  9  2  0  0  0  0
  8 31  1  0  0  0  0
  9 10  1  0  0  0  0
  9 32  1  0  0  0  0
 10 11  2  0  0  0  0
 10 33  1  0  0  0  0
 11 12  1  0  0  0  0
 11 34  1  0  0  0  0
 12 13  1  0  0  0  0
 13 14  1  0  0  0  0
 14 15  1  0  0  0  0
 14 35  1  0  0  0  0
 14 36  1  0  0  0  0
 15 16  1  0  0  0  0
 15 17  1  0  0  0  0
 15 37  1  0  0  0  0
 16 38  1  0  0  0  0
 17 23  1  0  0  0  0
 17 18  2  0  0  0  0
 18 19  1  0  0  0  0
 18 39  1  0  0  0  0
 19 20  1  0  0  0  0
 19 21  2  0  0  0  0
 21 22  1  0  0  0  0
 21 40  1  0  0  0  0
 22 23  2  0  0  0  0
 22 41  1  0  0  0  0
 23 24  1  0  0  0  0
M  CHG  1   6   1
M  END
> <s_m_source_file>
AV-unprocessed.smi

> <i_m_source_file_index>
1036

> <i_lp_mmshare_version>
43012

> <i_f3d_flags>
0

> <s_epik_input>
W09IXVtDSDJdW0NIMl1bTkhdYyhuMSluKGMoYzEyKVtjSF1bY0hdW2NIXVtjSF0yKVtDSDJdW0NASF0oW09IXSljM1tjSF1jKEYpW2NIXVtjSF1jM0Y=

> <s_epik_cmdline>
J2VwaWtfcHl0aG9uJywgJy1waCcsICc3LjAnLCAnLXRuJywgJzgnLCAnLW1hJywgJzIwMCcsICctbWV0YWxfYmluZGluZycsICctaW1hZScsICc8aW5maWxlLm1hZT4nLCAnLW9tYWUnLCAnPG91dGZpbGUubWFlPic=

> <r_epik_Ionization_Penalty>
0.0688114

> <r_epik_Ionization_Penalty_Charging>
0.0688055

> <r_epik_Ionization_Penalty_Neutral>
5.85933e-06

> <r_epik_State_Penalty>
0.0602293

> <r_epik_Charging_Adjusted_Penalty>
0.129035

> <i_epik_Tot_Q>
1

> <i_epik_Tot_abs_Q>
1

> <r_epik_Metal_State_Penalty>
2.77411

> <b_epik_Metal_Only>
0

> <s_lp_Force_Field>
OPLS_2005

> <r_lp_Energy>
24.5331

> <b_lp_Chiralities_Consistent>
1

> <s_lp_Variant>
AV-unprocessed.smi:1036-2

> <Gold.Version>
5.8.1

> <Gold.Id.Protein>
6NUR|6NUR_protein|mol2

> <Gold.PLP.Fitness>
52.5357

> <Gold.PLP.PLP>
-47.5096

> <Gold.PLP.part.hbond>
-2.8920

> <Gold.PLP.part.metal>
0.0000

> <Gold.PLP.part.buried>
-4.8754

> <Gold.PLP.part.nonpolar>
-38.7218

> <Gold.PLP.part.repulsive>
0.1263

> <Gold.PLP.ligand.clash>
0.0000

> <Gold.PLP.ligand.torsion>
0.5008

> <Gold.PLP.Chemscore.Hbond>
2.0000

> <Gold.PLP.Chemscore.CHOScore>
0.0000

> <Gold.PLP.Chemscore.Metal>
0.0000

> <Gold.Chemscore.Hbonds>
donor molecule, donor type, donor heavy atom, donor atom, acceptor molecule, acceptor atom, score
      L1  H     1    25       P1  7949  1.00
      P1  H 10752 10764       L1     1  0.86

> <Gold.PLP.Chemscore.Internal.Correction>
0.0277

> <Gold.Rescore>
     Score         DG    S(hbond)    S(metal)    S(lipo)     H(rot)  DE(clash)    DE(int)     intcor
     14.11     -15.44       1.86        0.00     104.06       3.29       0.47       0.86       ----

> <Gold.Chemscore.Fitness>
14.1131

> <Gold.Chemscore.DG>
-15.4371

> <Gold.Chemscore.ZeroCoef>
-5.4800

> <Gold.Chemscore.Hbond>
1.8557

> <Gold.Chemscore.Metal>
0.0000

> <Gold.Chemscore.Lipo>
104.0586

> <Gold.Chemscore.Internal_Hbond>
0.0000

> <Gold.Chemscore.DEClash>
0.4687

> <Gold.Chemscore.DEInternal>
0.8554

> <Gold.Chemscore.Rot>
3.2874

> <Gold.Chemscore.Internal.Correction>
   9.000000E+99

> <Gold.Chemscore.Hbonds>
donor molecule, donor type, donor heavy atom, donor atom, acceptor molecule, acceptor atom, score
      L1  H     1    25       P1  7949  0.81
      P1  H 10752 10764       L1     1  0.58

> <Gold.Chemscore.Hbond.Weighted>
-6.1981

> <Gold.Chemscore.Metal.Weighted>
-0.0000

> <Gold.Chemscore.Lipo.Weighted>
-12.1749

> <Gold.Chemscore.Internal_Hbond.Weighted>
0.0000

> <Gold.Chemscore.DEClash.Weighted>
0.4687

> <Gold.Chemscore.DEInternal.Weighted>
0.8554

> <Gold.Chemscore.Rot.Weighted>
8.4158

> <Gold.Chemscore.Internal.Correction.Weighted>
   9.000000E+99

> <Gold.Protein.RotatedTorsions>
[ 6907 6896 6895 6894 ] final  141.99 input  -60.11 | X-H torsion
[ 7974 7965 7964 7962 ] final  -51.94 input  175.53 | X-H torsion
[ 8008 7997 7996 7995 ] final   90.58 input   59.86 | X-H torsion
[ 10167 10162 10161 10158 ] final   98.65 input  -65.29 | X-H torsion
[ 10718 10713 10712 10709 ] final   56.73 input   66.30 | X-H torsion
[ 10763 10752 10751 10750 ] final  -90.68 input  -60.55 | X-H torsion
[ 11005 11000 10999 10996 ] final   88.18 input  -57.11 | X-H torsion

> <Gold.Protein.ActiveResidues>
 VAL166  LYS551  ARG553  GLY616  TRP617  ASP618  TYR619  PRO620  LYS621  CYS622 
 ASP623  PHE694  ASN695  SER759  ASP760  ASP761  ALA762  ILE779  LEU786  VAL792 
 PHE793  MET794  SER795  GLU796  ALA797  LYS798  CYS799  TRP800  GLU811  SER814 

> <Gold.Protein.RotatedAtoms>
  152.2242  133.5007  159.5179 H   0  0  0  0  0  0  0  0  0  0  0  0  # atno 6907 bound_to 6896
  150.7020  134.1302  159.4076 H   0  0  0  0  0  0  0  0  0  0  0  0  # atno 6908 bound_to 6896
  151.9223  135.0293  160.0573 H   0  0  0  0  0  0  0  0  0  0  0  0  # atno 6909 bound_to 6896
  145.9135  140.7895  142.9683 H   0  0  0  0  0  0  0  0  0  0  0  0  # atno 7974 bound_to 7965
  156.0136  140.3348  155.6966 H   0  0  0  0  0  0  0  0  0  0  0  0  # atno 8008 bound_to 7997
  155.6122  140.0666  157.2720 H   0  0  0  0  0  0  0  0  0  0  0  0  # atno 8009 bound_to 7997
  154.4290  140.1791  156.1272 H   0  0  0  0  0  0  0  0  0  0  0  0  # atno 8010 bound_to 7997
  139.7689  144.6929  151.0185 H   0  0  0  0  0  0  0  0  0  0  0  0  # atno 10167 bound_to 10162
  157.5455  130.8728  149.8885 H   0  0  0  0  0  0  0  0  0  0  0  0  # atno 10718 bound_to 10713
  154.6683  135.5295  153.8105 H   0  0  0  0  0  0  0  0  0  0  0  0  # atno 10763 bound_to 10752
  153.0485  135.6522  154.0765 H   0  0  0  0  0  0  0  0  0  0  0  0  # atno 10764 bound_to 10752
  154.0667  135.2957  155.3295 H   0  0  0  0  0  0  0  0  0  0  0  0  # atno 10765 bound_to 10752
  139.8902  134.8471  156.2964 H   0  0  0  0  0  0  0  0  0  0  0  0  # atno 11005 bound_to 11000
  144.6745  140.1862  143.7401 LP  0  0  0  0  0  0  0  0  0  0  0  0  # atno 17320 bound_to 7965
  145.8642  139.2238  143.1699 LP  0  0  0  0  0  0  0  0  0  0  0  0  # atno 17321 bound_to 7965
  140.7812  143.4611  151.0276 LP  0  0  0  0  0  0  0  0  0  0  0  0  # atno 17342 bound_to 10162
  139.8296  143.7710  152.3179 LP  0  0  0  0  0  0  0  0  0  0  0  0  # atno 17343 bound_to 10162
  156.0532  130.3713  150.1152 LP  0  0  0  0  0  0  0  0  0  0  0  0  # atno 17370 bound_to 10713
  156.9329  130.9719  151.3530 LP  0  0  0  0  0  0  0  0  0  0  0  0  # atno 17371 bound_to 10713
  140.9942  133.7190  156.0860 LP  0  0  0  0  0  0  0  0  0  0  0  0  # atno 17394 bound_to 11000
  140.7584  134.3966  157.5530 LP  0  0  0  0  0  0  0  0  0  0  0  0  # atno 17395 bound_to 11000

$$$$
