AV-unprocessed.smi:1971|AV-procd|sdf|7962|dock4
  -GOLD-   2272010133D 1   1.00000     0.00000
 Structure written by MMmdl.
 44 45  0  0  0  0  0  0  0  0  2 V2000
  145.7730  136.3736  151.1906 C   0  0  0  0  0  0  0  0  0  0  0  0
  145.7658  136.8071  152.6634 C   0  0  0  0  0  0  0  0  0  0  0  0
  146.8434  137.7770  152.9817 N   0  3  0  0  0  0  0  0  0  0  0  0
  146.9980  137.9812  154.4431 C   0  0  0  0  0  0  0  0  0  0  0  0
  148.1422  138.9746  154.7336 C   0  0  0  0  0  0  0  0  0  0  0  0
  147.8890  140.2879  154.1237 N   0  0  0  0  0  0  0  0  0  0  0  0
  146.7356  141.0400  154.6672 C   0  0  2  0  0  0  0  0  0  0  0  0
  146.5680  142.3821  153.9162 C   0  0  0  0  0  0  0  0  0  0  0  0
  146.8695  141.2949  156.1945 C   0  0  0  0  0  0  0  0  0  0  0  0
  147.9818  142.1834  156.5190 N   0  0  0  0  0  0  0  0  0  0  0  0
  148.9592  141.8929  157.3905 C   0  0  0  0  0  0  0  0  0  0  0  0
  149.0190  140.8291  158.0090 O   0  0  0  0  0  0  0  0  0  0  0  0
  149.8406  142.9029  157.4933 N   0  0  0  0  0  0  0  0  0  0  0  0
  150.9855  142.9850  158.3291 C   0  0  0  0  0  0  0  0  0  0  0  0
  151.2538  142.1342  159.3268 N   0  0  0  0  0  0  0  0  0  0  0  0
  152.4434  142.4568  159.9849 C   0  0  0  0  0  0  0  0  0  0  0  0
  153.0715  143.5645  159.4723 C   0  0  0  0  0  0  0  0  0  0  0  0
  152.1896  144.2502  158.1337 S   0  0  0  0  0  0  0  0  0  0  0  0
  147.8352  140.0482  152.6735 C   0  0  0  0  0  0  0  0  0  0  0  0
  146.6946  139.0803  152.2839 C   0  0  0  0  0  0  0  0  0  0  0  0
  145.0211  135.6036  151.0161 H   0  0  0  0  0  0  0  0  0  0  0  0
  146.7406  135.9599  150.9044 H   0  0  0  0  0  0  0  0  0  0  0  0
  145.5464  137.2015  150.5195 H   0  0  0  0  0  0  0  0  0  0  0  0
  144.7952  137.2246  152.9355 H   0  0  0  0  0  0  0  0  0  0  0  0
  145.8999  135.9139  153.2753 H   0  0  0  0  0  0  0  0  0  0  0  0
  146.0583  138.3207  154.8813 H   0  0  0  0  0  0  0  0  0  0  0  0
  147.2307  137.0257  154.9142 H   0  0  0  0  0  0  0  0  0  0  0  0
  148.3229  139.0588  155.8031 H   0  0  0  0  0  0  0  0  0  0  0  0
  149.0743  138.5760  154.3303 H   0  0  0  0  0  0  0  0  0  0  0  0
  145.8278  140.4600  154.5118 H   0  0  0  0  0  0  0  0  0  0  0  0
  145.7808  142.9952  154.3540 H   0  0  0  0  0  0  0  0  0  0  0  0
  146.2812  142.2434  152.8751 H   0  0  0  0  0  0  0  0  0  0  0  0
  147.4875  142.9680  153.9403 H   0  0  0  0  0  0  0  0  0  0  0  0
  145.9768  141.7549  156.6156 H   0  0  0  0  0  0  0  0  0  0  0  0
  147.0138  140.3523  156.7234 H   0  0  0  0  0  0  0  0  0  0  0  0
  148.0041  143.0781  156.0515 H   0  0  0  0  0  0  0  0  0  0  0  0
  149.6679  143.7120  156.9152 H   0  0  0  0  0  0  0  0  0  0  0  0
  152.7698  141.8429  160.8113 H   0  0  0  0  0  0  0  0  0  0  0  0
  153.9957  144.0165  159.8004 H   0  0  0  0  0  0  0  0  0  0  0  0
  147.7488  140.9812  152.1201 H   0  0  0  0  0  0  0  0  0  0  0  0
  148.7889  139.6239  152.3558 H   0  0  0  0  0  0  0  0  0  0  0  0
  146.7300  138.9236  151.2063 H   0  0  0  0  0  0  0  0  0  0  0  0
  145.7174  139.5146  152.4965 H   0  0  0  0  0  0  0  0  0  0  0  0
  147.7106  137.3699  152.6621 H   0  0  0  0  0  0  0  0  0  0  0  0
  1  2  1  0  0  0  0
  1 21  1  0  0  0  0
  1 22  1  0  0  0  0
  1 23  1  0  0  0  0
  2  3  1  0  0  0  0
  2 24  1  0  0  0  0
  2 25  1  0  0  0  0
  3 20  1  0  0  0  0
  3  4  1  0  0  0  0
  3 44  1  0  0  0  0
  4  5  1  0  0  0  0
  4 26  1  0  0  0  0
  4 27  1  0  0  0  0
  5  6  1  0  0  0  0
  5 28  1  0  0  0  0
  5 29  1  0  0  0  0
  6  7  1  0  0  0  0
  6 19  1  0  0  0  0
  7  8  1  0  0  0  0
  7  9  1  0  0  0  0
  7 30  1  0  0  0  0
  8 31  1  0  0  0  0
  8 32  1  0  0  0  0
  8 33  1  0  0  0  0
  9 10  1  0  0  0  0
  9 34  1  0  0  0  0
  9 35  1  0  0  0  0
 10 11  1  0  0  0  0
 10 36  1  0  0  0  0
 11 12  2  0  0  0  0
 11 13  1  0  0  0  0
 13 14  1  0  0  0  0
 13 37  1  0  0  0  0
 14 18  1  0  0  0  0
 14 15  2  0  0  0  0
 15 16  1  0  0  0  0
 16 17  2  0  0  0  0
 16 38  1  0  0  0  0
 17 18  1  0  0  0  0
 17 39  1  0  0  0  0
 19 20  1  0  0  0  0
 19 40  1  0  0  0  0
 19 41  1  0  0  0  0
 20 42  1  0  0  0  0
 20 43  1  0  0  0  0
M  CHG  1   3   1
M  END
> <s_m_source_file>
AV-unprocessed.smi

> <i_m_source_file_index>
1971

> <i_lp_mmshare_version>
43012

> <i_f3d_flags>
0

> <s_epik_input>
W0NIM11bQ0gyXU4xW0NIMl1bQ0gyXU4oW0NIMl1bQ0gyXTEpW0NASF0oW0NIM10pW0NIMl1bTkhdQyg9TylbTkhdYzJuW2NIXVtjSF1zMg==

> <s_epik_cmdline>
J2VwaWtfcHl0aG9uJywgJy1waCcsICc3LjAnLCAnLXRuJywgJzgnLCAnLW1hJywgJzIwMCcsICctbWV0YWxfYmluZGluZycsICctaW1hZScsICc8aW5maWxlLm1hZT4nLCAnLW9tYWUnLCAnPG91dGZpbGUubWFlPic=

> <r_lp_tautomer_probability>
0.999

> <r_epik_Ionization_Penalty>
0.0459519

> <r_epik_Ionization_Penalty_Charging>
0.0451959

> <r_epik_Ionization_Penalty_Neutral>
0.000756076

> <r_epik_State_Penalty>
0.165541

> <r_epik_Charging_Adjusted_Penalty>
0.210737

> <i_epik_Tot_Q>
1

> <i_epik_Tot_abs_Q>
1

> <r_epik_Metal_State_Penalty>
0.198809

> <b_epik_Metal_Only>
0

> <s_lp_Force_Field>
OPLS_2005

> <r_lp_Energy>
18.3118

> <b_lp_Chiralities_Consistent>
1

> <s_lp_Variant>
AV-unprocessed.smi:1971-1

> <Gold.Version>
5.8.1

> <Gold.Id.Protein>
6NUR|6NUR_protein|mol2

> <Gold.PLP.Fitness>
44.6910

> <Gold.PLP.PLP>
-32.8613

> <Gold.PLP.part.hbond>
-3.4003

> <Gold.PLP.part.metal>
0.0000

> <Gold.PLP.part.buried>
1.5802

> <Gold.PLP.part.nonpolar>
-31.2633

> <Gold.PLP.part.repulsive>
0.2081

> <Gold.PLP.ligand.clash>
0.0000

> <Gold.PLP.ligand.torsion>
0.1058

> <Gold.PLP.Chemscore.Hbond>
4.0000

> <Gold.PLP.Chemscore.CHOScore>
0.0000

> <Gold.PLP.Chemscore.Metal>
0.0000

> <Gold.Chemscore.Hbonds>
donor molecule, donor type, donor heavy atom, donor atom, acceptor molecule, acceptor atom, score
      L1  H     3    44       P1  7948  2.00
      L1  H    10    36       P1  8028  1.00
      L1  H    13    37       P1  8028  1.00

> <Gold.PLP.Chemscore.Internal.Correction>
0.0412

> <Gold.Rescore>
     Score         DG    S(hbond)    S(metal)    S(lipo)     H(rot)  DE(clash)    DE(int)     intcor
     17.27     -20.60       2.78        0.00      89.17       1.79       1.98       1.35       ----

> <Gold.Chemscore.Fitness>
17.2722

> <Gold.Chemscore.DG>
-20.6017

> <Gold.Chemscore.ZeroCoef>
-5.4800

> <Gold.Chemscore.Hbond>
2.7787

> <Gold.Chemscore.Metal>
0.0000

> <Gold.Chemscore.Lipo>
89.1683

> <Gold.Chemscore.Internal_Hbond>
0.0000

> <Gold.Chemscore.DEClash>
1.9783

> <Gold.Chemscore.DEInternal>
1.3512

> <Gold.Chemscore.Rot>
1.7937

> <Gold.Chemscore.Internal.Correction>
   9.000000E+99

> <Gold.Chemscore.Hbonds>
donor molecule, donor type, donor heavy atom, donor atom, acceptor molecule, acceptor atom, score
      L1  H     3    44       P1  7948  1.00
      L1  H    10    36       P1  8028  0.48
      L1  H    13    37       P1  8028  0.95

> <Gold.Chemscore.Hbond.Weighted>
-9.2810

> <Gold.Chemscore.Metal.Weighted>
-0.0000

> <Gold.Chemscore.Lipo.Weighted>
-10.4327

> <Gold.Chemscore.Internal_Hbond.Weighted>
0.0000

> <Gold.Chemscore.DEClash.Weighted>
1.9783

> <Gold.Chemscore.DEInternal.Weighted>
1.3512

> <Gold.Chemscore.Rot.Weighted>
4.5919

> <Gold.Chemscore.Internal.Correction.Weighted>
   9.000000E+99

> <Gold.Protein.RotatedTorsions>
[ 6907 6896 6895 6894 ] final   38.99 input  -60.11 | X-H torsion
[ 7974 7965 7964 7962 ] final  120.61 input  175.53 | X-H torsion
[ 8008 7997 7996 7995 ] final  -48.52 input   59.86 | X-H torsion
[ 10167 10162 10161 10158 ] final  164.51 input  -65.29 | X-H torsion
[ 10718 10713 10712 10709 ] final -145.70 input   66.30 | X-H torsion
[ 10763 10752 10751 10750 ] final  -40.35 input  -60.55 | X-H torsion
[ 11005 11000 10999 10996 ] final -140.80 input  -57.11 | X-H torsion

> <Gold.Protein.ActiveResidues>
 VAL166  LYS551  ARG553  GLY616  TRP617  ASP618  TYR619  PRO620  LYS621  CYS622 
 ASP623  PHE694  ASN695  SER759  ASP760  ASP761  ALA762  ILE779  LEU786  VAL792 
 PHE793  MET794  SER795  GLU796  ALA797  LYS798  CYS799  TRP800  GLU811  SER814 

> <Gold.Protein.RotatedAtoms>
  152.1637  134.8891  160.0539 H   0  0  0  0  0  0  0  0  0  0  0  0  # atno 6907 bound_to 6896
  151.9877  133.3775  159.4140 H   0  0  0  0  0  0  0  0  0  0  0  0  # atno 6908 bound_to 6896
  150.6891  134.3893  159.5113 H   0  0  0  0  0  0  0  0  0  0  0  0  # atno 6909 bound_to 6896
  145.1292  139.3338  143.4674 H   0  0  0  0  0  0  0  0  0  0  0  0  # atno 7974 bound_to 7965
  154.4030  140.1319  156.4353 H   0  0  0  0  0  0  0  0  0  0  0  0  # atno 8008 bound_to 7997
  155.7511  140.3488  155.5131 H   0  0  0  0  0  0  0  0  0  0  0  0  # atno 8009 bound_to 7997
  155.8948  140.1009  157.1383 H   0  0  0  0  0  0  0  0  0  0  0  0  # atno 8010 bound_to 7997
  139.4890  144.4228  151.9165 H   0  0  0  0  0  0  0  0  0  0  0  0  # atno 10167 bound_to 10162
  156.3857  130.7860  151.2057 H   0  0  0  0  0  0  0  0  0  0  0  0  # atno 10718 bound_to 10713
  153.9445  135.6757  153.4744 H   0  0  0  0  0  0  0  0  0  0  0  0  # atno 10763 bound_to 10752
  153.0915  135.4872  154.8695 H   0  0  0  0  0  0  0  0  0  0  0  0  # atno 10764 bound_to 10752
  154.7359  135.3149  154.8770 H   0  0  0  0  0  0  0  0  0  0  0  0  # atno 10765 bound_to 10752
  140.8387  134.2428  157.4821 H   0  0  0  0  0  0  0  0  0  0  0  0  # atno 11005 bound_to 11000
  146.3515  140.1283  142.8598 LP  0  0  0  0  0  0  0  0  0  0  0  0  # atno 17320 bound_to 7965
  145.0654  140.9118  143.4913 LP  0  0  0  0  0  0  0  0  0  0  0  0  # atno 17321 bound_to 7965
  140.3673  144.2899  150.5925 LP  0  0  0  0  0  0  0  0  0  0  0  0  # atno 17342 bound_to 10162
  140.5350  143.2235  151.8177 LP  0  0  0  0  0  0  0  0  0  0  0  0  # atno 17343 bound_to 10162
  157.7495  131.0331  150.4255 LP  0  0  0  0  0  0  0  0  0  0  0  0  # atno 17370 bound_to 10713
  156.4507  130.4011  149.6637 LP  0  0  0  0  0  0  0  0  0  0  0  0  # atno 17371 bound_to 10713
  139.8703  134.9624  156.4428 LP  0  0  0  0  0  0  0  0  0  0  0  0  # atno 17394 bound_to 11000
  140.8919  133.7842  155.9581 LP  0  0  0  0  0  0  0  0  0  0  0  0  # atno 17395 bound_to 11000

$$$$
