AV-unprocessed.smi:1199|AV-procd|sdf|5019|dock6
  -GOLD-   22720 4 43D 1   1.00000     0.00000
 Structure written by MMmdl.
 41 42  0  0  0  0  0  0  0  0  1 V2000
  145.0739  137.5854  153.0700 C   0  0  0  0  0  0  0  0  0  0  0  0
  145.5683  136.1564  152.7994 C   0  0  1  0  0  0  0  0  0  0  0  0
  145.7206  135.8810  151.2869 C   0  0  0  0  0  0  0  0  0  0  0  0
  145.4574  134.5030  150.8628 N   0  0  0  0  0  0  0  0  0  0  0  0
  144.0362  134.1587  150.8850 C   0  0  0  0  0  0  0  0  0  0  0  0
  143.7856  132.6956  150.4815 C   0  0  0  0  0  0  0  0  0  0  0  0
  144.5341  131.8291  151.3268 O   0  0  0  0  0  0  0  0  0  0  0  0
  145.9315  132.0972  151.2822 C   0  0  0  0  0  0  0  0  0  0  0  0
  146.1865  133.5556  151.7000 C   0  0  0  0  0  0  0  0  0  0  0  0
  146.8563  135.9702  153.4631 N   0  0  0  0  0  0  0  0  0  0  0  0
  147.0617  135.9931  154.7887 C   0  0  0  0  0  0  0  0  0  0  0  0
  146.1871  136.2799  155.6063 O   0  0  0  0  0  0  0  0  0  0  0  0
  148.4735  135.6251  155.2595 C   0  0  0  0  0  0  0  0  0  0  0  0
  149.4006  136.7540  155.1038 N   0  0  0  0  0  0  0  0  0  0  0  0
  148.8153  137.8820  154.5462 N   0  0  0  0  0  0  0  0  0  0  0  0
  149.5293  138.9298  154.3098 C   0  0  0  0  0  0  0  0  0  0  0  0
  148.9100  140.0201  153.7500 O   0  0  0  0  0  0  0  0  0  0  0  0
  150.9404  138.9600  154.6240 C   0  0  0  0  0  0  0  0  0  0  0  0
  151.5005  137.8594  155.1722 C   0  0  0  0  0  0  0  0  0  0  0  0
  150.7213  136.6509  155.4478 C   0  0  0  0  0  0  0  0  0  0  0  0
  151.2097  135.6329  155.9373 O   0  0  0  0  0  0  0  0  0  0  0  0
  149.3504  140.1638  152.9264 H   0  0  0  0  0  0  0  0  0  0  0  0
  144.0995  137.7565  152.6113 H   0  0  0  0  0  0  0  0  0  0  0  0
  145.7649  138.3289  152.6716 H   0  0  0  0  0  0  0  0  0  0  0  0
  144.9665  137.7678  154.1398 H   0  0  0  0  0  0  0  0  0  0  0  0
  144.8217  135.4693  153.2022 H   0  0  0  0  0  0  0  0  0  0  0  0
  145.0094  136.5241  150.7667 H   0  0  0  0  0  0  0  0  0  0  0  0
  146.7044  136.2028  150.9407 H   0  0  0  0  0  0  0  0  0  0  0  0
  143.6260  134.3365  151.8803 H   0  0  0  0  0  0  0  0  0  0  0  0
  143.4836  134.7954  150.1966 H   0  0  0  0  0  0  0  0  0  0  0  0
  142.7258  132.4553  150.5700 H   0  0  0  0  0  0  0  0  0  0  0  0
  144.0657  132.5296  149.4401 H   0  0  0  0  0  0  0  0  0  0  0  0
  146.4473  131.4133  151.9564 H   0  0  0  0  0  0  0  0  0  0  0  0
  146.3150  131.9092  150.2781 H   0  0  0  0  0  0  0  0  0  0  0  0
  147.2562  133.7619  151.6474 H   0  0  0  0  0  0  0  0  0  0  0  0
  145.8954  133.6851  152.7436 H   0  0  0  0  0  0  0  0  0  0  0  0
  147.6399  135.7378  152.8703 H   0  0  0  0  0  0  0  0  0  0  0  0
  148.4499  135.3149  156.3064 H   0  0  0  0  0  0  0  0  0  0  0  0
  148.8115  134.7480  154.7054 H   0  0  0  0  0  0  0  0  0  0  0  0
  151.5241  139.8459  154.4222 H   0  0  0  0  0  0  0  0  0  0  0  0
  152.5538  137.8683  155.4110 H   0  0  0  0  0  0  0  0  0  0  0  0
  1  2  1  0  0  0  0
  1 23  1  0  0  0  0
  1 24  1  0  0  0  0
  1 25  1  0  0  0  0
  2  3  1  0  0  0  0
  2 10  1  0  0  0  0
  2 26  1  0  0  0  0
  3  4  1  0  0  0  0
  3 27  1  0  0  0  0
  3 28  1  0  0  0  0
  4  9  1  0  0  0  0
  4  5  1  0  0  0  0
  5  6  1  0  0  0  0
  5 29  1  0  0  0  0
  5 30  1  0  0  0  0
  6  7  1  0  0  0  0
  6 31  1  0  0  0  0
  6 32  1  0  0  0  0
  7  8  1  0  0  0  0
  8  9  1  0  0  0  0
  8 33  1  0  0  0  0
  8 34  1  0  0  0  0
  9 35  1  0  0  0  0
  9 36  1  0  0  0  0
 10 11  1  0  0  0  0
 10 37  1  0  0  0  0
 11 12  2  0  0  0  0
 11 13  1  0  0  0  0
 13 38  1  0  0  0  0
 13 39  1  0  0  0  0
 13 14  1  0  0  0  0
 14 15  1  0  0  0  0
 14 20  1  0  0  0  0
 15 16  2  0  0  0  0
 16 17  1  0  0  0  0
 16 18  1  0  0  0  0
 17 22  1  0  0  0  0
 18 40  1  0  0  0  0
 18 19  2  0  0  0  0
 19 41  1  0  0  0  0
 19 20  1  0  0  0  0
 20 21  2  0  0  0  0
M  END
> <s_m_source_file>
AV-unprocessed.smi

> <i_m_source_file_index>
1199

> <i_lp_mmshare_version>
43012

> <i_f3d_flags>
0

> <s_epik_input>
W0NIMl0xW0NIMl1PW0NIMl1bQ0gyXU4xW0NIMl1bQ0BASF0oW0NIM10pW05IXUMoPU8pW0NIMl1uMltuSF1jKD1PKVtjSF1bY0hdYzI9Tw==

> <s_epik_cmdline>
J2VwaWtfcHl0aG9uJywgJy1waCcsICc3LjAnLCAnLXRuJywgJzgnLCAnLW1hJywgJzIwMCcsICctbWV0YWxfYmluZGluZycsICctaW1hZScsICc8aW5maWxlLm1hZT4nLCAnLW9tYWUnLCAnPG91dGZpbGUubWFlPic=

> <r_epik_Ionization_Penalty>
2.36432

> <r_epik_Ionization_Penalty_Charging>
3.67277e-08

> <r_epik_Ionization_Penalty_Neutral>
2.36432

> <r_epik_State_Penalty>
1.96081

> <r_epik_Charging_Adjusted_Penalty>
1.96081

> <i_epik_Tot_Q>
0

> <i_epik_Tot_abs_Q>
0

> <r_epik_Metal_State_Penalty>
1.96081

> <b_epik_Metal_Only>
0

> <s_lp_Force_Field>
OPLS_2005

> <r_lp_Energy>
38.3542

> <b_lp_Chiralities_Consistent>
1

> <s_lp_Variant>
AV-unprocessed.smi:1199-6

> <Gold.Version>
5.8.1

> <Gold.Id.Protein>
6NUR|6NUR_protein|mol2

> <Gold.PLP.Fitness>
37.2989

> <Gold.PLP.PLP>
-29.8589

> <Gold.PLP.part.hbond>
-3.0000

> <Gold.PLP.part.metal>
0.0000

> <Gold.PLP.part.buried>
-4.9352

> <Gold.PLP.part.nonpolar>
-23.3725

> <Gold.PLP.part.repulsive>
0.7389

> <Gold.PLP.ligand.clash>
0.0000

> <Gold.PLP.ligand.torsion>
0.7857

> <Gold.PLP.Chemscore.Hbond>
3.0000

> <Gold.PLP.Chemscore.CHOScore>
0.0000

> <Gold.PLP.Chemscore.Metal>
0.0000

> <Gold.Chemscore.Hbonds>
donor molecule, donor type, donor heavy atom, donor atom, acceptor molecule, acceptor atom, score
      L1  H    10    37       P1  7948  1.00
      L1  H    17    22       P1  7957  1.00
      P1  H 10752 10764       L1    21  0.81

> <Gold.PLP.Chemscore.Internal.Correction>
0.0114

> <Gold.Rescore>
     Score         DG    S(hbond)    S(metal)    S(lipo)     H(rot)  DE(clash)    DE(int)     intcor
     11.89     -14.70       2.93        0.00      59.51       2.94       0.03       2.79       ----

> <Gold.Chemscore.Fitness>
11.8851

> <Gold.Chemscore.DG>
-14.7046

> <Gold.Chemscore.ZeroCoef>
-5.4800

> <Gold.Chemscore.Hbond>
2.9335

> <Gold.Chemscore.Metal>
0.0000

> <Gold.Chemscore.Lipo>
59.5105

> <Gold.Chemscore.Internal_Hbond>
0.0000

> <Gold.Chemscore.DEClash>
0.0291

> <Gold.Chemscore.DEInternal>
2.7904

> <Gold.Chemscore.Rot>
2.9437

> <Gold.Chemscore.Internal.Correction>
   9.000000E+99

> <Gold.Chemscore.Hbonds>
donor molecule, donor type, donor heavy atom, donor atom, acceptor molecule, acceptor atom, score
      L1  H    10    37       P1  7948  0.95
      L1  H    17    22       P1  7957  0.99
      P1  H 10752 10764       L1    21  0.21

> <Gold.Chemscore.Hbond.Weighted>
-9.7979

> <Gold.Chemscore.Metal.Weighted>
-0.0000

> <Gold.Chemscore.Lipo.Weighted>
-6.9627

> <Gold.Chemscore.Internal_Hbond.Weighted>
0.0000

> <Gold.Chemscore.DEClash.Weighted>
0.0291

> <Gold.Chemscore.DEInternal.Weighted>
2.7904

> <Gold.Chemscore.Rot.Weighted>
7.5359

> <Gold.Chemscore.Internal.Correction.Weighted>
   9.000000E+99

> <Gold.Protein.RotatedTorsions>
[ 6907 6896 6895 6894 ] final  102.04 input  -60.11 | X-H torsion
[ 7974 7965 7964 7962 ] final  -50.65 input  175.53 | X-H torsion
[ 8008 7997 7996 7995 ] final -132.23 input   59.86 | X-H torsion
[ 10167 10162 10161 10158 ] final  129.10 input  -65.29 | X-H torsion
[ 10718 10713 10712 10709 ] final -138.85 input   66.30 | X-H torsion
[ 10763 10752 10751 10750 ] final  -46.25 input  -60.55 | X-H torsion
[ 11005 11000 10999 10996 ] final  176.77 input  -57.11 | X-H torsion

> <Gold.Protein.ActiveResidues>
 VAL166  LYS551  ARG553  GLY616  TRP617  ASP618  TYR619  PRO620  LYS621  CYS622 
 ASP623  PHE694  ASN695  SER759  ASP760  ASP761  ALA762  ILE779  LEU786  VAL792 
 PHE793  MET794  SER795  GLU796  ALA797  LYS798  CYS799  TRP800  GLU811  SER814 

> <Gold.Protein.RotatedAtoms>
  152.5334  134.0035  159.7905 H   0  0  0  0  0  0  0  0  0  0  0  0  # atno 6907 bound_to 6896
  151.0250  133.5834  159.2674 H   0  0  0  0  0  0  0  0  0  0  0  0  # atno 6908 bound_to 6896
  151.2860  135.0735  159.9240 H   0  0  0  0  0  0  0  0  0  0  0  0  # atno 6909 bound_to 6896
  145.9276  140.7778  142.9616 H   0  0  0  0  0  0  0  0  0  0  0  0  # atno 7974 bound_to 7965
  155.3254  140.0464  157.3041 H   0  0  0  0  0  0  0  0  0  0  0  0  # atno 8008 bound_to 7997
  154.5357  140.2271  155.8693 H   0  0  0  0  0  0  0  0  0  0  0  0  # atno 8009 bound_to 7997
  156.1832  140.3069  155.9195 H   0  0  0  0  0  0  0  0  0  0  0  0  # atno 8010 bound_to 7997
  139.5494  144.6801  151.4371 H   0  0  0  0  0  0  0  0  0  0  0  0  # atno 10167 bound_to 10162
  156.3040  130.7444  151.1503 H   0  0  0  0  0  0  0  0  0  0  0  0  # atno 10718 bound_to 10713
  154.0419  135.6643  153.4791 H   0  0  0  0  0  0  0  0  0  0  0  0  # atno 10763 bound_to 10752
  153.0498  135.5091  154.7834 H   0  0  0  0  0  0  0  0  0  0  0  0  # atno 10764 bound_to 10752
  154.6813  135.3045  154.9575 H   0  0  0  0  0  0  0  0  0  0  0  0  # atno 10765 bound_to 10752
  140.3768  134.6982  157.4426 H   0  0  0  0  0  0  0  0  0  0  0  0  # atno 11005 bound_to 11000
  144.6760  140.2075  143.7380 LP  0  0  0  0  0  0  0  0  0  0  0  0  # atno 17320 bound_to 7965
  145.8469  139.2156  143.1795 LP  0  0  0  0  0  0  0  0  0  0  0  0  # atno 17321 bound_to 7965
  140.6752  143.8205  150.7049 LP  0  0  0  0  0  0  0  0  0  0  0  0  # atno 17342 bound_to 10162
  140.1642  143.4250  152.2046 LP  0  0  0  0  0  0  0  0  0  0  0  0  # atno 17343 bound_to 10162
  157.7375  131.0551  150.5352 LP  0  0  0  0  0  0  0  0  0  0  0  0  # atno 17370 bound_to 10713
  156.5483  130.4225  149.6120 LP  0  0  0  0  0  0  0  0  0  0  0  0  # atno 17371 bound_to 10713
  140.0509  134.6132  155.8863 LP  0  0  0  0  0  0  0  0  0  0  0  0  # atno 17394 bound_to 11000
  141.1937  133.6580  156.5559 LP  0  0  0  0  0  0  0  0  0  0  0  0  # atno 17395 bound_to 11000

$$$$
