AV-unprocessed.smi:609|AV-procd|sdf|3046|dock8
  -GOLD-   2262023563D 1   1.00000     0.00000
 Structure written by MMmdl.
 43 45  0  0  0  0  0  0  0  0  2 V2000
  153.0600  140.6580  158.8826 C   0  0  0  0  0  0  0  0  0  0  0  0
  152.0868  140.5771  157.7197 C   0  0  0  0  0  0  0  0  0  0  0  0
  152.0185  139.3856  156.9630 C   0  0  0  0  0  0  0  0  0  0  0  0
  151.1261  139.2685  155.8750 C   0  0  0  0  0  0  0  0  0  0  0  0
  150.8995  138.2141  155.0071 N   0  0  0  0  0  0  0  0  0  0  0  0
  149.9591  138.7173  154.2125 C   0  0  0  0  0  0  0  0  0  0  0  0
  149.5521  139.9767  154.4610 N   0  0  0  0  0  0  0  0  0  0  0  0
  148.5542  140.7324  153.7254 C   0  0  0  0  0  0  0  0  0  0  0  0
  147.1331  140.1551  153.8824 C   0  0  1  0  0  0  0  0  0  0  0  0
  146.2148  141.1602  153.5043 O   0  0  0  0  0  0  0  0  0  0  0  0
  146.8817  138.8919  153.0369 C   0  0  0  0  0  0  0  0  0  0  0  0
  145.9588  137.6181  153.9417 S   0  0  0  0  0  0  0  0  0  0  0  0
  145.4459  136.4551  152.7143 C   0  0  0  0  0  0  0  0  0  0  0  0
  146.2561  135.7187  151.9473 N   0  3  0  0  0  0  0  0  0  0  0  0
  145.5131  134.9274  151.1128 C   0  0  0  0  0  0  0  0  0  0  0  0
  144.1957  135.1979  151.3877 C   0  0  0  0  0  0  0  0  0  0  0  0
  144.1855  136.1444  152.3809 N   0  0  0  0  0  0  0  0  0  0  0  0
  143.0117  136.7502  153.0112 C   0  0  0  0  0  0  0  0  0  0  0  0
  150.2968  140.3848  155.5628 C   0  0  0  0  0  0  0  0  0  0  0  0
  150.3551  141.5757  156.3085 C   0  0  0  0  0  0  0  0  0  0  0  0
  151.2532  141.6763  157.3915 C   0  0  0  0  0  0  0  0  0  0  0  0
  151.3084  142.9658  158.1911 C   0  0  0  0  0  0  0  0  0  0  0  0
  153.6018  139.7210  159.0144 H   0  0  0  0  0  0  0  0  0  0  0  0
  152.5295  140.8694  159.8114 H   0  0  0  0  0  0  0  0  0  0  0  0
  153.7925  141.4476  158.7139 H   0  0  0  0  0  0  0  0  0  0  0  0
  152.6534  138.5482  157.2127 H   0  0  0  0  0  0  0  0  0  0  0  0
  149.5452  138.1391  153.3992 H   0  0  0  0  0  0  0  0  0  0  0  0
  148.5826  141.7659  154.0738 H   0  0  0  0  0  0  0  0  0  0  0  0
  148.8431  140.7521  152.6737 H   0  0  0  0  0  0  0  0  0  0  0  0
  146.9598  139.9214  154.9337 H   0  0  0  0  0  0  0  0  0  0  0  0
  145.4524  140.7454  153.1299 H   0  0  0  0  0  0  0  0  0  0  0  0
  146.3389  139.1447  152.1253 H   0  0  0  0  0  0  0  0  0  0  0  0
  147.8285  138.4462  152.7326 H   0  0  0  0  0  0  0  0  0  0  0  0
  145.9652  134.2487  150.4042 H   0  0  0  0  0  0  0  0  0  0  0  0
  143.2885  134.7959  150.9602 H   0  0  0  0  0  0  0  0  0  0  0  0
  142.1048  136.3243  152.5813 H   0  0  0  0  0  0  0  0  0  0  0  0
  143.0238  137.8265  152.8373 H   0  0  0  0  0  0  0  0  0  0  0  0
  143.0332  136.5482  154.0824 H   0  0  0  0  0  0  0  0  0  0  0  0
  149.7138  142.4048  156.0483 H   0  0  0  0  0  0  0  0  0  0  0  0
  150.6120  143.7077  157.7992 H   0  0  0  0  0  0  0  0  0  0  0  0
  152.3097  143.3952  158.1564 H   0  0  0  0  0  0  0  0  0  0  0  0
  151.0467  142.7800  159.2330 H   0  0  0  0  0  0  0  0  0  0  0  0
  147.2672  135.7442  151.9815 H   0  0  0  0  0  0  0  0  0  0  0  0
  1  2  1  0  0  0  0
  1 23  1  0  0  0  0
  1 24  1  0  0  0  0
  1 25  1  0  0  0  0
  2 21  1  0  0  0  0
  2  3  2  0  0  0  0
  3  4  1  0  0  0  0
  3 26  1  0  0  0  0
  4 19  2  0  0  0  0
  4  5  1  0  0  0  0
  5  6  2  0  0  0  0
  6  7  1  0  0  0  0
  6 27  1  0  0  0  0
  7  8  1  0  0  0  0
  7 19  1  0  0  0  0
  8  9  1  0  0  0  0
  8 28  1  0  0  0  0
  8 29  1  0  0  0  0
  9 10  1  0  0  0  0
  9 11  1  0  0  0  0
  9 30  1  0  0  0  0
 10 31  1  0  0  0  0
 11 12  1  0  0  0  0
 11 32  1  0  0  0  0
 11 33  1  0  0  0  0
 12 13  1  0  0  0  0
 13 17  1  0  0  0  0
 13 14  2  0  0  0  0
 14 15  1  0  0  0  0
 14 43  1  0  0  0  0
 15 16  2  0  0  0  0
 15 34  1  0  0  0  0
 16 17  1  0  0  0  0
 16 35  1  0  0  0  0
 17 18  1  0  0  0  0
 18 36  1  0  0  0  0
 18 37  1  0  0  0  0
 18 38  1  0  0  0  0
 19 20  1  0  0  0  0
 20 21  2  0  0  0  0
 20 39  1  0  0  0  0
 21 22  1  0  0  0  0
 22 40  1  0  0  0  0
 22 41  1  0  0  0  0
 22 42  1  0  0  0  0
M  CHG  1  14   1
M  END
> <s_m_source_file>
AV-unprocessed.smi

> <i_m_source_file_index>
609

> <i_lp_mmshare_version>
43012

> <i_f3d_flags>
0

> <s_epik_input>
W0NIM11jKFtjSF0xKWMoW0NIM10pW2NIXWMoYzEyKW4oW2NIXW4yKVtDSDJdW0NASF0oW09IXSlbQ0gyXVNjM25bY0hdW2NIXW4zW0NIM10=

> <s_epik_cmdline>
J2VwaWtfcHl0aG9uJywgJy1waCcsICc3LjAnLCAnLXRuJywgJzgnLCAnLW1hJywgJzIwMCcsICctbWV0YWxfYmluZGluZycsICctaW1hZScsICc8aW5maWxlLm1hZT4nLCAnLW9tYWUnLCAnPG91dGZpbGUubWFlPic=

> <r_lp_tautomer_probability>
1

> <r_epik_Ionization_Penalty>
0.215713

> <r_epik_Ionization_Penalty_Charging>
0

> <r_epik_Ionization_Penalty_Neutral>
0.215713

> <r_epik_State_Penalty>
0.19579

> <r_epik_Charging_Adjusted_Penalty>
0.19579

> <i_epik_Tot_Q>
1

> <i_epik_Tot_abs_Q>
1

> <r_epik_Metal_State_Penalty>
0.429751

> <b_epik_Metal_Only>
0

> <s_lp_Force_Field>
OPLS_2005

> <r_lp_Energy>
9.84341

> <b_lp_Chiralities_Consistent>
1

> <s_lp_Variant>
AV-unprocessed.smi:609-2

> <Gold.Version>
5.8.1

> <Gold.Id.Protein>
6NUR|6NUR_protein|mol2

> <Gold.PLP.Fitness>
53.8430

> <Gold.PLP.PLP>
-40.5246

> <Gold.PLP.part.hbond>
-2.0000

> <Gold.PLP.part.metal>
0.0000

> <Gold.PLP.part.buried>
-1.8651

> <Gold.PLP.part.nonpolar>
-36.8734

> <Gold.PLP.part.repulsive>
0.2036

> <Gold.PLP.ligand.clash>
0.0000

> <Gold.PLP.ligand.torsion>
0.8394

> <Gold.PLP.Chemscore.Hbond>
3.0000

> <Gold.PLP.Chemscore.CHOScore>
1.9919

> <Gold.PLP.Chemscore.Metal>
0.0000

> <Gold.Chemscore.Hbonds>
donor molecule, donor type, donor heavy atom, donor atom, acceptor molecule, acceptor atom, score
      L1  H    10    31       P1 10175  1.00
      L1  H    14    43       P1  7948  2.00
      L1  C     6    27       P1  7948  1.00
      L1  C     6    27       P1  7957  0.01
      L1  C    16    35       P1 10186  0.52

> <Gold.PLP.Chemscore.Internal.Correction>
0.0215

> <Gold.Rescore>
     Score         DG    S(hbond)    S(metal)    S(lipo)     H(rot)  DE(clash)    DE(int)     intcor
     15.01     -16.03       1.86        0.00      92.26       2.52       0.12       0.90       ----

> <Gold.Chemscore.Fitness>
15.0132

> <Gold.Chemscore.DG>
-16.0318

> <Gold.Chemscore.ZeroCoef>
-5.4800

> <Gold.Chemscore.Hbond>
1.8553

> <Gold.Chemscore.Metal>
0.0000

> <Gold.Chemscore.Lipo>
92.2572

> <Gold.Chemscore.Internal_Hbond>
0.0000

> <Gold.Chemscore.DEClash>
0.1234

> <Gold.Chemscore.DEInternal>
0.8951

> <Gold.Chemscore.Rot>
2.5153

> <Gold.Chemscore.Internal.Correction>
   9.000000E+99

> <Gold.Chemscore.Hbonds>
donor molecule, donor type, donor heavy atom, donor atom, acceptor molecule, acceptor atom, score
      L1  H    10    31       P1 10175  0.70
      L1  H    14    43       P1  7948  1.00

> <Gold.Chemscore.Hbond.Weighted>
-6.1969

> <Gold.Chemscore.Metal.Weighted>
-0.0000

> <Gold.Chemscore.Lipo.Weighted>
-10.7941

> <Gold.Chemscore.Internal_Hbond.Weighted>
0.0000

> <Gold.Chemscore.DEClash.Weighted>
0.1234

> <Gold.Chemscore.DEInternal.Weighted>
0.8951

> <Gold.Chemscore.Rot.Weighted>
6.4391

> <Gold.Chemscore.Internal.Correction.Weighted>
   9.000000E+99

> <Gold.Protein.RotatedTorsions>
[ 6907 6896 6895 6894 ] final  108.28 input  -60.11 | X-H torsion
[ 7974 7965 7964 7962 ] final -101.04 input  175.53 | X-H torsion
[ 8008 7997 7996 7995 ] final   83.73 input   59.86 | X-H torsion
[ 10167 10162 10161 10158 ] final  -54.68 input  -65.29 | X-H torsion
[ 10718 10713 10712 10709 ] final  -44.00 input   66.30 | X-H torsion
[ 10763 10752 10751 10750 ] final   60.65 input  -60.55 | X-H torsion
[ 11005 11000 10999 10996 ] final -111.19 input  -57.11 | X-H torsion

> <Gold.Protein.ActiveResidues>
 VAL166  LYS551  ARG553  GLY616  TRP617  ASP618  TYR619  PRO620  LYS621  CYS622 
 ASP623  PHE694  ASN695  SER759  ASP760  ASP761  ALA762  ILE779  LEU786  VAL792 
 PHE793  MET794  SER795  GLU796  ALA797  LYS798  CYS799  TRP800  GLU811  SER814 

> <Gold.Protein.RotatedAtoms>
  152.5119  133.9112  159.7488 H   0  0  0  0  0  0  0  0  0  0  0  0  # atno 6907 bound_to 6896
  150.9505  133.6546  159.2780 H   0  0  0  0  0  0  0  0  0  0  0  0  # atno 6908 bound_to 6896
  151.3827  135.0947  159.9554 H   0  0  0  0  0  0  0  0  0  0  0  0  # atno 6909 bound_to 6896
  145.2868  140.9342  143.2900 H   0  0  0  0  0  0  0  0  0  0  0  0  # atno 7974 bound_to 7965
  155.9277  140.3417  155.6224 H   0  0  0  0  0  0  0  0  0  0  0  0  # atno 8008 bound_to 7997
  155.7195  140.0782  157.2355 H   0  0  0  0  0  0  0  0  0  0  0  0  # atno 8009 bound_to 7997
  154.4080  140.1608  156.2374 H   0  0  0  0  0  0  0  0  0  0  0  0  # atno 8010 bound_to 7997
  140.6417  143.2511  151.4971 H   0  0  0  0  0  0  0  0  0  0  0  0  # atno 10167 bound_to 10162
  156.2431  130.4181  149.8737 H   0  0  0  0  0  0  0  0  0  0  0  0  # atno 10718 bound_to 10713
  152.9927  135.5528  154.5908 H   0  0  0  0  0  0  0  0  0  0  0  0  # atno 10763 bound_to 10752
  154.5270  135.2811  155.1215 H   0  0  0  0  0  0  0  0  0  0  0  0  # atno 10764 bound_to 10752
  154.2546  135.6392  153.5305 H   0  0  0  0  0  0  0  0  0  0  0  0  # atno 10765 bound_to 10752
  141.0749  133.9318  157.2411 H   0  0  0  0  0  0  0  0  0  0  0  0  # atno 11005 bound_to 11000
  144.9206  139.4416  143.6543 LP  0  0  0  0  0  0  0  0  0  0  0  0  # atno 17320 bound_to 7965
  146.3198  139.8065  142.8954 LP  0  0  0  0  0  0  0  0  0  0  0  0  # atno 17321 bound_to 7965
  139.5626  144.2119  152.1716 LP  0  0  0  0  0  0  0  0  0  0  0  0  # atno 17342 bound_to 10162
  140.1391  144.5218  150.6755 LP  0  0  0  0  0  0  0  0  0  0  0  0  # atno 17343 bound_to 10162
  156.6312  130.8666  151.3495 LP  0  0  0  0  0  0  0  0  0  0  0  0  # atno 17370 bound_to 10713
  157.7183  130.9526  150.1341 LP  0  0  0  0  0  0  0  0  0  0  0  0  # atno 17371 bound_to 10713
  139.9561  135.0165  156.9132 LP  0  0  0  0  0  0  0  0  0  0  0  0  # atno 17394 bound_to 11000
  140.5595  134.0548  155.7394 LP  0  0  0  0  0  0  0  0  0  0  0  0  # atno 17395 bound_to 11000

$$$$
