AV-unprocessed.smi:1964|AV-procd|sdf|7928|dock6
  -GOLD-   2272010 93D 1   1.00000     0.00000
 Structure written by MMmdl.
 46 48  0  0  0  0  0  0  0  0  1 V2000
  150.6407  141.8949  156.9832 C   0  0  0  0  0  0  0  0  0  0  0  0
  150.1233  141.0618  155.7965 C   0  0  2  0  0  0  0  0  0  0  0  0
  148.8753  141.7225  155.1758 C   0  0  0  0  0  0  0  0  0  0  0  0
  148.3408  140.9238  153.9773 C   0  0  0  0  0  0  0  0  0  0  0  0
  148.0379  139.4724  154.3733 C   0  0  0  0  0  0  0  0  0  0  0  0
  149.2756  138.7970  154.9811 C   0  0  0  0  0  0  0  0  0  0  0  0
  149.8253  139.5918  156.1850 C   0  0  1  0  0  0  0  0  0  0  0  0
  151.0320  138.9465  156.6978 N   0  0  0  0  0  0  0  0  0  0  0  0
  151.0808  138.0990  157.7365 C   0  0  0  0  0  0  0  0  0  0  0  0
  150.0845  137.7572  158.3755 O   0  0  0  0  0  0  0  0  0  0  0  0
  152.4766  137.5667  158.0958 C   0  0  0  0  0  0  0  0  0  0  0  0
  153.1174  138.2920  159.2148 N   0  0  0  0  0  0  0  0  0  0  0  0
  153.5756  137.5485  160.3323 C   0  0  0  0  0  0  0  0  0  0  0  0
  153.4687  136.3214  160.3657 O   0  0  0  0  0  0  0  0  0  0  0  0
  154.1548  138.3370  161.4176 C   0  0  0  0  0  0  0  0  0  0  0  0
  154.6006  137.6281  162.5710 C   0  0  0  0  0  0  0  0  0  0  0  0
  154.9402  137.0552  163.5175 N   0  0  0  0  0  0  0  0  0  0  0  0
  154.2541  139.6791  161.3252 C   0  0  0  0  0  0  0  0  0  0  0  0
  153.8368  140.3788  160.2139 N   0  0  0  0  0  0  0  0  0  0  0  0
  153.8033  141.8142  160.2014 C   0  0  0  0  0  0  0  0  0  0  0  0
  153.0896  142.5715  161.3042 C   0  0  0  0  0  0  0  0  0  0  0  0
  152.4930  142.5160  159.9192 C   0  0  0  0  0  0  0  0  0  0  0  0
  153.2069  139.7035  159.1457 C   0  0  0  0  0  0  0  0  0  0  0  0
  152.7380  140.3227  158.1871 O   0  0  0  0  0  0  0  0  0  0  0  0
  149.9126  141.9217  157.7943 H   0  0  0  0  0  0  0  0  0  0  0  0
  150.8385  142.9236  156.6806 H   0  0  0  0  0  0  0  0  0  0  0  0
  151.5713  141.4935  157.3846 H   0  0  0  0  0  0  0  0  0  0  0  0
  150.9056  141.0582  155.0356 H   0  0  0  0  0  0  0  0  0  0  0  0
  148.0920  141.8106  155.9302 H   0  0  0  0  0  0  0  0  0  0  0  0
  149.1106  142.7388  154.8576 H   0  0  0  0  0  0  0  0  0  0  0  0
  147.4399  141.3980  153.5867 H   0  0  0  0  0  0  0  0  0  0  0  0
  149.0738  140.9390  153.1696 H   0  0  0  0  0  0  0  0  0  0  0  0
  147.2196  139.4520  155.0942 H   0  0  0  0  0  0  0  0  0  0  0  0
  147.6976  138.9117  153.5022 H   0  0  0  0  0  0  0  0  0  0  0  0
  149.0198  137.7811  155.2846 H   0  0  0  0  0  0  0  0  0  0  0  0
  150.0483  138.7035  154.2165 H   0  0  0  0  0  0  0  0  0  0  0  0
  149.0680  139.5986  156.9719 H   0  0  0  0  0  0  0  0  0  0  0  0
  151.8989  139.1714  156.2314 H   0  0  0  0  0  0  0  0  0  0  0  0
  152.3952  136.5013  158.3173 H   0  0  0  0  0  0  0  0  0  0  0  0
  153.0996  137.6027  157.2006 H   0  0  0  0  0  0  0  0  0  0  0  0
  154.6820  140.2294  162.1509 H   0  0  0  0  0  0  0  0  0  0  0  0
  154.6926  142.2943  159.7968 H   0  0  0  0  0  0  0  0  0  0  0  0
  152.5886  141.9991  162.0827 H   0  0  0  0  0  0  0  0  0  0  0  0
  153.5265  143.5142  161.6274 H   0  0  0  0  0  0  0  0  0  0  0  0
  152.5292  143.4232  159.3198 H   0  0  0  0  0  0  0  0  0  0  0  0
  151.6022  141.9052  159.7852 H   0  0  0  0  0  0  0  0  0  0  0  0
  1  2  1  0  0  0  0
  1 25  1  0  0  0  0
  1 26  1  0  0  0  0
  1 27  1  0  0  0  0
  2  7  1  0  0  0  0
  2  3  1  0  0  0  0
  2 28  1  0  0  0  0
  3  4  1  0  0  0  0
  3 29  1  0  0  0  0
  3 30  1  0  0  0  0
  4  5  1  0  0  0  0
  4 31  1  0  0  0  0
  4 32  1  0  0  0  0
  5  6  1  0  0  0  0
  5 33  1  0  0  0  0
  5 34  1  0  0  0  0
  6  7  1  0  0  0  0
  6 35  1  0  0  0  0
  6 36  1  0  0  0  0
  7  8  1  0  0  0  0
  7 37  1  0  0  0  0
  8  9  1  0  0  0  0
  8 38  1  0  0  0  0
  9 10  2  0  0  0  0
  9 11  1  0  0  0  0
 11 12  1  0  0  0  0
 11 39  1  0  0  0  0
 11 40  1  0  0  0  0
 12 23  1  0  0  0  0
 12 13  1  0  0  0  0
 13 14  2  0  0  0  0
 13 15  1  0  0  0  0
 15 16  1  0  0  0  0
 15 18  2  0  0  0  0
 16 17  3  0  0  0  0
 18 19  1  0  0  0  0
 18 41  1  0  0  0  0
 19 20  1  0  0  0  0
 19 23  1  0  0  0  0
 20 22  1  0  0  0  0
 20 21  1  0  0  0  0
 20 42  1  0  0  0  0
 21 22  1  0  0  0  0
 21 43  1  0  0  0  0
 21 44  1  0  0  0  0
 22 45  1  0  0  0  0
 22 46  1  0  0  0  0
 23 24  2  0  0  0  0
M  END
> <s_m_source_file>
AV-unprocessed.smi

> <i_m_source_file_index>
1964

> <i_lp_mmshare_version>
43012

> <i_f3d_flags>
0

> <s_epik_input>
W0NIM11bQ0BASF0xW0NIMl1bQ0gyXVtDSDJdW0NIMl1bQ0BIXTFbTkhdQyg9TylbQ0gyXW4yYyg9TyljKEMjTilbY0hdbihjMj1PKVtDSF0zW0NIMl1bQ0gyXTM=

> <s_epik_cmdline>
J2VwaWtfcHl0aG9uJywgJy1waCcsICc3LjAnLCAnLXRuJywgJzgnLCAnLW1hJywgJzIwMCcsICctbWV0YWxfYmluZGluZycsICctaW1hZScsICc8aW5maWxlLm1hZT4nLCAnLW9tYWUnLCAnPG91dGZpbGUubWFlPic=

> <r_lp_tautomer_probability>
1

> <r_epik_Ionization_Penalty>
1.91372e-08

> <r_epik_Ionization_Penalty_Charging>
9.0283e-11

> <r_epik_Ionization_Penalty_Neutral>
1.90469e-08

> <r_epik_State_Penalty>
-0

> <r_epik_Charging_Adjusted_Penalty>
9.0283e-11

> <i_epik_Tot_Q>
0

> <i_epik_Tot_abs_Q>
0

> <r_epik_Metal_State_Penalty>
-0

> <b_epik_Metal_Only>
0

> <s_lp_Force_Field>
OPLS_2005

> <r_lp_Energy>
35.656

> <b_lp_Chiralities_Consistent>
1

> <s_lp_Variant>
AV-unprocessed.smi:1964-1

> <Gold.Version>
5.8.1

> <Gold.Id.Protein>
6NUR|6NUR_protein|mol2

> <Gold.PLP.Fitness>
45.2922

> <Gold.PLP.PLP>
-40.8289

> <Gold.PLP.part.hbond>
-2.0000

> <Gold.PLP.part.metal>
0.0000

> <Gold.PLP.part.buried>
-0.5135

> <Gold.PLP.part.nonpolar>
-37.7214

> <Gold.PLP.part.repulsive>
0.0836

> <Gold.PLP.ligand.clash>
0.0000

> <Gold.PLP.ligand.torsion>
0.7684

> <Gold.PLP.Chemscore.Hbond>
1.9280

> <Gold.PLP.Chemscore.CHOScore>
0.0000

> <Gold.PLP.Chemscore.Metal>
0.0000

> <Gold.Chemscore.Hbonds>
donor molecule, donor type, donor heavy atom, donor atom, acceptor molecule, acceptor atom, score
      P1  H  6896  6907       L1    14  1.00
      P1  H  7997  8009       L1    24  0.44

> <Gold.PLP.Chemscore.Internal.Correction>
0.2160

> <Gold.Rescore>
     Score         DG    S(hbond)    S(metal)    S(lipo)     H(rot)  DE(clash)    DE(int)     intcor
     12.80     -18.50       1.87        0.00      95.17       1.70       0.18       5.53       ----

> <Gold.Chemscore.Fitness>
12.7952

> <Gold.Chemscore.DG>
-18.5003

> <Gold.Chemscore.ZeroCoef>
-5.4800

> <Gold.Chemscore.Hbond>
1.8704

> <Gold.Chemscore.Metal>
0.0000

> <Gold.Chemscore.Lipo>
95.1694

> <Gold.Chemscore.Internal_Hbond>
0.0000

> <Gold.Chemscore.DEClash>
0.1796

> <Gold.Chemscore.DEInternal>
5.5255

> <Gold.Chemscore.Rot>
1.7038

> <Gold.Chemscore.Internal.Correction>
   9.000000E+99

> <Gold.Chemscore.Hbonds>
donor molecule, donor type, donor heavy atom, donor atom, acceptor molecule, acceptor atom, score
      P1  H  6896  6907       L1    14  1.00
      P1  H  7997  8009       L1    24  0.06

> <Gold.Chemscore.Hbond.Weighted>
-6.2473

> <Gold.Chemscore.Metal.Weighted>
-0.0000

> <Gold.Chemscore.Lipo.Weighted>
-11.1348

> <Gold.Chemscore.Internal_Hbond.Weighted>
0.0000

> <Gold.Chemscore.DEClash.Weighted>
0.1796

> <Gold.Chemscore.DEInternal.Weighted>
5.5255

> <Gold.Chemscore.Rot.Weighted>
4.3618

> <Gold.Chemscore.Internal.Correction.Weighted>
   9.000000E+99

> <Gold.Protein.RotatedTorsions>
[ 6907 6896 6895 6894 ] final   45.63 input  -60.11 | X-H torsion
[ 7974 7965 7964 7962 ] final  134.90 input  175.53 | X-H torsion
[ 8008 7997 7996 7995 ] final  166.55 input   59.86 | X-H torsion
[ 10167 10162 10161 10158 ] final   21.41 input  -65.29 | X-H torsion
[ 10718 10713 10712 10709 ] final  -81.64 input   66.30 | X-H torsion
[ 10763 10752 10751 10750 ] final  -63.81 input  -60.55 | X-H torsion
[ 11005 11000 10999 10996 ] final  170.33 input  -57.11 | X-H torsion

> <Gold.Protein.ActiveResidues>
 VAL166  LYS551  ARG553  GLY616  TRP617  ASP618  TYR619  PRO620  LYS621  CYS622 
 ASP623  PHE694  ASN695  SER759  ASP760  ASP761  ALA762  ILE779  LEU786  VAL792 
 PHE793  MET794  SER795  GLU796  ALA797  LYS798  CYS799  TRP800  GLU811  SER814 

> <Gold.Protein.RotatedAtoms>
  152.2468  134.8173  160.0451 H   0  0  0  0  0  0  0  0  0  0  0  0  # atno 6907 bound_to 6896
  151.8867  133.3502  159.3793 H   0  0  0  0  0  0  0  0  0  0  0  0  # atno 6908 bound_to 6896
  150.7071  134.4891  159.5551 H   0  0  0  0  0  0  0  0  0  0  0  0  # atno 6909 bound_to 6896
  144.9717  139.4598  143.5429 H   0  0  0  0  0  0  0  0  0  0  0  0  # atno 7974 bound_to 7965
  156.1709  140.1640  156.8449 H   0  0  0  0  0  0  0  0  0  0  0  0  # atno 8008 bound_to 7997
  154.5256  140.0768  156.8286 H   0  0  0  0  0  0  0  0  0  0  0  0  # atno 8009 bound_to 7997
  155.3514  140.3390  155.4241 H   0  0  0  0  0  0  0  0  0  0  0  0  # atno 8010 bound_to 7997
  140.5429  143.9646  150.6530 H   0  0  0  0  0  0  0  0  0  0  0  0  # atno 10167 bound_to 10162
  156.0047  130.4610  150.3983 H   0  0  0  0  0  0  0  0  0  0  0  0  # atno 10718 bound_to 10713
  154.3207  135.6197  153.5506 H   0  0  0  0  0  0  0  0  0  0  0  0  # atno 10763 bound_to 10752
  152.9820  135.5723  154.5073 H   0  0  0  0  0  0  0  0  0  0  0  0  # atno 10764 bound_to 10752
  154.4740  135.2860  155.1597 H   0  0  0  0  0  0  0  0  0  0  0  0  # atno 10765 bound_to 10752
  140.3072  134.7547  157.3963 H   0  0  0  0  0  0  0  0  0  0  0  0  # atno 11005 bound_to 11000
  146.3384  139.8934  142.8805 LP  0  0  0  0  0  0  0  0  0  0  0  0  # atno 17320 bound_to 7965
  145.2548  141.0057  143.3860 LP  0  0  0  0  0  0  0  0  0  0  0  0  # atno 17321 bound_to 7965
  140.3051  143.3234  152.0934 LP  0  0  0  0  0  0  0  0  0  0  0  0  # atno 17342 bound_to 10162
  139.4996  144.6672  151.6329 LP  0  0  0  0  0  0  0  0  0  0  0  0  # atno 17343 bound_to 10162
  157.2053  131.0448  151.2628 LP  0  0  0  0  0  0  0  0  0  0  0  0  # atno 17370 bound_to 10713
  157.3938  130.7296  149.6717 LP  0  0  0  0  0  0  0  0  0  0  0  0  # atno 17371 bound_to 10713
  140.1057  134.5413  155.8312 LP  0  0  0  0  0  0  0  0  0  0  0  0  # atno 17394 bound_to 11000
  141.2116  133.6708  156.6594 LP  0  0  0  0  0  0  0  0  0  0  0  0  # atno 17395 bound_to 11000

$$$$
