AV-unprocessed.smi:1258|AV-procd|sdf|5288|dock2
  -GOLD-   22720 4403D 1   1.00000     0.00000
 Structure written by MMmdl.
 33 34  0  0  0  0  0  0  0  0  1 V2000
  153.5239  142.0462  161.4386 C   0  0  0  0  0  0  0  0  0  0  0  0
  152.3905  142.6110  160.5704 C   0  0  1  0  0  0  0  0  0  0  0  0
  152.5235  144.1355  160.3922 C   0  0  0  0  0  0  0  0  0  0  0  0
  151.3910  144.7016  159.5213 C   0  0  0  0  0  0  0  0  0  0  0  0
  151.3324  143.9979  158.1569 C   0  0  0  0  0  0  0  0  0  0  0  0
  151.1929  142.4734  158.3193 C   0  0  1  0  0  0  0  0  0  0  0  0
  151.1975  141.8408  157.0042 N   0  0  0  0  0  0  0  0  0  0  0  0
  150.4081  140.8222  156.6285 C   0  0  0  0  0  0  0  0  0  0  0  0
  149.5870  140.2869  157.3727 O   0  0  0  0  0  0  0  0  0  0  0  0
  150.5674  140.3313  155.1899 C   0  0  0  0  0  0  0  0  0  0  0  0
  151.4137  139.1548  155.1346 N   0  0  0  0  0  0  0  0  0  0  0  0
  151.1555  137.9072  154.7368 C   0  0  0  0  0  0  0  0  0  0  0  0
  152.2240  137.1314  154.8384 N   0  0  0  0  0  0  0  0  0  0  0  0
  153.1905  137.9897  155.3360 N   0  0  0  0  0  0  0  0  0  0  0  0
  152.7157  139.1920  155.5133 N   0  0  0  0  0  0  0  0  0  0  0  0
  152.3282  141.9100  159.1992 C   0  0  0  0  0  0  0  0  0  0  0  0
  154.4974  142.2099  160.9755 H   0  0  0  0  0  0  0  0  0  0  0  0
  153.4041  140.9735  161.5916 H   0  0  0  0  0  0  0  0  0  0  0  0
  153.5387  142.5190  162.4211 H   0  0  0  0  0  0  0  0  0  0  0  0
  151.4513  142.4144  161.0896 H   0  0  0  0  0  0  0  0  0  0  0  0
  152.5155  144.6275  161.3655 H   0  0  0  0  0  0  0  0  0  0  0  0
  153.4854  144.3718  159.9352 H   0  0  0  0  0  0  0  0  0  0  0  0
  150.4374  144.5797  160.0364 H   0  0  0  0  0  0  0  0  0  0  0  0
  151.5312  145.7738  159.3803 H   0  0  0  0  0  0  0  0  0  0  0  0
  150.4962  144.3907  157.5770 H   0  0  0  0  0  0  0  0  0  0  0  0
  152.2367  144.2299  157.5921 H   0  0  0  0  0  0  0  0  0  0  0  0
  150.2366  142.2717  158.8059 H   0  0  0  0  0  0  0  0  0  0  0  0
  151.8417  142.2160  156.3228 H   0  0  0  0  0  0  0  0  0  0  0  0
  149.5915  140.1005  154.7592 H   0  0  0  0  0  0  0  0  0  0  0  0
  151.0151  141.1134  154.5755 H   0  0  0  0  0  0  0  0  0  0  0  0
  150.1950  137.5726  154.3733 H   0  0  0  0  0  0  0  0  0  0  0  0
  153.2834  142.0283  158.6851 H   0  0  0  0  0  0  0  0  0  0  0  0
  152.1874  140.8380  159.3438 H   0  0  0  0  0  0  0  0  0  0  0  0
  1  2  1  0  0  0  0
  1 17  1  0  0  0  0
  1 18  1  0  0  0  0
  1 19  1  0  0  0  0
  2 16  1  0  0  0  0
  2  3  1  0  0  0  0
  2 20  1  0  0  0  0
  3  4  1  0  0  0  0
  3 21  1  0  0  0  0
  3 22  1  0  0  0  0
  4  5  1  0  0  0  0
  4 23  1  0  0  0  0
  4 24  1  0  0  0  0
  5  6  1  0  0  0  0
  5 25  1  0  0  0  0
  5 26  1  0  0  0  0
  6  7  1  0  0  0  0
  6 16  1  0  0  0  0
  6 27  1  0  0  0  0
  7  8  1  0  0  0  0
  7 28  1  0  0  0  0
  8  9  2  0  0  0  0
  8 10  1  0  0  0  0
 10 11  1  0  0  0  0
 10 29  1  0  0  0  0
 10 30  1  0  0  0  0
 11 15  1  0  0  0  0
 11 12  1  0  0  0  0
 12 13  2  0  0  0  0
 12 31  1  0  0  0  0
 13 14  1  0  0  0  0
 14 15  2  0  0  0  0
 16 32  1  0  0  0  0
 16 33  1  0  0  0  0
M  END
> <s_m_source_file>
AV-unprocessed.smi

> <i_m_source_file_index>
1258

> <i_lp_mmshare_version>
43012

> <i_f3d_flags>
0

> <s_epik_input>
W0NIM11bQ0BASF0xW0NIMl1bQ0gyXVtDSDJdW0NASF0oW0NIMl0xKVtOSF1DKD1PKVtDSDJdbjJbY0hdbm5uMg==

> <s_epik_cmdline>
J2VwaWtfcHl0aG9uJywgJy1waCcsICc3LjAnLCAnLXRuJywgJzgnLCAnLW1hJywgJzIwMCcsICctbWV0YWxfYmluZGluZycsICctaW1hZScsICc8aW5maWxlLm1hZT4nLCAnLW9tYWUnLCAnPG91dGZpbGUubWFlPic=

> <r_lp_tautomer_probability>
1

> <r_epik_Ionization_Penalty>
5.03816e-07

> <r_epik_Ionization_Penalty_Charging>
0

> <r_epik_Ionization_Penalty_Neutral>
5.03816e-07

> <r_epik_State_Penalty>
-0

> <r_epik_Charging_Adjusted_Penalty>
0

> <i_epik_Tot_Q>
0

> <i_epik_Tot_abs_Q>
0

> <r_epik_Metal_State_Penalty>
-0

> <b_epik_Metal_Only>
0

> <s_lp_Force_Field>
OPLS_2005

> <r_lp_Energy>
10.5543

> <b_lp_Chiralities_Consistent>
1

> <s_lp_Variant>
AV-unprocessed.smi:1258-2

> <Gold.Version>
5.8.1

> <Gold.Id.Protein>
6NUR|6NUR_protein|mol2

> <Gold.PLP.Fitness>
40.6572

> <Gold.PLP.PLP>
-36.5531

> <Gold.PLP.part.hbond>
-3.0000

> <Gold.PLP.part.metal>
0.0000

> <Gold.PLP.part.buried>
-3.3688

> <Gold.PLP.part.nonpolar>
-30.5214

> <Gold.PLP.part.repulsive>
0.1951

> <Gold.PLP.ligand.clash>
0.0000

> <Gold.PLP.ligand.torsion>
0.6025

> <Gold.PLP.Chemscore.Hbond>
1.7680

> <Gold.PLP.Chemscore.CHOScore>
0.0000

> <Gold.PLP.Chemscore.Metal>
0.0000

> <Gold.Chemscore.Hbonds>
donor molecule, donor type, donor heavy atom, donor atom, acceptor molecule, acceptor atom, score
      P1  H  7997  8010       L1    15  1.00
      P1  H 10752 10764       L1    13  0.82

> <Gold.PLP.Chemscore.Internal.Correction>
0.0050

> <Gold.Rescore>
     Score         DG    S(hbond)    S(metal)    S(lipo)     H(rot)  DE(clash)    DE(int)     intcor
     14.80     -15.42       1.43        0.00      86.01       1.92       0.08       0.54       ----

> <Gold.Chemscore.Fitness>
14.8016

> <Gold.Chemscore.DG>
-15.4232

> <Gold.Chemscore.ZeroCoef>
-5.4800

> <Gold.Chemscore.Hbond>
1.4333

> <Gold.Chemscore.Metal>
0.0000

> <Gold.Chemscore.Lipo>
86.0113

> <Gold.Chemscore.Internal_Hbond>
0.0000

> <Gold.Chemscore.DEClash>
0.0824

> <Gold.Chemscore.DEInternal>
0.5392

> <Gold.Chemscore.Rot>
1.9169

> <Gold.Chemscore.Internal.Correction>
   9.000000E+99

> <Gold.Chemscore.Hbonds>
donor molecule, donor type, donor heavy atom, donor atom, acceptor molecule, acceptor atom, score
      P1  H  7997  8010       L1    15  0.24
      P1  H 10752 10764       L1    13  0.57

> <Gold.Chemscore.Hbond.Weighted>
-4.7872

> <Gold.Chemscore.Metal.Weighted>
-0.0000

> <Gold.Chemscore.Lipo.Weighted>
-10.0633

> <Gold.Chemscore.Internal_Hbond.Weighted>
0.0000

> <Gold.Chemscore.DEClash.Weighted>
0.0824

> <Gold.Chemscore.DEInternal.Weighted>
0.5392

> <Gold.Chemscore.Rot.Weighted>
4.9073

> <Gold.Chemscore.Internal.Correction.Weighted>
   9.000000E+99

> <Gold.Protein.RotatedTorsions>
[ 6907 6896 6895 6894 ] final -128.45 input  -60.11 | X-H torsion
[ 7974 7965 7964 7962 ] final   21.72 input  175.53 | X-H torsion
[ 8008 7997 7996 7995 ] final   81.70 input   59.86 | X-H torsion
[ 10167 10162 10161 10158 ] final -114.63 input  -65.29 | X-H torsion
[ 10718 10713 10712 10709 ] final   16.53 input   66.30 | X-H torsion
[ 10763 10752 10751 10750 ] final  -68.85 input  -60.55 | X-H torsion
[ 11005 11000 10999 10996 ] final  -14.22 input  -57.11 | X-H torsion

> <Gold.Protein.ActiveResidues>
 VAL166  LYS551  ARG553  GLY616  TRP617  ASP618  TYR619  PRO620  LYS621  CYS622 
 ASP623  PHE694  ASN695  SER759  ASP760  ASP761  ALA762  ILE779  LEU786  VAL792 
 PHE793  MET794  SER795  GLU796  ALA797  LYS798  CYS799  TRP800  GLU811  SER814 

> <Gold.Protein.RotatedAtoms>
  150.9181  133.6914  159.2838 H   0  0  0  0  0  0  0  0  0  0  0  0  # atno 6907 bound_to 6896
  151.4378  135.1015  159.9671 H   0  0  0  0  0  0  0  0  0  0  0  0  # atno 6908 bound_to 6896
  152.4965  133.8596  159.7298 H   0  0  0  0  0  0  0  0  0  0  0  0  # atno 6909 bound_to 6896
  146.2059  139.7987  142.8726 H   0  0  0  0  0  0  0  0  0  0  0  0  # atno 7974 bound_to 7965
  155.9006  140.3433  155.6024 H   0  0  0  0  0  0  0  0  0  0  0  0  # atno 8008 bound_to 7997
  155.7504  140.0819  157.2223 H   0  0  0  0  0  0  0  0  0  0  0  0  # atno 8009 bound_to 7997
  154.4043  140.1554  156.2705 H   0  0  0  0  0  0  0  0  0  0  0  0  # atno 8010 bound_to 7997
  140.0989  143.4631  152.1824 H   0  0  0  0  0  0  0  0  0  0  0  0  # atno 10167 bound_to 10162
  157.0692  130.6341  149.5802 H   0  0  0  0  0  0  0  0  0  0  0  0  # atno 10718 bound_to 10713
  154.3950  135.6044  153.5864 H   0  0  0  0  0  0  0  0  0  0  0  0  # atno 10763 bound_to 10752
  152.9787  135.5893  154.4252 H   0  0  0  0  0  0  0  0  0  0  0  0  # atno 10764 bound_to 10752
  154.4042  135.2843  155.2055 H   0  0  0  0  0  0  0  0  0  0  0  0  # atno 10765 bound_to 10752
  140.7842  133.8339  155.9320 H   0  0  0  0  0  0  0  0  0  0  0  0  # atno 11005 bound_to 11000
  145.3319  141.0268  143.3441 LP  0  0  0  0  0  0  0  0  0  0  0  0  # atno 17320 bound_to 7965
  144.8793  139.4927  143.6731 LP  0  0  0  0  0  0  0  0  0  0  0  0  # atno 17321 bound_to 7965
  139.5682  144.7448  151.3963 LP  0  0  0  0  0  0  0  0  0  0  0  0  # atno 17342 bound_to 10162
  140.6988  143.7682  150.7370 LP  0  0  0  0  0  0  0  0  0  0  0  0  # atno 17343 bound_to 10162
  155.9955  130.5022  150.7463 LP  0  0  0  0  0  0  0  0  0  0  0  0  # atno 17370 bound_to 10713
  157.4892  131.0909  151.0447 LP  0  0  0  0  0  0  0  0  0  0  0  0  # atno 17371 bound_to 10713
  140.9453  134.1849  157.4768 LP  0  0  0  0  0  0  0  0  0  0  0  0  # atno 17394 bound_to 11000
  139.8739  134.9888  156.5427 LP  0  0  0  0  0  0  0  0  0  0  0  0  # atno 17395 bound_to 11000

$$$$
