AV-unprocessed.smi:462|AV-procd|sdf|2633|dock10
  -GOLD-   2262023 43D 1   1.00000     0.00000
 Structure written by MMmdl.
 47 49  0  0  0  0  0  0  0  0  2 V2000
  154.9450  133.0019  161.0639 C   0  0  0  0  0  0  0  0  0  0  0  0
  154.4155  134.2917  160.7979 O   0  0  0  0  0  0  0  0  0  0  0  0
  154.4044  135.2191  161.8198 C   0  0  0  0  0  0  0  0  0  0  0  0
  154.9336  134.9734  163.1121 C   0  0  0  0  0  0  0  0  0  0  0  0
  154.8897  135.9717  164.1024 C   0  0  0  0  0  0  0  0  0  0  0  0
  154.3172  137.2226  163.8153 C   0  0  0  0  0  0  0  0  0  0  0  0
  153.7892  137.4773  162.5366 C   0  0  0  0  0  0  0  0  0  0  0  0
  153.8313  136.4788  161.5320 C   0  0  0  0  0  0  0  0  0  0  0  0
  153.3359  136.6546  160.2589 O   0  0  0  0  0  0  0  0  0  0  0  0
  152.6327  137.8496  159.9524 C   0  0  0  0  0  0  0  0  0  0  0  0
  153.4339  138.6536  158.9145 C   0  0  0  0  0  0  0  0  0  0  0  0
  152.6832  139.8120  158.3952 N   0  0  0  0  0  0  0  0  0  0  0  0
  151.9892  139.9841  157.2258 C   0  0  0  0  0  0  0  0  0  0  0  0
  151.8503  139.0153  156.0769 C   0  0  0  0  0  0  0  0  0  0  0  0
  151.2850  137.6630  156.5539 C   0  0  0  0  0  0  0  0  0  0  0  0
  150.9456  139.6232  154.9917 C   0  0  0  0  0  0  0  0  0  0  0  0
  153.0961  138.7186  155.4794 O   0  0  0  0  0  0  0  0  0  0  0  0
  151.4884  141.2544  157.2511 N   0  3  0  0  0  0  0  0  0  0  0  0
  151.8385  141.8885  158.4412 C   0  0  0  0  0  0  0  0  0  0  0  0
  151.5440  143.1638  158.9134 C   0  0  0  0  0  0  0  0  0  0  0  0
  152.0601  143.5041  160.1807 C   0  0  0  0  0  0  0  0  0  0  0  0
  152.8397  142.5941  160.9229 C   0  0  0  0  0  0  0  0  0  0  0  0
  153.1353  141.3066  160.4293 C   0  0  0  0  0  0  0  0  0  0  0  0
  152.6137  140.9730  159.1785 C   0  0  0  0  0  0  0  0  0  0  0  0
  154.8972  132.4015  160.1556 H   0  0  0  0  0  0  0  0  0  0  0  0
  154.3691  132.4845  161.8322 H   0  0  0  0  0  0  0  0  0  0  0  0
  155.9910  133.0554  161.3685 H   0  0  0  0  0  0  0  0  0  0  0  0
  155.3801  134.0253  163.3696 H   0  0  0  0  0  0  0  0  0  0  0  0
  155.2958  135.7764  165.0841 H   0  0  0  0  0  0  0  0  0  0  0  0
  154.2823  137.9878  164.5765 H   0  0  0  0  0  0  0  0  0  0  0  0
  153.3534  138.4469  162.3500 H   0  0  0  0  0  0  0  0  0  0  0  0
  151.6454  137.6130  159.5540 H   0  0  0  0  0  0  0  0  0  0  0  0
  152.4972  138.4478  160.8541 H   0  0  0  0  0  0  0  0  0  0  0  0
  154.3762  139.0030  159.3369 H   0  0  0  0  0  0  0  0  0  0  0  0
  153.7020  138.0153  158.0738 H   0  0  0  0  0  0  0  0  0  0  0  0
  150.2886  137.7723  156.9834 H   0  0  0  0  0  0  0  0  0  0  0  0
  151.9255  137.2088  157.3113 H   0  0  0  0  0  0  0  0  0  0  0  0
  151.2014  136.9546  155.7286 H   0  0  0  0  0  0  0  0  0  0  0  0
  149.9530  139.8432  155.3860 H   0  0  0  0  0  0  0  0  0  0  0  0
  150.8195  138.9412  154.1501 H   0  0  0  0  0  0  0  0  0  0  0  0
  151.3540  140.5547  154.5991 H   0  0  0  0  0  0  0  0  0  0  0  0
  152.9625  138.0603  154.8146 H   0  0  0  0  0  0  0  0  0  0  0  0
  150.9479  143.8628  158.3454 H   0  0  0  0  0  0  0  0  0  0  0  0
  151.8542  144.4818  160.5914 H   0  0  0  0  0  0  0  0  0  0  0  0
  153.2175  142.8869  161.8916 H   0  0  0  0  0  0  0  0  0  0  0  0
  153.7272  140.6165  161.0118 H   0  0  0  0  0  0  0  0  0  0  0  0
  150.9385  141.6539  156.5020 H   0  0  0  0  0  0  0  0  0  0  0  0
  1  2  1  0  0  0  0
  1 25  1  0  0  0  0
  1 26  1  0  0  0  0
  1 27  1  0  0  0  0
  2  3  1  0  0  0  0
  3  8  1  0  0  0  0
  3  4  2  0  0  0  0
  4  5  1  0  0  0  0
  4 28  1  0  0  0  0
  5  6  2  0  0  0  0
  5 29  1  0  0  0  0
  6  7  1  0  0  0  0
  6 30  1  0  0  0  0
  7  8  2  0  0  0  0
  7 31  1  0  0  0  0
  8  9  1  0  0  0  0
  9 10  1  0  0  0  0
 10 11  1  0  0  0  0
 10 32  1  0  0  0  0
 10 33  1  0  0  0  0
 11 12  1  0  0  0  0
 11 34  1  0  0  0  0
 11 35  1  0  0  0  0
 12 24  1  0  0  0  0
 12 13  1  0  0  0  0
 13 14  1  0  0  0  0
 13 18  2  0  0  0  0
 14 15  1  0  0  0  0
 14 16  1  0  0  0  0
 14 17  1  0  0  0  0
 15 36  1  0  0  0  0
 15 37  1  0  0  0  0
 15 38  1  0  0  0  0
 16 39  1  0  0  0  0
 16 40  1  0  0  0  0
 16 41  1  0  0  0  0
 17 42  1  0  0  0  0
 18 19  1  0  0  0  0
 18 47  1  0  0  0  0
 19 24  2  0  0  0  0
 19 20  1  0  0  0  0
 20 21  2  0  0  0  0
 20 43  1  0  0  0  0
 21 22  1  0  0  0  0
 21 44  1  0  0  0  0
 22 23  2  0  0  0  0
 22 45  1  0  0  0  0
 23 24  1  0  0  0  0
 23 46  1  0  0  0  0
M  CHG  1  18   1
M  END
> <s_m_source_file>
AV-unprocessed.smi

> <i_m_source_file_index>
462

> <i_lp_mmshare_version>
43012

> <i_f3d_flags>
0

> <s_epik_input>
W0NIM11PYzFbY0hdW2NIXVtjSF1bY0hdYzFPW0NIMl1bQ0gyXW4oYyhuMilDKFtDSDNdKShbQ0gzXSlbT0hdKWMoYzIzKVtjSF1bY0hdW2NIXVtjSF0z

> <s_epik_cmdline>
J2VwaWtfcHl0aG9uJywgJy1waCcsICc3LjAnLCAnLXRuJywgJzgnLCAnLW1hJywgJzIwMCcsICctbWV0YWxfYmluZGluZycsICctaW1hZScsICc8aW5maWxlLm1hZT4nLCAnLW9tYWUnLCAnPG91dGZpbGUubWFlPic=

> <r_lp_tautomer_probability>
1

> <r_epik_Ionization_Penalty>
1.32796

> <r_epik_Ionization_Penalty_Charging>
1.32796

> <r_epik_Ionization_Penalty_Neutral>
1.51811e-06

> <r_epik_State_Penalty>
1.40413

> <r_epik_Charging_Adjusted_Penalty>
2.73209

> <i_epik_Tot_Q>
1

> <i_epik_Tot_abs_Q>
1

> <r_epik_Metal_State_Penalty>
5.43878

> <b_epik_Metal_Only>
0

> <s_lp_Force_Field>
OPLS_2005

> <r_lp_Energy>
22.2215

> <b_lp_Chiralities_Consistent>
1

> <s_lp_Variant>
AV-unprocessed.smi:462-2

> <Gold.Version>
5.8.1

> <Gold.Id.Protein>
6NUR|6NUR_protein|mol2

> <Gold.PLP.Fitness>
49.5907

> <Gold.PLP.PLP>
-45.6470

> <Gold.PLP.part.hbond>
-2.4138

> <Gold.PLP.part.metal>
0.0000

> <Gold.PLP.part.buried>
-3.2554

> <Gold.PLP.part.nonpolar>
-39.3702

> <Gold.PLP.part.repulsive>
0.0906

> <Gold.PLP.ligand.clash>
0.0000

> <Gold.PLP.ligand.torsion>
0.7709

> <Gold.PLP.Chemscore.Hbond>
1.7963

> <Gold.PLP.Chemscore.CHOScore>
0.0000

> <Gold.PLP.Chemscore.Metal>
0.0000

> <Gold.Chemscore.Hbonds>
donor molecule, donor type, donor heavy atom, donor atom, acceptor molecule, acceptor atom, score
      P1  H  6896  6909       L1     9  0.91
      P1  H  7997  8010       L1    17  1.00

> <Gold.PLP.Chemscore.Internal.Correction>
0.0966

> <Gold.Rescore>
     Score         DG    S(hbond)    S(metal)    S(lipo)     H(rot)  DE(clash)    DE(int)     intcor
     19.33     -20.11       1.53        0.00     132.28       2.33       0.01       0.77       ----

> <Gold.Chemscore.Fitness>
19.3307

> <Gold.Chemscore.DG>
-20.1119

> <Gold.Chemscore.ZeroCoef>
-5.4800

> <Gold.Chemscore.Hbond>
1.5329

> <Gold.Chemscore.Metal>
0.0000

> <Gold.Chemscore.Lipo>
132.2767

> <Gold.Chemscore.Internal_Hbond>
0.0000

> <Gold.Chemscore.DEClash>
0.0141

> <Gold.Chemscore.DEInternal>
0.7670

> <Gold.Chemscore.Rot>
2.3298

> <Gold.Chemscore.Internal.Correction>
   9.000000E+99

> <Gold.Chemscore.Hbonds>
donor molecule, donor type, donor heavy atom, donor atom, acceptor molecule, acceptor atom, score
      P1  H  6896  6909       L1     9  0.21
      P1  H  7997  8010       L1    17  0.64

> <Gold.Chemscore.Hbond.Weighted>
-5.1198

> <Gold.Chemscore.Metal.Weighted>
-0.0000

> <Gold.Chemscore.Lipo.Weighted>
-15.4764

> <Gold.Chemscore.Internal_Hbond.Weighted>
0.0000

> <Gold.Chemscore.DEClash.Weighted>
0.0141

> <Gold.Chemscore.DEInternal.Weighted>
0.7670

> <Gold.Chemscore.Rot.Weighted>
5.9643

> <Gold.Chemscore.Internal.Correction.Weighted>
   9.000000E+99

> <Gold.Protein.RotatedTorsions>
[ 6907 6896 6895 6894 ] final  163.49 input  -60.11 | X-H torsion
[ 7974 7965 7964 7962 ] final  145.97 input  175.53 | X-H torsion
[ 8008 7997 7996 7995 ] final   98.17 input   59.86 | X-H torsion
[ 10167 10162 10161 10158 ] final  -46.29 input  -65.29 | X-H torsion
[ 10718 10713 10712 10709 ] final -120.49 input   66.30 | X-H torsion
[ 10763 10752 10751 10750 ] final  -78.59 input  -60.55 | X-H torsion
[ 11005 11000 10999 10996 ] final -147.69 input  -57.11 | X-H torsion

> <Gold.Protein.ActiveResidues>
 VAL166  LYS551  ARG553  GLY616  TRP617  ASP618  TYR619  PRO620  LYS621  CYS622 
 ASP623  PHE694  ASN695  SER759  ASP760  ASP761  ALA762  ILE779  LEU786  VAL792 
 PHE793  MET794  SER795  GLU796  ALA797  LYS798  CYS799  TRP800  GLU811  SER814 

> <Gold.Protein.RotatedAtoms>
  151.9244  133.3594  159.3908 H   0  0  0  0  0  0  0  0  0  0  0  0  # atno 6907 bound_to 6896
  150.7030  134.4602  159.5386 H   0  0  0  0  0  0  0  0  0  0  0  0  # atno 6908 bound_to 6896
  152.2231  134.8394  160.0534 H   0  0  0  0  0  0  0  0  0  0  0  0  # atno 6909 bound_to 6896
  144.8709  139.5848  143.5887 H   0  0  0  0  0  0  0  0  0  0  0  0  # atno 7974 bound_to 7965
  156.0977  140.3247  155.7900 H   0  0  0  0  0  0  0  0  0  0  0  0  # atno 8008 bound_to 7997
  155.4890  140.0560  157.2973 H   0  0  0  0  0  0  0  0  0  0  0  0  # atno 8009 bound_to 7997
  154.4677  140.1997  156.0091 H   0  0  0  0  0  0  0  0  0  0  0  0  # atno 8010 bound_to 7997
  140.6823  143.2838  151.3761 H   0  0  0  0  0  0  0  0  0  0  0  0  # atno 10167 bound_to 10162
  156.1262  130.6361  150.9547 H   0  0  0  0  0  0  0  0  0  0  0  0  # atno 10718 bound_to 10713
  154.5279  135.5724  153.6734 H   0  0  0  0  0  0  0  0  0  0  0  0  # atno 10763 bound_to 10752
  152.9932  135.6197  154.2668 H   0  0  0  0  0  0  0  0  0  0  0  0  # atno 10764 bound_to 10752
  154.2593  135.2856  155.2764 H   0  0  0  0  0  0  0  0  0  0  0  0  # atno 10765 bound_to 10752
  140.7690  134.3210  157.5080 H   0  0  0  0  0  0  0  0  0  0  0  0  # atno 11005 bound_to 11000
  146.2929  139.7193  142.9147 LP  0  0  0  0  0  0  0  0  0  0  0  0  # atno 17320 bound_to 7965
  145.4132  141.0399  143.3005 LP  0  0  0  0  0  0  0  0  0  0  0  0  # atno 17321 bound_to 7965
  139.6155  144.1011  152.2341 LP  0  0  0  0  0  0  0  0  0  0  0  0  # atno 17342 bound_to 10162
  140.0439  144.5986  150.7389 LP  0  0  0  0  0  0  0  0  0  0  0  0  # atno 17343 bound_to 10162
  157.6444  131.0906  150.8185 LP  0  0  0  0  0  0  0  0  0  0  0  0  # atno 17370 bound_to 10713
  156.8275  130.5004  149.5335 LP  0  0  0  0  0  0  0  0  0  0  0  0  # atno 17371 bound_to 10713
  139.8758  134.9249  156.3362 LP  0  0  0  0  0  0  0  0  0  0  0  0  # atno 17394 bound_to 11000
  140.9591  133.7400  156.0377 LP  0  0  0  0  0  0  0  0  0  0  0  0  # atno 17395 bound_to 11000

$$$$
