AV-unprocessed.smi:1|AV-procd|sdf|22|dock5
  -GOLD-   2262015123D 1   1.00000     0.00000
 Structure written by MMmdl.
 56 61  0  0  0  0  0  0  0  0  2 V2000
  150.3085  142.0761  157.0483 O   0  0  0  0  0  0  0  0  0  0  0  0
  151.0384  141.4312  157.8041 C   0  0  0  0  0  0  0  0  0  0  0  0
  151.3776  140.1200  157.7175 N   0  5  0  0  0  0  0  0  0  0  0  0
  151.0446  139.4081  156.6301 C   0  0  0  0  0  0  0  0  0  0  0  0
  150.7221  140.0376  155.4717 N   0  0  0  0  0  0  0  0  0  0  0  0
  150.3669  139.3291  154.3937 C   0  0  0  0  0  0  0  0  0  0  0  0
  150.2606  138.0041  154.2566 N   0  0  0  0  0  0  0  0  0  0  0  0
  150.5818  137.3579  155.4157 C   0  0  0  0  0  0  0  0  0  0  0  0
  150.9772  137.9876  156.6320 C   0  0  0  0  0  0  0  0  0  0  0  0
  151.2263  137.0436  157.6174 N   0  0  0  0  0  0  0  0  0  0  0  0
  150.9814  135.9075  156.9691 C   0  0  0  0  0  0  0  0  0  0  0  0
  150.5980  135.9968  155.6803 N   0  0  0  0  0  0  0  0  0  0  0  0
  150.2713  134.8676  154.7565 C   0  0  1  0  0  0  0  0  0  0  0  0
  150.4706  133.6657  155.4313 O   0  0  0  0  0  0  0  0  0  0  0  0
  149.5823  132.6965  154.8996 C   0  0  1  0  0  0  0  0  0  0  0  0
  149.4318  131.5060  155.8557 C   0  0  0  0  0  0  0  0  0  0  0  0
  148.7515  130.4557  155.1820 O   0  0  0  0  0  0  0  0  0  0  0  0
  149.3902  129.6696  154.2896 C   0  0  0  0  0  0  0  0  0  0  0  0
  150.5913  129.3989  154.3467 O   0  0  0  0  0  0  0  0  0  0  0  0
  148.4856  129.1619  153.2175 C   0  0  0  0  0  0  0  0  0  0  0  0
  148.8601  128.0137  152.4809 C   0  0  0  0  0  0  0  0  0  0  0  0
  148.0258  127.5093  151.4644 C   0  0  0  0  0  0  0  0  0  0  0  0
  146.8053  128.1458  151.1733 C   0  0  0  0  0  0  0  0  0  0  0  0
  146.4207  129.2880  151.8992 C   0  0  0  0  0  0  0  0  0  0  0  0
  147.2546  129.7949  152.9151 C   0  0  0  0  0  0  0  0  0  0  0  0
  148.3003  133.4880  154.6312 C   0  0  1  0  0  0  0  0  0  0  0  0
  147.4882  133.5742  155.7891 O   0  0  0  0  0  0  0  0  0  0  0  0
  146.8828  135.1250  155.8851 S   0  0  0  0  0  0  0  0  0  0  0  0
  145.5985  135.1564  155.1685 O   0  0  0  0  0  0  0  0  0  0  0  0
  147.0260  135.6037  157.2679 O   0  0  0  0  0  0  0  0  0  0  0  0
  148.0235  135.8848  154.9311 O   0  0  0  0  0  0  0  0  0  0  0  0
  148.8069  134.8963  154.2754 C   0  0  1  0  0  0  0  0  0  0  0  0
  151.6026  142.1105  159.0239 C   0  0  0  0  0  0  0  0  0  0  0  0
  151.3730  143.4906  159.2272 C   0  0  0  0  0  0  0  0  0  0  0  0
  151.9129  144.1495  160.3490 C   0  0  0  0  0  0  0  0  0  0  0  0
  152.6964  143.4372  161.2761 C   0  0  0  0  0  0  0  0  0  0  0  0
  152.9440  142.0663  161.0774 C   0  0  0  0  0  0  0  0  0  0  0  0
  152.4046  141.4067  159.9558 C   0  0  0  0  0  0  0  0  0  0  0  0
  150.1288  139.9086  153.5141 H   0  0  0  0  0  0  0  0  0  0  0  0
  151.0879  134.9516  157.4606 H   0  0  0  0  0  0  0  0  0  0  0  0
  150.9864  134.9574  153.9375 H   0  0  0  0  0  0  0  0  0  0  0  0
  150.0000  132.3560  153.9503 H   0  0  0  0  0  0  0  0  0  0  0  0
  150.4143  131.1435  156.1584 H   0  0  0  0  0  0  0  0  0  0  0  0
  148.9197  131.8251  156.7643 H   0  0  0  0  0  0  0  0  0  0  0  0
  149.7925  127.5076  152.6865 H   0  0  0  0  0  0  0  0  0  0  0  0
  148.3232  126.6327  150.9078 H   0  0  0  0  0  0  0  0  0  0  0  0
  146.1652  127.7584  150.3944 H   0  0  0  0  0  0  0  0  0  0  0  0
  145.4837  129.7773  151.6768 H   0  0  0  0  0  0  0  0  0  0  0  0
  146.9277  130.6721  153.4539 H   0  0  0  0  0  0  0  0  0  0  0  0
  147.7116  133.0467  153.8263 H   0  0  0  0  0  0  0  0  0  0  0  0
  148.7970  135.0627  153.1979 H   0  0  0  0  0  0  0  0  0  0  0  0
  150.7748  144.0526  158.5245 H   0  0  0  0  0  0  0  0  0  0  0  0
  151.7257  145.2027  160.4975 H   0  0  0  0  0  0  0  0  0  0  0  0
  153.1103  143.9423  162.1361 H   0  0  0  0  0  0  0  0  0  0  0  0
  153.5506  141.5192  161.7839 H   0  0  0  0  0  0  0  0  0  0  0  0
  152.6156  140.3561  159.8169 H   0  0  0  0  0  0  0  0  0  0  0  0
  1  2  2  0  0  0  0
  2  3  1  0  0  0  0
  2 33  1  0  0  0  0
  3  4  1  0  0  0  0
  4  9  1  0  0  0  0
  4  5  2  0  0  0  0
  5  6  1  0  0  0  0
  6  7  2  0  0  0  0
  6 39  1  0  0  0  0
  7  8  1  0  0  0  0
  8 12  1  0  0  0  0
  8  9  2  0  0  0  0
  9 10  1  0  0  0  0
 10 11  2  0  0  0  0
 11 12  1  0  0  0  0
 11 40  1  0  0  0  0
 12 13  1  0  0  0  0
 13 32  1  0  0  0  0
 13 14  1  0  0  0  0
 13 41  1  0  0  0  0
 14 15  1  0  0  0  0
 15 16  1  0  0  0  0
 15 26  1  0  0  0  0
 15 42  1  0  0  0  0
 16 17  1  0  0  0  0
 16 43  1  0  0  0  0
 16 44  1  0  0  0  0
 17 18  1  0  0  0  0
 18 19  2  0  0  0  0
 18 20  1  0  0  0  0
 20 25  1  0  0  0  0
 20 21  2  0  0  0  0
 21 22  1  0  0  0  0
 21 45  1  0  0  0  0
 22 23  2  0  0  0  0
 22 46  1  0  0  0  0
 23 24  1  0  0  0  0
 23 47  1  0  0  0  0
 24 25  2  0  0  0  0
 24 48  1  0  0  0  0
 25 49  1  0  0  0  0
 26 32  1  0  0  0  0
 26 27  1  0  0  0  0
 26 50  1  0  0  0  0
 27 28  1  0  0  0  0
 28 29  2  0  0  0  0
 28 30  2  0  0  0  0
 28 31  1  0  0  0  0
 31 32  1  0  0  0  0
 32 51  1  0  0  0  0
 33 38  1  0  0  0  0
 33 34  2  0  0  0  0
 34 35  1  0  0  0  0
 34 52  1  0  0  0  0
 35 36  2  0  0  0  0
 35 53  1  0  0  0  0
 36 37  1  0  0  0  0
 36 54  1  0  0  0  0
 37 38  2  0  0  0  0
 37 55  1  0  0  0  0
 38 56  1  0  0  0  0
M  CHG  1   3  -1
M  END
> <s_m_source_file>
AV-unprocessed.smi

> <i_m_source_file_index>
1

> <i_lp_mmshare_version>
43012

> <i_f3d_flags>
0

> <s_epik_input>
W2NIXTFbY0hdW2NIXVtjSF1bY0hdYzFDKD1PKVtOSF1jKG5bY0hdbjIpYyhjMjMpbltjSF1uM1tDQEBIXShbQ0BIXShbQ0BIXTQ1KU9TKE81KSg9Tyk9TylPW0NASF00W0NIMl1PQyg9TyljNltjSF1bY0hdW2NIXVtjSF1bY0hdNg==

> <s_epik_cmdline>
J2VwaWtfcHl0aG9uJywgJy1waCcsICc3LjAnLCAnLXRuJywgJzgnLCAnLW1hJywgJzIwMCcsICctbWV0YWxfYmluZGluZycsICctaW1hZScsICc8aW5maWxlLm1hZT4nLCAnLW9tYWUnLCAnPG91dGZpbGUubWFlPic=

> <r_lp_tautomer_probability>
1

> <r_epik_Ionization_Penalty>
4.39121

> <r_epik_Ionization_Penalty_Charging>
3.39398

> <r_epik_Ionization_Penalty_Neutral>
0.997232

> <r_epik_State_Penalty>
3.39839

> <r_epik_Charging_Adjusted_Penalty>
6.79237

> <i_epik_Tot_Q>
-1

> <i_epik_Tot_abs_Q>
1

> <r_epik_Metal_State_Penalty>
0.497663

> <b_epik_Metal_Only>
1

> <s_epik_Chemistry_Notes>
This compound has an ester and may undergo hydrolysis at high or low pH. This compound contains an acetal/aminal-like group ( X-CH(R)-Y where X, Y are N, S, or O) that may be acid/base labile, releasing an aldehyde.

> <s_lp_Force_Field>
OPLS_2005

> <r_lp_Energy>
46.5931

> <b_lp_Chiralities_Consistent>
1

> <s_lp_Variant>
AV-unprocessed.smi:1-22

> <Gold.Version>
5.8.1

> <Gold.Id.Protein>
6NUR|6NUR_protein|mol2

> <Gold.PLP.Fitness>
55.4817

> <Gold.PLP.PLP>
-53.2568

> <Gold.PLP.part.hbond>
-0.2637

> <Gold.PLP.part.metal>
0.0000

> <Gold.PLP.part.buried>
-5.3272

> <Gold.PLP.part.nonpolar>
-48.3874

> <Gold.PLP.part.repulsive>
0.6675

> <Gold.PLP.ligand.clash>
0.0000

> <Gold.PLP.ligand.torsion>
0.8223

> <Gold.PLP.Chemscore.Hbond>
0.0000

> <Gold.PLP.Chemscore.CHOScore>
1.0000

> <Gold.PLP.Chemscore.Metal>
0.0000

> <Gold.Chemscore.Hbonds>
donor molecule, donor type, donor heavy atom, donor atom, acceptor molecule, acceptor atom, score
      L1  C     6    39       P1  7957  1.00

> <Gold.PLP.Chemscore.Internal.Correction>
0.8695

> <Gold.Rescore>
     Score         DG    S(hbond)    S(metal)    S(lipo)     H(rot)  DE(clash)    DE(int)     intcor
     11.51     -15.09       0.00        0.00     128.39       2.11       0.03       3.55       ----

> <Gold.Chemscore.Fitness>
11.5095

> <Gold.Chemscore.DG>
-15.0906

> <Gold.Chemscore.ZeroCoef>
-5.4800

> <Gold.Chemscore.Hbond>
0.0000

> <Gold.Chemscore.Metal>
0.0000

> <Gold.Chemscore.Lipo>
128.3878

> <Gold.Chemscore.Internal_Hbond>
0.0000

> <Gold.Chemscore.DEClash>
0.0330

> <Gold.Chemscore.DEInternal>
3.5482

> <Gold.Chemscore.Rot>
2.1136

> <Gold.Chemscore.Internal.Correction>
   9.000000E+99

> <Gold.Chemscore.Hbond.Weighted>
-0.0000

> <Gold.Chemscore.Metal.Weighted>
-0.0000

> <Gold.Chemscore.Lipo.Weighted>
-15.0214

> <Gold.Chemscore.Internal_Hbond.Weighted>
0.0000

> <Gold.Chemscore.DEClash.Weighted>
0.0330

> <Gold.Chemscore.DEInternal.Weighted>
3.5482

> <Gold.Chemscore.Rot.Weighted>
5.4107

> <Gold.Chemscore.Internal.Correction.Weighted>
   9.000000E+99

> <Gold.Protein.RotatedTorsions>
[ 6907 6896 6895 6894 ] final  126.98 input  -60.11 | X-H torsion
[ 7974 7965 7964 7962 ] final   -0.98 input  175.53 | X-H torsion
[ 8008 7997 7996 7995 ] final   87.02 input   59.86 | X-H torsion
[ 10167 10162 10161 10158 ] final -151.49 input  -65.29 | X-H torsion
[ 10718 10713 10712 10709 ] final  174.27 input   66.30 | X-H torsion
[ 10763 10752 10751 10750 ] final  137.82 input  -60.55 | X-H torsion
[ 11005 11000 10999 10996 ] final   70.71 input  -57.11 | X-H torsion

> <Gold.Protein.ActiveResidues>
 VAL166  LYS551  ARG553  GLY616  TRP617  ASP618  TYR619  PRO620  LYS621  CYS622 
 ASP623  PHE694  ASN695  SER759  ASP760  ASP761  ALA762  ILE779  LEU786  VAL792 
 PHE793  MET794  SER795  GLU796  ALA797  LYS798  CYS799  TRP800  GLU811  SER814 

> <Gold.Protein.RotatedAtoms>
  152.3854  133.6604  159.6194 H   0  0  0  0  0  0  0  0  0  0  0  0  # atno 6907 bound_to 6896
  150.7774  133.9044  159.3359 H   0  0  0  0  0  0  0  0  0  0  0  0  # atno 6908 bound_to 6896
  151.6841  135.0958  160.0273 H   0  0  0  0  0  0  0  0  0  0  0  0  # atno 6909 bound_to 6896
  146.2422  140.1352  142.8337 H   0  0  0  0  0  0  0  0  0  0  0  0  # atno 7974 bound_to 7965
  155.9701  140.3386  155.6568 H   0  0  0  0  0  0  0  0  0  0  0  0  # atno 8008 bound_to 7997
  155.6685  140.0724  157.2546 H   0  0  0  0  0  0  0  0  0  0  0  0  # atno 8009 bound_to 7997
  154.4164  140.1695  156.1841 H   0  0  0  0  0  0  0  0  0  0  0  0  # atno 8010 bound_to 7997
  139.7263  143.8879  152.2520 H   0  0  0  0  0  0  0  0  0  0  0  0  # atno 10167 bound_to 10162
  156.9521  131.0034  151.2946 H   0  0  0  0  0  0  0  0  0  0  0  0  # atno 10718 bound_to 10713
  153.8793  135.3046  155.3445 H   0  0  0  0  0  0  0  0  0  0  0  0  # atno 10763 bound_to 10752
  154.7769  135.4856  153.9765 H   0  0  0  0  0  0  0  0  0  0  0  0  # atno 10764 bound_to 10752
  153.1360  135.6814  153.9198 H   0  0  0  0  0  0  0  0  0  0  0  0  # atno 10765 bound_to 10752
  139.9582  134.7106  156.0704 H   0  0  0  0  0  0  0  0  0  0  0  0  # atno 11005 bound_to 11000
  145.0293  140.8857  143.5119 LP  0  0  0  0  0  0  0  0  0  0  0  0  # atno 17320 bound_to 7965
  145.1413  139.2570  143.5488 LP  0  0  0  0  0  0  0  0  0  0  0  0  # atno 17321 bound_to 7965
  139.8789  144.7028  150.8901 LP  0  0  0  0  0  0  0  0  0  0  0  0  # atno 17342 bound_to 10162
  140.7763  143.3677  151.1707 LP  0  0  0  0  0  0  0  0  0  0  0  0  # atno 17343 bound_to 10162
  157.5715  130.8313  149.8398 LP  0  0  0  0  0  0  0  0  0  0  0  0  # atno 17370 bound_to 10713
  156.0358  130.3752  150.1564 LP  0  0  0  0  0  0  0  0  0  0  0  0  # atno 17371 bound_to 10713
  141.1257  133.6600  156.3330 LP  0  0  0  0  0  0  0  0  0  0  0  0  # atno 17394 bound_to 11000
  140.5559  134.5982  157.5420 LP  0  0  0  0  0  0  0  0  0  0  0  0  # atno 17395 bound_to 11000

$$$$
