AV-unprocessed.smi:804|AV-procd|sdf|3794|dock6
  -GOLD-   22720 1233D 1   1.00000     0.00000
 Structure written by MMmdl.
 39 40  0  0  0  0  0  0  0  0  1 V2000
  146.7491  140.4348  156.1796 C   0  0  0  0  0  0  0  0  0  0  0  0
  147.9688  140.3820  155.2427 C   0  0  0  0  0  0  0  0  0  0  0  0
  147.8861  139.1022  154.3843 C   0  0  0  0  0  0  0  0  0  0  0  0
  147.9700  141.6387  154.3476 C   0  0  0  0  0  0  0  0  0  0  0  0
  149.1606  140.3544  156.0974 N   0  0  0  0  0  0  0  0  0  0  0  0
  150.4464  140.1833  155.7391 C   0  0  0  0  0  0  0  0  0  0  0  0
  150.8322  140.0587  154.5765 O   0  0  0  0  0  0  0  0  0  0  0  0
  151.4346  140.2311  156.8679 C   0  0  0  0  0  0  0  0  0  0  0  0
  151.4441  141.3617  157.6105 N   0  0  0  0  0  0  0  0  0  0  0  0
  152.3073  141.4535  158.6297 C   0  0  0  0  0  0  0  0  0  0  0  0
  152.2889  142.6296  159.3911 N   0  0  0  0  0  0  0  0  0  0  0  0
  153.0241  142.7377  160.6543 C   0  0  0  0  0  0  0  0  0  0  0  0
  152.3457  143.7390  161.6047 C   0  0  0  0  0  0  0  0  0  0  0  0
  152.1896  144.9935  160.9543 O   0  0  0  0  0  0  0  0  0  0  0  0
  151.3555  144.8840  159.8082 C   0  0  0  0  0  0  0  0  0  0  0  0
  151.9985  143.9322  158.7858 C   0  0  0  0  0  0  0  0  0  0  0  0
  153.1833  140.5019  158.9751 N   0  0  0  0  0  0  0  0  0  0  0  0
  153.2039  139.3700  158.2415 C   0  0  0  0  0  0  0  0  0  0  0  0
  152.3371  139.1725  157.1495 C   0  0  0  0  0  0  0  0  0  0  0  0
  152.4398  137.7147  156.2216 Cl  0  0  0  0  0  0  0  0  0  0  0  0
  145.8156  140.4575  155.6160 H   0  0  0  0  0  0  0  0  0  0  0  0
  146.7706  141.3231  156.8123 H   0  0  0  0  0  0  0  0  0  0  0  0
  146.7133  139.5647  156.8366 H   0  0  0  0  0  0  0  0  0  0  0  0
  147.9205  138.2055  155.0042 H   0  0  0  0  0  0  0  0  0  0  0  0
  148.7021  139.0368  153.6646 H   0  0  0  0  0  0  0  0  0  0  0  0
  146.9564  139.0717  153.8151 H   0  0  0  0  0  0  0  0  0  0  0  0
  147.0433  141.7150  153.7781 H   0  0  0  0  0  0  0  0  0  0  0  0
  148.7869  141.6286  153.6260 H   0  0  0  0  0  0  0  0  0  0  0  0
  148.0654  142.5489  154.9409 H   0  0  0  0  0  0  0  0  0  0  0  0
  148.9871  140.4685  157.0855 H   0  0  0  0  0  0  0  0  0  0  0  0
  153.0952  141.7796  161.1688 H   0  0  0  0  0  0  0  0  0  0  0  0
  154.0438  143.0575  160.4378 H   0  0  0  0  0  0  0  0  0  0  0  0
  151.3763  143.3644  161.9372 H   0  0  0  0  0  0  0  0  0  0  0  0
  152.9553  143.8774  162.4976 H   0  0  0  0  0  0  0  0  0  0  0  0
  150.3635  144.5323  160.0966 H   0  0  0  0  0  0  0  0  0  0  0  0
  151.2263  145.8732  159.3688 H   0  0  0  0  0  0  0  0  0  0  0  0
  152.9294  144.3590  158.4111 H   0  0  0  0  0  0  0  0  0  0  0  0
  151.3240  143.8451  157.9346 H   0  0  0  0  0  0  0  0  0  0  0  0
  153.9251  138.6180  158.5253 H   0  0  0  0  0  0  0  0  0  0  0  0
  1  2  1  0  0  0  0
  1 21  1  0  0  0  0
  1 22  1  0  0  0  0
  1 23  1  0  0  0  0
  2  3  1  0  0  0  0
  2  4  1  0  0  0  0
  2  5  1  0  0  0  0
  3 24  1  0  0  0  0
  3 25  1  0  0  0  0
  3 26  1  0  0  0  0
  4 27  1  0  0  0  0
  4 28  1  0  0  0  0
  4 29  1  0  0  0  0
  5  6  1  0  0  0  0
  5 30  1  0  0  0  0
  6  7  2  0  0  0  0
  6  8  1  0  0  0  0
  8 19  1  0  0  0  0
  8  9  2  0  0  0  0
  9 10  1  0  0  0  0
 10 11  1  0  0  0  0
 10 17  2  0  0  0  0
 11 16  1  0  0  0  0
 11 12  1  0  0  0  0
 12 13  1  0  0  0  0
 12 31  1  0  0  0  0
 12 32  1  0  0  0  0
 13 14  1  0  0  0  0
 13 33  1  0  0  0  0
 13 34  1  0  0  0  0
 14 15  1  0  0  0  0
 15 16  1  0  0  0  0
 15 35  1  0  0  0  0
 15 36  1  0  0  0  0
 16 37  1  0  0  0  0
 16 38  1  0  0  0  0
 17 18  1  0  0  0  0
 18 19  2  0  0  0  0
 18 39  1  0  0  0  0
 19 20  1  0  0  0  0
M  END
> <s_m_source_file>
AV-unprocessed.smi

> <i_m_source_file_index>
804

> <i_lp_mmshare_version>
43012

> <i_f3d_flags>
0

> <s_epik_input>
W0NIM11DKFtDSDNdKShbQ0gzXSlbTkhdQyg9TyljMW5jKG5bY0hdYzFDbClOMltDSDJdW0NIMl1PW0NIMl1bQ0gyXTI=

> <s_epik_cmdline>
J2VwaWtfcHl0aG9uJywgJy1waCcsICc3LjAnLCAnLXRuJywgJzgnLCAnLW1hJywgJzIwMCcsICctbWV0YWxfYmluZGluZycsICctaW1hZScsICc8aW5maWxlLm1hZT4nLCAnLW9tYWUnLCAnPG91dGZpbGUubWFlPic=

> <r_lp_tautomer_probability>
1

> <r_epik_Ionization_Penalty>
1.02082e-05

> <r_epik_Ionization_Penalty_Charging>
0

> <r_epik_Ionization_Penalty_Neutral>
1.02082e-05

> <r_epik_State_Penalty>
-0

> <r_epik_Charging_Adjusted_Penalty>
0

> <i_epik_Tot_Q>
0

> <i_epik_Tot_abs_Q>
0

> <r_epik_Metal_State_Penalty>
0.00994437

> <b_epik_Metal_Only>
0

> <s_lp_Force_Field>
OPLS_2005

> <r_lp_Energy>
15.0003

> <b_lp_Chiralities_Consistent>
1

> <s_lp_Variant>
AV-unprocessed.smi:804-1

> <Gold.Version>
5.8.1

> <Gold.Id.Protein>
6NUR|6NUR_protein|mol2

> <Gold.PLP.Fitness>
36.0329

> <Gold.PLP.PLP>
-35.7464

> <Gold.PLP.part.hbond>
-1.0000

> <Gold.PLP.part.metal>
0.0000

> <Gold.PLP.part.buried>
-3.7102

> <Gold.PLP.part.nonpolar>
-31.3882

> <Gold.PLP.part.repulsive>
0.3300

> <Gold.PLP.ligand.clash>
0.0000

> <Gold.PLP.ligand.torsion>
1.4238

> <Gold.PLP.Chemscore.Hbond>
1.0000

> <Gold.PLP.Chemscore.CHOScore>
0.0000

> <Gold.PLP.Chemscore.Metal>
0.0000

> <Gold.Chemscore.Hbonds>
donor molecule, donor type, donor heavy atom, donor atom, acceptor molecule, acceptor atom, score
      P1  H  7989  7998       L1     7  1.00

> <Gold.PLP.Chemscore.Internal.Correction>
0.1342

> <Gold.Rescore>
     Score         DG    S(hbond)    S(metal)    S(lipo)     H(rot)  DE(clash)    DE(int)     intcor
     15.16     -16.21       0.99        0.00      85.32       1.00       0.05       1.00       ----

> <Gold.Chemscore.Fitness>
15.1563

> <Gold.Chemscore.DG>
-16.2067

> <Gold.Chemscore.ZeroCoef>
-5.4800

> <Gold.Chemscore.Hbond>
0.9891

> <Gold.Chemscore.Metal>
0.0000

> <Gold.Chemscore.Lipo>
85.3248

> <Gold.Chemscore.Internal_Hbond>
0.0000

> <Gold.Chemscore.DEClash>
0.0458

> <Gold.Chemscore.DEInternal>
1.0046

> <Gold.Chemscore.Rot>
1.0000

> <Gold.Chemscore.Internal.Correction>
   9.000000E+99

> <Gold.Chemscore.Hbonds>
donor molecule, donor type, donor heavy atom, donor atom, acceptor molecule, acceptor atom, score
      P1  H  7989  7998       L1     7  0.97

> <Gold.Chemscore.Hbond.Weighted>
-3.3037

> <Gold.Chemscore.Metal.Weighted>
-0.0000

> <Gold.Chemscore.Lipo.Weighted>
-9.9830

> <Gold.Chemscore.Internal_Hbond.Weighted>
0.0000

> <Gold.Chemscore.DEClash.Weighted>
0.0458

> <Gold.Chemscore.DEInternal.Weighted>
1.0046

> <Gold.Chemscore.Rot.Weighted>
2.5600

> <Gold.Chemscore.Internal.Correction.Weighted>
   9.000000E+99

> <Gold.Protein.RotatedTorsions>
[ 6907 6896 6895 6894 ] final    6.19 input  -60.11 | X-H torsion
[ 7974 7965 7964 7962 ] final  -43.77 input  175.53 | X-H torsion
[ 8008 7997 7996 7995 ] final  168.33 input   59.86 | X-H torsion
[ 10167 10162 10161 10158 ] final  -62.89 input  -65.29 | X-H torsion
[ 10718 10713 10712 10709 ] final -171.37 input   66.30 | X-H torsion
[ 10763 10752 10751 10750 ] final  116.51 input  -60.55 | X-H torsion
[ 11005 11000 10999 10996 ] final -131.83 input  -57.11 | X-H torsion

> <Gold.Protein.ActiveResidues>
 VAL166  LYS551  ARG553  GLY616  TRP617  ASP618  TYR619  PRO620  LYS621  CYS622 
 ASP623  PHE694  ASN695  SER759  ASP760  ASP761  ALA762  ILE779  LEU786  VAL792 
 PHE793  MET794  SER795  GLU796  ALA797  LYS798  CYS799  TRP800  GLU811  SER814 

> <Gold.Protein.RotatedAtoms>
  151.6696  135.0978  160.0195 H   0  0  0  0  0  0  0  0  0  0  0  0  # atno 6907 bound_to 6896
  152.3899  133.6660  159.6237 H   0  0  0  0  0  0  0  0  0  0  0  0  # atno 6908 bound_to 6896
  150.7817  133.8888  159.3348 H   0  0  0  0  0  0  0  0  0  0  0  0  # atno 6909 bound_to 6896
  145.9986  140.7100  142.9281 H   0  0  0  0  0  0  0  0  0  0  0  0  # atno 7974 bound_to 7965
  156.1556  140.1593  156.8698 H   0  0  0  0  0  0  0  0  0  0  0  0  # atno 8008 bound_to 7997
  154.5112  140.0800  156.8029 H   0  0  0  0  0  0  0  0  0  0  0  0  # atno 8009 bound_to 7997
  155.3810  140.3405  155.4249 H   0  0  0  0  0  0  0  0  0  0  0  0  # atno 8010 bound_to 7997
  140.5908  143.2341  151.6143 H   0  0  0  0  0  0  0  0  0  0  0  0  # atno 10167 bound_to 10162
  156.7398  130.9338  151.3109 H   0  0  0  0  0  0  0  0  0  0  0  0  # atno 10718 bound_to 10713
  153.5383  135.3564  155.2707 H   0  0  0  0  0  0  0  0  0  0  0  0  # atno 10763 bound_to 10752
  154.8720  135.4085  154.3073 H   0  0  0  0  0  0  0  0  0  0  0  0  # atno 10764 bound_to 10752
  153.3775  135.7067  153.6659 H   0  0  0  0  0  0  0  0  0  0  0  0  # atno 10765 bound_to 10752
  140.9224  134.1427  157.4303 H   0  0  0  0  0  0  0  0  0  0  0  0  # atno 11005 bound_to 11000
  144.6912  140.3194  143.7235 LP  0  0  0  0  0  0  0  0  0  0  0  0  # atno 17320 bound_to 7965
  145.7521  139.1797  143.2315 LP  0  0  0  0  0  0  0  0  0  0  0  0  # atno 17321 bound_to 7965
  139.5226  144.3157  152.0954 LP  0  0  0  0  0  0  0  0  0  0  0  0  # atno 17342 bound_to 10162
  140.2321  144.4357  150.6295 LP  0  0  0  0  0  0  0  0  0  0  0  0  # atno 17343 bound_to 10162
  157.6823  130.9152  150.0298 LP  0  0  0  0  0  0  0  0  0  0  0  0  # atno 17370 bound_to 10713
  156.1472  130.3642  149.9493 LP  0  0  0  0  0  0  0  0  0  0  0  0  # atno 17371 bound_to 10713
  139.8778  134.9976  156.5855 LP  0  0  0  0  0  0  0  0  0  0  0  0  # atno 17394 bound_to 11000
  140.7971  133.8535  155.8695 LP  0  0  0  0  0  0  0  0  0  0  0  0  # atno 17395 bound_to 11000

$$$$
