AV-unprocessed.smi:589|AV-procd|sdf|3005|dock9
  -GOLD-   2262023513D 1   1.00000     0.00000
 Structure written by MMmdl.
 40 41  0  0  0  0  0  0  0  0  1 V2000
  153.5142  138.6242  154.5733 C   0  0  0  0  0  0  0  0  0  0  0  0
  152.3076  139.2937  155.1968 C   0  0  0  0  0  0  0  0  0  0  0  0
  151.0372  139.1983  154.6019 C   0  0  0  0  0  0  0  0  0  0  0  0
  149.9438  139.8341  155.2246 C   0  0  0  0  0  0  0  0  0  0  0  0
  148.5682  139.6851  154.5911 C   0  0  0  0  0  0  0  0  0  0  0  0
  150.1678  140.5643  156.4269 C   0  0  0  0  0  0  0  0  0  0  0  0
  149.0404  141.2609  157.1478 C   0  0  0  0  0  0  0  0  0  0  0  0
  148.2724  142.0593  156.4012 N   0  0  0  0  0  0  0  0  0  0  0  0
  148.8689  141.1212  158.3575 O   0  0  0  0  0  0  0  0  0  0  0  0
  151.4931  140.5861  156.9510 C   0  0  0  0  0  0  0  0  0  0  0  0
  151.7944  141.2843  158.1338 N   0  0  0  0  0  0  0  0  0  0  0  0
  151.6304  142.7272  158.0259 C   0  0  0  0  0  0  0  0  0  0  0  0
  151.8064  143.3796  159.4106 C   0  0  2  0  0  0  0  0  0  0  0  0
  151.7513  144.9091  159.3387 C   0  0  0  0  0  0  0  0  0  0  0  0
  153.0726  143.0024  159.9483 O   0  0  0  0  0  0  0  0  0  0  0  0
  153.1999  141.5919  160.1204 C   0  0  2  0  0  0  0  0  0  0  0  0
  154.5569  141.3052  160.7707 C   0  0  0  0  0  0  0  0  0  0  0  0
  153.0591  140.9054  158.7495 C   0  0  0  0  0  0  0  0  0  0  0  0
  152.5323  139.9672  156.3411 N   0  0  0  0  0  0  0  0  0  0  0  0
  153.2403  138.0711  153.6743 H   0  0  0  0  0  0  0  0  0  0  0  0
  153.9656  137.9249  155.2775 H   0  0  0  0  0  0  0  0  0  0  0  0
  154.2624  139.3689  154.3004 H   0  0  0  0  0  0  0  0  0  0  0  0
  150.9022  138.6382  153.6882 H   0  0  0  0  0  0  0  0  0  0  0  0
  147.8177  139.4265  155.3386 H   0  0  0  0  0  0  0  0  0  0  0  0
  148.5658  138.8949  153.8396 H   0  0  0  0  0  0  0  0  0  0  0  0
  148.2709  140.6117  154.1002 H   0  0  0  0  0  0  0  0  0  0  0  0
  147.4979  142.5508  156.8224 H   0  0  0  0  0  0  0  0  0  0  0  0
  148.4678  142.1636  155.4160 H   0  0  0  0  0  0  0  0  0  0  0  0
  152.3652  143.1272  157.3258 H   0  0  0  0  0  0  0  0  0  0  0  0
  150.6422  142.9563  157.6246 H   0  0  0  0  0  0  0  0  0  0  0  0
  151.0172  143.0343  160.0811 H   0  0  0  0  0  0  0  0  0  0  0  0
  150.7951  145.2489  158.9405 H   0  0  0  0  0  0  0  0  0  0  0  0
  152.5405  145.3023  158.6975 H   0  0  0  0  0  0  0  0  0  0  0  0
  151.8752  145.3502  160.3280 H   0  0  0  0  0  0  0  0  0  0  0  0
  152.4119  141.2406  160.7894 H   0  0  0  0  0  0  0  0  0  0  0  0
  154.6969  140.2356  160.9292 H   0  0  0  0  0  0  0  0  0  0  0  0
  154.6370  141.7982  161.7398 H   0  0  0  0  0  0  0  0  0  0  0  0
  155.3766  141.6615  160.1462 H   0  0  0  0  0  0  0  0  0  0  0  0
  153.1003  139.8216  158.8645 H   0  0  0  0  0  0  0  0  0  0  0  0
  153.8867  141.1953  158.1005 H   0  0  0  0  0  0  0  0  0  0  0  0
  1  2  1  0  0  0  0
  1 20  1  0  0  0  0
  1 21  1  0  0  0  0
  1 22  1  0  0  0  0
  2 19  1  0  0  0  0
  2  3  2  0  0  0  0
  3  4  1  0  0  0  0
  3 23  1  0  0  0  0
  4  5  1  0  0  0  0
  4  6  2  0  0  0  0
  5 24  1  0  0  0  0
  5 25  1  0  0  0  0
  5 26  1  0  0  0  0
  6  7  1  0  0  0  0
  6 10  1  0  0  0  0
  7  8  1  0  0  0  0
  7  9  2  0  0  0  0
  8 27  1  0  0  0  0
  8 28  1  0  0  0  0
 10 11  1  0  0  0  0
 10 19  2  0  0  0  0
 11 18  1  0  0  0  0
 11 12  1  0  0  0  0
 12 13  1  0  0  0  0
 12 29  1  0  0  0  0
 12 30  1  0  0  0  0
 13 14  1  0  0  0  0
 13 15  1  0  0  0  0
 13 31  1  0  0  0  0
 14 32  1  0  0  0  0
 14 33  1  0  0  0  0
 14 34  1  0  0  0  0
 15 16  1  0  0  0  0
 16 17  1  0  0  0  0
 16 18  1  0  0  0  0
 16 35  1  0  0  0  0
 17 36  1  0  0  0  0
 17 37  1  0  0  0  0
 17 38  1  0  0  0  0
 18 39  1  0  0  0  0
 18 40  1  0  0  0  0
M  END
> <s_m_source_file>
AV-unprocessed.smi

> <i_m_source_file_index>
589

> <i_lp_mmshare_version>
43012

> <i_f3d_flags>
0

> <s_epik_input>
W0NIM11jMVtjSF1jKFtDSDNdKWMoQyg9TylbTkgyXSljKG4xKU4yW0NIMl1bQ0BASF0oW0NIM10pT1tDQEBIXShbQ0gzXSlbQ0gyXTI=

> <s_epik_cmdline>
J2VwaWtfcHl0aG9uJywgJy1waCcsICc3LjAnLCAnLXRuJywgJzgnLCAnLW1hJywgJzIwMCcsICctbWV0YWxfYmluZGluZycsICctaW1hZScsICc8aW5maWxlLm1hZT4nLCAnLW9tYWUnLCAnPG91dGZpbGUubWFlPic=

> <r_lp_tautomer_probability>
1

> <r_epik_Ionization_Penalty>
0.000626871

> <r_epik_Ionization_Penalty_Charging>
0

> <r_epik_Ionization_Penalty_Neutral>
0.000626871

> <r_epik_State_Penalty>
0.000395665

> <r_epik_Charging_Adjusted_Penalty>
0.000395665

> <i_epik_Tot_Q>
0

> <i_epik_Tot_abs_Q>
0

> <r_epik_Metal_State_Penalty>
-0

> <b_epik_Metal_Only>
0

> <s_lp_Force_Field>
OPLS_2005

> <r_lp_Energy>
24.7039

> <b_lp_Chiralities_Consistent>
1

> <s_lp_Variant>
AV-unprocessed.smi:589-1

> <Gold.Version>
5.8.1

> <Gold.Id.Protein>
6NUR|6NUR_protein|mol2

> <Gold.PLP.Fitness>
39.6144

> <Gold.PLP.PLP>
-38.9516

> <Gold.PLP.part.hbond>
-1.8408

> <Gold.PLP.part.metal>
0.0000

> <Gold.PLP.part.buried>
-2.9373

> <Gold.PLP.part.nonpolar>
-34.2032

> <Gold.PLP.part.repulsive>
0.0990

> <Gold.PLP.ligand.clash>
0.0000

> <Gold.PLP.ligand.torsion>
1.1316

> <Gold.PLP.Chemscore.Hbond>
0.8640

> <Gold.PLP.Chemscore.CHOScore>
0.0000

> <Gold.PLP.Chemscore.Metal>
0.0000

> <Gold.Chemscore.Hbonds>
donor molecule, donor type, donor heavy atom, donor atom, acceptor molecule, acceptor atom, score
      P1  H  7997  8008       L1    19  0.80

> <Gold.PLP.Chemscore.Internal.Correction>
0.3340

> <Gold.Rescore>
     Score         DG    S(hbond)    S(metal)    S(lipo)     H(rot)  DE(clash)    DE(int)     intcor
     13.70     -17.18       0.69        0.00     102.09       1.00       0.36       3.13       ----

> <Gold.Chemscore.Fitness>
13.6959

> <Gold.Chemscore.DG>
-17.1827

> <Gold.Chemscore.ZeroCoef>
-5.4800

> <Gold.Chemscore.Hbond>
0.6941

> <Gold.Chemscore.Metal>
0.0000

> <Gold.Chemscore.Lipo>
102.0882

> <Gold.Chemscore.Internal_Hbond>
0.0000

> <Gold.Chemscore.DEClash>
0.3568

> <Gold.Chemscore.DEInternal>
3.1300

> <Gold.Chemscore.Rot>
1.0000

> <Gold.Chemscore.Internal.Correction>
   9.000000E+99

> <Gold.Chemscore.Hbonds>
donor molecule, donor type, donor heavy atom, donor atom, acceptor molecule, acceptor atom, score
      P1  H  7997  8008       L1    19  0.65

> <Gold.Chemscore.Hbond.Weighted>
-2.3184

> <Gold.Chemscore.Metal.Weighted>
-0.0000

> <Gold.Chemscore.Lipo.Weighted>
-11.9443

> <Gold.Chemscore.Internal_Hbond.Weighted>
0.0000

> <Gold.Chemscore.DEClash.Weighted>
0.3568

> <Gold.Chemscore.DEInternal.Weighted>
3.1300

> <Gold.Chemscore.Rot.Weighted>
2.5600

> <Gold.Chemscore.Internal.Correction.Weighted>
   9.000000E+99

> <Gold.Protein.RotatedTorsions>
[ 6907 6896 6895 6894 ] final   -6.99 input  -60.11 | X-H torsion
[ 7974 7965 7964 7962 ] final  127.77 input  175.53 | X-H torsion
[ 8008 7997 7996 7995 ] final  -69.39 input   59.86 | X-H torsion
[ 10167 10162 10161 10158 ] final   30.09 input  -65.29 | X-H torsion
[ 10718 10713 10712 10709 ] final  -93.42 input   66.30 | X-H torsion
[ 10763 10752 10751 10750 ] final -142.27 input  -60.55 | X-H torsion
[ 11005 11000 10999 10996 ] final   34.03 input  -57.11 | X-H torsion

> <Gold.Protein.ActiveResidues>
 VAL166  LYS551  ARG553  GLY616  TRP617  ASP618  TYR619  PRO620  LYS621  CYS622 
 ASP623  PHE694  ASN695  SER759  ASP760  ASP761  ALA762  ILE779  LEU786  VAL792 
 PHE793  MET794  SER795  GLU796  ALA797  LYS798  CYS799  TRP800  GLU811  SER814 

> <Gold.Protein.RotatedAtoms>
  151.4567  135.1035  159.9712 H   0  0  0  0  0  0  0  0  0  0  0  0  # atno 6907 bound_to 6896
  152.4868  133.8390  159.7153 H   0  0  0  0  0  0  0  0  0  0  0  0  # atno 6908 bound_to 6896
  150.8985  133.7089  159.2912 H   0  0  0  0  0  0  0  0  0  0  0  0  # atno 6909 bound_to 6896
  145.0468  139.3916  143.5074 H   0  0  0  0  0  0  0  0  0  0  0  0  # atno 7974 bound_to 7965
  154.4935  140.0854  156.7646 H   0  0  0  0  0  0  0  0  0  0  0  0  # atno 8008 bound_to 7997
  155.4173  140.3444  155.4250 H   0  0  0  0  0  0  0  0  0  0  0  0  # atno 8009 bound_to 7997
  156.1362  140.1516  156.8978 H   0  0  0  0  0  0  0  0  0  0  0  0  # atno 8010 bound_to 7997
  140.4708  144.0765  150.6237 H   0  0  0  0  0  0  0  0  0  0  0  0  # atno 10167 bound_to 10162
  156.0013  130.5026  150.5774 H   0  0  0  0  0  0  0  0  0  0  0  0  # atno 10718 bound_to 10713
  154.8515  135.3500  154.6002 H   0  0  0  0  0  0  0  0  0  0  0  0  # atno 10763 bound_to 10752
  153.6611  135.6989  153.5182 H   0  0  0  0  0  0  0  0  0  0  0  0  # atno 10764 bound_to 10752
  153.2817  135.4261  155.1042 H   0  0  0  0  0  0  0  0  0  0  0  0  # atno 10765 bound_to 10752
  140.2570  134.3237  155.7870 H   0  0  0  0  0  0  0  0  0  0  0  0  # atno 11005 bound_to 11000
  146.3514  140.0098  142.8668 LP  0  0  0  0  0  0  0  0  0  0  0  0  # atno 17320 bound_to 7965
  145.1577  140.9656  143.4395 LP  0  0  0  0  0  0  0  0  0  0  0  0  # atno 17321 bound_to 7965
  140.3979  143.2718  151.9982 LP  0  0  0  0  0  0  0  0  0  0  0  0  # atno 17342 bound_to 10162
  139.4818  144.6022  151.7585 LP  0  0  0  0  0  0  0  0  0  0  0  0  # atno 17343 bound_to 10162
  157.3659  131.0757  151.1598 LP  0  0  0  0  0  0  0  0  0  0  0  0  # atno 17370 bound_to 10713
  157.2367  130.6550  149.5872 LP  0  0  0  0  0  0  0  0  0  0  0  0  # atno 17371 bound_to 10713
  141.2195  133.7387  156.9127 LP  0  0  0  0  0  0  0  0  0  0  0  0  # atno 17394 bound_to 11000
  140.1502  134.9235  157.2582 LP  0  0  0  0  0  0  0  0  0  0  0  0  # atno 17395 bound_to 11000

$$$$
