AV-unprocessed.smi:970|AV-procd|sdf|4293|dock6
  -GOLD-   22720 2203D 1   1.00000     0.00000
 Structure written by MMmdl.
 31 31  0  0  0  0  0  0  0  0  1 V2000
  150.8270  137.8448  153.9827 C   0  0  0  0  0  0  0  0  0  0  0  0
  150.2014  138.8878  154.7806 N   0  0  0  0  0  0  0  0  0  0  0  0
  150.7961  140.0428  155.1114 C   0  0  0  0  0  0  0  0  0  0  0  0
  151.9390  140.3371  154.7559 O   0  0  0  0  0  0  0  0  0  0  0  0
  149.9637  141.0185  155.9599 C   0  0  2  0  0  0  0  0  0  0  0  0
  149.0002  141.7634  155.0215 C   0  0  0  0  0  0  0  0  0  0  0  0
  150.8337  142.0082  156.5917 N   0  0  0  0  0  0  0  0  0  0  0  0
  150.7623  142.3982  157.8750 C   0  0  0  0  0  0  0  0  0  0  0  0
  149.8984  141.9925  158.6536 O   0  0  0  0  0  0  0  0  0  0  0  0
  151.8424  143.3852  158.3426 C   0  0  1  0  0  0  0  0  0  0  0  0
  151.2712  144.7753  158.6902 C   0  0  0  0  0  0  0  0  0  0  0  0
  152.6003  142.8038  159.4444 N   0  0  0  0  0  0  0  0  0  0  0  0
  152.7140  143.2067  160.7121 C   0  0  0  0  0  0  0  0  0  0  0  0
  153.5399  142.4691  161.4406 N   0  0  0  0  0  0  0  0  0  0  0  0
  153.9425  141.5735  160.4911 C   0  0  0  0  0  0  0  0  0  0  0  0
  153.4183  141.7349  159.2764 N   0  0  0  0  0  0  0  0  0  0  0  0
  150.1436  137.0031  153.8690 H   0  0  0  0  0  0  0  0  0  0  0  0
  151.7374  137.4822  154.4618 H   0  0  0  0  0  0  0  0  0  0  0  0
  151.0799  138.2158  152.9886 H   0  0  0  0  0  0  0  0  0  0  0  0
  149.2611  138.7198  155.1079 H   0  0  0  0  0  0  0  0  0  0  0  0
  149.3944  140.4763  156.7175 H   0  0  0  0  0  0  0  0  0  0  0  0
  148.3221  141.0720  154.5196 H   0  0  0  0  0  0  0  0  0  0  0  0
  149.5331  142.3243  154.2519 H   0  0  0  0  0  0  0  0  0  0  0  0
  148.3860  142.4717  155.5781 H   0  0  0  0  0  0  0  0  0  0  0  0
  151.5759  142.3874  156.0220 H   0  0  0  0  0  0  0  0  0  0  0  0
  152.5391  143.5224  157.5138 H   0  0  0  0  0  0  0  0  0  0  0  0
  150.7571  145.2133  157.8340 H   0  0  0  0  0  0  0  0  0  0  0  0
  152.0684  145.4615  158.9772 H   0  0  0  0  0  0  0  0  0  0  0  0
  150.5594  144.7332  159.5156 H   0  0  0  0  0  0  0  0  0  0  0  0
  152.1865  144.0618  161.1088 H   0  0  0  0  0  0  0  0  0  0  0  0
  154.6479  140.7827  160.6998 H   0  0  0  0  0  0  0  0  0  0  0  0
  1  2  1  0  0  0  0
  1 17  1  0  0  0  0
  1 18  1  0  0  0  0
  1 19  1  0  0  0  0
  2  3  1  0  0  0  0
  2 20  1  0  0  0  0
  3  4  2  0  0  0  0
  3  5  1  0  0  0  0
  5  6  1  0  0  0  0
  5  7  1  0  0  0  0
  5 21  1  0  0  0  0
  6 22  1  0  0  0  0
  6 23  1  0  0  0  0
  6 24  1  0  0  0  0
  7  8  1  0  0  0  0
  7 25  1  0  0  0  0
  8  9  2  0  0  0  0
  8 10  1  0  0  0  0
 10 11  1  0  0  0  0
 10 12  1  0  0  0  0
 10 26  1  0  0  0  0
 11 27  1  0  0  0  0
 11 28  1  0  0  0  0
 11 29  1  0  0  0  0
 12 16  1  0  0  0  0
 12 13  1  0  0  0  0
 13 14  2  0  0  0  0
 13 30  1  0  0  0  0
 14 15  1  0  0  0  0
 15 16  2  0  0  0  0
 15 31  1  0  0  0  0
M  END
> <s_m_source_file>
AV-unprocessed.smi

> <i_m_source_file_index>
970

> <i_lp_mmshare_version>
43012

> <i_f3d_flags>
0

> <s_epik_input>
W0NIM11bTkhdQyg9TylbQ0BIXShbQ0gzXSlbTkhdQyg9TylbQ0BIXShbQ0gzXSluMVtjSF1uW2NIXW4x

> <s_epik_cmdline>
J2VwaWtfcHl0aG9uJywgJy1waCcsICc3LjAnLCAnLXRuJywgJzgnLCAnLW1hJywgJzIwMCcsICctbWV0YWxfYmluZGluZycsICctaW1hZScsICc8aW5maWxlLm1hZT4nLCAnLW9tYWUnLCAnPG91dGZpbGUubWFlPic=

> <r_lp_tautomer_probability>
1

> <r_epik_Ionization_Penalty>
1.07271e-05

> <r_epik_Ionization_Penalty_Charging>
0

> <r_epik_Ionization_Penalty_Neutral>
1.07271e-05

> <r_epik_State_Penalty>
-0

> <r_epik_Charging_Adjusted_Penalty>
0

> <i_epik_Tot_Q>
0

> <i_epik_Tot_abs_Q>
0

> <r_epik_Metal_State_Penalty>
-0

> <b_epik_Metal_Only>
0

> <s_lp_Force_Field>
OPLS_2005

> <r_lp_Energy>
8.21169

> <b_lp_Chiralities_Consistent>
1

> <s_lp_Variant>
AV-unprocessed.smi:970-3

> <Gold.Version>
5.8.1

> <Gold.Id.Protein>
6NUR|6NUR_protein|mol2

> <Gold.PLP.Fitness>
35.0196

> <Gold.PLP.PLP>
-35.0495

> <Gold.PLP.part.hbond>
-1.1640

> <Gold.PLP.part.metal>
0.0000

> <Gold.PLP.part.buried>
-4.8506

> <Gold.PLP.part.nonpolar>
-29.9383

> <Gold.PLP.part.repulsive>
0.2988

> <Gold.PLP.ligand.clash>
0.0000

> <Gold.PLP.ligand.torsion>
0.9134

> <Gold.PLP.Chemscore.Hbond>
0.5600

> <Gold.PLP.Chemscore.CHOScore>
0.0000

> <Gold.PLP.Chemscore.Metal>
0.0000

> <Gold.Chemscore.Hbonds>
donor molecule, donor type, donor heavy atom, donor atom, acceptor molecule, acceptor atom, score
      P1  H  7989  7998       L1     4  0.49

> <Gold.PLP.Chemscore.Internal.Correction>
0.1169

> <Gold.Rescore>
     Score         DG    S(hbond)    S(metal)    S(lipo)     H(rot)  DE(clash)    DE(int)     intcor
      7.19      -7.52       1.00        0.00      45.49       2.59       0.16       0.17       ----

> <Gold.Chemscore.Fitness>
7.1914

> <Gold.Chemscore.DG>
-7.5184

> <Gold.Chemscore.ZeroCoef>
-5.4800

> <Gold.Chemscore.Hbond>
0.9982

> <Gold.Chemscore.Metal>
0.0000

> <Gold.Chemscore.Lipo>
45.4921

> <Gold.Chemscore.Internal_Hbond>
0.0000

> <Gold.Chemscore.DEClash>
0.1618

> <Gold.Chemscore.DEInternal>
0.1653

> <Gold.Chemscore.Rot>
2.5852

> <Gold.Chemscore.Internal.Correction>
   9.000000E+99

> <Gold.Chemscore.Hbonds>
donor molecule, donor type, donor heavy atom, donor atom, acceptor molecule, acceptor atom, score
      P1  H  7989  7998       L1     4  0.12

> <Gold.Chemscore.Hbond.Weighted>
-3.3340

> <Gold.Chemscore.Metal.Weighted>
-0.0000

> <Gold.Chemscore.Lipo.Weighted>
-5.3226

> <Gold.Chemscore.Internal_Hbond.Weighted>
0.0000

> <Gold.Chemscore.DEClash.Weighted>
0.1618

> <Gold.Chemscore.DEInternal.Weighted>
0.1653

> <Gold.Chemscore.Rot.Weighted>
6.6182

> <Gold.Chemscore.Internal.Correction.Weighted>
   9.000000E+99

> <Gold.Protein.RotatedTorsions>
[ 6907 6896 6895 6894 ] final -147.57 input  -60.11 | X-H torsion
[ 7974 7965 7964 7962 ] final  -85.87 input  175.53 | X-H torsion
[ 8008 7997 7996 7995 ] final   82.60 input   59.86 | X-H torsion
[ 10167 10162 10161 10158 ] final  -16.88 input  -65.29 | X-H torsion
[ 10718 10713 10712 10709 ] final  -65.99 input   66.30 | X-H torsion
[ 10763 10752 10751 10750 ] final -168.95 input  -60.55 | X-H torsion
[ 11005 11000 10999 10996 ] final   39.76 input  -57.11 | X-H torsion

> <Gold.Protein.ActiveResidues>
 VAL166  LYS551  ARG553  GLY616  TRP617  ASP618  TYR619  PRO620  LYS621  CYS622 
 ASP623  PHE694  ASN695  SER759  ASP760  ASP761  ALA762  ILE779  LEU786  VAL792 
 PHE793  MET794  SER795  GLU796  ALA797  LYS798  CYS799  TRP800  GLU811  SER814 

> <Gold.Protein.RotatedAtoms>
  151.1575  133.4867  159.2594 H   0  0  0  0  0  0  0  0  0  0  0  0  # atno 6907 bound_to 6896
  151.1489  135.0217  159.8669 H   0  0  0  0  0  0  0  0  0  0  0  0  # atno 6908 bound_to 6896
  152.5463  134.1461  159.8552 H   0  0  0  0  0  0  0  0  0  0  0  0  # atno 6909 bound_to 6896
  145.4874  140.9554  143.1831 H   0  0  0  0  0  0  0  0  0  0  0  0  # atno 7974 bound_to 7965
  155.9128  140.3426  155.6112 H   0  0  0  0  0  0  0  0  0  0  0  0  # atno 8008 bound_to 7997
  155.7367  140.0802  157.2283 H   0  0  0  0  0  0  0  0  0  0  0  0  # atno 8009 bound_to 7997
  154.4058  140.1578  156.2557 H   0  0  0  0  0  0  0  0  0  0  0  0  # atno 8010 bound_to 7997
  140.7240  143.5071  150.9796 H   0  0  0  0  0  0  0  0  0  0  0  0  # atno 10167 bound_to 10162
  156.0638  130.4255  150.1644 H   0  0  0  0  0  0  0  0  0  0  0  0  # atno 10718 bound_to 10713
  154.6575  135.2920  154.9909 H   0  0  0  0  0  0  0  0  0  0  0  0  # atno 10763 bound_to 10752
  154.0981  135.6581  153.4867 H   0  0  0  0  0  0  0  0  0  0  0  0  # atno 10764 bound_to 10752
  153.0410  135.5236  154.7510 H   0  0  0  0  0  0  0  0  0  0  0  0  # atno 10765 bound_to 10752
  140.1996  134.3886  155.8103 H   0  0  0  0  0  0  0  0  0  0  0  0  # atno 11005 bound_to 11000
  144.7853  139.6439  143.7136 LP  0  0  0  0  0  0  0  0  0  0  0  0  # atno 17320 bound_to 7965
  146.2304  139.5803  142.9559 LP  0  0  0  0  0  0  0  0  0  0  0  0  # atno 17321 bound_to 7965
  139.8783  143.7104  152.3159 LP  0  0  0  0  0  0  0  0  0  0  0  0  # atno 17342 bound_to 10162
  139.7378  144.7567  151.0701 LP  0  0  0  0  0  0  0  0  0  0  0  0  # atno 17343 bound_to 10162
  156.9707  130.9834  151.3459 LP  0  0  0  0  0  0  0  0  0  0  0  0  # atno 17370 bound_to 10713
  157.5665  130.8281  149.8334 LP  0  0  0  0  0  0  0  0  0  0  0  0  # atno 17371 bound_to 10713
  141.2227  133.7087  156.8235 LP  0  0  0  0  0  0  0  0  0  0  0  0  # atno 17394 bound_to 11000
  140.2068  134.8856  157.3231 LP  0  0  0  0  0  0  0  0  0  0  0  0  # atno 17395 bound_to 11000

$$$$
