AV-unprocessed.smi:2190|AV-procd|sdf|8891|dock1
  -GOLD-   2272012 93D 1   1.00000     0.00000
 Structure written by MMmdl.
 47 49  0  0  0  0  0  0  0  0  2 V2000
  151.6362  145.5338  160.2643 C   0  0  0  0  0  0  0  0  0  0  0  0
  151.7940  144.0692  159.9106 C   0  0  0  0  0  0  0  0  0  0  0  0
  152.9361  143.3577  160.3249 C   0  0  0  0  0  0  0  0  0  0  0  0
  153.0766  141.9990  159.9904 C   0  0  0  0  0  0  0  0  0  0  0  0
  152.0786  141.3437  159.2398 C   0  0  0  0  0  0  0  0  0  0  0  0
  152.2478  139.8777  158.8876 C   0  0  0  0  0  0  0  0  0  0  0  0
  150.9264  142.0465  158.8164 C   0  0  0  0  0  0  0  0  0  0  0  0
  149.9882  141.3468  158.0853 O   0  0  0  0  0  0  0  0  0  0  0  0
  148.7391  141.9678  157.8126 C   0  0  0  0  0  0  0  0  0  0  0  0
  147.9235  141.0535  156.8855 C   0  0  1  0  0  0  0  0  0  0  0  0
  146.5530  141.2070  157.1980 O   0  0  0  0  0  0  0  0  0  0  0  0
  148.1463  141.4000  155.3999 C   0  0  0  0  0  0  0  0  0  0  0  0
  148.7416  140.2904  154.6354 N   0  0  0  0  0  0  0  0  0  0  0  0
  148.1956  139.4979  153.6675 C   0  0  0  0  0  0  0  0  0  0  0  0
  146.8090  139.5714  153.1176 C   0  0  0  0  0  0  0  0  0  0  0  0
  146.7968  139.8208  151.7296 O   0  0  0  0  0  0  0  0  0  0  0  0
  149.1601  138.6205  153.2719 N   0  3  0  0  0  0  0  0  0  0  0  0
  150.3341  138.8529  153.9886 C   0  0  0  0  0  0  0  0  0  0  0  0
  151.5728  138.2213  153.9343 C   0  0  0  0  0  0  0  0  0  0  0  0
  152.5709  138.7102  154.8021 C   0  0  0  0  0  0  0  0  0  0  0  0
  152.3194  139.7872  155.6765 C   0  0  0  0  0  0  0  0  0  0  0  0
  151.0590  140.4183  155.7234 C   0  0  0  0  0  0  0  0  0  0  0  0
  150.0752  139.9271  154.8648 C   0  0  0  0  0  0  0  0  0  0  0  0
  150.7960  143.4168  159.1591 C   0  0  0  0  0  0  0  0  0  0  0  0
  152.3323  145.8288  161.0501 H   0  0  0  0  0  0  0  0  0  0  0  0
  150.6241  145.7353  160.6163 H   0  0  0  0  0  0  0  0  0  0  0  0
  151.8256  146.1542  159.3883 H   0  0  0  0  0  0  0  0  0  0  0  0
  153.7076  143.8500  160.8989 H   0  0  0  0  0  0  0  0  0  0  0  0
  153.9562  141.4616  160.3133 H   0  0  0  0  0  0  0  0  0  0  0  0
  151.4229  139.2925  159.2951 H   0  0  0  0  0  0  0  0  0  0  0  0
  153.1786  139.4751  159.2880 H   0  0  0  0  0  0  0  0  0  0  0  0
  152.2608  139.7474  157.8053 H   0  0  0  0  0  0  0  0  0  0  0  0
  148.1852  142.1830  158.7285 H   0  0  0  0  0  0  0  0  0  0  0  0
  148.9308  142.9157  157.3068 H   0  0  0  0  0  0  0  0  0  0  0  0
  148.2094  140.0145  157.0535 H   0  0  0  0  0  0  0  0  0  0  0  0
  146.4812  141.7791  157.9470 H   0  0  0  0  0  0  0  0  0  0  0  0
  147.2165  141.7121  154.9248 H   0  0  0  0  0  0  0  0  0  0  0  0
  148.8221  142.2509  155.3136 H   0  0  0  0  0  0  0  0  0  0  0  0
  146.2928  138.6313  153.3133 H   0  0  0  0  0  0  0  0  0  0  0  0
  146.2482  140.3545  153.6272 H   0  0  0  0  0  0  0  0  0  0  0  0
  147.6843  139.9751  151.4433 H   0  0  0  0  0  0  0  0  0  0  0  0
  151.7687  137.3987  153.2624 H   0  0  0  0  0  0  0  0  0  0  0  0
  153.5495  138.2522  154.7945 H   0  0  0  0  0  0  0  0  0  0  0  0
  153.1098  140.1384  156.3239 H   0  0  0  0  0  0  0  0  0  0  0  0
  150.8826  141.2468  156.3930 H   0  0  0  0  0  0  0  0  0  0  0  0
  149.9352  143.9924  158.8547 H   0  0  0  0  0  0  0  0  0  0  0  0
  149.0232  137.9182  152.5565 H   0  0  0  0  0  0  0  0  0  0  0  0
  1  2  1  0  0  0  0
  1 25  1  0  0  0  0
  1 26  1  0  0  0  0
  1 27  1  0  0  0  0
  2 24  1  0  0  0  0
  2  3  2  0  0  0  0
  3  4  1  0  0  0  0
  3 28  1  0  0  0  0
  4  5  2  0  0  0  0
  4 29  1  0  0  0  0
  5  6  1  0  0  0  0
  5  7  1  0  0  0  0
  6 30  1  0  0  0  0
  6 31  1  0  0  0  0
  6 32  1  0  0  0  0
  7  8  1  0  0  0  0
  7 24  2  0  0  0  0
  8  9  1  0  0  0  0
  9 10  1  0  0  0  0
  9 33  1  0  0  0  0
  9 34  1  0  0  0  0
 10 11  1  0  0  0  0
 10 12  1  0  0  0  0
 10 35  1  0  0  0  0
 11 36  1  0  0  0  0
 12 13  1  0  0  0  0
 12 37  1  0  0  0  0
 12 38  1  0  0  0  0
 13 23  1  0  0  0  0
 13 14  1  0  0  0  0
 14 15  1  0  0  0  0
 14 17  2  0  0  0  0
 15 16  1  0  0  0  0
 15 39  1  0  0  0  0
 15 40  1  0  0  0  0
 16 41  1  0  0  0  0
 17 18  1  0  0  0  0
 17 47  1  0  0  0  0
 18 23  2  0  0  0  0
 18 19  1  0  0  0  0
 19 20  2  0  0  0  0
 19 42  1  0  0  0  0
 20 21  1  0  0  0  0
 20 43  1  0  0  0  0
 21 22  2  0  0  0  0
 21 44  1  0  0  0  0
 22 23  1  0  0  0  0
 22 45  1  0  0  0  0
 24 46  1  0  0  0  0
M  CHG  1  17   1
M  END
> <s_m_source_file>
AV-unprocessed.smi

> <i_m_source_file_index>
2190

> <i_lp_mmshare_version>
43012

> <i_f3d_flags>
0

> <s_epik_input>
W0NIM11jMVtjSF1bY0hdYyhbQ0gzXSljKFtjSF0xKU9bQ0gyXVtDQEhdKFtPSF0pW0NIMl1uKGMobjIpW0NIMl1bT0hdKWMoYzIzKVtjSF1bY0hdW2NIXVtjSF0z

> <s_epik_cmdline>
J2VwaWtfcHl0aG9uJywgJy1waCcsICc3LjAnLCAnLXRuJywgJzgnLCAnLW1hJywgJzIwMCcsICctbWV0YWxfYmluZGluZycsICctaW1hZScsICc8aW5maWxlLm1hZT4nLCAnLW9tYWUnLCAnPG91dGZpbGUubWFlPic=

> <r_lp_tautomer_probability>
1

> <r_epik_Ionization_Penalty>
1.43125

> <r_epik_Ionization_Penalty_Charging>
1.43039

> <r_epik_Ionization_Penalty_Neutral>
0.000858184

> <r_epik_State_Penalty>
1.51493

> <r_epik_Charging_Adjusted_Penalty>
2.94531

> <i_epik_Tot_Q>
1

> <i_epik_Tot_abs_Q>
1

> <r_epik_Metal_State_Penalty>
5.5599

> <b_epik_Metal_Only>
0

> <s_lp_Force_Field>
OPLS_2005

> <r_lp_Energy>
19.5123

> <b_lp_Chiralities_Consistent>
1

> <s_lp_Variant>
AV-unprocessed.smi:2190-4

> <Gold.Version>
5.8.1

> <Gold.Id.Protein>
6NUR|6NUR_protein|mol2

> <Gold.PLP.Fitness>
60.9778

> <Gold.PLP.PLP>
-54.5949

> <Gold.PLP.part.hbond>
-3.0319

> <Gold.PLP.part.metal>
0.0000

> <Gold.PLP.part.buried>
-5.2195

> <Gold.PLP.part.nonpolar>
-46.5437

> <Gold.PLP.part.repulsive>
0.1108

> <Gold.PLP.ligand.clash>
0.0000

> <Gold.PLP.ligand.torsion>
1.3480

> <Gold.PLP.Chemscore.Hbond>
3.0000

> <Gold.PLP.Chemscore.CHOScore>
0.0000

> <Gold.PLP.Chemscore.Metal>
0.0000

> <Gold.Chemscore.Hbonds>
donor molecule, donor type, donor heavy atom, donor atom, acceptor molecule, acceptor atom, score
      L1  H    16    41       P1  7957  1.00
      L1  H    17    47       P1  7948  2.00

> <Gold.PLP.Chemscore.Internal.Correction>
0.0789

> <Gold.Rescore>
     Score         DG    S(hbond)    S(metal)    S(lipo)     H(rot)  DE(clash)    DE(int)     intcor
     18.09     -20.69       1.99        0.00     139.85       3.05       0.05       2.55       ----

> <Gold.Chemscore.Fitness>
18.0857

> <Gold.Chemscore.DG>
-20.6904

> <Gold.Chemscore.ZeroCoef>
-5.4800

> <Gold.Chemscore.Hbond>
1.9910

> <Gold.Chemscore.Metal>
0.0000

> <Gold.Chemscore.Lipo>
139.8477

> <Gold.Chemscore.Internal_Hbond>
0.0000

> <Gold.Chemscore.DEClash>
0.0507

> <Gold.Chemscore.DEInternal>
2.5540

> <Gold.Chemscore.Rot>
3.0476

> <Gold.Chemscore.Internal.Correction>
   9.000000E+99

> <Gold.Chemscore.Hbonds>
donor molecule, donor type, donor heavy atom, donor atom, acceptor molecule, acceptor atom, score
      L1  H    16    41       P1  7957  1.00
      L1  H    17    47       P1  7948  0.98

> <Gold.Chemscore.Hbond.Weighted>
-6.6500

> <Gold.Chemscore.Metal.Weighted>
-0.0000

> <Gold.Chemscore.Lipo.Weighted>
-16.3622

> <Gold.Chemscore.Internal_Hbond.Weighted>
0.0000

> <Gold.Chemscore.DEClash.Weighted>
0.0507

> <Gold.Chemscore.DEInternal.Weighted>
2.5540

> <Gold.Chemscore.Rot.Weighted>
7.8018

> <Gold.Chemscore.Internal.Correction.Weighted>
   9.000000E+99

> <Gold.Protein.RotatedTorsions>
[ 6907 6896 6895 6894 ] final   -4.58 input  -60.11 | X-H torsion
[ 7974 7965 7964 7962 ] final -138.70 input  175.53 | X-H torsion
[ 8008 7997 7996 7995 ] final  -33.53 input   59.86 | X-H torsion
[ 10167 10162 10161 10158 ] final  -96.52 input  -65.29 | X-H torsion
[ 10718 10713 10712 10709 ] final -157.20 input   66.30 | X-H torsion
[ 10763 10752 10751 10750 ] final  -20.01 input  -60.55 | X-H torsion
[ 11005 11000 10999 10996 ] final   88.77 input  -57.11 | X-H torsion

> <Gold.Protein.ActiveResidues>
 VAL166  LYS551  ARG553  GLY616  TRP617  ASP618  TYR619  PRO620  LYS621  CYS622 
 ASP623  PHE694  ASN695  SER759  ASP760  ASP761  ALA762  ILE779  LEU786  VAL792 
 PHE793  MET794  SER795  GLU796  ALA797  LYS798  CYS799  TRP800  GLU811  SER814 

> <Gold.Protein.RotatedAtoms>
  151.4954  135.1059  159.9814 H   0  0  0  0  0  0  0  0  0  0  0  0  # atno 6907 bound_to 6896
  152.4724  133.8056  159.6986 H   0  0  0  0  0  0  0  0  0  0  0  0  # atno 6908 bound_to 6896
  150.8741  133.7401  159.2978 H   0  0  0  0  0  0  0  0  0  0  0  0  # atno 6909 bound_to 6896
  144.8737  140.6405  143.5250 H   0  0  0  0  0  0  0  0  0  0  0  0  # atno 7974 bound_to 7965
  154.4146  140.1708  156.1903 H   0  0  0  0  0  0  0  0  0  0  0  0  # atno 8008 bound_to 7997
  155.9608  140.3393  155.6465 H   0  0  0  0  0  0  0  0  0  0  0  0  # atno 8009 bound_to 7997
  155.6750  140.0716  157.2496 H   0  0  0  0  0  0  0  0  0  0  0  0  # atno 8010 bound_to 7997
  140.2930  143.3210  152.0327 H   0  0  0  0  0  0  0  0  0  0  0  0  # atno 10167 bound_to 10162
  156.5370  130.8546  151.2736 H   0  0  0  0  0  0  0  0  0  0  0  0  # atno 10718 bound_to 10713
  153.6137  135.6995  153.5337 H   0  0  0  0  0  0  0  0  0  0  0  0  # atno 10763 bound_to 10752
  153.2995  135.4133  155.1239 H   0  0  0  0  0  0  0  0  0  0  0  0  # atno 10764 bound_to 10752
  154.8558  135.3645  154.5676 H   0  0  0  0  0  0  0  0  0  0  0  0  # atno 10765 bound_to 10752
  139.8889  134.8509  156.3048 H   0  0  0  0  0  0  0  0  0  0  0  0  # atno 11005 bound_to 11000
  145.4083  139.1585  143.4140 LP  0  0  0  0  0  0  0  0  0  0  0  0  # atno 17320 bound_to 7965
  146.2948  140.4185  142.8726 LP  0  0  0  0  0  0  0  0  0  0  0  0  # atno 17321 bound_to 7965
  139.4933  144.6511  151.6673 LP  0  0  0  0  0  0  0  0  0  0  0  0  # atno 17342 bound_to 10162
  140.5716  144.0099  150.6220 LP  0  0  0  0  0  0  0  0  0  0  0  0  # atno 17343 bound_to 10162
  157.7412  130.9865  150.2428 LP  0  0  0  0  0  0  0  0  0  0  0  0  # atno 17370 bound_to 10713
  156.3007  130.3758  149.7753 LP  0  0  0  0  0  0  0  0  0  0  0  0  # atno 17371 bound_to 10713
  140.9890  133.7220  156.0784 LP  0  0  0  0  0  0  0  0  0  0  0  0  # atno 17394 bound_to 11000
  140.7651  134.3896  157.5518 LP  0  0  0  0  0  0  0  0  0  0  0  0  # atno 17395 bound_to 11000

$$$$
