AV-unprocessed.smi:1141|AV-procd|sdf|4872|dock1
  -GOLD-   22720 3443D 1   1.00000     0.00000
 Structure written by MMmdl.
 45 46  0  0  0  0  0  0  0  0  1 V2000
  149.3702  131.6594  153.7369 C   0  0  0  0  0  0  0  0  0  0  0  0
  149.0937  132.1641  155.0311 O   0  0  0  0  0  0  0  0  0  0  0  0
  150.0394  131.7282  155.9960 C   0  0  0  0  0  0  0  0  0  0  0  0
  149.7889  132.4553  157.3171 C   0  0  0  0  0  0  0  0  0  0  0  0
  150.2144  131.9692  158.3643 O   0  0  0  0  0  0  0  0  0  0  0  0
  149.0664  133.5876  157.2388 N   0  0  0  0  0  0  0  0  0  0  0  0
  148.6500  134.4483  158.2939 C   0  0  0  0  0  0  0  0  0  0  0  0
  148.2222  133.9563  159.5502 C   0  0  0  0  0  0  0  0  0  0  0  0
  147.8706  134.8673  160.5622 C   0  0  0  0  0  0  0  0  0  0  0  0
  147.9664  136.2450  160.2953 C   0  0  0  0  0  0  0  0  0  0  0  0
  147.6216  137.1385  161.2886 O   0  0  0  0  0  0  0  0  0  0  0  0
  146.9253  136.6445  162.4278 C   0  0  0  0  0  0  0  0  0  0  0  0
  148.3889  136.7248  159.1013 N   0  0  0  0  0  0  0  0  0  0  0  0
  148.7282  135.8557  158.1193 C   0  0  0  0  0  0  0  0  0  0  0  0
  149.1475  136.4043  156.8909 N   0  0  0  0  0  0  0  0  0  0  0  0
  148.7280  137.7920  156.6914 C   0  0  0  0  0  0  0  0  0  0  0  0
  148.9993  138.2399  155.2425 C   0  0  0  0  0  0  0  0  0  0  0  0
  150.4138  138.0021  154.9259 N   0  0  0  0  0  0  0  0  0  0  0  0
  151.2980  139.0048  154.7094 C   0  0  0  0  0  0  0  0  0  0  0  0
  152.7706  138.6652  154.4689 C   0  0  0  0  0  0  0  0  0  0  0  0
  150.9689  140.1910  154.6997 O   0  0  0  0  0  0  0  0  0  0  0  0
  150.7461  136.5733  155.0151 C   0  0  0  0  0  0  0  0  0  0  0  0
  150.5140  136.0983  156.4616 C   0  0  0  0  0  0  0  0  0  0  0  0
  148.6205  132.0231  153.0342 H   0  0  0  0  0  0  0  0  0  0  0  0
  149.3421  130.5689  153.7250 H   0  0  0  0  0  0  0  0  0  0  0  0
  150.3492  131.9886  153.3861 H   0  0  0  0  0  0  0  0  0  0  0  0
  149.9498  130.6532  156.1607 H   0  0  0  0  0  0  0  0  0  0  0  0
  151.0548  131.9316  155.6505 H   0  0  0  0  0  0  0  0  0  0  0  0
  148.7011  133.8145  156.3248 H   0  0  0  0  0  0  0  0  0  0  0  0
  148.1762  132.8992  159.7616 H   0  0  0  0  0  0  0  0  0  0  0  0
  147.5411  134.5146  161.5283 H   0  0  0  0  0  0  0  0  0  0  0  0
  146.7280  137.4670  163.1151 H   0  0  0  0  0  0  0  0  0  0  0  0
  147.5164  135.9002  162.9636 H   0  0  0  0  0  0  0  0  0  0  0  0
  145.9650  136.2071  162.1507 H   0  0  0  0  0  0  0  0  0  0  0  0
  147.6694  137.9144  156.9202 H   0  0  0  0  0  0  0  0  0  0  0  0
  149.2756  138.4298  157.3868 H   0  0  0  0  0  0  0  0  0  0  0  0
  148.3761  137.6701  154.5516 H   0  0  0  0  0  0  0  0  0  0  0  0
  148.7053  139.2829  155.1193 H   0  0  0  0  0  0  0  0  0  0  0  0
  153.1884  138.1305  155.3224 H   0  0  0  0  0  0  0  0  0  0  0  0
  153.3564  139.5743  154.3276 H   0  0  0  0  0  0  0  0  0  0  0  0
  152.8856  138.0532  153.5739 H   0  0  0  0  0  0  0  0  0  0  0  0
  150.1013  136.0164  154.3335 H   0  0  0  0  0  0  0  0  0  0  0  0
  151.7648  136.3383  154.7108 H   0  0  0  0  0  0  0  0  0  0  0  0
  151.2271  136.5870  157.1272 H   0  0  0  0  0  0  0  0  0  0  0  0
  150.6881  135.0240  156.5325 H   0  0  0  0  0  0  0  0  0  0  0  0
  1  2  1  0  0  0  0
  1 24  1  0  0  0  0
  1 25  1  0  0  0  0
  1 26  1  0  0  0  0
  2  3  1  0  0  0  0
  3  4  1  0  0  0  0
  3 27  1  0  0  0  0
  3 28  1  0  0  0  0
  4  5  2  0  0  0  0
  4  6  1  0  0  0  0
  6  7  1  0  0  0  0
  6 29  1  0  0  0  0
  7 14  1  0  0  0  0
  7  8  2  0  0  0  0
  8  9  1  0  0  0  0
  8 30  1  0  0  0  0
  9 10  2  0  0  0  0
  9 31  1  0  0  0  0
 10 11  1  0  0  0  0
 10 13  1  0  0  0  0
 11 12  1  0  0  0  0
 12 32  1  0  0  0  0
 12 33  1  0  0  0  0
 12 34  1  0  0  0  0
 13 14  2  0  0  0  0
 14 15  1  0  0  0  0
 15 23  1  0  0  0  0
 15 16  1  0  0  0  0
 16 17  1  0  0  0  0
 16 35  1  0  0  0  0
 16 36  1  0  0  0  0
 17 18  1  0  0  0  0
 17 37  1  0  0  0  0
 17 38  1  0  0  0  0
 18 19  1  0  0  0  0
 18 22  1  0  0  0  0
 19 20  1  0  0  0  0
 19 21  2  0  0  0  0
 20 39  1  0  0  0  0
 20 40  1  0  0  0  0
 20 41  1  0  0  0  0
 22 23  1  0  0  0  0
 22 42  1  0  0  0  0
 22 43  1  0  0  0  0
 23 44  1  0  0  0  0
 23 45  1  0  0  0  0
M  END
> <s_m_source_file>
AV-unprocessed.smi

> <i_m_source_file_index>
1141

> <i_lp_mmshare_version>
43012

> <i_f3d_flags>
0

> <s_epik_input>
W0NIM11PW0NIMl1DKD1PKVtOSF1jMVtjSF1bY0hdYyhPW0NIM10pbmMxTjJbQ0gyXVtDSDJdTihDKD1PKVtDSDNdKVtDSDJdW0NIMl0y

> <s_epik_cmdline>
J2VwaWtfcHl0aG9uJywgJy1waCcsICc3LjAnLCAnLXRuJywgJzgnLCAnLW1hJywgJzIwMCcsICctbWV0YWxfYmluZGluZycsICctaW1hZScsICc8aW5maWxlLm1hZT4nLCAnLW9tYWUnLCAnPG91dGZpbGUubWFlPic=

> <r_lp_tautomer_probability>
1

> <r_epik_Ionization_Penalty>
0.000141552

> <r_epik_Ionization_Penalty_Charging>
0

> <r_epik_Ionization_Penalty_Neutral>
0.000141552

> <r_epik_State_Penalty>
-0

> <r_epik_Charging_Adjusted_Penalty>
0

> <i_epik_Tot_Q>
0

> <i_epik_Tot_abs_Q>
0

> <r_epik_Metal_State_Penalty>
-0

> <b_epik_Metal_Only>
0

> <s_lp_Force_Field>
OPLS_2005

> <r_lp_Energy>
39.8062

> <b_lp_Chiralities_Consistent>
1

> <s_lp_Variant>
AV-unprocessed.smi:1141-1

> <Gold.Version>
5.8.1

> <Gold.Id.Protein>
6NUR|6NUR_protein|mol2

> <Gold.PLP.Fitness>
40.7975

> <Gold.PLP.PLP>
-31.2301

> <Gold.PLP.part.hbond>
-3.9657

> <Gold.PLP.part.metal>
0.0000

> <Gold.PLP.part.buried>
-4.5195

> <Gold.PLP.part.nonpolar>
-22.3217

> <Gold.PLP.part.repulsive>
0.1450

> <Gold.PLP.ligand.clash>
0.2006

> <Gold.PLP.ligand.torsion>
1.0563

> <Gold.PLP.Chemscore.Hbond>
3.8240

> <Gold.PLP.Chemscore.CHOScore>
0.0000

> <Gold.PLP.Chemscore.Metal>
0.0000

> <Gold.Chemscore.Hbonds>
donor molecule, donor type, donor heavy atom, donor atom, acceptor molecule, acceptor atom, score
      P1  H  6896  6908       L1     5  1.00
      P1  H  6931  6943       L1    11  0.98
      P1  H  6934  6947       L1    11  0.88
      P1  H  7989  7998       L1    21  1.00

> <Gold.PLP.Chemscore.Internal.Correction>
0.4086

> <Gold.Rescore>
     Score         DG    S(hbond)    S(metal)    S(lipo)     H(rot)  DE(clash)    DE(int)     intcor
     13.96     -16.94       2.94        0.00      52.47       1.75       0.01       2.98       ----

> <Gold.Chemscore.Fitness>
13.9562

> <Gold.Chemscore.DG>
-16.9410

> <Gold.Chemscore.ZeroCoef>
-5.4800

> <Gold.Chemscore.Hbond>
2.9376

> <Gold.Chemscore.Metal>
0.0000

> <Gold.Chemscore.Lipo>
52.4653

> <Gold.Chemscore.Internal_Hbond>
0.0000

> <Gold.Chemscore.DEClash>
0.0052

> <Gold.Chemscore.DEInternal>
2.9796

> <Gold.Chemscore.Rot>
1.7535

> <Gold.Chemscore.Internal.Correction>
   9.000000E+99

> <Gold.Chemscore.Hbonds>
donor molecule, donor type, donor heavy atom, donor atom, acceptor molecule, acceptor atom, score
      P1  H  6896  6908       L1     5  0.44
      P1  H  6931  6943       L1    11  0.56
      P1  H  6934  6947       L1    11  0.69
      P1  H  7989  7998       L1    21  0.65

> <Gold.Chemscore.Hbond.Weighted>
-9.8116

> <Gold.Chemscore.Metal.Weighted>
-0.0000

> <Gold.Chemscore.Lipo.Weighted>
-6.1384

> <Gold.Chemscore.Internal_Hbond.Weighted>
0.0000

> <Gold.Chemscore.DEClash.Weighted>
0.0052

> <Gold.Chemscore.DEInternal.Weighted>
2.9796

> <Gold.Chemscore.Rot.Weighted>
4.4890

> <Gold.Chemscore.Internal.Correction.Weighted>
   9.000000E+99

> <Gold.Protein.RotatedTorsions>
[ 6907 6896 6895 6894 ] final   93.52 input  -60.11 | X-H torsion
[ 7974 7965 7964 7962 ] final  137.04 input  175.53 | X-H torsion
[ 8008 7997 7996 7995 ] final   29.00 input   59.86 | X-H torsion
[ 10167 10162 10161 10158 ] final  -31.93 input  -65.29 | X-H torsion
[ 10718 10713 10712 10709 ] final  -29.66 input   66.30 | X-H torsion
[ 10763 10752 10751 10750 ] final  -30.44 input  -60.55 | X-H torsion
[ 11005 11000 10999 10996 ] final -178.00 input  -57.11 | X-H torsion

> <Gold.Protein.ActiveResidues>
 VAL166  LYS551  ARG553  GLY616  TRP617  ASP618  TYR619  PRO620  LYS621  CYS622 
 ASP623  PHE694  ASN695  SER759  ASP760  ASP761  ALA762  ILE779  LEU786  VAL792 
 PHE793  MET794  SER795  GLU796  ALA797  LYS798  CYS799  TRP800  GLU811  SER814 

> <Gold.Protein.RotatedAtoms>
  152.5452  134.1335  159.8448 H   0  0  0  0  0  0  0  0  0  0  0  0  # atno 6907 bound_to 6896
  151.1378  133.4985  159.2605 H   0  0  0  0  0  0  0  0  0  0  0  0  # atno 6908 bound_to 6896
  151.1605  135.0281  159.8763 H   0  0  0  0  0  0  0  0  0  0  0  0  # atno 6909 bound_to 6896
  144.9506  139.4823  143.5527 H   0  0  0  0  0  0  0  0  0  0  0  0  # atno 7974 bound_to 7965
  155.0676  140.3197  155.4640 H   0  0  0  0  0  0  0  0  0  0  0  0  # atno 8008 bound_to 7997
  156.2798  140.2117  156.5748 H   0  0  0  0  0  0  0  0  0  0  0  0  # atno 8009 bound_to 7997
  154.7081  140.0500  157.0511 H   0  0  0  0  0  0  0  0  0  0  0  0  # atno 8010 bound_to 7997
  140.7229  143.3733  151.1736 H   0  0  0  0  0  0  0  0  0  0  0  0  # atno 10167 bound_to 10162
  156.4097  130.4406  149.7261 H   0  0  0  0  0  0  0  0  0  0  0  0  # atno 10718 bound_to 10713
  153.7809  135.6905  153.4888 H   0  0  0  0  0  0  0  0  0  0  0  0  # atno 10763 bound_to 10752
  153.1812  135.4506  155.0029 H   0  0  0  0  0  0  0  0  0  0  0  0  # atno 10764 bound_to 10752
  154.8082  135.3366  154.7312 H   0  0  0  0  0  0  0  0  0  0  0  0  # atno 10765 bound_to 10752
  140.4346  134.6487  157.4728 H   0  0  0  0  0  0  0  0  0  0  0  0  # atno 11005 bound_to 11000
  146.3320  139.8589  142.8860 LP  0  0  0  0  0  0  0  0  0  0  0  0  # atno 17320 bound_to 7965
  145.2849  141.0150  143.3696 LP  0  0  0  0  0  0  0  0  0  0  0  0  # atno 17321 bound_to 7965
  139.7309  143.9074  152.3019 LP  0  0  0  0  0  0  0  0  0  0  0  0  # atno 17342 bound_to 10162
  139.8863  144.6990  150.8821 LP  0  0  0  0  0  0  0  0  0  0  0  0  # atno 17343 bound_to 10162
  156.4245  130.7785  151.2803 LP  0  0  0  0  0  0  0  0  0  0  0  0  # atno 17370 bound_to 10713
  157.7506  131.0173  150.3579 LP  0  0  0  0  0  0  0  0  0  0  0  0  # atno 17371 bound_to 10713
  140.0111  134.6690  155.9380 LP  0  0  0  0  0  0  0  0  0  0  0  0  # atno 17394 bound_to 11000
  141.1731  133.6538  156.4726 LP  0  0  0  0  0  0  0  0  0  0  0  0  # atno 17395 bound_to 11000

$$$$
