AV-unprocessed.smi:2331|AV-procd|sdf|9315|dock6
  -GOLD-   2272012533D 1   1.00000     0.00000
 Structure written by MMmdl.
 49 50  0  0  0  0  0  0  0  0  1 V2000
  152.4063  144.5875  158.0456 C   0  0  0  0  0  0  0  0  0  0  0  0
  151.5785  144.2500  159.3032 C   0  0  0  0  0  0  0  0  0  0  0  0
  151.2656  145.5870  160.0178 C   0  0  0  0  0  0  0  0  0  0  0  0
  150.2378  143.6057  158.8652 C   0  0  0  0  0  0  0  0  0  0  0  0
  150.4299  142.6217  157.8040 N   0  0  0  0  0  0  0  0  0  0  0  0
  149.4583  141.9408  157.1761 C   0  0  0  0  0  0  0  0  0  0  0  0
  148.2629  142.1114  157.4174 O   0  0  0  0  0  0  0  0  0  0  0  0
  149.9146  141.1116  156.2063 N   0  0  0  0  0  0  0  0  0  0  0  0
  151.3347  140.7726  156.0349 C   0  0  0  0  0  0  0  0  0  0  0  0
  151.3926  139.5469  155.1256 C   0  0  0  0  0  0  0  0  0  0  0  0
  149.9938  138.9516  155.2009 C   0  0  0  0  0  0  0  0  0  0  0  0
  149.0672  140.1491  155.4796 C   0  0  2  0  0  0  0  0  0  0  0  0
  148.3575  140.7407  154.2122 C   0  0  0  0  0  0  0  0  0  0  0  0
  147.4845  139.6660  153.5343 C   0  0  0  0  0  0  0  0  0  0  0  0
  147.4883  141.9851  154.4825 C   0  0  0  0  0  0  0  0  0  0  0  0
  149.3233  141.1254  153.2520 O   0  0  0  0  0  0  0  0  0  0  0  0
  152.3723  143.2761  160.1962 C   0  0  0  0  0  0  0  0  0  0  0  0
  152.5639  143.4880  161.5840 C   0  0  0  0  0  0  0  0  0  0  0  0
  153.2874  142.5352  162.3283 C   0  0  0  0  0  0  0  0  0  0  0  0
  153.8164  141.4170  161.7913 N   0  0  0  0  0  0  0  0  0  0  0  0
  153.6361  141.2118  160.4709 C   0  0  0  0  0  0  0  0  0  0  0  0
  152.9278  142.1007  159.6388 C   0  0  0  0  0  0  0  0  0  0  0  0
  151.8804  145.2941  157.4025 H   0  0  0  0  0  0  0  0  0  0  0  0
  152.6163  143.7038  157.4427 H   0  0  0  0  0  0  0  0  0  0  0  0
  153.3638  145.0367  158.3118 H   0  0  0  0  0  0  0  0  0  0  0  0
  150.7098  146.2617  159.3656 H   0  0  0  0  0  0  0  0  0  0  0  0
  152.1776  146.1078  160.3116 H   0  0  0  0  0  0  0  0  0  0  0  0
  150.6593  145.4424  160.9126 H   0  0  0  0  0  0  0  0  0  0  0  0
  149.7419  143.1556  159.7271 H   0  0  0  0  0  0  0  0  0  0  0  0
  149.5541  144.3658  158.4855 H   0  0  0  0  0  0  0  0  0  0  0  0
  151.3830  142.4417  157.5234 H   0  0  0  0  0  0  0  0  0  0  0  0
  151.8931  141.6062  155.6064 H   0  0  0  0  0  0  0  0  0  0  0  0
  151.7778  140.5330  157.0035 H   0  0  0  0  0  0  0  0  0  0  0  0
  151.6112  139.8561  154.1031 H   0  0  0  0  0  0  0  0  0  0  0  0
  152.1647  138.8380  155.4255 H   0  0  0  0  0  0  0  0  0  0  0  0
  149.7386  138.3831  154.3074 H   0  0  0  0  0  0  0  0  0  0  0  0
  149.9483  138.2604  156.0436 H   0  0  0  0  0  0  0  0  0  0  0  0
  148.2838  139.8005  156.1557 H   0  0  0  0  0  0  0  0  0  0  0  0
  146.7056  139.3112  154.2100 H   0  0  0  0  0  0  0  0  0  0  0  0
  148.0645  138.7987  153.2206 H   0  0  0  0  0  0  0  0  0  0  0  0
  146.9888  140.0576  152.6451 H   0  0  0  0  0  0  0  0  0  0  0  0
  146.7111  141.7719  155.2165 H   0  0  0  0  0  0  0  0  0  0  0  0
  146.9884  142.3239  153.5743 H   0  0  0  0  0  0  0  0  0  0  0  0
  148.0783  142.8257  154.8483 H   0  0  0  0  0  0  0  0  0  0  0  0
  149.3990  140.4366  152.6095 H   0  0  0  0  0  0  0  0  0  0  0  0
  152.1721  144.3530  162.0961 H   0  0  0  0  0  0  0  0  0  0  0  0
  153.4432  142.6758  163.3876 H   0  0  0  0  0  0  0  0  0  0  0  0
  154.0673  140.3093  160.0634 H   0  0  0  0  0  0  0  0  0  0  0  0
  152.8130  141.8725  158.5896 H   0  0  0  0  0  0  0  0  0  0  0  0
  1  2  1  0  0  0  0
  1 23  1  0  0  0  0
  1 24  1  0  0  0  0
  1 25  1  0  0  0  0
  2  3  1  0  0  0  0
  2  4  1  0  0  0  0
  2 17  1  0  0  0  0
  3 26  1  0  0  0  0
  3 27  1  0  0  0  0
  3 28  1  0  0  0  0
  4  5  1  0  0  0  0
  4 29  1  0  0  0  0
  4 30  1  0  0  0  0
  5  6  1  0  0  0  0
  5 31  1  0  0  0  0
  6  7  2  0  0  0  0
  6  8  1  0  0  0  0
  8 12  1  0  0  0  0
  8  9  1  0  0  0  0
  9 10  1  0  0  0  0
  9 32  1  0  0  0  0
  9 33  1  0  0  0  0
 10 11  1  0  0  0  0
 10 34  1  0  0  0  0
 10 35  1  0  0  0  0
 11 12  1  0  0  0  0
 11 36  1  0  0  0  0
 11 37  1  0  0  0  0
 12 13  1  0  0  0  0
 12 38  1  0  0  0  0
 13 14  1  0  0  0  0
 13 15  1  0  0  0  0
 13 16  1  0  0  0  0
 14 39  1  0  0  0  0
 14 40  1  0  0  0  0
 14 41  1  0  0  0  0
 15 42  1  0  0  0  0
 15 43  1  0  0  0  0
 15 44  1  0  0  0  0
 16 45  1  0  0  0  0
 17 22  1  0  0  0  0
 17 18  2  0  0  0  0
 18 19  1  0  0  0  0
 18 46  1  0  0  0  0
 19 20  2  0  0  0  0
 19 47  1  0  0  0  0
 20 21  1  0  0  0  0
 21 22  2  0  0  0  0
 21 48  1  0  0  0  0
 22 49  1  0  0  0  0
M  END
> <s_m_source_file>
AV-unprocessed.smi

> <i_m_source_file_index>
2331

> <i_lp_mmshare_version>
43012

> <i_f3d_flags>
0

> <s_epik_input>
W2NIXTFbY0hdbltjSF1bY0hdYzFDKFtDSDNdKShbQ0gzXSlbQ0gyXVtOSF1DKD1PKU4yW0NIMl1bQ0gyXVtDSDJdW0NASF0yQyhbQ0gzXSkoW0NIM10pW09IXQ==

> <s_epik_cmdline>
J2VwaWtfcHl0aG9uJywgJy1waCcsICc3LjAnLCAnLXRuJywgJzgnLCAnLW1hJywgJzIwMCcsICctbWV0YWxfYmluZGluZycsICctaW1hZScsICc8aW5maWxlLm1hZT4nLCAnLW9tYWUnLCAnPG91dGZpbGUubWFlPic=

> <r_epik_Ionization_Penalty>
0.0581496

> <r_epik_Ionization_Penalty_Charging>
0

> <r_epik_Ionization_Penalty_Neutral>
0.0581496

> <r_epik_State_Penalty>
0.0501956

> <r_epik_Charging_Adjusted_Penalty>
0.0501956

> <i_epik_Tot_Q>
0

> <i_epik_Tot_abs_Q>
0

> <r_epik_Metal_State_Penalty>
0.0456895

> <b_epik_Metal_Only>
0

> <s_lp_Force_Field>
OPLS_2005

> <r_lp_Energy>
50.0165

> <b_lp_Chiralities_Consistent>
1

> <s_lp_Variant>
AV-unprocessed.smi:2331-2

> <Gold.Version>
5.8.1

> <Gold.Id.Protein>
6NUR|6NUR_protein|mol2

> <Gold.PLP.Fitness>
60.9741

> <Gold.PLP.PLP>
-57.2854

> <Gold.PLP.part.hbond>
-2.4760

> <Gold.PLP.part.metal>
0.0000

> <Gold.PLP.part.buried>
-5.3592

> <Gold.PLP.part.nonpolar>
-49.7543

> <Gold.PLP.part.repulsive>
0.2041

> <Gold.PLP.ligand.clash>
1.2896

> <Gold.PLP.ligand.torsion>
0.5632

> <Gold.PLP.Chemscore.Hbond>
1.9510

> <Gold.PLP.Chemscore.CHOScore>
0.0000

> <Gold.PLP.Chemscore.Metal>
0.0000

> <Gold.Chemscore.Hbonds>
donor molecule, donor type, donor heavy atom, donor atom, acceptor molecule, acceptor atom, score
      L1  H    16    45       P1  7957  0.92
      P1  H  7989  7998       L1    16  0.01
      P1  H  8011  8017       L1    16  0.95

> <Gold.PLP.Chemscore.Internal.Correction>
0.2519

> <Gold.Rescore>
     Score         DG    S(hbond)    S(metal)    S(lipo)     H(rot)  DE(clash)    DE(int)     intcor
     20.88     -22.34       1.37        0.00     147.32       1.94       0.07       1.39       ----

> <Gold.Chemscore.Fitness>
20.8815

> <Gold.Chemscore.DG>
-22.3410

> <Gold.Chemscore.ZeroCoef>
-5.4800

> <Gold.Chemscore.Hbond>
1.3706

> <Gold.Chemscore.Metal>
0.0000

> <Gold.Chemscore.Lipo>
147.3230

> <Gold.Chemscore.Internal_Hbond>
0.0000

> <Gold.Chemscore.DEClash>
0.0724

> <Gold.Chemscore.DEInternal>
1.3871

> <Gold.Chemscore.Rot>
1.9350

> <Gold.Chemscore.Internal.Correction>
   9.000000E+99

> <Gold.Chemscore.Hbonds>
donor molecule, donor type, donor heavy atom, donor atom, acceptor molecule, acceptor atom, score
      L1  H    16    45       P1  7957  0.84
      P1  H  8011  8017       L1    16  0.21

> <Gold.Chemscore.Hbond.Weighted>
-4.5778

> <Gold.Chemscore.Metal.Weighted>
-0.0000

> <Gold.Chemscore.Lipo.Weighted>
-17.2368

> <Gold.Chemscore.Internal_Hbond.Weighted>
0.0000

> <Gold.Chemscore.DEClash.Weighted>
0.0724

> <Gold.Chemscore.DEInternal.Weighted>
1.3871

> <Gold.Chemscore.Rot.Weighted>
4.9536

> <Gold.Chemscore.Internal.Correction.Weighted>
   9.000000E+99

> <Gold.Protein.RotatedTorsions>
[ 6907 6896 6895 6894 ] final   13.10 input  -60.11 | X-H torsion
[ 7974 7965 7964 7962 ] final -178.93 input  175.53 | X-H torsion
[ 8008 7997 7996 7995 ] final  -43.75 input   59.86 | X-H torsion
[ 10167 10162 10161 10158 ] final  -21.28 input  -65.29 | X-H torsion
[ 10718 10713 10712 10709 ] final  -56.67 input   66.30 | X-H torsion
[ 10763 10752 10751 10750 ] final  -23.44 input  -60.55 | X-H torsion
[ 11005 11000 10999 10996 ] final   76.30 input  -57.11 | X-H torsion

> <Gold.Protein.ActiveResidues>
 VAL166  LYS551  ARG553  GLY616  TRP617  ASP618  TYR619  PRO620  LYS621  CYS622 
 ASP623  PHE694  ASN695  SER759  ASP760  ASP761  ALA762  ILE779  LEU786  VAL792 
 PHE793  MET794  SER795  GLU796  ALA797  LYS798  CYS799  TRP800  GLU811  SER814 

> <Gold.Protein.RotatedAtoms>
  151.7809  135.0761  160.0373 H   0  0  0  0  0  0  0  0  0  0  0  0  # atno 6907 bound_to 6896
  152.3223  133.5863  159.5761 H   0  0  0  0  0  0  0  0  0  0  0  0  # atno 6908 bound_to 6896
  150.7376  133.9908  159.3648 H   0  0  0  0  0  0  0  0  0  0  0  0  # atno 6909 bound_to 6896
  144.7133  140.0793  143.6426 H   0  0  0  0  0  0  0  0  0  0  0  0  # atno 7974 bound_to 7965
  154.3997  140.1440  156.3569 H   0  0  0  0  0  0  0  0  0  0  0  0  # atno 8008 bound_to 7997
  155.8217  140.3469  155.5497 H   0  0  0  0  0  0  0  0  0  0  0  0  # atno 8009 bound_to 7997
  155.8281  140.0908  157.1799 H   0  0  0  0  0  0  0  0  0  0  0  0  # atno 8010 bound_to 7997
  140.7281  143.4643  151.0336 H   0  0  0  0  0  0  0  0  0  0  0  0  # atno 10167 bound_to 10162
  156.1271  130.4162  150.0336 H   0  0  0  0  0  0  0  0  0  0  0  0  # atno 10718 bound_to 10713
  153.6678  135.6973  153.5157 H   0  0  0  0  0  0  0  0  0  0  0  0  # atno 10763 bound_to 10752
  153.2581  135.4253  155.0866 H   0  0  0  0  0  0  0  0  0  0  0  0  # atno 10764 bound_to 10752
  154.8435  135.3548  154.6222 H   0  0  0  0  0  0  0  0  0  0  0  0  # atno 10765 bound_to 10752
  139.9304  134.7589  156.1378 H   0  0  0  0  0  0  0  0  0  0  0  0  # atno 11005 bound_to 11000
  145.9715  139.2873  143.1096 LP  0  0  0  0  0  0  0  0  0  0  0  0  # atno 17320 bound_to 7965
  145.9111  140.9179  143.0453 LP  0  0  0  0  0  0  0  0  0  0  0  0  # atno 17321 bound_to 7965
  139.8330  143.7666  152.3180 LP  0  0  0  0  0  0  0  0  0  0  0  0  # atno 17342 bound_to 10162
  139.7788  144.7452  151.0118 LP  0  0  0  0  0  0  0  0  0  0  0  0  # atno 17343 bound_to 10162
  156.8258  130.9375  151.3639 LP  0  0  0  0  0  0  0  0  0  0  0  0  # atno 17370 bound_to 10713
  157.6451  130.8838  149.9524 LP  0  0  0  0  0  0  0  0  0  0  0  0  # atno 17371 bound_to 10713
  141.0890  133.6722  156.2498 LP  0  0  0  0  0  0  0  0  0  0  0  0  # atno 17394 bound_to 11000
  140.6217  134.5355  157.5548 LP  0  0  0  0  0  0  0  0  0  0  0  0  # atno 17395 bound_to 11000

$$$$
