AV-unprocessed.smi:2254|AV-procd|sdf|9123|dock3
  -GOLD-   2272012323D 1   1.00000     0.00000
 Structure written by MMmdl.
 41 42  0  0  0  0  0  0  0  0  1 V2000
  152.7272  141.0535  159.4347 C   0  0  0  0  0  0  0  0  0  0  0  0
  152.4722  140.4039  158.0860 C   0  0  0  0  0  0  0  0  0  0  0  0
  153.2384  139.2681  157.8080 N   0  0  0  0  0  0  0  0  0  0  0  0
  153.0982  138.6567  156.6775 C   0  0  0  0  0  0  0  0  0  0  0  0
  152.1889  139.1036  155.7057 N   0  0  0  0  0  0  0  0  0  0  0  0
  152.1301  138.3230  154.4599 C   0  0  0  0  0  0  0  0  0  0  0  0
  151.0962  137.1758  154.5435 C   0  0  2  0  0  0  0  0  0  0  0  0
  149.8197  137.6843  154.2121 O   0  0  0  0  0  0  0  0  0  0  0  0
  151.0005  136.5809  155.9563 C   0  0  0  0  0  0  0  0  0  0  0  0
  150.2967  135.3531  155.8755 O   0  0  0  0  0  0  0  0  0  0  0  0
  151.0797  134.2908  155.3579 C   0  0  0  0  0  0  0  0  0  0  0  0
  150.2247  133.1819  154.7723 C   0  0  0  0  0  0  0  0  0  0  0  0
  150.2340  131.8885  155.3394 C   0  0  0  0  0  0  0  0  0  0  0  0
  149.4484  130.8630  154.7783 C   0  0  0  0  0  0  0  0  0  0  0  0
  148.6548  131.1228  153.6442 C   0  0  0  0  0  0  0  0  0  0  0  0
  147.6935  129.8658  152.9562 Cl  0  0  0  0  0  0  0  0  0  0  0  0
  148.6492  132.4089  153.0700 C   0  0  0  0  0  0  0  0  0  0  0  0
  149.4345  133.4349  153.6312 C   0  0  0  0  0  0  0  0  0  0  0  0
  151.3864  140.1893  155.9041 C   0  0  0  0  0  0  0  0  0  0  0  0
  150.5714  140.5557  155.0548 O   0  0  0  0  0  0  0  0  0  0  0  0
  151.5631  140.8801  157.1917 C   0  0  0  0  0  0  0  0  0  0  0  0
  150.7030  142.1132  157.4386 C   0  0  0  0  0  0  0  0  0  0  0  0
  151.8210  141.0438  160.0407 H   0  0  0  0  0  0  0  0  0  0  0  0
  153.0507  142.0868  159.3062 H   0  0  0  0  0  0  0  0  0  0  0  0
  153.5056  140.5271  159.9884 H   0  0  0  0  0  0  0  0  0  0  0  0
  153.6684  137.7645  156.4128 H   0  0  0  0  0  0  0  0  0  0  0  0
  151.8635  139.0027  153.6484 H   0  0  0  0  0  0  0  0  0  0  0  0
  153.1102  137.9426  154.1634 H   0  0  0  0  0  0  0  0  0  0  0  0
  151.3368  136.3735  153.8445 H   0  0  0  0  0  0  0  0  0  0  0  0
  149.4027  137.0836  153.6137 H   0  0  0  0  0  0  0  0  0  0  0  0
  151.9944  136.4291  156.3810 H   0  0  0  0  0  0  0  0  0  0  0  0
  150.4593  137.2618  156.6156 H   0  0  0  0  0  0  0  0  0  0  0  0
  151.7481  134.6736  154.5847 H   0  0  0  0  0  0  0  0  0  0  0  0
  151.7013  133.8665  156.1478 H   0  0  0  0  0  0  0  0  0  0  0  0
  150.8417  131.6749  156.2065 H   0  0  0  0  0  0  0  0  0  0  0  0
  149.4577  129.8768  155.2188 H   0  0  0  0  0  0  0  0  0  0  0  0
  148.0440  132.6098  152.1981 H   0  0  0  0  0  0  0  0  0  0  0  0
  149.4274  134.4177  153.1830 H   0  0  0  0  0  0  0  0  0  0  0  0
  150.9294  142.8821  156.6991 H   0  0  0  0  0  0  0  0  0  0  0  0
  150.8505  142.5505  158.4246 H   0  0  0  0  0  0  0  0  0  0  0  0
  149.6463  141.8594  157.3490 H   0  0  0  0  0  0  0  0  0  0  0  0
  1  2  1  0  0  0  0
  1 23  1  0  0  0  0
  1 24  1  0  0  0  0
  1 25  1  0  0  0  0
  2 21  2  0  0  0  0
  2  3  1  0  0  0  0
  3  4  2  0  0  0  0
  4  5  1  0  0  0  0
  4 26  1  0  0  0  0
  5  6  1  0  0  0  0
  5 19  1  0  0  0  0
  6  7  1  0  0  0  0
  6 27  1  0  0  0  0
  6 28  1  0  0  0  0
  7  8  1  0  0  0  0
  7  9  1  0  0  0  0
  7 29  1  0  0  0  0
  8 30  1  0  0  0  0
  9 10  1  0  0  0  0
  9 31  1  0  0  0  0
  9 32  1  0  0  0  0
 10 11  1  0  0  0  0
 11 12  1  0  0  0  0
 11 33  1  0  0  0  0
 11 34  1  0  0  0  0
 12 18  1  0  0  0  0
 12 13  2  0  0  0  0
 13 14  1  0  0  0  0
 13 35  1  0  0  0  0
 14 15  2  0  0  0  0
 14 36  1  0  0  0  0
 15 16  1  0  0  0  0
 15 17  1  0  0  0  0
 17 18  2  0  0  0  0
 17 37  1  0  0  0  0
 18 38  1  0  0  0  0
 19 20  2  0  0  0  0
 19 21  1  0  0  0  0
 21 22  1  0  0  0  0
 22 39  1  0  0  0  0
 22 40  1  0  0  0  0
 22 41  1  0  0  0  0
M  END
> <s_m_source_file>
AV-unprocessed.smi

> <i_m_source_file_index>
2254

> <i_lp_mmshare_version>
43012

> <i_f3d_flags>
0

> <s_epik_input>
W0NIM11jMW5bY0hdbihjKD1PKWMxW0NIM10pW0NIMl1bQ0BIXShbT0hdKVtDSDJdT1tDSDJdYzJbY0hdW2NIXWMoQ2wpW2NIXVtjSF0y

> <s_epik_cmdline>
J2VwaWtfcHl0aG9uJywgJy1waCcsICc3LjAnLCAnLXRuJywgJzgnLCAnLW1hJywgJzIwMCcsICctbWV0YWxfYmluZGluZycsICctaW1hZScsICc8aW5maWxlLm1hZT4nLCAnLW9tYWUnLCAnPG91dGZpbGUubWFlPic=

> <r_lp_tautomer_probability>
1

> <r_epik_Ionization_Penalty>
5.36e-05

> <r_epik_Ionization_Penalty_Charging>
1.17753e-07

> <r_epik_Ionization_Penalty_Neutral>
5.34822e-05

> <r_epik_State_Penalty>
-0

> <r_epik_Charging_Adjusted_Penalty>
1.17753e-07

> <i_epik_Tot_Q>
0

> <i_epik_Tot_abs_Q>
0

> <r_epik_Metal_State_Penalty>
-0

> <b_epik_Metal_Only>
0

> <s_lp_Force_Field>
OPLS_2005

> <r_lp_Energy>
20.9698

> <b_lp_Chiralities_Consistent>
1

> <s_lp_Variant>
AV-unprocessed.smi:2254-1

> <Gold.Version>
5.8.1

> <Gold.Id.Protein>
6NUR|6NUR_protein|mol2

> <Gold.PLP.Fitness>
46.7867

> <Gold.PLP.PLP>
-40.7736

> <Gold.PLP.part.hbond>
-3.0000

> <Gold.PLP.part.metal>
0.0000

> <Gold.PLP.part.buried>
-2.2686

> <Gold.PLP.part.nonpolar>
-34.7944

> <Gold.PLP.part.repulsive>
0.1484

> <Gold.PLP.ligand.clash>
0.0000

> <Gold.PLP.ligand.torsion>
0.9650

> <Gold.PLP.Chemscore.Hbond>
2.5784

> <Gold.PLP.Chemscore.CHOScore>
0.0000

> <Gold.PLP.Chemscore.Metal>
0.0000

> <Gold.Chemscore.Hbonds>
donor molecule, donor type, donor heavy atom, donor atom, acceptor molecule, acceptor atom, score
      L1  H     8    30       P1  7948  1.00
      P1  H  7989  7998       L1    20  0.98
      P1  H  7997  8010       L1     3  0.40

> <Gold.PLP.Chemscore.Internal.Correction>
0.2078

> <Gold.Rescore>
     Score         DG    S(hbond)    S(metal)    S(lipo)     H(rot)  DE(clash)    DE(int)     intcor
     13.92     -15.93       1.91        0.00      89.76       2.52       0.00       2.01       ----

> <Gold.Chemscore.Fitness>
13.9180

> <Gold.Chemscore.DG>
-15.9266

> <Gold.Chemscore.ZeroCoef>
-5.4800

> <Gold.Chemscore.Hbond>
1.9120

> <Gold.Chemscore.Metal>
0.0000

> <Gold.Chemscore.Lipo>
89.7589

> <Gold.Chemscore.Internal_Hbond>
0.0000

> <Gold.Chemscore.DEClash>
0.0015

> <Gold.Chemscore.DEInternal>
2.0071

> <Gold.Chemscore.Rot>
2.5162

> <Gold.Chemscore.Internal.Correction>
   9.000000E+99

> <Gold.Chemscore.Hbonds>
donor molecule, donor type, donor heavy atom, donor atom, acceptor molecule, acceptor atom, score
      L1  H     8    30       P1  7948  0.91
      P1  H  7989  7998       L1    20  0.42

> <Gold.Chemscore.Hbond.Weighted>
-6.3862

> <Gold.Chemscore.Metal.Weighted>
-0.0000

> <Gold.Chemscore.Lipo.Weighted>
-10.5018

> <Gold.Chemscore.Internal_Hbond.Weighted>
0.0000

> <Gold.Chemscore.DEClash.Weighted>
0.0015

> <Gold.Chemscore.DEInternal.Weighted>
2.0071

> <Gold.Chemscore.Rot.Weighted>
6.4414

> <Gold.Chemscore.Internal.Correction.Weighted>
   9.000000E+99

> <Gold.Protein.RotatedTorsions>
[ 6907 6896 6895 6894 ] final -154.61 input  -60.11 | X-H torsion
[ 7974 7965 7964 7962 ] final  107.99 input  175.53 | X-H torsion
[ 8008 7997 7996 7995 ] final   21.90 input   59.86 | X-H torsion
[ 10167 10162 10161 10158 ] final  179.31 input  -65.29 | X-H torsion
[ 10718 10713 10712 10709 ] final  -53.37 input   66.30 | X-H torsion
[ 10763 10752 10751 10750 ] final   46.27 input  -60.55 | X-H torsion
[ 11005 11000 10999 10996 ] final  -23.63 input  -57.11 | X-H torsion

> <Gold.Protein.ActiveResidues>
 VAL166  LYS551  ARG553  GLY616  TRP617  ASP618  TYR619  PRO620  LYS621  CYS622 
 ASP623  PHE694  ASN695  SER759  ASP760  ASP761  ALA762  ILE779  LEU786  VAL792 
 PHE793  MET794  SER795  GLU796  ALA797  LYS798  CYS799  TRP800  GLU811  SER814 

> <Gold.Protein.RotatedAtoms>
  151.2600  133.4307  159.2615 H   0  0  0  0  0  0  0  0  0  0  0  0  # atno 6907 bound_to 6896
  151.0539  134.9692  159.8236 H   0  0  0  0  0  0  0  0  0  0  0  0  # atno 6908 bound_to 6896
  152.5387  134.2553  159.8967 H   0  0  0  0  0  0  0  0  0  0  0  0  # atno 6909 bound_to 6896
  145.2865  139.2615  143.3888 H   0  0  0  0  0  0  0  0  0  0  0  0  # atno 7974 bound_to 7965
  154.9576  140.3074  155.5046 H   0  0  0  0  0  0  0  0  0  0  0  0  # atno 8008 bound_to 7997
  156.2980  140.2307  156.4597 H   0  0  0  0  0  0  0  0  0  0  0  0  # atno 8009 bound_to 7997
  154.7996  140.0435  157.1251 H   0  0  0  0  0  0  0  0  0  0  0  0  # atno 8010 bound_to 7997
  139.5331  144.2576  152.0734 H   0  0  0  0  0  0  0  0  0  0  0  0  # atno 10167 bound_to 10162
  156.1541  130.4150  149.9897 H   0  0  0  0  0  0  0  0  0  0  0  0  # atno 10718 bound_to 10713
  152.9813  135.6013  154.3572 H   0  0  0  0  0  0  0  0  0  0  0  0  # atno 10763 bound_to 10752
  154.3256  135.2769  155.2499 H   0  0  0  0  0  0  0  0  0  0  0  0  # atno 10764 bound_to 10752
  154.4646  135.5957  153.6335 H   0  0  0  0  0  0  0  0  0  0  0  0  # atno 10765 bound_to 10752
  140.8770  133.7680  156.0255 H   0  0  0  0  0  0  0  0  0  0  0  0  # atno 11005 bound_to 11000
  146.3199  140.3345  142.8643 LP  0  0  0  0  0  0  0  0  0  0  0  0  # atno 17320 bound_to 7965
  144.9209  140.7866  143.5749 LP  0  0  0  0  0  0  0  0  0  0  0  0  # atno 17321 bound_to 7965
  140.2042  144.4627  150.6416 LP  0  0  0  0  0  0  0  0  0  0  0  0  # atno 17342 bound_to 10162
  140.6521  143.2228  151.6052 LP  0  0  0  0  0  0  0  0  0  0  0  0  # atno 17343 bound_to 10162
  156.7746  130.9199  151.3645 LP  0  0  0  0  0  0  0  0  0  0  0  0  # atno 17370 bound_to 10713
  157.6681  130.9026  149.9977 LP  0  0  0  0  0  0  0  0  0  0  0  0  # atno 17371 bound_to 10713
  140.8506  134.2958  157.5277 LP  0  0  0  0  0  0  0  0  0  0  0  0  # atno 17394 bound_to 11000
  139.8716  134.9466  156.3942 LP  0  0  0  0  0  0  0  0  0  0  0  0  # atno 17395 bound_to 11000

$$$$
