AV-unprocessed.smi:2896|AV-procd|sdf|11136|dock1
  -GOLD-   2272016 13D 1   1.00000     0.00000
 Structure written by MMmdl.
 50 51  0  0  0  0  0  0  0  0  2 V2000
  149.3188  131.9196  153.9733 C   0  0  0  0  0  0  0  0  0  0  0  0
  149.2366  133.4405  153.7517 C   0  0  2  0  0  0  0  0  0  0  0  0
  150.1698  134.1607  154.7502 C   0  0  0  0  0  0  0  0  0  0  0  0
  150.0712  135.6153  154.6652 N   0  0  0  0  0  0  0  0  0  0  0  0
  150.5000  136.4889  155.5933 C   0  0  0  0  0  0  0  0  0  0  0  0
  151.0264  136.1207  156.6446 O   0  0  0  0  0  0  0  0  0  0  0  0
  150.3308  138.0027  155.3056 C   0  0  0  0  0  0  0  0  0  0  0  0
  150.9230  138.4098  153.9315 C   0  0  0  0  0  0  0  0  0  0  0  0
  148.8136  138.3131  155.2457 C   0  0  0  0  0  0  0  0  0  0  0  0
  151.0563  138.7684  156.4289 C   0  0  0  0  0  0  0  0  0  0  0  0
  150.3414  139.6584  157.2671 C   0  0  0  0  0  0  0  0  0  0  0  0
  151.0189  140.3505  158.2880 C   0  0  0  0  0  0  0  0  0  0  0  0
  152.4000  140.1314  158.4407 C   0  0  0  0  0  0  0  0  0  0  0  0
  153.1038  139.2907  157.6558 N   0  0  0  0  0  0  0  0  0  0  0  0
  152.4454  138.6313  156.6784 C   0  0  0  0  0  0  0  0  0  0  0  0
  147.7746  133.9428  153.8477 C   0  0  0  0  0  0  0  0  0  0  0  0
  147.1197  134.1157  152.5257 N   0  3  0  0  0  0  0  0  0  0  0  0
  147.0039  132.8365  151.7852 C   0  0  0  0  0  0  0  0  0  0  0  0
  146.3705  133.0676  150.4030 C   0  0  0  0  0  0  0  0  0  0  0  0
  145.1007  133.6881  150.5591 O   0  0  0  0  0  0  0  0  0  0  0  0
  145.2049  134.9593  151.1876 C   0  0  0  0  0  0  0  0  0  0  0  0
  145.8013  134.7940  152.5960 C   0  0  0  0  0  0  0  0  0  0  0  0
  148.9363  131.6412  154.9558 H   0  0  0  0  0  0  0  0  0  0  0  0
  150.3491  131.5686  153.9078 H   0  0  0  0  0  0  0  0  0  0  0  0
  148.7463  131.3716  153.2250 H   0  0  0  0  0  0  0  0  0  0  0  0
  149.6203  133.6498  152.7533 H   0  0  0  0  0  0  0  0  0  0  0  0
  149.9823  133.8127  155.7676 H   0  0  0  0  0  0  0  0  0  0  0  0
  151.2067  133.9020  154.5332 H   0  0  0  0  0  0  0  0  0  0  0  0
  149.6583  135.9927  153.8244 H   0  0  0  0  0  0  0  0  0  0  0  0
  151.9926  138.2132  153.8532 H   0  0  0  0  0  0  0  0  0  0  0  0
  150.7849  139.4765  153.7513 H   0  0  0  0  0  0  0  0  0  0  0  0
  150.4344  137.8800  153.1123 H   0  0  0  0  0  0  0  0  0  0  0  0
  148.2951  138.0554  156.1704 H   0  0  0  0  0  0  0  0  0  0  0  0
  148.3278  137.7543  154.4445 H   0  0  0  0  0  0  0  0  0  0  0  0
  148.6310  139.3706  155.0510 H   0  0  0  0  0  0  0  0  0  0  0  0
  149.2820  139.8177  157.1317 H   0  0  0  0  0  0  0  0  0  0  0  0
  150.4921  141.0336  158.9376 H   0  0  0  0  0  0  0  0  0  0  0  0
  152.9538  140.6443  159.2130 H   0  0  0  0  0  0  0  0  0  0  0  0
  153.0697  137.9770  156.0902 H   0  0  0  0  0  0  0  0  0  0  0  0
  147.2061  133.2249  154.4411 H   0  0  0  0  0  0  0  0  0  0  0  0
  147.7167  134.8914  154.3817 H   0  0  0  0  0  0  0  0  0  0  0  0
  147.9903  132.3872  151.6643 H   0  0  0  0  0  0  0  0  0  0  0  0
  146.3989  132.1338  152.3607 H   0  0  0  0  0  0  0  0  0  0  0  0
  147.0164  133.6839  149.7752 H   0  0  0  0  0  0  0  0  0  0  0  0
  146.2380  132.1165  149.8867 H   0  0  0  0  0  0  0  0  0  0  0  0
  145.8164  135.6300  150.5816 H   0  0  0  0  0  0  0  0  0  0  0  0
  144.2116  135.4045  151.2503 H   0  0  0  0  0  0  0  0  0  0  0  0
  145.1221  134.2121  153.2212 H   0  0  0  0  0  0  0  0  0  0  0  0
  145.8992  135.7755  153.0581 H   0  0  0  0  0  0  0  0  0  0  0  0
  147.7285  134.7055  151.9764 H   0  0  0  0  0  0  0  0  0  0  0  0
  1  2  1  0  0  0  0
  1 23  1  0  0  0  0
  1 24  1  0  0  0  0
  1 25  1  0  0  0  0
  2  3  1  0  0  0  0
  2 16  1  0  0  0  0
  2 26  1  0  0  0  0
  3  4  1  0  0  0  0
  3 27  1  0  0  0  0
  3 28  1  0  0  0  0
  4  5  1  0  0  0  0
  4 29  1  0  0  0  0
  5  6  2  0  0  0  0
  5  7  1  0  0  0  0
  7  8  1  0  0  0  0
  7  9  1  0  0  0  0
  7 10  1  0  0  0  0
  8 30  1  0  0  0  0
  8 31  1  0  0  0  0
  8 32  1  0  0  0  0
  9 33  1  0  0  0  0
  9 34  1  0  0  0  0
  9 35  1  0  0  0  0
 10 15  1  0  0  0  0
 10 11  2  0  0  0  0
 11 12  1  0  0  0  0
 11 36  1  0  0  0  0
 12 13  2  0  0  0  0
 12 37  1  0  0  0  0
 13 14  1  0  0  0  0
 13 38  1  0  0  0  0
 14 15  2  0  0  0  0
 15 39  1  0  0  0  0
 16 17  1  0  0  0  0
 16 40  1  0  0  0  0
 16 41  1  0  0  0  0
 17 22  1  0  0  0  0
 17 18  1  0  0  0  0
 17 50  1  0  0  0  0
 18 19  1  0  0  0  0
 18 42  1  0  0  0  0
 18 43  1  0  0  0  0
 19 20  1  0  0  0  0
 19 44  1  0  0  0  0
 19 45  1  0  0  0  0
 20 21  1  0  0  0  0
 21 22  1  0  0  0  0
 21 46  1  0  0  0  0
 21 47  1  0  0  0  0
 22 48  1  0  0  0  0
 22 49  1  0  0  0  0
M  CHG  1  17   1
M  END
> <s_m_source_file>
AV-unprocessed.smi

> <i_m_source_file_index>
2896

> <i_lp_mmshare_version>
43012

> <i_f3d_flags>
0

> <s_epik_input>
W0NIMl0xW0NIMl1PW0NIMl1bQ0gyXU4xW0NIMl1bQ0BIXShbQ0gzXSlbQ0gyXVtOSF1DKD1PKUMoW0NIM10pKFtDSDNdKWMyW2NIXVtjSF1bY0hdbltjSF0y

> <s_epik_cmdline>
J2VwaWtfcHl0aG9uJywgJy1waCcsICc3LjAnLCAnLXRuJywgJzgnLCAnLW1hJywgJzIwMCcsICctbWV0YWxfYmluZGluZycsICctaW1hZScsICc8aW5maWxlLm1hZT4nLCAnLW9tYWUnLCAnPG91dGZpbGUubWFlPic=

> <r_epik_Ionization_Penalty>
0.378644

> <r_epik_Ionization_Penalty_Charging>
0.372108

> <r_epik_Ionization_Penalty_Neutral>
0.0065361

> <r_epik_State_Penalty>
0.380038

> <r_epik_Charging_Adjusted_Penalty>
0.752147

> <i_epik_Tot_Q>
1

> <i_epik_Tot_abs_Q>
1

> <r_epik_Metal_State_Penalty>
0.375202

> <b_epik_Metal_Only>
0

> <s_lp_Force_Field>
OPLS_2005

> <r_lp_Energy>
28.248

> <b_lp_Chiralities_Consistent>
1

> <s_lp_Variant>
AV-unprocessed.smi:2896-1

> <Gold.Version>
5.8.1

> <Gold.Id.Protein>
6NUR|6NUR_protein|mol2

> <Gold.PLP.Fitness>
43.4887

> <Gold.PLP.PLP>
-33.0263

> <Gold.PLP.part.hbond>
-3.0000

> <Gold.PLP.part.metal>
0.0000

> <Gold.PLP.part.buried>
-4.8060

> <Gold.PLP.part.nonpolar>
-25.8622

> <Gold.PLP.part.repulsive>
0.2165

> <Gold.PLP.ligand.clash>
0.0000

> <Gold.PLP.ligand.torsion>
0.8375

> <Gold.PLP.Chemscore.Hbond>
3.9840

> <Gold.PLP.Chemscore.CHOScore>
0.0000

> <Gold.PLP.Chemscore.Metal>
0.0000

> <Gold.Chemscore.Hbonds>
donor molecule, donor type, donor heavy atom, donor atom, acceptor molecule, acceptor atom, score
      L1  H     4    29       P1  7948  0.91
      L1  H    17    50       P1  7948  2.00
      P1  H  7997  8009       L1    14  1.00

> <Gold.PLP.Chemscore.Internal.Correction>
0.1853

> <Gold.Rescore>
     Score         DG    S(hbond)    S(metal)    S(lipo)     H(rot)  DE(clash)    DE(int)     intcor
     16.59     -18.99       2.44        0.00      84.81       1.78       0.42       1.98       ----

> <Gold.Chemscore.Fitness>
16.5889

> <Gold.Chemscore.DG>
-18.9904

> <Gold.Chemscore.ZeroCoef>
-5.4800

> <Gold.Chemscore.Hbond>
2.4363

> <Gold.Chemscore.Metal>
0.0000

> <Gold.Chemscore.Lipo>
84.8091

> <Gold.Chemscore.Internal_Hbond>
0.0000

> <Gold.Chemscore.DEClash>
0.4170

> <Gold.Chemscore.DEInternal>
1.9845

> <Gold.Chemscore.Rot>
1.7771

> <Gold.Chemscore.Internal.Correction>
   9.000000E+99

> <Gold.Chemscore.Hbonds>
donor molecule, donor type, donor heavy atom, donor atom, acceptor molecule, acceptor atom, score
      L1  H     4    29       P1  7948  0.31
      L1  H    17    50       P1  7948  0.48
      P1  H  7997  8009       L1    14  0.23

> <Gold.Chemscore.Hbond.Weighted>
-8.1371

> <Gold.Chemscore.Metal.Weighted>
-0.0000

> <Gold.Chemscore.Lipo.Weighted>
-9.9227

> <Gold.Chemscore.Internal_Hbond.Weighted>
0.0000

> <Gold.Chemscore.DEClash.Weighted>
0.4170

> <Gold.Chemscore.DEInternal.Weighted>
1.9845

> <Gold.Chemscore.Rot.Weighted>
4.5494

> <Gold.Chemscore.Internal.Correction.Weighted>
   9.000000E+99

> <Gold.Protein.RotatedTorsions>
[ 6907 6896 6895 6894 ] final   52.66 input  -60.11 | X-H torsion
[ 7974 7965 7964 7962 ] final  116.88 input  175.53 | X-H torsion
[ 8008 7997 7996 7995 ] final  178.40 input   59.86 | X-H torsion
[ 10167 10162 10161 10158 ] final  152.91 input  -65.29 | X-H torsion
[ 10718 10713 10712 10709 ] final   76.12 input   66.30 | X-H torsion
[ 10763 10752 10751 10750 ] final  -70.13 input  -60.55 | X-H torsion
[ 11005 11000 10999 10996 ] final  -91.67 input  -57.11 | X-H torsion

> <Gold.Protein.ActiveResidues>
 VAL166  LYS551  ARG553  GLY616  TRP617  ASP618  TYR619  PRO620  LYS621  CYS622 
 ASP623  PHE694  ASN695  SER759  ASP760  ASP761  ALA762  ILE779  LEU786  VAL792 
 PHE793  MET794  SER795  GLU796  ALA797  LYS798  CYS799  TRP800  GLU811  SER814 

> <Gold.Protein.RotatedAtoms>
  152.3256  134.7325  160.0302 H   0  0  0  0  0  0  0  0  0  0  0  0  # atno 6907 bound_to 6896
  151.7759  133.3340  159.3465 H   0  0  0  0  0  0  0  0  0  0  0  0  # atno 6908 bound_to 6896
  150.7394  134.5907  159.6030 H   0  0  0  0  0  0  0  0  0  0  0  0  # atno 6909 bound_to 6896
  145.1742  139.3085  143.4452 H   0  0  0  0  0  0  0  0  0  0  0  0  # atno 7974 bound_to 7965
  156.0551  140.1334  157.0006 H   0  0  0  0  0  0  0  0  0  0  0  0  # atno 8008 bound_to 7997
  154.4453  140.1003  156.6504 H   0  0  0  0  0  0  0  0  0  0  0  0  # atno 8009 bound_to 7997
  155.5464  140.3462  155.4460 H   0  0  0  0  0  0  0  0  0  0  0  0  # atno 8010 bound_to 7997
  139.4830  144.5317  151.7711 H   0  0  0  0  0  0  0  0  0  0  0  0  # atno 10167 bound_to 10162
  157.6661  130.9759  150.1451 H   0  0  0  0  0  0  0  0  0  0  0  0  # atno 10718 bound_to 10713
  154.4132  135.6004  153.5965 H   0  0  0  0  0  0  0  0  0  0  0  0  # atno 10763 bound_to 10752
  152.9791  135.5934  154.4044 H   0  0  0  0  0  0  0  0  0  0  0  0  # atno 10764 bound_to 10752
  154.3859  135.2841  155.2162 H   0  0  0  0  0  0  0  0  0  0  0  0  # atno 10765 bound_to 10752
  141.1539  133.7771  156.9912 H   0  0  0  0  0  0  0  0  0  0  0  0  # atno 11005 bound_to 11000
  146.3464  140.1899  142.8589 LP  0  0  0  0  0  0  0  0  0  0  0  0  # atno 17320 bound_to 7965
  145.0202  140.8787  143.5171 LP  0  0  0  0  0  0  0  0  0  0  0  0  # atno 17321 bound_to 7965
  140.4845  144.1402  150.5938 LP  0  0  0  0  0  0  0  0  0  0  0  0  # atno 17342 bound_to 10162
  140.4241  143.2598  151.9678 LP  0  0  0  0  0  0  0  0  0  0  0  0  # atno 17343 bound_to 10162
  156.2264  130.3678  149.8495 LP  0  0  0  0  0  0  0  0  0  0  0  0  # atno 17370 bound_to 10713
  156.6334  130.8675  151.3500 LP  0  0  0  0  0  0  0  0  0  0  0  0  # atno 17371 bound_to 10713
  140.1001  134.9540  157.1910 LP  0  0  0  0  0  0  0  0  0  0  0  0  # atno 17394 bound_to 11000
  140.3329  134.2789  155.7225 LP  0  0  0  0  0  0  0  0  0  0  0  0  # atno 17395 bound_to 11000

$$$$
