AV-unprocessed.smi:193|AV-procd|sdf|1501|dock8
  -GOLD-   2262019333D 1   1.00000     0.00000
 Structure written by MMmdl.
 62 66  0  0  0  0  0  0  0  0  2 V2000
  146.5482  130.4970  155.5649 C   0  0  0  0  0  0  0  0  0  0  0  0
  147.2812  131.5299  154.6952 C   0  0  1  0  0  0  0  0  0  0  0  0
  148.7418  131.6582  155.1848 C   0  0  0  0  0  0  0  0  0  0  0  0
  149.4638  132.7933  154.6114 N   0  0  0  0  0  0  0  0  0  0  0  0
  149.4836  133.9666  155.2990 C   0  0  0  0  0  0  0  0  0  0  0  0
  150.0372  135.0689  154.7266 N   0  0  0  0  0  0  0  0  0  0  0  0
  150.0882  136.2255  155.3935 C   0  0  0  0  0  0  0  0  0  0  0  0
  149.6518  136.4977  156.6239 N   0  0  0  0  0  0  0  0  0  0  0  0
  149.0875  135.4000  157.2030 C   0  0  0  0  0  0  0  0  0  0  0  0
  148.9597  134.1087  156.6162 C   0  0  0  0  0  0  0  0  0  0  0  0
  148.3126  133.2527  157.5002 N   0  0  0  0  0  0  0  0  0  0  0  0
  148.0807  133.9914  158.5506 C   0  0  0  0  0  0  0  0  0  0  0  0
  148.5254  135.2910  158.4630 N   0  0  0  0  0  0  0  0  0  0  0  0
  148.4077  136.3230  159.4818 C   0  0  0  0  0  0  0  0  0  0  0  0
  147.4140  135.9750  160.6185 C   0  0  0  0  0  0  0  0  0  0  0  0
  147.3354  137.0938  161.4846 O   0  0  0  0  0  0  0  0  0  0  0  0
  146.0096  135.7092  160.0395 C   0  0  0  0  0  0  0  0  0  0  0  0
  145.0298  135.1893  161.1064 C   0  0  0  0  0  0  0  0  0  0  0  0
  145.5607  134.0249  161.7268 O   0  0  0  0  0  0  0  0  0  0  0  0
  146.7730  134.2794  162.4256 C   0  0  0  0  0  0  0  0  0  0  0  0
  147.8626  134.7497  161.4457 C   0  0  0  0  0  0  0  0  0  0  0  0
  149.5478  132.8901  153.1559 C   0  0  0  0  0  0  0  0  0  0  0  0
  148.2117  133.3421  152.5378 C   0  0  0  0  0  0  0  0  0  0  0  0
  147.2712  132.2331  152.2276 N   0  3  2  0  0  0  0  0  0  0  0  0
  145.9188  132.7420  151.8955 C   0  0  1  0  0  0  0  0  0  0  0  0
  145.9236  133.9993  151.0552 C   0  0  0  0  0  0  0  0  0  0  0  0
  145.5433  132.6768  150.4256 C   0  0  1  0  0  0  0  0  0  0  0  0
  146.4287  132.0546  149.3610 C   0  0  0  0  0  0  0  0  0  0  0  0
  147.2191  131.1115  153.2067 C   0  0  0  0  0  0  0  0  0  0  0  0
  147.0047  129.5101  155.4807 H   0  0  0  0  0  0  0  0  0  0  0  0
  145.5012  130.4064  155.2738 H   0  0  0  0  0  0  0  0  0  0  0  0
  146.5682  130.7840  156.6167 H   0  0  0  0  0  0  0  0  0  0  0  0
  146.7576  132.4767  154.8322 H   0  0  0  0  0  0  0  0  0  0  0  0
  148.7671  131.7283  156.2735 H   0  0  0  0  0  0  0  0  0  0  0  0
  149.2934  130.7485  154.9457 H   0  0  0  0  0  0  0  0  0  0  0  0
  150.5464  137.0497  154.8670 H   0  0  0  0  0  0  0  0  0  0  0  0
  147.5832  133.6041  159.4280 H   0  0  0  0  0  0  0  0  0  0  0  0
  149.4003  136.5159  159.8912 H   0  0  0  0  0  0  0  0  0  0  0  0
  148.1011  137.2462  158.9883 H   0  0  0  0  0  0  0  0  0  0  0  0
  147.0545  136.7963  162.3364 H   0  0  0  0  0  0  0  0  0  0  0  0
  145.6105  136.6110  159.5732 H   0  0  0  0  0  0  0  0  0  0  0  0
  146.0814  134.9632  159.2467 H   0  0  0  0  0  0  0  0  0  0  0  0
  144.8214  135.9535  161.8569 H   0  0  0  0  0  0  0  0  0  0  0  0
  144.0761  134.9351  160.6437 H   0  0  0  0  0  0  0  0  0  0  0  0
  146.6054  135.0182  163.2106 H   0  0  0  0  0  0  0  0  0  0  0  0
  147.0906  133.3617  162.9211 H   0  0  0  0  0  0  0  0  0  0  0  0
  148.0988  133.9273  160.7691 H   0  0  0  0  0  0  0  0  0  0  0  0
  148.7779  134.9656  161.9979 H   0  0  0  0  0  0  0  0  0  0  0  0
  150.3206  133.6044  152.8777 H   0  0  0  0  0  0  0  0  0  0  0  0
  149.8722  131.9379  152.7351 H   0  0  0  0  0  0  0  0  0  0  0  0
  147.7265  134.0858  153.1721 H   0  0  0  0  0  0  0  0  0  0  0  0
  148.4240  133.8515  151.5977 H   0  0  0  0  0  0  0  0  0  0  0  0
  145.1606  132.6091  152.6655 H   0  0  0  0  0  0  0  0  0  0  0  0
  145.1235  134.7175  151.2219 H   0  0  0  0  0  0  0  0  0  0  0  0
  146.8821  134.4327  150.7755 H   0  0  0  0  0  0  0  0  0  0  0  0
  144.4823  132.5362  150.2280 H   0  0  0  0  0  0  0  0  0  0  0  0
  147.4801  132.2886  149.5292 H   0  0  0  0  0  0  0  0  0  0  0  0
  146.1492  132.4354  148.3785 H   0  0  0  0  0  0  0  0  0  0  0  0
  146.3067  130.9714  149.3564 H   0  0  0  0  0  0  0  0  0  0  0  0
  148.0317  130.4194  152.9839 H   0  0  0  0  0  0  0  0  0  0  0  0
  146.3094  130.5394  153.0177 H   0  0  0  0  0  0  0  0  0  0  0  0
  147.6155  131.8147  151.3753 H   0  0  0  0  0  0  0  0  0  0  0  0
  1  2  1  0  0  0  0
  1 30  1  0  0  0  0
  1 31  1  0  0  0  0
  1 32  1  0  0  0  0
  2 29  1  0  0  0  0
  2  3  1  0  0  0  0
  2 33  1  0  0  0  0
  3  4  1  0  0  0  0
  3 34  1  0  0  0  0
  3 35  1  0  0  0  0
  4  5  1  0  0  0  0
  4 22  1  0  0  0  0
  5 10  1  0  0  0  0
  5  6  2  0  0  0  0
  6  7  1  0  0  0  0
  7  8  2  0  0  0  0
  7 36  1  0  0  0  0
  8  9  1  0  0  0  0
  9 13  1  0  0  0  0
  9 10  2  0  0  0  0
 10 11  1  0  0  0  0
 11 12  2  0  0  0  0
 12 13  1  0  0  0  0
 12 37  1  0  0  0  0
 13 14  1  0  0  0  0
 14 15  1  0  0  0  0
 14 38  1  0  0  0  0
 14 39  1  0  0  0  0
 15 21  1  0  0  0  0
 15 16  1  0  0  0  0
 15 17  1  0  0  0  0
 16 40  1  0  0  0  0
 17 18  1  0  0  0  0
 17 41  1  0  0  0  0
 17 42  1  0  0  0  0
 18 19  1  0  0  0  0
 18 43  1  0  0  0  0
 18 44  1  0  0  0  0
 19 20  1  0  0  0  0
 20 21  1  0  0  0  0
 20 45  1  0  0  0  0
 20 46  1  0  0  0  0
 21 47  1  0  0  0  0
 21 48  1  0  0  0  0
 22 23  1  0  0  0  0
 22 49  1  0  0  0  0
 22 50  1  0  0  0  0
 23 24  1  0  0  0  0
 23 51  1  0  0  0  0
 23 52  1  0  0  0  0
 24 25  1  0  0  0  0
 24 29  1  0  0  0  0
 24 62  1  0  0  0  0
 25 27  1  0  0  0  0
 25 26  1  0  0  0  0
 25 53  1  0  0  0  0
 26 27  1  0  0  0  0
 26 54  1  0  0  0  0
 26 55  1  0  0  0  0
 27 28  1  0  0  0  0
 27 56  1  0  0  0  0
 28 57  1  0  0  0  0
 28 58  1  0  0  0  0
 28 59  1  0  0  0  0
 29 60  1  0  0  0  0
 29 61  1  0  0  0  0
M  CHG  1  24   1
M  END
> <s_m_source_file>
AV-unprocessed.smi

> <i_m_source_file_index>
193

> <i_lp_mmshare_version>
43012

> <i_f3d_flags>
0

> <s_epik_input>
W0NIM11bQ0BASF0xW0NIMl1bQ0BIXTFOKFtDSDJdMilbQ0gyXVtDSDJdTihbQ0gyXVtDQEhdMltDSDNdKWMobltjSF1uMyljKGMzNCluW2NIXW40W0NIMl1DNShbT0hdKVtDSDJdW0NIMl1PW0NIMl1bQ0gyXTU=

> <s_epik_cmdline>
J2VwaWtfcHl0aG9uJywgJy1waCcsICc3LjAnLCAnLXRuJywgJzgnLCAnLW1hJywgJzIwMCcsICctbWV0YWxfYmluZGluZycsICctaW1hZScsICc8aW5maWxlLm1hZT4nLCAnLW9tYWUnLCAnPG91dGZpbGUubWFlPic=

> <r_lp_tautomer_probability>
1

> <r_epik_Ionization_Penalty>
0.0540825

> <r_epik_Ionization_Penalty_Charging>
0.0538476

> <r_epik_Ionization_Penalty_Neutral>
0.000234891

> <r_epik_State_Penalty>
0.0200719

> <r_epik_Charging_Adjusted_Penalty>
0.0739194

> <i_epik_Tot_Q>
1

> <i_epik_Tot_abs_Q>
1

> <r_epik_Metal_State_Penalty>
0.0199414

> <b_epik_Metal_Only>
0

> <s_lp_Force_Field>
OPLS_2005

> <r_lp_Energy>
56.4216

> <b_lp_Chiralities_Consistent>
1

> <s_lp_Variant>
AV-unprocessed.smi:193-6

> <Gold.Version>
5.8.1

> <Gold.Id.Protein>
6NUR|6NUR_protein|mol2

> <Gold.PLP.Fitness>
44.9462

> <Gold.PLP.PLP>
-37.8298

> <Gold.PLP.part.hbond>
-2.9611

> <Gold.PLP.part.metal>
0.0000

> <Gold.PLP.part.buried>
-5.0245

> <Gold.PLP.part.nonpolar>
-29.1109

> <Gold.PLP.part.repulsive>
0.1977

> <Gold.PLP.ligand.clash>
0.0000

> <Gold.PLP.ligand.torsion>
1.1285

> <Gold.PLP.Chemscore.Hbond>
2.6363

> <Gold.PLP.Chemscore.CHOScore>
0.0000

> <Gold.PLP.Chemscore.Metal>
0.0000

> <Gold.Chemscore.Hbonds>
donor molecule, donor type, donor heavy atom, donor atom, acceptor molecule, acceptor atom, score
      L1  H    24    62       P1 10747  1.00
      P1  H  6931  6943       L1    16  0.78
      P1  H  6934  6947       L1    16  0.94

> <Gold.PLP.Chemscore.Internal.Correction>
1.4647

> <Gold.Rescore>
     Score         DG    S(hbond)    S(metal)    S(lipo)     H(rot)  DE(clash)    DE(int)     intcor
     13.18     -18.40       1.95        0.00      96.99       1.93       1.48       3.74       ----

> <Gold.Chemscore.Fitness>
13.1778

> <Gold.Chemscore.DG>
-18.4012

> <Gold.Chemscore.ZeroCoef>
-5.4800

> <Gold.Chemscore.Hbond>
1.9496

> <Gold.Chemscore.Metal>
0.0000

> <Gold.Chemscore.Lipo>
96.9895

> <Gold.Chemscore.Internal_Hbond>
0.0000

> <Gold.Chemscore.DEClash>
1.4823

> <Gold.Chemscore.DEInternal>
3.7411

> <Gold.Chemscore.Rot>
1.9290

> <Gold.Chemscore.Internal.Correction>
   9.000000E+99

> <Gold.Chemscore.Hbonds>
donor molecule, donor type, donor heavy atom, donor atom, acceptor molecule, acceptor atom, score
      L1  H    24    62       P1 10747  0.94
      P1  H  6931  6943       L1    16  0.29
      P1  H  6934  6947       L1    16  0.85

> <Gold.Chemscore.Hbond.Weighted>
-6.5117

> <Gold.Chemscore.Metal.Weighted>
-0.0000

> <Gold.Chemscore.Lipo.Weighted>
-11.3478

> <Gold.Chemscore.Internal_Hbond.Weighted>
0.0000

> <Gold.Chemscore.DEClash.Weighted>
1.4823

> <Gold.Chemscore.DEInternal.Weighted>
3.7411

> <Gold.Chemscore.Rot.Weighted>
4.9383

> <Gold.Chemscore.Internal.Correction.Weighted>
   9.000000E+99

> <Gold.Protein.RotatedTorsions>
[ 6907 6896 6895 6894 ] final   62.20 input  -60.11 | X-H torsion
[ 7974 7965 7964 7962 ] final   67.97 input  175.53 | X-H torsion
[ 8008 7997 7996 7995 ] final  -55.42 input   59.86 | X-H torsion
[ 10167 10162 10161 10158 ] final  127.93 input  -65.29 | X-H torsion
[ 10718 10713 10712 10709 ] final  -40.18 input   66.30 | X-H torsion
[ 10763 10752 10751 10750 ] final  123.18 input  -60.55 | X-H torsion
[ 11005 11000 10999 10996 ] final  106.40 input  -57.11 | X-H torsion

> <Gold.Protein.ActiveResidues>
 VAL166  LYS551  ARG553  GLY616  TRP617  ASP618  TYR619  PRO620  LYS621  CYS622 
 ASP623  PHE694  ASN695  SER759  ASP760  ASP761  ALA762  ILE779  LEU786  VAL792 
 PHE793  MET794  SER795  GLU796  ALA797  LYS798  CYS799  TRP800  GLU811  SER814 

> <Gold.Protein.RotatedAtoms>
  152.4152  134.6054  160.0011 H   0  0  0  0  0  0  0  0  0  0  0  0  # atno 6907 bound_to 6896
  151.6220  133.3333  159.3098 H   0  0  0  0  0  0  0  0  0  0  0  0  # atno 6908 bound_to 6896
  150.8041  134.7194  159.6694 H   0  0  0  0  0  0  0  0  0  0  0  0  # atno 6909 bound_to 6896
  145.8082  139.3018  143.1114 H   0  0  0  0  0  0  0  0  0  0  0  0  # atno 7974 bound_to 7965
  154.4194  140.1153  156.5474 H   0  0  0  0  0  0  0  0  0  0  0  0  # atno 8008 bound_to 7997
  155.6445  140.3496  155.4707 H   0  0  0  0  0  0  0  0  0  0  0  0  # atno 8009 bound_to 7997
  155.9843  140.1166  157.0687 H   0  0  0  0  0  0  0  0  0  0  0  0  # atno 8010 bound_to 7997
  139.5553  144.6844  151.4202 H   0  0  0  0  0  0  0  0  0  0  0  0  # atno 10167 bound_to 10162
  156.2841  130.4220  149.8306 H   0  0  0  0  0  0  0  0  0  0  0  0  # atno 10718 bound_to 10713
  153.6415  135.3378  155.3073 H   0  0  0  0  0  0  0  0  0  0  0  0  # atno 10763 bound_to 10752
  154.8558  135.4319  154.1999 H   0  0  0  0  0  0  0  0  0  0  0  0  # atno 10764 bound_to 10752
  153.2919  135.7017  153.7359 H   0  0  0  0  0  0  0  0  0  0  0  0  # atno 10765 bound_to 10752
  139.8813  134.9368  156.5660 H   0  0  0  0  0  0  0  0  0  0  0  0  # atno 11005 bound_to 11000
  145.9805  140.8686  143.0117 LP  0  0  0  0  0  0  0  0  0  0  0  0  # atno 17320 bound_to 7965
  144.6760  140.2073  143.7381 LP  0  0  0  0  0  0  0  0  0  0  0  0  # atno 17321 bound_to 7965
  140.6824  143.8051  150.7140 LP  0  0  0  0  0  0  0  0  0  0  0  0  # atno 17342 bound_to 10162
  140.1508  143.4359  152.2132 LP  0  0  0  0  0  0  0  0  0  0  0  0  # atno 17343 bound_to 10162
  156.5742  130.8438  151.3365 LP  0  0  0  0  0  0  0  0  0  0  0  0  # atno 17370 bound_to 10713
  157.7323  130.9713  150.1923 LP  0  0  0  0  0  0  0  0  0  0  0  0  # atno 17371 bound_to 10713
  140.8134  133.8411  155.8830 LP  0  0  0  0  0  0  0  0  0  0  0  0  # atno 17394 bound_to 11000
  140.9485  134.1809  157.4745 LP  0  0  0  0  0  0  0  0  0  0  0  0  # atno 17395 bound_to 11000

$$$$
