AV-unprocessed.smi:154|AV-procd|sdf|1266|dock8
  -GOLD-   2262018523D 1   1.00000     0.00000
 Structure written by MMmdl.
 53 57  0  0  0  0  0  0  0  0  1 V2000
  145.1194  135.9431  149.9481 O   0  0  0  0  0  0  0  0  0  0  0  0
  144.8815  135.1542  151.1016 C   0  0  0  0  0  0  0  0  0  0  0  0
  144.3773  136.0985  152.2214 C   0  0  0  0  0  0  0  0  0  0  0  0
  145.4021  136.9880  152.7474 N   0  0  0  0  0  0  0  0  0  0  0  0
  146.1381  137.9061  152.0385 C   0  0  0  0  0  0  0  0  0  0  0  0
  147.0031  138.5809  152.7423 N   0  0  0  0  0  0  0  0  0  0  0  0
  146.8580  138.1041  154.0423 C   0  0  0  0  0  0  0  0  0  0  0  0
  147.4815  138.3813  155.3016 C   0  0  0  0  0  0  0  0  0  0  0  0
  148.4669  139.2992  155.5343 N   0  0  0  0  0  0  0  0  0  0  0  0
  149.2093  139.2646  156.7979 C   0  0  2  0  0  0  0  0  0  0  0  0
  149.4898  140.7070  157.2796 C   0  0  0  0  0  0  0  0  0  0  0  0
  150.0930  141.6391  156.2103 C   0  0  0  0  0  0  0  0  0  0  0  0
  149.5070  141.4005  154.8052 C   0  0  0  0  0  0  0  0  0  0  0  0
  149.2418  139.9169  154.4597 C   0  0  1  0  0  0  0  0  0  0  0  0
  150.5029  139.0644  154.1615 C   0  0  0  0  0  0  0  0  0  0  0  0
  151.3266  138.6729  155.4099 C   0  0  0  0  0  0  0  0  0  0  0  0
  152.0476  137.5910  155.1146 F   0  0  0  0  0  0  0  0  0  0  0  0
  152.1979  139.6309  155.7096 F   0  0  0  0  0  0  0  0  0  0  0  0
  150.4459  138.3490  156.6375 C   0  0  0  0  0  0  0  0  0  0  0  0
  147.0297  137.6721  156.3707 N   0  0  0  0  0  0  0  0  0  0  0  0
  146.0642  136.7606  156.2390 C   0  0  0  0  0  0  0  0  0  0  0  0
  145.4087  136.3977  155.1383 N   0  0  0  0  0  0  0  0  0  0  0  0
  145.8424  137.1008  154.0547 C   0  0  0  0  0  0  0  0  0  0  0  0
  143.8072  134.1023  150.7584 C   0  0  0  0  0  0  0  0  0  0  0  0
  144.3265  133.0425  149.7705 C   0  0  0  0  0  0  0  0  0  0  0  0
  145.5012  132.4296  150.2880 O   0  0  0  0  0  0  0  0  0  0  0  0
  146.5739  133.3496  150.4501 C   0  0  0  0  0  0  0  0  0  0  0  0
  146.1943  134.4316  151.4766 C   0  0  0  0  0  0  0  0  0  0  0  0
  145.2325  135.3667  149.2080 H   0  0  0  0  0  0  0  0  0  0  0  0
  143.5476  136.7082  151.8605 H   0  0  0  0  0  0  0  0  0  0  0  0
  143.9807  135.5128  153.0517 H   0  0  0  0  0  0  0  0  0  0  0  0
  146.0180  138.0556  150.9755 H   0  0  0  0  0  0  0  0  0  0  0  0
  148.6095  138.8164  157.5891 H   0  0  0  0  0  0  0  0  0  0  0  0
  148.5390  141.1378  157.5960 H   0  0  0  0  0  0  0  0  0  0  0  0
  150.1203  140.6973  158.1690 H   0  0  0  0  0  0  0  0  0  0  0  0
  149.9159  142.6753  156.4998 H   0  0  0  0  0  0  0  0  0  0  0  0
  151.1743  141.5574  156.1926 H   0  0  0  0  0  0  0  0  0  0  0  0
  148.5536  141.9278  154.7496 H   0  0  0  0  0  0  0  0  0  0  0  0
  150.1435  141.8613  154.0492 H   0  0  0  0  0  0  0  0  0  0  0  0
  148.6418  139.9554  153.5530 H   0  0  0  0  0  0  0  0  0  0  0  0
  150.1763  138.1401  153.6864 H   0  0  0  0  0  0  0  0  0  0  0  0
  151.1370  139.5590  153.4252 H   0  0  0  0  0  0  0  0  0  0  0  0
  151.0460  138.3464  157.5479 H   0  0  0  0  0  0  0  0  0  0  0  0
  150.0773  137.3280  156.5262 H   0  0  0  0  0  0  0  0  0  0  0  0
  145.7761  136.2496  157.1458 H   0  0  0  0  0  0  0  0  0  0  0  0
  143.4950  133.5946  151.6719 H   0  0  0  0  0  0  0  0  0  0  0  0
  142.9138  134.5823  150.3569 H   0  0  0  0  0  0  0  0  0  0  0  0
  143.5691  132.2736  149.6192 H   0  0  0  0  0  0  0  0  0  0  0  0
  144.5299  133.4805  148.7921 H   0  0  0  0  0  0  0  0  0  0  0  0
  147.4533  132.8045  150.7933 H   0  0  0  0  0  0  0  0  0  0  0  0
  146.8350  133.7947  149.4887 H   0  0  0  0  0  0  0  0  0  0  0  0
  147.0157  135.1419  151.5782 H   0  0  0  0  0  0  0  0  0  0  0  0
  146.0767  133.9573  152.4517 H   0  0  0  0  0  0  0  0  0  0  0  0
  1  2  1  0  0  0  0
  1 29  1  0  0  0  0
  2 28  1  0  0  0  0
  2  3  1  0  0  0  0
  2 24  1  0  0  0  0
  3  4  1  0  0  0  0
  3 30  1  0  0  0  0
  3 31  1  0  0  0  0
  4 23  1  0  0  0  0
  4  5  1  0  0  0  0
  5  6  2  0  0  0  0
  5 32  1  0  0  0  0
  6  7  1  0  0  0  0
  7 23  2  0  0  0  0
  7  8  1  0  0  0  0
  8  9  1  0  0  0  0
  8 20  2  0  0  0  0
  9 14  1  0  0  0  0
  9 10  1  0  0  0  0
 10 19  1  0  0  0  0
 10 11  1  0  0  0  0
 10 33  1  0  0  0  0
 11 12  1  0  0  0  0
 11 34  1  0  0  0  0
 11 35  1  0  0  0  0
 12 13  1  0  0  0  0
 12 36  1  0  0  0  0
 12 37  1  0  0  0  0
 13 14  1  0  0  0  0
 13 38  1  0  0  0  0
 13 39  1  0  0  0  0
 14 15  1  0  0  0  0
 14 40  1  0  0  0  0
 15 16  1  0  0  0  0
 15 41  1  0  0  0  0
 15 42  1  0  0  0  0
 16 17  1  0  0  0  0
 16 18  1  0  0  0  0
 16 19  1  0  0  0  0
 19 43  1  0  0  0  0
 19 44  1  0  0  0  0
 20 21  1  0  0  0  0
 21 22  2  0  0  0  0
 21 45  1  0  0  0  0
 22 23  1  0  0  0  0
 24 25  1  0  0  0  0
 24 46  1  0  0  0  0
 24 47  1  0  0  0  0
 25 26  1  0  0  0  0
 25 48  1  0  0  0  0
 25 49  1  0  0  0  0
 26 27  1  0  0  0  0
 27 28  1  0  0  0  0
 27 50  1  0  0  0  0
 27 51  1  0  0  0  0
 28 52  1  0  0  0  0
 28 53  1  0  0  0  0
M  END
> <s_m_source_file>
AV-unprocessed.smi

> <i_m_source_file_index>
154

> <i_lp_mmshare_version>
43012

> <i_f3d_flags>
0

> <s_epik_input>
W0NIMl0xW0NIMl1PW0NIMl1bQ0gyXUMxKFtPSF0pW0NIMl1uKFtjSF1uMiljKGMyMyluW2NIXW5jM04oW0NAQEhdNDUpW0NIXShbQ0gyXVtDSDJdW0NIMl00KVtDSDJdQyhGKShGKVtDSDJdNQ==

> <s_epik_cmdline>
J2VwaWtfcHl0aG9uJywgJy1waCcsICc3LjAnLCAnLXRuJywgJzgnLCAnLW1hJywgJzIwMCcsICctbWV0YWxfYmluZGluZycsICctaW1hZScsICc8aW5maWxlLm1hZT4nLCAnLW9tYWUnLCAnPG91dGZpbGUubWFlPic=

> <r_lp_tautomer_probability>
1

> <r_epik_Ionization_Penalty>
0.00333769

> <r_epik_Ionization_Penalty_Charging>
0

> <r_epik_Ionization_Penalty_Neutral>
0.00333769

> <r_epik_State_Penalty>
0.0022021

> <r_epik_Charging_Adjusted_Penalty>
0.0022021

> <i_epik_Tot_Q>
0

> <i_epik_Tot_abs_Q>
0

> <r_epik_Metal_State_Penalty>
-0

> <b_epik_Metal_Only>
0

> <s_lp_Force_Field>
OPLS_2005

> <r_lp_Energy>
50.9218

> <b_lp_Chiralities_Consistent>
1

> <s_lp_Variant>
AV-unprocessed.smi:154-1

> <Gold.Version>
5.8.1

> <Gold.Id.Protein>
6NUR|6NUR_protein|mol2

> <Gold.PLP.Fitness>
44.9396

> <Gold.PLP.PLP>
-39.4242

> <Gold.PLP.part.hbond>
-2.0000

> <Gold.PLP.part.metal>
0.0000

> <Gold.PLP.part.buried>
-0.5216

> <Gold.PLP.part.nonpolar>
-35.3078

> <Gold.PLP.part.repulsive>
0.4250

> <Gold.PLP.ligand.clash>
0.0000

> <Gold.PLP.ligand.torsion>
0.1719

> <Gold.PLP.Chemscore.Hbond>
0.9920

> <Gold.PLP.Chemscore.CHOScore>
0.8999

> <Gold.PLP.Chemscore.Metal>
0.0000

> <Gold.Chemscore.Hbonds>
donor molecule, donor type, donor heavy atom, donor atom, acceptor molecule, acceptor atom, score
      L1  H     1    29       P1  7921  1.00
      L1  C     5    32       P1 10171  0.93

> <Gold.PLP.Chemscore.Internal.Correction>
0.1835

> <Gold.Rescore>
     Score         DG    S(hbond)    S(metal)    S(lipo)     H(rot)  DE(clash)    DE(int)     intcor
     11.25     -12.85       0.76        0.00      80.43       1.78       0.10       1.50       ----

> <Gold.Chemscore.Fitness>
11.2522

> <Gold.Chemscore.DG>
-12.8533

> <Gold.Chemscore.ZeroCoef>
-5.4800

> <Gold.Chemscore.Hbond>
0.7578

> <Gold.Chemscore.Metal>
0.0000

> <Gold.Chemscore.Lipo>
80.4323

> <Gold.Chemscore.Internal_Hbond>
0.0000

> <Gold.Chemscore.DEClash>
0.1004

> <Gold.Chemscore.DEInternal>
1.5007

> <Gold.Chemscore.Rot>
1.7845

> <Gold.Chemscore.Internal.Correction>
   9.000000E+99

> <Gold.Chemscore.Hbonds>
donor molecule, donor type, donor heavy atom, donor atom, acceptor molecule, acceptor atom, score
      L1  H     1    29       P1  7921  0.96

> <Gold.Chemscore.Hbond.Weighted>
-2.5311

> <Gold.Chemscore.Metal.Weighted>
-0.0000

> <Gold.Chemscore.Lipo.Weighted>
-9.4106

> <Gold.Chemscore.Internal_Hbond.Weighted>
0.0000

> <Gold.Chemscore.DEClash.Weighted>
0.1004

> <Gold.Chemscore.DEInternal.Weighted>
1.5007

> <Gold.Chemscore.Rot.Weighted>
4.5684

> <Gold.Chemscore.Internal.Correction.Weighted>
   9.000000E+99

> <Gold.Protein.RotatedTorsions>
[ 6907 6896 6895 6894 ] final   62.29 input  -60.11 | X-H torsion
[ 7974 7965 7964 7962 ] final  -81.91 input  175.53 | X-H torsion
[ 8008 7997 7996 7995 ] final  -38.20 input   59.86 | X-H torsion
[ 10167 10162 10161 10158 ] final  175.75 input  -65.29 | X-H torsion
[ 10718 10713 10712 10709 ] final  134.63 input   66.30 | X-H torsion
[ 10763 10752 10751 10750 ] final -136.61 input  -60.55 | X-H torsion
[ 11005 11000 10999 10996 ] final  153.25 input  -57.11 | X-H torsion

> <Gold.Protein.ActiveResidues>
 VAL166  LYS551  ARG553  GLY616  TRP617  ASP618  TYR619  PRO620  LYS621  CYS622 
 ASP623  PHE694  ASN695  SER759  ASP760  ASP761  ALA762  ILE779  LEU786  VAL792 
 PHE793  MET794  SER795  GLU796  ALA797  LYS798  CYS799  TRP800  GLU811  SER814 

> <Gold.Protein.RotatedAtoms>
  152.4159  134.6041  160.0007 H   0  0  0  0  0  0  0  0  0  0  0  0  # atno 6907 bound_to 6896
  151.6205  133.3334  159.3095 H   0  0  0  0  0  0  0  0  0  0  0  0  # atno 6908 bound_to 6896
  150.8048  134.7205  159.6700 H   0  0  0  0  0  0  0  0  0  0  0  0  # atno 6909 bound_to 6896
  145.5403  140.9510  143.1555 H   0  0  0  0  0  0  0  0  0  0  0  0  # atno 7974 bound_to 7965
  154.4040  140.1584  156.2661 H   0  0  0  0  0  0  0  0  0  0  0  0  # atno 8008 bound_to 7997
  155.8994  140.3434  155.5992 H   0  0  0  0  0  0  0  0  0  0  0  0  # atno 8009 bound_to 7997
  155.7466  140.0799  157.2211 H   0  0  0  0  0  0  0  0  0  0  0  0  # atno 8010 bound_to 7997
  139.5189  144.2995  152.0391 H   0  0  0  0  0  0  0  0  0  0  0  0  # atno 10167 bound_to 10162
  157.4653  131.1076  150.9870 H   0  0  0  0  0  0  0  0  0  0  0  0  # atno 10718 bound_to 10713
  154.8680  135.3667  154.5089 H   0  0  0  0  0  0  0  0  0  0  0  0  # atno 10763 bound_to 10752
  153.5725  135.7020  153.5503 H   0  0  0  0  0  0  0  0  0  0  0  0  # atno 10764 bound_to 10752
  153.3529  135.4067  155.1623 H   0  0  0  0  0  0  0  0  0  0  0  0  # atno 10765 bound_to 10752
  140.1381  134.8757  157.2294 H   0  0  0  0  0  0  0  0  0  0  0  0  # atno 11005 bound_to 11000
  144.7580  139.7026  143.7246 LP  0  0  0  0  0  0  0  0  0  0  0  0  # atno 17320 bound_to 7965
  146.1985  139.5266  142.9758 LP  0  0  0  0  0  0  0  0  0  0  0  0  # atno 17321 bound_to 7965
  140.2443  144.4236  150.6247 LP  0  0  0  0  0  0  0  0  0  0  0  0  # atno 17342 bound_to 10162
  140.6269  143.2182  151.6578 LP  0  0  0  0  0  0  0  0  0  0  0  0  # atno 17343 bound_to 10162
  157.0653  130.5842  149.5393 LP  0  0  0  0  0  0  0  0  0  0  0  0  # atno 17370 bound_to 10713
  156.0047  130.5132  150.7789 LP  0  0  0  0  0  0  0  0  0  0  0  0  # atno 17371 bound_to 10713
  140.2757  134.3409  155.7359 LP  0  0  0  0  0  0  0  0  0  0  0  0  # atno 17394 bound_to 11000
  141.2181  133.7449  156.9289 LP  0  0  0  0  0  0  0  0  0  0  0  0  # atno 17395 bound_to 11000

$$$$
