AV-unprocessed.smi:703|AV-procd|sdf|3427|dock7
  -GOLD-   22720 0413D 1   1.00000     0.00000
 Structure written by MMmdl.
 38 39  0  0  0  0  0  0  0  0  2 V2000
  144.4022  132.3249  150.0193 C   0  0  0  0  0  0  0  0  0  0  0  0
  145.8248  131.8191  149.7446 C   0  0  0  0  0  0  0  0  0  0  0  0
  146.6950  131.9184  150.9397 N   0  3  2  0  0  0  0  0  0  0  0  0
  146.1921  131.2303  152.1450 C   0  0  0  0  0  0  0  0  0  0  0  0
  146.9886  131.8297  153.3062 C   0  0  1  0  0  0  0  0  0  0  0  0
  148.3159  131.0678  153.5049 C   0  0  0  0  0  0  0  0  0  0  0  0
  147.1337  133.3056  152.8792 C   0  0  1  0  0  0  0  0  0  0  0  0
  148.3878  133.9086  153.3473 N   0  0  0  0  0  0  0  0  0  0  0  0
  148.6664  134.0323  155.0464 S   0  0  0  0  0  0  0  0  0  0  0  0
  147.5592  133.3431  155.7265 O   0  0  0  0  0  0  0  0  0  0  0  0
  150.0554  133.6225  155.3040 O   0  0  0  0  0  0  0  0  0  0  0  0
  148.5235  135.8448  155.3442 C   0  0  0  0  0  0  0  0  0  0  0  0
  149.8900  136.4677  155.3205 C   0  0  0  0  0  0  0  0  0  0  0  0
  150.3117  137.6478  154.6476 C   0  0  0  0  0  0  0  0  0  0  0  0
  151.6358  137.7406  154.9665 C   0  0  0  0  0  0  0  0  0  0  0  0
  152.0055  136.7072  155.7644 O   0  0  0  0  0  0  0  0  0  0  0  0
  150.8843  135.8989  155.9837 N   0  0  0  0  0  0  0  0  0  0  0  0
  147.0185  133.3038  151.3426 C   0  0  0  0  0  0  0  0  0  0  0  0
  143.7675  132.1818  149.1447 H   0  0  0  0  0  0  0  0  0  0  0  0
  144.3916  133.3882  150.2591 H   0  0  0  0  0  0  0  0  0  0  0  0
  143.9456  131.7869  150.8504 H   0  0  0  0  0  0  0  0  0  0  0  0
  145.7697  130.7727  149.4413 H   0  0  0  0  0  0  0  0  0  0  0  0
  146.2690  132.3649  148.9111 H   0  0  0  0  0  0  0  0  0  0  0  0
  145.1318  131.4544  152.2753 H   0  0  0  0  0  0  0  0  0  0  0  0
  146.2967  130.1472  152.0724 H   0  0  0  0  0  0  0  0  0  0  0  0
  146.4154  131.7577  154.2318 H   0  0  0  0  0  0  0  0  0  0  0  0
  148.9537  131.1306  152.6224 H   0  0  0  0  0  0  0  0  0  0  0  0
  148.1322  130.0121  153.7054 H   0  0  0  0  0  0  0  0  0  0  0  0
  148.8773  131.4593  154.3537 H   0  0  0  0  0  0  0  0  0  0  0  0
  146.2949  133.8667  153.2941 H   0  0  0  0  0  0  0  0  0  0  0  0
  148.5658  134.7987  152.8826 H   0  0  0  0  0  0  0  0  0  0  0  0
  147.8753  136.2703  154.5772 H   0  0  0  0  0  0  0  0  0  0  0  0
  148.0431  135.9995  156.3100 H   0  0  0  0  0  0  0  0  0  0  0  0
  149.7338  138.3212  154.0320 H   0  0  0  0  0  0  0  0  0  0  0  0
  152.4120  138.4485  154.7153 H   0  0  0  0  0  0  0  0  0  0  0  0
  147.9413  133.6063  150.8466 H   0  0  0  0  0  0  0  0  0  0  0  0
  146.2356  133.9975  151.0314 H   0  0  0  0  0  0  0  0  0  0  0  0
  147.5770  131.4830  150.7102 H   0  0  0  0  0  0  0  0  0  0  0  0
  1  2  1  0  0  0  0
  1 19  1  0  0  0  0
  1 20  1  0  0  0  0
  1 21  1  0  0  0  0
  2  3  1  0  0  0  0
  2 22  1  0  0  0  0
  2 23  1  0  0  0  0
  3 18  1  0  0  0  0
  3  4  1  0  0  0  0
  3 38  1  0  0  0  0
  4  5  1  0  0  0  0
  4 24  1  0  0  0  0
  4 25  1  0  0  0  0
  5  6  1  0  0  0  0
  5  7  1  0  0  0  0
  5 26  1  0  0  0  0
  6 27  1  0  0  0  0
  6 28  1  0  0  0  0
  6 29  1  0  0  0  0
  7  8  1  0  0  0  0
  7 18  1  0  0  0  0
  7 30  1  0  0  0  0
  8  9  1  0  0  0  0
  8 31  1  0  0  0  0
  9 10  2  0  0  0  0
  9 11  2  0  0  0  0
  9 12  1  0  0  0  0
 12 13  1  0  0  0  0
 12 32  1  0  0  0  0
 12 33  1  0  0  0  0
 13 17  2  0  0  0  0
 13 14  1  0  0  0  0
 14 15  2  0  0  0  0
 14 34  1  0  0  0  0
 15 16  1  0  0  0  0
 15 35  1  0  0  0  0
 16 17  1  0  0  0  0
 18 36  1  0  0  0  0
 18 37  1  0  0  0  0
M  CHG  1   3   1
M  END
> <s_m_source_file>
AV-unprocessed.smi

> <i_m_source_file_index>
703

> <i_lp_mmshare_version>
43012

> <i_f3d_flags>
0

> <s_epik_input>
W0NIM11bQ0gyXU4xW0NIMl1bQ0BASF0oW0NIM10pW0NASF0oW0NIMl0xKVtOSF1TKD1PKSg9TylbQ0gyXWMyW2NIXVtjSF1vbjI=

> <s_epik_cmdline>
J2VwaWtfcHl0aG9uJywgJy1waCcsICc3LjAnLCAnLXRuJywgJzgnLCAnLW1hJywgJzIwMCcsICctbWV0YWxfYmluZGluZycsICctaW1hZScsICc8aW5maWxlLm1hZT4nLCAnLW9tYWUnLCAnPG91dGZpbGUubWFlPic=

> <r_epik_Ionization_Penalty>
0.00324529

> <r_epik_Ionization_Penalty_Charging>
0.0019384

> <r_epik_Ionization_Penalty_Neutral>
0.00130689

> <r_epik_State_Penalty>
0.00218682

> <r_epik_Charging_Adjusted_Penalty>
0.00412522

> <i_epik_Tot_Q>
1

> <i_epik_Tot_abs_Q>
1

> <r_epik_Metal_State_Penalty>
0.310831

> <b_epik_Metal_Only>
0

> <s_lp_Force_Field>
OPLS_2005

> <r_lp_Energy>
22.9594

> <b_lp_Chiralities_Consistent>
1

> <s_lp_Variant>
AV-unprocessed.smi:703-2

> <Gold.Version>
5.8.1

> <Gold.Id.Protein>
6NUR|6NUR_protein|mol2

> <Gold.PLP.Fitness>
36.1819

> <Gold.PLP.PLP>
-28.7130

> <Gold.PLP.part.hbond>
-3.0000

> <Gold.PLP.part.metal>
0.0000

> <Gold.PLP.part.buried>
-4.9043

> <Gold.PLP.part.nonpolar>
-21.9512

> <Gold.PLP.part.repulsive>
0.1836

> <Gold.PLP.ligand.clash>
0.0000

> <Gold.PLP.ligand.torsion>
0.8405

> <Gold.PLP.Chemscore.Hbond>
3.0000

> <Gold.PLP.Chemscore.CHOScore>
0.0000

> <Gold.PLP.Chemscore.Metal>
0.0000

> <Gold.Chemscore.Hbonds>
donor molecule, donor type, donor heavy atom, donor atom, acceptor molecule, acceptor atom, score
      L1  H     3    38       P1 10747  1.00
      L1  H     8    31       P1  7948  1.00
      P1  H 10752 10765       L1    16  1.00

> <Gold.PLP.Chemscore.Internal.Correction>
0.1499

> <Gold.Rescore>
     Score         DG    S(hbond)    S(metal)    S(lipo)     H(rot)  DE(clash)    DE(int)     intcor
     13.22     -17.22       2.57        0.00      69.59       1.94       0.00       4.00       ----

> <Gold.Chemscore.Fitness>
13.2225

> <Gold.Chemscore.DG>
-17.2249

> <Gold.Chemscore.ZeroCoef>
-5.4800

> <Gold.Chemscore.Hbond>
2.5655

> <Gold.Chemscore.Metal>
0.0000

> <Gold.Chemscore.Lipo>
69.5940

> <Gold.Chemscore.Internal_Hbond>
0.0000

> <Gold.Chemscore.DEClash>
0.0000

> <Gold.Chemscore.DEInternal>
4.0024

> <Gold.Chemscore.Rot>
1.9400

> <Gold.Chemscore.Internal.Correction>
   9.000000E+99

> <Gold.Chemscore.Hbonds>
donor molecule, donor type, donor heavy atom, donor atom, acceptor molecule, acceptor atom, score
      L1  H     3    38       P1 10747  0.98
      L1  H     8    31       P1  7948  0.35
      P1  H 10752 10765       L1    16  0.23

> <Gold.Chemscore.Hbond.Weighted>
-8.5689

> <Gold.Chemscore.Metal.Weighted>
-0.0000

> <Gold.Chemscore.Lipo.Weighted>
-8.1425

> <Gold.Chemscore.Internal_Hbond.Weighted>
0.0000

> <Gold.Chemscore.DEClash.Weighted>
0.0000

> <Gold.Chemscore.DEInternal.Weighted>
4.0024

> <Gold.Chemscore.Rot.Weighted>
4.9665

> <Gold.Chemscore.Internal.Correction.Weighted>
   9.000000E+99

> <Gold.Protein.RotatedTorsions>
[ 6907 6896 6895 6894 ] final  177.49 input  -60.11 | X-H torsion
[ 7974 7965 7964 7962 ] final   12.94 input  175.53 | X-H torsion
[ 8008 7997 7996 7995 ] final   72.23 input   59.86 | X-H torsion
[ 10167 10162 10161 10158 ] final   13.33 input  -65.29 | X-H torsion
[ 10718 10713 10712 10709 ] final  -72.40 input   66.30 | X-H torsion
[ 10763 10752 10751 10750 ] final -154.00 input  -60.55 | X-H torsion
[ 11005 11000 10999 10996 ] final -153.19 input  -57.11 | X-H torsion

> <Gold.Protein.ActiveResidues>
 VAL166  LYS551  ARG553  GLY616  TRP617  ASP618  TYR619  PRO620  LYS621  CYS622 
 ASP623  PHE694  ASN695  SER759  ASP760  ASP761  ALA762  ILE779  LEU786  VAL792 
 PHE793  MET794  SER795  GLU796  ALA797  LYS798  CYS799  TRP800  GLU811  SER814 

> <Gold.Protein.RotatedAtoms>
  151.7031  133.3311  159.3271 H   0  0  0  0  0  0  0  0  0  0  0  0  # atno 6907 bound_to 6896
  150.7727  134.6598  159.6343 H   0  0  0  0  0  0  0  0  0  0  0  0  # atno 6908 bound_to 6896
  152.3757  134.6669  160.0212 H   0  0  0  0  0  0  0  0  0  0  0  0  # atno 6909 bound_to 6896
  146.2340  139.9262  142.8503 H   0  0  0  0  0  0  0  0  0  0  0  0  # atno 7974 bound_to 7965
  155.7657  140.3485  155.5221 H   0  0  0  0  0  0  0  0  0  0  0  0  # atno 8008 bound_to 7997
  155.8871  140.1011  157.1466 H   0  0  0  0  0  0  0  0  0  0  0  0  # atno 8009 bound_to 7997
  154.4030  140.1311  156.4256 H   0  0  0  0  0  0  0  0  0  0  0  0  # atno 8010 bound_to 7997
  140.6010  143.8605  150.6965 H   0  0  0  0  0  0  0  0  0  0  0  0  # atno 10167 bound_to 10162
  156.0322  130.4371  150.2587 H   0  0  0  0  0  0  0  0  0  0  0  0  # atno 10718 bound_to 10713
  154.7889  135.3200  154.7823 H   0  0  0  0  0  0  0  0  0  0  0  0  # atno 10763 bound_to 10752
  153.8517  135.6861  153.4796 H   0  0  0  0  0  0  0  0  0  0  0  0  # atno 10764 bound_to 10752
  153.1551  135.4683  154.9632 H   0  0  0  0  0  0  0  0  0  0  0  0  # atno 10765 bound_to 10752
  140.7108  134.3835  157.5198 H   0  0  0  0  0  0  0  0  0  0  0  0  # atno 11005 bound_to 11000
  145.2088  140.9887  143.4112 LP  0  0  0  0  0  0  0  0  0  0  0  0  # atno 17320 bound_to 7965
  144.9709  139.3881  143.6309 LP  0  0  0  0  0  0  0  0  0  0  0  0  # atno 17321 bound_to 7965
  140.2151  143.3853  152.1687 LP  0  0  0  0  0  0  0  0  0  0  0  0  # atno 17342 bound_to 10162
  139.5291  144.7138  151.5121 LP  0  0  0  0  0  0  0  0  0  0  0  0  # atno 17343 bound_to 10162
  157.0688  131.0111  151.3197 LP  0  0  0  0  0  0  0  0  0  0  0  0  # atno 17370 bound_to 10713
  157.5015  130.7883  149.7609 LP  0  0  0  0  0  0  0  0  0  0  0  0  # atno 17371 bound_to 10713
  139.8872  134.8889  156.2541 LP  0  0  0  0  0  0  0  0  0  0  0  0  # atno 17394 bound_to 11000
  141.0086  133.7109  156.1075 LP  0  0  0  0  0  0  0  0  0  0  0  0  # atno 17395 bound_to 11000

$$$$
