AV-unprocessed.smi:837|AV-procd|sdf|3893|dock2
  -GOLD-   22720 1353D 1   1.00000     0.00000
 Structure written by MMmdl.
 49 51  0  0  0  0  0  0  0  0  1 V2000
  148.5536  143.0925  158.6311 C   0  0  0  0  0  0  0  0  0  0  0  0
  149.8935  143.8560  158.5774 C   0  0  1  0  0  0  0  0  0  0  0  0
  150.2654  144.4057  159.9715 C   0  0  0  0  0  0  0  0  0  0  0  0
  151.5473  145.2520  159.9253 C   0  0  0  0  0  0  0  0  0  0  0  0
  152.7223  144.4616  159.3324 C   0  0  0  0  0  0  0  0  0  0  0  0
  152.3726  143.9052  157.9406 C   0  0  0  0  0  0  0  0  0  0  0  0
  151.0729  143.0611  157.9322 C   0  0  2  0  0  0  0  0  0  0  0  0
  150.7578  142.6667  156.5700 N   0  0  0  0  0  0  0  0  0  0  0  0
  150.8042  141.3427  156.3784 C   0  0  0  0  0  0  0  0  0  0  0  0
  150.5956  140.7731  155.3083 O   0  0  0  0  0  0  0  0  0  0  0  0
  151.1169  140.7579  157.5478 N   0  0  0  0  0  0  0  0  0  0  0  0
  151.2942  139.3108  157.7291 C   0  0  0  0  0  0  0  0  0  0  0  0
  152.6552  138.9334  158.3330 C   0  0  0  0  0  0  0  0  0  0  0  0
  153.7056  139.1729  157.7349 O   0  0  0  0  0  0  0  0  0  0  0  0
  152.6163  138.3291  159.5299 N   0  0  0  0  0  0  0  0  0  0  0  0
  153.7849  137.8821  160.2785 C   0  0  0  0  0  0  0  0  0  0  0  0
  153.3852  137.0234  161.4897 C   0  0  0  0  0  0  0  0  0  0  0  0
  154.1220  137.4365  162.7485 C   0  0  0  0  0  0  0  0  0  0  0  0
  153.8945  136.7695  163.9699 C   0  0  0  0  0  0  0  0  0  0  0  0
  154.6066  137.1849  165.1117 C   0  0  0  0  0  0  0  0  0  0  0  0
  155.5179  138.2520  164.9826 C   0  0  0  0  0  0  0  0  0  0  0  0
  155.7442  138.8974  163.8178 N   0  0  0  0  0  0  0  0  0  0  0  0
  155.0573  138.4931  162.7276 C   0  0  0  0  0  0  0  0  0  0  0  0
  151.2950  141.6650  158.5180 C   0  0  0  0  0  0  0  0  0  0  0  0
  151.5926  141.4370  159.6908 O   0  0  0  0  0  0  0  0  0  0  0  0
  148.6081  142.2237  159.2875 H   0  0  0  0  0  0  0  0  0  0  0  0
  148.2461  142.7472  157.6440 H   0  0  0  0  0  0  0  0  0  0  0  0
  147.7574  143.7345  159.0085 H   0  0  0  0  0  0  0  0  0  0  0  0
  149.7177  144.7232  157.9386 H   0  0  0  0  0  0  0  0  0  0  0  0
  149.4488  145.0173  160.3570 H   0  0  0  0  0  0  0  0  0  0  0  0
  150.3896  143.5882  160.6821 H   0  0  0  0  0  0  0  0  0  0  0  0
  151.3716  146.1469  159.3270 H   0  0  0  0  0  0  0  0  0  0  0  0
  151.8013  145.5965  160.9282 H   0  0  0  0  0  0  0  0  0  0  0  0
  153.5996  145.1049  159.2615 H   0  0  0  0  0  0  0  0  0  0  0  0
  152.9975  143.6504  160.0065 H   0  0  0  0  0  0  0  0  0  0  0  0
  152.2636  144.7393  157.2460 H   0  0  0  0  0  0  0  0  0  0  0  0
  153.2125  143.3164  157.5676 H   0  0  0  0  0  0  0  0  0  0  0  0
  150.5450  143.3366  155.8451 H   0  0  0  0  0  0  0  0  0  0  0  0
  150.5020  138.9177  158.3687 H   0  0  0  0  0  0  0  0  0  0  0  0
  151.1838  138.7979  156.7722 H   0  0  0  0  0  0  0  0  0  0  0  0
  151.7134  138.1685  159.9529 H   0  0  0  0  0  0  0  0  0  0  0  0
  154.4592  137.3285  159.6224 H   0  0  0  0  0  0  0  0  0  0  0  0
  154.3316  138.7648  160.6118 H   0  0  0  0  0  0  0  0  0  0  0  0
  152.3111  137.0991  161.6652 H   0  0  0  0  0  0  0  0  0  0  0  0
  153.5901  135.9700  161.2926 H   0  0  0  0  0  0  0  0  0  0  0  0
  153.1896  135.9533  164.0318 H   0  0  0  0  0  0  0  0  0  0  0  0
  154.4582  136.6969  166.0638 H   0  0  0  0  0  0  0  0  0  0  0  0
  156.0806  138.5961  165.8379 H   0  0  0  0  0  0  0  0  0  0  0  0
  155.2628  139.0269  161.8113 H   0  0  0  0  0  0  0  0  0  0  0  0
  1  2  1  0  0  0  0
  1 26  1  0  0  0  0
  1 27  1  0  0  0  0
  1 28  1  0  0  0  0
  2  7  1  0  0  0  0
  2  3  1  0  0  0  0
  2 29  1  0  0  0  0
  3  4  1  0  0  0  0
  3 30  1  0  0  0  0
  3 31  1  0  0  0  0
  4  5  1  0  0  0  0
  4 32  1  0  0  0  0
  4 33  1  0  0  0  0
  5  6  1  0  0  0  0
  5 34  1  0  0  0  0
  5 35  1  0  0  0  0
  6  7  1  0  0  0  0
  6 36  1  0  0  0  0
  6 37  1  0  0  0  0
  7 24  1  0  0  0  0
  7  8  1  0  0  0  0
  8  9  1  0  0  0  0
  8 38  1  0  0  0  0
  9 10  2  0  0  0  0
  9 11  1  0  0  0  0
 11 12  1  0  0  0  0
 11 24  1  0  0  0  0
 12 13  1  0  0  0  0
 12 39  1  0  0  0  0
 12 40  1  0  0  0  0
 13 14  2  0  0  0  0
 13 15  1  0  0  0  0
 15 16  1  0  0  0  0
 15 41  1  0  0  0  0
 16 17  1  0  0  0  0
 16 42  1  0  0  0  0
 16 43  1  0  0  0  0
 17 18  1  0  0  0  0
 17 44  1  0  0  0  0
 17 45  1  0  0  0  0
 18 23  1  0  0  0  0
 18 19  2  0  0  0  0
 19 20  1  0  0  0  0
 19 46  1  0  0  0  0
 20 21  2  0  0  0  0
 20 47  1  0  0  0  0
 21 22  1  0  0  0  0
 21 48  1  0  0  0  0
 22 23  2  0  0  0  0
 23 49  1  0  0  0  0
 24 25  2  0  0  0  0
M  END
> <s_m_source_file>
AV-unprocessed.smi

> <i_m_source_file_index>
837

> <i_lp_mmshare_version>
43012

> <i_f3d_flags>
0

> <s_epik_input>
W0NIMl0xW0NIMl1bQ0gyXVtDSDJdW0NAQEhdKFtDSDNdKVtDQEBdMTJbTkhdQyg9TylOKEMyPU8pW0NIMl1DKD1PKVtOSF1bQ0gyXVtDSDJdYzNbY0hdW2NIXVtjSF1uW2NIXTM=

> <s_epik_cmdline>
J2VwaWtfcHl0aG9uJywgJy1waCcsICc3LjAnLCAnLXRuJywgJzgnLCAnLW1hJywgJzIwMCcsICctbWV0YWxfYmluZGluZycsICctaW1hZScsICc8aW5maWxlLm1hZT4nLCAnLW9tYWUnLCAnPG91dGZpbGUubWFlPic=

> <r_lp_tautomer_probability>
1

> <r_epik_Ionization_Penalty>
0.0127837

> <r_epik_Ionization_Penalty_Charging>
0

> <r_epik_Ionization_Penalty_Neutral>
0.0127837

> <r_epik_State_Penalty>
0.00987657

> <r_epik_Charging_Adjusted_Penalty>
0.00987657

> <i_epik_Tot_Q>
0

> <i_epik_Tot_abs_Q>
0

> <r_epik_Metal_State_Penalty>
0.0309865

> <b_epik_Metal_Only>
0

> <s_lp_Force_Field>
OPLS_2005

> <r_lp_Energy>
18.239

> <b_lp_Chiralities_Consistent>
1

> <s_lp_Variant>
AV-unprocessed.smi:837-2

> <Gold.Version>
5.8.1

> <Gold.Id.Protein>
6NUR|6NUR_protein|mol2

> <Gold.PLP.Fitness>
52.7463

> <Gold.PLP.PLP>
-47.2507

> <Gold.PLP.part.hbond>
-3.1201

> <Gold.PLP.part.metal>
0.0000

> <Gold.PLP.part.buried>
-3.8559

> <Gold.PLP.part.nonpolar>
-40.3994

> <Gold.PLP.part.repulsive>
0.2369

> <Gold.PLP.ligand.clash>
0.0000

> <Gold.PLP.ligand.torsion>
0.4182

> <Gold.PLP.Chemscore.Hbond>
2.0904

> <Gold.PLP.Chemscore.CHOScore>
0.0000

> <Gold.PLP.Chemscore.Metal>
0.0000

> <Gold.Chemscore.Hbonds>
donor molecule, donor type, donor heavy atom, donor atom, acceptor molecule, acceptor atom, score
      L1  H     8    38       P1  8028  0.43
      P1  H  7989  7998       L1    10  0.74
      P1  H  7997  8010       L1    14  0.92

> <Gold.PLP.Chemscore.Internal.Correction>
0.0609

> <Gold.Rescore>
     Score         DG    S(hbond)    S(metal)    S(lipo)     H(rot)  DE(clash)    DE(int)     intcor
     19.36     -20.87       1.95        0.00     116.50       1.86       0.01       1.49       ----

> <Gold.Chemscore.Fitness>
19.3590

> <Gold.Chemscore.DG>
-20.8677

> <Gold.Chemscore.ZeroCoef>
-5.4800

> <Gold.Chemscore.Hbond>
1.9482

> <Gold.Chemscore.Metal>
0.0000

> <Gold.Chemscore.Lipo>
116.4979

> <Gold.Chemscore.Internal_Hbond>
0.0000

> <Gold.Chemscore.DEClash>
0.0141

> <Gold.Chemscore.DEInternal>
1.4946

> <Gold.Chemscore.Rot>
1.8553

> <Gold.Chemscore.Internal.Correction>
   9.000000E+99

> <Gold.Chemscore.Hbonds>
donor molecule, donor type, donor heavy atom, donor atom, acceptor molecule, acceptor atom, score
      L1  H     8    38       P1  8028  0.43
      P1  H  7989  7998       L1    10  0.71
      P1  H  7997  8010       L1    14  0.83

> <Gold.Chemscore.Hbond.Weighted>
-6.5071

> <Gold.Chemscore.Metal.Weighted>
-0.0000

> <Gold.Chemscore.Lipo.Weighted>
-13.6303

> <Gold.Chemscore.Internal_Hbond.Weighted>
0.0000

> <Gold.Chemscore.DEClash.Weighted>
0.0141

> <Gold.Chemscore.DEInternal.Weighted>
1.4946

> <Gold.Chemscore.Rot.Weighted>
4.7497

> <Gold.Chemscore.Internal.Correction.Weighted>
   9.000000E+99

> <Gold.Protein.RotatedTorsions>
[ 6907 6896 6895 6894 ] final   -1.10 input  -60.11 | X-H torsion
[ 7974 7965 7964 7962 ] final  -58.17 input  175.53 | X-H torsion
[ 8008 7997 7996 7995 ] final   13.96 input   59.86 | X-H torsion
[ 10167 10162 10161 10158 ] final -121.68 input  -65.29 | X-H torsion
[ 10718 10713 10712 10709 ] final -122.13 input   66.30 | X-H torsion
[ 10763 10752 10751 10750 ] final   72.37 input  -60.55 | X-H torsion
[ 11005 11000 10999 10996 ] final  123.00 input  -57.11 | X-H torsion

> <Gold.Protein.ActiveResidues>
 VAL166  LYS551  ARG553  GLY616  TRP617  ASP618  TYR619  PRO620  LYS621  CYS622 
 ASP623  PHE694  ASN695  SER759  ASP760  ASP761  ALA762  ILE779  LEU786  VAL792 
 PHE793  MET794  SER795  GLU796  ALA797  LYS798  CYS799  TRP800  GLU811  SER814 

> <Gold.Protein.RotatedAtoms>
  151.5515  135.1067  159.9950 H   0  0  0  0  0  0  0  0  0  0  0  0  # atno 6907 bound_to 6896
  152.4489  133.7586  159.6744 H   0  0  0  0  0  0  0  0  0  0  0  0  # atno 6908 bound_to 6896
  150.8412  133.7866  159.3084 H   0  0  0  0  0  0  0  0  0  0  0  0  # atno 6909 bound_to 6896
  145.8424  140.8408  143.0027 H   0  0  0  0  0  0  0  0  0  0  0  0  # atno 7974 bound_to 7965
  154.8417  140.2915  155.5655 H   0  0  0  0  0  0  0  0  0  0  0  0  # atno 8008 bound_to 7997
  156.3012  140.2512  156.3292 H   0  0  0  0  0  0  0  0  0  0  0  0  # atno 8009 bound_to 7997
  154.9118  140.0388  157.1939 H   0  0  0  0  0  0  0  0  0  0  0  0  # atno 8010 bound_to 7997
  140.0224  143.5331  152.2214 H   0  0  0  0  0  0  0  0  0  0  0  0  # atno 10167 bound_to 10162
  156.1393  130.6454  150.9746 H   0  0  0  0  0  0  0  0  0  0  0  0  # atno 10718 bound_to 10713
  153.0455  135.5102  154.7733 H   0  0  0  0  0  0  0  0  0  0  0  0  # atno 10763 bound_to 10752
  154.6637  135.2942  154.9835 H   0  0  0  0  0  0  0  0  0  0  0  0  # atno 10764 bound_to 10752
  154.0678  135.6682  153.4873 H   0  0  0  0  0  0  0  0  0  0  0  0  # atno 10765 bound_to 10752
  139.9293  134.9641  156.8193 H   0  0  0  0  0  0  0  0  0  0  0  0  # atno 11005 bound_to 11000
  144.6733  140.0832  143.7468 LP  0  0  0  0  0  0  0  0  0  0  0  0  # atno 17320 bound_to 7965
  145.9450  139.2694  143.1246 LP  0  0  0  0  0  0  0  0  0  0  0  0  # atno 17321 bound_to 7965
  139.6131  144.7613  151.2907 LP  0  0  0  0  0  0  0  0  0  0  0  0  # atno 17342 bound_to 10162
  140.7337  143.6787  150.8019 LP  0  0  0  0  0  0  0  0  0  0  0  0  # atno 17343 bound_to 10162
  157.6561  131.0889  150.7944 LP  0  0  0  0  0  0  0  0  0  0  0  0  # atno 17370 bound_to 10713
  156.8020  130.4924  149.5368 LP  0  0  0  0  0  0  0  0  0  0  0  0  # atno 17371 bound_to 10713
  140.6247  133.9961  155.7634 LP  0  0  0  0  0  0  0  0  0  0  0  0  # atno 17394 bound_to 11000
  141.0871  133.9973  157.3296 LP  0  0  0  0  0  0  0  0  0  0  0  0  # atno 17395 bound_to 11000

$$$$
