AV-unprocessed.smi:1857|AV-procd|sdf|7541|dock10
  -GOLD-   22720 9253D 1   1.00000     0.00000
 Structure written by MMmdl.
 45 46  0  0  0  0  0  0  0  0  1 V2000
  149.6219  130.2113  156.2924 C   0  0  0  0  0  0  0  0  0  0  0  0
  150.9547  130.9977  156.3091 C   0  0  0  0  0  0  0  0  0  0  0  0
  151.6085  130.7682  157.6860 C   0  0  0  0  0  0  0  0  0  0  0  0
  151.8190  130.3840  155.1862 C   0  0  0  0  0  0  0  0  0  0  0  0
  150.6964  132.4806  156.0901 C   0  0  0  0  0  0  0  0  0  0  0  0
  151.0694  133.4306  156.9461 N   0  0  0  0  0  0  0  0  0  0  0  0
  150.7096  134.6127  156.3401 N   0  0  0  0  0  0  0  0  0  0  0  0
  150.1804  134.3973  155.1760 N   0  0  0  0  0  0  0  0  0  0  0  0
  150.1679  133.0528  154.9857 N   0  0  0  0  0  0  0  0  0  0  0  0
  149.6529  132.5370  153.7237 C   0  0  0  0  0  0  0  0  0  0  0  0
  148.4753  133.3703  153.2056 C   0  0  0  0  0  0  0  0  0  0  0  0
  148.0602  134.3322  153.8525 O   0  0  0  0  0  0  0  0  0  0  0  0
  147.9478  132.9891  152.0315 N   0  0  0  0  0  0  0  0  0  0  0  0
  146.8357  133.6442  151.3452 C   0  0  0  0  0  0  0  0  0  0  0  0
  145.6872  133.9024  152.3462 C   0  0  0  0  0  0  0  0  0  0  0  0
  144.3274  134.2440  151.7154 C   0  0  0  0  0  0  0  0  0  0  0  0
  143.4910  132.9919  151.3967 C   0  0  0  0  0  0  0  0  0  0  0  0
  143.9872  132.1703  150.1968 C   0  0  0  0  0  0  0  0  0  0  0  0
  145.4486  131.6976  150.2951 C   0  0  0  0  0  0  0  0  0  0  0  0
  146.4572  132.8397  150.0831 C   0  0  0  0  0  0  0  0  0  0  0  0
  149.7858  129.1428  156.4382 H   0  0  0  0  0  0  0  0  0  0  0  0
  149.0979  130.3319  155.3433 H   0  0  0  0  0  0  0  0  0  0  0  0
  148.9483  130.5391  157.0855 H   0  0  0  0  0  0  0  0  0  0  0  0
  150.9761  131.1476  158.4895 H   0  0  0  0  0  0  0  0  0  0  0  0
  152.5741  131.2632  157.7737 H   0  0  0  0  0  0  0  0  0  0  0  0
  151.7738  129.7068  157.8738 H   0  0  0  0  0  0  0  0  0  0  0  0
  151.8986  129.3020  155.2983 H   0  0  0  0  0  0  0  0  0  0  0  0
  152.8384  130.7589  155.1752 H   0  0  0  0  0  0  0  0  0  0  0  0
  151.3844  130.5771  154.2047 H   0  0  0  0  0  0  0  0  0  0  0  0
  150.4659  132.5455  152.9955 H   0  0  0  0  0  0  0  0  0  0  0  0
  149.3572  131.4965  153.8251 H   0  0  0  0  0  0  0  0  0  0  0  0
  148.3536  132.1877  151.5705 H   0  0  0  0  0  0  0  0  0  0  0  0
  147.1887  134.6124  150.9850 H   0  0  0  0  0  0  0  0  0  0  0  0
  145.5680  133.0476  153.0137 H   0  0  0  0  0  0  0  0  0  0  0  0
  145.9859  134.7285  152.9929 H   0  0  0  0  0  0  0  0  0  0  0  0
  143.7647  134.8420  152.4332 H   0  0  0  0  0  0  0  0  0  0  0  0
  144.4490  134.8741  150.8335 H   0  0  0  0  0  0  0  0  0  0  0  0
  143.4363  132.3530  152.2789 H   0  0  0  0  0  0  0  0  0  0  0  0
  142.4646  133.3005  151.1957 H   0  0  0  0  0  0  0  0  0  0  0  0
  143.3449  131.2946  150.0966 H   0  0  0  0  0  0  0  0  0  0  0  0
  143.8467  132.7419  149.2787 H   0  0  0  0  0  0  0  0  0  0  0  0
  145.6336  131.1758  151.2349 H   0  0  0  0  0  0  0  0  0  0  0  0
  145.6087  130.9593  149.5088 H   0  0  0  0  0  0  0  0  0  0  0  0
  146.0651  133.5219  149.3279 H   0  0  0  0  0  0  0  0  0  0  0  0
  147.3668  132.4326  149.6390 H   0  0  0  0  0  0  0  0  0  0  0  0
  1  2  1  0  0  0  0
  1 21  1  0  0  0  0
  1 22  1  0  0  0  0
  1 23  1  0  0  0  0
  2  3  1  0  0  0  0
  2  4  1  0  0  0  0
  2  5  1  0  0  0  0
  3 24  1  0  0  0  0
  3 25  1  0  0  0  0
  3 26  1  0  0  0  0
  4 27  1  0  0  0  0
  4 28  1  0  0  0  0
  4 29  1  0  0  0  0
  5  9  1  0  0  0  0
  5  6  2  0  0  0  0
  6  7  1  0  0  0  0
  7  8  2  0  0  0  0
  8  9  1  0  0  0  0
  9 10  1  0  0  0  0
 10 11  1  0  0  0  0
 10 30  1  0  0  0  0
 10 31  1  0  0  0  0
 11 12  2  0  0  0  0
 11 13  1  0  0  0  0
 13 14  1  0  0  0  0
 13 32  1  0  0  0  0
 14 20  1  0  0  0  0
 14 15  1  0  0  0  0
 14 33  1  0  0  0  0
 15 16  1  0  0  0  0
 15 34  1  0  0  0  0
 15 35  1  0  0  0  0
 16 17  1  0  0  0  0
 16 36  1  0  0  0  0
 16 37  1  0  0  0  0
 17 18  1  0  0  0  0
 17 38  1  0  0  0  0
 17 39  1  0  0  0  0
 18 19  1  0  0  0  0
 18 40  1  0  0  0  0
 18 41  1  0  0  0  0
 19 20  1  0  0  0  0
 19 42  1  0  0  0  0
 19 43  1  0  0  0  0
 20 44  1  0  0  0  0
 20 45  1  0  0  0  0
M  END
> <s_m_source_file>
AV-unprocessed.smi

> <i_m_source_file_index>
1857

> <i_lp_mmshare_version>
43012

> <i_f3d_flags>
0

> <s_epik_input>
W0NIM11DKFtDSDNdKShbQ0gzXSljMW5ubm4xW0NIMl1DKD1PKVtOSF1bQ0hdMltDSDJdW0NIMl1bQ0gyXVtDSDJdW0NIMl1bQ0gyXTI=

> <s_epik_cmdline>
J2VwaWtfcHl0aG9uJywgJy1waCcsICc3LjAnLCAnLXRuJywgJzgnLCAnLW1hJywgJzIwMCcsICctbWV0YWxfYmluZGluZycsICctaW1hZScsICc8aW5maWxlLm1hZT4nLCAnLW9tYWUnLCAnPG91dGZpbGUubWFlPic=

> <r_lp_tautomer_probability>
1

> <r_epik_Ionization_Penalty>
4.53904e-07

> <r_epik_Ionization_Penalty_Charging>
0

> <r_epik_Ionization_Penalty_Neutral>
4.53904e-07

> <r_epik_State_Penalty>
-0

> <r_epik_Charging_Adjusted_Penalty>
0

> <i_epik_Tot_Q>
0

> <i_epik_Tot_abs_Q>
0

> <r_epik_Metal_State_Penalty>
-0

> <b_epik_Metal_Only>
0

> <s_lp_Force_Field>
OPLS_2005

> <r_lp_Energy>
25.0233

> <b_lp_Chiralities_Consistent>
1

> <s_lp_Variant>
AV-unprocessed.smi:1857-1

> <Gold.Version>
5.8.1

> <Gold.Id.Protein>
6NUR|6NUR_protein|mol2

> <Gold.PLP.Fitness>
39.0368

> <Gold.PLP.PLP>
-33.8757

> <Gold.PLP.part.hbond>
-2.0000

> <Gold.PLP.part.metal>
0.0000

> <Gold.PLP.part.buried>
-5.0027

> <Gold.PLP.part.nonpolar>
-26.9370

> <Gold.PLP.part.repulsive>
0.1990

> <Gold.PLP.ligand.clash>
0.0000

> <Gold.PLP.ligand.torsion>
0.4595

> <Gold.PLP.Chemscore.Hbond>
1.9920

> <Gold.PLP.Chemscore.CHOScore>
0.0000

> <Gold.PLP.Chemscore.Metal>
0.0000

> <Gold.Chemscore.Hbonds>
donor molecule, donor type, donor heavy atom, donor atom, acceptor molecule, acceptor atom, score
      L1  H    13    32       P1 10747  1.00
      P1  H  6896  6907       L1     6  0.33

> <Gold.PLP.Chemscore.Internal.Correction>
0.1042

> <Gold.Rescore>
     Score         DG    S(hbond)    S(metal)    S(lipo)     H(rot)  DE(clash)    DE(int)     intcor
     12.96     -15.94       1.71        0.00      74.62       1.55       0.09       2.89       ----

> <Gold.Chemscore.Fitness>
12.9621

> <Gold.Chemscore.DG>
-15.9406

> <Gold.Chemscore.ZeroCoef>
-5.4800

> <Gold.Chemscore.Hbond>
1.7077

> <Gold.Chemscore.Metal>
0.0000

> <Gold.Chemscore.Lipo>
74.6151

> <Gold.Chemscore.Internal_Hbond>
0.0000

> <Gold.Chemscore.DEClash>
0.0866

> <Gold.Chemscore.DEInternal>
2.8920

> <Gold.Chemscore.Rot>
1.5520

> <Gold.Chemscore.Internal.Correction>
   9.000000E+99

> <Gold.Chemscore.Hbonds>
donor molecule, donor type, donor heavy atom, donor atom, acceptor molecule, acceptor atom, score
      L1  H    13    32       P1 10747  0.99
      P1  H  6896  6907       L1     6  0.31

> <Gold.Chemscore.Hbond.Weighted>
-5.7037

> <Gold.Chemscore.Metal.Weighted>
-0.0000

> <Gold.Chemscore.Lipo.Weighted>
-8.7300

> <Gold.Chemscore.Internal_Hbond.Weighted>
0.0000

> <Gold.Chemscore.DEClash.Weighted>
0.0866

> <Gold.Chemscore.DEInternal.Weighted>
2.8920

> <Gold.Chemscore.Rot.Weighted>
3.9731

> <Gold.Chemscore.Internal.Correction.Weighted>
   9.000000E+99

> <Gold.Protein.RotatedTorsions>
[ 6907 6896 6895 6894 ] final -147.08 input  -60.11 | X-H torsion
[ 7974 7965 7964 7962 ] final -174.43 input  175.53 | X-H torsion
[ 8008 7997 7996 7995 ] final  -29.18 input   59.86 | X-H torsion
[ 10167 10162 10161 10158 ] final  -75.56 input  -65.29 | X-H torsion
[ 10718 10713 10712 10709 ] final  -72.22 input   66.30 | X-H torsion
[ 10763 10752 10751 10750 ] final  -20.64 input  -60.55 | X-H torsion
[ 11005 11000 10999 10996 ] final   47.61 input  -57.11 | X-H torsion

> <Gold.Protein.ActiveResidues>
 VAL166  LYS551  ARG553  GLY616  TRP617  ASP618  TYR619  PRO620  LYS621  CYS622 
 ASP623  PHE694  ASN695  SER759  ASP760  ASP761  ALA762  ILE779  LEU786  VAL792 
 PHE793  MET794  SER795  GLU796  ALA797  LYS798  CYS799  TRP800  GLU811  SER814 

> <Gold.Protein.RotatedAtoms>
  151.1507  133.4909  159.2595 H   0  0  0  0  0  0  0  0  0  0  0  0  # atno 6907 bound_to 6896
  151.1557  135.0249  159.8698 H   0  0  0  0  0  0  0  0  0  0  0  0  # atno 6908 bound_to 6896
  152.5463  134.1386  159.8522 H   0  0  0  0  0  0  0  0  0  0  0  0  # atno 6909 bound_to 6896
  144.7132  140.1473  143.6387 H   0  0  0  0  0  0  0  0  0  0  0  0  # atno 7974 bound_to 7965
  154.4301  140.1825  156.1207 H   0  0  0  0  0  0  0  0  0  0  0  0  # atno 8008 bound_to 7997
  156.0145  140.3347  155.6950 H   0  0  0  0  0  0  0  0  0  0  0  0  # atno 8009 bound_to 7997
  155.6063  140.0645  157.2709 H   0  0  0  0  0  0  0  0  0  0  0  0  # atno 8010 bound_to 7997
  140.4932  143.2376  151.7873 H   0  0  0  0  0  0  0  0  0  0  0  0  # atno 10167 bound_to 10162
  156.0329  130.4367  150.2560 H   0  0  0  0  0  0  0  0  0  0  0  0  # atno 10718 bound_to 10713
  153.6236  135.6992  153.5301 H   0  0  0  0  0  0  0  0  0  0  0  0  # atno 10763 bound_to 10752
  153.2917  135.4155  155.1172 H   0  0  0  0  0  0  0  0  0  0  0  0  # atno 10764 bound_to 10752
  154.8538  135.3627  154.5778 H   0  0  0  0  0  0  0  0  0  0  0  0  # atno 10765 bound_to 10752
  140.1264  134.4763  155.8556 H   0  0  0  0  0  0  0  0  0  0  0  0  # atno 11005 bound_to 11000
  145.9148  139.2509  143.1416 LP  0  0  0  0  0  0  0  0  0  0  0  0  # atno 17320 bound_to 7965
  145.9679  140.8783  143.0177 LP  0  0  0  0  0  0  0  0  0  0  0  0  # atno 17321 bound_to 7965
  139.4855  144.4622  151.9528 LP  0  0  0  0  0  0  0  0  0  0  0  0  # atno 17342 bound_to 10162
  140.3709  144.2857  150.5920 LP  0  0  0  0  0  0  0  0  0  0  0  0  # atno 17343 bound_to 10162
  157.0661  131.0104  151.3206 LP  0  0  0  0  0  0  0  0  0  0  0  0  # atno 17370 bound_to 10713
  157.5034  130.7894  149.7628 LP  0  0  0  0  0  0  0  0  0  0  0  0  # atno 17371 bound_to 10713
  141.2162  133.6779  156.6986 LP  0  0  0  0  0  0  0  0  0  0  0  0  # atno 17394 bound_to 11000
  140.2899  134.8249  157.4007 LP  0  0  0  0  0  0  0  0  0  0  0  0  # atno 17395 bound_to 11000

$$$$
