AV-unprocessed.smi:25|AV-procd|sdf|180|dock8
  -GOLD-   2262015443D 1   1.00000     0.00000
 Structure written by MMmdl.
 47 50  0  0  0  0  0  0  0  0  1 V2000
  150.8845  131.6755  156.9075 C   0  0  0  0  0  0  0  0  0  0  0  0
  150.8281  131.7679  155.3696 C   0  0  1  0  0  0  0  0  0  0  0  0
  150.6300  130.3764  154.7273 C   0  0  0  0  0  0  0  0  0  0  0  0
  149.2880  130.4900  154.0733 C   0  0  0  0  0  0  0  0  0  0  0  0
  148.5983  129.4541  153.4197 C   0  0  0  0  0  0  0  0  0  0  0  0
  147.3272  129.7332  152.8798 C   0  0  0  0  0  0  0  0  0  0  0  0
  146.7708  131.0246  153.0095 C   0  0  0  0  0  0  0  0  0  0  0  0
  147.4778  132.0527  153.6709 C   0  0  0  0  0  0  0  0  0  0  0  0
  148.7626  131.7755  154.1978 C   0  0  0  0  0  0  0  0  0  0  0  0
  149.6923  132.5980  154.9049 N   0  0  0  0  0  0  0  0  0  0  0  0
  149.7250  133.9524  155.0444 C   0  0  0  0  0  0  0  0  0  0  0  0
  148.7864  134.6521  154.6557 O   0  0  0  0  0  0  0  0  0  0  0  0
  150.9171  134.6601  155.7172 C   0  0  0  0  0  0  0  0  0  0  0  0
  150.5689  135.9586  156.3403 N   0  0  0  0  0  0  0  0  0  0  0  0
  149.7647  135.9599  157.5082 C   0  0  0  0  0  0  0  0  0  0  0  0
  149.3499  134.9093  157.9999 O   0  0  0  0  0  0  0  0  0  0  0  0
  149.4827  137.2724  158.0784 C   0  0  0  0  0  0  0  0  0  0  0  0
  148.7333  137.3684  159.1897 F   0  0  0  0  0  0  0  0  0  0  0  0
  149.9675  138.3952  157.5103 C   0  0  0  0  0  0  0  0  0  0  0  0
  150.7490  138.3796  156.3698 N   0  0  0  0  0  0  0  0  0  0  0  0
  151.2909  139.6588  155.7717 C   0  0  2  0  0  0  0  0  0  0  0  0
  151.3943  140.7447  156.8487 C   0  0  0  0  0  0  0  0  0  0  0  0
  150.0862  141.4850  156.6727 C   0  0  0  0  0  0  0  0  0  0  0  0
  149.8810  141.3903  155.1652 C   0  0  0  0  0  0  0  0  0  0  0  0
  150.4024  140.1172  154.7931 O   0  0  0  0  0  0  0  0  0  0  0  0
  151.0809  137.1473  155.7663 C   0  0  0  0  0  0  0  0  0  0  0  0
  151.8091  137.1096  154.7721 O   0  0  0  0  0  0  0  0  0  0  0  0
  151.6934  131.0181  157.2275 H   0  0  0  0  0  0  0  0  0  0  0  0
  149.9536  131.2775  157.3127 H   0  0  0  0  0  0  0  0  0  0  0  0
  151.0583  132.6467  157.3702 H   0  0  0  0  0  0  0  0  0  0  0  0
  151.7674  132.1866  155.0033 H   0  0  0  0  0  0  0  0  0  0  0  0
  151.3911  130.1710  153.9737 H   0  0  0  0  0  0  0  0  0  0  0  0
  150.6359  129.5651  155.4564 H   0  0  0  0  0  0  0  0  0  0  0  0
  149.0291  128.4670  153.3372 H   0  0  0  0  0  0  0  0  0  0  0  0
  146.7740  128.9563  152.3731 H   0  0  0  0  0  0  0  0  0  0  0  0
  145.7911  131.2271  152.6023 H   0  0  0  0  0  0  0  0  0  0  0  0
  146.9922  133.0079  153.7532 H   0  0  0  0  0  0  0  0  0  0  0  0
  151.3468  133.9945  156.4662 H   0  0  0  0  0  0  0  0  0  0  0  0
  151.6947  134.8109  154.9686 H   0  0  0  0  0  0  0  0  0  0  0  0
  149.7331  139.3383  157.9806 H   0  0  0  0  0  0  0  0  0  0  0  0
  152.2445  139.4014  155.3080 H   0  0  0  0  0  0  0  0  0  0  0  0
  151.5412  140.3306  157.8470 H   0  0  0  0  0  0  0  0  0  0  0  0
  152.2363  141.3947  156.6076 H   0  0  0  0  0  0  0  0  0  0  0  0
  149.2841  140.9659  157.1985 H   0  0  0  0  0  0  0  0  0  0  0  0
  150.1227  142.5130  157.0342 H   0  0  0  0  0  0  0  0  0  0  0  0
  148.8356  141.4955  154.8753 H   0  0  0  0  0  0  0  0  0  0  0  0
  150.4553  142.1649  154.6555 H   0  0  0  0  0  0  0  0  0  0  0  0
  1  2  1  0  0  0  0
  1 28  1  0  0  0  0
  1 29  1  0  0  0  0
  1 30  1  0  0  0  0
  2 10  1  0  0  0  0
  2  3  1  0  0  0  0
  2 31  1  0  0  0  0
  3  4  1  0  0  0  0
  3 32  1  0  0  0  0
  3 33  1  0  0  0  0
  4  9  2  0  0  0  0
  4  5  1  0  0  0  0
  5  6  2  0  0  0  0
  5 34  1  0  0  0  0
  6  7  1  0  0  0  0
  6 35  1  0  0  0  0
  7  8  2  0  0  0  0
  7 36  1  0  0  0  0
  8  9  1  0  0  0  0
  8 37  1  0  0  0  0
  9 10  1  0  0  0  0
 10 11  1  0  0  0  0
 11 12  2  0  0  0  0
 11 13  1  0  0  0  0
 13 14  1  0  0  0  0
 13 38  1  0  0  0  0
 13 39  1  0  0  0  0
 14 26  1  0  0  0  0
 14 15  1  0  0  0  0
 15 16  2  0  0  0  0
 15 17  1  0  0  0  0
 17 18  1  0  0  0  0
 17 19  2  0  0  0  0
 19 20  1  0  0  0  0
 19 40  1  0  0  0  0
 20 21  1  0  0  0  0
 20 26  1  0  0  0  0
 21 25  1  0  0  0  0
 21 22  1  0  0  0  0
 21 41  1  0  0  0  0
 22 23  1  0  0  0  0
 22 42  1  0  0  0  0
 22 43  1  0  0  0  0
 23 24  1  0  0  0  0
 23 44  1  0  0  0  0
 23 45  1  0  0  0  0
 24 25  1  0  0  0  0
 24 46  1  0  0  0  0
 24 47  1  0  0  0  0
 26 27  2  0  0  0  0
M  END
> <s_m_source_file>
AV-unprocessed.smi

> <i_m_source_file_index>
25

> <i_lp_mmshare_version>
43012

> <i_f3d_flags>
0

> <s_epik_input>
W2NIXTFbY0hdW2NIXVtjSF1jKGMxMilOKFtDQEhdKFtDSDNdKVtDSDJdMilDKD1PKVtDSDJdbjNjKD1PKWMoRilbY0hdbihjMz1PKVtDQEBIXTRbQ0gyXVtDSDJdW0NIMl1PNA==

> <s_epik_cmdline>
J2VwaWtfcHl0aG9uJywgJy1waCcsICc3LjAnLCAnLXRuJywgJzgnLCAnLW1hJywgJzIwMCcsICctbWV0YWxfYmluZGluZycsICctaW1hZScsICc8aW5maWxlLm1hZT4nLCAnLW9tYWUnLCAnPG91dGZpbGUubWFlPic=

> <r_lp_tautomer_probability>
1

> <r_epik_Ionization_Penalty>
1.67943e-06

> <r_epik_Ionization_Penalty_Charging>
3.79603e-09

> <r_epik_Ionization_Penalty_Neutral>
1.67563e-06

> <r_epik_State_Penalty>
-0

> <r_epik_Charging_Adjusted_Penalty>
3.79603e-09

> <i_epik_Tot_Q>
0

> <i_epik_Tot_abs_Q>
0

> <r_epik_Metal_State_Penalty>
-0

> <b_epik_Metal_Only>
0

> <s_epik_Chemistry_Notes>
This compound contains an acetal/aminal-like group ( X-CH(R)-Y where X, Y are N, S, or O) that may be acid/base labile, releasing an aldehyde.

> <s_lp_Force_Field>
OPLS_2005

> <r_lp_Energy>
55.2786

> <b_lp_Chiralities_Consistent>
1

> <s_lp_Variant>
AV-unprocessed.smi:25-2

> <Gold.Version>
5.8.1

> <Gold.Id.Protein>
6NUR|6NUR_protein|mol2

> <Gold.PLP.Fitness>
46.6587

> <Gold.PLP.PLP>
-40.7527

> <Gold.PLP.part.hbond>
-3.0000

> <Gold.PLP.part.metal>
0.0000

> <Gold.PLP.part.buried>
-6.1621

> <Gold.PLP.part.nonpolar>
-32.4414

> <Gold.PLP.part.repulsive>
0.3444

> <Gold.PLP.ligand.clash>
0.0000

> <Gold.PLP.ligand.torsion>
1.1792

> <Gold.PLP.Chemscore.Hbond>
2.7413

> <Gold.PLP.Chemscore.CHOScore>
0.0000

> <Gold.PLP.Chemscore.Metal>
0.0000

> <Gold.Chemscore.Hbonds>
donor molecule, donor type, donor heavy atom, donor atom, acceptor molecule, acceptor atom, score
      P1  H  6896  6907       L1    16  0.96
      P1  H  7989  7998       L1    25  0.65
      P1  H 10752 10763       L1    27  0.99

> <Gold.PLP.Chemscore.Internal.Correction>
0.0406

> <Gold.Rescore>
     Score         DG    S(hbond)    S(metal)    S(lipo)     H(rot)  DE(clash)    DE(int)     intcor
     14.79     -16.71       1.86        0.00      76.83       1.55       0.00       1.92       ----

> <Gold.Chemscore.Fitness>
14.7923

> <Gold.Chemscore.DG>
-16.7114

> <Gold.Chemscore.ZeroCoef>
-5.4800

> <Gold.Chemscore.Hbond>
1.8584

> <Gold.Chemscore.Metal>
0.0000

> <Gold.Chemscore.Lipo>
76.8333

> <Gold.Chemscore.Internal_Hbond>
0.0000

> <Gold.Chemscore.DEClash>
0.0029

> <Gold.Chemscore.DEInternal>
1.9162

> <Gold.Chemscore.Rot>
1.5489

> <Gold.Chemscore.Internal.Correction>
   9.000000E+99

> <Gold.Chemscore.Hbonds>
donor molecule, donor type, donor heavy atom, donor atom, acceptor molecule, acceptor atom, score
      P1  H  6896  6907       L1    16  0.73
      P1  H  7989  7998       L1    25  0.02
      P1  H 10752 10763       L1    27  0.89

> <Gold.Chemscore.Hbond.Weighted>
-6.2070

> <Gold.Chemscore.Metal.Weighted>
-0.0000

> <Gold.Chemscore.Lipo.Weighted>
-8.9895

> <Gold.Chemscore.Internal_Hbond.Weighted>
0.0000

> <Gold.Chemscore.DEClash.Weighted>
0.0029

> <Gold.Chemscore.DEInternal.Weighted>
1.9162

> <Gold.Chemscore.Rot.Weighted>
3.9651

> <Gold.Chemscore.Internal.Correction.Weighted>
   9.000000E+99

> <Gold.Protein.RotatedTorsions>
[ 6907 6896 6895 6894 ] final -101.14 input  -60.11 | X-H torsion
[ 7974 7965 7964 7962 ] final  -44.65 input  175.53 | X-H torsion
[ 8008 7997 7996 7995 ] final   19.38 input   59.86 | X-H torsion
[ 10167 10162 10161 10158 ] final   40.42 input  -65.29 | X-H torsion
[ 10718 10713 10712 10709 ] final  128.21 input   66.30 | X-H torsion
[ 10763 10752 10751 10750 ] final   60.37 input  -60.55 | X-H torsion
[ 11005 11000 10999 10996 ] final -134.04 input  -57.11 | X-H torsion

> <Gold.Protein.ActiveResidues>
 VAL166  LYS551  ARG553  GLY616  TRP617  ASP618  TYR619  PRO620  LYS621  CYS622 
 ASP623  PHE694  ASN695  SER759  ASP760  ASP761  ALA762  ILE779  LEU786  VAL792 
 PHE793  MET794  SER795  GLU796  ALA797  LYS798  CYS799  TRP800  GLU811  SER814 

> <Gold.Protein.RotatedAtoms>
  150.7143  134.0779  159.3887 H   0  0  0  0  0  0  0  0  0  0  0  0  # atno 6907 bound_to 6896
  151.8762  135.0468  160.0493 H   0  0  0  0  0  0  0  0  0  0  0  0  # atno 6908 bound_to 6896
  152.2604  133.5256  159.5415 H   0  0  0  0  0  0  0  0  0  0  0  0  # atno 6909 bound_to 6896
  145.9899  140.7192  142.9322 H   0  0  0  0  0  0  0  0  0  0  0  0  # atno 7974 bound_to 7965
  154.9199  140.3026  155.5222 H   0  0  0  0  0  0  0  0  0  0  0  0  # atno 8008 bound_to 7997
  156.3010  140.2373  156.4184 H   0  0  0  0  0  0  0  0  0  0  0  0  # atno 8009 bound_to 7997
  154.8341  140.0417  157.1486 H   0  0  0  0  0  0  0  0  0  0  0  0  # atno 8010 bound_to 7997
  140.3743  144.2063  150.6132 H   0  0  0  0  0  0  0  0  0  0  0  0  # atno 10167 bound_to 10162
  157.5265  131.1098  150.9075 H   0  0  0  0  0  0  0  0  0  0  0  0  # atno 10718 bound_to 10713
  152.9919  135.5538  154.5863 H   0  0  0  0  0  0  0  0  0  0  0  0  # atno 10763 bound_to 10752
  154.5234  135.2809  155.1245 H   0  0  0  0  0  0  0  0  0  0  0  0  # atno 10764 bound_to 10752
  154.2589  135.6385  153.5320 H   0  0  0  0  0  0  0  0  0  0  0  0  # atno 10765 bound_to 10752
  140.9026  134.1671  157.4449 H   0  0  0  0  0  0  0  0  0  0  0  0  # atno 11005 bound_to 11000
  144.6886  140.3052  143.7257 LP  0  0  0  0  0  0  0  0  0  0  0  0  # atno 17320 bound_to 7965
  145.7645  139.1836  143.2248 LP  0  0  0  0  0  0  0  0  0  0  0  0  # atno 17321 bound_to 7965
  140.5001  143.2320  151.8691 LP  0  0  0  0  0  0  0  0  0  0  0  0  # atno 17342 bound_to 10162
  139.4801  144.5069  151.8986 LP  0  0  0  0  0  0  0  0  0  0  0  0  # atno 17343 bound_to 10162
  156.9669  130.5476  149.5288 LP  0  0  0  0  0  0  0  0  0  0  0  0  # atno 17370 bound_to 10713
  156.0391  130.5475  150.8726 LP  0  0  0  0  0  0  0  0  0  0  0  0  # atno 17371 bound_to 10713
  139.8744  134.9904  156.5501 LP  0  0  0  0  0  0  0  0  0  0  0  0  # atno 17394 bound_to 11000
  140.8211  133.8353  155.8896 LP  0  0  0  0  0  0  0  0  0  0  0  0  # atno 17395 bound_to 11000

$$$$
