AV-unprocessed.smi:862|AV-procd|sdf|3981|dock5
  -GOLD-   22720 1463D 1   1.00000     0.00000
 Structure written by MMmdl.
 45 47  0  0  0  0  0  0  0  0  3 V2000
  143.3507  133.8687  153.2050 N   0  0  0  0  0  0  0  0  0  0  0  0
  142.7180  135.0253  153.4249 C   0  0  0  0  0  0  0  0  0  0  0  0
  141.7473  135.0832  154.1774 O   0  0  0  0  0  0  0  0  0  0  0  0
  143.2541  136.1055  152.8028 N   0  0  0  0  0  0  0  0  0  0  0  0
  143.2450  137.4886  153.3065 C   0  0  0  0  0  0  0  0  0  0  0  0
  144.6490  137.8284  153.8391 C   0  0  0  0  0  0  0  0  0  0  0  0
  145.7252  137.6332  152.7499 C   0  0  0  0  0  0  0  0  0  0  0  0
  147.0702  137.8443  153.3327 N   0  3  0  0  0  0  0  0  0  0  0  0
  147.5014  139.2539  153.4981 C   0  0  1  0  0  0  0  0  0  0  0  0
  146.8143  139.9804  154.6597 C   0  0  0  0  0  0  0  0  0  0  0  0
  147.7474  141.1488  155.0063 C   0  0  0  0  0  0  0  0  0  0  0  0
  149.1107  140.8324  154.3662 C   0  0  0  0  0  0  0  0  0  0  0  0
  149.0076  139.4133  153.7815 C   0  0  1  0  0  0  0  0  0  0  0  0
  149.5583  138.3938  154.7005 N   0  0  0  0  0  0  0  0  0  0  0  0
  150.5910  137.5118  154.4858 C   0  0  0  0  0  0  0  0  0  0  0  0
  150.7368  136.7850  155.6388 C   0  0  0  0  0  0  0  0  0  0  0  0
  149.7939  137.2527  156.5128 N   0  3  0  0  0  0  0  0  0  0  0  0
  149.0820  138.2304  155.9435 C   0  0  0  0  0  0  0  0  0  0  0  0
  145.5956  136.2379  152.0949 C   0  0  0  0  0  0  0  0  0  0  0  0
  144.1478  135.9675  151.6469 C   0  0  0  0  0  0  0  0  0  0  0  0
  143.0142  133.0249  153.6459 H   0  0  0  0  0  0  0  0  0  0  0  0
  144.1667  133.8424  152.6114 H   0  0  0  0  0  0  0  0  0  0  0  0
  142.9805  138.1648  152.4921 H   0  0  0  0  0  0  0  0  0  0  0  0
  142.5032  137.6695  154.0844 H   0  0  0  0  0  0  0  0  0  0  0  0
  144.6670  138.8568  154.2018 H   0  0  0  0  0  0  0  0  0  0  0  0
  144.8690  137.1933  154.6987 H   0  0  0  0  0  0  0  0  0  0  0  0
  145.5511  138.3920  151.9862 H   0  0  0  0  0  0  0  0  0  0  0  0
  147.0840  137.4124  154.2455 H   0  0  0  0  0  0  0  0  0  0  0  0
  147.2901  139.8002  152.5784 H   0  0  0  0  0  0  0  0  0  0  0  0
  145.8120  140.3242  154.4017 H   0  0  0  0  0  0  0  0  0  0  0  0
  146.7186  139.3167  155.5199 H   0  0  0  0  0  0  0  0  0  0  0  0
  147.3561  142.0848  154.6055 H   0  0  0  0  0  0  0  0  0  0  0  0
  147.8306  141.2718  156.0868 H   0  0  0  0  0  0  0  0  0  0  0  0
  149.2959  141.5417  153.5583 H   0  0  0  0  0  0  0  0  0  0  0  0
  149.9349  140.9415  155.0725 H   0  0  0  0  0  0  0  0  0  0  0  0
  149.5771  139.3517  152.8522 H   0  0  0  0  0  0  0  0  0  0  0  0
  151.1316  137.4567  153.5522 H   0  0  0  0  0  0  0  0  0  0  0  0
  151.4220  135.9897  155.8955 H   0  0  0  0  0  0  0  0  0  0  0  0
  148.2757  138.7766  156.4006 H   0  0  0  0  0  0  0  0  0  0  0  0
  146.2559  136.1528  151.2322 H   0  0  0  0  0  0  0  0  0  0  0  0
  145.9050  135.4653  152.8005 H   0  0  0  0  0  0  0  0  0  0  0  0
  144.0783  134.9841  151.1795 H   0  0  0  0  0  0  0  0  0  0  0  0
  143.8534  136.6804  150.8755 H   0  0  0  0  0  0  0  0  0  0  0  0
  147.7378  137.3679  152.7436 H   0  0  0  0  0  0  0  0  0  0  0  0
  149.6494  136.9043  157.4528 H   0  0  0  0  0  0  0  0  0  0  0  0
  1  2  1  0  0  0  0
  1 21  1  0  0  0  0
  1 22  1  0  0  0  0
  2  3  2  0  0  0  0
  2  4  1  0  0  0  0
  4 20  1  0  0  0  0
  4  5  1  0  0  0  0
  5  6  1  0  0  0  0
  5 23  1  0  0  0  0
  5 24  1  0  0  0  0
  6  7  1  0  0  0  0
  6 25  1  0  0  0  0
  6 26  1  0  0  0  0
  7  8  1  0  0  0  0
  7 19  1  0  0  0  0
  7 27  1  0  0  0  0
  8  9  1  0  0  0  0
  8 28  1  0  0  0  0
  8 44  1  0  0  0  0
  9 13  1  0  0  0  0
  9 10  1  0  0  0  0
  9 29  1  0  0  0  0
 10 11  1  0  0  0  0
 10 30  1  0  0  0  0
 10 31  1  0  0  0  0
 11 12  1  0  0  0  0
 11 32  1  0  0  0  0
 11 33  1  0  0  0  0
 12 13  1  0  0  0  0
 12 34  1  0  0  0  0
 12 35  1  0  0  0  0
 13 14  1  0  0  0  0
 13 36  1  0  0  0  0
 14 18  1  0  0  0  0
 14 15  1  0  0  0  0
 15 16  2  0  0  0  0
 15 37  1  0  0  0  0
 16 17  1  0  0  0  0
 16 38  1  0  0  0  0
 17 18  2  0  0  0  0
 17 45  1  0  0  0  0
 18 39  1  0  0  0  0
 19 20  1  0  0  0  0
 19 40  1  0  0  0  0
 19 41  1  0  0  0  0
 20 42  1  0  0  0  0
 20 43  1  0  0  0  0
M  CHG  1   8   1
M  CHG  1  17   1
M  END
> <s_m_source_file>
AV-unprocessed.smi

> <i_m_source_file_index>
862

> <i_lp_mmshare_version>
43012

> <i_f3d_flags>
0

> <s_epik_input>
W05IMl1DKD1PKU4xW0NIMl1bQ0gyXVtDSF0oW0NIMl1bQ0gyXTEpW05IXVtDQEBIXTJbQ0gyXVtDSDJdW0NIMl1bQ0BIXTJuM1tjSF1bY0hdbltjSF0z

> <s_epik_cmdline>
J2VwaWtfcHl0aG9uJywgJy1waCcsICc3LjAnLCAnLXRuJywgJzgnLCAnLW1hJywgJzIwMCcsICctbWV0YWxfYmluZGluZycsICctaW1hZScsICc8aW5maWxlLm1hZT4nLCAnLW9tYWUnLCAnPG91dGZpbGUubWFlPic=

> <r_lp_tautomer_probability>
1

> <r_epik_Ionization_Penalty>
1.30217

> <r_epik_Ionization_Penalty_Charging>
0.00439521

> <r_epik_Ionization_Penalty_Neutral>
1.29777

> <r_epik_State_Penalty>
0.977606

> <r_epik_Charging_Adjusted_Penalty>
0.982001

> <i_epik_Tot_Q>
2

> <i_epik_Tot_abs_Q>
2

> <r_epik_Metal_State_Penalty>
1.03289

> <b_epik_Metal_Only>
0

> <s_lp_Force_Field>
OPLS_2005

> <r_lp_Energy>
67.0187

> <b_lp_Chiralities_Consistent>
1

> <s_lp_Variant>
AV-unprocessed.smi:862-6

> <Gold.Version>
5.8.1

> <Gold.Id.Protein>
6NUR|6NUR_protein|mol2

> <Gold.PLP.Fitness>
39.0440

> <Gold.PLP.PLP>
-27.2236

> <Gold.PLP.part.hbond>
-3.0000

> <Gold.PLP.part.metal>
0.0000

> <Gold.PLP.part.buried>
0.5552

> <Gold.PLP.part.nonpolar>
-25.1802

> <Gold.PLP.part.repulsive>
0.1493

> <Gold.PLP.ligand.clash>
0.6248

> <Gold.PLP.ligand.torsion>
0.5935

> <Gold.PLP.Chemscore.Hbond>
3.5138

> <Gold.PLP.Chemscore.CHOScore>
1.0000

> <Gold.PLP.Chemscore.Metal>
0.0000

> <Gold.Chemscore.Hbonds>
donor molecule, donor type, donor heavy atom, donor atom, acceptor molecule, acceptor atom, score
      L1  H     1    21       P1 10957  1.00
      L1  H     8    44       P1  7948  2.00
      P1  H 11000 11005       L1     3  0.49
      L1  C    15    37       P1  7949  1.00

> <Gold.PLP.Chemscore.Internal.Correction>
0.0909

> <Gold.Rescore>
     Score         DG    S(hbond)    S(metal)    S(lipo)     H(rot)  DE(clash)    DE(int)     intcor
     15.28     -17.27       2.65        0.00      61.98       1.68       1.36       0.63       ----

> <Gold.Chemscore.Fitness>
15.2814

> <Gold.Chemscore.DG>
-17.2716

> <Gold.Chemscore.ZeroCoef>
-5.4800

> <Gold.Chemscore.Hbond>
2.6480

> <Gold.Chemscore.Metal>
0.0000

> <Gold.Chemscore.Lipo>
61.9799

> <Gold.Chemscore.Internal_Hbond>
0.0000

> <Gold.Chemscore.DEClash>
1.3636

> <Gold.Chemscore.DEInternal>
0.6266

> <Gold.Chemscore.Rot>
1.6814

> <Gold.Chemscore.Internal.Correction>
   9.000000E+99

> <Gold.Chemscore.Hbonds>
donor molecule, donor type, donor heavy atom, donor atom, acceptor molecule, acceptor atom, score
      L1  H     1    21       P1 10957  0.96
      L1  H     8    44       P1  7948  1.00
      P1  H 11000 11005       L1     3  0.49

> <Gold.Chemscore.Hbond.Weighted>
-8.8442

> <Gold.Chemscore.Metal.Weighted>
-0.0000

> <Gold.Chemscore.Lipo.Weighted>
-7.2517

> <Gold.Chemscore.Internal_Hbond.Weighted>
0.0000

> <Gold.Chemscore.DEClash.Weighted>
1.3636

> <Gold.Chemscore.DEInternal.Weighted>
0.6266

> <Gold.Chemscore.Rot.Weighted>
4.3043

> <Gold.Chemscore.Internal.Correction.Weighted>
   9.000000E+99

> <Gold.Protein.RotatedTorsions>
[ 6907 6896 6895 6894 ] final   -2.92 input  -60.11 | X-H torsion
[ 7974 7965 7964 7962 ] final  155.48 input  175.53 | X-H torsion
[ 8008 7997 7996 7995 ] final  -69.81 input   59.86 | X-H torsion
[ 10167 10162 10161 10158 ] final  147.32 input  -65.29 | X-H torsion
[ 10718 10713 10712 10709 ] final   86.80 input   66.30 | X-H torsion
[ 10763 10752 10751 10750 ] final -113.40 input  -60.55 | X-H torsion
[ 11005 11000 10999 10996 ] final   11.18 input  -57.11 | X-H torsion

> <Gold.Protein.ActiveResidues>
 VAL166  LYS551  ARG553  GLY616  TRP617  ASP618  TYR619  PRO620  LYS621  CYS622 
 ASP623  PHE694  ASN695  SER759  ASP760  ASP761  ALA762  ILE779  LEU786  VAL792 
 PHE793  MET794  SER795  GLU796  ALA797  LYS798  CYS799  TRP800  GLU811  SER814 

> <Gold.Protein.RotatedAtoms>
  151.5220  135.1067  159.9880 H   0  0  0  0  0  0  0  0  0  0  0  0  # atno 6907 bound_to 6896
  152.4616  133.7830  159.6871 H   0  0  0  0  0  0  0  0  0  0  0  0  # atno 6908 bound_to 6896
  150.8581  133.7620  159.3027 H   0  0  0  0  0  0  0  0  0  0  0  0  # atno 6909 bound_to 6896
  144.8022  139.7074  143.6177 H   0  0  0  0  0  0  0  0  0  0  0  0  # atno 7974 bound_to 7965
  154.4966  140.0846  156.7708 H   0  0  0  0  0  0  0  0  0  0  0  0  # atno 8008 bound_to 7997
  155.4103  140.3441  155.4245 H   0  0  0  0  0  0  0  0  0  0  0  0  # atno 8009 bound_to 7997
  156.1401  140.1527  156.8921 H   0  0  0  0  0  0  0  0  0  0  0  0  # atno 8010 bound_to 7997
  139.4892  144.5764  151.6956 H   0  0  0  0  0  0  0  0  0  0  0  0  # atno 10167 bound_to 10162
  157.6933  131.0230  150.3026 H   0  0  0  0  0  0  0  0  0  0  0  0  # atno 10718 bound_to 10713
  154.8394  135.4456  154.1343 H   0  0  0  0  0  0  0  0  0  0  0  0  # atno 10763 bound_to 10752
  153.2545  135.6930  153.7650 H   0  0  0  0  0  0  0  0  0  0  0  0  # atno 10764 bound_to 10752
  153.6950  135.3381  155.3187 H   0  0  0  0  0  0  0  0  0  0  0  0  # atno 10765 bound_to 10752
  140.5062  134.0697  155.7806 H   0  0  0  0  0  0  0  0  0  0  0  0  # atno 11005 bound_to 11000
  146.2306  139.5807  142.9557 LP  0  0  0  0  0  0  0  0  0  0  0  0  # atno 17320 bound_to 7965
  145.5525  141.0412  143.2271 LP  0  0  0  0  0  0  0  0  0  0  0  0  # atno 17321 bound_to 7965
  140.5361  144.0653  150.6071 LP  0  0  0  0  0  0  0  0  0  0  0  0  # atno 17342 bound_to 10162
  140.3659  143.2881  152.0332 LP  0  0  0  0  0  0  0  0  0  0  0  0  # atno 17343 bound_to 10162
  156.3540  130.3835  149.7305 LP  0  0  0  0  0  0  0  0  0  0  0  0  # atno 17370 bound_to 10713
  156.4774  130.8025  151.3040 LP  0  0  0  0  0  0  0  0  0  0  0  0  # atno 17371 bound_to 10713
  141.1410  133.9138  157.2326 LP  0  0  0  0  0  0  0  0  0  0  0  0  # atno 17394 bound_to 11000
  139.9685  135.0135  156.9450 LP  0  0  0  0  0  0  0  0  0  0  0  0  # atno 17395 bound_to 11000

$$$$
