AV-unprocessed.smi:160|AV-procd|sdf|1370|dock3
  -GOLD-   2262019 93D 1   1.00000     0.00000
 Structure written by MMmdl.
 28 29  0  0  0  0  0  0  0  0  2 V2000
  153.9201  136.4008  156.9094 N   0  5  0  0  0  0  0  0  0  0  0  0
  153.3831  137.6381  156.9742 C   0  0  0  0  0  0  0  0  0  0  0  0
  153.7257  138.5423  157.7360 O   0  0  0  0  0  0  0  0  0  0  0  0
  152.2604  137.8808  155.9941 C   0  0  0  0  0  0  0  0  0  0  0  0
  152.3061  137.4653  154.6892 N   0  0  0  0  0  0  0  0  0  0  0  0
  151.1242  137.9092  154.2856 C   0  0  0  0  0  0  0  0  0  0  0  0
  150.4309  138.5622  155.2256 N   0  0  0  0  0  0  0  0  0  0  0  0
  149.0504  139.1470  155.2019 C   0  0  1  0  0  0  0  0  0  0  0  0
  148.8421  139.8355  156.4030 O   0  0  0  0  0  0  0  0  0  0  0  0
  148.9928  141.2414  156.2271 C   0  0  1  0  0  0  0  0  0  0  0  0
  150.4700  141.6569  156.4243 C   0  0  0  0  0  0  0  0  0  0  0  0
  150.5485  143.0497  156.6377 O   0  0  0  0  0  0  0  0  0  0  0  0
  148.4304  141.4254  154.8108 C   0  0  1  0  0  0  0  0  0  0  0  0
  148.8812  142.6099  154.1834 O   0  0  0  0  0  0  0  0  0  0  0  0
  148.8965  140.1799  154.0657 C   0  0  2  0  0  0  0  0  0  0  0  0
  147.9149  139.7864  153.1276 O   0  0  0  0  0  0  0  0  0  0  0  0
  151.1509  138.5164  156.3742 N   0  0  0  0  0  0  0  0  0  0  0  0
  148.3912  138.2813  155.1262 H   0  0  0  0  0  0  0  0  0  0  0  0
  148.3690  141.7772  156.9437 H   0  0  0  0  0  0  0  0  0  0  0  0
  147.3407  141.4442  154.8709 H   0  0  0  0  0  0  0  0  0  0  0  0
  149.8515  140.3633  153.5722 H   0  0  0  0  0  0  0  0  0  0  0  0
  154.8137  136.2308  157.3864 H   0  0  0  0  0  0  0  0  0  0  0  0
  150.7576  137.7489  153.2825 H   0  0  0  0  0  0  0  0  0  0  0  0
  150.9553  141.1223  157.2389 H   0  0  0  0  0  0  0  0  0  0  0  0
  151.0509  141.4507  155.5258 H   0  0  0  0  0  0  0  0  0  0  0  0
  149.7470  143.4458  156.3316 H   0  0  0  0  0  0  0  0  0  0  0  0
  149.0298  143.2616  154.8516 H   0  0  0  0  0  0  0  0  0  0  0  0
  148.3380  139.6336  152.2964 H   0  0  0  0  0  0  0  0  0  0  0  0
  1  2  1  0  0  0  0
  1 22  1  0  0  0  0
  2  3  2  0  0  0  0
  2  4  1  0  0  0  0
  4 17  2  0  0  0  0
  4  5  1  0  0  0  0
  5  6  2  0  0  0  0
  6  7  1  0  0  0  0
  6 23  1  0  0  0  0
  7  8  1  0  0  0  0
  7 17  1  0  0  0  0
  8 18  1  0  0  0  0
  8 15  1  0  0  0  0
  8  9  1  0  0  0  0
  9 10  1  0  0  0  0
 10 19  1  0  0  0  0
 10 11  1  0  0  0  0
 10 13  1  0  0  0  0
 11 12  1  0  0  0  0
 11 24  1  0  0  0  0
 11 25  1  0  0  0  0
 12 26  1  0  0  0  0
 13 20  1  0  0  0  0
 13 14  1  0  0  0  0
 13 15  1  0  0  0  0
 14 27  1  0  0  0  0
 15 21  1  0  0  0  0
 15 16  1  0  0  0  0
 16 28  1  0  0  0  0
M  CHG  1   1  -1
M  END
> <s_m_source_file>
AV-unprocessed.smi

> <i_m_source_file_index>
160

> <i_lp_mmshare_version>
43012

> <i_f3d_flags>
0

> <s_epik_input>
W05IMl1DKD1PKWMxbltjSF1uKG4xKVtDQEBIXTJPW0NASF0oW0NIMl1bT0hdKVtDQEBIXShbT0hdKVtDQEhdMltPSF0=

> <s_epik_cmdline>
J2VwaWtfcHl0aG9uJywgJy1waCcsICc3LjAnLCAnLXRuJywgJzgnLCAnLW1hJywgJzIwMCcsICctbWV0YWxfYmluZGluZycsICctaW1hZScsICc8aW5maWxlLm1hZT4nLCAnLW9tYWUnLCAnPG91dGZpbGUubWFlPic=

> <r_lp_tautomer_probability>
1

> <r_epik_Ionization_Penalty>
6.6993

> <r_epik_Ionization_Penalty_Charging>
6.6993

> <r_epik_Ionization_Penalty_Neutral>
6.01698e-06

> <r_epik_State_Penalty>
6.69929

> <r_epik_Charging_Adjusted_Penalty>
13.3986

> <i_epik_Tot_Q>
-1

> <i_epik_Tot_abs_Q>
1

> <r_epik_Metal_State_Penalty>
2.62798

> <b_epik_Metal_Only>
1

> <s_epik_Chemistry_Notes>
This compound contains an acetal/aminal-like group ( X-CH(R)-Y where X, Y are N, S, or O) that may be acid/base labile, releasing an aldehyde.

> <s_lp_Force_Field>
OPLS_2005

> <r_lp_Energy>
41.818

> <b_lp_Chiralities_Consistent>
1

> <s_lp_Variant>
AV-unprocessed.smi:160-28

> <Gold.Version>
5.8.1

> <Gold.Id.Protein>
6NUR|6NUR_protein|mol2

> <Gold.PLP.Fitness>
46.2045

> <Gold.PLP.PLP>
-25.2722

> <Gold.PLP.part.hbond>
-7.1668

> <Gold.PLP.part.metal>
0.0000

> <Gold.PLP.part.buried>
-2.7912

> <Gold.PLP.part.nonpolar>
-16.1664

> <Gold.PLP.part.repulsive>
0.0832

> <Gold.PLP.ligand.clash>
0.0000

> <Gold.PLP.ligand.torsion>
1.0218

> <Gold.PLP.Chemscore.Hbond>
6.5465

> <Gold.PLP.Chemscore.CHOScore>
1.0881

> <Gold.PLP.Chemscore.Metal>
0.0000

> <Gold.Chemscore.Hbonds>
donor molecule, donor type, donor heavy atom, donor atom, acceptor molecule, acceptor atom, score
      L1  H    12    26       P1  8028  1.00
      L1  H    14    27       P1  8028  1.00
      L1  H    16    28       P1  7957  1.00
      P1  H  7997  8010       L1     3  1.00
      P1  H  8011  8017       L1    14  0.06
      P1  H 10752 10764       L1     5  0.62
      P1  H 10752 10765       L1     1  1.92
      L1  C     6    23       P1  7948  0.27
      L1  C     6    23       P1  7949  0.78

> <Gold.PLP.Chemscore.Internal.Correction>
0.0722

> <Gold.Rescore>
     Score         DG    S(hbond)    S(metal)    S(lipo)     H(rot)  DE(clash)    DE(int)     intcor
     14.28     -15.59       5.22        0.00      25.67       4.04       0.27       1.04       ----

> <Gold.Chemscore.Fitness>
14.2809

> <Gold.Chemscore.DG>
-15.5919

> <Gold.Chemscore.ZeroCoef>
-5.4800

> <Gold.Chemscore.Hbond>
5.2250

> <Gold.Chemscore.Metal>
0.0000

> <Gold.Chemscore.Lipo>
25.6715

> <Gold.Chemscore.Internal_Hbond>
0.0000

> <Gold.Chemscore.DEClash>
0.2676

> <Gold.Chemscore.DEInternal>
1.0435

> <Gold.Chemscore.Rot>
4.0403

> <Gold.Chemscore.Internal.Correction>
   9.000000E+99

> <Gold.Chemscore.Hbonds>
donor molecule, donor type, donor heavy atom, donor atom, acceptor molecule, acceptor atom, score
      L1  H    12    26       P1  8028  0.95
      L1  H    14    27       P1  8028  0.99
      L1  H    16    28       P1  7957  0.94
      P1  H  7997  8010       L1     3  0.95
      P1  H  8011  8017       L1    14  0.09
      P1  H 10752 10764       L1     5  0.60
      P1  H 10752 10765       L1     1  0.32

> <Gold.Chemscore.Hbond.Weighted>
-17.4515

> <Gold.Chemscore.Metal.Weighted>
-0.0000

> <Gold.Chemscore.Lipo.Weighted>
-3.0036

> <Gold.Chemscore.Internal_Hbond.Weighted>
0.0000

> <Gold.Chemscore.DEClash.Weighted>
0.2676

> <Gold.Chemscore.DEInternal.Weighted>
1.0435

> <Gold.Chemscore.Rot.Weighted>
10.3431

> <Gold.Chemscore.Internal.Correction.Weighted>
   9.000000E+99

> <Gold.Protein.RotatedTorsions>
[ 6907 6896 6895 6894 ] final  134.23 input  -60.11 | X-H torsion
[ 7974 7965 7964 7962 ] final    3.15 input  175.53 | X-H torsion
[ 8008 7997 7996 7995 ] final   22.25 input   59.86 | X-H torsion
[ 10167 10162 10161 10158 ] final  160.95 input  -65.29 | X-H torsion
[ 10718 10713 10712 10709 ] final   43.31 input   66.30 | X-H torsion
[ 10763 10752 10751 10750 ] final  -89.32 input  -60.55 | X-H torsion
[ 11005 11000 10999 10996 ] final   74.59 input  -57.11 | X-H torsion

> <Gold.Protein.ActiveResidues>
 VAL166  LYS551  ARG553  GLY616  TRP617  ASP618  TYR619  PRO620  LYS621  CYS622 
 ASP623  PHE694  ASN695  SER759  ASP760  ASP761  ALA762  ILE779  LEU786  VAL792 
 PHE793  MET794  SER795  GLU796  ALA797  LYS798  CYS799  TRP800  GLU811  SER814 

> <Gold.Protein.RotatedAtoms>
  152.3135  133.5777  159.5696 H   0  0  0  0  0  0  0  0  0  0  0  0  # atno 6907 bound_to 6896
  150.7334  134.0117  159.3681 H   0  0  0  0  0  0  0  0  0  0  0  0  # atno 6908 bound_to 6896
  151.8008  135.0710  160.0451 H   0  0  0  0  0  0  0  0  0  0  0  0  # atno 6909 bound_to 6896
  146.2445  140.0729  142.8361 H   0  0  0  0  0  0  0  0  0  0  0  0  # atno 7974 bound_to 7965
  154.9629  140.3080  155.5022 H   0  0  0  0  0  0  0  0  0  0  0  0  # atno 8008 bound_to 7997
  156.2975  140.2298  156.4654 H   0  0  0  0  0  0  0  0  0  0  0  0  # atno 8009 bound_to 7997
  154.7948  140.0437  157.1217 H   0  0  0  0  0  0  0  0  0  0  0  0  # atno 8010 bound_to 7997
  139.4844  144.4584  151.8737 H   0  0  0  0  0  0  0  0  0  0  0  0  # atno 10167 bound_to 10162
  157.4145  130.7933  149.7460 H   0  0  0  0  0  0  0  0  0  0  0  0  # atno 10718 bound_to 10713
  154.6540  135.5345  153.7937 H   0  0  0  0  0  0  0  0  0  0  0  0  # atno 10763 bound_to 10752
  153.0403  135.6489  154.0973 H   0  0  0  0  0  0  0  0  0  0  0  0  # atno 10764 bound_to 10752
  154.0888  135.2941  155.3256 H   0  0  0  0  0  0  0  0  0  0  0  0  # atno 10765 bound_to 10752
  139.9384  134.7446  156.1166 H   0  0  0  0  0  0  0  0  0  0  0  0  # atno 11005 bound_to 11000
  145.0801  140.9215  143.4831 LP  0  0  0  0  0  0  0  0  0  0  0  0  # atno 17320 bound_to 7965
  145.0880  139.2911  143.5750 LP  0  0  0  0  0  0  0  0  0  0  0  0  # atno 17321 bound_to 7965
  140.4045  144.2449  150.5891 LP  0  0  0  0  0  0  0  0  0  0  0  0  # atno 17342 bound_to 10162
  140.5025  143.2314  151.8657 LP  0  0  0  0  0  0  0  0  0  0  0  0  # atno 17343 bound_to 10162
  155.9861  130.3978  150.3230 LP  0  0  0  0  0  0  0  0  0  0  0  0  # atno 17370 bound_to 10713
  157.1372  131.0287  151.2944 LP  0  0  0  0  0  0  0  0  0  0  0  0  # atno 17371 bound_to 10713
  141.1008  133.6678  156.2749 LP  0  0  0  0  0  0  0  0  0  0  0  0  # atno 17394 bound_to 11000
  140.6016  134.5549  157.5518 LP  0  0  0  0  0  0  0  0  0  0  0  0  # atno 17395 bound_to 11000

$$$$
