AV-unprocessed.smi:1222|AV-procd|sdf|5125|dock1
  -GOLD-   22720 4183D 1   1.00000     0.00000
 Structure written by MMmdl.
 35 37  0  0  0  0  0  0  0  0  2 V2000
  150.6607  140.5127  154.9004 O   0  0  0  0  0  0  0  0  0  0  0  0
  149.8842  141.4698  154.9392 C   0  0  0  0  0  0  0  0  0  0  0  0
  148.7964  141.6477  154.1548 N   0  5  0  0  0  0  0  0  0  0  0  0
  147.6145  141.9657  154.7075 C   0  0  0  0  0  0  0  0  0  0  0  0
  147.3555  141.8228  156.0125 N   0  0  0  0  0  0  0  0  0  0  0  0
  146.0655  142.2202  156.3692 C   0  0  0  0  0  0  0  0  0  0  0  0
  145.3284  142.6863  155.3131 C   0  0  0  0  0  0  0  0  0  0  0  0
  146.2375  142.6380  153.8296 S   0  0  0  0  0  0  0  0  0  0  0  0
  150.0813  142.4644  155.8174 N   0  0  0  0  0  0  0  0  0  0  0  0
  151.1649  142.5671  156.7929 C   0  0  0  0  0  0  0  0  0  0  0  0
  151.0735  141.4212  157.8126 C   0  0  0  0  0  0  0  0  0  0  0  0
  152.1131  141.5981  158.9335 C   0  0  0  0  0  0  0  0  0  0  0  0
  151.9186  142.8810  159.6107 N   0  0  0  0  0  0  0  0  0  0  0  0
  152.8946  142.9981  160.6818 C   0  0  0  0  0  0  0  0  0  0  0  0
  152.6078  142.2657  161.9727 C   0  0  0  0  0  0  0  0  0  0  0  0
  152.4887  143.7697  161.9168 C   0  0  0  0  0  0  0  0  0  0  0  0
  152.1220  143.9793  158.6650 C   0  0  0  0  0  0  0  0  0  0  0  0
  151.0812  143.9102  157.5336 C   0  0  0  0  0  0  0  0  0  0  0  0
  145.7558  142.1374  157.4003 H   0  0  0  0  0  0  0  0  0  0  0  0
  144.3133  143.0535  155.3164 H   0  0  0  0  0  0  0  0  0  0  0  0
  149.4141  143.2219  155.8047 H   0  0  0  0  0  0  0  0  0  0  0  0
  152.1376  142.5132  156.3009 H   0  0  0  0  0  0  0  0  0  0  0  0
  150.0735  141.3857  158.2481 H   0  0  0  0  0  0  0  0  0  0  0  0
  151.2279  140.4643  157.3131 H   0  0  0  0  0  0  0  0  0  0  0  0
  152.0109  140.7865  159.6550 H   0  0  0  0  0  0  0  0  0  0  0  0
  153.1229  141.5373  158.5245 H   0  0  0  0  0  0  0  0  0  0  0  0
  153.9481  143.0729  160.4163 H   0  0  0  0  0  0  0  0  0  0  0  0
  151.6851  141.6921  162.0401 H   0  0  0  0  0  0  0  0  0  0  0  0
  153.4561  141.8486  162.5112 H   0  0  0  0  0  0  0  0  0  0  0  0
  153.2579  144.3541  162.4173 H   0  0  0  0  0  0  0  0  0  0  0  0
  151.4874  144.1955  161.9458 H   0  0  0  0  0  0  0  0  0  0  0  0
  152.0269  144.9318  159.1873 H   0  0  0  0  0  0  0  0  0  0  0  0
  153.1314  143.9393  158.2525 H   0  0  0  0  0  0  0  0  0  0  0  0
  151.2410  144.7317  156.8345 H   0  0  0  0  0  0  0  0  0  0  0  0
  150.0821  144.0474  157.9506 H   0  0  0  0  0  0  0  0  0  0  0  0
  1  2  2  0  0  0  0
  2  3  1  0  0  0  0
  2  9  1  0  0  0  0
  3  4  1  0  0  0  0
  4  8  1  0  0  0  0
  4  5  2  0  0  0  0
  5  6  1  0  0  0  0
  6  7  2  0  0  0  0
  6 19  1  0  0  0  0
  7  8  1  0  0  0  0
  7 20  1  0  0  0  0
  9 10  1  0  0  0  0
  9 21  1  0  0  0  0
 10 18  1  0  0  0  0
 10 11  1  0  0  0  0
 10 22  1  0  0  0  0
 11 12  1  0  0  0  0
 11 23  1  0  0  0  0
 11 24  1  0  0  0  0
 12 13  1  0  0  0  0
 12 25  1  0  0  0  0
 12 26  1  0  0  0  0
 13 14  1  0  0  0  0
 13 17  1  0  0  0  0
 14 16  1  0  0  0  0
 14 15  1  0  0  0  0
 14 27  1  0  0  0  0
 15 16  1  0  0  0  0
 15 28  1  0  0  0  0
 15 29  1  0  0  0  0
 16 30  1  0  0  0  0
 16 31  1  0  0  0  0
 17 18  1  0  0  0  0
 17 32  1  0  0  0  0
 17 33  1  0  0  0  0
 18 34  1  0  0  0  0
 18 35  1  0  0  0  0
M  CHG  1   3  -1
M  END
> <s_m_source_file>
AV-unprocessed.smi

> <i_m_source_file_index>
1222

> <i_lp_mmshare_version>
43012

> <i_f3d_flags>
0

> <s_epik_input>
czFbY0hdW2NIXW5jMVtOSF1DKD1PKVtOSF1bQ0hdMltDSDJdW0NIMl1OKFtDSDJdW0NIMl0yKVtDSF0zW0NIMl1bQ0gyXTM=

> <s_epik_cmdline>
J2VwaWtfcHl0aG9uJywgJy1waCcsICc3LjAnLCAnLXRuJywgJzgnLCAnLW1hJywgJzIwMCcsICctbWV0YWxfYmluZGluZycsICctaW1hZScsICc8aW5maWxlLm1hZT4nLCAnLW9tYWUnLCAnPG91dGZpbGUubWFlPic=

> <r_lp_tautomer_probability>
0.999

> <r_epik_Ionization_Penalty>
8.0332

> <r_epik_Ionization_Penalty_Charging>
5.90974

> <r_epik_Ionization_Penalty_Neutral>
2.12346

> <r_epik_State_Penalty>
6.94233

> <r_epik_Charging_Adjusted_Penalty>
12.8521

> <i_epik_Tot_Q>
-1

> <i_epik_Tot_abs_Q>
1

> <r_epik_Metal_State_Penalty>
2.92331

> <b_epik_Metal_Only>
1

> <s_lp_Force_Field>
OPLS_2005

> <r_lp_Energy>
17.9204

> <b_lp_Chiralities_Consistent>
1

> <s_lp_Variant>
AV-unprocessed.smi:1222-6

> <Gold.Version>
5.8.1

> <Gold.Id.Protein>
6NUR|6NUR_protein|mol2

> <Gold.PLP.Fitness>
45.8739

> <Gold.PLP.PLP>
-39.9820

> <Gold.PLP.part.hbond>
-3.0000

> <Gold.PLP.part.metal>
0.0000

> <Gold.PLP.part.buried>
-2.6601

> <Gold.PLP.part.nonpolar>
-33.2285

> <Gold.PLP.part.repulsive>
0.5388

> <Gold.PLP.ligand.clash>
0.0000

> <Gold.PLP.ligand.torsion>
1.0997

> <Gold.PLP.Chemscore.Hbond>
2.2995

> <Gold.PLP.Chemscore.CHOScore>
0.0000

> <Gold.PLP.Chemscore.Metal>
0.0000

> <Gold.Chemscore.Hbonds>
donor molecule, donor type, donor heavy atom, donor atom, acceptor molecule, acceptor atom, score
      L1  H     9    21       P1  8028  1.00
      P1  H  7989  7998       L1     1  1.00
      P1  H  8011  8017       L1     3  0.30

> <Gold.PLP.Chemscore.Internal.Correction>
1.1928

> <Gold.Rescore>
     Score         DG    S(hbond)    S(metal)    S(lipo)     H(rot)  DE(clash)    DE(int)     intcor
     16.80     -18.07       1.26        0.00      98.54       1.23       0.18       1.08       ----

> <Gold.Chemscore.Fitness>
16.8039

> <Gold.Chemscore.DG>
-18.0667

> <Gold.Chemscore.ZeroCoef>
-5.4800

> <Gold.Chemscore.Hbond>
1.2600

> <Gold.Chemscore.Metal>
0.0000

> <Gold.Chemscore.Lipo>
98.5392

> <Gold.Chemscore.Internal_Hbond>
0.0000

> <Gold.Chemscore.DEClash>
0.1782

> <Gold.Chemscore.DEInternal>
1.0846

> <Gold.Chemscore.Rot>
1.2308

> <Gold.Chemscore.Internal.Correction>
   9.000000E+99

> <Gold.Chemscore.Hbonds>
donor molecule, donor type, donor heavy atom, donor atom, acceptor molecule, acceptor atom, score
      L1  H     9    21       P1  8028  0.97
      P1  H  7989  7998       L1     1  0.33
      P1  H  8011  8017       L1     3  0.07

> <Gold.Chemscore.Hbond.Weighted>
-4.2084

> <Gold.Chemscore.Metal.Weighted>
-0.0000

> <Gold.Chemscore.Lipo.Weighted>
-11.5291

> <Gold.Chemscore.Internal_Hbond.Weighted>
0.0000

> <Gold.Chemscore.DEClash.Weighted>
0.1782

> <Gold.Chemscore.DEInternal.Weighted>
1.0846

> <Gold.Chemscore.Rot.Weighted>
3.1508

> <Gold.Chemscore.Internal.Correction.Weighted>
   9.000000E+99

> <Gold.Protein.RotatedTorsions>
[ 6907 6896 6895 6894 ] final -159.77 input  -60.11 | X-H torsion
[ 7974 7965 7964 7962 ] final  -88.55 input  175.53 | X-H torsion
[ 8008 7997 7996 7995 ] final -140.91 input   59.86 | X-H torsion
[ 10167 10162 10161 10158 ] final -133.29 input  -65.29 | X-H torsion
[ 10718 10713 10712 10709 ] final   65.36 input   66.30 | X-H torsion
[ 10763 10752 10751 10750 ] final  -86.07 input  -60.55 | X-H torsion
[ 11005 11000 10999 10996 ] final   11.11 input  -57.11 | X-H torsion

> <Gold.Protein.ActiveResidues>
 VAL166  LYS551  ARG553  GLY616  TRP617  ASP618  TYR619  PRO620  LYS621  CYS622 
 ASP623  PHE694  ASN695  SER759  ASP760  ASP761  ALA762  ILE779  LEU786  VAL792 
 PHE793  MET794  SER795  GLU796  ALA797  LYS798  CYS799  TRP800  GLU811  SER814 

> <Gold.Protein.RotatedAtoms>
  151.3388  133.3971  159.2668 H   0  0  0  0  0  0  0  0  0  0  0  0  # atno 6907 bound_to 6896
  150.9895  134.9234  159.7901 H   0  0  0  0  0  0  0  0  0  0  0  0  # atno 6908 bound_to 6896
  152.5243  134.3353  159.9250 H   0  0  0  0  0  0  0  0  0  0  0  0  # atno 6909 bound_to 6896
  145.4517  140.9560  143.2018 H   0  0  0  0  0  0  0  0  0  0  0  0  # atno 7974 bound_to 7965
  155.4691  140.0551  157.2982 H   0  0  0  0  0  0  0  0  0  0  0  0  # atno 8008 bound_to 7997
  154.4706  140.2038  155.9959 H   0  0  0  0  0  0  0  0  0  0  0  0  # atno 8009 bound_to 7997
  156.1049  140.3213  155.7997 H   0  0  0  0  0  0  0  0  0  0  0  0  # atno 8010 bound_to 7997
  139.8998  143.6622  152.2597 H   0  0  0  0  0  0  0  0  0  0  0  0  # atno 10167 bound_to 10162
  157.6100  130.9210  149.9967 H   0  0  0  0  0  0  0  0  0  0  0  0  # atno 10718 bound_to 10713
  154.6183  135.5462  153.7547 H   0  0  0  0  0  0  0  0  0  0  0  0  # atno 10763 bound_to 10752
  153.0226  135.6406  154.1478 H   0  0  0  0  0  0  0  0  0  0  0  0  # atno 10764 bound_to 10752
  154.1413  135.2908  155.3140 H   0  0  0  0  0  0  0  0  0  0  0  0  # atno 10765 bound_to 10752
  140.5069  134.0691  155.7808 H   0  0  0  0  0  0  0  0  0  0  0  0  # atno 11005 bound_to 11000
  144.8057  139.6055  143.7052 LP  0  0  0  0  0  0  0  0  0  0  0  0  # atno 17320 bound_to 7965
  146.2500  139.6180  142.9433 LP  0  0  0  0  0  0  0  0  0  0  0  0  # atno 17321 bound_to 7965
  139.7036  144.7631  151.1232 LP  0  0  0  0  0  0  0  0  0  0  0  0  # atno 17342 bound_to 10162
  140.7709  143.5425  150.9296 LP  0  0  0  0  0  0  0  0  0  0  0  0  # atno 17343 bound_to 10162
  156.1200  130.3646  149.9903 LP  0  0  0  0  0  0  0  0  0  0  0  0  # atno 17370 bound_to 10713
  156.7985  130.9282  151.3646 LP  0  0  0  0  0  0  0  0  0  0  0  0  # atno 17371 bound_to 10713
  141.1406  133.9144  157.2334 LP  0  0  0  0  0  0  0  0  0  0  0  0  # atno 17394 bound_to 11000
  139.9681  135.0136  156.9441 LP  0  0  0  0  0  0  0  0  0  0  0  0  # atno 17395 bound_to 11000

$$$$
