AV-unprocessed.smi:1662|AV-procd|sdf|6657|dock6
  -GOLD-   22720 7363D 1   1.00000     0.00000
 Structure written by MMmdl.
 47 48  0  0  0  0  0  0  0  0  1 V2000
  143.2819  146.2400  157.0012 C   0  0  0  0  0  0  0  0  0  0  0  0
  143.7475  145.1564  157.9361 C   0  0  0  0  0  0  0  0  0  0  0  0
  144.8280  144.5287  157.6056 N   0  0  0  0  0  0  0  0  0  0  0  0
  145.3407  143.5152  158.3922 N   0  0  0  0  0  0  0  0  0  0  0  0
  146.5604  142.8952  157.8530 C   0  0  0  0  0  0  0  0  0  0  0  0
  147.7818  143.0535  158.7706 C   0  0  0  0  0  0  0  0  0  0  0  0
  147.6711  142.9394  159.9923 O   0  0  0  0  0  0  0  0  0  0  0  0
  148.9490  143.2966  158.1533 N   0  0  0  0  0  0  0  0  0  0  0  0
  150.2422  143.4948  158.8074 C   0  0  2  0  0  0  0  0  0  0  0  0
  150.7193  144.9322  158.5243 C   0  0  0  0  0  0  0  0  0  0  0  0
  152.1086  145.2027  159.1183 C   0  0  0  0  0  0  0  0  0  0  0  0
  153.1334  144.1710  158.6214 C   0  0  0  0  0  0  0  0  0  0  0  0
  152.6908  142.7225  158.9124 C   0  0  1  0  0  0  0  0  0  0  0  0
  152.8159  142.3809  160.4113 C   0  0  0  0  0  0  0  0  0  0  0  0
  151.2831  142.4541  158.3149 C   0  0  1  0  0  0  0  0  0  0  0  0
  150.8294  140.9951  158.5199 C   0  0  0  0  0  0  0  0  0  0  0  0
  144.7917  143.0909  159.5672 C   0  0  0  0  0  0  0  0  0  0  0  0
  145.2895  142.1896  160.2436 O   0  0  0  0  0  0  0  0  0  0  0  0
  143.5670  143.8052  159.9344 C   0  0  0  0  0  0  0  0  0  0  0  0
  142.9557  143.3866  161.1544 C   0  0  0  0  0  0  0  0  0  0  0  0
  142.4763  143.0353  162.1478 N   0  0  0  0  0  0  0  0  0  0  0  0
  143.0493  144.7962  159.1659 C   0  0  0  0  0  0  0  0  0  0  0  0
  141.7807  145.5681  159.5021 C   0  0  0  0  0  0  0  0  0  0  0  0
  143.2300  147.1995  157.5160 H   0  0  0  0  0  0  0  0  0  0  0  0
  142.2910  146.0121  156.6080 H   0  0  0  0  0  0  0  0  0  0  0  0
  143.9543  146.3601  156.1501 H   0  0  0  0  0  0  0  0  0  0  0  0
  146.4002  141.8282  157.6870 H   0  0  0  0  0  0  0  0  0  0  0  0
  146.7858  143.3131  156.8700 H   0  0  0  0  0  0  0  0  0  0  0  0
  148.9404  143.3624  157.1457 H   0  0  0  0  0  0  0  0  0  0  0  0
  150.1281  143.3900  159.8874 H   0  0  0  0  0  0  0  0  0  0  0  0
  150.7519  145.1044  157.4475 H   0  0  0  0  0  0  0  0  0  0  0  0
  150.0038  145.6494  158.9287 H   0  0  0  0  0  0  0  0  0  0  0  0
  152.4357  146.2072  158.8482 H   0  0  0  0  0  0  0  0  0  0  0  0
  152.0541  145.1826  160.2070 H   0  0  0  0  0  0  0  0  0  0  0  0
  153.2684  144.2955  157.5462 H   0  0  0  0  0  0  0  0  0  0  0  0
  154.1073  144.3671  159.0710 H   0  0  0  0  0  0  0  0  0  0  0  0
  153.3942  142.0701  158.3933 H   0  0  0  0  0  0  0  0  0  0  0  0
  152.1120  142.9434  161.0237 H   0  0  0  0  0  0  0  0  0  0  0  0
  153.8183  142.6042  160.7774 H   0  0  0  0  0  0  0  0  0  0  0  0
  152.6413  141.3213  160.5963 H   0  0  0  0  0  0  0  0  0  0  0  0
  151.3795  142.5892  157.2361 H   0  0  0  0  0  0  0  0  0  0  0  0
  150.5740  140.7963  159.5609 H   0  0  0  0  0  0  0  0  0  0  0  0
  151.6119  140.2954  158.2264 H   0  0  0  0  0  0  0  0  0  0  0  0
  149.9506  140.7623  157.9184 H   0  0  0  0  0  0  0  0  0  0  0  0
  141.3233  145.2272  160.4303 H   0  0  0  0  0  0  0  0  0  0  0  0
  141.0398  145.4503  158.7107 H   0  0  0  0  0  0  0  0  0  0  0  0
  141.9982  146.6307  159.6151 H   0  0  0  0  0  0  0  0  0  0  0  0
  1  2  1  0  0  0  0
  1 24  1  0  0  0  0
  1 25  1  0  0  0  0
  1 26  1  0  0  0  0
  2 22  1  0  0  0  0
  2  3  2  0  0  0  0
  3  4  1  0  0  0  0
  4  5  1  0  0  0  0
  4 17  1  0  0  0  0
  5  6  1  0  0  0  0
  5 27  1  0  0  0  0
  5 28  1  0  0  0  0
  6  7  2  0  0  0  0
  6  8  1  0  0  0  0
  8  9  1  0  0  0  0
  8 29  1  0  0  0  0
  9 15  1  0  0  0  0
  9 10  1  0  0  0  0
  9 30  1  0  0  0  0
 10 11  1  0  0  0  0
 10 31  1  0  0  0  0
 10 32  1  0  0  0  0
 11 12  1  0  0  0  0
 11 33  1  0  0  0  0
 11 34  1  0  0  0  0
 12 13  1  0  0  0  0
 12 35  1  0  0  0  0
 12 36  1  0  0  0  0
 13 14  1  0  0  0  0
 13 15  1  0  0  0  0
 13 37  1  0  0  0  0
 14 38  1  0  0  0  0
 14 39  1  0  0  0  0
 14 40  1  0  0  0  0
 15 16  1  0  0  0  0
 15 41  1  0  0  0  0
 16 42  1  0  0  0  0
 16 43  1  0  0  0  0
 16 44  1  0  0  0  0
 17 18  2  0  0  0  0
 17 19  1  0  0  0  0
 19 20  1  0  0  0  0
 19 22  2  0  0  0  0
 20 21  3  0  0  0  0
 22 23  1  0  0  0  0
 23 45  1  0  0  0  0
 23 46  1  0  0  0  0
 23 47  1  0  0  0  0
M  END
> <s_m_source_file>
AV-unprocessed.smi

> <i_m_source_file_index>
1662

> <i_lp_mmshare_version>
43012

> <i_f3d_flags>
0

> <s_epik_input>
TiNDYyhjMVtDSDNdKWMoPU8pbihuYzFbQ0gzXSlbQ0gyXUMoPU8pW05IXVtDQEBIXTJbQ0gyXVtDSDJdW0NIMl1bQ0BASF0oW0NIM10pW0NASF0yW0NIM10=

> <s_epik_cmdline>
J2VwaWtfcHl0aG9uJywgJy1waCcsICc3LjAnLCAnLXRuJywgJzgnLCAnLW1hJywgJzIwMCcsICctbWV0YWxfYmluZGluZycsICctaW1hZScsICc8aW5maWxlLm1hZT4nLCAnLW9tYWUnLCAnPG91dGZpbGUubWFlPic=

> <r_lp_tautomer_probability>
1

> <r_epik_Ionization_Penalty>
1.90709e-08

> <r_epik_Ionization_Penalty_Charging>
2.37982e-11

> <r_epik_Ionization_Penalty_Neutral>
1.90471e-08

> <r_epik_State_Penalty>
-0

> <r_epik_Charging_Adjusted_Penalty>
2.37982e-11

> <i_epik_Tot_Q>
0

> <i_epik_Tot_abs_Q>
0

> <r_epik_Metal_State_Penalty>
-0

> <b_epik_Metal_Only>
0

> <s_lp_Force_Field>
OPLS_2005

> <r_lp_Energy>
29.144

> <b_lp_Chiralities_Consistent>
1

> <s_lp_Variant>
AV-unprocessed.smi:1662-1

> <Gold.Version>
5.8.1

> <Gold.Id.Protein>
6NUR|6NUR_protein|mol2

> <Gold.PLP.Fitness>
44.5530

> <Gold.PLP.PLP>
-37.2717

> <Gold.PLP.part.hbond>
-6.6781

> <Gold.PLP.part.metal>
0.0000

> <Gold.PLP.part.buried>
-4.4490

> <Gold.PLP.part.nonpolar>
-27.6773

> <Gold.PLP.part.repulsive>
0.2590

> <Gold.PLP.ligand.clash>
0.0000

> <Gold.PLP.ligand.torsion>
0.2967

> <Gold.PLP.Chemscore.Hbond>
2.6233

> <Gold.PLP.Chemscore.CHOScore>
0.0000

> <Gold.PLP.Chemscore.Metal>
0.0000

> <Gold.Chemscore.Hbonds>
donor molecule, donor type, donor heavy atom, donor atom, acceptor molecule, acceptor atom, score
      L1  H     8    29       P1  8028  0.80
      P1  H  6933  6944       L1     7  0.83
      P1  H  6934  6946       L1    18  0.73

> <Gold.PLP.Chemscore.Internal.Correction>
0.0049

> <Gold.Rescore>
     Score         DG    S(hbond)    S(metal)    S(lipo)     H(rot)  DE(clash)    DE(int)     intcor
     17.91     -21.31       2.27        0.00     102.15       1.45       0.47       2.92       ----

> <Gold.Chemscore.Fitness>
17.9126

> <Gold.Chemscore.DG>
-21.3066

> <Gold.Chemscore.ZeroCoef>
-5.4800

> <Gold.Chemscore.Hbond>
2.2717

> <Gold.Chemscore.Metal>
0.0000

> <Gold.Chemscore.Lipo>
102.1549

> <Gold.Chemscore.Internal_Hbond>
0.0000

> <Gold.Chemscore.DEClash>
0.4747

> <Gold.Chemscore.DEInternal>
2.9193

> <Gold.Chemscore.Rot>
1.4504

> <Gold.Chemscore.Internal.Correction>
   9.000000E+99

> <Gold.Chemscore.Hbonds>
donor molecule, donor type, donor heavy atom, donor atom, acceptor molecule, acceptor atom, score
      L1  H     8    29       P1  8028  0.42
      P1  H  6933  6944       L1     7  0.83
      P1  H  6934  6946       L1    18  0.73

> <Gold.Chemscore.Hbond.Weighted>
-7.5874

> <Gold.Chemscore.Metal.Weighted>
-0.0000

> <Gold.Chemscore.Lipo.Weighted>
-11.9521

> <Gold.Chemscore.Internal_Hbond.Weighted>
0.0000

> <Gold.Chemscore.DEClash.Weighted>
0.4747

> <Gold.Chemscore.DEInternal.Weighted>
2.9193

> <Gold.Chemscore.Rot.Weighted>
3.7129

> <Gold.Chemscore.Internal.Correction.Weighted>
   9.000000E+99

> <Gold.Protein.RotatedTorsions>
[ 6907 6896 6895 6894 ] final   77.45 input  -60.11 | X-H torsion
[ 7974 7965 7964 7962 ] final  -55.04 input  175.53 | X-H torsion
[ 8008 7997 7996 7995 ] final  -12.47 input   59.86 | X-H torsion
[ 10167 10162 10161 10158 ] final  115.91 input  -65.29 | X-H torsion
[ 10718 10713 10712 10709 ] final -153.99 input   66.30 | X-H torsion
[ 10763 10752 10751 10750 ] final -159.77 input  -60.55 | X-H torsion
[ 11005 11000 10999 10996 ] final   87.04 input  -57.11 | X-H torsion

> <Gold.Protein.ActiveResidues>
 VAL166  LYS551  ARG553  GLY616  TRP617  ASP618  TYR619  PRO620  LYS621  CYS622 
 ASP623  PHE694  ASN695  SER759  ASP760  ASP761  ALA762  ILE779  LEU786  VAL792 
 PHE793  MET794  SER795  GLU796  ALA797  LYS798  CYS799  TRP800  GLU811  SER814 

> <Gold.Protein.RotatedAtoms>
  152.5118  134.3815  159.9352 H   0  0  0  0  0  0  0  0  0  0  0  0  # atno 6907 bound_to 6896
  151.3772  133.3828  159.2714 H   0  0  0  0  0  0  0  0  0  0  0  0  # atno 6908 bound_to 6896
  150.9532  134.8950  159.7744 H   0  0  0  0  0  0  0  0  0  0  0  0  # atno 6909 bound_to 6896
  145.8787  140.8161  142.9851 H   0  0  0  0  0  0  0  0  0  0  0  0  # atno 7974 bound_to 7965
  154.5374  140.2275  155.8699 H   0  0  0  0  0  0  0  0  0  0  0  0  # atno 8008 bound_to 7997
  156.1825  140.3097  155.9138 H   0  0  0  0  0  0  0  0  0  0  0  0  # atno 8009 bound_to 7997
  155.3326  140.0446  157.3033 H   0  0  0  0  0  0  0  0  0  0  0  0  # atno 8010 bound_to 7997
  139.6284  144.7111  151.2484 H   0  0  0  0  0  0  0  0  0  0  0  0  # atno 10167 bound_to 10162
  156.4932  130.8357  151.2579 H   0  0  0  0  0  0  0  0  0  0  0  0  # atno 10718 bound_to 10713
  154.7447  135.3077  154.8666 H   0  0  0  0  0  0  0  0  0  0  0  0  # atno 10763 bound_to 10752
  153.9470  135.6768  153.4748 H   0  0  0  0  0  0  0  0  0  0  0  0  # atno 10764 bound_to 10752
  153.1044  135.4896  154.8850 H   0  0  0  0  0  0  0  0  0  0  0  0  # atno 10765 bound_to 10752
  139.8929  134.8396  156.2805 H   0  0  0  0  0  0  0  0  0  0  0  0  # atno 11005 bound_to 11000
  144.6727  140.1350  143.7441 LP  0  0  0  0  0  0  0  0  0  0  0  0  # atno 17320 bound_to 7965
  145.9049  139.2452  143.1471 LP  0  0  0  0  0  0  0  0  0  0  0  0  # atno 17321 bound_to 7965
  140.7425  143.6525  150.8236 LP  0  0  0  0  0  0  0  0  0  0  0  0  # atno 17342 bound_to 10162
  140.0146  143.5606  152.2825 LP  0  0  0  0  0  0  0  0  0  0  0  0  # atno 17343 bound_to 10162
  157.7471  131.0006  150.2933 LP  0  0  0  0  0  0  0  0  0  0  0  0  # atno 17370 bound_to 10713
  156.3405  130.3814  149.7413 LP  0  0  0  0  0  0  0  0  0  0  0  0  # atno 17371 bound_to 10713
  141.0042  133.7133  156.1008 LP  0  0  0  0  0  0  0  0  0  0  0  0  # atno 17394 bound_to 11000
  140.7457  134.4101  157.5548 LP  0  0  0  0  0  0  0  0  0  0  0  0  # atno 17395 bound_to 11000

$$$$
