AV-unprocessed.smi:1447|AV-procd|sdf|5893|dock9
  -GOLD-   22720 5573D 1   1.00000     0.00000
 Structure written by MMmdl.
 47 49  0  0  0  0  0  0  0  0  1 V2000
  144.6258  132.7166  151.6604 C   0  0  0  0  0  0  0  0  0  0  0  0
  145.4114  133.8626  151.3856 O   0  0  0  0  0  0  0  0  0  0  0  0
  146.4235  134.0761  152.3573 C   0  0  0  0  0  0  0  0  0  0  0  0
  147.4064  132.8855  152.3562 C   0  0  0  0  0  0  0  0  0  0  0  0
  148.6929  133.1108  153.0443 N   0  0  0  0  0  0  0  0  0  0  0  0
  148.8955  134.3789  153.5686 N   0  0  0  0  0  0  0  0  0  0  0  0
  149.9995  134.6715  154.1745 C   0  0  0  0  0  0  0  0  0  0  0  0
  150.2500  136.0317  154.7253 C   0  0  0  0  0  0  0  0  0  0  0  0
  151.0014  136.2190  155.6838 O   0  0  0  0  0  0  0  0  0  0  0  0
  149.6010  137.0297  154.0982 N   0  0  0  0  0  0  0  0  0  0  0  0
  149.6960  138.4467  154.4312 C   0  0  0  0  0  0  0  0  0  0  0  0
  151.1644  138.8841  154.5751 C   0  0  0  0  0  0  0  0  0  0  0  0
  151.2599  140.3358  155.0763 C   0  0  0  0  0  0  0  0  0  0  0  0
  150.5725  140.4760  156.3604 N   0  0  0  0  0  0  0  0  0  0  0  0
  150.7191  141.8467  156.8223 C   0  0  0  0  0  0  0  0  0  0  0  0
  151.1410  142.0592  158.2583 C   0  0  0  0  0  0  0  0  0  0  0  0
  149.7212  142.3533  157.8387 C   0  0  0  0  0  0  0  0  0  0  0  0
  149.1488  140.1810  156.1965 C   0  0  0  0  0  0  0  0  0  0  0  0
  148.9563  138.7210  155.7502 C   0  0  0  0  0  0  0  0  0  0  0  0
  151.0439  133.6755  154.3359 C   0  0  0  0  0  0  0  0  0  0  0  0
  150.8300  132.4381  153.8371 C   0  0  0  0  0  0  0  0  0  0  0  0
  149.5894  132.0834  153.1444 C   0  0  0  0  0  0  0  0  0  0  0  0
  149.3705  130.9594  152.6935 O   0  0  0  0  0  0  0  0  0  0  0  0
  143.8777  132.5897  150.8780 H   0  0  0  0  0  0  0  0  0  0  0  0
  144.1018  132.8189  152.6119 H   0  0  0  0  0  0  0  0  0  0  0  0
  145.2389  131.8149  151.6912 H   0  0  0  0  0  0  0  0  0  0  0  0
  146.9489  135.0165  152.1808 H   0  0  0  0  0  0  0  0  0  0  0  0
  145.9590  134.1585  153.3411 H   0  0  0  0  0  0  0  0  0  0  0  0
  146.9183  132.0315  152.8285 H   0  0  0  0  0  0  0  0  0  0  0  0
  147.5936  132.5984  151.3199 H   0  0  0  0  0  0  0  0  0  0  0  0
  149.0026  136.7846  153.3223 H   0  0  0  0  0  0  0  0  0  0  0  0
  149.2228  139.0344  153.6422 H   0  0  0  0  0  0  0  0  0  0  0  0
  151.6855  138.2251  155.2714 H   0  0  0  0  0  0  0  0  0  0  0  0
  151.6802  138.7934  153.6185 H   0  0  0  0  0  0  0  0  0  0  0  0
  152.3089  140.6110  155.1929 H   0  0  0  0  0  0  0  0  0  0  0  0
  150.8298  141.0185  154.3415 H   0  0  0  0  0  0  0  0  0  0  0  0
  151.0819  142.5945  156.1186 H   0  0  0  0  0  0  0  0  0  0  0  0
  151.3076  141.1796  158.8774 H   0  0  0  0  0  0  0  0  0  0  0  0
  151.7886  142.9075  158.4705 H   0  0  0  0  0  0  0  0  0  0  0  0
  149.4225  143.3973  157.7695 H   0  0  0  0  0  0  0  0  0  0  0  0
  148.9467  141.6689  158.1795 H   0  0  0  0  0  0  0  0  0  0  0  0
  148.6323  140.3417  157.1436 H   0  0  0  0  0  0  0  0  0  0  0  0
  148.7029  140.8618  155.4693 H   0  0  0  0  0  0  0  0  0  0  0  0
  147.8931  138.5082  155.6344 H   0  0  0  0  0  0  0  0  0  0  0  0
  149.3222  138.0531  156.5320 H   0  0  0  0  0  0  0  0  0  0  0  0
  151.9693  133.9101  154.8417 H   0  0  0  0  0  0  0  0  0  0  0  0
  151.5970  131.6863  153.9508 H   0  0  0  0  0  0  0  0  0  0  0  0
  1  2  1  0  0  0  0
  1 24  1  0  0  0  0
  1 25  1  0  0  0  0
  1 26  1  0  0  0  0
  2  3  1  0  0  0  0
  3  4  1  0  0  0  0
  3 27  1  0  0  0  0
  3 28  1  0  0  0  0
  4  5  1  0  0  0  0
  4 29  1  0  0  0  0
  4 30  1  0  0  0  0
  5 22  1  0  0  0  0
  5  6  1  0  0  0  0
  6  7  2  0  0  0  0
  7  8  1  0  0  0  0
  7 20  1  0  0  0  0
  8  9  2  0  0  0  0
  8 10  1  0  0  0  0
 10 11  1  0  0  0  0
 10 31  1  0  0  0  0
 11 19  1  0  0  0  0
 11 12  1  0  0  0  0
 11 32  1  0  0  0  0
 12 13  1  0  0  0  0
 12 33  1  0  0  0  0
 12 34  1  0  0  0  0
 13 14  1  0  0  0  0
 13 35  1  0  0  0  0
 13 36  1  0  0  0  0
 14 15  1  0  0  0  0
 14 18  1  0  0  0  0
 15 17  1  0  0  0  0
 15 16  1  0  0  0  0
 15 37  1  0  0  0  0
 16 17  1  0  0  0  0
 16 38  1  0  0  0  0
 16 39  1  0  0  0  0
 17 40  1  0  0  0  0
 17 41  1  0  0  0  0
 18 19  1  0  0  0  0
 18 42  1  0  0  0  0
 18 43  1  0  0  0  0
 19 44  1  0  0  0  0
 19 45  1  0  0  0  0
 20 21  2  0  0  0  0
 20 46  1  0  0  0  0
 21 22  1  0  0  0  0
 21 47  1  0  0  0  0
 22 23  2  0  0  0  0
M  END
> <s_m_source_file>
AV-unprocessed.smi

> <i_m_source_file_index>
1447

> <i_lp_mmshare_version>
43012

> <i_f3d_flags>
0

> <s_epik_input>
W0NIM11PW0NIMl1bQ0gyXW4xbmMoW2NIXVtjSF1jMT1PKUMoPU8pW05IXVtDSF0yW0NIMl1bQ0gyXU4oW0NIMl1bQ0gyXTIpW0NIXTNbQ0gyXVtDSDJdMw==

> <s_epik_cmdline>
J2VwaWtfcHl0aG9uJywgJy1waCcsICc3LjAnLCAnLXRuJywgJzgnLCAnLW1hJywgJzIwMCcsICctbWV0YWxfYmluZGluZycsICctaW1hZScsICc8aW5maWxlLm1hZT4nLCAnLW9tYWUnLCAnPG91dGZpbGUubWFlPic=

> <r_lp_tautomer_probability>
1

> <r_epik_Ionization_Penalty>
0.826878

> <r_epik_Ionization_Penalty_Charging>
6.86753e-09

> <r_epik_Ionization_Penalty_Neutral>
0.826878

> <r_epik_State_Penalty>
0.8604

> <r_epik_Charging_Adjusted_Penalty>
0.8604

> <i_epik_Tot_Q>
0

> <i_epik_Tot_abs_Q>
0

> <r_epik_Metal_State_Penalty>
0.8604

> <b_epik_Metal_Only>
0

> <s_lp_Force_Field>
OPLS_2005

> <r_lp_Energy>
44.3131

> <b_lp_Chiralities_Consistent>
1

> <s_lp_Variant>
AV-unprocessed.smi:1447-3

> <Gold.Version>
5.8.1

> <Gold.Id.Protein>
6NUR|6NUR_protein|mol2

> <Gold.PLP.Fitness>
38.5031

> <Gold.PLP.PLP>
-37.0830

> <Gold.PLP.part.hbond>
-1.9804

> <Gold.PLP.part.metal>
0.0000

> <Gold.PLP.part.buried>
-4.6848

> <Gold.PLP.part.nonpolar>
-31.3343

> <Gold.PLP.part.repulsive>
0.5122

> <Gold.PLP.ligand.clash>
0.0000

> <Gold.PLP.ligand.torsion>
1.3922

> <Gold.PLP.Chemscore.Hbond>
1.0000

> <Gold.PLP.Chemscore.CHOScore>
0.0000

> <Gold.PLP.Chemscore.Metal>
0.0000

> <Gold.Chemscore.Hbonds>
donor molecule, donor type, donor heavy atom, donor atom, acceptor molecule, acceptor atom, score
      L1  H    10    31       P1  7948  0.88

> <Gold.PLP.Chemscore.Internal.Correction>
1.2045

> <Gold.Rescore>
     Score         DG    S(hbond)    S(metal)    S(lipo)     H(rot)  DE(clash)    DE(int)     intcor
     10.42     -13.10       0.84        0.00      78.69       1.71       0.02       2.66       ----

> <Gold.Chemscore.Fitness>
10.4205

> <Gold.Chemscore.DG>
-13.0972

> <Gold.Chemscore.ZeroCoef>
-5.4800

> <Gold.Chemscore.Hbond>
0.8379

> <Gold.Chemscore.Metal>
0.0000

> <Gold.Chemscore.Lipo>
78.6950

> <Gold.Chemscore.Internal_Hbond>
0.0000

> <Gold.Chemscore.DEClash>
0.0174

> <Gold.Chemscore.DEInternal>
2.6592

> <Gold.Chemscore.Rot>
1.7143

> <Gold.Chemscore.Internal.Correction>
   9.000000E+99

> <Gold.Chemscore.Hbonds>
donor molecule, donor type, donor heavy atom, donor atom, acceptor molecule, acceptor atom, score
      L1  H    10    31       P1  7948  0.82

> <Gold.Chemscore.Hbond.Weighted>
-2.7985

> <Gold.Chemscore.Metal.Weighted>
-0.0000

> <Gold.Chemscore.Lipo.Weighted>
-9.2073

> <Gold.Chemscore.Internal_Hbond.Weighted>
0.0000

> <Gold.Chemscore.DEClash.Weighted>
0.0174

> <Gold.Chemscore.DEInternal.Weighted>
2.6592

> <Gold.Chemscore.Rot.Weighted>
4.3887

> <Gold.Chemscore.Internal.Correction.Weighted>
   9.000000E+99

> <Gold.Protein.RotatedTorsions>
[ 6907 6896 6895 6894 ] final  126.81 input  -60.11 | X-H torsion
[ 7974 7965 7964 7962 ] final  170.01 input  175.53 | X-H torsion
[ 8008 7997 7996 7995 ] final  -70.91 input   59.86 | X-H torsion
[ 10167 10162 10161 10158 ] final  -61.76 input  -65.29 | X-H torsion
[ 10718 10713 10712 10709 ] final  108.80 input   66.30 | X-H torsion
[ 10763 10752 10751 10750 ] final   30.34 input  -60.55 | X-H torsion
[ 11005 11000 10999 10996 ] final -154.07 input  -57.11 | X-H torsion

> <Gold.Protein.ActiveResidues>
 VAL166  LYS551  ARG553  GLY616  TRP617  ASP618  TYR619  PRO620  LYS621  CYS622 
 ASP623  PHE694  ASN695  SER759  ASP760  ASP761  ALA762  ILE779  LEU786  VAL792 
 PHE793  MET794  SER795  GLU796  ALA797  LYS798  CYS799  TRP800  GLU811  SER814 

> <Gold.Protein.RotatedAtoms>
  152.3870  133.6625  159.6206 H   0  0  0  0  0  0  0  0  0  0  0  0  # atno 6907 bound_to 6896
  150.7787  133.9018  159.3352 H   0  0  0  0  0  0  0  0  0  0  0  0  # atno 6908 bound_to 6896
  151.6813  135.0962  160.0268 H   0  0  0  0  0  0  0  0  0  0  0  0  # atno 6909 bound_to 6896
  144.7337  139.9139  143.6416 H   0  0  0  0  0  0  0  0  0  0  0  0  # atno 7974 bound_to 7965
  154.5048  140.0825  156.7871 H   0  0  0  0  0  0  0  0  0  0  0  0  # atno 8008 bound_to 7997
  155.3920  140.3433  155.4234 H   0  0  0  0  0  0  0  0  0  0  0  0  # atno 8009 bound_to 7997
  156.1501  140.1556  156.8771 H   0  0  0  0  0  0  0  0  0  0  0  0  # atno 8010 bound_to 7997
  140.5985  143.2356  151.5983 H   0  0  0  0  0  0  0  0  0  0  0  0  # atno 10167 bound_to 10162
  157.6570  131.0901  150.6359 H   0  0  0  0  0  0  0  0  0  0  0  0  # atno 10718 bound_to 10713
  153.0377  135.6466  154.1030 H   0  0  0  0  0  0  0  0  0  0  0  0  # atno 10763 bound_to 10752
  154.0742  135.2878  155.3304 H   0  0  0  0  0  0  0  0  0  0  0  0  # atno 10764 bound_to 10752
  154.6574  135.5404  153.8040 H   0  0  0  0  0  0  0  0  0  0  0  0  # atno 10765 bound_to 10752
  140.7013  134.3934  157.5209 H   0  0  0  0  0  0  0  0  0  0  0  0  # atno 11005 bound_to 11000
  146.0980  139.3974  143.0364 LP  0  0  0  0  0  0  0  0  0  0  0  0  # atno 17320 bound_to 7965
  145.7618  140.9932  143.1196 LP  0  0  0  0  0  0  0  0  0  0  0  0  # atno 17321 bound_to 7965
  139.5274  144.3017  152.1068 LP  0  0  0  0  0  0  0  0  0  0  0  0  # atno 17342 bound_to 10162
  140.2193  144.4482  150.6349 LP  0  0  0  0  0  0  0  0  0  0  0  0  # atno 17343 bound_to 10162
  156.6665  130.4527  149.5671 LP  0  0  0  0  0  0  0  0  0  0  0  0  # atno 17370 bound_to 10713
  156.2029  130.6631  151.1186 LP  0  0  0  0  0  0  0  0  0  0  0  0  # atno 17371 bound_to 10713
  139.8896  134.8826  156.2412 LP  0  0  0  0  0  0  0  0  0  0  0  0  # atno 17394 bound_to 11000
  141.0161  133.7067  156.1192 LP  0  0  0  0  0  0  0  0  0  0  0  0  # atno 17395 bound_to 11000

$$$$
