AV-unprocessed.smi:560|AV-procd|sdf|2934|dock3
  -GOLD-   2262023433D 1   1.00000     0.00000
 Structure written by MMmdl.
 41 42  0  0  0  0  0  0  0  0  3 V2000
  152.6091  139.7598  159.0443 C   0  0  0  0  0  0  0  0  0  0  0  0
  151.6350  140.4523  158.0696 C   0  0  2  0  0  0  0  0  0  0  0  0
  151.7495  139.9214  156.6313 C   0  0  0  0  0  0  0  0  0  0  0  0
  152.8486  139.6704  156.1359 O   0  0  0  0  0  0  0  0  0  0  0  0
  150.5933  139.7483  155.9710 N   0  0  0  0  0  0  0  0  0  0  0  0
  150.4652  139.2670  154.5966 C   0  0  2  0  0  0  0  0  0  0  0  0
  148.9820  139.1367  154.2106 C   0  0  0  0  0  0  0  0  0  0  0  0
  148.2975  137.9621  154.9338 C   0  0  0  0  0  0  0  0  0  0  0  0
  149.0186  136.6860  154.6959 N   0  3  2  0  0  0  0  0  0  0  0  0
  148.3032  135.5211  155.2737 C   0  0  0  0  0  0  0  0  0  0  0  0
  148.9223  134.2143  154.7666 C   0  0  0  0  0  0  0  0  0  0  0  0
  148.6121  133.9617  153.4806 N   0  5  0  0  0  0  0  0  0  0  0  0
  149.6001  133.5284  155.5294 O   0  0  0  0  0  0  0  0  0  0  0  0
  150.4414  136.7700  155.1229 C   0  0  0  0  0  0  0  0  0  0  0  0
  151.1724  137.9124  154.3964 C   0  0  0  0  0  0  0  0  0  0  0  0
  151.7775  141.9038  158.0920 N   0  0  0  0  0  0  0  0  0  0  0  0
  152.6115  142.6627  158.8882 C   0  0  0  0  0  0  0  0  0  0  0  0
  152.3851  143.9751  158.5873 C   0  0  0  0  0  0  0  0  0  0  0  0
  151.3743  143.9230  157.5877 C   0  0  0  0  0  0  0  0  0  0  0  0
  151.0075  142.6852  157.2993 N   0  0  0  0  0  0  0  0  0  0  0  0
  152.4514  138.6809  159.0582 H   0  0  0  0  0  0  0  0  0  0  0  0
  152.4631  140.1233  160.0618 H   0  0  0  0  0  0  0  0  0  0  0  0
  153.6518  139.9374  158.7777 H   0  0  0  0  0  0  0  0  0  0  0  0
  150.6245  140.2244  158.4125 H   0  0  0  0  0  0  0  0  0  0  0  0
  149.7383  139.9824  156.4540 H   0  0  0  0  0  0  0  0  0  0  0  0
  150.9228  140.0063  153.9366 H   0  0  0  0  0  0  0  0  0  0  0  0
  148.4526  140.0670  154.4210 H   0  0  0  0  0  0  0  0  0  0  0  0
  148.9057  138.9824  153.1333 H   0  0  0  0  0  0  0  0  0  0  0  0
  148.2426  138.1547  156.0064 H   0  0  0  0  0  0  0  0  0  0  0  0
  147.2709  137.8750  154.5761 H   0  0  0  0  0  0  0  0  0  0  0  0
  148.2853  135.5876  156.3640 H   0  0  0  0  0  0  0  0  0  0  0  0
  147.2626  135.5229  154.9464 H   0  0  0  0  0  0  0  0  0  0  0  0
  148.6501  134.7289  152.7989 H   0  0  0  0  0  0  0  0  0  0  0  0
  150.4923  136.9146  156.2032 H   0  0  0  0  0  0  0  0  0  0  0  0
  150.9556  135.8325  154.9100 H   0  0  0  0  0  0  0  0  0  0  0  0
  151.2135  137.6854  153.3302 H   0  0  0  0  0  0  0  0  0  0  0  0
  152.2090  137.9652  154.7308 H   0  0  0  0  0  0  0  0  0  0  0  0
  153.2908  142.2104  159.5955 H   0  0  0  0  0  0  0  0  0  0  0  0
  152.8663  144.8412  159.0168 H   0  0  0  0  0  0  0  0  0  0  0  0
  150.8971  144.7418  157.0697 H   0  0  0  0  0  0  0  0  0  0  0  0
  149.0192  136.5393  153.6962 H   0  0  0  0  0  0  0  0  0  0  0  0
  1  2  1  0  0  0  0
  1 21  1  0  0  0  0
  1 22  1  0  0  0  0
  1 23  1  0  0  0  0
  2  3  1  0  0  0  0
  2 16  1  0  0  0  0
  2 24  1  0  0  0  0
  3  4  2  0  0  0  0
  3  5  1  0  0  0  0
  5  6  1  0  0  0  0
  5 25  1  0  0  0  0
  6 15  1  0  0  0  0
  6  7  1  0  0  0  0
  6 26  1  0  0  0  0
  7  8  1  0  0  0  0
  7 27  1  0  0  0  0
  7 28  1  0  0  0  0
  8  9  1  0  0  0  0
  8 29  1  0  0  0  0
  8 30  1  0  0  0  0
  9 10  1  0  0  0  0
  9 14  1  0  0  0  0
  9 41  1  0  0  0  0
 10 11  1  0  0  0  0
 10 31  1  0  0  0  0
 10 32  1  0  0  0  0
 11 12  1  0  0  0  0
 11 13  2  0  0  0  0
 12 33  1  0  0  0  0
 14 15  1  0  0  0  0
 14 34  1  0  0  0  0
 14 35  1  0  0  0  0
 15 36  1  0  0  0  0
 15 37  1  0  0  0  0
 16 20  1  0  0  0  0
 16 17  1  0  0  0  0
 17 18  2  0  0  0  0
 17 38  1  0  0  0  0
 18 19  1  0  0  0  0
 18 39  1  0  0  0  0
 19 20  2  0  0  0  0
 19 40  1  0  0  0  0
M  CHG  1   9   1
M  CHG  1  12  -1
M  END
> <s_m_source_file>
AV-unprocessed.smi

> <i_m_source_file_index>
560

> <i_lp_mmshare_version>
43012

> <i_f3d_flags>
0

> <s_epik_input>
bjFbY0hdW2NIXVtjSF1uMVtDQEhdKFtDSDNdKUMoPU8pW05IXVtDSF0yW0NIMl1bQ0gyXU4oW0NIMl1bQ0gyXTIpW0NIMl1DKD1PKVtOSDJd

> <s_epik_cmdline>
J2VwaWtfcHl0aG9uJywgJy1waCcsICc3LjAnLCAnLXRuJywgJzgnLCAnLW1hJywgJzIwMCcsICctbWV0YWxfYmluZGluZycsICctaW1hZScsICc8aW5maWxlLm1hZT4nLCAnLW9tYWUnLCAnPG91dGZpbGUubWFlPic=

> <r_lp_tautomer_probability>
1

> <r_epik_Ionization_Penalty>
5.71084

> <r_epik_Ionization_Penalty_Charging>
5.71081

> <r_epik_Ionization_Penalty_Neutral>
3.04611e-05

> <r_epik_State_Penalty>
6.71277

> <r_epik_Charging_Adjusted_Penalty>
12.4236

> <i_epik_Tot_Q>
0

> <i_epik_Tot_abs_Q>
2

> <r_epik_Metal_State_Penalty>
2.67562

> <b_epik_Metal_Only>
1

> <s_lp_Force_Field>
OPLS_2005

> <r_lp_Energy>
9.92131

> <b_lp_Chiralities_Consistent>
1

> <s_lp_Variant>
AV-unprocessed.smi:560-9

> <Gold.Version>
5.8.1

> <Gold.Id.Protein>
6NUR|6NUR_protein|mol2

> <Gold.PLP.Fitness>
48.8687

> <Gold.PLP.PLP>
-35.5188

> <Gold.PLP.part.hbond>
-3.0000

> <Gold.PLP.part.metal>
0.0000

> <Gold.PLP.part.buried>
-4.4108

> <Gold.PLP.part.nonpolar>
-28.8292

> <Gold.PLP.part.repulsive>
0.1938

> <Gold.PLP.ligand.clash>
0.0000

> <Gold.PLP.ligand.torsion>
0.8989

> <Gold.PLP.Chemscore.Hbond>
4.0000

> <Gold.PLP.Chemscore.CHOScore>
0.9934

> <Gold.PLP.Chemscore.Metal>
0.0000

> <Gold.Chemscore.Hbonds>
donor molecule, donor type, donor heavy atom, donor atom, acceptor molecule, acceptor atom, score
      L1  H     9    41       P1  7948  2.00
      L1  H    12    33       P1  7948  0.90
      P1  H  7997  8009       L1     4  1.00
      L1  C    19    40       P1  8028  1.00

> <Gold.PLP.Chemscore.Internal.Correction>
0.1676

> <Gold.Rescore>
     Score         DG    S(hbond)    S(metal)    S(lipo)     H(rot)  DE(clash)    DE(int)     intcor
     17.65     -18.40       2.94        0.00      80.63       2.47       0.04       0.70       ----

> <Gold.Chemscore.Fitness>
17.6506

> <Gold.Chemscore.DG>
-18.3985

> <Gold.Chemscore.ZeroCoef>
-5.4800

> <Gold.Chemscore.Hbond>
2.9392

> <Gold.Chemscore.Metal>
0.0000

> <Gold.Chemscore.Lipo>
80.6264

> <Gold.Chemscore.Internal_Hbond>
0.0000

> <Gold.Chemscore.DEClash>
0.0434

> <Gold.Chemscore.DEInternal>
0.7045

> <Gold.Chemscore.Rot>
2.4734

> <Gold.Chemscore.Internal.Correction>
   9.000000E+99

> <Gold.Chemscore.Hbonds>
donor molecule, donor type, donor heavy atom, donor atom, acceptor molecule, acceptor atom, score
      L1  H     9    41       P1  7948  1.00
      L1  H    12    33       P1  7948  0.18
      P1  H  7997  8009       L1     4  0.97

> <Gold.Chemscore.Hbond.Weighted>
-9.8170

> <Gold.Chemscore.Metal.Weighted>
-0.0000

> <Gold.Chemscore.Lipo.Weighted>
-9.4333

> <Gold.Chemscore.Internal_Hbond.Weighted>
0.0000

> <Gold.Chemscore.DEClash.Weighted>
0.0434

> <Gold.Chemscore.DEInternal.Weighted>
0.7045

> <Gold.Chemscore.Rot.Weighted>
6.3318

> <Gold.Chemscore.Internal.Correction.Weighted>
   9.000000E+99

> <Gold.Protein.RotatedTorsions>
[ 6907 6896 6895 6894 ] final  -55.71 input  -60.11 | X-H torsion
[ 7974 7965 7964 7962 ] final   67.12 input  175.53 | X-H torsion
[ 8008 7997 7996 7995 ] final -152.46 input   59.86 | X-H torsion
[ 10167 10162 10161 10158 ] final  -21.89 input  -65.29 | X-H torsion
[ 10718 10713 10712 10709 ] final   -1.05 input   66.30 | X-H torsion
[ 10763 10752 10751 10750 ] final   22.85 input  -60.55 | X-H torsion
[ 11005 11000 10999 10996 ] final  169.01 input  -57.11 | X-H torsion

> <Gold.Protein.ActiveResidues>
 VAL166  LYS551  ARG553  GLY616  TRP617  ASP618  TYR619  PRO620  LYS621  CYS622 
 ASP623  PHE694  ASN695  SER759  ASP760  ASP761  ALA762  ILE779  LEU786  VAL792 
 PHE793  MET794  SER795  GLU796  ALA797  LYS798  CYS799  TRP800  GLU811  SER814 

> <Gold.Protein.RotatedAtoms>
  150.8228  134.7444  159.6786 H   0  0  0  0  0  0  0  0  0  0  0  0  # atno 6907 bound_to 6896
  152.4342  134.5715  159.9932 H   0  0  0  0  0  0  0  0  0  0  0  0  # atno 6908 bound_to 6896
  151.5895  133.3331  159.3061 H   0  0  0  0  0  0  0  0  0  0  0  0  # atno 6909 bound_to 6896
  145.8184  139.3071  143.1058 H   0  0  0  0  0  0  0  0  0  0  0  0  # atno 7974 bound_to 7965
  155.6554  140.0716  157.2572 H   0  0  0  0  0  0  0  0  0  0  0  0  # atno 8008 bound_to 7997
  154.4153  140.1726  156.1770 H   0  0  0  0  0  0  0  0  0  0  0  0  # atno 8009 bound_to 7997
  155.9742  140.3359  155.6606 H   0  0  0  0  0  0  0  0  0  0  0  0  # atno 8010 bound_to 7997
  140.7284  143.4585  151.0413 H   0  0  0  0  0  0  0  0  0  0  0  0  # atno 10167 bound_to 10162
  156.8114  130.5426  149.5708 H   0  0  0  0  0  0  0  0  0  0  0  0  # atno 10718 bound_to 10713
  153.0884  135.6639  153.9903 H   0  0  0  0  0  0  0  0  0  0  0  0  # atno 10763 bound_to 10752
  153.9507  135.2984  155.3440 H   0  0  0  0  0  0  0  0  0  0  0  0  # atno 10764 bound_to 10752
  154.7295  135.5129  153.9013 H   0  0  0  0  0  0  0  0  0  0  0  0  # atno 10765 bound_to 10752
  140.2932  134.7656  157.3856 H   0  0  0  0  0  0  0  0  0  0  0  0  # atno 11005 bound_to 11000
  145.9701  140.8767  143.0167 LP  0  0  0  0  0  0  0  0  0  0  0  0  # atno 17320 bound_to 7965
  144.6750  140.1934  143.7394 LP  0  0  0  0  0  0  0  0  0  0  0  0  # atno 17321 bound_to 7965
  139.8268  143.7745  152.3179 LP  0  0  0  0  0  0  0  0  0  0  0  0  # atno 17342 bound_to 10162
  139.7847  144.7432  151.0039 LP  0  0  0  0  0  0  0  0  0  0  0  0  # atno 17343 bound_to 10162
  156.1042  130.5992  150.9944 LP  0  0  0  0  0  0  0  0  0  0  0  0  # atno 17370 bound_to 10713
  157.6504  131.0898  150.8063 LP  0  0  0  0  0  0  0  0  0  0  0  0  # atno 17371 bound_to 10713
  140.1176  134.5262  155.8211 LP  0  0  0  0  0  0  0  0  0  0  0  0  # atno 17394 bound_to 11000
  141.2142  133.6745  156.6806 LP  0  0  0  0  0  0  0  0  0  0  0  0  # atno 17395 bound_to 11000

$$$$
