AV-unprocessed.smi:1807|AV-procd|sdf|7302|dock8
  -GOLD-   22720 8563D 1   1.00000     0.00000
 Structure written by MMmdl.
 44 45  0  0  0  0  0  0  0  0  1 V2000
  148.5913  140.9770  154.1666 C   0  0  0  0  0  0  0  0  0  0  0  0
  149.8303  141.0706  155.0733 C   0  0  1  0  0  0  0  0  0  0  0  0
  149.4395  141.3387  156.5414 C   0  0  0  0  0  0  0  0  0  0  0  0
  150.6794  141.5007  157.4353 C   0  0  0  0  0  0  0  0  0  0  0  0
  151.6073  140.2811  157.3321 C   0  0  0  0  0  0  0  0  0  0  0  0
  152.0001  140.0005  155.8710 C   0  0  0  0  0  0  0  0  0  0  0  0
  150.7699  139.8425  154.9546 C   0  0  1  0  0  0  0  0  0  0  0  0
  150.0766  138.5905  155.2670 N   0  0  0  0  0  0  0  0  0  0  0  0
  150.5562  137.3501  155.0869 C   0  0  0  0  0  0  0  0  0  0  0  0
  151.6731  137.1157  154.6220 O   0  0  0  0  0  0  0  0  0  0  0  0
  149.6187  136.2141  155.5052 C   0  0  0  0  0  0  0  0  0  0  0  0
  149.3049  135.3222  154.3973 N   0  0  0  0  0  0  0  0  0  0  0  0
  149.5715  133.9540  154.5116 C   0  0  0  0  0  0  0  0  0  0  0  0
  149.2854  133.0377  153.4635 C   0  0  0  0  0  0  0  0  0  0  0  0
  149.6948  131.8398  153.9769 C   0  0  0  0  0  0  0  0  0  0  0  0
  150.1841  132.0766  155.2472 N   0  0  0  0  0  0  0  0  0  0  0  0
  150.7392  131.1231  156.1913 C   0  0  0  0  0  0  0  0  0  0  0  0
  152.1296  131.5551  156.6634 C   0  0  0  0  0  0  0  0  0  0  0  0
  153.1557  130.7631  156.3430 N   0  0  0  0  0  0  0  0  0  0  0  0
  152.2776  132.5917  157.3072 O   0  0  0  0  0  0  0  0  0  0  0  0
  150.1042  133.3837  155.5814 N   0  0  0  0  0  0  0  0  0  0  0  0
  147.9214  140.1752  154.4782 H   0  0  0  0  0  0  0  0  0  0  0  0
  148.8773  140.7897  153.1312 H   0  0  0  0  0  0  0  0  0  0  0  0
  148.0216  141.9062  154.1874 H   0  0  0  0  0  0  0  0  0  0  0  0
  150.3984  141.9368  154.7307 H   0  0  0  0  0  0  0  0  0  0  0  0
  148.8278  142.2391  156.6049 H   0  0  0  0  0  0  0  0  0  0  0  0
  148.8214  140.5225  156.9179 H   0  0  0  0  0  0  0  0  0  0  0  0
  151.2245  142.3993  157.1434 H   0  0  0  0  0  0  0  0  0  0  0  0
  150.3738  141.6482  158.4714 H   0  0  0  0  0  0  0  0  0  0  0  0
  152.5034  140.4461  157.9307 H   0  0  0  0  0  0  0  0  0  0  0  0
  151.1119  139.4071  157.7567 H   0  0  0  0  0  0  0  0  0  0  0  0
  152.6141  140.8243  155.5046 H   0  0  0  0  0  0  0  0  0  0  0  0
  152.6280  139.1100  155.8174 H   0  0  0  0  0  0  0  0  0  0  0  0
  151.1402  139.7988  153.9289 H   0  0  0  0  0  0  0  0  0  0  0  0
  149.1485  138.6783  155.6544 H   0  0  0  0  0  0  0  0  0  0  0  0
  150.0906  135.6476  156.3091 H   0  0  0  0  0  0  0  0  0  0  0  0
  148.6940  136.6387  155.8994 H   0  0  0  0  0  0  0  0  0  0  0  0
  148.9765  135.7145  153.5262 H   0  0  0  0  0  0  0  0  0  0  0  0
  148.8532  133.2270  152.4922 H   0  0  0  0  0  0  0  0  0  0  0  0
  149.6822  130.8489  153.5481 H   0  0  0  0  0  0  0  0  0  0  0  0
  150.0753  131.0332  157.0527 H   0  0  0  0  0  0  0  0  0  0  0  0
  150.7786  130.1431  155.7135 H   0  0  0  0  0  0  0  0  0  0  0  0
  154.0926  131.0072  156.6294 H   0  0  0  0  0  0  0  0  0  0  0  0
  152.9893  129.9211  155.8107 H   0  0  0  0  0  0  0  0  0  0  0  0
  1  2  1  0  0  0  0
  1 22  1  0  0  0  0
  1 23  1  0  0  0  0
  1 24  1  0  0  0  0
  2  7  1  0  0  0  0
  2  3  1  0  0  0  0
  2 25  1  0  0  0  0
  3  4  1  0  0  0  0
  3 26  1  0  0  0  0
  3 27  1  0  0  0  0
  4  5  1  0  0  0  0
  4 28  1  0  0  0  0
  4 29  1  0  0  0  0
  5  6  1  0  0  0  0
  5 30  1  0  0  0  0
  5 31  1  0  0  0  0
  6  7  1  0  0  0  0
  6 32  1  0  0  0  0
  6 33  1  0  0  0  0
  7  8  1  0  0  0  0
  7 34  1  0  0  0  0
  8  9  1  0  0  0  0
  8 35  1  0  0  0  0
  9 10  2  0  0  0  0
  9 11  1  0  0  0  0
 11 12  1  0  0  0  0
 11 36  1  0  0  0  0
 11 37  1  0  0  0  0
 12 13  1  0  0  0  0
 12 38  1  0  0  0  0
 13 21  2  0  0  0  0
 13 14  1  0  0  0  0
 14 15  2  0  0  0  0
 14 39  1  0  0  0  0
 15 16  1  0  0  0  0
 15 40  1  0  0  0  0
 16 17  1  0  0  0  0
 16 21  1  0  0  0  0
 17 18  1  0  0  0  0
 17 41  1  0  0  0  0
 17 42  1  0  0  0  0
 18 19  1  0  0  0  0
 18 20  2  0  0  0  0
 19 43  1  0  0  0  0
 19 44  1  0  0  0  0
M  END
> <s_m_source_file>
AV-unprocessed.smi

> <i_m_source_file_index>
1807

> <i_lp_mmshare_version>
43012

> <i_f3d_flags>
0

> <s_epik_input>
W0NIM11bQ0BASF0xW0NIMl1bQ0gyXVtDSDJdW0NIMl1bQ0BIXTFbTkhdQyg9TylbQ0gyXVtOSF1jMltjSF1bY0hdbihuMilbQ0gyXUMoPU8pW05IMl0=

> <s_epik_cmdline>
J2VwaWtfcHl0aG9uJywgJy1waCcsICc3LjAnLCAnLXRuJywgJzgnLCAnLW1hJywgJzIwMCcsICctbWV0YWxfYmluZGluZycsICctaW1hZScsICc8aW5maWxlLm1hZT4nLCAnLW9tYWUnLCAnPG91dGZpbGUubWFlPic=

> <r_lp_tautomer_probability>
1

> <r_epik_Ionization_Penalty>
0.000167642

> <r_epik_Ionization_Penalty_Charging>
0

> <r_epik_Ionization_Penalty_Neutral>
0.000167642

> <r_epik_State_Penalty>
-0

> <r_epik_Charging_Adjusted_Penalty>
0

> <i_epik_Tot_Q>
0

> <i_epik_Tot_abs_Q>
0

> <r_epik_Metal_State_Penalty>
-0

> <b_epik_Metal_Only>
0

> <s_lp_Force_Field>
OPLS_2005

> <r_lp_Energy>
4.94833

> <b_lp_Chiralities_Consistent>
1

> <s_lp_Variant>
AV-unprocessed.smi:1807-2

> <Gold.Version>
5.8.1

> <Gold.Id.Protein>
6NUR|6NUR_protein|mol2

> <Gold.PLP.Fitness>
44.9673

> <Gold.PLP.PLP>
-36.1854

> <Gold.PLP.part.hbond>
-3.0000

> <Gold.PLP.part.metal>
0.0000

> <Gold.PLP.part.buried>
-2.6830

> <Gold.PLP.part.nonpolar>
-30.5249

> <Gold.PLP.part.repulsive>
0.2070

> <Gold.PLP.ligand.clash>
0.0000

> <Gold.PLP.ligand.torsion>
0.1159

> <Gold.PLP.Chemscore.Hbond>
3.0000

> <Gold.PLP.Chemscore.CHOScore>
0.0000

> <Gold.PLP.Chemscore.Metal>
0.0000

> <Gold.Chemscore.Hbonds>
donor molecule, donor type, donor heavy atom, donor atom, acceptor molecule, acceptor atom, score
      L1  H    12    38       P1  7948  1.00
      P1  H  6896  6907       L1    20  0.68
      P1  H 10752 10763       L1    10  1.00

> <Gold.PLP.Chemscore.Internal.Correction>
0.0137

> <Gold.Rescore>
     Score         DG    S(hbond)    S(metal)    S(lipo)     H(rot)  DE(clash)    DE(int)     intcor
     14.09     -15.61       2.81        0.00      64.16       2.64       0.12       1.39       ----

> <Gold.Chemscore.Fitness>
14.0949

> <Gold.Chemscore.DG>
-15.6101

> <Gold.Chemscore.ZeroCoef>
-5.4800

> <Gold.Chemscore.Hbond>
2.8067

> <Gold.Chemscore.Metal>
0.0000

> <Gold.Chemscore.Lipo>
64.1562

> <Gold.Chemscore.Internal_Hbond>
0.0000

> <Gold.Chemscore.DEClash>
0.1214

> <Gold.Chemscore.DEInternal>
1.3937

> <Gold.Chemscore.Rot>
2.6369

> <Gold.Chemscore.Internal.Correction>
   9.000000E+99

> <Gold.Chemscore.Hbonds>
donor molecule, donor type, donor heavy atom, donor atom, acceptor molecule, acceptor atom, score
      L1  H    12    38       P1  7948  0.88
      P1  H  6896  6907       L1    20  0.65
      P1  H 10752 10763       L1    10  0.97

> <Gold.Chemscore.Hbond.Weighted>
-9.3742

> <Gold.Chemscore.Metal.Weighted>
-0.0000

> <Gold.Chemscore.Lipo.Weighted>
-7.5063

> <Gold.Chemscore.Internal_Hbond.Weighted>
0.0000

> <Gold.Chemscore.DEClash.Weighted>
0.1214

> <Gold.Chemscore.DEInternal.Weighted>
1.3937

> <Gold.Chemscore.Rot.Weighted>
6.7504

> <Gold.Chemscore.Internal.Correction.Weighted>
   9.000000E+99

> <Gold.Protein.RotatedTorsions>
[ 6907 6896 6895 6894 ] final  177.12 input  -60.11 | X-H torsion
[ 7974 7965 7964 7962 ] final  -28.93 input  175.53 | X-H torsion
[ 8008 7997 7996 7995 ] final  -31.28 input   59.86 | X-H torsion
[ 10167 10162 10161 10158 ] final -150.34 input  -65.29 | X-H torsion
[ 10718 10713 10712 10709 ] final -143.78 input   66.30 | X-H torsion
[ 10763 10752 10751 10750 ] final   42.34 input  -60.55 | X-H torsion
[ 11005 11000 10999 10996 ] final -114.48 input  -57.11 | X-H torsion

> <Gold.Protein.ActiveResidues>
 VAL166  LYS551  ARG553  GLY616  TRP617  ASP618  TYR619  PRO620  LYS621  CYS622 
 ASP623  PHE694  ASN695  SER759  ASP760  ASP761  ALA762  ILE779  LEU786  VAL792 
 PHE793  MET794  SER795  GLU796  ALA797  LYS798  CYS799  TRP800  GLU811  SER814 

> <Gold.Protein.RotatedAtoms>
  151.7091  133.3312  159.3285 H   0  0  0  0  0  0  0  0  0  0  0  0  # atno 6907 bound_to 6896
  150.7702  134.6548  159.6317 H   0  0  0  0  0  0  0  0  0  0  0  0  # atno 6908 bound_to 6896
  152.3723  134.6719  160.0224 H   0  0  0  0  0  0  0  0  0  0  0  0  # atno 6909 bound_to 6896
  146.1253  140.5347  142.8717 H   0  0  0  0  0  0  0  0  0  0  0  0  # atno 7974 bound_to 7965
  154.4219  140.1768  156.1541 H   0  0  0  0  0  0  0  0  0  0  0  0  # atno 8008 bound_to 7997
  155.9891  140.3370  155.6711 H   0  0  0  0  0  0  0  0  0  0  0  0  # atno 8009 bound_to 7997
  155.6397  140.0678  157.2613 H   0  0  0  0  0  0  0  0  0  0  0  0  # atno 8010 bound_to 7997
  139.7363  143.8731  152.2549 H   0  0  0  0  0  0  0  0  0  0  0  0  # atno 10167 bound_to 10162
  156.3621  130.7743  151.1912 H   0  0  0  0  0  0  0  0  0  0  0  0  # atno 10718 bound_to 10713
  152.9885  135.6134  154.2934 H   0  0  0  0  0  0  0  0  0  0  0  0  # atno 10763 bound_to 10752
  154.2658  135.2781  155.2761 H   0  0  0  0  0  0  0  0  0  0  0  0  # atno 10764 bound_to 10752
  154.5165  135.5826  153.6704 H   0  0  0  0  0  0  0  0  0  0  0  0  # atno 10765 bound_to 10752
  141.0549  133.9628  157.2771 H   0  0  0  0  0  0  0  0  0  0  0  0  # atno 11005 bound_to 11000
  144.7636  140.5479  143.6718 LP  0  0  0  0  0  0  0  0  0  0  0  0  # atno 17320 bound_to 7965
  145.5379  139.1475  143.3463 LP  0  0  0  0  0  0  0  0  0  0  0  0  # atno 17321 bound_to 7965
  139.8668  144.7089  150.9034 LP  0  0  0  0  0  0  0  0  0  0  0  0  # atno 17342 bound_to 10162
  140.7779  143.3771  151.1544 LP  0  0  0  0  0  0  0  0  0  0  0  0  # atno 17343 bound_to 10162
  157.7474  131.0397  150.4563 LP  0  0  0  0  0  0  0  0  0  0  0  0  # atno 17370 bound_to 10713
  156.4775  130.4066  149.6481 LP  0  0  0  0  0  0  0  0  0  0  0  0  # atno 17371 bound_to 10713
  139.9382  135.0194  156.8623 LP  0  0  0  0  0  0  0  0  0  0  0  0  # atno 17394 bound_to 11000
  140.5983  134.0196  155.7527 LP  0  0  0  0  0  0  0  0  0  0  0  0  # atno 17395 bound_to 11000

$$$$
