AV-unprocessed.smi:199|AV-procd|sdf|1569|dock8
  -GOLD-   2262019443D 1   1.00000     0.00000
 Structure written by MMmdl.
 51 55  0  0  0  0  0  0  0  0  1 V2000
  150.1636  138.5610  153.9876 C   0  0  0  0  0  0  0  0  0  0  0  0
  149.2787  139.3765  154.9441 C   0  0  1  0  0  0  0  0  0  0  0  0
  150.0244  139.8012  156.0757 O   0  0  0  0  0  0  0  0  0  0  0  0
  149.2859  140.8400  156.6924 C   0  0  0  0  0  0  0  0  0  0  0  0
  148.8403  141.6871  155.5064 C   0  0  0  0  0  0  0  0  0  0  0  0
  148.6313  140.6694  154.3804 C   0  0  1  0  0  0  0  0  0  0  0  0
  149.3141  141.1403  153.2299 O   0  0  0  0  0  0  0  0  0  0  0  0
  147.1350  140.4977  154.0189 C   0  0  0  0  0  0  0  0  0  0  0  0
  146.8640  139.3116  153.2202 N   0  0  0  0  0  0  0  0  0  0  0  0
  146.9841  139.1917  151.8548 C   0  0  0  0  0  0  0  0  0  0  0  0
  146.6953  138.0146  151.3730 N   0  0  0  0  0  0  0  0  0  0  0  0
  146.3307  137.2655  152.4860 C   0  0  0  0  0  0  0  0  0  0  0  0
  145.9081  135.9192  152.6885 C   0  0  0  0  0  0  0  0  0  0  0  0
  145.7680  135.0104  151.6847 N   0  0  0  0  0  0  0  0  0  0  0  0
  146.7457  133.9465  151.4933 C   0  0  1  0  0  0  0  0  0  0  0  0
  146.4481  132.9511  152.6343 C   0  0  0  0  0  0  0  0  0  0  0  0
  144.9258  133.1014  152.7712 C   0  0  0  0  0  0  0  0  0  0  0  0
  144.6180  134.1190  151.6508 C   0  0  2  0  0  0  0  0  0  0  0  0
  144.7683  133.4902  150.2457 C   0  0  2  0  0  0  0  0  0  0  0  0
  143.9574  132.2148  149.9491 C   0  0  0  0  0  0  0  0  0  0  0  0
  142.5802  132.4522  150.1490 O   0  0  0  0  0  0  0  0  0  0  0  0
  146.2960  133.3174  150.1627 C   0  0  0  0  0  0  0  0  0  0  0  0
  145.6651  135.5307  153.9689 N   0  0  0  0  0  0  0  0  0  0  0  0
  145.7947  136.3964  154.9774 C   0  0  0  0  0  0  0  0  0  0  0  0
  146.1629  137.6772  154.9343 N   0  0  0  0  0  0  0  0  0  0  0  0
  146.4317  138.0710  153.6569 C   0  0  0  0  0  0  0  0  0  0  0  0
  149.6043  138.2430  153.1074 H   0  0  0  0  0  0  0  0  0  0  0  0
  150.5390  137.6645  154.4806 H   0  0  0  0  0  0  0  0  0  0  0  0
  151.0267  139.1357  153.6511 H   0  0  0  0  0  0  0  0  0  0  0  0
  148.4973  138.7224  155.3322 H   0  0  0  0  0  0  0  0  0  0  0  0
  148.4280  140.4203  157.2204 H   0  0  0  0  0  0  0  0  0  0  0  0
  149.8922  141.3984  157.4056 H   0  0  0  0  0  0  0  0  0  0  0  0
  147.9509  142.2766  155.7322 H   0  0  0  0  0  0  0  0  0  0  0  0
  149.6390  142.3883  155.2581 H   0  0  0  0  0  0  0  0  0  0  0  0
  149.3047  140.4588  152.5754 H   0  0  0  0  0  0  0  0  0  0  0  0
  146.5364  140.4410  154.9291 H   0  0  0  0  0  0  0  0  0  0  0  0
  146.7718  141.3685  153.4714 H   0  0  0  0  0  0  0  0  0  0  0  0
  147.3054  140.0069  151.2231 H   0  0  0  0  0  0  0  0  0  0  0  0
  147.7850  134.2765  151.4666 H   0  0  0  0  0  0  0  0  0  0  0  0
  146.7531  131.9320  152.3944 H   0  0  0  0  0  0  0  0  0  0  0  0
  146.9479  133.2430  153.5586 H   0  0  0  0  0  0  0  0  0  0  0  0
  144.3875  132.1599  152.6759 H   0  0  0  0  0  0  0  0  0  0  0  0
  144.6741  133.5206  153.7464 H   0  0  0  0  0  0  0  0  0  0  0  0
  143.6506  134.6027  151.7725 H   0  0  0  0  0  0  0  0  0  0  0  0
  144.4767  134.2456  149.5132 H   0  0  0  0  0  0  0  0  0  0  0  0
  144.1064  131.9166  148.9110 H   0  0  0  0  0  0  0  0  0  0  0  0
  144.2777  131.3727  150.5616 H   0  0  0  0  0  0  0  0  0  0  0  0
  142.3930  133.3490  149.9173 H   0  0  0  0  0  0  0  0  0  0  0  0
  146.6965  133.8703  149.3121 H   0  0  0  0  0  0  0  0  0  0  0  0
  146.6118  132.2778  150.0663 H   0  0  0  0  0  0  0  0  0  0  0  0
  145.5732  136.0059  155.9596 H   0  0  0  0  0  0  0  0  0  0  0  0
  1  2  1  0  0  0  0
  1 27  1  0  0  0  0
  1 28  1  0  0  0  0
  1 29  1  0  0  0  0
  2  6  1  0  0  0  0
  2  3  1  0  0  0  0
  2 30  1  0  0  0  0
  3  4  1  0  0  0  0
  4  5  1  0  0  0  0
  4 31  1  0  0  0  0
  4 32  1  0  0  0  0
  5  6  1  0  0  0  0
  5 33  1  0  0  0  0
  5 34  1  0  0  0  0
  6  7  1  0  0  0  0
  6  8  1  0  0  0  0
  7 35  1  0  0  0  0
  8  9  1  0  0  0  0
  8 36  1  0  0  0  0
  8 37  1  0  0  0  0
  9 26  1  0  0  0  0
  9 10  1  0  0  0  0
 10 11  2  0  0  0  0
 10 38  1  0  0  0  0
 11 12  1  0  0  0  0
 12 26  2  0  0  0  0
 12 13  1  0  0  0  0
 13 14  1  0  0  0  0
 13 23  2  0  0  0  0
 14 18  1  0  0  0  0
 14 15  1  0  0  0  0
 15 22  1  0  0  0  0
 15 16  1  0  0  0  0
 15 39  1  0  0  0  0
 16 17  1  0  0  0  0
 16 40  1  0  0  0  0
 16 41  1  0  0  0  0
 17 18  1  0  0  0  0
 17 42  1  0  0  0  0
 17 43  1  0  0  0  0
 18 19  1  0  0  0  0
 18 44  1  0  0  0  0
 19 20  1  0  0  0  0
 19 22  1  0  0  0  0
 19 45  1  0  0  0  0
 20 21  1  0  0  0  0
 20 46  1  0  0  0  0
 20 47  1  0  0  0  0
 21 48  1  0  0  0  0
 22 49  1  0  0  0  0
 22 50  1  0  0  0  0
 23 24  1  0  0  0  0
 24 25  2  0  0  0  0
 24 51  1  0  0  0  0
 25 26  1  0  0  0  0
M  END
> <s_m_source_file>
AV-unprocessed.smi

> <i_m_source_file_index>
199

> <i_lp_mmshare_version>
43012

> <i_f3d_flags>
0

> <s_epik_input>
W0NIMl0xW0NIMl1PW0NAQEhdKFtDSDNdKVtDQEBdMShbT0hdKVtDSDJdbihbY0hdbjIpYyhjMjMpbltjSF1uYzNOKFtDQEBIXTQ1KVtDQEhdKFtDSDJdW0NIMl00KVtDQEhdKFtDSDJdNSlbQ0gyXVtPSF0=

> <s_epik_cmdline>
J2VwaWtfcHl0aG9uJywgJy1waCcsICc3LjAnLCAnLXRuJywgJzgnLCAnLW1hJywgJzIwMCcsICctbWV0YWxfYmluZGluZycsICctaW1hZScsICc8aW5maWxlLm1hZT4nLCAnLW9tYWUnLCAnPG91dGZpbGUubWFlPic=

> <r_lp_tautomer_probability>
1

> <r_epik_Ionization_Penalty>
0.00583903

> <r_epik_Ionization_Penalty_Charging>
0

> <r_epik_Ionization_Penalty_Neutral>
0.00583903

> <r_epik_State_Penalty>
-0

> <r_epik_Charging_Adjusted_Penalty>
0

> <i_epik_Tot_Q>
0

> <i_epik_Tot_abs_Q>
0

> <r_epik_Metal_State_Penalty>
-0

> <b_epik_Metal_Only>
0

> <s_lp_Force_Field>
OPLS_2005

> <r_lp_Energy>
83.7467

> <b_lp_Chiralities_Consistent>
1

> <s_lp_Variant>
AV-unprocessed.smi:199-10

> <Gold.Version>
5.8.1

> <Gold.Id.Protein>
6NUR|6NUR_protein|mol2

> <Gold.PLP.Fitness>
44.2045

> <Gold.PLP.PLP>
-33.2850

> <Gold.PLP.part.hbond>
-5.2640

> <Gold.PLP.part.metal>
0.0000

> <Gold.PLP.part.buried>
2.6902

> <Gold.PLP.part.nonpolar>
-31.8978

> <Gold.PLP.part.repulsive>
2.2566

> <Gold.PLP.ligand.clash>
0.0000

> <Gold.PLP.ligand.torsion>
0.8867

> <Gold.PLP.Chemscore.Hbond>
3.6122

> <Gold.PLP.Chemscore.CHOScore>
0.6131

> <Gold.PLP.Chemscore.Metal>
0.0000

> <Gold.Chemscore.Hbonds>
donor molecule, donor type, donor heavy atom, donor atom, acceptor molecule, acceptor atom, score
      L1  H     7    35       P1  7957  0.87
      L1  H    21    48       P1 10186  0.80
      P1  H  7954  7966       L1    11  0.84
      P1  H  7989  7998       L1     7  0.02
      P1  H  8011  8017       L1     7  1.00
      L1  C    10    38       P1  7957  0.60

> <Gold.PLP.Chemscore.Internal.Correction>
0.0173

> <Gold.Rescore>
     Score         DG    S(hbond)    S(metal)    S(lipo)     H(rot)  DE(clash)    DE(int)     intcor
      9.73     -15.47       2.33        0.00      85.95       3.07       2.49       3.25       ----

> <Gold.Chemscore.Fitness>
9.7262

> <Gold.Chemscore.DG>
-15.4658

> <Gold.Chemscore.ZeroCoef>
-5.4800

> <Gold.Chemscore.Hbond>
2.3344

> <Gold.Chemscore.Metal>
0.0000

> <Gold.Chemscore.Lipo>
85.9452

> <Gold.Chemscore.Internal_Hbond>
0.0000

> <Gold.Chemscore.DEClash>
2.4892

> <Gold.Chemscore.DEInternal>
3.2504

> <Gold.Chemscore.Rot>
3.0729

> <Gold.Chemscore.Internal.Correction>
   9.000000E+99

> <Gold.Chemscore.Hbonds>
donor molecule, donor type, donor heavy atom, donor atom, acceptor molecule, acceptor atom, score
      L1  H     7    35       P1  7957  0.81
      L1  H    21    48       P1 10186  0.80
      P1  H  7954  7966       L1    11  0.21
      P1  H  8011  8017       L1     7  0.25

> <Gold.Chemscore.Hbond.Weighted>
-7.7969

> <Gold.Chemscore.Metal.Weighted>
-0.0000

> <Gold.Chemscore.Lipo.Weighted>
-10.0556

> <Gold.Chemscore.Internal_Hbond.Weighted>
0.0000

> <Gold.Chemscore.DEClash.Weighted>
2.4892

> <Gold.Chemscore.DEInternal.Weighted>
3.2504

> <Gold.Chemscore.Rot.Weighted>
7.8667

> <Gold.Chemscore.Internal.Correction.Weighted>
   9.000000E+99

> <Gold.Protein.RotatedTorsions>
[ 6907 6896 6895 6894 ] final   14.57 input  -60.11 | X-H torsion
[ 7974 7965 7964 7962 ] final   -3.38 input  175.53 | X-H torsion
[ 8008 7997 7996 7995 ] final   65.06 input   59.86 | X-H torsion
[ 10167 10162 10161 10158 ] final -120.13 input  -65.29 | X-H torsion
[ 10718 10713 10712 10709 ] final    4.07 input   66.30 | X-H torsion
[ 10763 10752 10751 10750 ] final   40.00 input  -60.55 | X-H torsion
[ 11005 11000 10999 10996 ] final   54.73 input  -57.11 | X-H torsion

> <Gold.Protein.ActiveResidues>
 VAL166  LYS551  ARG553  GLY616  TRP617  ASP618  TYR619  PRO620  LYS621  CYS622 
 ASP623  PHE694  ASN695  SER759  ASP760  ASP761  ALA762  ILE779  LEU786  VAL792 
 PHE793  MET794  SER795  GLU796  ALA797  LYS798  CYS799  TRP800  GLU811  SER814 

> <Gold.Protein.RotatedAtoms>
  151.8043  135.0699  160.0404 H   0  0  0  0  0  0  0  0  0  0  0  0  # atno 6907 bound_to 6896
  152.3066  133.5705  159.5662 H   0  0  0  0  0  0  0  0  0  0  0  0  # atno 6908 bound_to 6896
  150.7299  134.0129  159.3717 H   0  0  0  0  0  0  0  0  0  0  0  0  # atno 6909 bound_to 6896
  146.2390  140.1712  142.8332 H   0  0  0  0  0  0  0  0  0  0  0  0  # atno 7974 bound_to 7965
  155.6558  140.3497  155.4764 H   0  0  0  0  0  0  0  0  0  0  0  0  # atno 8008 bound_to 7997
  155.9810  140.1174  157.0750 H   0  0  0  0  0  0  0  0  0  0  0  0  # atno 8009 bound_to 7997
  154.4191  140.1138  156.5421 H   0  0  0  0  0  0  0  0  0  0  0  0  # atno 8010 bound_to 7997
  140.0392  143.5170  152.2138 H   0  0  0  0  0  0  0  0  0  0  0  0  # atno 10167 bound_to 10162
  156.8872  130.5674  149.5651 H   0  0  0  0  0  0  0  0  0  0  0  0  # atno 10718 bound_to 10713
  152.9949  135.6204  154.2556 H   0  0  0  0  0  0  0  0  0  0  0  0  # atno 10763 bound_to 10752
  154.2293  135.2793  155.2897 H   0  0  0  0  0  0  0  0  0  0  0  0  # atno 10764 bound_to 10752
  154.5463  135.5746  153.6941 H   0  0  0  0  0  0  0  0  0  0  0  0  # atno 10765 bound_to 10752
  140.0663  134.5531  155.9095 H   0  0  0  0  0  0  0  0  0  0  0  0  # atno 11005 bound_to 11000
  145.0010  140.8631  143.5282 LP  0  0  0  0  0  0  0  0  0  0  0  0  # atno 17320 bound_to 7965
  145.1731  139.2393  143.5331 LP  0  0  0  0  0  0  0  0  0  0  0  0  # atno 17321 bound_to 7965
  139.6025  144.7587  151.3139 LP  0  0  0  0  0  0  0  0  0  0  0  0  # atno 17342 bound_to 10162
  140.7268  143.6981  150.7867 LP  0  0  0  0  0  0  0  0  0  0  0  0  # atno 17343 bound_to 10162
  156.0647  130.5693  150.9264 LP  0  0  0  0  0  0  0  0  0  0  0  0  # atno 17370 bound_to 10713
  157.6105  131.0936  150.8803 LP  0  0  0  0  0  0  0  0  0  0  0  0  # atno 17371 bound_to 10713
  141.1994  133.6606  156.5842 LP  0  0  0  0  0  0  0  0  0  0  0  0  # atno 17394 bound_to 11000
  140.3693  134.7619  157.4588 LP  0  0  0  0  0  0  0  0  0  0  0  0  # atno 17395 bound_to 11000

$$$$
