AV-unprocessed.smi:877|AV-procd|sdf|4029|dock4
  -GOLD-   22720 1523D 1   1.00000     0.00000
 Structure written by MMmdl.
 44 46  0  0  0  0  0  0  0  0  2 V2000
  143.9839  143.7078  155.7861 C   0  0  0  0  0  0  0  0  0  0  0  0
  144.4949  142.9290  154.7141 O   0  0  0  0  0  0  0  0  0  0  0  0
  145.7787  142.4394  154.8225 C   0  0  0  0  0  0  0  0  0  0  0  0
  146.2527  142.1673  156.1223 C   0  0  0  0  0  0  0  0  0  0  0  0
  147.5543  141.6715  156.3272 C   0  0  0  0  0  0  0  0  0  0  0  0
  148.4032  141.4385  155.2269 C   0  0  0  0  0  0  0  0  0  0  0  0
  149.8128  140.9183  155.4410 C   0  0  0  0  0  0  0  0  0  0  0  0
  150.5507  141.6629  156.5109 C   0  0  0  0  0  0  0  0  0  0  0  0
  150.4592  143.0005  156.7642 N   0  3  0  0  0  0  0  0  0  0  0  0
  151.2990  143.3418  157.8241 C   0  0  0  0  0  0  0  0  0  0  0  0
  151.5504  144.5692  158.4292 C   0  0  0  0  0  0  0  0  0  0  0  0
  152.4735  144.5715  159.4954 C   0  0  0  0  0  0  0  0  0  0  0  0
  153.1052  143.3852  159.9223 C   0  0  0  0  0  0  0  0  0  0  0  0
  152.8416  142.1465  159.3005 C   0  0  0  0  0  0  0  0  0  0  0  0
  151.9286  142.1537  158.2464 C   0  0  0  0  0  0  0  0  0  0  0  0
  151.4355  141.1442  157.4120 N   0  0  0  0  0  0  0  0  0  0  0  0
  151.9118  139.7647  157.6035 C   0  0  0  0  0  0  0  0  0  0  0  0
  150.7802  138.7866  157.9783 C   0  0  2  0  0  0  0  0  0  0  0  0
  149.8862  139.4325  158.8649 O   0  0  0  0  0  0  0  0  0  0  0  0
  151.3243  137.5172  158.6557 C   0  0  0  0  0  0  0  0  0  0  0  0
  150.2627  136.6580  159.0136 O   0  0  0  0  0  0  0  0  0  0  0  0
  147.9375  141.7007  153.9226 C   0  0  0  0  0  0  0  0  0  0  0  0
  146.6360  142.1989  153.7191 C   0  0  0  0  0  0  0  0  0  0  0  0
  142.9609  144.0064  155.5576 H   0  0  0  0  0  0  0  0  0  0  0  0
  144.5680  144.6172  155.9327 H   0  0  0  0  0  0  0  0  0  0  0  0
  143.9607  143.1387  156.7165 H   0  0  0  0  0  0  0  0  0  0  0  0
  145.6109  142.3437  156.9730 H   0  0  0  0  0  0  0  0  0  0  0  0
  147.8976  141.4744  157.3323 H   0  0  0  0  0  0  0  0  0  0  0  0
  149.7882  139.8599  155.7020 H   0  0  0  0  0  0  0  0  0  0  0  0
  150.3537  140.9942  154.4977 H   0  0  0  0  0  0  0  0  0  0  0  0
  151.0684  145.4792  158.1030 H   0  0  0  0  0  0  0  0  0  0  0  0
  152.7023  145.5015  159.9955 H   0  0  0  0  0  0  0  0  0  0  0  0
  153.8071  143.4257  160.7426 H   0  0  0  0  0  0  0  0  0  0  0  0
  153.3335  141.2443  159.6327 H   0  0  0  0  0  0  0  0  0  0  0  0
  152.4138  139.4457  156.6894 H   0  0  0  0  0  0  0  0  0  0  0  0
  152.6787  139.7784  158.3785 H   0  0  0  0  0  0  0  0  0  0  0  0
  150.2338  138.5139  157.0743 H   0  0  0  0  0  0  0  0  0  0  0  0
  149.9859  139.0506  159.7235 H   0  0  0  0  0  0  0  0  0  0  0  0
  151.9665  136.9686  157.9658 H   0  0  0  0  0  0  0  0  0  0  0  0
  151.9266  137.7577  159.5326 H   0  0  0  0  0  0  0  0  0  0  0  0
  149.4456  137.0980  158.8353 H   0  0  0  0  0  0  0  0  0  0  0  0
  148.5815  141.5262  153.0728 H   0  0  0  0  0  0  0  0  0  0  0  0
  146.3189  142.3899  152.7051 H   0  0  0  0  0  0  0  0  0  0  0  0
  149.8696  143.6329  156.2382 H   0  0  0  0  0  0  0  0  0  0  0  0
  1  2  1  0  0  0  0
  1 24  1  0  0  0  0
  1 25  1  0  0  0  0
  1 26  1  0  0  0  0
  2  3  1  0  0  0  0
  3 23  1  0  0  0  0
  3  4  2  0  0  0  0
  4  5  1  0  0  0  0
  4 27  1  0  0  0  0
  5  6  2  0  0  0  0
  5 28  1  0  0  0  0
  6  7  1  0  0  0  0
  6 22  1  0  0  0  0
  7  8  1  0  0  0  0
  7 29  1  0  0  0  0
  7 30  1  0  0  0  0
  8 16  1  0  0  0  0
  8  9  2  0  0  0  0
  9 10  1  0  0  0  0
  9 44  1  0  0  0  0
 10 15  2  0  0  0  0
 10 11  1  0  0  0  0
 11 12  2  0  0  0  0
 11 31  1  0  0  0  0
 12 13  1  0  0  0  0
 12 32  1  0  0  0  0
 13 14  2  0  0  0  0
 13 33  1  0  0  0  0
 14 15  1  0  0  0  0
 14 34  1  0  0  0  0
 15 16  1  0  0  0  0
 16 17  1  0  0  0  0
 17 18  1  0  0  0  0
 17 35  1  0  0  0  0
 17 36  1  0  0  0  0
 18 19  1  0  0  0  0
 18 20  1  0  0  0  0
 18 37  1  0  0  0  0
 19 38  1  0  0  0  0
 20 21  1  0  0  0  0
 20 39  1  0  0  0  0
 20 40  1  0  0  0  0
 21 41  1  0  0  0  0
 22 23  2  0  0  0  0
 22 42  1  0  0  0  0
 23 43  1  0  0  0  0
M  CHG  1   9   1
M  END
> <s_m_source_file>
AV-unprocessed.smi

> <i_m_source_file_index>
877

> <i_lp_mmshare_version>
43012

> <i_f3d_flags>
0

> <s_epik_input>
W0NIM11PYzFbY0hdW2NIXWMoW2NIXVtjSF0xKVtDSDJdYyhuMiluKFtDSDJdW0NASF0oW09IXSlbQ0gyXVtPSF0pYyhjMjMpW2NIXVtjSF1bY0hdW2NIXTM=

> <s_epik_cmdline>
J2VwaWtfcHl0aG9uJywgJy1waCcsICc3LjAnLCAnLXRuJywgJzgnLCAnLW1hJywgJzIwMCcsICctbWV0YWxfYmluZGluZycsICctaW1hZScsICc8aW5maWxlLm1hZT4nLCAnLW9tYWUnLCAnPG91dGZpbGUubWFlPic=

> <r_lp_tautomer_probability>
1

> <r_epik_Ionization_Penalty>
1.37112

> <r_epik_Ionization_Penalty_Charging>
1.37111

> <r_epik_Ionization_Penalty_Neutral>
4.48252e-07

> <r_epik_State_Penalty>
1.45083

> <r_epik_Charging_Adjusted_Penalty>
2.82194

> <i_epik_Tot_Q>
1

> <i_epik_Tot_abs_Q>
1

> <r_epik_Metal_State_Penalty>
5.49009

> <b_epik_Metal_Only>
0

> <s_lp_Force_Field>
OPLS_2005

> <r_lp_Energy>
22.2712

> <b_lp_Chiralities_Consistent>
1

> <s_lp_Variant>
AV-unprocessed.smi:877-3

> <Gold.Version>
5.8.1

> <Gold.Id.Protein>
6NUR|6NUR_protein|mol2

> <Gold.PLP.Fitness>
54.6616

> <Gold.PLP.PLP>
-47.6810

> <Gold.PLP.part.hbond>
-3.0203

> <Gold.PLP.part.metal>
0.0000

> <Gold.PLP.part.buried>
-6.1022

> <Gold.PLP.part.nonpolar>
-39.1285

> <Gold.PLP.part.repulsive>
0.2341

> <Gold.PLP.ligand.clash>
0.0000

> <Gold.PLP.ligand.torsion>
1.0547

> <Gold.PLP.Chemscore.Hbond>
3.0000

> <Gold.PLP.Chemscore.CHOScore>
0.0000

> <Gold.PLP.Chemscore.Metal>
0.0000

> <Gold.Chemscore.Hbonds>
donor molecule, donor type, donor heavy atom, donor atom, acceptor molecule, acceptor atom, score
      L1  H     9    44       P1  8028  2.00
      P1  H  6896  6907       L1    21  1.00

> <Gold.PLP.Chemscore.Internal.Correction>
0.0900

> <Gold.Rescore>
     Score         DG    S(hbond)    S(metal)    S(lipo)     H(rot)  DE(clash)    DE(int)     intcor
     17.05     -18.18       1.94        0.00     123.85       3.23       0.00       1.13       ----

> <Gold.Chemscore.Fitness>
17.0497

> <Gold.Chemscore.DG>
-18.1827

> <Gold.Chemscore.ZeroCoef>
-5.4800

> <Gold.Chemscore.Hbond>
1.9417

> <Gold.Chemscore.Metal>
0.0000

> <Gold.Chemscore.Lipo>
123.8463

> <Gold.Chemscore.Internal_Hbond>
0.0000

> <Gold.Chemscore.DEClash>
0.0008

> <Gold.Chemscore.DEInternal>
1.1322

> <Gold.Chemscore.Rot>
3.2315

> <Gold.Chemscore.Internal.Correction>
   9.000000E+99

> <Gold.Chemscore.Hbonds>
donor molecule, donor type, donor heavy atom, donor atom, acceptor molecule, acceptor atom, score
      L1  H     9    44       P1  8028  0.97
      P1  H  6896  6907       L1    21  0.38

> <Gold.Chemscore.Hbond.Weighted>
-6.4853

> <Gold.Chemscore.Metal.Weighted>
-0.0000

> <Gold.Chemscore.Lipo.Weighted>
-14.4900

> <Gold.Chemscore.Internal_Hbond.Weighted>
0.0000

> <Gold.Chemscore.DEClash.Weighted>
0.0008

> <Gold.Chemscore.DEInternal.Weighted>
1.1322

> <Gold.Chemscore.Rot.Weighted>
8.2727

> <Gold.Chemscore.Internal.Correction.Weighted>
   9.000000E+99

> <Gold.Protein.RotatedTorsions>
[ 6907 6896 6895 6894 ] final  -22.11 input  -60.11 | X-H torsion
[ 7974 7965 7964 7962 ] final  151.54 input  175.53 | X-H torsion
[ 8008 7997 7996 7995 ] final  104.41 input   59.86 | X-H torsion
[ 10167 10162 10161 10158 ] final   80.17 input  -65.29 | X-H torsion
[ 10718 10713 10712 10709 ] final   23.51 input   66.30 | X-H torsion
[ 10763 10752 10751 10750 ] final  -61.87 input  -60.55 | X-H torsion
[ 11005 11000 10999 10996 ] final  144.23 input  -57.11 | X-H torsion

> <Gold.Protein.ActiveResidues>
 VAL166  LYS551  ARG553  GLY616  TRP617  ASP618  TYR619  PRO620  LYS621  CYS622 
 ASP623  PHE694  ASN695  SER759  ASP760  ASP761  ALA762  ILE779  LEU786  VAL792 
 PHE793  MET794  SER795  GLU796  ALA797  LYS798  CYS799  TRP800  GLU811  SER814 

> <Gold.Protein.RotatedAtoms>
  151.2234  135.0527  159.8958 H   0  0  0  0  0  0  0  0  0  0  0  0  # atno 6907 bound_to 6896
  152.5413  134.0615  159.8164 H   0  0  0  0  0  0  0  0  0  0  0  0  # atno 6908 bound_to 6896
  151.0785  133.5361  159.2654 H   0  0  0  0  0  0  0  0  0  0  0  0  # atno 6909 bound_to 6896
  144.8285  139.6551  143.6069 H   0  0  0  0  0  0  0  0  0  0  0  0  # atno 7974 bound_to 7965
  156.1570  140.3148  155.8742 H   0  0  0  0  0  0  0  0  0  0  0  0  # atno 8008 bound_to 7997
  155.3859  140.0490  157.3059 H   0  0  0  0  0  0  0  0  0  0  0  0  # atno 8009 bound_to 7997
  154.5110  140.2164  155.9167 H   0  0  0  0  0  0  0  0  0  0  0  0  # atno 8010 bound_to 7997
  139.9526  144.6016  150.8147 H   0  0  0  0  0  0  0  0  0  0  0  0  # atno 10167 bound_to 10162
  157.1670  130.6742  149.6064 H   0  0  0  0  0  0  0  0  0  0  0  0  # atno 10718 bound_to 10713
  154.2912  135.6253  153.5386 H   0  0  0  0  0  0  0  0  0  0  0  0  # atno 10763 bound_to 10752
  152.9852  135.5656  154.5387 H   0  0  0  0  0  0  0  0  0  0  0  0  # atno 10764 bound_to 10752
  154.4999  135.2871  155.1405 H   0  0  0  0  0  0  0  0  0  0  0  0  # atno 10765 bound_to 10752
  140.0616  134.9201  157.1194 H   0  0  0  0  0  0  0  0  0  0  0  0  # atno 11005 bound_to 11000
  146.2589  139.6366  142.9375 LP  0  0  0  0  0  0  0  0  0  0  0  0  # atno 17320 bound_to 7965
  145.4947  141.0438  143.2574 LP  0  0  0  0  0  0  0  0  0  0  0  0  # atno 17321 bound_to 7965
  140.7578  143.3094  151.2882 LP  0  0  0  0  0  0  0  0  0  0  0  0  # atno 17342 bound_to 10162
  139.6617  144.0178  152.2696 LP  0  0  0  0  0  0  0  0  0  0  0  0  # atno 17343 bound_to 10162
  155.9744  130.4692  150.6386 LP  0  0  0  0  0  0  0  0  0  0  0  0  # atno 17370 bound_to 10713
  157.4079  131.0819  151.1248 LP  0  0  0  0  0  0  0  0  0  0  0  0  # atno 17371 bound_to 10713
  140.3761  134.2337  155.7174 LP  0  0  0  0  0  0  0  0  0  0  0  0  # atno 17394 bound_to 11000
  141.1975  133.8056  157.0622 LP  0  0  0  0  0  0  0  0  0  0  0  0  # atno 17395 bound_to 11000

$$$$
