AV-unprocessed.smi:1423|AV-procd|sdf|5798|dock4
  -GOLD-   22720 5453D 1   1.00000     0.00000
 Structure written by MMmdl.
 43 44  0  0  0  0  0  0  0  0  3 V2000
  152.2113  140.8095  157.9940 C   0  0  0  0  0  0  0  0  0  0  0  0
  152.3214  140.5555  156.5979 O   0  0  0  0  0  0  0  0  0  0  0  0
  151.3690  139.7561  155.9996 C   0  0  0  0  0  0  0  0  0  0  0  0
  150.1767  139.4894  156.7009 C   0  0  0  0  0  0  0  0  0  0  0  0
  149.1988  138.6749  156.0989 C   0  0  0  0  0  0  0  0  0  0  0  0
  149.4418  138.1563  154.8042 C   0  0  0  0  0  0  0  0  0  0  0  0
  148.5467  137.3084  154.0956 N   0  0  0  0  0  0  0  0  0  0  0  0
  147.2656  137.0144  154.3780 C   0  0  0  0  0  0  0  0  0  0  0  0
  146.6146  137.4841  155.3106 O   0  0  0  0  0  0  0  0  0  0  0  0
  146.7617  136.1398  153.4949 N   0  0  0  0  0  0  0  0  0  0  0  0
  145.3957  135.6159  153.5128 C   0  0  2  0  0  0  0  0  0  0  0  0
  145.3698  134.0958  153.7675 C   0  0  0  0  0  0  0  0  0  0  0  0
  145.8938  133.2989  152.5599 C   0  0  0  0  0  0  0  0  0  0  0  0
  145.1374  133.6379  151.3246 N   0  3  2  0  0  0  0  0  0  0  0  0
  145.5151  132.7988  150.1600 C   0  0  0  0  0  0  0  0  0  0  0  0
  144.2733  132.4508  149.3322 C   0  0  0  0  0  0  0  0  0  0  0  0
  144.3324  132.9486  148.0826 N   0  5  0  0  0  0  0  0  0  0  0  0
  143.3789  131.7732  149.8344 O   0  0  0  0  0  0  0  0  0  0  0  0
  145.2103  135.0894  151.0205 C   0  0  0  0  0  0  0  0  0  0  0  0
  144.6753  135.9341  152.1912 C   0  0  0  0  0  0  0  0  0  0  0  0
  150.6729  138.4736  154.1930 C   0  0  0  0  0  0  0  0  0  0  0  0
  151.6148  139.2533  154.7646 N   0  0  0  0  0  0  0  0  0  0  0  0
  153.0385  141.4445  158.3106 H   0  0  0  0  0  0  0  0  0  0  0  0
  152.2629  139.8864  158.5732 H   0  0  0  0  0  0  0  0  0  0  0  0
  151.2835  141.3314  158.2329 H   0  0  0  0  0  0  0  0  0  0  0  0
  150.0160  139.8996  157.6870 H   0  0  0  0  0  0  0  0  0  0  0  0
  148.2965  138.4578  156.6483 H   0  0  0  0  0  0  0  0  0  0  0  0
  148.9182  136.9040  153.2487 H   0  0  0  0  0  0  0  0  0  0  0  0
  147.3655  135.8144  152.7544 H   0  0  0  0  0  0  0  0  0  0  0  0
  144.8548  136.1161  154.3184 H   0  0  0  0  0  0  0  0  0  0  0  0
  145.9453  133.8443  154.6591 H   0  0  0  0  0  0  0  0  0  0  0  0
  144.3447  133.7866  153.9763 H   0  0  0  0  0  0  0  0  0  0  0  0
  146.9553  133.4993  152.4056 H   0  0  0  0  0  0  0  0  0  0  0  0
  145.8059  132.2337  152.7752 H   0  0  0  0  0  0  0  0  0  0  0  0
  146.1854  133.3537  149.5023 H   0  0  0  0  0  0  0  0  0  0  0  0
  146.0665  131.9155  150.4899 H   0  0  0  0  0  0  0  0  0  0  0  0
  145.1840  133.4419  147.7883 H   0  0  0  0  0  0  0  0  0  0  0  0
  146.2416  135.3630  150.7921 H   0  0  0  0  0  0  0  0  0  0  0  0
  144.6215  135.3070  150.1287 H   0  0  0  0  0  0  0  0  0  0  0  0
  143.6089  135.7368  152.3103 H   0  0  0  0  0  0  0  0  0  0  0  0
  144.7615  136.9961  151.9580 H   0  0  0  0  0  0  0  0  0  0  0  0
  150.9113  138.0913  153.2111 H   0  0  0  0  0  0  0  0  0  0  0  0
  144.1656  133.4314  151.5075 H   0  0  0  0  0  0  0  0  0  0  0  0
  1  2  1  0  0  0  0
  1 23  1  0  0  0  0
  1 24  1  0  0  0  0
  1 25  1  0  0  0  0
  2  3  1  0  0  0  0
  3 22  1  0  0  0  0
  3  4  2  0  0  0  0
  4  5  1  0  0  0  0
  4 26  1  0  0  0  0
  5  6  2  0  0  0  0
  5 27  1  0  0  0  0
  6  7  1  0  0  0  0
  6 21  1  0  0  0  0
  7  8  1  0  0  0  0
  7 28  1  0  0  0  0
  8  9  2  0  0  0  0
  8 10  1  0  0  0  0
 10 11  1  0  0  0  0
 10 29  1  0  0  0  0
 11 20  1  0  0  0  0
 11 12  1  0  0  0  0
 11 30  1  0  0  0  0
 12 13  1  0  0  0  0
 12 31  1  0  0  0  0
 12 32  1  0  0  0  0
 13 14  1  0  0  0  0
 13 33  1  0  0  0  0
 13 34  1  0  0  0  0
 14 15  1  0  0  0  0
 14 19  1  0  0  0  0
 14 43  1  0  0  0  0
 15 16  1  0  0  0  0
 15 35  1  0  0  0  0
 15 36  1  0  0  0  0
 16 17  1  0  0  0  0
 16 18  2  0  0  0  0
 17 37  1  0  0  0  0
 19 20  1  0  0  0  0
 19 38  1  0  0  0  0
 19 39  1  0  0  0  0
 20 40  1  0  0  0  0
 20 41  1  0  0  0  0
 21 22  2  0  0  0  0
 21 42  1  0  0  0  0
M  CHG  1  14   1
M  CHG  1  17  -1
M  END
> <s_m_source_file>
AV-unprocessed.smi

> <i_m_source_file_index>
1423

> <i_lp_mmshare_version>
43012

> <i_f3d_flags>
0

> <s_epik_input>
W0NIM11PYzFbY0hdW2NIXWMoW2NIXW4xKVtOSF1DKD1PKVtOSF1bQ0hdMltDSDJdW0NIMl1OKFtDSDJdW0NIMl0yKVtDSDJdQyg9TylbTkgyXQ==

> <s_epik_cmdline>
J2VwaWtfcHl0aG9uJywgJy1waCcsICc3LjAnLCAnLXRuJywgJzgnLCAnLW1hJywgJzIwMCcsICctbWV0YWxfYmluZGluZycsICctaW1hZScsICc8aW5maWxlLm1hZT4nLCAnLW9tYWUnLCAnPG91dGZpbGUubWFlPic=

> <r_lp_tautomer_probability>
1

> <r_epik_Ionization_Penalty>
5.72888

> <r_epik_Ionization_Penalty_Charging>
5.7288

> <r_epik_Ionization_Penalty_Neutral>
7.8452e-05

> <r_epik_State_Penalty>
6.54882

> <r_epik_Charging_Adjusted_Penalty>
12.2776

> <i_epik_Tot_Q>
0

> <i_epik_Tot_abs_Q>
2

> <r_epik_Metal_State_Penalty>
2.51301

> <b_epik_Metal_Only>
1

> <s_lp_Force_Field>
OPLS_2005

> <r_lp_Energy>
11.3515

> <b_lp_Chiralities_Consistent>
1

> <s_lp_Variant>
AV-unprocessed.smi:1423-5

> <Gold.Version>
5.8.1

> <Gold.Id.Protein>
6NUR|6NUR_protein|mol2

> <Gold.PLP.Fitness>
44.8184

> <Gold.PLP.PLP>
-27.4674

> <Gold.PLP.part.hbond>
-6.9007

> <Gold.PLP.part.metal>
0.0000

> <Gold.PLP.part.buried>
-2.7343

> <Gold.PLP.part.nonpolar>
-19.0736

> <Gold.PLP.part.repulsive>
1.4938

> <Gold.PLP.ligand.clash>
0.0535

> <Gold.PLP.ligand.torsion>
0.7052

> <Gold.PLP.Chemscore.Hbond>
5.7258

> <Gold.PLP.Chemscore.CHOScore>
0.5294

> <Gold.PLP.Chemscore.Metal>
0.0000

> <Gold.Chemscore.Hbonds>
donor molecule, donor type, donor heavy atom, donor atom, acceptor molecule, acceptor atom, score
      L1  H     7    28       P1  7948  0.99
      L1  H    10    29       P1  7948  0.86
      L1  H    17    37       P1  7921  1.00
      P1  H  7989  7998       L1    22  0.98
      P1  H  7997  8009       L1     2  0.84
      P1  H 10785 10796       L1    18  1.00
      L1  C    21    42       P1  7949  0.51

> <Gold.PLP.Chemscore.Internal.Correction>
0.0496

> <Gold.Rescore>
     Score         DG    S(hbond)    S(metal)    S(lipo)     H(rot)  DE(clash)    DE(int)     intcor
     18.45     -21.17       4.72        0.00      49.37       2.29       0.36       2.35       ----

> <Gold.Chemscore.Fitness>
18.4535

> <Gold.Chemscore.DG>
-21.1658

> <Gold.Chemscore.ZeroCoef>
-5.4800

> <Gold.Chemscore.Hbond>
4.7217

> <Gold.Chemscore.Metal>
0.0000

> <Gold.Chemscore.Lipo>
49.3670

> <Gold.Chemscore.Internal_Hbond>
0.0000

> <Gold.Chemscore.DEClash>
0.3601

> <Gold.Chemscore.DEInternal>
2.3521

> <Gold.Chemscore.Rot>
2.2894

> <Gold.Chemscore.Internal.Correction>
   9.000000E+99

> <Gold.Chemscore.Hbonds>
donor molecule, donor type, donor heavy atom, donor atom, acceptor molecule, acceptor atom, score
      L1  H     7    28       P1  7948  0.92
      L1  H    10    29       P1  7948  0.85
      L1  H    17    37       P1  7921  0.29
      P1  H  7989  7998       L1    22  0.17
      P1  H  7997  8009       L1     2  0.23
      P1  H 10785 10796       L1    18  0.58

> <Gold.Chemscore.Hbond.Weighted>
-15.7706

> <Gold.Chemscore.Metal.Weighted>
-0.0000

> <Gold.Chemscore.Lipo.Weighted>
-5.7759

> <Gold.Chemscore.Internal_Hbond.Weighted>
0.0000

> <Gold.Chemscore.DEClash.Weighted>
0.3601

> <Gold.Chemscore.DEInternal.Weighted>
2.3521

> <Gold.Chemscore.Rot.Weighted>
5.8608

> <Gold.Chemscore.Internal.Correction.Weighted>
   9.000000E+99

> <Gold.Protein.RotatedTorsions>
[ 6907 6896 6895 6894 ] final  -82.39 input  -60.11 | X-H torsion
[ 7974 7965 7964 7962 ] final  139.34 input  175.53 | X-H torsion
[ 8008 7997 7996 7995 ] final -166.72 input   59.86 | X-H torsion
[ 10167 10162 10161 10158 ] final -157.99 input  -65.29 | X-H torsion
[ 10718 10713 10712 10709 ] final  -92.00 input   66.30 | X-H torsion
[ 10763 10752 10751 10750 ] final  -39.64 input  -60.55 | X-H torsion
[ 11005 11000 10999 10996 ] final -144.39 input  -57.11 | X-H torsion

> <Gold.Protein.ActiveResidues>
 VAL166  LYS551  ARG553  GLY616  TRP617  ASP618  TYR619  PRO620  LYS621  CYS622 
 ASP623  PHE694  ASN695  SER759  ASP760  ASP761  ALA762  ILE779  LEU786  VAL792 
 PHE793  MET794  SER795  GLU796  ALA797  LYS798  CYS799  TRP800  GLU811  SER814 

> <Gold.Protein.RotatedAtoms>
  150.6898  134.3672  159.4975 H   0  0  0  0  0  0  0  0  0  0  0  0  # atno 6907 bound_to 6896
  152.1493  134.8998  160.0558 H   0  0  0  0  0  0  0  0  0  0  0  0  # atno 6908 bound_to 6896
  152.0102  133.3824  159.4254 H   0  0  0  0  0  0  0  0  0  0  0  0  # atno 6909 bound_to 6896
  144.9288  139.5074  143.5628 H   0  0  0  0  0  0  0  0  0  0  0  0  # atno 7974 bound_to 7965
  155.8678  140.0988  157.1570 H   0  0  0  0  0  0  0  0  0  0  0  0  # atno 8008 bound_to 7997
  154.3995  140.1353  156.4103 H   0  0  0  0  0  0  0  0  0  0  0  0  # atno 8009 bound_to 7997
  155.7784  140.3459  155.5287 H   0  0  0  0  0  0  0  0  0  0  0  0  # atno 8010 bound_to 7997
  139.6727  143.9717  152.2293 H   0  0  0  0  0  0  0  0  0  0  0  0  # atno 10167 bound_to 10162
  155.9998  130.4970  150.5559 H   0  0  0  0  0  0  0  0  0  0  0  0  # atno 10718 bound_to 10713
  153.9328  135.6770  153.4745 H   0  0  0  0  0  0  0  0  0  0  0  0  # atno 10763 bound_to 10752
  153.0971  135.4846  154.8796 H   0  0  0  0  0  0  0  0  0  0  0  0  # atno 10764 bound_to 10752
  154.7419  135.3163  154.8671 H   0  0  0  0  0  0  0  0  0  0  0  0  # atno 10765 bound_to 10752
  140.8029  134.2835  157.4971 H   0  0  0  0  0  0  0  0  0  0  0  0  # atno 11005 bound_to 11000
  146.3238  139.8222  142.8924 LP  0  0  0  0  0  0  0  0  0  0  0  0  # atno 17320 bound_to 7965
  145.3176  141.0236  143.3519 LP  0  0  0  0  0  0  0  0  0  0  0  0  # atno 17321 bound_to 7965
  139.9486  144.6635  150.8195 LP  0  0  0  0  0  0  0  0  0  0  0  0  # atno 17342 bound_to 10162
  140.7624  143.3197  151.2650 LP  0  0  0  0  0  0  0  0  0  0  0  0  # atno 17343 bound_to 10162
  157.3476  131.0728  151.1739 LP  0  0  0  0  0  0  0  0  0  0  0  0  # atno 17370 bound_to 10713
  157.2566  130.6639  149.5955 LP  0  0  0  0  0  0  0  0  0  0  0  0  # atno 17371 bound_to 10713
  139.8720  134.9440  156.3868 LP  0  0  0  0  0  0  0  0  0  0  0  0  # atno 17394 bound_to 11000
  140.9276  133.7601  155.9984 LP  0  0  0  0  0  0  0  0  0  0  0  0  # atno 17395 bound_to 11000

$$$$
