AV-unprocessed.smi:213|AV-procd|sdf|1638|dock9
  -GOLD-   2262020 03D 1   1.00000     0.00000
 Structure written by MMmdl.
 59 62  0  0  0  0  0  0  0  0  2 V2000
  150.9077  139.7055  155.9873 C   0  0  0  0  0  0  0  0  0  0  0  0
  150.1346  140.1000  157.2591 C   0  0  1  0  0  0  0  0  0  0  0  0
  150.2160  141.6148  157.5536 C   0  0  0  0  0  0  0  0  0  0  0  0
  151.4649  141.9997  158.2598 N   0  3  0  0  0  0  0  0  0  0  0  0
  151.6080  143.4688  158.3987 C   0  0  0  0  0  0  0  0  0  0  0  0
  152.9422  143.8185  159.0798 C   0  0  0  0  0  0  0  0  0  0  0  0
  153.0165  143.1712  160.3437 O   0  0  0  0  0  0  0  0  0  0  0  0
  152.9681  141.7554  160.2198 C   0  0  0  0  0  0  0  0  0  0  0  0
  151.6344  141.3377  159.5774 C   0  0  0  0  0  0  0  0  0  0  0  0
  148.7403  139.6464  157.1815 N   0  0  0  0  0  0  0  0  0  0  0  0
  147.6385  140.5949  157.3203 C   0  0  0  0  0  0  0  0  0  0  0  0
  148.4927  138.4715  156.5462 C   0  0  0  0  0  0  0  0  0  0  0  0
  149.2884  137.4107  156.8437 N   0  0  0  0  0  0  0  0  0  0  0  0
  149.0869  136.2269  156.2579 C   0  0  0  0  0  0  0  0  0  0  0  0
  148.1629  135.8887  155.3576 N   0  0  0  0  0  0  0  0  0  0  0  0
  147.3627  136.9485  155.0494 C   0  0  0  0  0  0  0  0  0  0  0  0
  147.4531  138.2629  155.5915 C   0  0  0  0  0  0  0  0  0  0  0  0
  146.4718  139.0691  155.0230 N   0  0  0  0  0  0  0  0  0  0  0  0
  145.8372  138.2778  154.2018 C   0  0  0  0  0  0  0  0  0  0  0  0
  146.3099  136.9868  154.1534 N   0  0  0  0  0  0  0  0  0  0  0  0
  145.8056  135.9017  153.3303 C   0  0  0  0  0  0  0  0  0  0  0  0
  145.6156  136.3216  151.8593 C   0  0  2  0  0  0  0  0  0  0  0  0
  144.4837  137.1654  151.7598 O   0  0  0  0  0  0  0  0  0  0  0  0
  145.4193  135.1132  150.9256 C   0  0  1  0  0  0  0  0  0  0  0  0
  146.4710  134.0120  151.0837 C   0  0  0  0  0  0  0  0  0  0  0  0
  145.7448  132.7460  150.6528 C   0  0  0  0  0  0  0  0  0  0  0  0
  144.2736  133.1625  150.5886 C   0  0  0  0  0  0  0  0  0  0  0  0
  144.2223  134.4206  151.2449 O   0  0  0  0  0  0  0  0  0  0  0  0
  151.9683  139.9397  156.0793 H   0  0  0  0  0  0  0  0  0  0  0  0
  150.5298  140.2271  155.1077 H   0  0  0  0  0  0  0  0  0  0  0  0
  150.8284  138.6342  155.7988 H   0  0  0  0  0  0  0  0  0  0  0  0
  150.6191  139.5786  158.0827 H   0  0  0  0  0  0  0  0  0  0  0  0
  150.1647  142.1606  156.6111 H   0  0  0  0  0  0  0  0  0  0  0  0
  149.3559  141.9378  158.1427 H   0  0  0  0  0  0  0  0  0  0  0  0
  151.5657  143.9414  157.4167 H   0  0  0  0  0  0  0  0  0  0  0  0
  150.7751  143.8643  158.9823 H   0  0  0  0  0  0  0  0  0  0  0  0
  153.7877  143.5241  158.4556 H   0  0  0  0  0  0  0  0  0  0  0  0
  153.0168  144.8958  159.2294 H   0  0  0  0  0  0  0  0  0  0  0  0
  153.8139  141.4001  159.6287 H   0  0  0  0  0  0  0  0  0  0  0  0
  153.0635  141.3111  161.2107 H   0  0  0  0  0  0  0  0  0  0  0  0
  150.8056  141.6086  160.2334 H   0  0  0  0  0  0  0  0  0  0  0  0
  151.6146  140.2540  159.4698 H   0  0  0  0  0  0  0  0  0  0  0  0
  146.6943  140.0753  157.4873 H   0  0  0  0  0  0  0  0  0  0  0  0
  147.5409  141.2082  156.4244 H   0  0  0  0  0  0  0  0  0  0  0  0
  147.7941  141.2594  158.1688 H   0  0  0  0  0  0  0  0  0  0  0  0
  149.7619  135.4373  156.5535 H   0  0  0  0  0  0  0  0  0  0  0  0
  145.0069  138.6186  153.6005 H   0  0  0  0  0  0  0  0  0  0  0  0
  146.5097  135.0717  153.4003 H   0  0  0  0  0  0  0  0  0  0  0  0
  144.8643  135.5480  153.7533 H   0  0  0  0  0  0  0  0  0  0  0  0
  146.4875  136.8895  151.5317 H   0  0  0  0  0  0  0  0  0  0  0  0
  144.6564  137.8224  151.1031 H   0  0  0  0  0  0  0  0  0  0  0  0
  145.3713  135.4366  149.8837 H   0  0  0  0  0  0  0  0  0  0  0  0
  147.3690  134.2048  150.4962 H   0  0  0  0  0  0  0  0  0  0  0  0
  146.7694  133.9205  152.1291 H   0  0  0  0  0  0  0  0  0  0  0  0
  146.0900  132.3911  149.6812 H   0  0  0  0  0  0  0  0  0  0  0  0
  145.9027  131.9472  151.3782 H   0  0  0  0  0  0  0  0  0  0  0  0
  143.9548  133.2858  149.5525 H   0  0  0  0  0  0  0  0  0  0  0  0
  143.6106  132.4400  151.0648 H   0  0  0  0  0  0  0  0  0  0  0  0
  152.2301  141.6957  157.6745 H   0  0  0  0  0  0  0  0  0  0  0  0
  1  2  1  0  0  0  0
  1 29  1  0  0  0  0
  1 30  1  0  0  0  0
  1 31  1  0  0  0  0
  2  3  1  0  0  0  0
  2 10  1  0  0  0  0
  2 32  1  0  0  0  0
  3  4  1  0  0  0  0
  3 33  1  0  0  0  0
  3 34  1  0  0  0  0
  4  9  1  0  0  0  0
  4  5  1  0  0  0  0
  4 59  1  0  0  0  0
  5  6  1  0  0  0  0
  5 35  1  0  0  0  0
  5 36  1  0  0  0  0
  6  7  1  0  0  0  0
  6 37  1  0  0  0  0
  6 38  1  0  0  0  0
  7  8  1  0  0  0  0
  8  9  1  0  0  0  0
  8 39  1  0  0  0  0
  8 40  1  0  0  0  0
  9 41  1  0  0  0  0
  9 42  1  0  0  0  0
 10 11  1  0  0  0  0
 10 12  1  0  0  0  0
 11 43  1  0  0  0  0
 11 44  1  0  0  0  0
 11 45  1  0  0  0  0
 12 17  1  0  0  0  0
 12 13  2  0  0  0  0
 13 14  1  0  0  0  0
 14 15  2  0  0  0  0
 14 46  1  0  0  0  0
 15 16  1  0  0  0  0
 16 20  1  0  0  0  0
 16 17  2  0  0  0  0
 17 18  1  0  0  0  0
 18 19  2  0  0  0  0
 19 20  1  0  0  0  0
 19 47  1  0  0  0  0
 20 21  1  0  0  0  0
 21 22  1  0  0  0  0
 21 48  1  0  0  0  0
 21 49  1  0  0  0  0
 22 23  1  0  0  0  0
 22 24  1  0  0  0  0
 22 50  1  0  0  0  0
 23 51  1  0  0  0  0
 24 28  1  0  0  0  0
 24 25  1  0  0  0  0
 24 52  1  0  0  0  0
 25 26  1  0  0  0  0
 25 53  1  0  0  0  0
 25 54  1  0  0  0  0
 26 27  1  0  0  0  0
 26 55  1  0  0  0  0
 26 56  1  0  0  0  0
 27 28  1  0  0  0  0
 27 57  1  0  0  0  0
 27 58  1  0  0  0  0
M  CHG  1   4   1
M  END
> <s_m_source_file>
AV-unprocessed.smi

> <i_m_source_file_index>
213

> <i_lp_mmshare_version>
43012

> <i_f3d_flags>
0

> <s_epik_input>
W0NIMl0xW0NIMl1PW0NIMl1bQ0gyXU4xW0NIMl1bQ0BASF0oW0NIM10pTihbQ0gzXSljKG5bY0hdbjIpYyhjMjMpbltjSF1uM1tDSDJdW0NASF0oW09IXSlbQ0BASF00W0NIMl1bQ0gyXVtDSDJdTzQ=

> <s_epik_cmdline>
J2VwaWtfcHl0aG9uJywgJy1waCcsICc3LjAnLCAnLXRuJywgJzgnLCAnLW1hJywgJzIwMCcsICctbWV0YWxfYmluZGluZycsICctaW1hZScsICc8aW5maWxlLm1hZT4nLCAnLW9tYWUnLCAnPG91dGZpbGUubWFlPic=

> <r_lp_tautomer_probability>
1

> <r_epik_Ionization_Penalty>
0.399679

> <r_epik_Ionization_Penalty_Charging>
0.399433

> <r_epik_Ionization_Penalty_Neutral>
0.000246213

> <r_epik_State_Penalty>
0.286032

> <r_epik_Charging_Adjusted_Penalty>
0.685465

> <i_epik_Tot_Q>
1

> <i_epik_Tot_abs_Q>
1

> <r_epik_Metal_State_Penalty>
0.286072

> <b_epik_Metal_Only>
0

> <s_lp_Force_Field>
OPLS_2005

> <r_lp_Energy>
45.5564

> <b_lp_Chiralities_Consistent>
1

> <s_lp_Variant>
AV-unprocessed.smi:213-6

> <Gold.Version>
5.8.1

> <Gold.Id.Protein>
6NUR|6NUR_protein|mol2

> <Gold.PLP.Fitness>
43.5978

> <Gold.PLP.PLP>
-39.5022

> <Gold.PLP.part.hbond>
-0.8608

> <Gold.PLP.part.metal>
0.0000

> <Gold.PLP.part.buried>
-7.4348

> <Gold.PLP.part.nonpolar>
-32.0335

> <Gold.PLP.part.repulsive>
0.3568

> <Gold.PLP.ligand.clash>
0.0000

> <Gold.PLP.ligand.torsion>
1.3977

> <Gold.PLP.Chemscore.Hbond>
1.0000

> <Gold.PLP.Chemscore.CHOScore>
1.0000

> <Gold.PLP.Chemscore.Metal>
0.0000

> <Gold.Chemscore.Hbonds>
donor molecule, donor type, donor heavy atom, donor atom, acceptor molecule, acceptor atom, score
      L1  H    23    51       P1 10171  0.78
      L1  C    19    47       P1 10175  0.98

> <Gold.PLP.Chemscore.Internal.Correction>
0.8909

> <Gold.Rescore>
     Score         DG    S(hbond)    S(metal)    S(lipo)     H(rot)  DE(clash)    DE(int)     intcor
     10.95     -13.42       0.99        0.00     101.41       2.83       0.01       2.47       ----

> <Gold.Chemscore.Fitness>
10.9452

> <Gold.Chemscore.DG>
-13.4166

> <Gold.Chemscore.ZeroCoef>
-5.4800

> <Gold.Chemscore.Hbond>
0.9893

> <Gold.Chemscore.Metal>
0.0000

> <Gold.Chemscore.Lipo>
101.4139

> <Gold.Chemscore.Internal_Hbond>
0.0000

> <Gold.Chemscore.DEClash>
0.0058

> <Gold.Chemscore.DEInternal>
2.4656

> <Gold.Chemscore.Rot>
2.8254

> <Gold.Chemscore.Internal.Correction>
   9.000000E+99

> <Gold.Chemscore.Hbonds>
donor molecule, donor type, donor heavy atom, donor atom, acceptor molecule, acceptor atom, score
      L1  H    23    51       P1 10171  0.78

> <Gold.Chemscore.Hbond.Weighted>
-3.3041

> <Gold.Chemscore.Metal.Weighted>
-0.0000

> <Gold.Chemscore.Lipo.Weighted>
-11.8654

> <Gold.Chemscore.Internal_Hbond.Weighted>
0.0000

> <Gold.Chemscore.DEClash.Weighted>
0.0058

> <Gold.Chemscore.DEInternal.Weighted>
2.4656

> <Gold.Chemscore.Rot.Weighted>
7.2330

> <Gold.Chemscore.Internal.Correction.Weighted>
   9.000000E+99

> <Gold.Protein.RotatedTorsions>
[ 6907 6896 6895 6894 ] final  147.20 input  -60.11 | X-H torsion
[ 7974 7965 7964 7962 ] final  -74.94 input  175.53 | X-H torsion
[ 8008 7997 7996 7995 ] final -166.35 input   59.86 | X-H torsion
[ 10167 10162 10161 10158 ] final   12.92 input  -65.29 | X-H torsion
[ 10718 10713 10712 10709 ] final   64.70 input   66.30 | X-H torsion
[ 10763 10752 10751 10750 ] final -141.26 input  -60.55 | X-H torsion
[ 11005 11000 10999 10996 ] final -139.76 input  -57.11 | X-H torsion

> <Gold.Protein.ActiveResidues>
 VAL166  LYS551  ARG553  GLY616  TRP617  ASP618  TYR619  PRO620  LYS621  CYS622 
 ASP623  PHE694  ASN695  SER759  ASP760  ASP761  ALA762  ILE779  LEU786  VAL792 
 PHE793  MET794  SER795  GLU796  ALA797  LYS798  CYS799  TRP800  GLU811  SER814 

> <Gold.Protein.RotatedAtoms>
  152.1580  133.4563  159.4846 H   0  0  0  0  0  0  0  0  0  0  0  0  # atno 6907 bound_to 6896
  150.6903  134.2107  159.4367 H   0  0  0  0  0  0  0  0  0  0  0  0  # atno 6908 bound_to 6896
  152.0008  134.9929  160.0615 H   0  0  0  0  0  0  0  0  0  0  0  0  # atno 6909 bound_to 6896
  145.6326  140.9333  143.1079 H   0  0  0  0  0  0  0  0  0  0  0  0  # atno 7974 bound_to 7965
  155.8625  140.0980  157.1604 H   0  0  0  0  0  0  0  0  0  0  0  0  # atno 8008 bound_to 7997
  154.3991  140.1362  156.4041 H   0  0  0  0  0  0  0  0  0  0  0  0  # atno 8009 bound_to 7997
  155.7840  140.3457  155.5315 H   0  0  0  0  0  0  0  0  0  0  0  0  # atno 8010 bound_to 7997
  140.6037  143.8552  150.6991 H   0  0  0  0  0  0  0  0  0  0  0  0  # atno 10167 bound_to 10162
  157.6057  130.9174  149.9879 H   0  0  0  0  0  0  0  0  0  0  0  0  # atno 10718 bound_to 10713
  154.8551  135.3529  154.5839 H   0  0  0  0  0  0  0  0  0  0  0  0  # atno 10763 bound_to 10752
  153.6450  135.6996  153.5233 H   0  0  0  0  0  0  0  0  0  0  0  0  # atno 10764 bound_to 10752
  153.2940  135.4226  155.1151 H   0  0  0  0  0  0  0  0  0  0  0  0  # atno 10765 bound_to 10752
  140.8488  134.2311  157.4771 H   0  0  0  0  0  0  0  0  0  0  0  0  # atno 11005 bound_to 11000
  144.7188  139.8103  143.7389 LP  0  0  0  0  0  0  0  0  0  0  0  0  # atno 17320 bound_to 7965
  146.1345  139.4387  143.0148 LP  0  0  0  0  0  0  0  0  0  0  0  0  # atno 17321 bound_to 7965
  140.2104  143.3888  152.1722 LP  0  0  0  0  0  0  0  0  0  0  0  0  # atno 17342 bound_to 10162
  139.5309  144.7158  151.5059 LP  0  0  0  0  0  0  0  0  0  0  0  0  # atno 17343 bound_to 10162
  156.1142  130.3648  149.9996 LP  0  0  0  0  0  0  0  0  0  0  0  0  # atno 17370 bound_to 10713
  156.8089  130.9317  151.3644 LP  0  0  0  0  0  0  0  0  0  0  0  0  # atno 17371 bound_to 10713
  139.8704  134.9673  156.4591 LP  0  0  0  0  0  0  0  0  0  0  0  0  # atno 17394 bound_to 11000
  140.8813  133.7916  155.9470 LP  0  0  0  0  0  0  0  0  0  0  0  0  # atno 17395 bound_to 11000

$$$$
