AV-unprocessed.smi:578|AV-procd|sdf|2982|dock6
  -GOLD-   2262023493D 1   1.00000     0.00000
 Structure written by MMmdl.
 33 34  0  0  0  0  0  0  0  0  3 V2000
  151.9070  145.3977  158.9127 C   0  0  0  0  0  0  0  0  0  0  0  0
  152.6431  144.1003  159.2628 C   0  0  2  0  0  0  0  0  0  0  0  0
  152.0930  142.8928  158.4796 C   0  0  0  0  0  0  0  0  0  0  0  0
  152.7560  141.6706  158.9148 N   0  0  0  0  0  0  0  0  0  0  0  0
  152.3910  140.5441  158.1651 C   0  0  0  0  0  0  0  0  0  0  0  0
  151.5034  140.6978  157.0788 C   0  0  0  0  0  0  0  0  0  0  0  0
  151.1344  139.5665  156.3246 C   0  0  0  0  0  0  0  0  0  0  0  0
  151.6313  138.3538  156.6479 N   0  3  0  0  0  0  0  0  0  0  0  0
  152.4841  138.1495  157.6779 C   0  0  0  0  0  0  0  0  0  0  0  0
  152.9737  136.7573  157.9472 C   0  0  0  0  0  0  0  0  0  0  0  0
  153.0370  135.9475  156.9961 O   0  0  0  0  0  0  0  0  0  0  0  0
  153.3014  136.4565  159.1167 O   0  5  0  0  0  0  0  0  0  0  0  0
  152.8855  139.2529  158.4658 C   0  0  0  0  0  0  0  0  0  0  0  0
  152.6577  141.4670  160.3544 C   0  0  0  0  0  0  0  0  0  0  0  0
  153.1976  142.7019  161.1006 C   0  0  2  0  0  0  0  0  0  0  0  0
  153.0257  142.5789  162.6182 C   0  0  0  0  0  0  0  0  0  0  0  0
  152.4883  143.8582  160.6599 O   0  0  0  0  0  0  0  0  0  0  0  0
  152.0061  145.6313  157.8523 H   0  0  0  0  0  0  0  0  0  0  0  0
  152.3108  146.2387  159.4770 H   0  0  0  0  0  0  0  0  0  0  0  0
  150.8435  145.3231  159.1414 H   0  0  0  0  0  0  0  0  0  0  0  0
  153.7033  144.2317  159.0389 H   0  0  0  0  0  0  0  0  0  0  0  0
  151.0171  142.8062  158.6380 H   0  0  0  0  0  0  0  0  0  0  0  0
  152.2518  143.0358  157.4098 H   0  0  0  0  0  0  0  0  0  0  0  0
  151.1088  141.6712  156.8252 H   0  0  0  0  0  0  0  0  0  0  0  0
  150.4624  139.5934  155.4796 H   0  0  0  0  0  0  0  0  0  0  0  0
  153.5655  139.1110  159.2936 H   0  0  0  0  0  0  0  0  0  0  0  0
  151.6178  141.2905  160.6332 H   0  0  0  0  0  0  0  0  0  0  0  0
  153.2240  140.5792  160.6391 H   0  0  0  0  0  0  0  0  0  0  0  0
  154.2592  142.8293  160.8810 H   0  0  0  0  0  0  0  0  0  0  0  0
  153.5616  141.7114  163.0047 H   0  0  0  0  0  0  0  0  0  0  0  0
  151.9751  142.4718  162.8900 H   0  0  0  0  0  0  0  0  0  0  0  0
  153.4129  143.4620  163.1268 H   0  0  0  0  0  0  0  0  0  0  0  0
  151.3551  137.5431  156.0927 H   0  0  0  0  0  0  0  0  0  0  0  0
  1  2  1  0  0  0  0
  1 18  1  0  0  0  0
  1 19  1  0  0  0  0
  1 20  1  0  0  0  0
  2 17  1  0  0  0  0
  2  3  1  0  0  0  0
  2 21  1  0  0  0  0
  3  4  1  0  0  0  0
  3 22  1  0  0  0  0
  3 23  1  0  0  0  0
  4  5  1  0  0  0  0
  4 14  1  0  0  0  0
  5 13  1  0  0  0  0
  5  6  2  0  0  0  0
  6  7  1  0  0  0  0
  6 24  1  0  0  0  0
  7  8  2  0  0  0  0
  7 25  1  0  0  0  0
  8  9  1  0  0  0  0
  8 33  1  0  0  0  0
  9 10  1  0  0  0  0
  9 13  2  0  0  0  0
 10 11  2  0  0  0  0
 10 12  1  0  0  0  0
 13 26  1  0  0  0  0
 14 15  1  0  0  0  0
 14 27  1  0  0  0  0
 14 28  1  0  0  0  0
 15 16  1  0  0  0  0
 15 17  1  0  0  0  0
 15 29  1  0  0  0  0
 16 30  1  0  0  0  0
 16 31  1  0  0  0  0
 16 32  1  0  0  0  0
M  CHG  1   8   1
M  CHG  1  12  -1
M  END
> <s_m_source_file>
AV-unprocessed.smi

> <i_m_source_file_index>
578

> <i_lp_mmshare_version>
43012

> <i_f3d_flags>
0

> <s_epik_input>
W0NIM11bQ0BASF0xW0NIMl1OKFtDSDJdW0NASF0oTzEpW0NIM10pYzJbY0hdW2NIXW5jKFtjSF0yKUMoPU8pW09IXQ==

> <s_epik_cmdline>
J2VwaWtfcHl0aG9uJywgJy1waCcsICc3LjAnLCAnLXRuJywgJzgnLCAnLW1hJywgJzIwMCcsICctbWV0YWxfYmluZGluZycsICctaW1hZScsICc8aW5maWxlLm1hZT4nLCAnLW9tYWUnLCAnPG91dGZpbGUubWFlPic=

> <r_epik_Ionization_Penalty>
0.0203651

> <r_epik_Ionization_Penalty_Charging>
0.0203651

> <r_epik_Ionization_Penalty_Neutral>
3.18831e-12

> <r_epik_State_Penalty>
0.0163096

> <r_epik_Charging_Adjusted_Penalty>
0.0366747

> <i_epik_Tot_Q>
0

> <i_epik_Tot_abs_Q>
2

> <r_epik_Metal_State_Penalty>
1.99323

> <b_epik_Metal_Only>
0

> <s_lp_Force_Field>
OPLS_2005

> <r_lp_Energy>
16.452

> <b_lp_Chiralities_Consistent>
1

> <s_lp_Variant>
AV-unprocessed.smi:578-2

> <Gold.Version>
5.8.1

> <Gold.Id.Protein>
6NUR|6NUR_protein|mol2

> <Gold.PLP.Fitness>
41.1949

> <Gold.PLP.PLP>
-32.8835

> <Gold.PLP.part.hbond>
-2.0000

> <Gold.PLP.part.metal>
0.0000

> <Gold.PLP.part.buried>
-4.6770

> <Gold.PLP.part.nonpolar>
-27.4009

> <Gold.PLP.part.repulsive>
0.1309

> <Gold.PLP.ligand.clash>
2.8718

> <Gold.PLP.ligand.torsion>
0.4577

> <Gold.PLP.Chemscore.Hbond>
4.0000

> <Gold.PLP.Chemscore.CHOScore>
0.0000

> <Gold.PLP.Chemscore.Metal>
0.0000

> <Gold.Chemscore.Hbonds>
donor molecule, donor type, donor heavy atom, donor atom, acceptor molecule, acceptor atom, score
      P1  H  6896  6909       L1    12  1.68
      P1  H 10752 10764       L1    11  2.00

> <Gold.PLP.Chemscore.Internal.Correction>
0.0986

> <Gold.Rescore>
     Score         DG    S(hbond)    S(metal)    S(lipo)     H(rot)  DE(clash)    DE(int)     intcor
     20.40     -20.99       1.93        0.00      99.20       1.00       0.01       0.57       ----

> <Gold.Chemscore.Fitness>
20.4022

> <Gold.Chemscore.DG>
-20.9877

> <Gold.Chemscore.ZeroCoef>
-5.4800

> <Gold.Chemscore.Hbond>
1.9344

> <Gold.Chemscore.Metal>
0.0000

> <Gold.Chemscore.Lipo>
99.2031

> <Gold.Chemscore.Internal_Hbond>
0.0000

> <Gold.Chemscore.DEClash>
0.0149

> <Gold.Chemscore.DEInternal>
0.5706

> <Gold.Chemscore.Rot>
1.0000

> <Gold.Chemscore.Internal.Correction>
   9.000000E+99

> <Gold.Chemscore.Hbonds>
donor molecule, donor type, donor heavy atom, donor atom, acceptor molecule, acceptor atom, score
      P1  H  6896  6909       L1    12  0.74
      P1  H 10752 10764       L1    11  1.00

> <Gold.Chemscore.Hbond.Weighted>
-6.4610

> <Gold.Chemscore.Metal.Weighted>
-0.0000

> <Gold.Chemscore.Lipo.Weighted>
-11.6068

> <Gold.Chemscore.Internal_Hbond.Weighted>
0.0000

> <Gold.Chemscore.DEClash.Weighted>
0.0149

> <Gold.Chemscore.DEInternal.Weighted>
0.5706

> <Gold.Chemscore.Rot.Weighted>
2.5600

> <Gold.Chemscore.Internal.Correction.Weighted>
   9.000000E+99

> <Gold.Protein.RotatedTorsions>
[ 6907 6896 6895 6894 ] final  159.85 input  -60.11 | X-H torsion
[ 7974 7965 7964 7962 ] final   99.90 input  175.53 | X-H torsion
[ 8008 7997 7996 7995 ] final -130.90 input   59.86 | X-H torsion
[ 10167 10162 10161 10158 ] final -132.26 input  -65.29 | X-H torsion
[ 10718 10713 10712 10709 ] final -174.67 input   66.30 | X-H torsion
[ 10763 10752 10751 10750 ] final   -0.45 input  -60.55 | X-H torsion
[ 11005 11000 10999 10996 ] final    2.08 input  -57.11 | X-H torsion

> <Gold.Protein.ActiveResidues>
 VAL166  LYS551  ARG553  GLY616  TRP617  ASP618  TYR619  PRO620  LYS621  CYS622 
 ASP623  PHE694  ASN695  SER759  ASP760  ASP761  ALA762  ILE779  LEU786  VAL792 
 PHE793  MET794  SER795  GLU796  ALA797  LYS798  CYS799  TRP800  GLU811  SER814 

> <Gold.Protein.RotatedAtoms>
  151.9795  133.3753  159.4101 H   0  0  0  0  0  0  0  0  0  0  0  0  # atno 6907 bound_to 6896
  150.6937  134.4054  159.5147 H   0  0  0  0  0  0  0  0  0  0  0  0  # atno 6908 bound_to 6896
  152.1771  134.8785  160.0580 H   0  0  0  0  0  0  0  0  0  0  0  0  # atno 6909 bound_to 6896
  145.3927  139.2360  143.3343 H   0  0  0  0  0  0  0  0  0  0  0  0  # atno 7974 bound_to 7965
  155.3034  140.0454  157.3031 H   0  0  0  0  0  0  0  0  0  0  0  0  # atno 8008 bound_to 7997
  154.5473  140.2306  155.8508 H   0  0  0  0  0  0  0  0  0  0  0  0  # atno 8009 bound_to 7997
  156.1936  140.3044  155.9388 H   0  0  0  0  0  0  0  0  0  0  0  0  # atno 8010 bound_to 7997
  139.9104  143.6500  152.2576 H   0  0  0  0  0  0  0  0  0  0  0  0  # atno 10167 bound_to 10162
  156.7885  130.9509  151.3120 H   0  0  0  0  0  0  0  0  0  0  0  0  # atno 10718 bound_to 10713
  153.3320  135.6975  153.6939 H   0  0  0  0  0  0  0  0  0  0  0  0  # atno 10763 bound_to 10752
  153.5738  135.3511  155.2849 H   0  0  0  0  0  0  0  0  0  0  0  0  # atno 10764 bound_to 10752
  154.8620  135.4278  154.2512 H   0  0  0  0  0  0  0  0  0  0  0  0  # atno 10765 bound_to 10752
  140.6082  133.9772  155.8164 H   0  0  0  0  0  0  0  0  0  0  0  0  # atno 11005 bound_to 11000
  146.2790  140.4613  142.8784 LP  0  0  0  0  0  0  0  0  0  0  0  0  # atno 17320 bound_to 7965
  144.8429  140.6884  143.6218 LP  0  0  0  0  0  0  0  0  0  0  0  0  # atno 17321 bound_to 7965
  139.6947  144.7643  151.1377 LP  0  0  0  0  0  0  0  0  0  0  0  0  # atno 17342 bound_to 10162
  140.7686  143.5540  150.9173 LP  0  0  0  0  0  0  0  0  0  0  0  0  # atno 17343 bound_to 10162
  157.6612  130.8968  149.9834 LP  0  0  0  0  0  0  0  0  0  0  0  0  # atno 17370 bound_to 10713
  156.1174  130.3647  149.9946 LP  0  0  0  0  0  0  0  0  0  0  0  0  # atno 17371 bound_to 10713
  141.0826  134.0040  157.3363 LP  0  0  0  0  0  0  0  0  0  0  0  0  # atno 17394 bound_to 11000
  139.9203  135.0200  156.8039 LP  0  0  0  0  0  0  0  0  0  0  0  0  # atno 17395 bound_to 11000

$$$$
