AV-unprocessed.smi:3209|AV-procd|sdf|12269|dock3
  -GOLD-   2272018103D 1   1.00000     0.00000
 Structure written by MMmdl.
 37 39  0  0  0  0  0  0  0  0  2 V2000
  145.2476  143.0547  154.7806 C   0  0  0  0  0  0  0  0  0  0  0  0
  146.5101  142.2660  154.7057 C   0  0  0  0  0  0  0  0  0  0  0  0
  147.2948  142.0248  155.7594 N   0  0  0  0  0  0  0  0  0  0  0  0
  148.4217  141.2656  155.4299 C   0  0  0  0  0  0  0  0  0  0  0  0
  149.4128  140.9041  156.4942 C   0  0  0  0  0  0  0  0  0  0  0  0
  150.8008  141.4990  156.2213 C   0  0  0  0  0  0  0  0  0  0  0  0
  150.8409  142.9338  156.5699 N   0  3  0  0  0  0  0  0  0  0  0  0
  150.9576  143.2116  158.0182 C   0  0  1  0  0  0  0  0  0  0  0  0
  152.1580  142.4834  158.6672 C   0  0  0  0  0  0  0  0  0  0  0  0
  152.9692  143.6381  159.2827 C   0  0  2  0  0  0  0  0  0  0  0  0
  152.1958  144.2387  160.4713 C   0  0  0  0  0  0  0  0  0  0  0  0
  151.0457  144.9956  159.7799 C   0  0  0  0  0  0  0  0  0  0  0  0
  151.2892  144.6957  158.2886 C   0  0  1  0  0  0  0  0  0  0  0  0
  152.8137  144.7210  158.2224 C   0  0  0  0  0  0  0  0  0  0  0  0
  148.4761  140.9263  154.1007 C   0  0  0  0  0  0  0  0  0  0  0  0
  147.1135  141.5540  153.2143 S   0  0  0  0  0  0  0  0  0  0  0  0
  145.1612  143.5515  155.7475 H   0  0  0  0  0  0  0  0  0  0  0  0
  144.3893  142.3964  154.6468 H   0  0  0  0  0  0  0  0  0  0  0  0
  145.2341  143.8129  153.9976 H   0  0  0  0  0  0  0  0  0  0  0  0
  149.0544  141.2470  157.4657 H   0  0  0  0  0  0  0  0  0  0  0  0
  149.4914  139.8186  156.5710 H   0  0  0  0  0  0  0  0  0  0  0  0
  151.5553  140.9699  156.8050 H   0  0  0  0  0  0  0  0  0  0  0  0
  151.0581  141.3697  155.1694 H   0  0  0  0  0  0  0  0  0  0  0  0
  151.6168  143.3708  156.0934 H   0  0  0  0  0  0  0  0  0  0  0  0
  150.0182  142.9416  158.5034 H   0  0  0  0  0  0  0  0  0  0  0  0
  151.8446  141.7537  159.4146 H   0  0  0  0  0  0  0  0  0  0  0  0
  152.7614  141.9578  157.9253 H   0  0  0  0  0  0  0  0  0  0  0  0
  153.9989  143.3704  159.5213 H   0  0  0  0  0  0  0  0  0  0  0  0
  151.8365  143.4724  161.1594 H   0  0  0  0  0  0  0  0  0  0  0  0
  152.8234  144.9290  161.0367 H   0  0  0  0  0  0  0  0  0  0  0  0
  150.0637  144.6639  160.1194 H   0  0  0  0  0  0  0  0  0  0  0  0
  151.1207  146.0661  159.9758 H   0  0  0  0  0  0  0  0  0  0  0  0
  150.7834  145.3948  157.6215 H   0  0  0  0  0  0  0  0  0  0  0  0
  153.2444  145.6796  158.5176 H   0  0  0  0  0  0  0  0  0  0  0  0
  153.2132  144.4348  157.2479 H   0  0  0  0  0  0  0  0  0  0  0  0
  149.2315  140.3484  153.5888 H   0  0  0  0  0  0  0  0  0  0  0  0
  149.9834  143.3533  156.2401 H   0  0  0  0  0  0  0  0  0  0  0  0
  1  2  1  0  0  0  0
  1 17  1  0  0  0  0
  1 18  1  0  0  0  0
  1 19  1  0  0  0  0
  2 16  1  0  0  0  0
  2  3  2  0  0  0  0
  3  4  1  0  0  0  0
  4  5  1  0  0  0  0
  4 15  2  0  0  0  0
  5  6  1  0  0  0  0
  5 20  1  0  0  0  0
  5 21  1  0  0  0  0
  6  7  1  0  0  0  0
  6 22  1  0  0  0  0
  6 23  1  0  0  0  0
  7  8  1  0  0  0  0
  7 24  1  0  0  0  0
  7 37  1  0  0  0  0
  8 13  1  0  0  0  0
  8  9  1  0  0  0  0
  8 25  1  0  0  0  0
  9 10  1  0  0  0  0
  9 26  1  0  0  0  0
  9 27  1  0  0  0  0
 10 14  1  0  0  0  0
 10 11  1  0  0  0  0
 10 28  1  0  0  0  0
 11 12  1  0  0  0  0
 11 29  1  0  0  0  0
 11 30  1  0  0  0  0
 12 13  1  0  0  0  0
 12 31  1  0  0  0  0
 12 32  1  0  0  0  0
 13 14  1  0  0  0  0
 13 33  1  0  0  0  0
 14 34  1  0  0  0  0
 14 35  1  0  0  0  0
 15 16  1  0  0  0  0
 15 36  1  0  0  0  0
M  CHG  1   7   1
M  END
> <s_m_source_file>
AV-unprocessed.smi

> <i_m_source_file_index>
3209

> <i_lp_mmshare_version>
43012

> <i_f3d_flags>
0

> <s_epik_input>
W0NIM11jMW5jKFtjSF1zMSlbQ0gyXVtDSDJdW05IXVtDQEhdKFtDSDJdW0NASF0yMylbQ0BIXShbQ0gyXTMpW0NIMl1bQ0gyXTI=

> <s_epik_cmdline>
J2VwaWtfcHl0aG9uJywgJy1waCcsICc3LjAnLCAnLXRuJywgJzgnLCAnLW1hJywgJzIwMCcsICctbWV0YWxfYmluZGluZycsICctaW1hZScsICc8aW5maWxlLm1hZT4nLCAnLW9tYWUnLCAnPG91dGZpbGUubWFlPic=

> <r_lp_tautomer_probability>
1

> <r_epik_Ionization_Penalty>
0.000342479

> <r_epik_Ionization_Penalty_Charging>
0.000317129

> <r_epik_Ionization_Penalty_Neutral>
2.535e-05

> <r_epik_State_Penalty>
-0

> <r_epik_Charging_Adjusted_Penalty>
0.000317129

> <i_epik_Tot_Q>
1

> <i_epik_Tot_abs_Q>
1

> <r_epik_Metal_State_Penalty>
-0

> <b_epik_Metal_Only>
0

> <s_lp_Force_Field>
OPLS_2005

> <r_lp_Energy>
48.296

> <b_lp_Chiralities_Consistent>
1

> <s_lp_Variant>
AV-unprocessed.smi:3209-2

> <Gold.Version>
5.8.1

> <Gold.Id.Protein>
6NUR|6NUR_protein|mol2

> <Gold.PLP.Fitness>
50.3578

> <Gold.PLP.PLP>
-41.7495

> <Gold.PLP.part.hbond>
-1.0000

> <Gold.PLP.part.metal>
0.0000

> <Gold.PLP.part.buried>
-6.7490

> <Gold.PLP.part.nonpolar>
-35.0160

> <Gold.PLP.part.repulsive>
0.3459

> <Gold.PLP.ligand.clash>
0.0000

> <Gold.PLP.ligand.torsion>
0.2031

> <Gold.PLP.Chemscore.Hbond>
2.0000

> <Gold.PLP.Chemscore.CHOScore>
0.9989

> <Gold.PLP.Chemscore.Metal>
0.0000

> <Gold.Chemscore.Hbonds>
donor molecule, donor type, donor heavy atom, donor atom, acceptor molecule, acceptor atom, score
      L1  H     7    37       P1  8028  2.00
      L1  C    15    36       P1  7957  0.99

> <Gold.PLP.Chemscore.Internal.Correction>
0.0179

> <Gold.Rescore>
     Score         DG    S(hbond)    S(metal)    S(lipo)     H(rot)  DE(clash)    DE(int)     intcor
     19.95     -20.17       0.99        0.00     125.98       1.31       0.00       0.22       ----

> <Gold.Chemscore.Fitness>
19.9492

> <Gold.Chemscore.DG>
-20.1662

> <Gold.Chemscore.ZeroCoef>
-5.4800

> <Gold.Chemscore.Hbond>
0.9886

> <Gold.Chemscore.Metal>
0.0000

> <Gold.Chemscore.Lipo>
125.9833

> <Gold.Chemscore.Internal_Hbond>
0.0000

> <Gold.Chemscore.DEClash>
0.0019

> <Gold.Chemscore.DEInternal>
0.2151

> <Gold.Chemscore.Rot>
1.3108

> <Gold.Chemscore.Internal.Correction>
   9.000000E+99

> <Gold.Chemscore.Hbonds>
donor molecule, donor type, donor heavy atom, donor atom, acceptor molecule, acceptor atom, score
      L1  H     7    37       P1  8028  0.98

> <Gold.Chemscore.Hbond.Weighted>
-3.3019

> <Gold.Chemscore.Metal.Weighted>
-0.0000

> <Gold.Chemscore.Lipo.Weighted>
-14.7400

> <Gold.Chemscore.Internal_Hbond.Weighted>
0.0000

> <Gold.Chemscore.DEClash.Weighted>
0.0019

> <Gold.Chemscore.DEInternal.Weighted>
0.2151

> <Gold.Chemscore.Rot.Weighted>
3.3558

> <Gold.Chemscore.Internal.Correction.Weighted>
   9.000000E+99

> <Gold.Protein.RotatedTorsions>
[ 6907 6896 6895 6894 ] final  163.23 input  -60.11 | X-H torsion
[ 7974 7965 7964 7962 ] final -135.39 input  175.53 | X-H torsion
[ 8008 7997 7996 7995 ] final -128.63 input   59.86 | X-H torsion
[ 10167 10162 10161 10158 ] final  -25.51 input  -65.29 | X-H torsion
[ 10718 10713 10712 10709 ] final -102.29 input   66.30 | X-H torsion
[ 10763 10752 10751 10750 ] final  168.51 input  -60.55 | X-H torsion
[ 11005 11000 10999 10996 ] final  -97.15 input  -57.11 | X-H torsion

> <Gold.Protein.ActiveResidues>
 VAL166  LYS551  ARG553  GLY616  TRP617  ASP618  TYR619  PRO620  LYS621  CYS622 
 ASP623  PHE694  ASN695  SER759  ASP760  ASP761  ALA762  ILE779  LEU786  VAL792 
 PHE793  MET794  SER795  GLU796  ALA797  LYS798  CYS799  TRP800  GLU811  SER814 

> <Gold.Protein.RotatedAtoms>
  151.9284  133.3604  159.3921 H   0  0  0  0  0  0  0  0  0  0  0  0  # atno 6907 bound_to 6896
  150.7022  134.4563  159.5369 H   0  0  0  0  0  0  0  0  0  0  0  0  # atno 6908 bound_to 6896
  152.2199  134.8423  160.0538 H   0  0  0  0  0  0  0  0  0  0  0  0  # atno 6909 bound_to 6896
  144.9018  140.6781  143.5080 H   0  0  0  0  0  0  0  0  0  0  0  0  # atno 7974 bound_to 7965
  155.2658  140.0438  157.3002 H   0  0  0  0  0  0  0  0  0  0  0  0  # atno 8008 bound_to 7997
  154.5683  140.2366  155.8199 H   0  0  0  0  0  0  0  0  0  0  0  0  # atno 8009 bound_to 7997
  156.2102  140.3001  155.9724 H   0  0  0  0  0  0  0  0  0  0  0  0  # atno 8010 bound_to 7997
  140.7286  143.4258  151.0879 H   0  0  0  0  0  0  0  0  0  0  0  0  # atno 10167 bound_to 10162
  156.0223  130.5413  150.7087 H   0  0  0  0  0  0  0  0  0  0  0  0  # atno 10718 bound_to 10713
  154.3696  135.2753  155.2274 H   0  0  0  0  0  0  0  0  0  0  0  0  # atno 10763 bound_to 10752
  154.4427  135.5950  153.6143 H   0  0  0  0  0  0  0  0  0  0  0  0  # atno 10764 bound_to 10752
  152.9839  135.6022  154.3925 H   0  0  0  0  0  0  0  0  0  0  0  0  # atno 10765 bound_to 10752
  141.1388  133.8149  157.0667 H   0  0  0  0  0  0  0  0  0  0  0  0  # atno 11005 bound_to 11000
  145.3603  139.1683  143.4387 LP  0  0  0  0  0  0  0  0  0  0  0  0  # atno 17320 bound_to 7965
  146.3112  140.3665  142.8670 LP  0  0  0  0  0  0  0  0  0  0  0  0  # atno 17321 bound_to 7965
  139.7909  143.8219  152.3151 LP  0  0  0  0  0  0  0  0  0  0  0  0  # atno 17342 bound_to 10162
  139.8203  144.7298  150.9581 LP  0  0  0  0  0  0  0  0  0  0  0  0  # atno 17343 bound_to 10162
  157.4730  131.0895  151.0621 LP  0  0  0  0  0  0  0  0  0  0  0  0  # atno 17370 bound_to 10713
  157.1076  130.6008  149.5474 LP  0  0  0  0  0  0  0  0  0  0  0  0  # atno 17371 bound_to 10713
  140.0537  134.9792  157.1182 LP  0  0  0  0  0  0  0  0  0  0  0  0  # atno 17394 bound_to 11000
  140.3951  134.2142  155.7165 LP  0  0  0  0  0  0  0  0  0  0  0  0  # atno 17395 bound_to 11000

$$$$
