AV-unprocessed.smi:3335|AV-procd|sdf|12851|dock2
  -GOLD-   2272019243D 1   1.00000     0.00000
 Structure written by MMmdl.
 46 47  0  0  0  0  0  0  0  0  1 V2000
  146.0642  143.1629  153.6924 C   0  0  0  0  0  0  0  0  0  0  0  0
  147.0679  142.0556  153.8312 C   0  0  0  0  0  0  0  0  0  0  0  0
  146.9997  140.7379  153.2975 C   0  0  0  0  0  0  0  0  0  0  0  0
  148.0352  139.9901  153.6413 N   0  0  0  0  0  0  0  0  0  0  0  0
  148.8164  140.8081  154.3822 N   0  0  0  0  0  0  0  0  0  0  0  0
  150.0453  140.3118  154.9969 C   0  0  2  0  0  0  0  0  0  0  0  0
  150.2053  138.7994  154.7421 C   0  0  0  0  0  0  0  0  0  0  0  0
  150.1278  140.6848  156.5052 C   0  0  1  0  0  0  0  0  0  0  0  0
  149.1863  139.8420  157.3822 C   0  0  0  0  0  0  0  0  0  0  0  0
  151.4818  140.4364  156.9997 N   0  0  0  0  0  0  0  0  0  0  0  0
  151.7241  140.9606  158.3560 C   0  0  1  0  0  0  0  0  0  0  0  0
  153.0385  140.3937  158.9220 C   0  0  0  0  0  0  0  0  0  0  0  0
  151.7656  142.5021  158.3438 C   0  0  0  0  0  0  0  0  0  0  0  0
  151.6226  143.0981  157.2744 O   0  0  0  0  0  0  0  0  0  0  0  0
  151.9401  143.1678  159.5071 N   0  0  0  0  0  0  0  0  0  0  0  0
  151.9246  144.6267  159.6029 C   0  0  0  0  0  0  0  0  0  0  0  0
  151.8972  144.9462  161.0975 C   0  0  0  0  0  0  0  0  0  0  0  0
  152.5505  143.7346  161.7449 C   0  0  0  0  0  0  0  0  0  0  0  0
  152.1747  142.5743  160.8241 C   0  0  0  0  0  0  0  0  0  0  0  0
  148.2530  142.0612  154.5094 C   0  0  0  0  0  0  0  0  0  0  0  0
  145.1137  142.8017  153.2992 H   0  0  0  0  0  0  0  0  0  0  0  0
  146.4171  143.9436  153.0186 H   0  0  0  0  0  0  0  0  0  0  0  0
  145.8533  143.6348  154.6524 H   0  0  0  0  0  0  0  0  0  0  0  0
  146.2208  140.2984  152.6922 H   0  0  0  0  0  0  0  0  0  0  0  0
  150.8694  140.8080  154.4817 H   0  0  0  0  0  0  0  0  0  0  0  0
  151.2015  138.4505  155.0128 H   0  0  0  0  0  0  0  0  0  0  0  0
  150.0626  138.5639  153.6870 H   0  0  0  0  0  0  0  0  0  0  0  0
  149.4827  138.2166  155.3141 H   0  0  0  0  0  0  0  0  0  0  0  0
  149.8502  141.7319  156.6384 H   0  0  0  0  0  0  0  0  0  0  0  0
  148.1399  140.0334  157.1459 H   0  0  0  0  0  0  0  0  0  0  0  0
  149.3189  140.0776  158.4388 H   0  0  0  0  0  0  0  0  0  0  0  0
  149.3682  138.7741  157.2548 H   0  0  0  0  0  0  0  0  0  0  0  0
  152.1381  140.8220  156.3359 H   0  0  0  0  0  0  0  0  0  0  0  0
  150.8997  140.6493  158.9955 H   0  0  0  0  0  0  0  0  0  0  0  0
  153.2496  140.7866  159.9167 H   0  0  0  0  0  0  0  0  0  0  0  0
  153.8866  140.6424  158.2827 H   0  0  0  0  0  0  0  0  0  0  0  0
  152.9982  139.3077  159.0070 H   0  0  0  0  0  0  0  0  0  0  0  0
  152.8312  145.0223  159.1427 H   0  0  0  0  0  0  0  0  0  0  0  0
  151.0653  145.0627  159.0908 H   0  0  0  0  0  0  0  0  0  0  0  0
  152.4029  145.8813  161.3403 H   0  0  0  0  0  0  0  0  0  0  0  0
  150.8636  145.0270  161.4366 H   0  0  0  0  0  0  0  0  0  0  0  0
  153.6337  143.8630  161.7494 H   0  0  0  0  0  0  0  0  0  0  0  0
  152.2272  143.5786  162.7746 H   0  0  0  0  0  0  0  0  0  0  0  0
  151.2569  142.1031  161.1745 H   0  0  0  0  0  0  0  0  0  0  0  0
  152.9609  141.8191  160.8065 H   0  0  0  0  0  0  0  0  0  0  0  0
  148.7278  142.8410  155.0863 H   0  0  0  0  0  0  0  0  0  0  0  0
  1  2  1  0  0  0  0
  1 21  1  0  0  0  0
  1 22  1  0  0  0  0
  1 23  1  0  0  0  0
  2 20  2  0  0  0  0
  2  3  1  0  0  0  0
  3  4  2  0  0  0  0
  3 24  1  0  0  0  0
  4  5  1  0  0  0  0
  5  6  1  0  0  0  0
  5 20  1  0  0  0  0
  6  7  1  0  0  0  0
  6  8  1  0  0  0  0
  6 25  1  0  0  0  0
  7 26  1  0  0  0  0
  7 27  1  0  0  0  0
  7 28  1  0  0  0  0
  8  9  1  0  0  0  0
  8 10  1  0  0  0  0
  8 29  1  0  0  0  0
  9 30  1  0  0  0  0
  9 31  1  0  0  0  0
  9 32  1  0  0  0  0
 10 11  1  0  0  0  0
 10 33  1  0  0  0  0
 11 12  1  0  0  0  0
 11 13  1  0  0  0  0
 11 34  1  0  0  0  0
 12 35  1  0  0  0  0
 12 36  1  0  0  0  0
 12 37  1  0  0  0  0
 13 14  2  0  0  0  0
 13 15  1  0  0  0  0
 15 19  1  0  0  0  0
 15 16  1  0  0  0  0
 16 17  1  0  0  0  0
 16 38  1  0  0  0  0
 16 39  1  0  0  0  0
 17 18  1  0  0  0  0
 17 40  1  0  0  0  0
 17 41  1  0  0  0  0
 18 19  1  0  0  0  0
 18 42  1  0  0  0  0
 18 43  1  0  0  0  0
 19 44  1  0  0  0  0
 19 45  1  0  0  0  0
 20 46  1  0  0  0  0
M  END
> <s_m_source_file>
AV-unprocessed.smi

> <i_m_source_file_index>
3335

> <i_lp_mmshare_version>
43012

> <i_f3d_flags>
0

> <s_epik_input>
W0NIM11jMVtjSF1ubihbY0hdMSlbQ0BIXShbQ0gzXSlbQ0BIXShbQ0gzXSlbTkhdW0NASF0oW0NIM10pQyg9TylOMltDSDJdW0NIMl1bQ0gyXVtDSDJdMg==

> <s_epik_cmdline>
J2VwaWtfcHl0aG9uJywgJy1waCcsICc3LjAnLCAnLXRuJywgJzgnLCAnLW1hJywgJzIwMCcsICctbWV0YWxfYmluZGluZycsICctaW1hZScsICc8aW5maWxlLm1hZT4nLCAnLW9tYWUnLCAnPG91dGZpbGUubWFlPic=

> <r_lp_tautomer_probability>
1

> <r_epik_Ionization_Penalty>
0.918803

> <r_epik_Ionization_Penalty_Charging>
0

> <r_epik_Ionization_Penalty_Neutral>
0.918803

> <r_epik_State_Penalty>
0.958258

> <r_epik_Charging_Adjusted_Penalty>
0.958258

> <i_epik_Tot_Q>
0

> <i_epik_Tot_abs_Q>
0

> <r_epik_Metal_State_Penalty>
0.956786

> <b_epik_Metal_Only>
0

> <s_lp_Force_Field>
OPLS_2005

> <r_lp_Energy>
36.8756

> <b_lp_Chiralities_Consistent>
1

> <s_lp_Variant>
AV-unprocessed.smi:3335-15

> <Gold.Version>
5.8.1

> <Gold.Id.Protein>
6NUR|6NUR_protein|mol2

> <Gold.PLP.Fitness>
47.3136

> <Gold.PLP.PLP>
-41.9402

> <Gold.PLP.part.hbond>
0.0000

> <Gold.PLP.part.metal>
0.0000

> <Gold.PLP.part.buried>
-1.5501

> <Gold.PLP.part.nonpolar>
-41.5982

> <Gold.PLP.part.repulsive>
1.0470

> <Gold.PLP.ligand.clash>
0.0000

> <Gold.PLP.ligand.torsion>
0.4031

> <Gold.PLP.Chemscore.Hbond>
0.0000

> <Gold.PLP.Chemscore.CHOScore>
2.0000

> <Gold.PLP.Chemscore.Metal>
0.0000

> <Gold.Chemscore.Hbonds>
donor molecule, donor type, donor heavy atom, donor atom, acceptor molecule, acceptor atom, score
      L1  C     3    24       P1 10175  0.96
      L1  C    20    46       P1  8028  0.81

> <Gold.PLP.Chemscore.Internal.Correction>
0.1796

> <Gold.Rescore>
     Score         DG    S(hbond)    S(metal)    S(lipo)     H(rot)  DE(clash)    DE(int)     intcor
     10.97     -14.28       0.00        0.00     110.70       1.62       0.76       2.55       ----

> <Gold.Chemscore.Fitness>
10.9687

> <Gold.Chemscore.DG>
-14.2833

> <Gold.Chemscore.ZeroCoef>
-5.4800

> <Gold.Chemscore.Hbond>
0.0000

> <Gold.Chemscore.Metal>
0.0000

> <Gold.Chemscore.Lipo>
110.6968

> <Gold.Chemscore.Internal_Hbond>
0.0000

> <Gold.Chemscore.DEClash>
0.7615

> <Gold.Chemscore.DEInternal>
2.5532

> <Gold.Chemscore.Rot>
1.6204

> <Gold.Chemscore.Internal.Correction>
   9.000000E+99

> <Gold.Chemscore.Hbond.Weighted>
-0.0000

> <Gold.Chemscore.Metal.Weighted>
-0.0000

> <Gold.Chemscore.Lipo.Weighted>
-12.9515

> <Gold.Chemscore.Internal_Hbond.Weighted>
0.0000

> <Gold.Chemscore.DEClash.Weighted>
0.7615

> <Gold.Chemscore.DEInternal.Weighted>
2.5532

> <Gold.Chemscore.Rot.Weighted>
4.1482

> <Gold.Chemscore.Internal.Correction.Weighted>
   9.000000E+99

> <Gold.Protein.RotatedTorsions>
[ 6907 6896 6895 6894 ] final  -53.32 input  -60.11 | X-H torsion
[ 7974 7965 7964 7962 ] final   30.49 input  175.53 | X-H torsion
[ 8008 7997 7996 7995 ] final   41.27 input   59.86 | X-H torsion
[ 10167 10162 10161 10158 ] final  118.58 input  -65.29 | X-H torsion
[ 10718 10713 10712 10709 ] final  134.58 input   66.30 | X-H torsion
[ 10763 10752 10751 10750 ] final   15.73 input  -60.55 | X-H torsion
[ 11005 11000 10999 10996 ] final -161.07 input  -57.11 | X-H torsion

> <Gold.Protein.ActiveResidues>
 VAL166  LYS551  ARG553  GLY616  TRP617  ASP618  TYR619  PRO620  LYS621  CYS622 
 ASP623  PHE694  ASN695  SER759  ASP760  ASP761  ALA762  ILE779  LEU786  VAL792 
 PHE793  MET794  SER795  GLU796  ALA797  LYS798  CYS799  TRP800  GLU811  SER814 

> <Gold.Protein.RotatedAtoms>
  150.8437  134.7738  159.6952 H   0  0  0  0  0  0  0  0  0  0  0  0  # atno 6907 bound_to 6896
  152.4519  134.5372  159.9838 H   0  0  0  0  0  0  0  0  0  0  0  0  # atno 6908 bound_to 6896
  151.5507  133.3380  159.2988 H   0  0  0  0  0  0  0  0  0  0  0  0  # atno 6909 bound_to 6896
  146.1609  139.6782  142.9034 H   0  0  0  0  0  0  0  0  0  0  0  0  # atno 7974 bound_to 7965
  155.2669  140.3363  155.4268 H   0  0  0  0  0  0  0  0  0  0  0  0  # atno 8008 bound_to 7997
  156.2150  140.1785  156.7651 H   0  0  0  0  0  0  0  0  0  0  0  0  # atno 8009 bound_to 7997
  154.5740  140.0665  156.8992 H   0  0  0  0  0  0  0  0  0  0  0  0  # atno 8010 bound_to 7997
  139.6102  144.7080  151.2862 H   0  0  0  0  0  0  0  0  0  0  0  0  # atno 10167 bound_to 10162
  157.4658  131.1076  150.9864 H   0  0  0  0  0  0  0  0  0  0  0  0  # atno 10718 bound_to 10713
  153.1497  135.6776  153.8900 H   0  0  0  0  0  0  0  0  0  0  0  0  # atno 10763 bound_to 10752
  153.8330  135.3115  155.3421 H   0  0  0  0  0  0  0  0  0  0  0  0  # atno 10764 bound_to 10752
  154.7853  135.4865  154.0018 H   0  0  0  0  0  0  0  0  0  0  0  0  # atno 10765 bound_to 10752
  140.6245  134.4716  157.5226 H   0  0  0  0  0  0  0  0  0  0  0  0  # atno 11005 bound_to 11000
  145.4592  141.0432  143.2761 LP  0  0  0  0  0  0  0  0  0  0  0  0  # atno 17320 bound_to 7965
  144.8025  139.6113  143.7065 LP  0  0  0  0  0  0  0  0  0  0  0  0  # atno 17321 bound_to 7965
  140.7313  143.6854  150.7966 LP  0  0  0  0  0  0  0  0  0  0  0  0  # atno 17342 bound_to 10162
  140.0447  143.5310  152.2701 LP  0  0  0  0  0  0  0  0  0  0  0  0  # atno 17343 bound_to 10162
  157.0646  130.5839  149.5392 LP  0  0  0  0  0  0  0  0  0  0  0  0  # atno 17370 bound_to 10713
  156.0049  130.5135  150.7796 LP  0  0  0  0  0  0  0  0  0  0  0  0  # atno 17371 bound_to 10713
  139.9140  134.8284  156.1429 LP  0  0  0  0  0  0  0  0  0  0  0  0  # atno 17394 bound_to 11000
  141.0719  133.6793  156.2158 LP  0  0  0  0  0  0  0  0  0  0  0  0  # atno 17395 bound_to 11000

$$$$
