AV-unprocessed.smi:502|AV-procd|sdf|2744|dock7
  -GOLD-   2262023203D 1   1.00000     0.00000
 Structure written by MMmdl.
 48 50  0  0  0  0  0  0  0  0  1 V2000
  148.2065  135.0758  158.4153 C   0  0  0  0  0  0  0  0  0  0  0  0
  149.3539  134.8304  157.4423 C   0  0  0  0  0  0  0  0  0  0  0  0
  150.1626  133.9277  157.6548 O   0  0  0  0  0  0  0  0  0  0  0  0
  149.4189  135.6502  156.3831 N   0  0  0  0  0  0  0  0  0  0  0  0
  150.4411  135.5932  155.3429 C   0  0  0  0  0  0  0  0  0  0  0  0
  151.1844  136.9308  155.1637 C   0  0  0  0  0  0  0  0  0  0  0  0
  150.2755  138.0992  154.9063 C   0  0  0  0  0  0  0  0  0  0  0  0
  149.1119  137.9444  154.2728 N   0  0  0  0  0  0  0  0  0  0  0  0
  148.6107  139.2301  154.2330 C   0  0  0  0  0  0  0  0  0  0  0  0
  147.4079  139.7306  153.6851 C   0  0  0  0  0  0  0  0  0  0  0  0
  147.1085  141.1068  153.7580 C   0  0  0  0  0  0  0  0  0  0  0  0
  148.0047  142.0001  154.3796 C   0  0  0  0  0  0  0  0  0  0  0  0
  149.2074  141.5215  154.9338 C   0  0  0  0  0  0  0  0  0  0  0  0
  149.5017  140.1465  154.8586 C   0  0  0  0  0  0  0  0  0  0  0  0
  150.5743  139.3688  155.2854 N   0  0  0  0  0  0  0  0  0  0  0  0
  151.7615  139.8598  155.9713 C   0  0  0  0  0  0  0  0  0  0  0  0
  151.7723  139.4638  157.4544 C   0  0  0  0  0  0  0  0  0  0  0  0
  152.7919  140.1964  158.1202 O   0  0  0  0  0  0  0  0  0  0  0  0
  152.5027  141.4628  158.5811 C   0  0  0  0  0  0  0  0  0  0  0  0
  151.5585  142.3259  157.9694 C   0  0  0  0  0  0  0  0  0  0  0  0
  151.3183  143.6097  158.4952 C   0  0  0  0  0  0  0  0  0  0  0  0
  152.0165  144.0474  159.6348 C   0  0  0  0  0  0  0  0  0  0  0  0
  152.9552  143.1992  160.2497 C   0  0  0  0  0  0  0  0  0  0  0  0
  153.1992  141.9116  159.7274 C   0  0  0  0  0  0  0  0  0  0  0  0
  154.2092  141.0046  160.4057 C   0  0  0  0  0  0  0  0  0  0  0  0
  147.2479  134.9114  157.9225 H   0  0  0  0  0  0  0  0  0  0  0  0
  148.2350  136.1009  158.7859 H   0  0  0  0  0  0  0  0  0  0  0  0
  148.2720  134.4018  159.2702 H   0  0  0  0  0  0  0  0  0  0  0  0
  148.7140  136.3676  156.2919 H   0  0  0  0  0  0  0  0  0  0  0  0
  151.1520  134.7923  155.5522 H   0  0  0  0  0  0  0  0  0  0  0  0
  149.9466  135.3237  154.4095 H   0  0  0  0  0  0  0  0  0  0  0  0
  151.8155  137.1228  156.0301 H   0  0  0  0  0  0  0  0  0  0  0  0
  151.8713  136.8464  154.3208 H   0  0  0  0  0  0  0  0  0  0  0  0
  146.7158  139.0547  153.2052 H   0  0  0  0  0  0  0  0  0  0  0  0
  146.1876  141.4793  153.3339 H   0  0  0  0  0  0  0  0  0  0  0  0
  147.7695  143.0532  154.4295 H   0  0  0  0  0  0  0  0  0  0  0  0
  149.8986  142.2046  155.4047 H   0  0  0  0  0  0  0  0  0  0  0  0
  152.6415  139.4514  155.4737 H   0  0  0  0  0  0  0  0  0  0  0  0
  151.8302  140.9404  155.8617 H   0  0  0  0  0  0  0  0  0  0  0  0
  150.7989  139.6786  157.8972 H   0  0  0  0  0  0  0  0  0  0  0  0
  151.9576  138.3927  157.5478 H   0  0  0  0  0  0  0  0  0  0  0  0
  151.0064  142.0273  157.0916 H   0  0  0  0  0  0  0  0  0  0  0  0
  150.5975  144.2598  158.0217 H   0  0  0  0  0  0  0  0  0  0  0  0
  151.8319  145.0328  160.0368 H   0  0  0  0  0  0  0  0  0  0  0  0
  153.4869  143.5414  161.1257 H   0  0  0  0  0  0  0  0  0  0  0  0
  154.6445  141.4781  161.2862 H   0  0  0  0  0  0  0  0  0  0  0  0
  155.0182  140.7573  159.7179 H   0  0  0  0  0  0  0  0  0  0  0  0
  153.7325  140.0762  160.7221 H   0  0  0  0  0  0  0  0  0  0  0  0
  1  2  1  0  0  0  0
  1 26  1  0  0  0  0
  1 27  1  0  0  0  0
  1 28  1  0  0  0  0
  2  3  2  0  0  0  0
  2  4  1  0  0  0  0
  4  5  1  0  0  0  0
  4 29  1  0  0  0  0
  5  6  1  0  0  0  0
  5 30  1  0  0  0  0
  5 31  1  0  0  0  0
  6  7  1  0  0  0  0
  6 32  1  0  0  0  0
  6 33  1  0  0  0  0
  7 15  1  0  0  0  0
  7  8  2  0  0  0  0
  8  9  1  0  0  0  0
  9 14  2  0  0  0  0
  9 10  1  0  0  0  0
 10 11  2  0  0  0  0
 10 34  1  0  0  0  0
 11 12  1  0  0  0  0
 11 35  1  0  0  0  0
 12 13  2  0  0  0  0
 12 36  1  0  0  0  0
 13 14  1  0  0  0  0
 13 37  1  0  0  0  0
 14 15  1  0  0  0  0
 15 16  1  0  0  0  0
 16 17  1  0  0  0  0
 16 38  1  0  0  0  0
 16 39  1  0  0  0  0
 17 18  1  0  0  0  0
 17 40  1  0  0  0  0
 17 41  1  0  0  0  0
 18 19  1  0  0  0  0
 19 24  1  0  0  0  0
 19 20  2  0  0  0  0
 20 21  1  0  0  0  0
 20 42  1  0  0  0  0
 21 22  2  0  0  0  0
 21 43  1  0  0  0  0
 22 23  1  0  0  0  0
 22 44  1  0  0  0  0
 23 24  2  0  0  0  0
 23 45  1  0  0  0  0
 24 25  1  0  0  0  0
 25 46  1  0  0  0  0
 25 47  1  0  0  0  0
 25 48  1  0  0  0  0
M  END
> <s_m_source_file>
AV-unprocessed.smi

> <i_m_source_file_index>
502

> <i_lp_mmshare_version>
43012

> <i_f3d_flags>
0

> <s_epik_input>
W0NIM11DKD1PKVtOSF1bQ0gyXVtDSDJdYyhuMSluKGMoYzEyKVtjSF1bY0hdW2NIXVtjSF0yKVtDSDJdW0NIMl1PYzNbY0hdW2NIXVtjSF1bY0hdYzNbQ0gzXQ==

> <s_epik_cmdline>
J2VwaWtfcHl0aG9uJywgJy1waCcsICc3LjAnLCAnLXRuJywgJzgnLCAnLW1hJywgJzIwMCcsICctbWV0YWxfYmluZGluZycsICctaW1hZScsICc8aW5maWxlLm1hZT4nLCAnLW9tYWUnLCAnPG91dGZpbGUubWFlPic=

> <r_lp_tautomer_probability>
1

> <r_epik_Ionization_Penalty>
0.0991824

> <r_epik_Ionization_Penalty_Charging>
0

> <r_epik_Ionization_Penalty_Neutral>
0.0991824

> <r_epik_State_Penalty>
0.0892428

> <r_epik_Charging_Adjusted_Penalty>
0.0892428

> <i_epik_Tot_Q>
0

> <i_epik_Tot_abs_Q>
0

> <r_epik_Metal_State_Penalty>
0.076345

> <b_epik_Metal_Only>
0

> <s_lp_Force_Field>
OPLS_2005

> <r_lp_Energy>
12.9543

> <b_lp_Chiralities_Consistent>
1

> <s_lp_Variant>
AV-unprocessed.smi:502-1

> <Gold.Version>
5.8.1

> <Gold.Id.Protein>
6NUR|6NUR_protein|mol2

> <Gold.PLP.Fitness>
53.3088

> <Gold.PLP.PLP>
-49.4140

> <Gold.PLP.part.hbond>
-2.0000

> <Gold.PLP.part.metal>
0.0000

> <Gold.PLP.part.buried>
-3.8054

> <Gold.PLP.part.nonpolar>
-44.4386

> <Gold.PLP.part.repulsive>
2.0164

> <Gold.PLP.ligand.clash>
0.0000

> <Gold.PLP.ligand.torsion>
1.0906

> <Gold.PLP.Chemscore.Hbond>
1.9675

> <Gold.PLP.Chemscore.CHOScore>
0.0000

> <Gold.PLP.Chemscore.Metal>
0.0000

> <Gold.Chemscore.Hbonds>
donor molecule, donor type, donor heavy atom, donor atom, acceptor molecule, acceptor atom, score
      P1  H  6896  6909       L1     3  0.94
      P1  H  7997  8008       L1    18  0.81

> <Gold.PLP.Chemscore.Internal.Correction>
0.1736

> <Gold.Rescore>
     Score         DG    S(hbond)    S(metal)    S(lipo)     H(rot)  DE(clash)    DE(int)     intcor
     20.20     -21.75       1.73        0.00     135.67       2.11       0.24       1.32       ----

> <Gold.Chemscore.Fitness>
20.1977

> <Gold.Chemscore.DG>
-21.7493

> <Gold.Chemscore.ZeroCoef>
-5.4800

> <Gold.Chemscore.Hbond>
1.7341

> <Gold.Chemscore.Metal>
0.0000

> <Gold.Chemscore.Lipo>
135.6698

> <Gold.Chemscore.Internal_Hbond>
0.0000

> <Gold.Chemscore.DEClash>
0.2361

> <Gold.Chemscore.DEInternal>
1.3156

> <Gold.Chemscore.Rot>
2.1078

> <Gold.Chemscore.Internal.Correction>
   9.000000E+99

> <Gold.Chemscore.Hbonds>
donor molecule, donor type, donor heavy atom, donor atom, acceptor molecule, acceptor atom, score
      P1  H  6896  6909       L1     3  0.80
      P1  H  7997  8008       L1    18  0.34

> <Gold.Chemscore.Hbond.Weighted>
-5.7920

> <Gold.Chemscore.Metal.Weighted>
-0.0000

> <Gold.Chemscore.Lipo.Weighted>
-15.8734

> <Gold.Chemscore.Internal_Hbond.Weighted>
0.0000

> <Gold.Chemscore.DEClash.Weighted>
0.2361

> <Gold.Chemscore.DEInternal.Weighted>
1.3156

> <Gold.Chemscore.Rot.Weighted>
5.3961

> <Gold.Chemscore.Internal.Correction.Weighted>
   9.000000E+99

> <Gold.Protein.RotatedTorsions>
[ 6907 6896 6895 6894 ] final    5.35 input  -60.11 | X-H torsion
[ 7974 7965 7964 7962 ] final  145.31 input  175.53 | X-H torsion
[ 8008 7997 7996 7995 ] final  -71.91 input   59.86 | X-H torsion
[ 10167 10162 10161 10158 ] final  149.12 input  -65.29 | X-H torsion
[ 10718 10713 10712 10709 ] final   16.51 input   66.30 | X-H torsion
[ 10763 10752 10751 10750 ] final   28.36 input  -60.55 | X-H torsion
[ 11005 11000 10999 10996 ] final -117.60 input  -57.11 | X-H torsion

> <Gold.Protein.ActiveResidues>
 VAL166  LYS551  ARG553  GLY616  TRP617  ASP618  TYR619  PRO620  LYS621  CYS622 
 ASP623  PHE694  ASN695  SER759  ASP760  ASP761  ALA762  ILE779  LEU786  VAL792 
 PHE793  MET794  SER795  GLU796  ALA797  LYS798  CYS799  TRP800  GLU811  SER814 

> <Gold.Protein.RotatedAtoms>
  151.6561  135.0995  160.0169 H   0  0  0  0  0  0  0  0  0  0  0  0  # atno 6907 bound_to 6896
  152.3973  133.6762  159.6295 H   0  0  0  0  0  0  0  0  0  0  0  0  # atno 6908 bound_to 6896
  150.7878  133.8768  159.3315 H   0  0  0  0  0  0  0  0  0  0  0  0  # atno 6909 bound_to 6896
  144.8763  139.5768  143.5863 H   0  0  0  0  0  0  0  0  0  0  0  0  # atno 7974 bound_to 7965
  154.5125  140.0807  156.8017 H   0  0  0  0  0  0  0  0  0  0  0  0  # atno 8008 bound_to 7997
  155.3754  140.3425  155.4226 H   0  0  0  0  0  0  0  0  0  0  0  0  # atno 8009 bound_to 7997
  156.1589  140.1582  156.8633 H   0  0  0  0  0  0  0  0  0  0  0  0  # atno 8010 bound_to 7997
  139.4865  144.5626  151.7203 H   0  0  0  0  0  0  0  0  0  0  0  0  # atno 10167 bound_to 10162
  157.0688  130.6339  149.5801 H   0  0  0  0  0  0  0  0  0  0  0  0  # atno 10718 bound_to 10713
  153.0496  135.6515  154.0726 H   0  0  0  0  0  0  0  0  0  0  0  0  # atno 10763 bound_to 10752
  154.0417  135.2903  155.3355 H   0  0  0  0  0  0  0  0  0  0  0  0  # atno 10764 bound_to 10752
  154.6777  135.5332  153.8288 H   0  0  0  0  0  0  0  0  0  0  0  0  # atno 10765 bound_to 10752
  141.0343  133.9933  157.3095 H   0  0  0  0  0  0  0  0  0  0  0  0  # atno 11005 bound_to 11000
  146.2965  139.7293  142.9123 LP  0  0  0  0  0  0  0  0  0  0  0  0  # atno 17320 bound_to 7965
  145.4037  141.0388  143.3056 LP  0  0  0  0  0  0  0  0  0  0  0  0  # atno 17321 bound_to 7965
  140.5199  144.0895  150.6019 LP  0  0  0  0  0  0  0  0  0  0  0  0  # atno 17342 bound_to 10162
  140.3850  143.2782  152.0127 LP  0  0  0  0  0  0  0  0  0  0  0  0  # atno 17343 bound_to 10162
  155.9956  130.5024  150.7466 LP  0  0  0  0  0  0  0  0  0  0  0  0  # atno 17370 bound_to 10713
  157.4895  131.0909  151.0444 LP  0  0  0  0  0  0  0  0  0  0  0  0  # atno 17371 bound_to 10713
  139.9230  135.0201  156.8132 LP  0  0  0  0  0  0  0  0  0  0  0  0  # atno 17394 bound_to 11000
  140.6350  133.9871  155.7680 LP  0  0  0  0  0  0  0  0  0  0  0  0  # atno 17395 bound_to 11000

$$$$
