AV-unprocessed.smi:17|AV-procd|sdf|106|dock3
  -GOLD-   2262015263D 1   1.00000     0.00000
 Structure written by MMmdl.
 57 59  0  0  0  0  0  0  0  0  1 V2000
  150.0059  135.7971  155.7441 C   0  0  0  0  0  0  0  0  0  0  0  0
  149.3068  135.6393  157.1047 C   0  0  0  0  0  0  0  0  0  0  0  0
  148.6558  136.8650  157.5735 N   0  0  0  0  0  0  0  0  0  0  0  0
  149.4530  137.9635  157.6208 C   0  0  0  0  0  0  0  0  0  0  0  0
  149.0397  139.0627  156.9419 N   0  0  0  0  0  0  0  0  0  0  0  0
  149.7853  140.1706  156.9341 C   0  0  0  0  0  0  0  0  0  0  0  0
  150.9596  140.3896  157.5281 N   0  0  0  0  0  0  0  0  0  0  0  0
  151.3839  139.2877  158.2108 C   0  0  0  0  0  0  0  0  0  0  0  0
  150.7029  138.0407  158.3027 C   0  0  0  0  0  0  0  0  0  0  0  0
  151.4483  137.1553  159.0719 N   0  0  0  0  0  0  0  0  0  0  0  0
  152.5049  137.8385  159.4150 C   0  0  0  0  0  0  0  0  0  0  0  0
  152.5419  139.1357  158.9556 N   0  0  0  0  0  0  0  0  0  0  0  0
  153.5933  140.1161  159.1877 C   0  0  0  0  0  0  0  0  0  0  0  0
  153.6087  140.7145  160.6213 C   0  0  1  0  0  0  0  0  0  0  0  0
  154.8225  140.2270  161.4471 C   0  0  0  0  0  0  0  0  0  0  0  0
  156.0358  140.5263  160.7895 O   0  0  0  0  0  0  0  0  0  0  0  0
  153.5193  142.2636  160.6203 C   0  0  1  0  0  0  0  0  0  0  0  0
  152.5393  142.8425  159.6131 C   0  0  0  0  0  0  0  0  0  0  0  0
  152.3264  144.2556  160.1433 C   0  0  0  0  0  0  0  0  0  0  0  0
  152.4470  144.1556  161.5572 O   0  0  0  0  0  0  0  0  0  0  0  0
  152.9674  142.8784  161.9117 C   0  0  0  0  0  0  0  0  0  0  0  0
  147.6932  136.7119  158.6764 C   0  0  1  0  0  0  0  0  0  0  0  0
  146.5182  135.7786  158.3266 C   0  0  0  0  0  0  0  0  0  0  0  0
  148.3406  136.3168  160.0217 C   0  0  0  0  0  0  0  0  0  0  0  0
  147.2839  136.8004  161.4570 S   0  0  0  0  0  0  0  0  0  0  0  0
  146.6159  135.1745  161.9955 C   0  0  0  0  0  0  0  0  0  0  0  0
  148.1424  137.3264  162.5287 O   0  0  0  0  0  0  0  0  0  0  0  0
  146.1697  137.6193  160.9558 O   0  0  0  0  0  0  0  0  0  0  0  0
  150.4062  134.8411  155.4067 H   0  0  0  0  0  0  0  0  0  0  0  0
  150.8381  136.4999  155.7905 H   0  0  0  0  0  0  0  0  0  0  0  0
  149.3083  136.1507  154.9842 H   0  0  0  0  0  0  0  0  0  0  0  0
  148.5472  134.8627  157.0103 H   0  0  0  0  0  0  0  0  0  0  0  0
  150.0148  135.2758  157.8487 H   0  0  0  0  0  0  0  0  0  0  0  0
  149.3833  140.9996  156.3705 H   0  0  0  0  0  0  0  0  0  0  0  0
  153.2878  137.4085  160.0213 H   0  0  0  0  0  0  0  0  0  0  0  0
  154.5510  139.6482  158.9592 H   0  0  0  0  0  0  0  0  0  0  0  0
  153.4822  140.9133  158.4519 H   0  0  0  0  0  0  0  0  0  0  0  0
  152.7131  140.3460  161.1241 H   0  0  0  0  0  0  0  0  0  0  0  0
  154.8282  140.6647  162.4454 H   0  0  0  0  0  0  0  0  0  0  0  0
  154.7951  139.1462  161.5791 H   0  0  0  0  0  0  0  0  0  0  0  0
  156.6709  140.7910  161.4380 H   0  0  0  0  0  0  0  0  0  0  0  0
  154.5057  142.6923  160.4386 H   0  0  0  0  0  0  0  0  0  0  0  0
  152.9076  142.8378  158.5878 H   0  0  0  0  0  0  0  0  0  0  0  0
  151.5985  142.2908  159.6374 H   0  0  0  0  0  0  0  0  0  0  0  0
  153.1069  144.9220  159.7739 H   0  0  0  0  0  0  0  0  0  0  0  0
  151.3606  144.6692  159.8527 H   0  0  0  0  0  0  0  0  0  0  0  0
  152.1499  142.2756  162.3095 H   0  0  0  0  0  0  0  0  0  0  0  0
  153.7263  142.9720  162.6884 H   0  0  0  0  0  0  0  0  0  0  0  0
  147.2521  137.6971  158.8317 H   0  0  0  0  0  0  0  0  0  0  0  0
  145.7636  135.7940  159.1133 H   0  0  0  0  0  0  0  0  0  0  0  0
  146.8443  134.7447  158.2118 H   0  0  0  0  0  0  0  0  0  0  0  0
  146.0252  136.0824  157.4030 H   0  0  0  0  0  0  0  0  0  0  0  0
  148.4516  135.2337  160.0721 H   0  0  0  0  0  0  0  0  0  0  0  0
  149.3369  136.7375  160.1506 H   0  0  0  0  0  0  0  0  0  0  0  0
  145.9558  135.3207  162.8501 H   0  0  0  0  0  0  0  0  0  0  0  0
  147.4380  134.5187  162.2810 H   0  0  0  0  0  0  0  0  0  0  0  0
  146.0543  134.7212  161.1792 H   0  0  0  0  0  0  0  0  0  0  0  0
  1  2  1  0  0  0  0
  1 29  1  0  0  0  0
  1 30  1  0  0  0  0
  1 31  1  0  0  0  0
  2  3  1  0  0  0  0
  2 32  1  0  0  0  0
  2 33  1  0  0  0  0
  3  4  1  0  0  0  0
  3 22  1  0  0  0  0
  4  9  1  0  0  0  0
  4  5  2  0  0  0  0
  5  6  1  0  0  0  0
  6  7  2  0  0  0  0
  6 34  1  0  0  0  0
  7  8  1  0  0  0  0
  8 12  1  0  0  0  0
  8  9  2  0  0  0  0
  9 10  1  0  0  0  0
 10 11  2  0  0  0  0
 11 12  1  0  0  0  0
 11 35  1  0  0  0  0
 12 13  1  0  0  0  0
 13 14  1  0  0  0  0
 13 36  1  0  0  0  0
 13 37  1  0  0  0  0
 14 15  1  0  0  0  0
 14 17  1  0  0  0  0
 14 38  1  0  0  0  0
 15 16  1  0  0  0  0
 15 39  1  0  0  0  0
 15 40  1  0  0  0  0
 16 41  1  0  0  0  0
 17 21  1  0  0  0  0
 17 18  1  0  0  0  0
 17 42  1  0  0  0  0
 18 19  1  0  0  0  0
 18 43  1  0  0  0  0
 18 44  1  0  0  0  0
 19 20  1  0  0  0  0
 19 45  1  0  0  0  0
 19 46  1  0  0  0  0
 20 21  1  0  0  0  0
 21 47  1  0  0  0  0
 21 48  1  0  0  0  0
 22 23  1  0  0  0  0
 22 24  1  0  0  0  0
 22 49  1  0  0  0  0
 23 50  1  0  0  0  0
 23 51  1  0  0  0  0
 23 52  1  0  0  0  0
 24 25  1  0  0  0  0
 24 53  1  0  0  0  0
 24 54  1  0  0  0  0
 25 26  1  0  0  0  0
 25 27  2  0  0  0  0
 25 28  2  0  0  0  0
 26 55  1  0  0  0  0
 26 56  1  0  0  0  0
 26 57  1  0  0  0  0
M  END
> <s_m_source_file>
AV-unprocessed.smi

> <i_m_source_file_index>
17

> <i_lp_mmshare_version>
43012

> <i_f3d_flags>
0

> <s_epik_input>
W0NIM11TKD1PKSg9TylbQ0gyXVtDQEBIXShbQ0gzXSlOKFtDSDJdW0NIM10pYyhuW2NIXW4xKWMoYzEyKW5bY0hdbjJbQ0gyXVtDQEhdKFtDSDJdW09IXSlbQ0BASF0zW0NIMl1bQ0gyXU9bQ0gyXTM=

> <s_epik_cmdline>
J2VwaWtfcHl0aG9uJywgJy1waCcsICc3LjAnLCAnLXRuJywgJzgnLCAnLW1hJywgJzIwMCcsICctbWV0YWxfYmluZGluZycsICctaW1hZScsICc8aW5maWxlLm1hZT4nLCAnLW9tYWUnLCAnPG91dGZpbGUubWFlPic=

> <r_lp_tautomer_probability>
1

> <r_epik_Ionization_Penalty>
0.00119955

> <r_epik_Ionization_Penalty_Charging>
0

> <r_epik_Ionization_Penalty_Neutral>
0.00119955

> <r_epik_State_Penalty>
0.000665399

> <r_epik_Charging_Adjusted_Penalty>
0.000665399

> <i_epik_Tot_Q>
0

> <i_epik_Tot_abs_Q>
0

> <r_epik_Metal_State_Penalty>
-0

> <b_epik_Metal_Only>
0

> <s_lp_Force_Field>
OPLS_2005

> <r_lp_Energy>
32.9267

> <b_lp_Chiralities_Consistent>
1

> <s_lp_Variant>
AV-unprocessed.smi:17-8

> <Gold.Version>
5.8.1

> <Gold.Id.Protein>
6NUR|6NUR_protein|mol2

> <Gold.PLP.Fitness>
54.5426

> <Gold.PLP.PLP>
-49.0052

> <Gold.PLP.part.hbond>
-3.7528

> <Gold.PLP.part.metal>
0.0000

> <Gold.PLP.part.buried>
-8.0067

> <Gold.PLP.part.nonpolar>
-37.8734

> <Gold.PLP.part.repulsive>
0.1730

> <Gold.PLP.ligand.clash>
0.0000

> <Gold.PLP.ligand.torsion>
2.2673

> <Gold.PLP.Chemscore.Hbond>
2.8960

> <Gold.PLP.Chemscore.CHOScore>
0.0000

> <Gold.PLP.Chemscore.Metal>
0.0000

> <Gold.Chemscore.Hbonds>
donor molecule, donor type, donor heavy atom, donor atom, acceptor molecule, acceptor atom, score
      P1  H  6896  6907       L1    10  0.65
      P1  H  6931  6943       L1    27  0.60
      P1  H  6934  6947       L1    28  0.60

> <Gold.PLP.Chemscore.Internal.Correction>
1.3840

> <Gold.Rescore>
     Score         DG    S(hbond)    S(metal)    S(lipo)     H(rot)  DE(clash)    DE(int)     intcor
     10.95     -14.59       2.19        0.00      98.20       3.79       1.44       2.20       ----

> <Gold.Chemscore.Fitness>
10.9461

> <Gold.Chemscore.DG>
-14.5866

> <Gold.Chemscore.ZeroCoef>
-5.4800

> <Gold.Chemscore.Hbond>
2.1911

> <Gold.Chemscore.Metal>
0.0000

> <Gold.Chemscore.Lipo>
98.1987

> <Gold.Chemscore.Internal_Hbond>
0.0000

> <Gold.Chemscore.DEClash>
1.4403

> <Gold.Chemscore.DEInternal>
2.2001

> <Gold.Chemscore.Rot>
3.7894

> <Gold.Chemscore.Internal.Correction>
   9.000000E+99

> <Gold.Chemscore.Hbonds>
donor molecule, donor type, donor heavy atom, donor atom, acceptor molecule, acceptor atom, score
      P1  H  6896  6907       L1    10  0.52
      P1  H  6931  6943       L1    27  0.39
      P1  H  6934  6947       L1    28  0.04

> <Gold.Chemscore.Hbond.Weighted>
-7.3184

> <Gold.Chemscore.Metal.Weighted>
-0.0000

> <Gold.Chemscore.Lipo.Weighted>
-11.4892

> <Gold.Chemscore.Internal_Hbond.Weighted>
0.0000

> <Gold.Chemscore.DEClash.Weighted>
1.4403

> <Gold.Chemscore.DEInternal.Weighted>
2.2001

> <Gold.Chemscore.Rot.Weighted>
9.7010

> <Gold.Chemscore.Internal.Correction.Weighted>
   9.000000E+99

> <Gold.Protein.RotatedTorsions>
[ 6907 6896 6895 6894 ] final   -7.99 input  -60.11 | X-H torsion
[ 7974 7965 7964 7962 ] final   34.46 input  175.53 | X-H torsion
[ 8008 7997 7996 7995 ] final  132.26 input   59.86 | X-H torsion
[ 10167 10162 10161 10158 ] final   78.10 input  -65.29 | X-H torsion
[ 10718 10713 10712 10709 ] final   56.25 input   66.30 | X-H torsion
[ 10763 10752 10751 10750 ] final -100.36 input  -60.55 | X-H torsion
[ 11005 11000 10999 10996 ] final  129.12 input  -57.11 | X-H torsion

> <Gold.Protein.ActiveResidues>
 VAL166  LYS551  ARG553  GLY616  TRP617  ASP618  TYR619  PRO620  LYS621  CYS622 
 ASP623  PHE694  ASN695  SER759  ASP760  ASP761  ALA762  ILE779  LEU786  VAL792 
 PHE793  MET794  SER795  GLU796  ALA797  LYS798  CYS799  TRP800  GLU811  SER814 

> <Gold.Protein.RotatedAtoms>
  151.4407  135.1020  159.9669 H   0  0  0  0  0  0  0  0  0  0  0  0  # atno 6907 bound_to 6896
  152.4923  133.8531  159.7222 H   0  0  0  0  0  0  0  0  0  0  0  0  # atno 6908 bound_to 6896
  150.9090  133.6963  159.2887 H   0  0  0  0  0  0  0  0  0  0  0  0  # atno 6909 bound_to 6896
  146.1351  139.6266  142.9200 H   0  0  0  0  0  0  0  0  0  0  0  0  # atno 7974 bound_to 7965
  156.2980  140.2551  156.3060 H   0  0  0  0  0  0  0  0  0  0  0  0  # atno 8008 bound_to 7997
  154.9372  140.0397  157.2097 H   0  0  0  0  0  0  0  0  0  0  0  0  # atno 8009 bound_to 7997
  154.8161  140.2852  155.5823 H   0  0  0  0  0  0  0  0  0  0  0  0  # atno 8010 bound_to 7997
  139.9745  144.5871  150.7955 H   0  0  0  0  0  0  0  0  0  0  0  0  # atno 10167 bound_to 10162
  157.5414  130.8700  149.8828 H   0  0  0  0  0  0  0  0  0  0  0  0  # atno 10718 bound_to 10713
  154.7573  135.4938  153.9398 H   0  0  0  0  0  0  0  0  0  0  0  0  # atno 10763 bound_to 10752
  153.1210  135.6732  153.9343 H   0  0  0  0  0  0  0  0  0  0  0  0  # atno 10764 bound_to 10752
  153.9075  135.3103  155.3427 H   0  0  0  0  0  0  0  0  0  0  0  0  # atno 10765 bound_to 10752
  139.9598  134.9605  156.9102 H   0  0  0  0  0  0  0  0  0  0  0  0  # atno 11005 bound_to 11000
  145.5174  141.0433  143.2454 LP  0  0  0  0  0  0  0  0  0  0  0  0  # atno 17320 bound_to 7965
  144.7731  139.6690  143.7186 LP  0  0  0  0  0  0  0  0  0  0  0  0  # atno 17321 bound_to 7965
  140.7510  143.2966  151.3189 LP  0  0  0  0  0  0  0  0  0  0  0  0  # atno 17342 bound_to 10162
  139.6456  144.0458  152.2588 LP  0  0  0  0  0  0  0  0  0  0  0  0  # atno 17343 bound_to 10162
  156.0500  130.3719  150.1224 LP  0  0  0  0  0  0  0  0  0  0  0  0  # atno 17370 bound_to 10713
  156.9403  130.9742  151.3517 LP  0  0  0  0  0  0  0  0  0  0  0  0  # atno 17371 bound_to 10713
  140.5526  134.0612  155.7374 LP  0  0  0  0  0  0  0  0  0  0  0  0  # atno 17394 bound_to 11000
  141.1274  133.9360  157.2607 LP  0  0  0  0  0  0  0  0  0  0  0  0  # atno 17395 bound_to 11000

$$$$
