AV-unprocessed.smi:2829|AV-procd|sdf|10905|dock9
  -GOLD-   2272015353D 1   1.00000     0.00000
 Structure written by MMmdl.
 50 53  0  0  0  0  0  0  0  0  1 V2000
  144.3750  134.5811  162.5652 C   0  0  0  0  0  0  0  0  0  0  0  0
  145.5897  134.9499  161.6884 C   0  0  0  0  0  0  0  0  0  0  0  0
  145.8154  136.4757  161.7207 C   0  0  0  0  0  0  0  0  0  0  0  0
  146.8349  134.2835  162.3159 C   0  0  0  0  0  0  0  0  0  0  0  0
  145.3439  134.4910  160.2397 C   0  0  0  0  0  0  0  0  0  0  0  0
  144.1568  133.8474  159.8228 C   0  0  0  0  0  0  0  0  0  0  0  0
  144.0544  133.4745  158.4722 C   0  0  0  0  0  0  0  0  0  0  0  0
  145.1329  133.7620  157.6120 C   0  0  0  0  0  0  0  0  0  0  0  0
  144.9579  133.3585  156.2629 N   0  0  0  0  0  0  0  0  0  0  0  0
  145.8797  133.3057  155.2808 C   0  0  0  0  0  0  0  0  0  0  0  0
  147.0688  133.5862  155.4179 O   0  0  0  0  0  0  0  0  0  0  0  0
  145.3874  132.9152  154.0921 N   0  0  0  0  0  0  0  0  0  0  0  0
  146.1270  132.7576  152.8326 C   0  0  1  0  0  0  0  0  0  0  0  0
  146.7210  131.3587  152.6213 C   0  0  1  0  0  0  0  0  0  0  0  0
  147.1374  130.2400  153.5055 C   0  0  0  0  0  0  0  0  0  0  0  0
  146.6158  129.0873  152.6098 C   0  0  0  0  0  0  0  0  0  0  0  0
  145.8419  129.7211  151.5597 O   0  0  0  0  0  0  0  0  0  0  0  0
  145.3478  130.9108  152.1479 C   0  0  2  0  0  0  0  0  0  0  0  0
  145.2245  132.3528  151.6223 C   0  0  0  0  0  0  0  0  0  0  0  0
  143.8516  132.9901  151.3734 C   0  0  0  0  0  0  0  0  0  0  0  0
  144.0908  132.8020  149.8715 C   0  0  0  0  0  0  0  0  0  0  0  0
  145.5898  132.6928  150.1683 C   0  0  0  0  0  0  0  0  0  0  0  0
  146.2434  134.3847  158.0797 N   0  0  0  0  0  0  0  0  0  0  0  0
  146.3476  134.7408  159.3635 N   0  0  0  0  0  0  0  0  0  0  0  0
  144.5300  134.8755  163.6037 H   0  0  0  0  0  0  0  0  0  0  0  0
  144.1899  133.5064  162.5521 H   0  0  0  0  0  0  0  0  0  0  0  0
  143.4642  135.0751  162.2248 H   0  0  0  0  0  0  0  0  0  0  0  0
  144.9464  137.0218  161.3523 H   0  0  0  0  0  0  0  0  0  0  0  0
  146.6688  136.7624  161.1053 H   0  0  0  0  0  0  0  0  0  0  0  0
  146.0087  136.8276  162.7348 H   0  0  0  0  0  0  0  0  0  0  0  0
  146.9904  134.6231  163.3407 H   0  0  0  0  0  0  0  0  0  0  0  0
  147.7430  134.5218  161.7607 H   0  0  0  0  0  0  0  0  0  0  0  0
  146.7362  133.1979  162.3525 H   0  0  0  0  0  0  0  0  0  0  0  0
  143.3396  133.6348  160.4943 H   0  0  0  0  0  0  0  0  0  0  0  0
  143.1657  132.9793  158.1085 H   0  0  0  0  0  0  0  0  0  0  0  0
  144.0180  133.0962  156.0055 H   0  0  0  0  0  0  0  0  0  0  0  0
  144.3979  132.7173  154.0529 H   0  0  0  0  0  0  0  0  0  0  0  0
  146.8121  133.5756  152.6052 H   0  0  0  0  0  0  0  0  0  0  0  0
  147.4325  131.4327  151.7905 H   0  0  0  0  0  0  0  0  0  0  0  0
  148.2154  130.1998  153.6626 H   0  0  0  0  0  0  0  0  0  0  0  0
  146.6321  130.2647  154.4717 H   0  0  0  0  0  0  0  0  0  0  0  0
  147.4305  128.5128  152.1682 H   0  0  0  0  0  0  0  0  0  0  0  0
  145.9895  128.4030  153.1833 H   0  0  0  0  0  0  0  0  0  0  0  0
  144.6446  130.6942  152.9577 H   0  0  0  0  0  0  0  0  0  0  0  0
  143.0068  132.4291  151.7738 H   0  0  0  0  0  0  0  0  0  0  0  0
  143.8154  134.0405  151.6660 H   0  0  0  0  0  0  0  0  0  0  0  0
  143.6687  131.8703  149.4915 H   0  0  0  0  0  0  0  0  0  0  0  0
  143.8091  133.6556  149.2543 H   0  0  0  0  0  0  0  0  0  0  0  0
  146.1083  133.6482  150.0761 H   0  0  0  0  0  0  0  0  0  0  0  0
  146.1035  131.8994  149.6246 H   0  0  0  0  0  0  0  0  0  0  0  0
  1  2  1  0  0  0  0
  1 25  1  0  0  0  0
  1 26  1  0  0  0  0
  1 27  1  0  0  0  0
  2  3  1  0  0  0  0
  2  4  1  0  0  0  0
  2  5  1  0  0  0  0
  3 28  1  0  0  0  0
  3 29  1  0  0  0  0
  3 30  1  0  0  0  0
  4 31  1  0  0  0  0
  4 32  1  0  0  0  0
  4 33  1  0  0  0  0
  5 24  1  0  0  0  0
  5  6  2  0  0  0  0
  6  7  1  0  0  0  0
  6 34  1  0  0  0  0
  7  8  2  0  0  0  0
  7 35  1  0  0  0  0
  8  9  1  0  0  0  0
  8 23  1  0  0  0  0
  9 10  1  0  0  0  0
  9 36  1  0  0  0  0
 10 11  2  0  0  0  0
 10 12  1  0  0  0  0
 12 13  1  0  0  0  0
 12 37  1  0  0  0  0
 13 19  1  0  0  0  0
 13 14  1  0  0  0  0
 13 38  1  0  0  0  0
 14 18  1  0  0  0  0
 14 15  1  0  0  0  0
 14 39  1  0  0  0  0
 15 16  1  0  0  0  0
 15 40  1  0  0  0  0
 15 41  1  0  0  0  0
 16 17  1  0  0  0  0
 16 42  1  0  0  0  0
 16 43  1  0  0  0  0
 17 18  1  0  0  0  0
 18 19  1  0  0  0  0
 18 44  1  0  0  0  0
 19 22  1  0  0  0  0
 19 20  1  0  0  0  0
 20 21  1  0  0  0  0
 20 45  1  0  0  0  0
 20 46  1  0  0  0  0
 21 22  1  0  0  0  0
 21 47  1  0  0  0  0
 21 48  1  0  0  0  0
 22 49  1  0  0  0  0
 22 50  1  0  0  0  0
 23 24  2  0  0  0  0
M  END
> <s_m_source_file>
AV-unprocessed.smi

> <i_m_source_file_index>
2829

> <i_lp_mmshare_version>
43012

> <i_f3d_flags>
0

> <s_epik_input>
W0NIM11DKFtDSDNdKShbQ0gzXSljMVtjSF1bY0hdYyhubjEpW05IXUMoPU8pW05IXVtDQEBIXTJbQ0BIXShbQ0gyXVtDSDJdTzMpW0NAQEhdM0MyNFtDSDJdW0NIMl1bQ0gyXTQ=

> <s_epik_cmdline>
J2VwaWtfcHl0aG9uJywgJy1waCcsICc3LjAnLCAnLXRuJywgJzgnLCAnLW1hJywgJzIwMCcsICctbWV0YWxfYmluZGluZycsICctaW1hZScsICc8aW5maWxlLm1hZT4nLCAnLW9tYWUnLCAnPG91dGZpbGUubWFlPic=

> <r_lp_tautomer_probability>
1

> <r_epik_Ionization_Penalty>
0.011915

> <r_epik_Ionization_Penalty_Charging>
0

> <r_epik_Ionization_Penalty_Neutral>
0.011915

> <r_epik_State_Penalty>
0.00486223

> <r_epik_Charging_Adjusted_Penalty>
0.00486223

> <i_epik_Tot_Q>
0

> <i_epik_Tot_abs_Q>
0

> <r_epik_Metal_State_Penalty>
-0

> <b_epik_Metal_Only>
0

> <s_lp_Force_Field>
OPLS_2005

> <r_lp_Energy>
85.0365

> <b_lp_Chiralities_Consistent>
1

> <s_lp_Variant>
AV-unprocessed.smi:2829-8

> <Gold.Version>
5.8.1

> <Gold.Id.Protein>
6NUR|6NUR_protein|mol2

> <Gold.PLP.Fitness>
39.4420

> <Gold.PLP.PLP>
-33.5718

> <Gold.PLP.part.hbond>
-2.0000

> <Gold.PLP.part.metal>
0.0000

> <Gold.PLP.part.buried>
-5.1707

> <Gold.PLP.part.nonpolar>
-26.3998

> <Gold.PLP.part.repulsive>
0.1398

> <Gold.PLP.ligand.clash>
0.0000

> <Gold.PLP.ligand.torsion>
0.2228

> <Gold.PLP.Chemscore.Hbond>
2.0000

> <Gold.PLP.Chemscore.CHOScore>
0.0000

> <Gold.PLP.Chemscore.Metal>
0.0000

> <Gold.Chemscore.Hbonds>
donor molecule, donor type, donor heavy atom, donor atom, acceptor molecule, acceptor atom, score
      L1  H     9    36       P1 10957  0.47
      L1  H    12    37       P1 10957  0.83

> <Gold.PLP.Chemscore.Internal.Correction>
0.3157

> <Gold.Rescore>
     Score         DG    S(hbond)    S(metal)    S(lipo)     H(rot)  DE(clash)    DE(int)     intcor
     17.58     -19.20       1.58        0.00      97.69       1.16       0.11       1.51       ----

> <Gold.Chemscore.Fitness>
17.5847

> <Gold.Chemscore.DG>
-19.2014

> <Gold.Chemscore.ZeroCoef>
-5.4800

> <Gold.Chemscore.Hbond>
1.5767

> <Gold.Chemscore.Metal>
0.0000

> <Gold.Chemscore.Lipo>
97.6856

> <Gold.Chemscore.Internal_Hbond>
0.0000

> <Gold.Chemscore.DEClash>
0.1103

> <Gold.Chemscore.DEInternal>
1.5064

> <Gold.Chemscore.Rot>
1.1618

> <Gold.Chemscore.Internal.Correction>
   9.000000E+99

> <Gold.Chemscore.Hbonds>
donor molecule, donor type, donor heavy atom, donor atom, acceptor molecule, acceptor atom, score
      L1  H     9    36       P1 10957  0.46
      L1  H    12    37       P1 10957  0.64

> <Gold.Chemscore.Hbond.Weighted>
-5.2663

> <Gold.Chemscore.Metal.Weighted>
-0.0000

> <Gold.Chemscore.Lipo.Weighted>
-11.4292

> <Gold.Chemscore.Internal_Hbond.Weighted>
0.0000

> <Gold.Chemscore.DEClash.Weighted>
0.1103

> <Gold.Chemscore.DEInternal.Weighted>
1.5064

> <Gold.Chemscore.Rot.Weighted>
2.9741

> <Gold.Chemscore.Internal.Correction.Weighted>
   9.000000E+99

> <Gold.Protein.RotatedTorsions>
[ 6907 6896 6895 6894 ] final  -73.42 input  -60.11 | X-H torsion
[ 7974 7965 7964 7962 ] final  -16.73 input  175.53 | X-H torsion
[ 8008 7997 7996 7995 ] final  161.66 input   59.86 | X-H torsion
[ 10167 10162 10161 10158 ] final  -41.13 input  -65.29 | X-H torsion
[ 10718 10713 10712 10709 ] final  -80.28 input   66.30 | X-H torsion
[ 10763 10752 10751 10750 ] final  -44.94 input  -60.55 | X-H torsion
[ 11005 11000 10999 10996 ] final   31.29 input  -57.11 | X-H torsion

> <Gold.Protein.ActiveResidues>
 VAL166  LYS551  ARG553  GLY616  TRP617  ASP618  TYR619  PRO620  LYS621  CYS622 
 ASP623  PHE694  ASN695  SER759  ASP760  ASP761  ALA762  ILE779  LEU786  VAL792 
 PHE793  MET794  SER795  GLU796  ALA797  LYS798  CYS799  TRP800  GLU811  SER814 

> <Gold.Protein.RotatedAtoms>
  150.7131  134.5018  159.5564 H   0  0  0  0  0  0  0  0  0  0  0  0  # atno 6907 bound_to 6896
  152.2614  134.8027  160.0439 H   0  0  0  0  0  0  0  0  0  0  0  0  # atno 6908 bound_to 6896
  151.8740  133.3446  159.3781 H   0  0  0  0  0  0  0  0  0  0  0  0  # atno 6909 bound_to 6896
  146.1974  140.3677  142.8435 H   0  0  0  0  0  0  0  0  0  0  0  0  # atno 7974 bound_to 7965
  156.2087  140.1771  156.7742 H   0  0  0  0  0  0  0  0  0  0  0  0  # atno 8008 bound_to 7997
  154.5692  140.0685  156.8968 H   0  0  0  0  0  0  0  0  0  0  0  0  # atno 8009 bound_to 7997
  155.2704  140.3342  155.4268 H   0  0  0  0  0  0  0  0  0  0  0  0  # atno 8010 bound_to 7997
  140.7012  143.3112  151.3022 H   0  0  0  0  0  0  0  0  0  0  0  0  # atno 10167 bound_to 10162
  156.0073  130.4570  150.3777 H   0  0  0  0  0  0  0  0  0  0  0  0  # atno 10718 bound_to 10713
  154.0204  135.6670  153.4772 H   0  0  0  0  0  0  0  0  0  0  0  0  # atno 10763 bound_to 10752
  153.0582  135.5043  154.8028 H   0  0  0  0  0  0  0  0  0  0  0  0  # atno 10764 bound_to 10752
  154.6941  135.3066  154.9402 H   0  0  0  0  0  0  0  0  0  0  0  0  # atno 10765 bound_to 10752
  140.2855  134.2924  155.7789 H   0  0  0  0  0  0  0  0  0  0  0  0  # atno 11005 bound_to 11000
  144.8610  140.7139  143.6107 LP  0  0  0  0  0  0  0  0  0  0  0  0  # atno 17320 bound_to 7965
  145.3597  139.1685  143.4390 LP  0  0  0  0  0  0  0  0  0  0  0  0  # atno 17321 bound_to 7965
  139.6536  144.0317  152.2644 LP  0  0  0  0  0  0  0  0  0  0  0  0  # atno 17342 bound_to 10162
  139.9861  144.6394  150.7856 LP  0  0  0  0  0  0  0  0  0  0  0  0  # atno 17343 bound_to 10162
  157.1858  131.0403  151.2725 LP  0  0  0  0  0  0  0  0  0  0  0  0  # atno 17370 bound_to 10713
  157.4105  130.7382  149.6835 LP  0  0  0  0  0  0  0  0  0  0  0  0  # atno 17371 bound_to 10713
  141.2155  133.7552  156.9545 LP  0  0  0  0  0  0  0  0  0  0  0  0  # atno 17394 bound_to 11000
  140.1244  134.9396  157.2249 LP  0  0  0  0  0  0  0  0  0  0  0  0  # atno 17395 bound_to 11000

$$$$
