AV-unprocessed.smi:576|AV-procd|sdf|2978|dock2
  -GOLD-   2262023483D 1   1.00000     0.00000
 Structure written by MMmdl.
 35 36  0  0  0  0  0  0  0  0  1 V2000
  148.8321  141.6912  154.3654 C   0  0  0  0  0  0  0  0  0  0  0  0
  149.8678  141.1175  155.3460 C   0  0  2  0  0  0  0  0  0  0  0  0
  150.5266  142.2049  156.0628 N   0  0  0  0  0  0  0  0  0  0  0  0
  150.6493  142.3003  157.3958 C   0  0  0  0  0  0  0  0  0  0  0  0
  150.2159  141.4518  158.1766 O   0  0  0  0  0  0  0  0  0  0  0  0
  151.3927  143.5388  157.9159 C   0  0  0  0  0  0  0  0  0  0  0  0
  151.9248  143.3653  159.2779 N   0  0  0  0  0  0  0  0  0  0  0  0
  152.7959  142.2793  159.4939 C   0  0  0  0  0  0  0  0  0  0  0  0
  153.3564  142.0158  160.6901 C   0  0  0  0  0  0  0  0  0  0  0  0
  154.2443  140.8004  160.9072 C   0  0  0  0  0  0  0  0  0  0  0  0
  153.5999  139.6964  160.5314 F   0  0  0  0  0  0  0  0  0  0  0  0
  155.3658  140.8908  160.1919 F   0  0  0  0  0  0  0  0  0  0  0  0
  154.5763  140.6694  162.1922 F   0  0  0  0  0  0  0  0  0  0  0  0
  152.9936  142.8993  161.7809 C   0  0  0  0  0  0  0  0  0  0  0  0
  152.1520  143.9348  161.5942 C   0  0  0  0  0  0  0  0  0  0  0  0
  151.5636  144.2179  160.2833 C   0  0  0  0  0  0  0  0  0  0  0  0
  150.7935  145.1611  160.1003 O   0  0  0  0  0  0  0  0  0  0  0  0
  150.8540  140.2192  154.6235 C   0  0  0  0  0  0  0  0  0  0  0  0
  150.6257  138.7296  154.5275 C   0  0  0  0  0  0  0  0  0  0  0  0
  151.7488  139.2705  155.3840 C   0  0  0  0  0  0  0  0  0  0  0  0
  148.3044  140.8933  153.8426 H   0  0  0  0  0  0  0  0  0  0  0  0
  149.3055  142.3243  153.6142 H   0  0  0  0  0  0  0  0  0  0  0  0
  148.0833  142.2920  154.8829 H   0  0  0  0  0  0  0  0  0  0  0  0
  149.3377  140.4971  156.0714 H   0  0  0  0  0  0  0  0  0  0  0  0
  150.9179  142.9461  155.4994 H   0  0  0  0  0  0  0  0  0  0  0  0
  152.1973  143.7692  157.2164 H   0  0  0  0  0  0  0  0  0  0  0  0
  150.7289  144.4050  157.8808 H   0  0  0  0  0  0  0  0  0  0  0  0
  152.9717  141.6646  158.6229 H   0  0  0  0  0  0  0  0  0  0  0  0
  153.4058  142.7304  162.7648 H   0  0  0  0  0  0  0  0  0  0  0  0
  151.9053  144.5734  162.4298 H   0  0  0  0  0  0  0  0  0  0  0  0
  151.2957  140.6811  153.7422 H   0  0  0  0  0  0  0  0  0  0  0  0
  149.7605  138.3136  155.0399 H   0  0  0  0  0  0  0  0  0  0  0  0
  150.8947  138.2404  153.5937 H   0  0  0  0  0  0  0  0  0  0  0  0
  152.7664  139.1412  155.0211 H   0  0  0  0  0  0  0  0  0  0  0  0
  151.6284  139.2159  156.4642 H   0  0  0  0  0  0  0  0  0  0  0  0
  1  2  1  0  0  0  0
  1 21  1  0  0  0  0
  1 22  1  0  0  0  0
  1 23  1  0  0  0  0
  2  3  1  0  0  0  0
  2 18  1  0  0  0  0
  2 24  1  0  0  0  0
  3  4  1  0  0  0  0
  3 25  1  0  0  0  0
  4  5  2  0  0  0  0
  4  6  1  0  0  0  0
  6  7  1  0  0  0  0
  6 26  1  0  0  0  0
  6 27  1  0  0  0  0
  7 16  1  0  0  0  0
  7  8  1  0  0  0  0
  8  9  2  0  0  0  0
  8 28  1  0  0  0  0
  9 10  1  0  0  0  0
  9 14  1  0  0  0  0
 10 11  1  0  0  0  0
 10 12  1  0  0  0  0
 10 13  1  0  0  0  0
 14 15  2  0  0  0  0
 14 29  1  0  0  0  0
 15 16  1  0  0  0  0
 15 30  1  0  0  0  0
 16 17  2  0  0  0  0
 18 20  1  0  0  0  0
 18 19  1  0  0  0  0
 18 31  1  0  0  0  0
 19 20  1  0  0  0  0
 19 32  1  0  0  0  0
 19 33  1  0  0  0  0
 20 34  1  0  0  0  0
 20 35  1  0  0  0  0
M  END
> <s_m_source_file>
AV-unprocessed.smi

> <i_m_source_file_index>
576

> <i_lp_mmshare_version>
43012

> <i_f3d_flags>
0

> <s_epik_input>
W0NIMl0xW0NIMl1bQ0hdMVtDQEhdKFtDSDNdKVtOSF1DKD1PKVtDSDJdbjJbY0hdYyhDKEYpKEYpRilbY0hdW2NIXWMyPU8=

> <s_epik_cmdline>
J2VwaWtfcHl0aG9uJywgJy1waCcsICc3LjAnLCAnLXRuJywgJzgnLCAnLW1hJywgJzIwMCcsICctbWV0YWxfYmluZGluZycsICctaW1hZScsICc8aW5maWxlLm1hZT4nLCAnLW9tYWUnLCAnPG91dGZpbGUubWFlPic=

> <r_lp_tautomer_probability>
1

> <r_epik_Ionization_Penalty>
3.84201e-08

> <r_epik_Ionization_Penalty_Charging>
1.91184e-08

> <r_epik_Ionization_Penalty_Neutral>
1.93017e-08

> <r_epik_State_Penalty>
-0

> <r_epik_Charging_Adjusted_Penalty>
1.91184e-08

> <i_epik_Tot_Q>
0

> <i_epik_Tot_abs_Q>
0

> <r_epik_Metal_State_Penalty>
-0

> <b_epik_Metal_Only>
0

> <s_lp_Force_Field>
OPLS_2005

> <r_lp_Energy>
24.7521

> <b_lp_Chiralities_Consistent>
1

> <s_lp_Variant>
AV-unprocessed.smi:576-1

> <Gold.Version>
5.8.1

> <Gold.Id.Protein>
6NUR|6NUR_protein|mol2

> <Gold.PLP.Fitness>
49.2484

> <Gold.PLP.PLP>
-50.1286

> <Gold.PLP.part.hbond>
-1.0000

> <Gold.PLP.part.metal>
0.0000

> <Gold.PLP.part.buried>
-0.3348

> <Gold.PLP.part.nonpolar>
-48.8837

> <Gold.PLP.part.repulsive>
0.3313

> <Gold.PLP.ligand.clash>
0.0000

> <Gold.PLP.ligand.torsion>
1.0098

> <Gold.PLP.Chemscore.Hbond>
0.0000

> <Gold.PLP.Chemscore.CHOScore>
0.0000

> <Gold.PLP.Chemscore.Metal>
0.0000

> <Gold.PLP.Chemscore.Internal.Correction>
1.1393

> <Gold.Rescore>
     Score         DG    S(hbond)    S(metal)    S(lipo)     H(rot)  DE(clash)    DE(int)     intcor
     11.42     -12.54       0.00        0.00      98.97       1.77       0.05       1.07       ----

> <Gold.Chemscore.Fitness>
11.4153

> <Gold.Chemscore.DG>
-12.5399

> <Gold.Chemscore.ZeroCoef>
-5.4800

> <Gold.Chemscore.Hbond>
0.0000

> <Gold.Chemscore.Metal>
0.0000

> <Gold.Chemscore.Lipo>
98.9660

> <Gold.Chemscore.Internal_Hbond>
0.0000

> <Gold.Chemscore.DEClash>
0.0534

> <Gold.Chemscore.DEInternal>
1.0712

> <Gold.Chemscore.Rot>
1.7653

> <Gold.Chemscore.Internal.Correction>
   9.000000E+99

> <Gold.Chemscore.Hbond.Weighted>
-0.0000

> <Gold.Chemscore.Metal.Weighted>
-0.0000

> <Gold.Chemscore.Lipo.Weighted>
-11.5790

> <Gold.Chemscore.Internal_Hbond.Weighted>
0.0000

> <Gold.Chemscore.DEClash.Weighted>
0.0534

> <Gold.Chemscore.DEInternal.Weighted>
1.0712

> <Gold.Chemscore.Rot.Weighted>
4.5191

> <Gold.Chemscore.Internal.Correction.Weighted>
   9.000000E+99

> <Gold.Protein.RotatedTorsions>
[ 6907 6896 6895 6894 ] final    3.74 input  -60.11 | X-H torsion
[ 7974 7965 7964 7962 ] final -146.98 input  175.53 | X-H torsion
[ 8008 7997 7996 7995 ] final  108.19 input   59.86 | X-H torsion
[ 10167 10162 10161 10158 ] final   80.96 input  -65.29 | X-H torsion
[ 10718 10713 10712 10709 ] final   95.24 input   66.30 | X-H torsion
[ 10763 10752 10751 10750 ] final    4.33 input  -60.55 | X-H torsion
[ 11005 11000 10999 10996 ] final   98.53 input  -57.11 | X-H torsion

> <Gold.Protein.ActiveResidues>
 VAL166  LYS551  ARG553  GLY616  TRP617  ASP618  TYR619  PRO620  LYS621  CYS622 
 ASP623  PHE694  ASN695  SER759  ASP760  ASP761  ALA762  ILE779  LEU786  VAL792 
 PHE793  MET794  SER795  GLU796  ALA797  LYS798  CYS799  TRP800  GLU811  SER814 

> <Gold.Protein.RotatedAtoms>
  151.6299  135.1024  160.0119 H   0  0  0  0  0  0  0  0  0  0  0  0  # atno 6907 bound_to 6896
  152.4112  133.6962  159.6408 H   0  0  0  0  0  0  0  0  0  0  0  0  # atno 6908 bound_to 6896
  150.8002  133.8538  159.3253 H   0  0  0  0  0  0  0  0  0  0  0  0  # atno 6909 bound_to 6896
  144.8123  140.5386  143.5634 H   0  0  0  0  0  0  0  0  0  0  0  0  # atno 7974 bound_to 7965
  156.1884  140.3081  155.9283 H   0  0  0  0  0  0  0  0  0  0  0  0  # atno 8008 bound_to 7997
  155.3230  140.0457  157.3057 H   0  0  0  0  0  0  0  0  0  0  0  0  # atno 8009 bound_to 7997
  154.5422  140.2265  155.8631 H   0  0  0  0  0  0  0  0  0  0  0  0  # atno 8010 bound_to 7997
  139.9443  144.6069  150.8222 H   0  0  0  0  0  0  0  0  0  0  0  0  # atno 10167 bound_to 10162
  157.6940  131.0539  150.4309 H   0  0  0  0  0  0  0  0  0  0  0  0  # atno 10718 bound_to 10713
  153.2725  135.6933  153.7466 H   0  0  0  0  0  0  0  0  0  0  0  0  # atno 10763 bound_to 10752
  153.6484  135.3381  155.3093 H   0  0  0  0  0  0  0  0  0  0  0  0  # atno 10764 bound_to 10752
  154.8469  135.4448  154.1752 H   0  0  0  0  0  0  0  0  0  0  0  0  # atno 10765 bound_to 10752
  139.8772  134.9053  156.4470 H   0  0  0  0  0  0  0  0  0  0  0  0  # atno 11005 bound_to 11000
  145.5295  139.1475  143.3508 LP  0  0  0  0  0  0  0  0  0  0  0  0  # atno 17320 bound_to 7965
  146.2423  140.5435  142.8929 LP  0  0  0  0  0  0  0  0  0  0  0  0  # atno 17321 bound_to 7965
  140.7602  143.3145  151.2765 LP  0  0  0  0  0  0  0  0  0  0  0  0  # atno 17342 bound_to 10162
  139.6679  144.0072  152.2735 LP  0  0  0  0  0  0  0  0  0  0  0  0  # atno 17343 bound_to 10162
  156.4676  130.4045  149.6538 LP  0  0  0  0  0  0  0  0  0  0  0  0  # atno 17370 bound_to 10713
  156.3630  130.7491  151.2465 LP  0  0  0  0  0  0  0  0  0  0  0  0  # atno 17371 bound_to 10713
  140.8959  133.7814  155.9624 LP  0  0  0  0  0  0  0  0  0  0  0  0  # atno 17394 bound_to 11000
  140.8703  134.2734  157.5193 LP  0  0  0  0  0  0  0  0  0  0  0  0  # atno 17395 bound_to 11000

$$$$
