AV-unprocessed.smi:2035|AV-procd|sdf|8272|dock3
  -GOLD-   2272010543D 1   1.00000     0.00000
 Structure written by MMmdl.
 35 36  0  0  0  0  0  0  0  0  2 V2000
  150.1649  140.8726  157.4875 O   0  0  0  0  0  0  0  0  0  0  0  0
  149.9557  142.0058  157.0573 C   0  0  0  0  0  0  0  0  0  0  0  0
  150.4292  143.1470  157.5885 N   0  0  0  0  0  0  0  0  0  0  0  0
  151.2524  143.3466  158.7328 C   0  0  0  0  0  0  0  0  0  0  0  0
  152.0718  142.2651  159.1274 C   0  0  0  0  0  0  0  0  0  0  0  0
  152.9143  142.3988  160.2496 C   0  0  0  0  0  0  0  0  0  0  0  0
  152.9354  143.5587  160.9393 N   0  3  0  0  0  0  0  0  0  0  0  0
  152.1746  144.6215  160.6014 C   0  0  0  0  0  0  0  0  0  0  0  0
  151.3123  144.5469  159.4883 C   0  0  0  0  0  0  0  0  0  0  0  0
  149.2093  142.2554  155.9715 N   0  0  0  0  0  0  0  0  0  0  0  0
  148.5555  141.2500  155.1313 C   0  0  1  0  0  0  0  0  0  0  0  0
  147.7138  141.9408  154.0349 C   0  0  0  0  0  0  0  0  0  0  0  0
  146.5914  141.0615  153.4607 C   0  0  0  0  0  0  0  0  0  0  0  0
  147.0697  139.7939  152.7371 C   0  0  0  0  0  0  0  0  0  0  0  0
  147.7668  138.7800  153.6607 C   0  0  0  0  0  0  0  0  0  0  0  0
  149.1487  139.1427  153.9500 N   0  0  0  0  0  0  0  0  0  0  0  0
  149.5837  140.2361  154.5949 C   0  0  0  0  0  0  0  0  0  0  0  0
  150.7891  140.4307  154.7508 O   0  0  0  0  0  0  0  0  0  0  0  0
  150.1732  143.9907  157.0968 H   0  0  0  0  0  0  0  0  0  0  0  0
  152.0571  141.3359  158.5760 H   0  0  0  0  0  0  0  0  0  0  0  0
  153.5673  141.6186  160.6125 H   0  0  0  0  0  0  0  0  0  0  0  0
  152.2785  145.4963  161.2268 H   0  0  0  0  0  0  0  0  0  0  0  0
  150.7236  145.4165  159.2444 H   0  0  0  0  0  0  0  0  0  0  0  0
  149.0951  143.2162  155.6823 H   0  0  0  0  0  0  0  0  0  0  0  0
  147.8821  140.6847  155.7784 H   0  0  0  0  0  0  0  0  0  0  0  0
  147.2434  142.8352  154.4456 H   0  0  0  0  0  0  0  0  0  0  0  0
  148.3618  142.2932  153.2311 H   0  0  0  0  0  0  0  0  0  0  0  0
  145.9006  140.7869  154.2587 H   0  0  0  0  0  0  0  0  0  0  0  0
  146.0097  141.6606  152.7593 H   0  0  0  0  0  0  0  0  0  0  0  0
  146.1971  139.3106  152.2965 H   0  0  0  0  0  0  0  0  0  0  0  0
  147.7194  140.0552  151.9005 H   0  0  0  0  0  0  0  0  0  0  0  0
  147.2074  138.6387  154.5866 H   0  0  0  0  0  0  0  0  0  0  0  0
  147.7908  137.8080  153.1676 H   0  0  0  0  0  0  0  0  0  0  0  0
  149.8531  138.5003  153.6167 H   0  0  0  0  0  0  0  0  0  0  0  0
  153.5525  143.6364  161.7483 H   0  0  0  0  0  0  0  0  0  0  0  0
  1  2  2  0  0  0  0
  2  3  1  0  0  0  0
  2 10  1  0  0  0  0
  3  4  1  0  0  0  0
  3 19  1  0  0  0  0
  4  9  1  0  0  0  0
  4  5  2  0  0  0  0
  5  6  1  0  0  0  0
  5 20  1  0  0  0  0
  6  7  2  0  0  0  0
  6 21  1  0  0  0  0
  7  8  1  0  0  0  0
  7 35  1  0  0  0  0
  8  9  2  0  0  0  0
  8 22  1  0  0  0  0
  9 23  1  0  0  0  0
 10 11  1  0  0  0  0
 10 24  1  0  0  0  0
 11 17  1  0  0  0  0
 11 12  1  0  0  0  0
 11 25  1  0  0  0  0
 12 13  1  0  0  0  0
 12 26  1  0  0  0  0
 12 27  1  0  0  0  0
 13 14  1  0  0  0  0
 13 28  1  0  0  0  0
 13 29  1  0  0  0  0
 14 15  1  0  0  0  0
 14 30  1  0  0  0  0
 14 31  1  0  0  0  0
 15 16  1  0  0  0  0
 15 32  1  0  0  0  0
 15 33  1  0  0  0  0
 16 17  1  0  0  0  0
 16 34  1  0  0  0  0
 17 18  2  0  0  0  0
M  CHG  1   7   1
M  END
> <s_m_source_file>
AV-unprocessed.smi

> <i_m_source_file_index>
2035

> <i_lp_mmshare_version>
43012

> <i_f3d_flags>
0

> <s_epik_input>
W2NIXTFbY0hdbltjSF1bY0hdYzFbTkhdQyg9TylbTkhdW0NAQEhdMltDSDJdW0NIMl1bQ0gyXVtDSDJdW05IXUMyPU8=

> <s_epik_cmdline>
J2VwaWtfcHl0aG9uJywgJy1waCcsICc3LjAnLCAnLXRuJywgJzgnLCAnLW1hJywgJzIwMCcsICctbWV0YWxfYmluZGluZycsICctaW1hZScsICc8aW5maWxlLm1hZT4nLCAnLW9tYWUnLCAnPG91dGZpbGUubWFlPic=

> <r_epik_Ionization_Penalty>
1.10339

> <r_epik_Ionization_Penalty_Charging>
1.10337

> <r_epik_Ionization_Penalty_Neutral>
1.85869e-05

> <r_epik_State_Penalty>
1.16071

> <r_epik_Charging_Adjusted_Penalty>
2.26408

> <i_epik_Tot_Q>
1

> <i_epik_Tot_abs_Q>
1

> <r_epik_Metal_State_Penalty>
1.24751

> <b_epik_Metal_Only>
0

> <s_lp_Force_Field>
OPLS_2005

> <r_lp_Energy>
20.9624

> <b_lp_Chiralities_Consistent>
1

> <s_lp_Variant>
AV-unprocessed.smi:2035-4

> <Gold.Version>
5.8.1

> <Gold.Id.Protein>
6NUR|6NUR_protein|mol2

> <Gold.PLP.Fitness>
42.7481

> <Gold.PLP.PLP>
-34.4910

> <Gold.PLP.part.hbond>
-3.9378

> <Gold.PLP.part.metal>
0.0000

> <Gold.PLP.part.buried>
-2.2073

> <Gold.PLP.part.nonpolar>
-29.4117

> <Gold.PLP.part.repulsive>
0.3397

> <Gold.PLP.ligand.clash>
0.0000

> <Gold.PLP.ligand.torsion>
0.1374

> <Gold.PLP.Chemscore.Hbond>
2.8350

> <Gold.PLP.Chemscore.CHOScore>
0.0000

> <Gold.PLP.Chemscore.Metal>
0.0000

> <Gold.Chemscore.Hbonds>
donor molecule, donor type, donor heavy atom, donor atom, acceptor molecule, acceptor atom, score
      L1  H     3    19       P1  8028  0.86
      L1  H    10    24       P1  8028  0.96
      P1  H  7989  7998       L1    18  1.00

> <Gold.PLP.Chemscore.Internal.Correction>
0.0270

> <Gold.Rescore>
     Score         DG    S(hbond)    S(metal)    S(lipo)     H(rot)  DE(clash)    DE(int)     intcor
     19.32     -21.79       2.63        0.00      86.03       1.00       0.19       2.28       ----

> <Gold.Chemscore.Fitness>
19.3226

> <Gold.Chemscore.DG>
-21.7860

> <Gold.Chemscore.ZeroCoef>
-5.4800

> <Gold.Chemscore.Hbond>
2.6347

> <Gold.Chemscore.Metal>
0.0000

> <Gold.Chemscore.Lipo>
86.0346

> <Gold.Chemscore.Internal_Hbond>
0.0000

> <Gold.Chemscore.DEClash>
0.1881

> <Gold.Chemscore.DEInternal>
2.2753

> <Gold.Chemscore.Rot>
1.0000

> <Gold.Chemscore.Internal.Correction>
   9.000000E+99

> <Gold.Chemscore.Hbonds>
donor molecule, donor type, donor heavy atom, donor atom, acceptor molecule, acceptor atom, score
      L1  H     3    19       P1  8028  0.74
      L1  H    10    24       P1  8028  0.91
      P1  H  7989  7998       L1    18  0.91

> <Gold.Chemscore.Hbond.Weighted>
-8.7999

> <Gold.Chemscore.Metal.Weighted>
-0.0000

> <Gold.Chemscore.Lipo.Weighted>
-10.0661

> <Gold.Chemscore.Internal_Hbond.Weighted>
0.0000

> <Gold.Chemscore.DEClash.Weighted>
0.1881

> <Gold.Chemscore.DEInternal.Weighted>
2.2753

> <Gold.Chemscore.Rot.Weighted>
2.5600

> <Gold.Chemscore.Internal.Correction.Weighted>
   9.000000E+99

> <Gold.Protein.RotatedTorsions>
[ 6907 6896 6895 6894 ] final  146.98 input  -60.11 | X-H torsion
[ 7974 7965 7964 7962 ] final  -64.13 input  175.53 | X-H torsion
[ 8008 7997 7996 7995 ] final   36.78 input   59.86 | X-H torsion
[ 10167 10162 10161 10158 ] final  173.01 input  -65.29 | X-H torsion
[ 10718 10713 10712 10709 ] final  108.92 input   66.30 | X-H torsion
[ 10763 10752 10751 10750 ] final   90.32 input  -60.55 | X-H torsion
[ 11005 11000 10999 10996 ] final -172.34 input  -57.11 | X-H torsion

> <Gold.Protein.ActiveResidues>
 VAL166  LYS551  ARG553  GLY616  TRP617  ASP618  TYR619  PRO620  LYS621  CYS622 
 ASP623  PHE694  ASN695  SER759  ASP760  ASP761  ALA762  ILE779  LEU786  VAL792 
 PHE793  MET794  SER795  GLU796  ALA797  LYS798  CYS799  TRP800  GLU811  SER814 

> <Gold.Protein.RotatedAtoms>
  152.1608  133.4580  159.4859 H   0  0  0  0  0  0  0  0  0  0  0  0  # atno 6907 bound_to 6896
  150.6906  134.2074  159.4355 H   0  0  0  0  0  0  0  0  0  0  0  0  # atno 6908 bound_to 6896
  151.9976  134.9945  160.0614 H   0  0  0  0  0  0  0  0  0  0  0  0  # atno 6909 bound_to 6896
  145.7705  140.8815  143.0382 H   0  0  0  0  0  0  0  0  0  0  0  0  # atno 7974 bound_to 7965
  155.1930  140.3309  155.4355 H   0  0  0  0  0  0  0  0  0  0  0  0  # atno 8008 bound_to 7997
  156.2435  140.1907  156.6972 H   0  0  0  0  0  0  0  0  0  0  0  0  # atno 8009 bound_to 7997
  154.6193  140.0598  156.9580 H   0  0  0  0  0  0  0  0  0  0  0  0  # atno 8010 bound_to 7997
  139.5094  144.3309  152.0112 H   0  0  0  0  0  0  0  0  0  0  0  0  # atno 10167 bound_to 10162
  157.6565  131.0903  150.6377 H   0  0  0  0  0  0  0  0  0  0  0  0  # atno 10718 bound_to 10713
  153.1964  135.4438  155.0212 H   0  0  0  0  0  0  0  0  0  0  0  0  # atno 10763 bound_to 10752
  154.8121  135.3299  154.7279 H   0  0  0  0  0  0  0  0  0  0  0  0  # atno 10764 bound_to 10752
  153.7729  135.6983  153.4958 H   0  0  0  0  0  0  0  0  0  0  0  0  # atno 10765 bound_to 10752
  140.4981  134.5920  157.4978 H   0  0  0  0  0  0  0  0  0  0  0  0  # atno 11005 bound_to 11000
  144.6813  139.9849  143.7484 LP  0  0  0  0  0  0  0  0  0  0  0  0  # atno 17320 bound_to 7965
  146.0174  139.3221  143.0833 LP  0  0  0  0  0  0  0  0  0  0  0  0  # atno 17321 bound_to 7965
  140.2749  144.3923  150.6138 LP  0  0  0  0  0  0  0  0  0  0  0  0  # atno 17342 bound_to 10162
  140.6061  143.2168  151.6978 LP  0  0  0  0  0  0  0  0  0  0  0  0  # atno 17343 bound_to 10162
  156.6683  130.4532  149.5665 LP  0  0  0  0  0  0  0  0  0  0  0  0  # atno 17370 bound_to 10713
  156.2016  130.6623  151.1174 LP  0  0  0  0  0  0  0  0  0  0  0  0  # atno 17371 bound_to 10713
  139.9730  134.7262  156.0005 LP  0  0  0  0  0  0  0  0  0  0  0  0  # atno 17394 bound_to 11000
  141.1450  133.6557  156.3840 LP  0  0  0  0  0  0  0  0  0  0  0  0  # atno 17395 bound_to 11000

$$$$
