AV-unprocessed.smi:2445|AV-procd|sdf|9638|dock10
  -GOLD-   2272013273D 1   1.00000     0.00000
 Structure written by MMmdl.
 40 41  0  0  0  0  0  0  0  0  1 V2000
  144.0215  132.3934  149.9989 C   0  0  0  0  0  0  0  0  0  0  0  0
  145.0008  132.9923  150.9505 C   0  0  0  0  0  0  0  0  0  0  0  0
  145.6469  134.1987  150.8428 C   0  0  0  0  0  0  0  0  0  0  0  0
  146.5060  134.4761  151.9080 N   0  0  0  0  0  0  0  0  0  0  0  0
  146.5222  133.5009  152.8208 C   0  0  0  0  0  0  0  0  0  0  0  0
  147.3786  133.5365  154.0514 C   0  0  1  0  0  0  0  0  0  0  0  0
  148.8299  133.1350  153.7517 C   0  0  0  0  0  0  0  0  0  0  0  0
  147.2869  134.8815  154.8060 C   0  0  0  0  0  0  0  0  0  0  0  0
  148.1645  135.9058  154.2462 N   0  0  0  0  0  0  0  0  0  0  0  0
  148.4955  137.0501  154.8587 C   0  0  0  0  0  0  0  0  0  0  0  0
  148.1299  137.3554  155.9939 O   0  0  0  0  0  0  0  0  0  0  0  0
  149.2648  137.8239  154.0807 N   0  0  0  0  0  0  0  0  0  0  0  0
  149.7579  139.1551  154.4348 C   0  0  2  0  0  0  0  0  0  0  0  0
  150.2988  139.1632  155.8635 C   0  0  0  0  0  0  0  0  0  0  0  0
  149.6572  140.3931  156.4958 C   0  0  0  0  0  0  0  0  0  0  0  0
  148.4127  140.4876  155.8261 O   0  0  0  0  0  0  0  0  0  0  0  0
  148.6597  140.2447  154.4486 C   0  0  2  0  0  0  0  0  0  0  0  0
  147.3404  139.9360  153.7229 C   0  0  0  0  0  0  0  0  0  0  0  0
  145.4605  132.1562  152.4103 S   0  0  0  0  0  0  0  0  0  0  0  0
  143.8276  133.0630  149.1607 H   0  0  0  0  0  0  0  0  0  0  0  0
  143.0722  132.1939  150.4962 H   0  0  0  0  0  0  0  0  0  0  0  0
  144.3975  131.4522  149.5975 H   0  0  0  0  0  0  0  0  0  0  0  0
  145.5547  134.9207  150.0448 H   0  0  0  0  0  0  0  0  0  0  0  0
  146.9872  132.7707  154.7233 H   0  0  0  0  0  0  0  0  0  0  0  0
  148.8768  132.1459  153.2951 H   0  0  0  0  0  0  0  0  0  0  0  0
  149.4240  133.1043  154.6654 H   0  0  0  0  0  0  0  0  0  0  0  0
  149.3065  133.8400  153.0701 H   0  0  0  0  0  0  0  0  0  0  0  0
  146.2569  135.2411  154.8254 H   0  0  0  0  0  0  0  0  0  0  0  0
  147.5813  134.7387  155.8461 H   0  0  0  0  0  0  0  0  0  0  0  0
  148.5172  135.7446  153.3140 H   0  0  0  0  0  0  0  0  0  0  0  0
  149.5145  137.4779  153.1660 H   0  0  0  0  0  0  0  0  0  0  0  0
  150.5510  139.4572  153.7480 H   0  0  0  0  0  0  0  0  0  0  0  0
  149.9779  138.2735  156.4078 H   0  0  0  0  0  0  0  0  0  0  0  0
  151.3880  139.1983  155.9021 H   0  0  0  0  0  0  0  0  0  0  0  0
  149.5308  140.2965  157.5741 H   0  0  0  0  0  0  0  0  0  0  0  0
  150.2492  141.2881  156.2968 H   0  0  0  0  0  0  0  0  0  0  0  0
  149.0797  141.1606  154.0288 H   0  0  0  0  0  0  0  0  0  0  0  0
  147.5112  139.7436  152.6636 H   0  0  0  0  0  0  0  0  0  0  0  0
  146.6540  140.7794  153.7977 H   0  0  0  0  0  0  0  0  0  0  0  0
  146.8386  139.0672  154.1496 H   0  0  0  0  0  0  0  0  0  0  0  0
  1  2  1  0  0  0  0
  1 20  1  0  0  0  0
  1 21  1  0  0  0  0
  1 22  1  0  0  0  0
  2 19  1  0  0  0  0
  2  3  2  0  0  0  0
  3  4  1  0  0  0  0
  3 23  1  0  0  0  0
  4  5  2  0  0  0  0
  5  6  1  0  0  0  0
  5 19  1  0  0  0  0
  6  7  1  0  0  0  0
  6  8  1  0  0  0  0
  6 24  1  0  0  0  0
  7 25  1  0  0  0  0
  7 26  1  0  0  0  0
  7 27  1  0  0  0  0
  8  9  1  0  0  0  0
  8 28  1  0  0  0  0
  8 29  1  0  0  0  0
  9 10  1  0  0  0  0
  9 30  1  0  0  0  0
 10 11  2  0  0  0  0
 10 12  1  0  0  0  0
 12 13  1  0  0  0  0
 12 31  1  0  0  0  0
 13 17  1  0  0  0  0
 13 14  1  0  0  0  0
 13 32  1  0  0  0  0
 14 15  1  0  0  0  0
 14 33  1  0  0  0  0
 14 34  1  0  0  0  0
 15 16  1  0  0  0  0
 15 35  1  0  0  0  0
 15 36  1  0  0  0  0
 16 17  1  0  0  0  0
 17 18  1  0  0  0  0
 17 37  1  0  0  0  0
 18 38  1  0  0  0  0
 18 39  1  0  0  0  0
 18 40  1  0  0  0  0
M  END
> <s_m_source_file>
AV-unprocessed.smi

> <i_m_source_file_index>
2445

> <i_lp_mmshare_version>
43012

> <i_f3d_flags>
0

> <s_epik_input>
W0NIM11jMVtjSF1uYyhzMSlbQ0BIXShbQ0gzXSlbQ0gyXVtOSF1DKD1PKVtOSF1bQ0BASF0yW0NIMl1bQ0gyXU9bQ0BIXTJbQ0gzXQ==

> <s_epik_cmdline>
J2VwaWtfcHl0aG9uJywgJy1waCcsICc3LjAnLCAnLXRuJywgJzgnLCAnLW1hJywgJzIwMCcsICctbWV0YWxfYmluZGluZycsICctaW1hZScsICc8aW5maWxlLm1hZT4nLCAnLW9tYWUnLCAnPG91dGZpbGUubWFlPic=

> <r_epik_Ionization_Penalty>
0.000649483

> <r_epik_Ionization_Penalty_Charging>
0

> <r_epik_Ionization_Penalty_Neutral>
0.000649483

> <r_epik_State_Penalty>
0.000379895

> <r_epik_Charging_Adjusted_Penalty>
0.000379895

> <i_epik_Tot_Q>
0

> <i_epik_Tot_abs_Q>
0

> <r_epik_Metal_State_Penalty>
-0

> <b_epik_Metal_Only>
0

> <s_lp_Force_Field>
OPLS_2005

> <r_lp_Energy>
6.13351

> <b_lp_Chiralities_Consistent>
1

> <s_lp_Variant>
AV-unprocessed.smi:2445-6

> <Gold.Version>
5.8.1

> <Gold.Id.Protein>
6NUR|6NUR_protein|mol2

> <Gold.PLP.Fitness>
32.8529

> <Gold.PLP.PLP>
-25.9277

> <Gold.PLP.part.hbond>
-1.9141

> <Gold.PLP.part.metal>
0.0000

> <Gold.PLP.part.buried>
-3.9000

> <Gold.PLP.part.nonpolar>
-21.6562

> <Gold.PLP.part.repulsive>
1.3697

> <Gold.PLP.ligand.clash>
0.0000

> <Gold.PLP.ligand.torsion>
0.8530

> <Gold.PLP.Chemscore.Hbond>
1.8480

> <Gold.PLP.Chemscore.CHOScore>
1.0000

> <Gold.PLP.Chemscore.Metal>
0.0000

> <Gold.Chemscore.Hbonds>
donor molecule, donor type, donor heavy atom, donor atom, acceptor molecule, acceptor atom, score
      L1  H     9    30       P1  7948  1.00
      L1  H    12    31       P1  7948  0.86
      L1  C     3    23       P1  7921  1.00

> <Gold.PLP.Chemscore.Internal.Correction>
0.0873

> <Gold.Rescore>
     Score         DG    S(hbond)    S(metal)    S(lipo)     H(rot)  DE(clash)    DE(int)     intcor
     13.95     -16.14       1.85        0.00      71.78       1.53       0.11       2.08       ----

> <Gold.Chemscore.Fitness>
13.9512

> <Gold.Chemscore.DG>
-16.1403

> <Gold.Chemscore.ZeroCoef>
-5.4800

> <Gold.Chemscore.Hbond>
1.8519

> <Gold.Chemscore.Metal>
0.0000

> <Gold.Chemscore.Lipo>
71.7812

> <Gold.Chemscore.Internal_Hbond>
0.0000

> <Gold.Chemscore.DEClash>
0.1059

> <Gold.Chemscore.DEInternal>
2.0832

> <Gold.Chemscore.Rot>
1.5325

> <Gold.Chemscore.Internal.Correction>
   9.000000E+99

> <Gold.Chemscore.Hbonds>
donor molecule, donor type, donor heavy atom, donor atom, acceptor molecule, acceptor atom, score
      L1  H     9    30       P1  7948  0.95
      L1  H    12    31       P1  7948  0.72

> <Gold.Chemscore.Hbond.Weighted>
-6.1852

> <Gold.Chemscore.Metal.Weighted>
-0.0000

> <Gold.Chemscore.Lipo.Weighted>
-8.3984

> <Gold.Chemscore.Internal_Hbond.Weighted>
0.0000

> <Gold.Chemscore.DEClash.Weighted>
0.1059

> <Gold.Chemscore.DEInternal.Weighted>
2.0832

> <Gold.Chemscore.Rot.Weighted>
3.9233

> <Gold.Chemscore.Internal.Correction.Weighted>
   9.000000E+99

> <Gold.Protein.RotatedTorsions>
[ 6907 6896 6895 6894 ] final -131.27 input  -60.11 | X-H torsion
[ 7974 7965 7964 7962 ] final  166.35 input  175.53 | X-H torsion
[ 8008 7997 7996 7995 ] final  131.76 input   59.86 | X-H torsion
[ 10167 10162 10161 10158 ] final -123.32 input  -65.29 | X-H torsion
[ 10718 10713 10712 10709 ] final -128.23 input   66.30 | X-H torsion
[ 10763 10752 10751 10750 ] final  101.08 input  -60.55 | X-H torsion
[ 11005 11000 10999 10996 ] final -126.42 input  -57.11 | X-H torsion

> <Gold.Protein.ActiveResidues>
 VAL166  LYS551  ARG553  GLY616  TRP617  ASP618  TYR619  PRO620  LYS621  CYS622 
 ASP623  PHE694  ASN695  SER759  ASP760  ASP761  ALA762  ILE779  LEU786  VAL792 
 PHE793  MET794  SER795  GLU796  ALA797  LYS798  CYS799  TRP800  GLU811  SER814 

> <Gold.Protein.RotatedAtoms>
  150.9490  133.6570  159.2775 H   0  0  0  0  0  0  0  0  0  0  0  0  # atno 6907 bound_to 6896
  151.3933  135.0958  159.9542 H   0  0  0  0  0  0  0  0  0  0  0  0  # atno 6908 bound_to 6896
  152.5102  133.9000  159.7491 H   0  0  0  0  0  0  0  0  0  0  0  0  # atno 6909 bound_to 6896
  144.7466  139.8602  143.6380 H   0  0  0  0  0  0  0  0  0  0  0  0  # atno 7974 bound_to 7965
  156.2974  140.2563  156.2978 H   0  0  0  0  0  0  0  0  0  0  0  0  # atno 8008 bound_to 7997
  154.9447  140.0395  157.2133 H   0  0  0  0  0  0  0  0  0  0  0  0  # atno 8009 bound_to 7997
  154.8093  140.2841  155.5869 H   0  0  0  0  0  0  0  0  0  0  0  0  # atno 8010 bound_to 7997
  140.0047  143.5503  152.2288 H   0  0  0  0  0  0  0  0  0  0  0  0  # atno 10167 bound_to 10162
  156.1931  130.6808  151.0449 H   0  0  0  0  0  0  0  0  0  0  0  0  # atno 10718 bound_to 10713
  153.3221  135.4057  155.1425 H   0  0  0  0  0  0  0  0  0  0  0  0  # atno 10763 bound_to 10752
  154.8603  135.3590  154.5583 H   0  0  0  0  0  0  0  0  0  0  0  0  # atno 10764 bound_to 10752
  153.6017  135.7071  153.5441 H   0  0  0  0  0  0  0  0  0  0  0  0  # atno 10765 bound_to 10752
  140.9682  134.0842  157.3897 H   0  0  0  0  0  0  0  0  0  0  0  0  # atno 11005 bound_to 11000
  146.1353  139.4398  143.0143 LP  0  0  0  0  0  0  0  0  0  0  0  0  # atno 17320 bound_to 7965
  145.7100  141.0109  143.1458 LP  0  0  0  0  0  0  0  0  0  0  0  0  # atno 17321 bound_to 7965
  139.6247  144.7635  151.2665 LP  0  0  0  0  0  0  0  0  0  0  0  0  # atno 17342 bound_to 10162
  140.7405  143.6586  150.8184 LP  0  0  0  0  0  0  0  0  0  0  0  0  # atno 17343 bound_to 10162
  157.6941  131.0800  150.7020 LP  0  0  0  0  0  0  0  0  0  0  0  0  # atno 17370 bound_to 10713
  156.7077  130.4642  149.5556 LP  0  0  0  0  0  0  0  0  0  0  0  0  # atno 17371 bound_to 10713
  139.8902  135.0110  156.6725 LP  0  0  0  0  0  0  0  0  0  0  0  0  # atno 17394 bound_to 11000
  140.7367  133.9012  155.8249 LP  0  0  0  0  0  0  0  0  0  0  0  0  # atno 17395 bound_to 11000

$$$$
