AV-unprocessed.smi:1956|AV-procd|sdf|7902|dock6
  -GOLD-   2272010 63D 1   1.00000     0.00000
 Structure written by MMmdl.
 46 47  0  0  0  0  0  0  0  0  2 V2000
  150.8950  142.2424  158.1441 C   0  0  0  0  0  0  0  0  0  0  0  0
  151.1982  141.9090  156.7939 O   0  0  0  0  0  0  0  0  0  0  0  0
  150.7725  140.6891  156.3094 C   0  0  0  0  0  0  0  0  0  0  0  0
  150.3599  139.7049  157.2286 C   0  0  0  0  0  0  0  0  0  0  0  0
  149.9230  138.4574  156.7435 C   0  0  0  0  0  0  0  0  0  0  0  0
  149.9132  138.2309  155.3452 C   0  0  0  0  0  0  0  0  0  0  0  0
  149.4947  137.0265  154.7135 N   0  0  0  0  0  0  0  0  0  0  0  0
  149.1630  135.8429  155.2583 C   0  0  0  0  0  0  0  0  0  0  0  0
  149.1692  135.5758  156.4592 O   0  0  0  0  0  0  0  0  0  0  0  0
  148.8139  134.9574  154.3141 N   0  0  0  0  0  0  0  0  0  0  0  0
  148.4102  133.5796  154.5716 C   0  0  0  0  0  0  0  0  0  0  0  0
  148.8580  132.6363  153.4378 C   0  0  0  0  0  0  0  0  0  0  0  0
  147.7166  132.1534  152.6207 N   0  3  1  0  0  0  0  0  0  0  0  0
  146.8698  131.1788  153.3564 C   0  0  0  0  0  0  0  0  0  0  0  0
  145.7965  130.5727  152.4385 C   0  0  0  0  0  0  0  0  0  0  0  0
  144.9399  131.6706  151.7921 C   0  0  0  0  0  0  0  0  0  0  0  0
  145.8165  132.7186  151.0816 C   0  0  2  0  0  0  0  0  0  0  0  0
  146.4115  132.2021  149.7598 C   0  0  0  0  0  0  0  0  0  0  0  0
  146.9017  133.2544  152.0383 C   0  0  0  0  0  0  0  0  0  0  0  0
  150.3443  139.2841  154.5114 C   0  0  0  0  0  0  0  0  0  0  0  0
  150.7643  140.4816  154.9698 N   0  0  0  0  0  0  0  0  0  0  0  0
  151.2986  143.2291  158.3710 H   0  0  0  0  0  0  0  0  0  0  0  0
  151.3434  141.5331  158.8415 H   0  0  0  0  0  0  0  0  0  0  0  0
  149.8178  142.2787  158.3132 H   0  0  0  0  0  0  0  0  0  0  0  0
  150.3773  139.9034  158.2902 H   0  0  0  0  0  0  0  0  0  0  0  0
  149.6058  137.7149  157.4574 H   0  0  0  0  0  0  0  0  0  0  0  0
  149.4504  137.0710  153.7059 H   0  0  0  0  0  0  0  0  0  0  0  0
  148.8390  135.2543  153.3492 H   0  0  0  0  0  0  0  0  0  0  0  0
  148.8546  133.2866  155.5217 H   0  0  0  0  0  0  0  0  0  0  0  0
  147.3283  133.5281  154.7067 H   0  0  0  0  0  0  0  0  0  0  0  0
  149.5477  133.1812  152.7918 H   0  0  0  0  0  0  0  0  0  0  0  0
  149.4166  131.7872  153.8349 H   0  0  0  0  0  0  0  0  0  0  0  0
  147.4896  130.3745  153.7545 H   0  0  0  0  0  0  0  0  0  0  0  0
  146.4026  131.6721  154.2102 H   0  0  0  0  0  0  0  0  0  0  0  0
  146.2715  129.9662  151.6665 H   0  0  0  0  0  0  0  0  0  0  0  0
  145.1607  129.8952  153.0090 H   0  0  0  0  0  0  0  0  0  0  0  0
  144.2240  131.2324  151.0958 H   0  0  0  0  0  0  0  0  0  0  0  0
  144.3496  132.1628  152.5663 H   0  0  0  0  0  0  0  0  0  0  0  0
  145.1699  133.5570  150.8191 H   0  0  0  0  0  0  0  0  0  0  0  0
  147.1001  131.3721  149.9183 H   0  0  0  0  0  0  0  0  0  0  0  0
  146.9613  132.9905  149.2449 H   0  0  0  0  0  0  0  0  0  0  0  0
  145.6271  131.8576  149.0853 H   0  0  0  0  0  0  0  0  0  0  0  0
  146.4336  133.8157  152.8488 H   0  0  0  0  0  0  0  0  0  0  0  0
  147.5341  133.9603  151.5012 H   0  0  0  0  0  0  0  0  0  0  0  0
  150.3531  139.1637  153.4380 H   0  0  0  0  0  0  0  0  0  0  0  0
  148.1194  131.6440  151.8470 H   0  0  0  0  0  0  0  0  0  0  0  0
  1  2  1  0  0  0  0
  1 22  1  0  0  0  0
  1 23  1  0  0  0  0
  1 24  1  0  0  0  0
  2  3  1  0  0  0  0
  3 21  1  0  0  0  0
  3  4  2  0  0  0  0
  4  5  1  0  0  0  0
  4 25  1  0  0  0  0
  5  6  2  0  0  0  0
  5 26  1  0  0  0  0
  6  7  1  0  0  0  0
  6 20  1  0  0  0  0
  7  8  1  0  0  0  0
  7 27  1  0  0  0  0
  8  9  2  0  0  0  0
  8 10  1  0  0  0  0
 10 11  1  0  0  0  0
 10 28  1  0  0  0  0
 11 12  1  0  0  0  0
 11 29  1  0  0  0  0
 11 30  1  0  0  0  0
 12 13  1  0  0  0  0
 12 31  1  0  0  0  0
 12 32  1  0  0  0  0
 13 19  1  0  0  0  0
 13 14  1  0  0  0  0
 13 46  1  0  0  0  0
 14 15  1  0  0  0  0
 14 33  1  0  0  0  0
 14 34  1  0  0  0  0
 15 16  1  0  0  0  0
 15 35  1  0  0  0  0
 15 36  1  0  0  0  0
 16 17  1  0  0  0  0
 16 37  1  0  0  0  0
 16 38  1  0  0  0  0
 17 18  1  0  0  0  0
 17 19  1  0  0  0  0
 17 39  1  0  0  0  0
 18 40  1  0  0  0  0
 18 41  1  0  0  0  0
 18 42  1  0  0  0  0
 19 43  1  0  0  0  0
 19 44  1  0  0  0  0
 20 21  2  0  0  0  0
 20 45  1  0  0  0  0
M  CHG  1  13   1
M  END
> <s_m_source_file>
AV-unprocessed.smi

> <i_m_source_file_index>
1956

> <i_lp_mmshare_version>
43012

> <i_f3d_flags>
0

> <s_epik_input>
W0NIM11PYzFbY0hdW2NIXWMoW2NIXW4xKVtOSF1DKD1PKVtOSF1bQ0gyXVtDSDJdTjJbQ0gyXVtDSDJdW0NIMl1bQ0BASF0oW0NIM10pW0NIMl0y

> <s_epik_cmdline>
J2VwaWtfcHl0aG9uJywgJy1waCcsICc3LjAnLCAnLXRuJywgJzgnLCAnLW1hJywgJzIwMCcsICctbWV0YWxfYmluZGluZycsICctaW1hZScsICc8aW5maWxlLm1hZT4nLCAnLW9tYWUnLCAnPG91dGZpbGUubWFlPic=

> <r_lp_tautomer_probability>
1

> <r_epik_Ionization_Penalty>
0.00179545

> <r_epik_Ionization_Penalty_Charging>
0.00171832

> <r_epik_Ionization_Penalty_Neutral>
7.7124e-05

> <r_epik_State_Penalty>
0.0011618

> <r_epik_Charging_Adjusted_Penalty>
0.00288012

> <i_epik_Tot_Q>
1

> <i_epik_Tot_abs_Q>
1

> <r_epik_Metal_State_Penalty>
-0

> <b_epik_Metal_Only>
0

> <s_lp_Force_Field>
OPLS_2005

> <r_lp_Energy>
22.555

> <b_lp_Chiralities_Consistent>
1

> <s_lp_Variant>
AV-unprocessed.smi:1956-3

> <Gold.Version>
5.8.1

> <Gold.Id.Protein>
6NUR|6NUR_protein|mol2

> <Gold.PLP.Fitness>
47.9765

> <Gold.PLP.PLP>
-34.4713

> <Gold.PLP.part.hbond>
-4.0000

> <Gold.PLP.part.metal>
0.0000

> <Gold.PLP.part.buried>
-3.8238

> <Gold.PLP.part.nonpolar>
-25.9798

> <Gold.PLP.part.repulsive>
0.1527

> <Gold.PLP.ligand.clash>
0.0000

> <Gold.PLP.ligand.torsion>
0.7708

> <Gold.PLP.Chemscore.Hbond>
4.0000

> <Gold.PLP.Chemscore.CHOScore>
1.0000

> <Gold.PLP.Chemscore.Metal>
0.0000

> <Gold.Chemscore.Hbonds>
donor molecule, donor type, donor heavy atom, donor atom, acceptor molecule, acceptor atom, score
      L1  H     7    27       P1  7948  0.93
      L1  H    10    28       P1  7948  1.00
      L1  H    13    46       P1 10747  1.00
      P1  H  7989  7998       L1    21  0.70
      L1  C    20    45       P1  7957  0.98

> <Gold.PLP.Chemscore.Internal.Correction>
0.0468

> <Gold.Rescore>
     Score         DG    S(hbond)    S(metal)    S(lipo)     H(rot)  DE(clash)    DE(int)     intcor
     20.11     -21.92       3.24        0.00      85.46       1.71       0.12       1.69       ----

> <Gold.Chemscore.Fitness>
20.1076

> <Gold.Chemscore.DG>
-21.9175

> <Gold.Chemscore.ZeroCoef>
-5.4800

> <Gold.Chemscore.Hbond>
3.2391

> <Gold.Chemscore.Metal>
0.0000

> <Gold.Chemscore.Lipo>
85.4569

> <Gold.Chemscore.Internal_Hbond>
0.0000

> <Gold.Chemscore.DEClash>
0.1241

> <Gold.Chemscore.DEInternal>
1.6858

> <Gold.Chemscore.Rot>
1.7107

> <Gold.Chemscore.Internal.Correction>
   9.000000E+99

> <Gold.Chemscore.Hbonds>
donor molecule, donor type, donor heavy atom, donor atom, acceptor molecule, acceptor atom, score
      L1  H     7    27       P1  7948  0.79
      L1  H    10    28       P1  7948  0.65
      L1  H    13    46       P1 10747  0.99
      P1  H  7989  7998       L1    21  0.07

> <Gold.Chemscore.Hbond.Weighted>
-10.8185

> <Gold.Chemscore.Metal.Weighted>
-0.0000

> <Gold.Chemscore.Lipo.Weighted>
-9.9985

> <Gold.Chemscore.Internal_Hbond.Weighted>
0.0000

> <Gold.Chemscore.DEClash.Weighted>
0.1241

> <Gold.Chemscore.DEInternal.Weighted>
1.6858

> <Gold.Chemscore.Rot.Weighted>
4.3794

> <Gold.Chemscore.Internal.Correction.Weighted>
   9.000000E+99

> <Gold.Protein.RotatedTorsions>
[ 6907 6896 6895 6894 ] final  -39.49 input  -60.11 | X-H torsion
[ 7974 7965 7964 7962 ] final   59.06 input  175.53 | X-H torsion
[ 8008 7997 7996 7995 ] final   64.46 input   59.86 | X-H torsion
[ 10167 10162 10161 10158 ] final  122.35 input  -65.29 | X-H torsion
[ 10718 10713 10712 10709 ] final -129.45 input   66.30 | X-H torsion
[ 10763 10752 10751 10750 ] final -129.57 input  -60.55 | X-H torsion
[ 11005 11000 10999 10996 ] final -170.50 input  -57.11 | X-H torsion

> <Gold.Protein.ActiveResidues>
 VAL166  LYS551  ARG553  GLY616  TRP617  ASP618  TYR619  PRO620  LYS621  CYS622 
 ASP623  PHE694  ASN695  SER759  ASP760  ASP761  ALA762  ILE779  LEU786  VAL792 
 PHE793  MET794  SER795  GLU796  ALA797  LYS798  CYS799  TRP800  GLU811  SER814 

> <Gold.Protein.RotatedAtoms>
  150.9897  134.9234  159.7891 H   0  0  0  0  0  0  0  0  0  0  0  0  # atno 6907 bound_to 6896
  152.5247  134.3299  159.9189 H   0  0  0  0  0  0  0  0  0  0  0  0  # atno 6908 bound_to 6896
  151.3305  133.3961  159.2696 H   0  0  0  0  0  0  0  0  0  0  0  0  # atno 6909 bound_to 6896
  145.9113  139.3656  143.0534 H   0  0  0  0  0  0  0  0  0  0  0  0  # atno 7974 bound_to 7965
  155.6464  140.3497  155.4733 H   0  0  0  0  0  0  0  0  0  0  0  0  # atno 8008 bound_to 7997
  155.9884  140.1188  157.0685 H   0  0  0  0  0  0  0  0  0  0  0  0  # atno 8009 bound_to 7997
  154.4211  140.1124  156.5517 H   0  0  0  0  0  0  0  0  0  0  0  0  # atno 8010 bound_to 7997
  139.5864  144.7008  151.3399 H   0  0  0  0  0  0  0  0  0  0  0  0  # atno 10167 bound_to 10162
  156.2048  130.6880  151.0581 H   0  0  0  0  0  0  0  0  0  0  0  0  # atno 10718 bound_to 10713
  154.8757  135.3891  154.3942 H   0  0  0  0  0  0  0  0  0  0  0  0  # atno 10763 bound_to 10752
  153.4674  135.7029  153.6019 H   0  0  0  0  0  0  0  0  0  0  0  0  # atno 10764 bound_to 10752
  153.4491  135.3838  155.2241 H   0  0  0  0  0  0  0  0  0  0  0  0  # atno 10765 bound_to 10752
  140.5187  134.5730  157.5041 H   0  0  0  0  0  0  0  0  0  0  0  0  # atno 11005 bound_to 11000
  145.8668  140.9443  143.0671 LP  0  0  0  0  0  0  0  0  0  0  0  0  # atno 17320 bound_to 7965
  144.6743  140.0602  143.7476 LP  0  0  0  0  0  0  0  0  0  0  0  0  # atno 17321 bound_to 7965
  140.7135  143.7329  150.7610 LP  0  0  0  0  0  0  0  0  0  0  0  0  # atno 17342 bound_to 10162
  140.0874  143.4910  152.2497 LP  0  0  0  0  0  0  0  0  0  0  0  0  # atno 17343 bound_to 10162
  157.7006  131.0777  150.6832 LP  0  0  0  0  0  0  0  0  0  0  0  0  # atno 17370 bound_to 10713
  156.6890  130.4589  149.5605 LP  0  0  0  0  0  0  0  0  0  0  0  0  # atno 17371 bound_to 10713
  139.9618  134.7440  156.0222 LP  0  0  0  0  0  0  0  0  0  0  0  0  # atno 17394 bound_to 11000
  141.1346  133.6578  156.3557 LP  0  0  0  0  0  0  0  0  0  0  0  0  # atno 17395 bound_to 11000

$$$$
