AV-unprocessed.smi:3038|AV-procd|sdf|11590|dock2
  -GOLD-   2272016563D 1   1.00000     0.00000
 Structure written by MMmdl.
 36 38  0  0  0  0  0  0  0  0  1 V2000
  152.5118  139.8856  155.2972 O   0  0  0  0  0  0  0  0  0  0  0  0
  151.4698  139.2429  155.4260 C   0  0  0  0  0  0  0  0  0  0  0  0
  151.1223  138.1460  154.4204 C   0  0  0  0  0  0  0  0  0  0  0  0
  150.9647  136.8697  155.0906 N   0  0  0  0  0  0  0  0  0  0  0  0
  149.9847  135.9657  155.0349 C   0  0  0  0  0  0  0  0  0  0  0  0
  150.2283  134.9313  155.8251 N   0  0  0  0  0  0  0  0  0  0  0  0
  151.4497  135.2511  156.3944 N   0  0  0  0  0  0  0  0  0  0  0  0
  151.8913  136.4008  155.9631 N   0  0  0  0  0  0  0  0  0  0  0  0
  150.5836  139.4541  156.4116 N   0  0  0  0  0  0  0  0  0  0  0  0
  150.7053  140.4761  157.4462 C   0  0  0  0  0  0  0  0  0  0  0  0
  150.8145  141.8670  156.8034 C   0  0  0  0  0  0  0  0  0  0  0  0
  151.0759  142.9454  157.8698 C   0  0  0  0  0  0  0  0  0  0  0  0
  152.3070  142.6446  158.6009 N   0  0  0  0  0  0  0  0  0  0  0  0
  152.5480  143.7033  159.5677 C   0  0  0  0  0  0  0  0  0  0  0  0
  151.3422  144.3528  160.2077 C   0  0  0  0  0  0  0  0  0  0  0  0
  152.1491  145.1089  159.1800 C   0  0  0  0  0  0  0  0  0  0  0  0
  152.1662  141.3750  159.3144 C   0  0  0  0  0  0  0  0  0  0  0  0
  151.9482  140.2237  158.3170 C   0  0  0  0  0  0  0  0  0  0  0  0
  150.1898  138.3920  153.9108 H   0  0  0  0  0  0  0  0  0  0  0  0
  151.8962  138.0634  153.6555 H   0  0  0  0  0  0  0  0  0  0  0  0
  149.0998  136.0668  154.4239 H   0  0  0  0  0  0  0  0  0  0  0  0
  149.7529  138.8800  156.4342 H   0  0  0  0  0  0  0  0  0  0  0  0
  149.8167  140.4625  158.0807 H   0  0  0  0  0  0  0  0  0  0  0  0
  151.6229  141.8796  156.0705 H   0  0  0  0  0  0  0  0  0  0  0  0
  149.8987  142.1016  156.2595 H   0  0  0  0  0  0  0  0  0  0  0  0
  151.1683  143.9191  157.3870 H   0  0  0  0  0  0  0  0  0  0  0  0
  150.2328  143.0092  158.5598 H   0  0  0  0  0  0  0  0  0  0  0  0
  153.4280  143.6322  160.2051 H   0  0  0  0  0  0  0  0  0  0  0  0
  150.3557  144.0016  159.9110 H   0  0  0  0  0  0  0  0  0  0  0  0
  151.4324  144.6643  161.2462 H   0  0  0  0  0  0  0  0  0  0  0  0
  152.7781  145.9232  159.5337 H   0  0  0  0  0  0  0  0  0  0  0  0
  151.6978  145.2601  158.2012 H   0  0  0  0  0  0  0  0  0  0  0  0
  153.0680  141.1837  159.8974 H   0  0  0  0  0  0  0  0  0  0  0  0
  151.3347  141.4280  160.0191 H   0  0  0  0  0  0  0  0  0  0  0  0
  151.8438  139.2833  158.8593 H   0  0  0  0  0  0  0  0  0  0  0  0
  152.8319  140.1194  157.6852 H   0  0  0  0  0  0  0  0  0  0  0  0
  1  2  2  0  0  0  0
  2  3  1  0  0  0  0
  2  9  1  0  0  0  0
  3  4  1  0  0  0  0
  3 19  1  0  0  0  0
  3 20  1  0  0  0  0
  4  8  1  0  0  0  0
  4  5  1  0  0  0  0
  5  6  2  0  0  0  0
  5 21  1  0  0  0  0
  6  7  1  0  0  0  0
  7  8  2  0  0  0  0
  9 10  1  0  0  0  0
  9 22  1  0  0  0  0
 10 18  1  0  0  0  0
 10 11  1  0  0  0  0
 10 23  1  0  0  0  0
 11 12  1  0  0  0  0
 11 24  1  0  0  0  0
 11 25  1  0  0  0  0
 12 13  1  0  0  0  0
 12 26  1  0  0  0  0
 12 27  1  0  0  0  0
 13 14  1  0  0  0  0
 13 17  1  0  0  0  0
 14 16  1  0  0  0  0
 14 15  1  0  0  0  0
 14 28  1  0  0  0  0
 15 16  1  0  0  0  0
 15 29  1  0  0  0  0
 15 30  1  0  0  0  0
 16 31  1  0  0  0  0
 16 32  1  0  0  0  0
 17 18  1  0  0  0  0
 17 33  1  0  0  0  0
 17 34  1  0  0  0  0
 18 35  1  0  0  0  0
 18 36  1  0  0  0  0
M  END
> <s_m_source_file>
AV-unprocessed.smi

> <i_m_source_file_index>
3038

> <i_lp_mmshare_version>
43012

> <i_f3d_flags>
0

> <s_epik_input>
bjFubltjSF1uMVtDSDJdQyg9TylbTkhdW0NIXTJbQ0gyXVtDSDJdTihbQ0gyXVtDSDJdMilbQ0hdM1tDSDJdW0NIMl0z

> <s_epik_cmdline>
J2VwaWtfcHl0aG9uJywgJy1waCcsICc3LjAnLCAnLXRuJywgJzgnLCAnLW1hJywgJzIwMCcsICctbWV0YWxfYmluZGluZycsICctaW1hZScsICc8aW5maWxlLm1hZT4nLCAnLW9tYWUnLCAnPG91dGZpbGUubWFlPic=

> <r_lp_tautomer_probability>
1

> <r_epik_Ionization_Penalty>
0.571582

> <r_epik_Ionization_Penalty_Charging>
0

> <r_epik_Ionization_Penalty_Neutral>
0.571582

> <r_epik_State_Penalty>
0.583583

> <r_epik_Charging_Adjusted_Penalty>
0.583583

> <i_epik_Tot_Q>
0

> <i_epik_Tot_abs_Q>
0

> <r_epik_Metal_State_Penalty>
0.583583

> <b_epik_Metal_Only>
0

> <s_lp_Force_Field>
OPLS_2005

> <r_lp_Energy>
22.674

> <b_lp_Chiralities_Consistent>
1

> <s_lp_Variant>
AV-unprocessed.smi:3038-3

> <Gold.Version>
5.8.1

> <Gold.Id.Protein>
6NUR|6NUR_protein|mol2

> <Gold.PLP.Fitness>
44.2544

> <Gold.PLP.PLP>
-36.9182

> <Gold.PLP.part.hbond>
-3.8086

> <Gold.PLP.part.metal>
0.0000

> <Gold.PLP.part.buried>
-5.6520

> <Gold.PLP.part.nonpolar>
-28.9512

> <Gold.PLP.part.repulsive>
0.1277

> <Gold.PLP.ligand.clash>
0.3888

> <Gold.PLP.ligand.torsion>
0.6848

> <Gold.PLP.Chemscore.Hbond>
1.6828

> <Gold.PLP.Chemscore.CHOScore>
0.9508

> <Gold.PLP.Chemscore.Metal>
0.0000

> <Gold.Chemscore.Hbonds>
donor molecule, donor type, donor heavy atom, donor atom, acceptor molecule, acceptor atom, score
      P1  H  7989  7998       L1     1  0.17
      P1  H  7997  8008       L1     1  0.99
      P1  H 10752 10764       L1     8  0.48
      L1  C     5    21       P1  7948  0.89

> <Gold.PLP.Chemscore.Internal.Correction>
1.1938

> <Gold.Rescore>
     Score         DG    S(hbond)    S(metal)    S(lipo)     H(rot)  DE(clash)    DE(int)     intcor
     11.52     -13.28       1.08        0.00      84.01       2.21       0.07       1.68       ----

> <Gold.Chemscore.Fitness>
11.5234

> <Gold.Chemscore.DG>
-13.2764

> <Gold.Chemscore.ZeroCoef>
-5.4800

> <Gold.Chemscore.Hbond>
1.0845

> <Gold.Chemscore.Metal>
0.0000

> <Gold.Chemscore.Lipo>
84.0114

> <Gold.Chemscore.Internal_Hbond>
0.0000

> <Gold.Chemscore.DEClash>
0.0739

> <Gold.Chemscore.DEInternal>
1.6791

> <Gold.Chemscore.Rot>
2.2090

> <Gold.Chemscore.Internal.Correction>
   9.000000E+99

> <Gold.Chemscore.Hbonds>
donor molecule, donor type, donor heavy atom, donor atom, acceptor molecule, acceptor atom, score
      P1  H  7989  7998       L1     1  0.01
      P1  H  7997  8008       L1     1  0.92

> <Gold.Chemscore.Hbond.Weighted>
-3.6222

> <Gold.Chemscore.Metal.Weighted>
-0.0000

> <Gold.Chemscore.Lipo.Weighted>
-9.8293

> <Gold.Chemscore.Internal_Hbond.Weighted>
0.0000

> <Gold.Chemscore.DEClash.Weighted>
0.0739

> <Gold.Chemscore.DEInternal.Weighted>
1.6791

> <Gold.Chemscore.Rot.Weighted>
5.6551

> <Gold.Chemscore.Internal.Correction.Weighted>
   9.000000E+99

> <Gold.Protein.RotatedTorsions>
[ 6907 6896 6895 6894 ] final -133.15 input  -60.11 | X-H torsion
[ 7974 7965 7964 7962 ] final   90.62 input  175.53 | X-H torsion
[ 8008 7997 7996 7995 ] final  -21.73 input   59.86 | X-H torsion
[ 10167 10162 10161 10158 ] final   27.57 input  -65.29 | X-H torsion
[ 10718 10713 10712 10709 ] final   30.28 input   66.30 | X-H torsion
[ 10763 10752 10751 10750 ] final  -48.69 input  -60.55 | X-H torsion
[ 11005 11000 10999 10996 ] final  105.89 input  -57.11 | X-H torsion

> <Gold.Protein.ActiveResidues>
 VAL166  LYS551  ARG553  GLY616  TRP617  ASP618  TYR619  PRO620  LYS621  CYS622 
 ASP623  PHE694  ASN695  SER759  ASP760  ASP761  ALA762  ILE779  LEU786  VAL792 
 PHE793  MET794  SER795  GLU796  ALA797  LYS798  CYS799  TRP800  GLU811  SER814 

> <Gold.Protein.RotatedAtoms>
  150.9706  133.6348  159.2738 H   0  0  0  0  0  0  0  0  0  0  0  0  # atno 6907 bound_to 6896
  151.3638  135.0908  159.9453 H   0  0  0  0  0  0  0  0  0  0  0  0  # atno 6908 bound_to 6896
  152.5181  133.9275  159.7619 H   0  0  0  0  0  0  0  0  0  0  0  0  # atno 6909 bound_to 6896
  145.5165  139.2278  143.2695 H   0  0  0  0  0  0  0  0  0  0  0  0  # atno 7974 bound_to 7965
  154.4688  140.2027  156.0049 H   0  0  0  0  0  0  0  0  0  0  0  0  # atno 8008 bound_to 7997
  156.0974  140.3249  155.7866 H   0  0  0  0  0  0  0  0  0  0  0  0  # atno 8009 bound_to 7997
  155.4855  140.0542  157.2952 H   0  0  0  0  0  0  0  0  0  0  0  0  # atno 8010 bound_to 7997
  140.4927  144.0441  150.6303 H   0  0  0  0  0  0  0  0  0  0  0  0  # atno 10167 bound_to 10162
  157.2575  130.7145  149.6436 H   0  0  0  0  0  0  0  0  0  0  0  0  # atno 10718 bound_to 10713
  154.0820  135.6590  153.4839 H   0  0  0  0  0  0  0  0  0  0  0  0  # atno 10763 bound_to 10752
  153.0352  135.5182  154.7465 H   0  0  0  0  0  0  0  0  0  0  0  0  # atno 10764 bound_to 10752
  154.6563  135.3008  154.9892 H   0  0  0  0  0  0  0  0  0  0  0  0  # atno 10765 bound_to 10752
  139.8807  134.9351  156.5582 H   0  0  0  0  0  0  0  0  0  0  0  0  # atno 11005 bound_to 11000
  146.2133  140.5975  142.9050 LP  0  0  0  0  0  0  0  0  0  0  0  0  # atno 17320 bound_to 7965
  144.7699  140.5614  143.6677 LP  0  0  0  0  0  0  0  0  0  0  0  0  # atno 17321 bound_to 7965
  140.3715  143.2852  152.0273 LP  0  0  0  0  0  0  0  0  0  0  0  0  # atno 17342 bound_to 10162
  139.4854  144.6226  151.7225 LP  0  0  0  0  0  0  0  0  0  0  0  0  # atno 17343 bound_to 10162
  155.9664  130.4408  150.5314 LP  0  0  0  0  0  0  0  0  0  0  0  0  # atno 17370 bound_to 10713
  157.3212  131.0682  151.1931 LP  0  0  0  0  0  0  0  0  0  0  0  0  # atno 17371 bound_to 10713
  140.8189  133.8369  155.8877 LP  0  0  0  0  0  0  0  0  0  0  0  0  # atno 17394 bound_to 11000
  140.9437  134.1868  157.4779 LP  0  0  0  0  0  0  0  0  0  0  0  0  # atno 17395 bound_to 11000

$$$$
