AV-unprocessed.smi:2059|AV-procd|sdf|8351|dock8
  -GOLD-   2272011 23D 1   1.00000     0.00000
 Structure written by MMmdl.
 29 30  0  0  0  0  0  0  0  0  2 V2000
  150.0385  135.3735  154.8546 C   0  0  0  0  0  0  0  0  0  0  0  0
  150.5977  136.7551  154.8718 C   0  0  0  0  0  0  0  0  0  0  0  0
  150.0821  137.9590  155.2592 C   0  0  0  0  0  0  0  0  0  0  0  0
  151.1496  138.8646  155.0127 C   0  0  0  0  0  0  0  0  0  0  0  0
  151.1225  140.1908  155.2336 N   0  5  0  0  0  0  0  0  0  0  0  0
  151.5982  140.7581  156.3740 C   0  0  0  0  0  0  0  0  0  0  0  0
  152.4886  140.2544  157.0576 O   0  0  0  0  0  0  0  0  0  0  0  0
  151.0597  141.9287  156.7670 N   0  0  0  0  0  0  0  0  0  0  0  0
  151.4364  142.6973  157.9489 C   0  0  1  0  0  0  0  0  0  0  0  0
  151.9532  144.0925  157.5525 C   0  0  0  0  0  0  0  0  0  0  0  0
  151.9940  144.9756  158.8052 C   0  0  0  0  0  0  0  0  0  0  0  0
  150.6270  144.3947  159.8793 S   0  0  0  0  0  0  0  0  0  0  0  0
  151.1791  144.0144  161.1885 O   0  0  0  0  0  0  0  0  0  0  0  0
  149.4927  145.3257  159.7787 O   0  0  0  0  0  0  0  0  0  0  0  0
  150.2516  142.8861  158.9103 C   0  0  0  0  0  0  0  0  0  0  0  0
  152.2152  138.2651  154.5080 N   0  0  0  0  0  0  0  0  0  0  0  0
  151.8713  136.9108  154.4199 O   0  0  0  0  0  0  0  0  0  0  0  0
  149.2685  135.2801  154.0889 H   0  0  0  0  0  0  0  0  0  0  0  0
  149.5905  135.1263  155.8171 H   0  0  0  0  0  0  0  0  0  0  0  0
  150.8147  134.6373  154.6451 H   0  0  0  0  0  0  0  0  0  0  0  0
  149.0990  138.1616  155.6568 H   0  0  0  0  0  0  0  0  0  0  0  0
  150.3268  142.3152  156.1900 H   0  0  0  0  0  0  0  0  0  0  0  0
  152.2398  142.1814  158.4782 H   0  0  0  0  0  0  0  0  0  0  0  0
  152.9278  144.0414  157.0660 H   0  0  0  0  0  0  0  0  0  0  0  0
  151.2632  144.5393  156.8352 H   0  0  0  0  0  0  0  0  0  0  0  0
  152.9292  144.8329  159.3466 H   0  0  0  0  0  0  0  0  0  0  0  0
  151.8771  146.0362  158.5830 H   0  0  0  0  0  0  0  0  0  0  0  0
  149.3246  143.0620  158.3636 H   0  0  0  0  0  0  0  0  0  0  0  0
  150.1062  142.0358  159.5767 H   0  0  0  0  0  0  0  0  0  0  0  0
  1  2  1  0  0  0  0
  1 18  1  0  0  0  0
  1 19  1  0  0  0  0
  1 20  1  0  0  0  0
  2 17  1  0  0  0  0
  2  3  2  0  0  0  0
  3  4  1  0  0  0  0
  3 21  1  0  0  0  0
  4  5  1  0  0  0  0
  4 16  2  0  0  0  0
  5  6  1  0  0  0  0
  6  7  2  0  0  0  0
  6  8  1  0  0  0  0
  8  9  1  0  0  0  0
  8 22  1  0  0  0  0
  9 15  1  0  0  0  0
  9 10  1  0  0  0  0
  9 23  1  0  0  0  0
 10 11  1  0  0  0  0
 10 24  1  0  0  0  0
 10 25  1  0  0  0  0
 11 12  1  0  0  0  0
 11 26  1  0  0  0  0
 11 27  1  0  0  0  0
 12 13  2  0  0  0  0
 12 14  2  0  0  0  0
 12 15  1  0  0  0  0
 15 28  1  0  0  0  0
 15 29  1  0  0  0  0
 16 17  1  0  0  0  0
M  CHG  1   5  -1
M  END
> <s_m_source_file>
AV-unprocessed.smi

> <i_m_source_file_index>
2059

> <i_lp_mmshare_version>
43012

> <i_f3d_flags>
0

> <s_epik_input>
W0NIM11jMVtjSF1jKG5vMSlbTkhdQyg9TylbTkhdW0NAQEhdKFtDSDJdMilbQ0gyXVtDSDJdUzIoPU8pPU8=

> <s_epik_cmdline>
J2VwaWtfcHl0aG9uJywgJy1waCcsICc3LjAnLCAnLXRuJywgJzgnLCAnLW1hJywgJzIwMCcsICctbWV0YWxfYmluZGluZycsICctaW1hZScsICc8aW5maWxlLm1hZT4nLCAnLW9tYWUnLCAnPG91dGZpbGUubWFlPic=

> <r_lp_tautomer_probability>
1

> <r_epik_Ionization_Penalty>
6.15571

> <r_epik_Ionization_Penalty_Charging>
6.1556

> <r_epik_Ionization_Penalty_Neutral>
0.000110918

> <r_epik_State_Penalty>
6.15558

> <r_epik_Charging_Adjusted_Penalty>
12.3112

> <i_epik_Tot_Q>
-1

> <i_epik_Tot_abs_Q>
1

> <r_epik_Metal_State_Penalty>
2.1059

> <b_epik_Metal_Only>
1

> <s_lp_Force_Field>
OPLS_2005

> <r_lp_Energy>
-1.66836

> <b_lp_Chiralities_Consistent>
1

> <s_lp_Variant>
AV-unprocessed.smi:2059-4

> <Gold.Version>
5.8.1

> <Gold.Id.Protein>
6NUR|6NUR_protein|mol2

> <Gold.PLP.Fitness>
37.2023

> <Gold.PLP.PLP>
-30.0046

> <Gold.PLP.part.hbond>
-4.2304

> <Gold.PLP.part.metal>
0.0000

> <Gold.PLP.part.buried>
-5.3058

> <Gold.PLP.part.nonpolar>
-21.5193

> <Gold.PLP.part.repulsive>
1.3169

> <Gold.PLP.ligand.clash>
0.0000

> <Gold.PLP.ligand.torsion>
0.9027

> <Gold.PLP.Chemscore.Hbond>
3.0000

> <Gold.PLP.Chemscore.CHOScore>
0.0000

> <Gold.PLP.Chemscore.Metal>
0.0000

> <Gold.Chemscore.Hbonds>
donor molecule, donor type, donor heavy atom, donor atom, acceptor molecule, acceptor atom, score
      P1  H  7989  7998       L1     5  1.00
      P1  H  7997  8010       L1     7  1.00
      P1  H 10752 10763       L1    17  1.00

> <Gold.PLP.Chemscore.Internal.Correction>
0.0031

> <Gold.Rescore>
     Score         DG    S(hbond)    S(metal)    S(lipo)     H(rot)  DE(clash)    DE(int)     intcor
     16.64     -18.08       2.50        0.00      58.29       1.00       0.50       0.93       ----

> <Gold.Chemscore.Fitness>
16.6446

> <Gold.Chemscore.DG>
-18.0790

> <Gold.Chemscore.ZeroCoef>
-5.4800

> <Gold.Chemscore.Hbond>
2.4966

> <Gold.Chemscore.Metal>
0.0000

> <Gold.Chemscore.Lipo>
58.2919

> <Gold.Chemscore.Internal_Hbond>
0.0000

> <Gold.Chemscore.DEClash>
0.5044

> <Gold.Chemscore.DEInternal>
0.9300

> <Gold.Chemscore.Rot>
1.0000

> <Gold.Chemscore.Internal.Correction>
   9.000000E+99

> <Gold.Chemscore.Hbonds>
donor molecule, donor type, donor heavy atom, donor atom, acceptor molecule, acceptor atom, score
      P1  H  7989  7998       L1     5  0.33
      P1  H  7997  8010       L1     7  0.95
      P1  H 10752 10763       L1    17  0.97

> <Gold.Chemscore.Hbond.Weighted>
-8.3388

> <Gold.Chemscore.Metal.Weighted>
-0.0000

> <Gold.Chemscore.Lipo.Weighted>
-6.8202

> <Gold.Chemscore.Internal_Hbond.Weighted>
0.0000

> <Gold.Chemscore.DEClash.Weighted>
0.5044

> <Gold.Chemscore.DEInternal.Weighted>
0.9300

> <Gold.Chemscore.Rot.Weighted>
2.5600

> <Gold.Chemscore.Internal.Correction.Weighted>
   9.000000E+99

> <Gold.Protein.RotatedTorsions>
[ 6907 6896 6895 6894 ] final   28.32 input  -60.11 | X-H torsion
[ 7974 7965 7964 7962 ] final  -61.26 input  175.53 | X-H torsion
[ 8008 7997 7996 7995 ] final   66.00 input   59.86 | X-H torsion
[ 10167 10162 10161 10158 ] final  -47.06 input  -65.29 | X-H torsion
[ 10718 10713 10712 10709 ] final -105.79 input   66.30 | X-H torsion
[ 10763 10752 10751 10750 ] final   42.77 input  -60.55 | X-H torsion
[ 11005 11000 10999 10996 ] final -114.59 input  -57.11 | X-H torsion

> <Gold.Protein.ActiveResidues>
 VAL166  LYS551  ARG553  GLY616  TRP617  ASP618  TYR619  PRO620  LYS621  CYS622 
 ASP623  PHE694  ASN695  SER759  ASP760  ASP761  ALA762  ILE779  LEU786  VAL792 
 PHE793  MET794  SER795  GLU796  ALA797  LYS798  CYS799  TRP800  GLU811  SER814 

> <Gold.Protein.RotatedAtoms>
  152.0152  134.9854  160.0568 H   0  0  0  0  0  0  0  0  0  0  0  0  # atno 6907 bound_to 6896
  152.1390  133.4448  159.4766 H   0  0  0  0  0  0  0  0  0  0  0  0  # atno 6908 bound_to 6896
  150.6863  134.2246  159.4453 H   0  0  0  0  0  0  0  0  0  0  0  0  # atno 6909 bound_to 6896
  145.8057  140.8629  143.0208 H   0  0  0  0  0  0  0  0  0  0  0  0  # atno 7974 bound_to 7965
  155.6706  140.3497  155.4817 H   0  0  0  0  0  0  0  0  0  0  0  0  # atno 8008 bound_to 7997
  155.9691  140.1152  157.0851 H   0  0  0  0  0  0  0  0  0  0  0  0  # atno 8009 bound_to 7997
  154.4162  140.1160  156.5269 H   0  0  0  0  0  0  0  0  0  0  0  0  # atno 8010 bound_to 7997
  140.6791  143.2801  151.3873 H   0  0  0  0  0  0  0  0  0  0  0  0  # atno 10167 bound_to 10162
  156.0361  130.5581  150.7589 H   0  0  0  0  0  0  0  0  0  0  0  0  # atno 10718 bound_to 10713
  152.9875  135.6121  154.3003 H   0  0  0  0  0  0  0  0  0  0  0  0  # atno 10763 bound_to 10752
  154.2724  135.2779  155.2734 H   0  0  0  0  0  0  0  0  0  0  0  0  # atno 10764 bound_to 10752
  154.5110  135.5841  153.6662 H   0  0  0  0  0  0  0  0  0  0  0  0  # atno 10765 bound_to 10752
  141.0542  133.9639  157.2783 H   0  0  0  0  0  0  0  0  0  0  0  0  # atno 11005 bound_to 11000
  144.6763  140.0322  143.7482 LP  0  0  0  0  0  0  0  0  0  0  0  0  # atno 17320 bound_to 7965
  145.9831  139.2956  143.1030 LP  0  0  0  0  0  0  0  0  0  0  0  0  # atno 17321 bound_to 7965
  139.6101  144.1115  152.2290 LP  0  0  0  0  0  0  0  0  0  0  0  0  # atno 17342 bound_to 10162
  140.0527  144.5920  150.7324 LP  0  0  0  0  0  0  0  0  0  0  0  0  # atno 17343 bound_to 10162
  157.5113  131.0925  151.0194 LP  0  0  0  0  0  0  0  0  0  0  0  0  # atno 17370 bound_to 10713
  157.0549  130.5802  149.5376 LP  0  0  0  0  0  0  0  0  0  0  0  0  # atno 17371 bound_to 10713
  139.9376  135.0195  156.8606 LP  0  0  0  0  0  0  0  0  0  0  0  0  # atno 17394 bound_to 11000
  140.5996  134.0184  155.7532 LP  0  0  0  0  0  0  0  0  0  0  0  0  # atno 17395 bound_to 11000

$$$$
