AV-unprocessed.smi:1619|AV-procd|sdf|6487|dock2
  -GOLD-   22720 7153D 1   1.00000     0.00000
 Structure written by MMmdl.
 44 46  0  0  0  0  0  0  0  0  2 V2000
  153.7135  142.3248  160.5538 C   0  0  0  0  0  0  0  0  0  0  0  0
  152.7105  142.0797  159.4405 C   0  0  0  0  0  0  0  0  0  0  0  0
  152.5557  140.7705  158.9311 C   0  0  0  0  0  0  0  0  0  0  0  0
  151.6337  140.5002  157.8965 C   0  0  0  0  0  0  0  0  0  0  0  0
  151.3217  139.3129  157.2566 N   0  0  0  0  0  0  0  0  0  0  0  0
  150.3927  139.7101  156.3919 C   0  0  0  0  0  0  0  0  0  0  0  0
  150.0628  141.0163  156.3983 N   0  0  0  0  0  0  0  0  0  0  0  0
  149.0853  141.6823  155.5565 C   0  0  0  0  0  0  0  0  0  0  0  0
  148.6166  140.7944  154.3880 C   0  0  2  0  0  0  0  0  0  0  0  0
  149.6043  140.7945  153.3746 O   0  0  0  0  0  0  0  0  0  0  0  0
  147.2848  141.2856  153.7893 C   0  0  0  0  0  0  0  0  0  0  0  0
  146.3436  140.1712  153.5245 N   0  3  0  0  0  0  0  0  0  0  0  0
  146.7996  139.1771  152.5219 C   0  0  0  0  0  0  0  0  0  0  0  0
  146.4438  137.7901  153.0743 C   0  0  0  0  0  0  0  0  0  0  0  0
  145.4713  138.0674  154.2162 C   0  0  0  0  0  0  0  0  0  0  0  0
  145.9327  139.4265  154.7313 C   0  0  0  0  0  0  0  0  0  0  0  0
  150.8653  141.5847  157.3810 C   0  0  0  0  0  0  0  0  0  0  0  0
  151.0116  142.8919  157.8776 C   0  0  0  0  0  0  0  0  0  0  0  0
  151.9368  143.1442  158.9121 C   0  0  0  0  0  0  0  0  0  0  0  0
  152.0869  144.5590  159.4431 C   0  0  0  0  0  0  0  0  0  0  0  0
  154.1991  141.3989  160.8636 H   0  0  0  0  0  0  0  0  0  0  0  0
  153.2198  142.7508  161.4275 H   0  0  0  0  0  0  0  0  0  0  0  0
  154.4896  143.0149  160.2222 H   0  0  0  0  0  0  0  0  0  0  0  0
  153.1459  139.9600  159.3326 H   0  0  0  0  0  0  0  0  0  0  0  0
  149.9224  139.0101  155.7168 H   0  0  0  0  0  0  0  0  0  0  0  0
  148.2366  141.9596  156.1829 H   0  0  0  0  0  0  0  0  0  0  0  0
  149.5160  142.6135  155.1848 H   0  0  0  0  0  0  0  0  0  0  0  0
  148.5035  139.7721  154.7501 H   0  0  0  0  0  0  0  0  0  0  0  0
  149.3462  140.1866  152.6983 H   0  0  0  0  0  0  0  0  0  0  0  0
  146.8066  142.0002  154.4614 H   0  0  0  0  0  0  0  0  0  0  0  0
  147.4804  141.8205  152.8583 H   0  0  0  0  0  0  0  0  0  0  0  0
  146.2852  139.3693  151.5798 H   0  0  0  0  0  0  0  0  0  0  0  0
  147.8720  139.2459  152.3324 H   0  0  0  0  0  0  0  0  0  0  0  0
  146.0219  137.1305  152.3151 H   0  0  0  0  0  0  0  0  0  0  0  0
  147.3414  137.3112  153.4679 H   0  0  0  0  0  0  0  0  0  0  0  0
  144.4540  138.1411  153.8294 H   0  0  0  0  0  0  0  0  0  0  0  0
  145.4858  137.2938  154.9845 H   0  0  0  0  0  0  0  0  0  0  0  0
  146.7903  139.2950  155.3938 H   0  0  0  0  0  0  0  0  0  0  0  0
  145.1545  139.9530  155.2850 H   0  0  0  0  0  0  0  0  0  0  0  0
  150.4161  143.6931  157.4659 H   0  0  0  0  0  0  0  0  0  0  0  0
  151.4318  145.2536  158.9164 H   0  0  0  0  0  0  0  0  0  0  0  0
  153.1125  144.9071  159.3185 H   0  0  0  0  0  0  0  0  0  0  0  0
  151.8334  144.5981  160.5028 H   0  0  0  0  0  0  0  0  0  0  0  0
  145.4988  140.5805  153.1506 H   0  0  0  0  0  0  0  0  0  0  0  0
  1  2  1  0  0  0  0
  1 21  1  0  0  0  0
  1 22  1  0  0  0  0
  1 23  1  0  0  0  0
  2 19  1  0  0  0  0
  2  3  2  0  0  0  0
  3  4  1  0  0  0  0
  3 24  1  0  0  0  0
  4 17  2  0  0  0  0
  4  5  1  0  0  0  0
  5  6  2  0  0  0  0
  6  7  1  0  0  0  0
  6 25  1  0  0  0  0
  7  8  1  0  0  0  0
  7 17  1  0  0  0  0
  8  9  1  0  0  0  0
  8 26  1  0  0  0  0
  8 27  1  0  0  0  0
  9 10  1  0  0  0  0
  9 11  1  0  0  0  0
  9 28  1  0  0  0  0
 10 29  1  0  0  0  0
 11 12  1  0  0  0  0
 11 30  1  0  0  0  0
 11 31  1  0  0  0  0
 12 16  1  0  0  0  0
 12 13  1  0  0  0  0
 12 44  1  0  0  0  0
 13 14  1  0  0  0  0
 13 32  1  0  0  0  0
 13 33  1  0  0  0  0
 14 15  1  0  0  0  0
 14 34  1  0  0  0  0
 14 35  1  0  0  0  0
 15 16  1  0  0  0  0
 15 36  1  0  0  0  0
 15 37  1  0  0  0  0
 16 38  1  0  0  0  0
 16 39  1  0  0  0  0
 17 18  1  0  0  0  0
 18 19  2  0  0  0  0
 18 40  1  0  0  0  0
 19 20  1  0  0  0  0
 20 41  1  0  0  0  0
 20 42  1  0  0  0  0
 20 43  1  0  0  0  0
M  CHG  1  12   1
M  END
> <s_m_source_file>
AV-unprocessed.smi

> <i_m_source_file_index>
1619

> <i_lp_mmshare_version>
43012

> <i_f3d_flags>
0

> <s_epik_input>
W0NIM11jKFtjSF0xKWMoW0NIM10pW2NIXWMoYzEyKW4oW2NIXW4yKVtDSDJdW0NASF0oW09IXSlbQ0gyXU4zW0NIMl1bQ0gyXVtDSDJdW0NIMl0z

> <s_epik_cmdline>
J2VwaWtfcHl0aG9uJywgJy1waCcsICc3LjAnLCAnLXRuJywgJzgnLCAnLW1hJywgJzIwMCcsICctbWV0YWxfYmluZGluZycsICctaW1hZScsICc8aW5maWxlLm1hZT4nLCAnLW9tYWUnLCAnPG91dGZpbGUubWFlPic=

> <r_epik_Ionization_Penalty>
0.0947557

> <r_epik_Ionization_Penalty_Charging>
0.00674132

> <r_epik_Ionization_Penalty_Neutral>
0.0880144

> <r_epik_State_Penalty>
0.0806172

> <r_epik_Charging_Adjusted_Penalty>
0.0873585

> <i_epik_Tot_Q>
1

> <i_epik_Tot_abs_Q>
1

> <r_epik_Metal_State_Penalty>
8.03852e-05

> <b_epik_Metal_Only>
0

> <s_lp_Force_Field>
OPLS_2005

> <r_lp_Energy>
32.0343

> <b_lp_Chiralities_Consistent>
1

> <s_lp_Variant>
AV-unprocessed.smi:1619-1

> <Gold.Version>
5.8.1

> <Gold.Id.Protein>
6NUR|6NUR_protein|mol2

> <Gold.PLP.Fitness>
50.9552

> <Gold.PLP.PLP>
-40.6432

> <Gold.PLP.part.hbond>
-3.3033

> <Gold.PLP.part.metal>
0.0000

> <Gold.PLP.part.buried>
-2.9634

> <Gold.PLP.part.nonpolar>
-34.9350

> <Gold.PLP.part.repulsive>
0.0000

> <Gold.PLP.ligand.clash>
0.0000

> <Gold.PLP.ligand.torsion>
0.9124

> <Gold.PLP.Chemscore.Hbond>
4.0080

> <Gold.PLP.Chemscore.CHOScore>
0.0000

> <Gold.PLP.Chemscore.Metal>
0.0000

> <Gold.Chemscore.Hbonds>
donor molecule, donor type, donor heavy atom, donor atom, acceptor molecule, acceptor atom, score
      L1  H    10    29       P1  7957  0.70
      L1  H    12    44       P1 10175  2.00
      P1  H  7989  7998       L1    10  0.30
      P1  H  8011  8017       L1    10  1.00

> <Gold.PLP.Chemscore.Internal.Correction>
0.1128

> <Gold.Rescore>
     Score         DG    S(hbond)    S(metal)    S(lipo)     H(rot)  DE(clash)    DE(int)     intcor
     20.40     -21.56       2.42        0.00     112.58       2.02       0.19       0.96       ----

> <Gold.Chemscore.Fitness>
20.4001

> <Gold.Chemscore.DG>
-21.5550

> <Gold.Chemscore.ZeroCoef>
-5.4800

> <Gold.Chemscore.Hbond>
2.4194

> <Gold.Chemscore.Metal>
0.0000

> <Gold.Chemscore.Lipo>
112.5835

> <Gold.Chemscore.Internal_Hbond>
0.0000

> <Gold.Chemscore.DEClash>
0.1915

> <Gold.Chemscore.DEInternal>
0.9634

> <Gold.Chemscore.Rot>
2.0227

> <Gold.Chemscore.Internal.Correction>
   9.000000E+99

> <Gold.Chemscore.Hbonds>
donor molecule, donor type, donor heavy atom, donor atom, acceptor molecule, acceptor atom, score
      L1  H    10    29       P1  7957  0.70
      L1  H    12    44       P1 10175  0.83
      P1  H  7989  7998       L1    10  0.20
      P1  H  8011  8017       L1    10  0.24

> <Gold.Chemscore.Hbond.Weighted>
-8.0808

> <Gold.Chemscore.Metal.Weighted>
-0.0000

> <Gold.Chemscore.Lipo.Weighted>
-13.1723

> <Gold.Chemscore.Internal_Hbond.Weighted>
0.0000

> <Gold.Chemscore.DEClash.Weighted>
0.1915

> <Gold.Chemscore.DEInternal.Weighted>
0.9634

> <Gold.Chemscore.Rot.Weighted>
5.1780

> <Gold.Chemscore.Internal.Correction.Weighted>
   9.000000E+99

> <Gold.Protein.RotatedTorsions>
[ 6907 6896 6895 6894 ] final  -73.09 input  -60.11 | X-H torsion
[ 7974 7965 7964 7962 ] final   47.26 input  175.53 | X-H torsion
[ 8008 7997 7996 7995 ] final   97.32 input   59.86 | X-H torsion
[ 10167 10162 10161 10158 ] final  130.99 input  -65.29 | X-H torsion
[ 10718 10713 10712 10709 ] final  -82.23 input   66.30 | X-H torsion
[ 10763 10752 10751 10750 ] final  -38.90 input  -60.55 | X-H torsion
[ 11005 11000 10999 10996 ] final   -2.11 input  -57.11 | X-H torsion

> <Gold.Protein.ActiveResidues>
 VAL166  LYS551  ARG553  GLY616  TRP617  ASP618  TYR619  PRO620  LYS621  CYS622 
 ASP623  PHE694  ASN695  SER759  ASP760  ASP761  ALA762  ILE779  LEU786  VAL792 
 PHE793  MET794  SER795  GLU796  ALA797  LYS798  CYS799  TRP800  GLU811  SER814 

> <Gold.Protein.RotatedAtoms>
  150.7144  134.5068  159.5587 H   0  0  0  0  0  0  0  0  0  0  0  0  # atno 6907 bound_to 6896
  152.2653  134.7988  160.0432 H   0  0  0  0  0  0  0  0  0  0  0  0  # atno 6908 bound_to 6896
  151.8687  133.3436  159.3764 H   0  0  0  0  0  0  0  0  0  0  0  0  # atno 6909 bound_to 6896
  146.0314  139.4768  142.9835 H   0  0  0  0  0  0  0  0  0  0  0  0  # atno 7974 bound_to 7965
  156.0889  140.3260  155.7790 H   0  0  0  0  0  0  0  0  0  0  0  0  # atno 8008 bound_to 7997
  155.5029  140.0570  157.2953 H   0  0  0  0  0  0  0  0  0  0  0  0  # atno 8009 bound_to 7997
  154.4626  140.1974  156.0221 H   0  0  0  0  0  0  0  0  0  0  0  0  # atno 8010 bound_to 7997
  139.5404  144.6725  151.4643 H   0  0  0  0  0  0  0  0  0  0  0  0  # atno 10167 bound_to 10162
  156.0036  130.4628  150.4074 H   0  0  0  0  0  0  0  0  0  0  0  0  # atno 10718 bound_to 10713
  153.9205  135.6783  153.4748 H   0  0  0  0  0  0  0  0  0  0  0  0  # atno 10763 bound_to 10752
  153.1031  135.4818  154.8900 H   0  0  0  0  0  0  0  0  0  0  0  0  # atno 10764 bound_to 10752
  154.7480  135.3177  154.8565 H   0  0  0  0  0  0  0  0  0  0  0  0  # atno 10765 bound_to 10752
  140.6547  133.9373  155.8401 H   0  0  0  0  0  0  0  0  0  0  0  0  # atno 11005 bound_to 11000
  145.7035  141.0128  143.1491 LP  0  0  0  0  0  0  0  0  0  0  0  0  # atno 17320 bound_to 7965
  144.7032  139.8672  143.7438 LP  0  0  0  0  0  0  0  0  0  0  0  0  # atno 17321 bound_to 7965
  140.6631  143.8455  150.6911 LP  0  0  0  0  0  0  0  0  0  0  0  0  # atno 17342 bound_to 10162
  140.1856  143.4078  152.1901 LP  0  0  0  0  0  0  0  0  0  0  0  0  # atno 17343 bound_to 10162
  157.2139  131.0467  151.2584 LP  0  0  0  0  0  0  0  0  0  0  0  0  # atno 17370 bound_to 10713
  157.3863  130.7258  149.6666 LP  0  0  0  0  0  0  0  0  0  0  0  0  # atno 17371 bound_to 10713
  141.0510  134.0484  157.3783 LP  0  0  0  0  0  0  0  0  0  0  0  0  # atno 17394 bound_to 11000
  139.9033  135.0172  156.7372 LP  0  0  0  0  0  0  0  0  0  0  0  0  # atno 17395 bound_to 11000

$$$$
