AV-unprocessed.smi:2140|AV-procd|sdf|8714|dock4
  -GOLD-   2272011483D 1   1.00000     0.00000
 Structure written by MMmdl.
 39 40  0  0  0  0  0  0  0  0  1 V2000
  146.7167  140.7911  153.4737 C   0  0  0  0  0  0  0  0  0  0  0  0
  147.5608  139.4928  153.5409 C   0  0  2  0  0  0  0  0  0  0  0  0
  146.6278  138.2965  153.8834 C   0  0  0  0  0  0  0  0  0  0  0  0
  146.8668  137.1261  153.0412 N   0  0  0  0  0  0  0  0  0  0  0  0
  145.9634  136.1829  152.7370 C   0  0  0  0  0  0  0  0  0  0  0  0
  144.7993  136.1997  153.1357 O   0  0  0  0  0  0  0  0  0  0  0  0
  146.5046  135.2273  151.9624 N   0  0  0  0  0  0  0  0  0  0  0  0
  145.8789  134.0727  151.4200 C   0  0  0  0  0  0  0  0  0  0  0  0
  144.4707  134.0099  151.4447 C   0  0  0  0  0  0  0  0  0  0  0  0
  143.8253  132.8696  150.9299 C   0  0  0  0  0  0  0  0  0  0  0  0
  144.6188  131.8257  150.4166 C   0  0  0  0  0  0  0  0  0  0  0  0
  145.9678  131.8617  150.3998 N   0  0  0  0  0  0  0  0  0  0  0  0
  146.5806  132.9598  150.8931 C   0  0  0  0  0  0  0  0  0  0  0  0
  148.7197  139.6107  154.4583 N   0  0  0  0  0  0  0  0  0  0  0  0
  149.8595  138.7844  154.0426 C   0  0  0  0  0  0  0  0  0  0  0  0
  151.0775  138.9299  154.9712 C   0  0  0  0  0  0  0  0  0  0  0  0
  151.4643  140.2948  155.0446 O   0  0  0  0  0  0  0  0  0  0  0  0
  150.4125  141.1204  155.5240 C   0  0  0  0  0  0  0  0  0  0  0  0
  149.1909  140.9937  154.5972 C   0  0  0  0  0  0  0  0  0  0  0  0
  145.8468  140.6889  152.8267 H   0  0  0  0  0  0  0  0  0  0  0  0
  147.2760  141.6279  153.0581 H   0  0  0  0  0  0  0  0  0  0  0  0
  146.3580  141.0803  154.4619 H   0  0  0  0  0  0  0  0  0  0  0  0
  147.9472  139.3154  152.5359 H   0  0  0  0  0  0  0  0  0  0  0  0
  146.7996  137.9384  154.8962 H   0  0  0  0  0  0  0  0  0  0  0  0
  145.5842  138.6131  153.8445 H   0  0  0  0  0  0  0  0  0  0  0  0
  147.7986  137.0249  152.6666 H   0  0  0  0  0  0  0  0  0  0  0  0
  147.4957  135.3052  151.7875 H   0  0  0  0  0  0  0  0  0  0  0  0
  143.8892  134.8263  151.8478 H   0  0  0  0  0  0  0  0  0  0  0  0
  142.7478  132.7966  150.9292 H   0  0  0  0  0  0  0  0  0  0  0  0
  144.1579  130.9361  150.0136 H   0  0  0  0  0  0  0  0  0  0  0  0
  147.6585  132.9194  150.8769 H   0  0  0  0  0  0  0  0  0  0  0  0
  149.5919  137.7298  154.0405 H   0  0  0  0  0  0  0  0  0  0  0  0
  150.1501  139.0418  153.0229 H   0  0  0  0  0  0  0  0  0  0  0  0
  150.8504  138.5526  155.9694 H   0  0  0  0  0  0  0  0  0  0  0  0
  151.9141  138.3440  154.5908 H   0  0  0  0  0  0  0  0  0  0  0  0
  150.1540  140.8385  156.5459 H   0  0  0  0  0  0  0  0  0  0  0  0
  150.7578  142.1540  155.5551 H   0  0  0  0  0  0  0  0  0  0  0  0
  149.4380  141.4009  153.6156 H   0  0  0  0  0  0  0  0  0  0  0  0
  148.4096  141.6257  155.0155 H   0  0  0  0  0  0  0  0  0  0  0  0
  1  2  1  0  0  0  0
  1 20  1  0  0  0  0
  1 21  1  0  0  0  0
  1 22  1  0  0  0  0
  2  3  1  0  0  0  0
  2 14  1  0  0  0  0
  2 23  1  0  0  0  0
  3  4  1  0  0  0  0
  3 24  1  0  0  0  0
  3 25  1  0  0  0  0
  4  5  1  0  0  0  0
  4 26  1  0  0  0  0
  5  6  2  0  0  0  0
  5  7  1  0  0  0  0
  7  8  1  0  0  0  0
  7 27  1  0  0  0  0
  8 13  1  0  0  0  0
  8  9  2  0  0  0  0
  9 10  1  0  0  0  0
  9 28  1  0  0  0  0
 10 11  2  0  0  0  0
 10 29  1  0  0  0  0
 11 12  1  0  0  0  0
 11 30  1  0  0  0  0
 12 13  2  0  0  0  0
 13 31  1  0  0  0  0
 14 19  1  0  0  0  0
 14 15  1  0  0  0  0
 15 16  1  0  0  0  0
 15 32  1  0  0  0  0
 15 33  1  0  0  0  0
 16 17  1  0  0  0  0
 16 34  1  0  0  0  0
 16 35  1  0  0  0  0
 17 18  1  0  0  0  0
 18 19  1  0  0  0  0
 18 36  1  0  0  0  0
 18 37  1  0  0  0  0
 19 38  1  0  0  0  0
 19 39  1  0  0  0  0
M  END
> <s_m_source_file>
AV-unprocessed.smi

> <i_m_source_file_index>
2140

> <i_lp_mmshare_version>
43012

> <i_f3d_flags>
0

> <s_epik_input>
W0NIMl0xW0NIMl1PW0NIMl1bQ0gyXU4xW0NASF0oW0NIM10pW0NIMl1bTkhdQyg9TylbTkhdYzJbY0hdW2NIXVtjSF1uW2NIXTI=

> <s_epik_cmdline>
J2VwaWtfcHl0aG9uJywgJy1waCcsICc3LjAnLCAnLXRuJywgJzgnLCAnLW1hJywgJzIwMCcsICctbWV0YWxfYmluZGluZycsICctaW1hZScsICc8aW5maWxlLm1hZT4nLCAnLW9tYWUnLCAnPG91dGZpbGUubWFlPic=

> <r_epik_Ionization_Penalty>
0.270748

> <r_epik_Ionization_Penalty_Charging>
0

> <r_epik_Ionization_Penalty_Neutral>
0.270748

> <r_epik_State_Penalty>
0.268258

> <r_epik_Charging_Adjusted_Penalty>
0.268258

> <i_epik_Tot_Q>
0

> <i_epik_Tot_abs_Q>
0

> <r_epik_Metal_State_Penalty>
0.264828

> <b_epik_Metal_Only>
0

> <s_lp_Force_Field>
OPLS_2005

> <r_lp_Energy>
32.9676

> <b_lp_Chiralities_Consistent>
1

> <s_lp_Variant>
AV-unprocessed.smi:2140-1

> <Gold.Version>
5.8.1

> <Gold.Id.Protein>
6NUR|6NUR_protein|mol2

> <Gold.PLP.Fitness>
41.2834

> <Gold.PLP.PLP>
-33.6488

> <Gold.PLP.part.hbond>
-3.0000

> <Gold.PLP.part.metal>
0.0000

> <Gold.PLP.part.buried>
-3.8943

> <Gold.PLP.part.nonpolar>
-27.7809

> <Gold.PLP.part.repulsive>
0.4910

> <Gold.PLP.ligand.clash>
0.9082

> <Gold.PLP.ligand.torsion>
1.5644

> <Gold.PLP.Chemscore.Hbond>
3.0000

> <Gold.PLP.Chemscore.CHOScore>
0.8747

> <Gold.PLP.Chemscore.Metal>
0.0000

> <Gold.Chemscore.Hbonds>
donor molecule, donor type, donor heavy atom, donor atom, acceptor molecule, acceptor atom, score
      L1  H     4    26       P1  7948  1.00
      L1  H     7    27       P1  7948  1.00
      P1  H  7989  7998       L1    17  1.00
      L1  C    13    31       P1 10747  0.89

> <Gold.PLP.Chemscore.Internal.Correction>
0.0475

> <Gold.Rescore>
     Score         DG    S(hbond)    S(metal)    S(lipo)     H(rot)  DE(clash)    DE(int)     intcor
     16.11     -19.36       2.38        0.00      82.91       1.47       0.26       2.99       ----

> <Gold.Chemscore.Fitness>
16.1139

> <Gold.Chemscore.DG>
-19.3625

> <Gold.Chemscore.ZeroCoef>
-5.4800

> <Gold.Chemscore.Hbond>
2.3804

> <Gold.Chemscore.Metal>
0.0000

> <Gold.Chemscore.Lipo>
82.9059

> <Gold.Chemscore.Internal_Hbond>
0.0000

> <Gold.Chemscore.DEClash>
0.2578

> <Gold.Chemscore.DEInternal>
2.9907

> <Gold.Chemscore.Rot>
1.4719

> <Gold.Chemscore.Internal.Correction>
   9.000000E+99

> <Gold.Chemscore.Hbonds>
donor molecule, donor type, donor heavy atom, donor atom, acceptor molecule, acceptor atom, score
      L1  H     4    26       P1  7948  0.97
      L1  H     7    27       P1  7948  0.91
      P1  H  7989  7998       L1    17  0.20

> <Gold.Chemscore.Hbond.Weighted>
-7.9506

> <Gold.Chemscore.Metal.Weighted>
-0.0000

> <Gold.Chemscore.Lipo.Weighted>
-9.7000

> <Gold.Chemscore.Internal_Hbond.Weighted>
0.0000

> <Gold.Chemscore.DEClash.Weighted>
0.2578

> <Gold.Chemscore.DEInternal.Weighted>
2.9907

> <Gold.Chemscore.Rot.Weighted>
3.7681

> <Gold.Chemscore.Internal.Correction.Weighted>
   9.000000E+99

> <Gold.Protein.RotatedTorsions>
[ 6907 6896 6895 6894 ] final -150.98 input  -60.11 | X-H torsion
[ 7974 7965 7964 7962 ] final  147.17 input  175.53 | X-H torsion
[ 8008 7997 7996 7995 ] final -147.32 input   59.86 | X-H torsion
[ 10167 10162 10161 10158 ] final -104.72 input  -65.29 | X-H torsion
[ 10718 10713 10712 10709 ] final  110.25 input   66.30 | X-H torsion
[ 10763 10752 10751 10750 ] final  -92.90 input  -60.55 | X-H torsion
[ 11005 11000 10999 10996 ] final    7.23 input  -57.11 | X-H torsion

> <Gold.Protein.ActiveResidues>
 VAL166  LYS551  ARG553  GLY616  TRP617  ASP618  TYR619  PRO620  LYS621  CYS622 
 ASP623  PHE694  ASN695  SER759  ASP760  ASP761  ALA762  ILE779  LEU786  VAL792 
 PHE793  MET794  SER795  GLU796  ALA797  LYS798  CYS799  TRP800  GLU811  SER814 

> <Gold.Protein.RotatedAtoms>
  151.2064  133.4581  159.2597 H   0  0  0  0  0  0  0  0  0  0  0  0  # atno 6907 bound_to 6896
  151.1019  134.9977  159.8462 H   0  0  0  0  0  0  0  0  0  0  0  0  # atno 6908 bound_to 6896
  152.5444  134.1990  159.8757 H   0  0  0  0  0  0  0  0  0  0  0  0  # atno 6909 bound_to 6896
  144.8613  139.5995  143.5929 H   0  0  0  0  0  0  0  0  0  0  0  0  # atno 7974 bound_to 7965
  155.5737  140.0636  157.2800 H   0  0  0  0  0  0  0  0  0  0  0  0  # atno 8008 bound_to 7997
  154.4353  140.1864  156.0951 H   0  0  0  0  0  0  0  0  0  0  0  0  # atno 8009 bound_to 7997
  156.0357  140.3301  155.7192 H   0  0  0  0  0  0  0  0  0  0  0  0  # atno 8010 bound_to 7997
  140.2063  143.3780  152.1088 H   0  0  0  0  0  0  0  0  0  0  0  0  # atno 10167 bound_to 10162
  157.6503  131.0929  150.6574 H   0  0  0  0  0  0  0  0  0  0  0  0  # atno 10718 bound_to 10713
  154.6906  135.5214  153.8388 H   0  0  0  0  0  0  0  0  0  0  0  0  # atno 10763 bound_to 10752
  153.0630  135.6575  154.0429 H   0  0  0  0  0  0  0  0  0  0  0  0  # atno 10764 bound_to 10752
  154.0303  135.2986  155.3349 H   0  0  0  0  0  0  0  0  0  0  0  0  # atno 10765 bound_to 10752
  140.5506  134.0286  155.7935 H   0  0  0  0  0  0  0  0  0  0  0  0  # atno 11005 bound_to 11000
  146.2862  139.7011  142.9193 LP  0  0  0  0  0  0  0  0  0  0  0  0  # atno 17320 bound_to 7965
  145.4307  141.0415  143.2912 LP  0  0  0  0  0  0  0  0  0  0  0  0  # atno 17321 bound_to 7965
  139.5197  144.7023  151.5456 LP  0  0  0  0  0  0  0  0  0  0  0  0  # atno 17342 bound_to 10162
  140.6355  143.8992  150.6643 LP  0  0  0  0  0  0  0  0  0  0  0  0  # atno 17343 bound_to 10162
  156.6886  130.4588  149.5606 LP  0  0  0  0  0  0  0  0  0  0  0  0  # atno 17370 bound_to 10713
  156.1878  130.6540  151.1026 LP  0  0  0  0  0  0  0  0  0  0  0  0  # atno 17371 bound_to 10713
  141.1174  133.9518  157.2797 LP  0  0  0  0  0  0  0  0  0  0  0  0  # atno 17394 bound_to 11000
  139.9457  135.0184  156.8844 LP  0  0  0  0  0  0  0  0  0  0  0  0  # atno 17395 bound_to 11000

$$$$
