AV-unprocessed.smi:759|AV-procd|sdf|3619|dock5
  -GOLD-   22720 1 13D 1   1.00000     0.00000
 Structure written by MMmdl.
 24 25  0  0  0  0  0  0  0  0  2 V2000
  151.6276  137.9961  154.4055 C   0  0  0  0  0  0  0  0  0  0  0  0
  151.4381  137.3389  155.5482 N   0  0  0  0  0  0  0  0  0  0  0  0
  151.4275  138.2281  156.5644 N   0  0  0  0  0  0  0  0  0  0  0  0
  151.6167  139.3851  155.9274 C   0  0  0  0  0  0  0  0  0  0  0  0
  151.6787  140.6801  156.6778 C   0  0  2  0  0  0  0  0  0  0  0  0
  151.5604  140.4767  158.2002 C   0  0  0  0  0  0  0  0  0  0  0  0
  151.6146  141.8291  158.9275 C   0  0  0  0  0  0  0  0  0  0  0  0
  150.5611  142.7988  158.3659 C   0  0  0  0  0  0  0  0  0  0  0  0
  150.7335  142.9724  156.9069 N   0  3  0  0  0  0  0  0  0  0  0  0
  150.6444  141.6992  156.1582 C   0  0  0  0  0  0  0  0  0  0  0  0
  151.7512  139.3068  154.5670 N   0  0  0  0  0  0  0  0  0  0  0  0
  151.3181  136.3443  155.6786 H   0  0  0  0  0  0  0  0  0  0  0  0
  151.6767  137.5096  153.4423 H   0  0  0  0  0  0  0  0  0  0  0  0
  152.6651  141.1108  156.4938 H   0  0  0  0  0  0  0  0  0  0  0  0
  150.6204  139.9762  158.4377 H   0  0  0  0  0  0  0  0  0  0  0  0
  152.3595  139.8270  158.5592 H   0  0  0  0  0  0  0  0  0  0  0  0
  151.4563  141.6838  159.9966 H   0  0  0  0  0  0  0  0  0  0  0  0
  152.6088  142.2645  158.8185 H   0  0  0  0  0  0  0  0  0  0  0  0
  149.5558  142.4263  158.5677 H   0  0  0  0  0  0  0  0  0  0  0  0
  150.6444  143.7710  158.8520 H   0  0  0  0  0  0  0  0  0  0  0  0
  150.0226  143.6033  156.5652 H   0  0  0  0  0  0  0  0  0  0  0  0
  150.8069  141.9009  155.0990 H   0  0  0  0  0  0  0  0  0  0  0  0
  149.6325  141.3032  156.2558 H   0  0  0  0  0  0  0  0  0  0  0  0
  151.6411  143.3823  156.7375 H   0  0  0  0  0  0  0  0  0  0  0  0
  1 11  2  0  0  0  0
  1 13  1  0  0  0  0
  1  2  1  0  0  0  0
  2 12  1  0  0  0  0
  2  3  1  0  0  0  0
  3  4  2  0  0  0  0
  4 11  1  0  0  0  0
  4  5  1  0  0  0  0
  5 10  1  0  0  0  0
  5  6  1  0  0  0  0
  5 14  1  0  0  0  0
  6  7  1  0  0  0  0
  6 15  1  0  0  0  0
  6 16  1  0  0  0  0
  7  8  1  0  0  0  0
  7 17  1  0  0  0  0
  7 18  1  0  0  0  0
  8  9  1  0  0  0  0
  8 19  1  0  0  0  0
  8 20  1  0  0  0  0
  9 10  1  0  0  0  0
  9 21  1  0  0  0  0
  9 24  1  0  0  0  0
 10 22  1  0  0  0  0
 10 23  1  0  0  0  0
M  CHG  1   9   1
M  END
> <s_m_source_file>
AV-unprocessed.smi

> <i_m_source_file_index>
759

> <i_lp_mmshare_version>
43012

> <i_f3d_flags>
0

> <s_epik_input>
W25IXTFbY0hdbm5jMVtDQEBIXTJbQ0gyXVtDSDJdW0NIMl1bTkhdW0NIMl0y

> <s_epik_cmdline>
J2VwaWtfcHl0aG9uJywgJy1waCcsICc3LjAnLCAnLXRuJywgJzgnLCAnLW1hJywgJzIwMCcsICctbWV0YWxfYmluZGluZycsICctaW1hZScsICc8aW5maWxlLm1hZT4nLCAnLW9tYWUnLCAnPG91dGZpbGUubWFlPic=

> <r_lp_tautomer_probability>
0.948284

> <r_epik_Ionization_Penalty>
0.0050177

> <r_epik_Ionization_Penalty_Charging>
0.000345518

> <r_epik_Ionization_Penalty_Neutral>
0.00467218

> <r_epik_State_Penalty>
0.271452

> <r_epik_Charging_Adjusted_Penalty>
0.271797

> <i_epik_Tot_Q>
1

> <i_epik_Tot_abs_Q>
1

> <r_epik_Metal_State_Penalty>
0.537172

> <b_epik_Metal_Only>
0

> <s_lp_Force_Field>
OPLS_2005

> <r_lp_Energy>
9.69095

> <b_lp_Chiralities_Consistent>
1

> <s_lp_Variant>
AV-unprocessed.smi:759-1

> <Gold.Version>
5.8.1

> <Gold.Id.Protein>
6NUR|6NUR_protein|mol2

> <Gold.PLP.Fitness>
31.3488

> <Gold.PLP.PLP>
-19.3506

> <Gold.PLP.part.hbond>
-2.0000

> <Gold.PLP.part.metal>
0.0000

> <Gold.PLP.part.buried>
-3.5527

> <Gold.PLP.part.nonpolar>
-14.0664

> <Gold.PLP.part.repulsive>
0.2007

> <Gold.PLP.ligand.clash>
0.0000

> <Gold.PLP.ligand.torsion>
0.0223

> <Gold.PLP.Chemscore.Hbond>
3.0000

> <Gold.PLP.Chemscore.CHOScore>
1.0000

> <Gold.PLP.Chemscore.Metal>
0.0000

> <Gold.Chemscore.Hbonds>
donor molecule, donor type, donor heavy atom, donor atom, acceptor molecule, acceptor atom, score
      L1  H     9    21       P1  8028  2.00
      P1  H  7989  7998       L1    11  1.00
      L1  C     1    13       P1  7949  1.00

> <Gold.PLP.Chemscore.Internal.Correction>
0.0427

> <Gold.Rescore>
     Score         DG    S(hbond)    S(metal)    S(lipo)     H(rot)  DE(clash)    DE(int)     intcor
     14.07     -14.09       1.94        0.00      39.95       1.00       0.00       0.02       ----

> <Gold.Chemscore.Fitness>
14.0664

> <Gold.Chemscore.DG>
-14.0906

> <Gold.Chemscore.ZeroCoef>
-5.4800

> <Gold.Chemscore.Hbond>
1.9450

> <Gold.Chemscore.Metal>
0.0000

> <Gold.Chemscore.Lipo>
39.9522

> <Gold.Chemscore.Internal_Hbond>
0.0000

> <Gold.Chemscore.DEClash>
0.0009

> <Gold.Chemscore.DEInternal>
0.0233

> <Gold.Chemscore.Rot>
1.0000

> <Gold.Chemscore.Internal.Correction>
   9.000000E+99

> <Gold.Chemscore.Hbonds>
donor molecule, donor type, donor heavy atom, donor atom, acceptor molecule, acceptor atom, score
      L1  H     9    21       P1  8028  1.00
      P1  H  7989  7998       L1    11  0.95

> <Gold.Chemscore.Hbond.Weighted>
-6.4962

> <Gold.Chemscore.Metal.Weighted>
-0.0000

> <Gold.Chemscore.Lipo.Weighted>
-4.6744

> <Gold.Chemscore.Internal_Hbond.Weighted>
0.0000

> <Gold.Chemscore.DEClash.Weighted>
0.0009

> <Gold.Chemscore.DEInternal.Weighted>
0.0233

> <Gold.Chemscore.Rot.Weighted>
2.5600

> <Gold.Chemscore.Internal.Correction.Weighted>
   9.000000E+99

> <Gold.Protein.RotatedTorsions>
[ 6907 6896 6895 6894 ] final  -13.70 input  -60.11 | X-H torsion
[ 7974 7965 7964 7962 ] final   67.77 input  175.53 | X-H torsion
[ 8008 7997 7996 7995 ] final   79.36 input   59.86 | X-H torsion
[ 10167 10162 10161 10158 ] final  107.67 input  -65.29 | X-H torsion
[ 10718 10713 10712 10709 ] final -164.59 input   66.30 | X-H torsion
[ 10763 10752 10751 10750 ] final   81.40 input  -60.55 | X-H torsion
[ 11005 11000 10999 10996 ] final -138.47 input  -57.11 | X-H torsion

> <Gold.Protein.ActiveResidues>
 VAL166  LYS551  ARG553  GLY616  TRP617  ASP618  TYR619  PRO620  LYS621  CYS622 
 ASP623  PHE694  ASN695  SER759  ASP760  ASP761  ALA762  ILE779  LEU786  VAL792 
 PHE793  MET794  SER795  GLU796  ALA797  LYS798  CYS799  TRP800  GLU811  SER814 

> <Gold.Protein.RotatedAtoms>
  151.3508  135.0884  159.9402 H   0  0  0  0  0  0  0  0  0  0  0  0  # atno 6907 bound_to 6896
  152.5187  133.9354  159.7611 H   0  0  0  0  0  0  0  0  0  0  0  0  # atno 6908 bound_to 6896
  150.9729  133.6271  159.2764 H   0  0  0  0  0  0  0  0  0  0  0  0  # atno 6909 bound_to 6896
  145.8106  139.3031  143.1101 H   0  0  0  0  0  0  0  0  0  0  0  0  # atno 7974 bound_to 7965
  155.8686  140.3450  155.5805 H   0  0  0  0  0  0  0  0  0  0  0  0  # atno 8008 bound_to 7997
  155.7853  140.0864  157.2057 H   0  0  0  0  0  0  0  0  0  0  0  0  # atno 8009 bound_to 7997
  154.4016  140.1493  156.3087 H   0  0  0  0  0  0  0  0  0  0  0  0  # atno 8010 bound_to 7997
  139.6908  144.7108  151.1352 H   0  0  0  0  0  0  0  0  0  0  0  0  # atno 10167 bound_to 10162
  156.6412  130.8969  151.2996 H   0  0  0  0  0  0  0  0  0  0  0  0  # atno 10718 bound_to 10713
  153.1114  135.4766  154.9041 H   0  0  0  0  0  0  0  0  0  0  0  0  # atno 10763 bound_to 10752
  154.7484  135.3100  154.8604 H   0  0  0  0  0  0  0  0  0  0  0  0  # atno 10764 bound_to 10752
  153.9192  135.6857  153.4802 H   0  0  0  0  0  0  0  0  0  0  0  0  # atno 10765 bound_to 10752
  140.8613  134.2166  157.4706 H   0  0  0  0  0  0  0  0  0  0  0  0  # atno 11005 bound_to 11000
  145.9781  140.8705  143.0128 LP  0  0  0  0  0  0  0  0  0  0  0  0  # atno 17320 bound_to 7965
  144.6758  140.2041  143.7384 LP  0  0  0  0  0  0  0  0  0  0  0  0  # atno 17321 bound_to 7965
  140.7682  143.5562  150.9149 LP  0  0  0  0  0  0  0  0  0  0  0  0  # atno 17342 bound_to 10162
  139.9239  143.6573  152.3091 LP  0  0  0  0  0  0  0  0  0  0  0  0  # atno 17343 bound_to 10162
  157.7170  130.9510  150.1293 LP  0  0  0  0  0  0  0  0  0  0  0  0  # atno 17370 bound_to 10713
  156.2157  130.3670  149.8616 LP  0  0  0  0  0  0  0  0  0  0  0  0  # atno 17371 bound_to 10713
  139.8707  134.9731  156.4796 LP  0  0  0  0  0  0  0  0  0  0  0  0  # atno 17394 bound_to 11000
  140.8680  133.8010  155.9334 LP  0  0  0  0  0  0  0  0  0  0  0  0  # atno 17395 bound_to 11000

$$$$
