AV-unprocessed.smi:2514|AV-procd|sdf|9895|dock9
  -GOLD-   2272013533D 1   1.00000     0.00000
 Structure written by MMmdl.
 24 25  0  0  0  0  0  0  0  0  1 V2000
  155.5392  139.8670  160.7256 C   0  0  0  0  0  0  0  0  0  0  0  0
  154.0970  139.9362  160.2082 C   0  0  2  0  0  0  0  0  0  0  0  0
  154.0588  139.5371  158.8530 O   0  0  0  0  0  0  0  0  0  0  0  0
  153.5226  141.3236  160.2777 C   0  0  0  0  0  0  0  0  0  0  0  0
  153.0646  142.1088  159.2578 C   0  0  0  0  0  0  0  0  0  0  0  0
  152.6393  143.2529  159.8996 N   0  0  0  0  0  0  0  0  0  0  0  0
  152.1287  144.4520  159.3036 C   0  0  0  0  0  0  0  0  0  0  0  0
  150.8312  145.0953  159.8006 C   0  0  0  0  0  0  0  0  0  0  0  0
  150.5733  145.4550  158.4167 N   0  0  0  0  0  0  0  0  0  0  0  0
  151.4551  144.4070  157.9311 C   0  0  0  0  0  0  0  0  0  0  0  0
  152.8682  143.1919  161.2322 N   0  0  0  0  0  0  0  0  0  0  0  0
  153.3786  142.0263  161.4770 N   0  0  0  0  0  0  0  0  0  0  0  0
  155.5928  140.1689  161.7717 H   0  0  0  0  0  0  0  0  0  0  0  0
  156.1990  140.5223  160.1558 H   0  0  0  0  0  0  0  0  0  0  0  0
  155.9333  138.8530  160.6534 H   0  0  0  0  0  0  0  0  0  0  0  0
  153.4775  139.2442  160.7796 H   0  0  0  0  0  0  0  0  0  0  0  0
  154.0796  138.5930  158.8190 H   0  0  0  0  0  0  0  0  0  0  0  0
  153.0052  141.9608  158.1898 H   0  0  0  0  0  0  0  0  0  0  0  0
  152.9506  145.1715  159.3137 H   0  0  0  0  0  0  0  0  0  0  0  0
  150.0932  144.3894  160.1848 H   0  0  0  0  0  0  0  0  0  0  0  0
  150.9780  145.9501  160.4612 H   0  0  0  0  0  0  0  0  0  0  0  0
  149.6105  145.3016  158.1523 H   0  0  0  0  0  0  0  0  0  0  0  0
  152.0977  144.7140  157.1056 H   0  0  0  0  0  0  0  0  0  0  0  0
  150.9171  143.4810  157.7223 H   0  0  0  0  0  0  0  0  0  0  0  0
  1  2  1  0  0  0  0
  1 13  1  0  0  0  0
  1 14  1  0  0  0  0
  1 15  1  0  0  0  0
  2  3  1  0  0  0  0
  2  4  1  0  0  0  0
  2 16  1  0  0  0  0
  3 17  1  0  0  0  0
  4 12  1  0  0  0  0
  4  5  2  0  0  0  0
  5  6  1  0  0  0  0
  5 18  1  0  0  0  0
  6  7  1  0  0  0  0
  6 11  1  0  0  0  0
  7 10  1  0  0  0  0
  7  8  1  0  0  0  0
  7 19  1  0  0  0  0
  8  9  1  0  0  0  0
  8 20  1  0  0  0  0
  8 21  1  0  0  0  0
  9 10  1  0  0  0  0
  9 22  1  0  0  0  0
 10 23  1  0  0  0  0
 10 24  1  0  0  0  0
 11 12  2  0  0  0  0
M  END
> <s_m_source_file>
AV-unprocessed.smi

> <i_m_source_file_index>
2514

> <i_lp_mmshare_version>
43012

> <i_f3d_flags>
0

> <s_epik_input>
W0NIM11bQ0BIXShbT0hdKWMxW2NIXW4obm4xKVtDSF0yW0NIMl1bTkhdW0NIMl0y

> <s_epik_cmdline>
J2VwaWtfcHl0aG9uJywgJy1waCcsICc3LjAnLCAnLXRuJywgJzgnLCAnLW1hJywgJzIwMCcsICctbWV0YWxfYmluZGluZycsICctaW1hZScsICc8aW5maWxlLm1hZT4nLCAnLW9tYWUnLCAnPG91dGZpbGUubWFlPic=

> <r_lp_tautomer_probability>
1

> <r_epik_Ionization_Penalty>
0.704859

> <r_epik_Ionization_Penalty_Charging>
0

> <r_epik_Ionization_Penalty_Neutral>
0.704859

> <r_epik_State_Penalty>
0.727806

> <r_epik_Charging_Adjusted_Penalty>
0.727806

> <i_epik_Tot_Q>
0

> <i_epik_Tot_abs_Q>
0

> <r_epik_Metal_State_Penalty>
0.727738

> <b_epik_Metal_Only>
0

> <s_lp_Force_Field>
OPLS_2005

> <r_lp_Energy>
11.6004

> <b_lp_Chiralities_Consistent>
1

> <s_lp_Variant>
AV-unprocessed.smi:2514-3

> <Gold.Version>
5.8.1

> <Gold.Id.Protein>
6NUR|6NUR_protein|mol2

> <Gold.PLP.Fitness>
36.0848

> <Gold.PLP.PLP>
-30.6325

> <Gold.PLP.part.hbond>
-3.0571

> <Gold.PLP.part.metal>
0.0000

> <Gold.PLP.part.buried>
-2.8260

> <Gold.PLP.part.nonpolar>
-24.7279

> <Gold.PLP.part.repulsive>
0.0890

> <Gold.PLP.ligand.clash>
0.0000

> <Gold.PLP.ligand.torsion>
0.3842

> <Gold.PLP.Chemscore.Hbond>
1.9920

> <Gold.PLP.Chemscore.CHOScore>
0.0000

> <Gold.PLP.Chemscore.Metal>
0.0000

> <Gold.Chemscore.Hbonds>
donor molecule, donor type, donor heavy atom, donor atom, acceptor molecule, acceptor atom, score
      L1  H     9    22       P1  8029  0.99
      P1  H  7997  8010       L1     3  1.00

> <Gold.PLP.Chemscore.Internal.Correction>
0.2446

> <Gold.Rescore>
     Score         DG    S(hbond)    S(metal)    S(lipo)     H(rot)  DE(clash)    DE(int)     intcor
     13.71     -14.30       1.53        0.00      70.64       1.78       0.05       0.54       ----

> <Gold.Chemscore.Fitness>
13.7102

> <Gold.Chemscore.DG>
-14.2997

> <Gold.Chemscore.ZeroCoef>
-5.4800

> <Gold.Chemscore.Hbond>
1.5320

> <Gold.Chemscore.Metal>
0.0000

> <Gold.Chemscore.Lipo>
70.6446

> <Gold.Chemscore.Internal_Hbond>
0.0000

> <Gold.Chemscore.DEClash>
0.0505

> <Gold.Chemscore.DEInternal>
0.5390

> <Gold.Chemscore.Rot>
1.7823

> <Gold.Chemscore.Internal.Correction>
   9.000000E+99

> <Gold.Chemscore.Hbonds>
donor molecule, donor type, donor heavy atom, donor atom, acceptor molecule, acceptor atom, score
      L1  H     9    22       P1  8029  0.31
      P1  H  7997  8010       L1     3  0.40

> <Gold.Chemscore.Hbond.Weighted>
-5.1170

> <Gold.Chemscore.Metal.Weighted>
-0.0000

> <Gold.Chemscore.Lipo.Weighted>
-8.2654

> <Gold.Chemscore.Internal_Hbond.Weighted>
0.0000

> <Gold.Chemscore.DEClash.Weighted>
0.0505

> <Gold.Chemscore.DEInternal.Weighted>
0.5390

> <Gold.Chemscore.Rot.Weighted>
4.5627

> <Gold.Chemscore.Internal.Correction.Weighted>
   9.000000E+99

> <Gold.Protein.RotatedTorsions>
[ 6907 6896 6895 6894 ] final -159.80 input  -60.11 | X-H torsion
[ 7974 7965 7964 7962 ] final   33.87 input  175.53 | X-H torsion
[ 8008 7997 7996 7995 ] final    9.80 input   59.86 | X-H torsion
[ 10167 10162 10161 10158 ] final -120.41 input  -65.29 | X-H torsion
[ 10718 10713 10712 10709 ] final   95.79 input   66.30 | X-H torsion
[ 10763 10752 10751 10750 ] final   27.11 input  -60.55 | X-H torsion
[ 11005 11000 10999 10996 ] final  -14.79 input  -57.11 | X-H torsion

> <Gold.Protein.ActiveResidues>
 VAL166  LYS551  ARG553  GLY616  TRP617  ASP618  TYR619  PRO620  LYS621  CYS622 
 ASP623  PHE694  ASN695  SER759  ASP760  ASP761  ALA762  ILE779  LEU786  VAL792 
 PHE793  MET794  SER795  GLU796  ALA797  LYS798  CYS799  TRP800  GLU811  SER814 

> <Gold.Protein.RotatedAtoms>
  151.3392  133.3969  159.2669 H   0  0  0  0  0  0  0  0  0  0  0  0  # atno 6907 bound_to 6896
  150.9891  134.9231  159.7900 H   0  0  0  0  0  0  0  0  0  0  0  0  # atno 6908 bound_to 6896
  152.5242  134.3357  159.9251 H   0  0  0  0  0  0  0  0  0  0  0  0  # atno 6909 bound_to 6896
  146.1391  139.6341  142.9175 H   0  0  0  0  0  0  0  0  0  0  0  0  # atno 7974 bound_to 7965
  154.7848  140.2825  155.6036 H   0  0  0  0  0  0  0  0  0  0  0  0  # atno 8008 bound_to 7997
  156.2955  140.2616  156.2610 H   0  0  0  0  0  0  0  0  0  0  0  0  # atno 8009 bound_to 7997
  154.9741  140.0375  157.2237 H   0  0  0  0  0  0  0  0  0  0  0  0  # atno 8010 bound_to 7997
  140.0361  143.5199  152.2153 H   0  0  0  0  0  0  0  0  0  0  0  0  # atno 10167 bound_to 10162
  157.6935  131.0557  150.4393 H   0  0  0  0  0  0  0  0  0  0  0  0  # atno 10718 bound_to 10713
  153.0577  135.6544  154.0537 H   0  0  0  0  0  0  0  0  0  0  0  0  # atno 10763 bound_to 10752
  154.0211  135.2920  155.3382 H   0  0  0  0  0  0  0  0  0  0  0  0  # atno 10764 bound_to 10752
  154.6901  135.5286  153.8448 H   0  0  0  0  0  0  0  0  0  0  0  0  # atno 10765 bound_to 10752
  140.7900  133.8295  155.9371 H   0  0  0  0  0  0  0  0  0  0  0  0  # atno 11005 bound_to 11000
  145.5087  141.0436  143.2500 LP  0  0  0  0  0  0  0  0  0  0  0  0  # atno 17320 bound_to 7965
  144.7773  139.6603  143.7169 LP  0  0  0  0  0  0  0  0  0  0  0  0  # atno 17321 bound_to 7965
  139.6044  144.7592  151.3097 LP  0  0  0  0  0  0  0  0  0  0  0  0  # atno 17342 bound_to 10162
  140.7280  143.6946  150.7894 LP  0  0  0  0  0  0  0  0  0  0  0  0  # atno 17343 bound_to 10162
  156.4753  130.4061  149.6494 LP  0  0  0  0  0  0  0  0  0  0  0  0  # atno 17370 bound_to 10713
  156.3559  130.7456  151.2422 LP  0  0  0  0  0  0  0  0  0  0  0  0  # atno 17371 bound_to 10713
  140.9399  134.1914  157.4805 LP  0  0  0  0  0  0  0  0  0  0  0  0  # atno 17394 bound_to 11000
  139.8732  134.9867  156.5338 LP  0  0  0  0  0  0  0  0  0  0  0  0  # atno 17395 bound_to 11000

$$$$
