AV-unprocessed.smi:3324|AV-procd|sdf|12781|dock1
  -GOLD-   2272019123D 1   1.00000     0.00000
 Structure written by MMmdl.
 31 31  0  0  0  0  0  0  0  0  2 V2000
  146.2831  136.5246  152.7786 O   0  0  0  0  0  0  0  0  0  0  0  0
  145.7068  137.5843  152.5304 C   0  0  0  0  0  0  0  0  0  0  0  0
  146.5025  138.8632  152.2612 C   0  0  0  0  0  0  0  0  0  0  0  0
  147.9445  138.6967  152.5377 N   0  3  0  0  0  0  0  0  0  0  0  0
  148.3194  138.9347  153.9445 C   0  0  0  0  0  0  0  0  0  0  0  0
  148.5743  140.4269  154.2017 C   0  0  0  0  0  0  0  0  0  0  0  0
  149.7821  140.6404  154.9753 N   0  0  0  0  0  0  0  0  0  0  0  0
  150.0148  141.5699  155.9673 C   0  0  0  0  0  0  0  0  0  0  0  0
  151.2980  141.3901  156.3983 C   0  0  0  0  0  0  0  0  0  0  0  0
  151.7765  140.3152  155.5982 C   0  0  0  0  0  0  0  0  0  0  0  0
  150.8664  139.8687  154.7472 N   0  0  0  0  0  0  0  0  0  0  0  0
  144.3717  137.7010  152.4768 N   0  0  0  0  0  0  0  0  0  0  0  0
  143.4219  136.6193  152.7213 C   0  0  0  0  0  0  0  0  0  0  0  0
  142.3373  137.0235  153.7343 C   0  0  0  0  0  0  0  0  0  0  0  0
  142.9121  137.2944  154.9052 F   0  0  0  0  0  0  0  0  0  0  0  0
  141.6807  138.1077  153.3212 F   0  0  0  0  0  0  0  0  0  0  0  0
  141.4711  136.0243  153.9038 F   0  0  0  0  0  0  0  0  0  0  0  0
  146.3640  139.1553  151.2194 H   0  0  0  0  0  0  0  0  0  0  0  0
  146.1054  139.6666  152.8835 H   0  0  0  0  0  0  0  0  0  0  0  0
  148.2086  137.7540  152.2883 H   0  0  0  0  0  0  0  0  0  0  0  0
  147.5222  138.5747  154.5962 H   0  0  0  0  0  0  0  0  0  0  0  0
  149.2135  138.3542  154.1763 H   0  0  0  0  0  0  0  0  0  0  0  0
  148.6678  140.9683  153.2588 H   0  0  0  0  0  0  0  0  0  0  0  0
  147.7346  140.8694  154.7396 H   0  0  0  0  0  0  0  0  0  0  0  0
  149.2578  142.2737  156.2811 H   0  0  0  0  0  0  0  0  0  0  0  0
  151.8171  141.9430  157.1673 H   0  0  0  0  0  0  0  0  0  0  0  0
  152.7510  139.8492  155.6101 H   0  0  0  0  0  0  0  0  0  0  0  0
  143.9794  138.6079  152.2676 H   0  0  0  0  0  0  0  0  0  0  0  0
  142.9556  136.3643  151.7691 H   0  0  0  0  0  0  0  0  0  0  0  0
  143.9407  135.7200  153.0576 H   0  0  0  0  0  0  0  0  0  0  0  0
  148.4576  139.3382  151.9499 H   0  0  0  0  0  0  0  0  0  0  0  0
  1  2  2  0  0  0  0
  2  3  1  0  0  0  0
  2 12  1  0  0  0  0
  3  4  1  0  0  0  0
  3 18  1  0  0  0  0
  3 19  1  0  0  0  0
  4  5  1  0  0  0  0
  4 20  1  0  0  0  0
  4 31  1  0  0  0  0
  5  6  1  0  0  0  0
  5 21  1  0  0  0  0
  5 22  1  0  0  0  0
  6  7  1  0  0  0  0
  6 23  1  0  0  0  0
  6 24  1  0  0  0  0
  7 11  1  0  0  0  0
  7  8  1  0  0  0  0
  8  9  2  0  0  0  0
  8 25  1  0  0  0  0
  9 10  1  0  0  0  0
  9 26  1  0  0  0  0
 10 11  2  0  0  0  0
 10 27  1  0  0  0  0
 12 13  1  0  0  0  0
 12 28  1  0  0  0  0
 13 14  1  0  0  0  0
 13 29  1  0  0  0  0
 13 30  1  0  0  0  0
 14 15  1  0  0  0  0
 14 16  1  0  0  0  0
 14 17  1  0  0  0  0
M  CHG  1   4   1
M  END
> <s_m_source_file>
AV-unprocessed.smi

> <i_m_source_file_index>
3324

> <i_lp_mmshare_version>
43012

> <i_f3d_flags>
0

> <s_epik_input>
RkMoRikoRilbQ0gyXVtOSF1DKD1PKVtDSDJdW05IXVtDSDJdW0NIMl1uMVtjSF1bY0hdW2NIXW4x

> <s_epik_cmdline>
J2VwaWtfcHl0aG9uJywgJy1waCcsICc3LjAnLCAnLXRuJywgJzgnLCAnLW1hJywgJzIwMCcsICctbWV0YWxfYmluZGluZycsICctaW1hZScsICc8aW5maWxlLm1hZT4nLCAnLW9tYWUnLCAnPG91dGZpbGUubWFlPic=

> <r_lp_tautomer_probability>
1

> <r_epik_Ionization_Penalty>
0.310414

> <r_epik_Ionization_Penalty_Charging>
0.310394

> <r_epik_Ionization_Penalty_Neutral>
2.02819e-05

> <r_epik_State_Penalty>
0.304907

> <r_epik_Charging_Adjusted_Penalty>
0.6153

> <i_epik_Tot_Q>
1

> <i_epik_Tot_abs_Q>
1

> <r_epik_Metal_State_Penalty>
0.315528

> <b_epik_Metal_Only>
0

> <s_lp_Force_Field>
OPLS_2005

> <r_lp_Energy>
1.82642

> <b_lp_Chiralities_Consistent>
1

> <s_lp_Variant>
AV-unprocessed.smi:3324-1

> <Gold.Version>
5.8.1

> <Gold.Id.Protein>
6NUR|6NUR_protein|mol2

> <Gold.PLP.Fitness>
47.1150

> <Gold.PLP.PLP>
-32.7771

> <Gold.PLP.part.hbond>
-4.9710

> <Gold.PLP.part.metal>
0.0000

> <Gold.PLP.part.buried>
-3.0156

> <Gold.PLP.part.nonpolar>
-26.6469

> <Gold.PLP.part.repulsive>
2.1994

> <Gold.PLP.ligand.clash>
0.0000

> <Gold.PLP.ligand.torsion>
1.0452

> <Gold.PLP.Chemscore.Hbond>
4.4500

> <Gold.PLP.Chemscore.CHOScore>
0.9967

> <Gold.PLP.Chemscore.Metal>
0.0000

> <Gold.Chemscore.Hbonds>
donor molecule, donor type, donor heavy atom, donor atom, acceptor molecule, acceptor atom, score
      L1  H     4    20       P1  7948  2.00
      L1  H     4    31       P1  7957  1.00
      L1  H    12    28       P1 10175  1.00
      P1  H  7989  7998       L1    11  0.36
      L1  C     8    25       P1  8028  0.95

> <Gold.PLP.Chemscore.Internal.Correction>
0.0880

> <Gold.Rescore>
     Score         DG    S(hbond)    S(metal)    S(lipo)     H(rot)  DE(clash)    DE(int)     intcor
     12.17     -13.44       3.00        0.00      46.02       2.91       0.11       1.16       ----

> <Gold.Chemscore.Fitness>
12.1739

> <Gold.Chemscore.DG>
-13.4372

> <Gold.Chemscore.ZeroCoef>
-5.4800

> <Gold.Chemscore.Hbond>
3.0001

> <Gold.Chemscore.Metal>
0.0000

> <Gold.Chemscore.Lipo>
46.0174

> <Gold.Chemscore.Internal_Hbond>
0.0000

> <Gold.Chemscore.DEClash>
0.1074

> <Gold.Chemscore.DEInternal>
1.1560

> <Gold.Chemscore.Rot>
2.9091

> <Gold.Chemscore.Internal.Correction>
   9.000000E+99

> <Gold.Chemscore.Hbonds>
donor molecule, donor type, donor heavy atom, donor atom, acceptor molecule, acceptor atom, score
      L1  H     4    20       P1  7948  1.00
      L1  H     4    31       P1  7957  0.94
      L1  H    12    28       P1 10175  0.99

> <Gold.Chemscore.Hbond.Weighted>
-10.0204

> <Gold.Chemscore.Metal.Weighted>
-0.0000

> <Gold.Chemscore.Lipo.Weighted>
-5.3840

> <Gold.Chemscore.Internal_Hbond.Weighted>
0.0000

> <Gold.Chemscore.DEClash.Weighted>
0.1074

> <Gold.Chemscore.DEInternal.Weighted>
1.1560

> <Gold.Chemscore.Rot.Weighted>
7.4472

> <Gold.Chemscore.Internal.Correction.Weighted>
   9.000000E+99

> <Gold.Protein.RotatedTorsions>
[ 6907 6896 6895 6894 ] final   56.52 input  -60.11 | X-H torsion
[ 7974 7965 7964 7962 ] final   -4.22 input  175.53 | X-H torsion
[ 8008 7997 7996 7995 ] final -115.85 input   59.86 | X-H torsion
[ 10167 10162 10161 10158 ] final  -93.06 input  -65.29 | X-H torsion
[ 10718 10713 10712 10709 ] final   37.58 input   66.30 | X-H torsion
[ 10763 10752 10751 10750 ] final -143.08 input  -60.55 | X-H torsion
[ 11005 11000 10999 10996 ] final -151.48 input  -57.11 | X-H torsion

> <Gold.Protein.ActiveResidues>
 VAL166  LYS551  ARG553  GLY616  TRP617  ASP618  TYR619  PRO620  LYS621  CYS622 
 ASP623  PHE694  ASN695  SER759  ASP760  ASP761  ALA762  ILE779  LEU786  VAL792 
 PHE793  MET794  SER795  GLU796  ALA797  LYS798  CYS799  TRP800  GLU811  SER814 

> <Gold.Protein.RotatedAtoms>
  152.3644  134.6826  160.0196 H   0  0  0  0  0  0  0  0  0  0  0  0  # atno 6907 bound_to 6896
  151.7139  133.3307  159.3306 H   0  0  0  0  0  0  0  0  0  0  0  0  # atno 6908 bound_to 6896
  150.7627  134.6442  159.6298 H   0  0  0  0  0  0  0  0  0  0  0  0  # atno 6909 bound_to 6896
  146.2376  140.1839  142.8332 H   0  0  0  0  0  0  0  0  0  0  0  0  # atno 7974 bound_to 7965
  155.0585  140.0393  157.2568 H   0  0  0  0  0  0  0  0  0  0  0  0  # atno 8008 bound_to 7997
  154.7079  140.2686  155.6633 H   0  0  0  0  0  0  0  0  0  0  0  0  # atno 8009 bound_to 7997
  156.2780  140.2727  156.1711 H   0  0  0  0  0  0  0  0  0  0  0  0  # atno 8010 bound_to 7997
  140.3285  143.3008  151.9968 H   0  0  0  0  0  0  0  0  0  0  0  0  # atno 10167 bound_to 10162
  157.3486  130.7586  149.6962 H   0  0  0  0  0  0  0  0  0  0  0  0  # atno 10718 bound_to 10713
  154.8484  135.3478  154.6131 H   0  0  0  0  0  0  0  0  0  0  0  0  # atno 10763 bound_to 10752
  153.6739  135.6983  153.5143 H   0  0  0  0  0  0  0  0  0  0  0  0  # atno 10764 bound_to 10752
  153.2721  135.4290  155.0954 H   0  0  0  0  0  0  0  0  0  0  0  0  # atno 10765 bound_to 10752
  140.7291  134.3641  157.5170 H   0  0  0  0  0  0  0  0  0  0  0  0  # atno 11005 bound_to 11000
  144.9912  140.8549  143.5338 LP  0  0  0  0  0  0  0  0  0  0  0  0  # atno 17320 bound_to 7965
  145.1845  139.2334  143.5275 LP  0  0  0  0  0  0  0  0  0  0  0  0  # atno 17321 bound_to 7965
  139.4861  144.6254  151.7174 LP  0  0  0  0  0  0  0  0  0  0  0  0  # atno 17342 bound_to 10162
  140.5419  144.0566  150.6092 LP  0  0  0  0  0  0  0  0  0  0  0  0  # atno 17343 bound_to 10162
  155.9718  130.4147  150.4145 LP  0  0  0  0  0  0  0  0  0  0  0  0  # atno 17370 bound_to 10713
  157.2204  131.0481  151.2550 LP  0  0  0  0  0  0  0  0  0  0  0  0  # atno 17371 bound_to 10713
  139.8830  134.9006  156.2793 LP  0  0  0  0  0  0  0  0  0  0  0  0  # atno 17394 bound_to 11000
  140.9936  133.7193  156.0852 LP  0  0  0  0  0  0  0  0  0  0  0  0  # atno 17395 bound_to 11000

$$$$
