AV-unprocessed.smi:177|AV-procd|sdf|1437|dock4
  -GOLD-   2262019223D 1   1.00000     0.00000
 Structure written by MMmdl.
 61 65  0  0  0  0  0  0  0  0  1 V2000
  150.9122  145.2159  159.3701 C   0  0  0  0  0  0  0  0  0  0  0  0
  152.0974  144.5470  159.7725 O   0  0  0  0  0  0  0  0  0  0  0  0
  151.9950  143.1285  159.7910 C   0  0  2  0  0  0  0  0  0  0  0  0
  153.3157  142.5825  160.3607 C   0  0  0  0  0  0  0  0  0  0  0  0
  153.3431  141.0472  160.3417 C   0  0  0  0  0  0  0  0  0  0  0  0
  153.0942  140.5190  158.9215 C   0  0  1  0  0  0  0  0  0  0  0  0
  153.1094  139.0965  158.9420 O   0  0  0  0  0  0  0  0  0  0  0  0
  152.9855  138.5542  157.6329 C   0  0  0  0  0  0  0  0  0  0  0  0
  151.6391  138.9811  157.0287 C   0  0  0  0  0  0  0  0  0  0  0  0
  151.4963  140.4344  157.0503 N   0  0  0  0  0  0  0  0  0  0  0  0
  150.3703  140.7995  156.3899 C   0  0  0  0  0  0  0  0  0  0  0  0
  150.3051  140.7071  155.0345 N   0  0  0  0  0  0  0  0  0  0  0  0
  149.1974  141.0856  154.3898 C   0  0  0  0  0  0  0  0  0  0  0  0
  148.0676  141.5867  154.8939 N   0  0  0  0  0  0  0  0  0  0  0  0
  148.1374  141.6982  156.2519 C   0  0  0  0  0  0  0  0  0  0  0  0
  149.2415  141.3296  157.0701 C   0  0  0  0  0  0  0  0  0  0  0  0
  148.9501  141.5780  158.4050 N   0  0  0  0  0  0  0  0  0  0  0  0
  147.7390  142.0643  158.3780 C   0  0  0  0  0  0  0  0  0  0  0  0
  147.1800  142.1869  157.1249 N   0  0  0  0  0  0  0  0  0  0  0  0
  145.8482  142.6848  156.8090 C   0  0  0  0  0  0  0  0  0  0  0  0
  144.7304  141.6037  156.6795 C   0  0  0  0  0  0  0  0  0  0  0  0
  145.2313  140.5348  155.6660 C   0  0  0  0  0  0  0  0  0  0  0  0
  145.6099  141.0992  154.4260 O   0  0  0  0  0  0  0  0  0  0  0  0
  144.3911  140.9650  158.0521 C   0  0  0  0  0  0  0  0  0  0  0  0
  143.1637  140.0378  157.9856 C   0  0  0  0  0  0  0  0  0  0  0  0
  142.0379  140.7602  157.5023 O   0  0  0  0  0  0  0  0  0  0  0  0
  142.2230  141.2635  156.1850 C   0  0  0  0  0  0  0  0  0  0  0  0
  143.4157  142.2381  156.1550 C   0  0  0  0  0  0  0  0  0  0  0  0
  151.7352  141.0185  158.3765 C   0  0  2  0  0  0  0  0  0  0  0  0
  151.7326  142.5675  158.3760 C   0  0  0  0  0  0  0  0  0  0  0  0
  151.0630  146.2928  159.4427 H   0  0  0  0  0  0  0  0  0  0  0  0
  150.0719  144.9544  160.0141 H   0  0  0  0  0  0  0  0  0  0  0  0
  150.6463  144.9895  158.3380 H   0  0  0  0  0  0  0  0  0  0  0  0
  151.1869  142.8265  160.4598 H   0  0  0  0  0  0  0  0  0  0  0  0
  154.1536  142.9665  159.7772 H   0  0  0  0  0  0  0  0  0  0  0  0
  153.4591  142.9428  161.3800 H   0  0  0  0  0  0  0  0  0  0  0  0
  154.3049  140.6891  160.7096 H   0  0  0  0  0  0  0  0  0  0  0  0
  152.5847  140.6563  161.0211 H   0  0  0  0  0  0  0  0  0  0  0  0
  153.9031  140.8699  158.2768 H   0  0  0  0  0  0  0  0  0  0  0  0
  153.8159  138.8836  157.0062 H   0  0  0  0  0  0  0  0  0  0  0  0
  153.0434  137.4674  157.6918 H   0  0  0  0  0  0  0  0  0  0  0  0
  151.5663  138.6070  156.0066 H   0  0  0  0  0  0  0  0  0  0  0  0
  150.8213  138.5303  157.5932 H   0  0  0  0  0  0  0  0  0  0  0  0
  149.2210  140.9722  153.3159 H   0  0  0  0  0  0  0  0  0  0  0  0
  147.2167  142.3541  159.2782 H   0  0  0  0  0  0  0  0  0  0  0  0
  145.5742  143.4083  157.5783 H   0  0  0  0  0  0  0  0  0  0  0  0
  145.9302  143.2552  155.8832 H   0  0  0  0  0  0  0  0  0  0  0  0
  146.0867  139.9773  156.0425 H   0  0  0  0  0  0  0  0  0  0  0  0
  144.4495  139.7982  155.4780 H   0  0  0  0  0  0  0  0  0  0  0  0
  144.8464  141.1434  153.8708 H   0  0  0  0  0  0  0  0  0  0  0  0
  145.2488  140.4224  158.4503 H   0  0  0  0  0  0  0  0  0  0  0  0
  144.1645  141.7425  158.7806 H   0  0  0  0  0  0  0  0  0  0  0  0
  143.3507  139.1638  157.3611 H   0  0  0  0  0  0  0  0  0  0  0  0
  142.9305  139.6619  158.9819 H   0  0  0  0  0  0  0  0  0  0  0  0
  142.3503  140.4416  155.4808 H   0  0  0  0  0  0  0  0  0  0  0  0
  141.3146  141.7861  155.8851 H   0  0  0  0  0  0  0  0  0  0  0  0
  143.1385  143.0923  156.7717 H   0  0  0  0  0  0  0  0  0  0  0  0
  143.5565  142.6257  155.1455 H   0  0  0  0  0  0  0  0  0  0  0  0
  150.9489  140.6665  159.0466 H   0  0  0  0  0  0  0  0  0  0  0  0
  150.7806  142.9464  158.0089 H   0  0  0  0  0  0  0  0  0  0  0  0
  152.4944  142.9366  157.6879 H   0  0  0  0  0  0  0  0  0  0  0  0
  1  2  1  0  0  0  0
  1 31  1  0  0  0  0
  1 32  1  0  0  0  0
  1 33  1  0  0  0  0
  2  3  1  0  0  0  0
  3 30  1  0  0  0  0
  3  4  1  0  0  0  0
  3 34  1  0  0  0  0
  4  5  1  0  0  0  0
  4 35  1  0  0  0  0
  4 36  1  0  0  0  0
  5  6  1  0  0  0  0
  5 37  1  0  0  0  0
  5 38  1  0  0  0  0
  6 29  1  0  0  0  0
  6  7  1  0  0  0  0
  6 39  1  0  0  0  0
  7  8  1  0  0  0  0
  8  9  1  0  0  0  0
  8 40  1  0  0  0  0
  8 41  1  0  0  0  0
  9 10  1  0  0  0  0
  9 42  1  0  0  0  0
  9 43  1  0  0  0  0
 10 11  1  0  0  0  0
 10 29  1  0  0  0  0
 11 16  1  0  0  0  0
 11 12  2  0  0  0  0
 12 13  1  0  0  0  0
 13 14  2  0  0  0  0
 13 44  1  0  0  0  0
 14 15  1  0  0  0  0
 15 19  1  0  0  0  0
 15 16  2  0  0  0  0
 16 17  1  0  0  0  0
 17 18  2  0  0  0  0
 18 19  1  0  0  0  0
 18 45  1  0  0  0  0
 19 20  1  0  0  0  0
 20 21  1  0  0  0  0
 20 46  1  0  0  0  0
 20 47  1  0  0  0  0
 21 28  1  0  0  0  0
 21 22  1  0  0  0  0
 21 24  1  0  0  0  0
 22 23  1  0  0  0  0
 22 48  1  0  0  0  0
 22 49  1  0  0  0  0
 23 50  1  0  0  0  0
 24 25  1  0  0  0  0
 24 51  1  0  0  0  0
 24 52  1  0  0  0  0
 25 26  1  0  0  0  0
 25 53  1  0  0  0  0
 25 54  1  0  0  0  0
 26 27  1  0  0  0  0
 27 28  1  0  0  0  0
 27 55  1  0  0  0  0
 27 56  1  0  0  0  0
 28 57  1  0  0  0  0
 28 58  1  0  0  0  0
 29 30  1  0  0  0  0
 29 59  1  0  0  0  0
 30 60  1  0  0  0  0
 30 61  1  0  0  0  0
M  END
> <s_m_source_file>
AV-unprocessed.smi

> <i_m_source_file_index>
177

> <i_lp_mmshare_version>
43012

> <i_f3d_flags>
0

> <s_epik_input>
W0NIM11PW0NASF0oW0NIMl1bQ0gyXTEpW0NIMl1bQ0BIXShbQ0BASF0xMilOKFtDSDJdW0NIMl1PMiljKG5bY0hdbjMpYyhjMzQpbltjSF1uNFtDSDJdQzUoW0NIMl1bT0hdKVtDSDJdW0NIMl1PW0NIMl1bQ0gyXTU=

> <s_epik_cmdline>
J2VwaWtfcHl0aG9uJywgJy1waCcsICc3LjAnLCAnLXRuJywgJzgnLCAnLW1hJywgJzIwMCcsICctbWV0YWxfYmluZGluZycsICctaW1hZScsICc8aW5maWxlLm1hZT4nLCAnLW9tYWUnLCAnPG91dGZpbGUubWFlPic=

> <r_lp_tautomer_probability>
1

> <r_epik_Ionization_Penalty>
0.0065899

> <r_epik_Ionization_Penalty_Charging>
0

> <r_epik_Ionization_Penalty_Neutral>
0.0065899

> <r_epik_State_Penalty>
0.00470042

> <r_epik_Charging_Adjusted_Penalty>
0.00470042

> <i_epik_Tot_Q>
0

> <i_epik_Tot_abs_Q>
0

> <r_epik_Metal_State_Penalty>
-0

> <b_epik_Metal_Only>
0

> <s_lp_Force_Field>
OPLS_2005

> <r_lp_Energy>
44.8058

> <b_lp_Chiralities_Consistent>
1

> <s_lp_Variant>
AV-unprocessed.smi:177-1

> <Gold.Version>
5.8.1

> <Gold.Id.Protein>
6NUR|6NUR_protein|mol2

> <Gold.PLP.Fitness>
44.9767

> <Gold.PLP.PLP>
-38.1498

> <Gold.PLP.part.hbond>
-2.0000

> <Gold.PLP.part.metal>
0.0000

> <Gold.PLP.part.buried>
-6.1942

> <Gold.PLP.part.nonpolar>
-30.1197

> <Gold.PLP.part.repulsive>
0.3109

> <Gold.PLP.ligand.clash>
0.0000

> <Gold.PLP.ligand.torsion>
0.8571

> <Gold.PLP.Chemscore.Hbond>
1.7888

> <Gold.PLP.Chemscore.CHOScore>
1.0000

> <Gold.PLP.Chemscore.Metal>
0.0000

> <Gold.Chemscore.Hbonds>
donor molecule, donor type, donor heavy atom, donor atom, acceptor molecule, acceptor atom, score
      L1  H    23    50       P1 10175  1.00
      P1  H  7989  7998       L1    12  0.78
      L1  C    13    44       P1  7957  1.00

> <Gold.PLP.Chemscore.Internal.Correction>
0.1746

> <Gold.Rescore>
     Score         DG    S(hbond)    S(metal)    S(lipo)     H(rot)  DE(clash)    DE(int)     intcor
     10.83     -13.40       1.27        0.00      87.94       2.58       0.04       2.53       ----

> <Gold.Chemscore.Fitness>
10.8304

> <Gold.Chemscore.DG>
-13.3990

> <Gold.Chemscore.ZeroCoef>
-5.4800

> <Gold.Chemscore.Hbond>
1.2683

> <Gold.Chemscore.Metal>
0.0000

> <Gold.Chemscore.Lipo>
87.9399

> <Gold.Chemscore.Internal_Hbond>
0.0000

> <Gold.Chemscore.DEClash>
0.0420

> <Gold.Chemscore.DEInternal>
2.5266

> <Gold.Chemscore.Rot>
2.5806

> <Gold.Chemscore.Internal.Correction>
   9.000000E+99

> <Gold.Chemscore.Hbonds>
donor molecule, donor type, donor heavy atom, donor atom, acceptor molecule, acceptor atom, score
      L1  H    23    50       P1 10175  0.64
      P1  H  7989  7998       L1    12  0.14

> <Gold.Chemscore.Hbond.Weighted>
-4.2363

> <Gold.Chemscore.Metal.Weighted>
-0.0000

> <Gold.Chemscore.Lipo.Weighted>
-10.2890

> <Gold.Chemscore.Internal_Hbond.Weighted>
0.0000

> <Gold.Chemscore.DEClash.Weighted>
0.0420

> <Gold.Chemscore.DEInternal.Weighted>
2.5266

> <Gold.Chemscore.Rot.Weighted>
6.6062

> <Gold.Chemscore.Internal.Correction.Weighted>
   9.000000E+99

> <Gold.Protein.RotatedTorsions>
[ 6907 6896 6895 6894 ] final   41.95 input  -60.11 | X-H torsion
[ 7974 7965 7964 7962 ] final  -91.15 input  175.53 | X-H torsion
[ 8008 7997 7996 7995 ] final  -57.63 input   59.86 | X-H torsion
[ 10167 10162 10161 10158 ] final -170.29 input  -65.29 | X-H torsion
[ 10718 10713 10712 10709 ] final  147.69 input   66.30 | X-H torsion
[ 10763 10752 10751 10750 ] final  145.88 input  -60.55 | X-H torsion
[ 11005 11000 10999 10996 ] final    9.72 input  -57.11 | X-H torsion

> <Gold.Protein.ActiveResidues>
 VAL166  LYS551  ARG553  GLY616  TRP617  ASP618  TYR619  PRO620  LYS621  CYS622 
 ASP623  PHE694  ASN695  SER759  ASP760  ASP761  ALA762  ILE779  LEU786  VAL792 
 PHE793  MET794  SER795  GLU796  ALA797  LYS798  CYS799  TRP800  GLU811  SER814 

> <Gold.Protein.RotatedAtoms>
  152.2017  134.8582  160.0506 H   0  0  0  0  0  0  0  0  0  0  0  0  # atno 6907 bound_to 6896
  151.9433  133.3639  159.3981 H   0  0  0  0  0  0  0  0  0  0  0  0  # atno 6908 bound_to 6896
  150.6956  134.4341  159.5306 H   0  0  0  0  0  0  0  0  0  0  0  0  # atno 6909 bound_to 6896
  145.4170  140.9549  143.2202 H   0  0  0  0  0  0  0  0  0  0  0  0  # atno 7974 bound_to 7965
  154.4275  140.1102  156.5828 H   0  0  0  0  0  0  0  0  0  0  0  0  # atno 8008 bound_to 7997
  155.6095  140.3494  155.4599 H   0  0  0  0  0  0  0  0  0  0  0  0  # atno 8009 bound_to 7997
  156.0111  140.1219  157.0443 H   0  0  0  0  0  0  0  0  0  0  0  0  # atno 8010 bound_to 7997
  139.5871  144.1295  152.1589 H   0  0  0  0  0  0  0  0  0  0  0  0  # atno 10167 bound_to 10162
  157.3178  131.0899  151.1265 H   0  0  0  0  0  0  0  0  0  0  0  0  # atno 10718 bound_to 10713
  154.0127  135.2913  155.3390 H   0  0  0  0  0  0  0  0  0  0  0  0  # atno 10763 bound_to 10752
  154.7093  135.5156  153.8646 H   0  0  0  0  0  0  0  0  0  0  0  0  # atno 10764 bound_to 10752
  153.0716  135.6649  154.0357 H   0  0  0  0  0  0  0  0  0  0  0  0  # atno 10765 bound_to 10752
  140.5225  134.0545  155.7849 H   0  0  0  0  0  0  0  0  0  0  0  0  # atno 11005 bound_to 11000
  144.8271  139.5692  143.6961 LP  0  0  0  0  0  0  0  0  0  0  0  0  # atno 17320 bound_to 7965
  146.2676  139.6557  142.9318 LP  0  0  0  0  0  0  0  0  0  0  0  0  # atno 17321 bound_to 7965
  140.0861  144.5660  150.7088 LP  0  0  0  0  0  0  0  0  0  0  0  0  # atno 17342 bound_to 10162
  140.7141  143.2529  151.4490 LP  0  0  0  0  0  0  0  0  0  0  0  0  # atno 17343 bound_to 10162
  157.2561  130.6637  149.5953 LP  0  0  0  0  0  0  0  0  0  0  0  0  # atno 17370 bound_to 10713
  155.9683  130.4523  150.5768 LP  0  0  0  0  0  0  0  0  0  0  0  0  # atno 17371 bound_to 10713
  141.1326  133.9276  157.2503 LP  0  0  0  0  0  0  0  0  0  0  0  0  # atno 17394 bound_to 11000
  139.9598  135.0157  156.9229 LP  0  0  0  0  0  0  0  0  0  0  0  0  # atno 17395 bound_to 11000

$$$$
