AV-unprocessed.smi:573|AV-procd|sdf|2967|dock1
  -GOLD-   2262023473D 1   1.00000     0.00000
 Structure written by MMmdl.
 45 47  0  0  0  0  0  0  0  0  2 V2000
  147.3625  141.2733  153.2637 C   0  0  0  0  0  0  0  0  0  0  0  0
  147.4474  139.7470  153.4119 C   0  0  2  0  0  0  0  0  0  0  0  0
  148.8089  139.3844  153.4939 O   0  0  0  0  0  0  0  0  0  0  0  0
  146.8234  138.9904  152.2249 C   0  0  0  0  0  0  0  0  0  0  0  0
  146.5380  137.5969  152.5355 N   0  0  0  0  0  0  0  0  0  0  0  0
  145.2184  137.1837  152.7538 C   0  0  0  0  0  0  0  0  0  0  0  0
  144.1357  137.9956  152.8906 N   0  3  0  0  0  0  0  0  0  0  0  0
  143.0108  137.1954  153.1092 C   0  0  0  0  0  0  0  0  0  0  0  0
  141.6777  137.5404  153.3093 C   0  0  0  0  0  0  0  0  0  0  0  0
  140.7720  136.4787  153.5132 C   0  0  0  0  0  0  0  0  0  0  0  0
  141.2016  135.1358  153.5151 C   0  0  0  0  0  0  0  0  0  0  0  0
  142.5545  134.7949  153.3089 C   0  0  0  0  0  0  0  0  0  0  0  0
  143.4459  135.8480  153.1040 C   0  0  0  0  0  0  0  0  0  0  0  0
  144.8274  135.8889  152.8718 N   0  0  0  0  0  0  0  0  0  0  0  0
  145.6029  134.6416  152.7999 C   0  0  0  0  0  0  0  0  0  0  0  0
  144.9732  133.6172  151.8416 C   0  0  2  0  0  0  0  0  0  0  0  0
  145.8043  132.3228  151.7568 C   0  0  0  0  0  0  0  0  0  0  0  0
  145.1859  131.3495  150.7468 C   0  0  0  0  0  0  0  0  0  0  0  0
  144.9827  132.0582  149.4034 C   0  0  0  0  0  0  0  0  0  0  0  0
  144.1986  133.3651  149.6015 C   0  0  0  0  0  0  0  0  0  0  0  0
  144.8704  134.1967  150.5421 O   0  0  0  0  0  0  0  0  0  0  0  0
  146.3258  141.6102  153.2325 H   0  0  0  0  0  0  0  0  0  0  0  0
  147.8490  141.6114  152.3481 H   0  0  0  0  0  0  0  0  0  0  0  0
  147.8436  141.7773  154.1027 H   0  0  0  0  0  0  0  0  0  0  0  0
  146.9698  139.4440  154.3443 H   0  0  0  0  0  0  0  0  0  0  0  0
  149.2375  139.6367  152.6901 H   0  0  0  0  0  0  0  0  0  0  0  0
  145.8924  139.4722  151.9246 H   0  0  0  0  0  0  0  0  0  0  0  0
  147.4826  139.0375  151.3571 H   0  0  0  0  0  0  0  0  0  0  0  0
  147.2681  136.9092  152.4164 H   0  0  0  0  0  0  0  0  0  0  0  0
  141.3457  138.5683  153.3124 H   0  0  0  0  0  0  0  0  0  0  0  0
  139.7267  136.6991  153.6742 H   0  0  0  0  0  0  0  0  0  0  0  0
  140.4787  134.3496  153.6790 H   0  0  0  0  0  0  0  0  0  0  0  0
  142.8722  133.7628  153.3188 H   0  0  0  0  0  0  0  0  0  0  0  0
  146.6284  134.8737  152.5123 H   0  0  0  0  0  0  0  0  0  0  0  0
  145.6546  134.2291  153.8081 H   0  0  0  0  0  0  0  0  0  0  0  0
  143.9700  133.3798  152.2009 H   0  0  0  0  0  0  0  0  0  0  0  0
  146.8251  132.5599  151.4543 H   0  0  0  0  0  0  0  0  0  0  0  0
  145.8706  131.8494  152.7370 H   0  0  0  0  0  0  0  0  0  0  0  0
  145.8228  130.4731  150.6227 H   0  0  0  0  0  0  0  0  0  0  0  0
  144.2267  130.9908  151.1222 H   0  0  0  0  0  0  0  0  0  0  0  0
  145.9521  132.2796  148.9550 H   0  0  0  0  0  0  0  0  0  0  0  0
  144.4572  131.4039  148.7072 H   0  0  0  0  0  0  0  0  0  0  0  0
  144.1175  133.8997  148.6550 H   0  0  0  0  0  0  0  0  0  0  0  0
  143.1815  133.1628  149.9405 H   0  0  0  0  0  0  0  0  0  0  0  0
  144.1659  139.0058  152.8433 H   0  0  0  0  0  0  0  0  0  0  0  0
  1  2  1  0  0  0  0
  1 22  1  0  0  0  0
  1 23  1  0  0  0  0
  1 24  1  0  0  0  0
  2  3  1  0  0  0  0
  2  4  1  0  0  0  0
  2 25  1  0  0  0  0
  3 26  1  0  0  0  0
  4  5  1  0  0  0  0
  4 27  1  0  0  0  0
  4 28  1  0  0  0  0
  5  6  1  0  0  0  0
  5 29  1  0  0  0  0
  6 14  1  0  0  0  0
  6  7  2  0  0  0  0
  7  8  1  0  0  0  0
  7 45  1  0  0  0  0
  8 13  2  0  0  0  0
  8  9  1  0  0  0  0
  9 10  2  0  0  0  0
  9 30  1  0  0  0  0
 10 11  1  0  0  0  0
 10 31  1  0  0  0  0
 11 12  2  0  0  0  0
 11 32  1  0  0  0  0
 12 13  1  0  0  0  0
 12 33  1  0  0  0  0
 13 14  1  0  0  0  0
 14 15  1  0  0  0  0
 15 16  1  0  0  0  0
 15 34  1  0  0  0  0
 15 35  1  0  0  0  0
 16 21  1  0  0  0  0
 16 17  1  0  0  0  0
 16 36  1  0  0  0  0
 17 18  1  0  0  0  0
 17 37  1  0  0  0  0
 17 38  1  0  0  0  0
 18 19  1  0  0  0  0
 18 39  1  0  0  0  0
 18 40  1  0  0  0  0
 19 20  1  0  0  0  0
 19 41  1  0  0  0  0
 19 42  1  0  0  0  0
 20 21  1  0  0  0  0
 20 43  1  0  0  0  0
 20 44  1  0  0  0  0
M  CHG  1   7   1
M  END
> <s_m_source_file>
AV-unprocessed.smi

> <i_m_source_file_index>
573

> <i_lp_mmshare_version>
43012

> <i_f3d_flags>
0

> <s_epik_input>
W0NIM11bQ0BIXShbT0hdKVtDSDJdW05IXWMobjEpbihjKGMxMilbY0hdW2NIXVtjSF1bY0hdMilbQ0gyXVtDQEBIXTNbQ0gyXVtDSDJdW0NIMl1bQ0gyXU8z

> <s_epik_cmdline>
J2VwaWtfcHl0aG9uJywgJy1waCcsICc3LjAnLCAnLXRuJywgJzgnLCAnLW1hJywgJzIwMCcsICctbWV0YWxfYmluZGluZycsICctaW1hZScsICc8aW5maWxlLm1hZT4nLCAnLW9tYWUnLCAnPG91dGZpbGUubWFlPic=

> <r_epik_Ionization_Penalty>
0.0692245

> <r_epik_Ionization_Penalty_Charging>
0.0692223

> <r_epik_Ionization_Penalty_Neutral>
2.1869e-06

> <r_epik_State_Penalty>
0.0606215

> <r_epik_Charging_Adjusted_Penalty>
0.129844

> <i_epik_Tot_Q>
1

> <i_epik_Tot_abs_Q>
1

> <r_epik_Metal_State_Penalty>
2.77811

> <b_epik_Metal_Only>
0

> <s_lp_Force_Field>
OPLS_2005

> <r_lp_Energy>
19.8097

> <b_lp_Chiralities_Consistent>
1

> <s_lp_Variant>
AV-unprocessed.smi:573-1

> <Gold.Version>
5.8.1

> <Gold.Id.Protein>
6NUR|6NUR_protein|mol2

> <Gold.PLP.Fitness>
55.8287

> <Gold.PLP.PLP>
-41.4517

> <Gold.PLP.part.hbond>
-3.4736

> <Gold.PLP.part.metal>
0.0000

> <Gold.PLP.part.buried>
-6.5418

> <Gold.PLP.part.nonpolar>
-32.2045

> <Gold.PLP.part.repulsive>
0.2420

> <Gold.PLP.ligand.clash>
0.0000

> <Gold.PLP.ligand.torsion>
0.3295

> <Gold.PLP.Chemscore.Hbond>
5.0000

> <Gold.PLP.Chemscore.CHOScore>
0.0000

> <Gold.PLP.Chemscore.Metal>
0.0000

> <Gold.Chemscore.Hbonds>
donor molecule, donor type, donor heavy atom, donor atom, acceptor molecule, acceptor atom, score
      L1  H     3    26       P1  7957  1.00
      L1  H     5    29       P1  7948  2.00
      L1  H     7    45       P1 10175  2.00

> <Gold.PLP.Chemscore.Internal.Correction>
0.0360

> <Gold.Rescore>
     Score         DG    S(hbond)    S(metal)    S(lipo)     H(rot)  DE(clash)    DE(int)     intcor
     21.80     -22.22       2.96        0.00     103.79       2.07       0.15       0.26       ----

> <Gold.Chemscore.Fitness>
21.8046

> <Gold.Chemscore.DG>
-22.2188

> <Gold.Chemscore.ZeroCoef>
-5.4800

> <Gold.Chemscore.Hbond>
2.9625

> <Gold.Chemscore.Metal>
0.0000

> <Gold.Chemscore.Lipo>
103.7886

> <Gold.Chemscore.Internal_Hbond>
0.0000

> <Gold.Chemscore.DEClash>
0.1527

> <Gold.Chemscore.DEInternal>
0.2616

> <Gold.Chemscore.Rot>
2.0699

> <Gold.Chemscore.Internal.Correction>
   9.000000E+99

> <Gold.Chemscore.Hbonds>
donor molecule, donor type, donor heavy atom, donor atom, acceptor molecule, acceptor atom, score
      L1  H     3    26       P1  7957  0.99
      L1  H     5    29       P1  7948  0.98
      L1  H     7    45       P1 10175  0.95

> <Gold.Chemscore.Hbond.Weighted>
-9.8946

> <Gold.Chemscore.Metal.Weighted>
-0.0000

> <Gold.Chemscore.Lipo.Weighted>
-12.1433

> <Gold.Chemscore.Internal_Hbond.Weighted>
0.0000

> <Gold.Chemscore.DEClash.Weighted>
0.1527

> <Gold.Chemscore.DEInternal.Weighted>
0.2616

> <Gold.Chemscore.Rot.Weighted>
5.2991

> <Gold.Chemscore.Internal.Correction.Weighted>
   9.000000E+99

> <Gold.Protein.RotatedTorsions>
[ 6907 6896 6895 6894 ] final   -8.45 input  -60.11 | X-H torsion
[ 7974 7965 7964 7962 ] final  -52.32 input  175.53 | X-H torsion
[ 8008 7997 7996 7995 ] final   91.97 input   59.86 | X-H torsion
[ 10167 10162 10161 10158 ] final -128.54 input  -65.29 | X-H torsion
[ 10718 10713 10712 10709 ] final   74.09 input   66.30 | X-H torsion
[ 10763 10752 10751 10750 ] final -148.85 input  -60.55 | X-H torsion
[ 11005 11000 10999 10996 ] final  -33.84 input  -57.11 | X-H torsion

> <Gold.Protein.ActiveResidues>
 VAL166  LYS551  ARG553  GLY616  TRP617  ASP618  TYR619  PRO620  LYS621  CYS622 
 ASP623  PHE694  ASN695  SER759  ASP760  ASP761  ALA762  ILE779  LEU786  VAL792 
 PHE793  MET794  SER795  GLU796  ALA797  LYS798  CYS799  TRP800  GLU811  SER814 

> <Gold.Protein.RotatedAtoms>
  151.4334  135.1012  159.9648 H   0  0  0  0  0  0  0  0  0  0  0  0  # atno 6907 bound_to 6896
  152.4948  133.8596  159.7254 H   0  0  0  0  0  0  0  0  0  0  0  0  # atno 6908 bound_to 6896
  150.9139  133.6905  159.2876 H   0  0  0  0  0  0  0  0  0  0  0  0  # atno 6909 bound_to 6896
  145.9092  140.7929  142.9704 H   0  0  0  0  0  0  0  0  0  0  0  0  # atno 7974 bound_to 7965
  156.0300  140.3331  155.7129 H   0  0  0  0  0  0  0  0  0  0  0  0  # atno 8008 bound_to 7997
  155.5898  140.0645  157.2779 H   0  0  0  0  0  0  0  0  0  0  0  0  # atno 8009 bound_to 7997
  154.4349  140.1829  156.1051 H   0  0  0  0  0  0  0  0  0  0  0  0  # atno 8010 bound_to 7997
  139.9492  143.6075  152.2480 H   0  0  0  0  0  0  0  0  0  0  0  0  # atno 10167 bound_to 10162
  157.6577  130.9661  150.1162 H   0  0  0  0  0  0  0  0  0  0  0  0  # atno 10718 bound_to 10713
  154.8210  135.3324  154.7038 H   0  0  0  0  0  0  0  0  0  0  0  0  # atno 10763 bound_to 10752
  153.7670  135.6928  153.4918 H   0  0  0  0  0  0  0  0  0  0  0  0  # atno 10764 bound_to 10752
  153.2070  135.4495  155.0284 H   0  0  0  0  0  0  0  0  0  0  0  0  # atno 10765 bound_to 10752
  140.9667  133.7133  156.1457 H   0  0  0  0  0  0  0  0  0  0  0  0  # atno 11005 bound_to 11000
  144.6742  140.1799  143.7406 LP  0  0  0  0  0  0  0  0  0  0  0  0  # atno 17320 bound_to 7965
  145.8693  139.2263  143.1670 LP  0  0  0  0  0  0  0  0  0  0  0  0  # atno 17321 bound_to 7965
  139.6642  144.7662  151.1905 LP  0  0  0  0  0  0  0  0  0  0  0  0  # atno 17342 bound_to 10162
  140.7588  143.5963  150.8745 LP  0  0  0  0  0  0  0  0  0  0  0  0  # atno 17343 bound_to 10162
  156.2045  130.3662  149.8746 LP  0  0  0  0  0  0  0  0  0  0  0  0  # atno 17370 bound_to 10713
  156.6641  130.8794  151.3552 LP  0  0  0  0  0  0  0  0  0  0  0  0  # atno 17371 bound_to 10713
  140.7388  134.4173  157.5557 LP  0  0  0  0  0  0  0  0  0  0  0  0  # atno 17394 bound_to 11000
  139.8897  134.8823  156.2406 LP  0  0  0  0  0  0  0  0  0  0  0  0  # atno 17395 bound_to 11000

$$$$
