AV-unprocessed.smi:1984|AV-procd|sdf|8040|dock4
  -GOLD-   2272010233D 1   1.00000     0.00000
 Structure written by MMmdl.
 38 39  0  0  0  0  0  0  0  0  1 V2000
  152.1314  144.6885  157.9463 C   0  0  0  0  0  0  0  0  0  0  0  0
  152.4256  143.7871  159.1088 C   0  0  0  0  0  0  0  0  0  0  0  0
  152.5522  144.1342  160.4827 C   0  0  0  0  0  0  0  0  0  0  0  0
  152.8379  142.9518  161.1052 C   0  0  0  0  0  0  0  0  0  0  0  0
  153.0914  142.6630  162.5484 C   0  0  0  0  0  0  0  0  0  0  0  0
  152.8703  141.9775  160.1228 N   0  0  0  0  0  0  0  0  0  0  0  0
  153.1625  140.5549  160.2429 C   0  0  0  0  0  0  0  0  0  0  0  0
  153.0850  139.8586  158.8817 C   0  0  0  0  0  0  0  0  0  0  0  0
  153.9941  139.1139  158.5169 O   0  0  0  0  0  0  0  0  0  0  0  0
  151.9789  140.0841  158.1556 N   0  0  0  0  0  0  0  0  0  0  0  0
  151.6058  139.3559  156.9496 C   0  0  0  0  0  0  0  0  0  0  0  0
  150.5891  138.2395  157.2629 C   0  0  2  0  0  0  0  0  0  0  0  0
  149.1401  138.7563  157.3400 C   0  0  0  0  0  0  0  0  0  0  0  0
  148.2590  137.6401  157.9098 C   0  0  0  0  0  0  0  0  0  0  0  0
  149.3060  136.7630  159.1301 S   0  0  0  0  0  0  0  0  0  0  0  0
  149.0071  137.2636  160.4803 O   0  0  0  0  0  0  0  0  0  0  0  0
  149.2867  135.3224  158.8348 O   0  0  0  0  0  0  0  0  0  0  0  0
  150.8942  137.4846  158.5698 C   0  0  0  0  0  0  0  0  0  0  0  0
  152.6110  142.4943  158.9010 N   0  0  0  0  0  0  0  0  0  0  0  0
  151.7588  145.6561  158.2831 H   0  0  0  0  0  0  0  0  0  0  0  0
  151.3776  144.2548  157.2884 H   0  0  0  0  0  0  0  0  0  0  0  0
  153.0294  144.8662  157.3542 H   0  0  0  0  0  0  0  0  0  0  0  0
  152.4535  145.1069  160.9414 H   0  0  0  0  0  0  0  0  0  0  0  0
  153.1057  143.5831  163.1329 H   0  0  0  0  0  0  0  0  0  0  0  0
  154.0515  142.1657  162.6854 H   0  0  0  0  0  0  0  0  0  0  0  0
  152.3125  142.0189  162.9566 H   0  0  0  0  0  0  0  0  0  0  0  0
  154.1547  140.4159  160.6724 H   0  0  0  0  0  0  0  0  0  0  0  0
  152.4494  140.1049  160.9354 H   0  0  0  0  0  0  0  0  0  0  0  0
  151.2940  140.7258  158.5279 H   0  0  0  0  0  0  0  0  0  0  0  0
  151.1735  140.0690  156.2472 H   0  0  0  0  0  0  0  0  0  0  0  0
  152.4943  138.9440  156.4681 H   0  0  0  0  0  0  0  0  0  0  0  0
  150.6178  137.5074  156.4540 H   0  0  0  0  0  0  0  0  0  0  0  0
  149.0996  139.6158  158.0101 H   0  0  0  0  0  0  0  0  0  0  0  0
  148.7775  139.0919  156.3680 H   0  0  0  0  0  0  0  0  0  0  0  0
  147.3499  138.0089  158.3846 H   0  0  0  0  0  0  0  0  0  0  0  0
  147.9839  136.9298  157.1296 H   0  0  0  0  0  0  0  0  0  0  0  0
  151.6375  136.6971  158.4401 H   0  0  0  0  0  0  0  0  0  0  0  0
  151.2431  138.1650  159.3469 H   0  0  0  0  0  0  0  0  0  0  0  0
  1  2  1  0  0  0  0
  1 20  1  0  0  0  0
  1 21  1  0  0  0  0
  1 22  1  0  0  0  0
  2 19  2  0  0  0  0
  2  3  1  0  0  0  0
  3  4  2  0  0  0  0
  3 23  1  0  0  0  0
  4  5  1  0  0  0  0
  4  6  1  0  0  0  0
  5 24  1  0  0  0  0
  5 25  1  0  0  0  0
  5 26  1  0  0  0  0
  6  7  1  0  0  0  0
  6 19  1  0  0  0  0
  7  8  1  0  0  0  0
  7 27  1  0  0  0  0
  7 28  1  0  0  0  0
  8  9  2  0  0  0  0
  8 10  1  0  0  0  0
 10 11  1  0  0  0  0
 10 29  1  0  0  0  0
 11 12  1  0  0  0  0
 11 30  1  0  0  0  0
 11 31  1  0  0  0  0
 12 18  1  0  0  0  0
 12 13  1  0  0  0  0
 12 32  1  0  0  0  0
 13 14  1  0  0  0  0
 13 33  1  0  0  0  0
 13 34  1  0  0  0  0
 14 15  1  0  0  0  0
 14 35  1  0  0  0  0
 14 36  1  0  0  0  0
 15 16  2  0  0  0  0
 15 17  2  0  0  0  0
 15 18  1  0  0  0  0
 18 37  1  0  0  0  0
 18 38  1  0  0  0  0
M  END
> <s_m_source_file>
AV-unprocessed.smi

> <i_m_source_file_index>
1984

> <i_lp_mmshare_version>
43012

> <i_f3d_flags>
0

> <s_epik_input>
W0NIM11jMVtjSF1jKFtDSDNdKW4objEpW0NIMl1DKD1PKVtOSF1bQ0gyXVtDQEBIXShbQ0gyXTIpW0NIMl1bQ0gyXVMyKD1PKT1P

> <s_epik_cmdline>
J2VwaWtfcHl0aG9uJywgJy1waCcsICc3LjAnLCAnLXRuJywgJzgnLCAnLW1hJywgJzIwMCcsICctbWV0YWxfYmluZGluZycsICctaW1hZScsICc8aW5maWxlLm1hZT4nLCAnLW9tYWUnLCAnPG91dGZpbGUubWFlPic=

> <r_lp_tautomer_probability>
1

> <r_epik_Ionization_Penalty>
0.000335865

> <r_epik_Ionization_Penalty_Charging>
0

> <r_epik_Ionization_Penalty_Neutral>
0.000335865

> <r_epik_State_Penalty>
-0

> <r_epik_Charging_Adjusted_Penalty>
0

> <i_epik_Tot_Q>
0

> <i_epik_Tot_abs_Q>
0

> <r_epik_Metal_State_Penalty>
-0

> <b_epik_Metal_Only>
0

> <s_lp_Force_Field>
OPLS_2005

> <r_lp_Energy>
1.39039

> <b_lp_Chiralities_Consistent>
1

> <s_lp_Variant>
AV-unprocessed.smi:1984-1

> <Gold.Version>
5.8.1

> <Gold.Id.Protein>
6NUR|6NUR_protein|mol2

> <Gold.PLP.Fitness>
46.2027

> <Gold.PLP.PLP>
-39.3153

> <Gold.PLP.part.hbond>
-3.4630

> <Gold.PLP.part.metal>
0.0000

> <Gold.PLP.part.buried>
-5.5085

> <Gold.PLP.part.nonpolar>
-29.4881

> <Gold.PLP.part.repulsive>
0.0892

> <Gold.PLP.ligand.clash>
0.0000

> <Gold.PLP.ligand.torsion>
0.4734

> <Gold.PLP.Chemscore.Hbond>
2.6080

> <Gold.PLP.Chemscore.CHOScore>
0.0000

> <Gold.PLP.Chemscore.Metal>
0.0000

> <Gold.Chemscore.Hbonds>
donor molecule, donor type, donor heavy atom, donor atom, acceptor molecule, acceptor atom, score
      P1  H  6896  6907       L1    17  1.00
      P1  H  6931  6943       L1    16  0.58
      P1  H  7997  8010       L1     9  1.00

> <Gold.PLP.Chemscore.Internal.Correction>
0.0103

> <Gold.Rescore>
     Score         DG    S(hbond)    S(metal)    S(lipo)     H(rot)  DE(clash)    DE(int)     intcor
     17.60     -19.89       2.56        0.00      86.72       1.68       0.07       2.22       ----

> <Gold.Chemscore.Fitness>
17.5962

> <Gold.Chemscore.DG>
-19.8859

> <Gold.Chemscore.ZeroCoef>
-5.4800

> <Gold.Chemscore.Hbond>
2.5627

> <Gold.Chemscore.Metal>
0.0000

> <Gold.Chemscore.Lipo>
86.7193

> <Gold.Chemscore.Internal_Hbond>
0.0000

> <Gold.Chemscore.DEClash>
0.0729

> <Gold.Chemscore.DEInternal>
2.2168

> <Gold.Chemscore.Rot>
1.6795

> <Gold.Chemscore.Internal.Correction>
   9.000000E+99

> <Gold.Chemscore.Hbonds>
donor molecule, donor type, donor heavy atom, donor atom, acceptor molecule, acceptor atom, score
      P1  H  6896  6907       L1    17  0.34
      P1  H  6931  6943       L1    16  0.58
      P1  H  7997  8010       L1     9  0.55

> <Gold.Chemscore.Hbond.Weighted>
-8.5593

> <Gold.Chemscore.Metal.Weighted>
-0.0000

> <Gold.Chemscore.Lipo.Weighted>
-10.1462

> <Gold.Chemscore.Internal_Hbond.Weighted>
0.0000

> <Gold.Chemscore.DEClash.Weighted>
0.0729

> <Gold.Chemscore.DEInternal.Weighted>
2.2168

> <Gold.Chemscore.Rot.Weighted>
4.2995

> <Gold.Chemscore.Internal.Correction.Weighted>
   9.000000E+99

> <Gold.Protein.RotatedTorsions>
[ 6907 6896 6895 6894 ] final  -55.79 input  -60.11 | X-H torsion
[ 7974 7965 7964 7962 ] final  169.41 input  175.53 | X-H torsion
[ 8008 7997 7996 7995 ] final   12.14 input   59.86 | X-H torsion
[ 10167 10162 10161 10158 ] final -144.04 input  -65.29 | X-H torsion
[ 10718 10713 10712 10709 ] final  -17.01 input   66.30 | X-H torsion
[ 10763 10752 10751 10750 ] final  -86.06 input  -60.55 | X-H torsion
[ 11005 11000 10999 10996 ] final  -52.56 input  -57.11 | X-H torsion

> <Gold.Protein.ActiveResidues>
 VAL166  LYS551  ARG553  GLY616  TRP617  ASP618  TYR619  PRO620  LYS621  CYS622 
 ASP623  PHE694  ASN695  SER759  ASP760  ASP761  ALA762  ILE779  LEU786  VAL792 
 PHE793  MET794  SER795  GLU796  ALA797  LYS798  CYS799  TRP800  GLU811  SER814 

> <Gold.Protein.RotatedAtoms>
  150.8222  134.7435  159.6781 H   0  0  0  0  0  0  0  0  0  0  0  0  # atno 6907 bound_to 6896
  152.4337  134.5726  159.9935 H   0  0  0  0  0  0  0  0  0  0  0  0  # atno 6908 bound_to 6896
  151.5907  133.3329  159.3063 H   0  0  0  0  0  0  0  0  0  0  0  0  # atno 6909 bound_to 6896
  144.7356  139.9050  143.6411 H   0  0  0  0  0  0  0  0  0  0  0  0  # atno 7974 bound_to 7965
  154.8165  140.2877  155.5816 H   0  0  0  0  0  0  0  0  0  0  0  0  # atno 8008 bound_to 7997
  156.2993  140.2558  156.2994 H   0  0  0  0  0  0  0  0  0  0  0  0  # atno 8009 bound_to 7997
  154.9387  140.0382  157.2075 H   0  0  0  0  0  0  0  0  0  0  0  0  # atno 8010 bound_to 7997
  139.7936  143.7931  152.2652 H   0  0  0  0  0  0  0  0  0  0  0  0  # atno 10167 bound_to 10162
  156.5796  130.4770  149.6326 H   0  0  0  0  0  0  0  0  0  0  0  0  # atno 10718 bound_to 10713
  154.6181  135.5463  153.7546 H   0  0  0  0  0  0  0  0  0  0  0  0  # atno 10763 bound_to 10752
  153.0226  135.6406  154.1480 H   0  0  0  0  0  0  0  0  0  0  0  0  # atno 10764 bound_to 10752
  154.1415  135.2908  155.3139 H   0  0  0  0  0  0  0  0  0  0  0  0  # atno 10765 bound_to 10752
  141.0930  133.6629  156.4042 H   0  0  0  0  0  0  0  0  0  0  0  0  # atno 11005 bound_to 11000
  146.1043  139.4041  143.0327 LP  0  0  0  0  0  0  0  0  0  0  0  0  # atno 17320 bound_to 7965
  145.7534  140.9964  143.1238 LP  0  0  0  0  0  0  0  0  0  0  0  0  # atno 17321 bound_to 7965
  139.8030  144.7366  150.9799 LP  0  0  0  0  0  0  0  0  0  0  0  0  # atno 17342 bound_to 10162
  140.7820  143.4326  151.0671 LP  0  0  0  0  0  0  0  0  0  0  0  0  # atno 17343 bound_to 10162
  156.2643  130.6980  151.1759 LP  0  0  0  0  0  0  0  0  0  0  0  0  # atno 17370 bound_to 10713
  157.7329  131.0595  150.5601 LP  0  0  0  0  0  0  0  0  0  0  0  0  # atno 17371 bound_to 10713
  140.5206  134.6308  157.5317 LP  0  0  0  0  0  0  0  0  0  0  0  0  # atno 17394 bound_to 11000
  139.9760  134.7214  155.9948 LP  0  0  0  0  0  0  0  0  0  0  0  0  # atno 17395 bound_to 11000

$$$$
