AV-unprocessed.smi:1990|AV-procd|sdf|8064|dock3
  -GOLD-   2272010273D 1   1.00000     0.00000
 Structure written by MMmdl.
 46 47  0  0  0  0  0  0  0  0  1 V2000
  152.0724  145.6223  159.1868 C   0  0  0  0  0  0  0  0  0  0  0  0
  152.1966  144.2051  158.6178 C   0  0  1  0  0  0  0  0  0  0  0  0
  152.6312  143.1870  159.6891 C   0  0  0  0  0  0  0  0  0  0  0  0
  152.6193  141.8310  159.1470 N   0  0  0  0  0  0  0  0  0  0  0  0
  153.2683  140.8025  159.8686 C   0  0  0  0  0  0  0  0  0  0  0  0
  154.1620  141.0736  160.9358 C   0  0  0  0  0  0  0  0  0  0  0  0
  154.7809  140.0025  161.6089 C   0  0  0  0  0  0  0  0  0  0  0  0
  154.4912  138.6785  161.2060 C   0  0  0  0  0  0  0  0  0  0  0  0
  155.0562  137.5109  161.7871 N   0  0  0  0  0  0  0  0  0  0  0  0
  154.7850  136.2172  161.5314 C   0  0  0  0  0  0  0  0  0  0  0  0
  153.9583  135.8256  160.7082 O   0  0  0  0  0  0  0  0  0  0  0  0
  155.6014  135.1980  162.3382 C   0  0  1  0  0  0  0  0  0  0  0  0
  157.1016  135.2821  162.0126 C   0  0  0  0  0  0  0  0  0  0  0  0
  155.3339  135.4613  164.1544 S   0  0  0  0  0  0  0  0  0  0  0  0
  154.5259  133.8944  164.6903 C   0  0  0  0  0  0  0  0  0  0  0  0
  156.6529  135.5413  164.8003 O   0  0  0  0  0  0  0  0  0  0  0  0
  154.3721  136.5581  164.3431 O   0  0  0  0  0  0  0  0  0  0  0  0
  153.6023  138.5083  160.1271 C   0  0  0  0  0  0  0  0  0  0  0  0
  153.0069  139.5310  159.4808 N   0  0  0  0  0  0  0  0  0  0  0  0
  151.3707  141.4746  158.4733 C   0  0  0  0  0  0  0  0  0  0  0  0
  150.9766  142.5526  157.4464 C   0  0  1  0  0  0  0  0  0  0  0  0
  149.6034  142.2772  156.8246 C   0  0  0  0  0  0  0  0  0  0  0  0
  150.9301  143.8216  158.0913 O   0  0  0  0  0  0  0  0  0  0  0  0
  153.0226  145.9654  159.5968 H   0  0  0  0  0  0  0  0  0  0  0  0
  151.3289  145.6641  159.9832 H   0  0  0  0  0  0  0  0  0  0  0  0
  151.7710  146.3275  158.4118 H   0  0  0  0  0  0  0  0  0  0  0  0
  152.9301  144.2214  157.8096 H   0  0  0  0  0  0  0  0  0  0  0  0
  153.6329  143.4490  160.0307 H   0  0  0  0  0  0  0  0  0  0  0  0
  151.9642  143.2336  160.5510 H   0  0  0  0  0  0  0  0  0  0  0  0
  154.3844  142.0789  161.2596 H   0  0  0  0  0  0  0  0  0  0  0  0
  155.4695  140.2243  162.4087 H   0  0  0  0  0  0  0  0  0  0  0  0
  155.8021  137.6805  162.4463 H   0  0  0  0  0  0  0  0  0  0  0  0
  155.2530  134.1908  162.1065 H   0  0  0  0  0  0  0  0  0  0  0  0
  157.2830  135.1582  160.9445 H   0  0  0  0  0  0  0  0  0  0  0  0
  157.6554  134.4997  162.5316 H   0  0  0  0  0  0  0  0  0  0  0  0
  157.5252  136.2403  162.3167 H   0  0  0  0  0  0  0  0  0  0  0  0
  154.4025  133.9071  165.7731 H   0  0  0  0  0  0  0  0  0  0  0  0
  155.1481  133.0453  164.4090 H   0  0  0  0  0  0  0  0  0  0  0  0
  153.5456  133.8022  164.2234 H   0  0  0  0  0  0  0  0  0  0  0  0
  153.3559  137.5188  159.7705 H   0  0  0  0  0  0  0  0  0  0  0  0
  151.4506  140.5179  157.9571 H   0  0  0  0  0  0  0  0  0  0  0  0
  150.5886  141.3661  159.2257 H   0  0  0  0  0  0  0  0  0  0  0  0
  151.7177  142.5842  156.6457 H   0  0  0  0  0  0  0  0  0  0  0  0
  149.5935  141.3182  156.3059 H   0  0  0  0  0  0  0  0  0  0  0  0
  149.3413  143.0490  156.1006 H   0  0  0  0  0  0  0  0  0  0  0  0
  148.8226  142.2550  157.5854 H   0  0  0  0  0  0  0  0  0  0  0  0
  1  2  1  0  0  0  0
  1 24  1  0  0  0  0
  1 25  1  0  0  0  0
  1 26  1  0  0  0  0
  2 23  1  0  0  0  0
  2  3  1  0  0  0  0
  2 27  1  0  0  0  0
  3  4  1  0  0  0  0
  3 28  1  0  0  0  0
  3 29  1  0  0  0  0
  4  5  1  0  0  0  0
  4 20  1  0  0  0  0
  5 19  1  0  0  0  0
  5  6  2  0  0  0  0
  6  7  1  0  0  0  0
  6 30  1  0  0  0  0
  7  8  2  0  0  0  0
  7 31  1  0  0  0  0
  8  9  1  0  0  0  0
  8 18  1  0  0  0  0
  9 10  1  0  0  0  0
  9 32  1  0  0  0  0
 10 11  2  0  0  0  0
 10 12  1  0  0  0  0
 12 13  1  0  0  0  0
 12 14  1  0  0  0  0
 12 33  1  0  0  0  0
 13 34  1  0  0  0  0
 13 35  1  0  0  0  0
 13 36  1  0  0  0  0
 14 15  1  0  0  0  0
 14 16  2  0  0  0  0
 14 17  2  0  0  0  0
 15 37  1  0  0  0  0
 15 38  1  0  0  0  0
 15 39  1  0  0  0  0
 18 19  2  0  0  0  0
 18 40  1  0  0  0  0
 20 21  1  0  0  0  0
 20 41  1  0  0  0  0
 20 42  1  0  0  0  0
 21 22  1  0  0  0  0
 21 23  1  0  0  0  0
 21 43  1  0  0  0  0
 22 44  1  0  0  0  0
 22 45  1  0  0  0  0
 22 46  1  0  0  0  0
M  END
> <s_m_source_file>
AV-unprocessed.smi

> <i_m_source_file_index>
1990

> <i_lp_mmshare_version>
43012

> <i_f3d_flags>
0

> <s_epik_input>
W0NIM11bQ0BASF0xW0NIMl1OKFtDSDJdW0NASF0oTzEpW0NIM10pYzJbY0hdW2NIXWMoW2NIXW4yKVtOSF1DKD1PKVtDQEhdKFtDSDNdKVMoPU8pKD1PKVtDSDNd

> <s_epik_cmdline>
J2VwaWtfcHl0aG9uJywgJy1waCcsICc3LjAnLCAnLXRuJywgJzgnLCAnLW1hJywgJzIwMCcsICctbWV0YWxfYmluZGluZycsICctaW1hZScsICc8aW5maWxlLm1hZT4nLCAnLW9tYWUnLCAnPG91dGZpbGUubWFlPic=

> <r_lp_tautomer_probability>
1

> <r_epik_Ionization_Penalty>
0.000334888

> <r_epik_Ionization_Penalty_Charging>
0

> <r_epik_Ionization_Penalty_Neutral>
0.000334888

> <r_epik_State_Penalty>
0.000200905

> <r_epik_Charging_Adjusted_Penalty>
0.000200905

> <i_epik_Tot_Q>
0

> <i_epik_Tot_abs_Q>
0

> <r_epik_Metal_State_Penalty>
-0

> <b_epik_Metal_Only>
0

> <s_lp_Force_Field>
OPLS_2005

> <r_lp_Energy>
18.0691

> <b_lp_Chiralities_Consistent>
1

> <s_lp_Variant>
AV-unprocessed.smi:1990-4

> <Gold.Version>
5.8.1

> <Gold.Id.Protein>
6NUR|6NUR_protein|mol2

> <Gold.PLP.Fitness>
41.6366

> <Gold.PLP.PLP>
-39.2315

> <Gold.PLP.part.hbond>
-1.0000

> <Gold.PLP.part.metal>
0.0000

> <Gold.PLP.part.buried>
-3.3849

> <Gold.PLP.part.nonpolar>
-34.7027

> <Gold.PLP.part.repulsive>
0.3290

> <Gold.PLP.ligand.clash>
0.0000

> <Gold.PLP.ligand.torsion>
0.6036

> <Gold.PLP.Chemscore.Hbond>
1.0000

> <Gold.PLP.Chemscore.CHOScore>
0.0000

> <Gold.PLP.Chemscore.Metal>
0.0000

> <Gold.Chemscore.Hbonds>
donor molecule, donor type, donor heavy atom, donor atom, acceptor molecule, acceptor atom, score
      P1  H  6896  6907       L1    11  1.00

> <Gold.PLP.Chemscore.Internal.Correction>
0.6123

> <Gold.Rescore>
     Score         DG    S(hbond)    S(metal)    S(lipo)     H(rot)  DE(clash)    DE(int)     intcor
     13.35     -16.68       0.98        0.00     101.01       1.52       0.11       3.21       ----

> <Gold.Chemscore.Fitness>
13.3548

> <Gold.Chemscore.DG>
-16.6789

> <Gold.Chemscore.ZeroCoef>
-5.4800

> <Gold.Chemscore.Hbond>
0.9779

> <Gold.Chemscore.Metal>
0.0000

> <Gold.Chemscore.Lipo>
101.0081

> <Gold.Chemscore.Internal_Hbond>
0.0000

> <Gold.Chemscore.DEClash>
0.1103

> <Gold.Chemscore.DEInternal>
3.2139

> <Gold.Chemscore.Rot>
1.5177

> <Gold.Chemscore.Internal.Correction>
   9.000000E+99

> <Gold.Chemscore.Hbonds>
donor molecule, donor type, donor heavy atom, donor atom, acceptor molecule, acceptor atom, score
      P1  H  6896  6907       L1    11  0.95

> <Gold.Chemscore.Hbond.Weighted>
-3.2662

> <Gold.Chemscore.Metal.Weighted>
-0.0000

> <Gold.Chemscore.Lipo.Weighted>
-11.8179

> <Gold.Chemscore.Internal_Hbond.Weighted>
0.0000

> <Gold.Chemscore.DEClash.Weighted>
0.1103

> <Gold.Chemscore.DEInternal.Weighted>
3.2139

> <Gold.Chemscore.Rot.Weighted>
3.8853

> <Gold.Chemscore.Internal.Correction.Weighted>
   9.000000E+99

> <Gold.Protein.RotatedTorsions>
[ 6907 6896 6895 6894 ] final   50.31 input  -60.11 | X-H torsion
[ 7974 7965 7964 7962 ] final  -78.06 input  175.53 | X-H torsion
[ 8008 7997 7996 7995 ] final  113.50 input   59.86 | X-H torsion
[ 10167 10162 10161 10158 ] final  154.87 input  -65.29 | X-H torsion
[ 10718 10713 10712 10709 ] final -124.17 input   66.30 | X-H torsion
[ 10763 10752 10751 10750 ] final  -25.29 input  -60.55 | X-H torsion
[ 11005 11000 10999 10996 ] final   25.32 input  -57.11 | X-H torsion

> <Gold.Protein.ActiveResidues>
 VAL166  LYS551  ARG553  GLY616  TRP617  ASP618  TYR619  PRO620  LYS621  CYS622 
 ASP623  PHE694  ASN695  SER759  ASP760  ASP761  ALA762  ILE779  LEU786  VAL792 
 PHE793  MET794  SER795  GLU796  ALA797  LYS798  CYS799  TRP800  GLU811  SER814 

> <Gold.Protein.RotatedAtoms>
  152.3005  134.7617  160.0358 H   0  0  0  0  0  0  0  0  0  0  0  0  # atno 6907 bound_to 6896
  151.8132  133.3379  159.3570 H   0  0  0  0  0  0  0  0  0  0  0  0  # atno 6908 bound_to 6896
  150.7271  134.5574  159.5869 H   0  0  0  0  0  0  0  0  0  0  0  0  # atno 6909 bound_to 6896
  145.5915  140.9428  143.1290 H   0  0  0  0  0  0  0  0  0  0  0  0  # atno 7974 bound_to 7965
  156.2262  140.2978  156.0073 H   0  0  0  0  0  0  0  0  0  0  0  0  # atno 8008 bound_to 7997
  155.2350  140.0420  157.2984 H   0  0  0  0  0  0  0  0  0  0  0  0  # atno 8009 bound_to 7997
  154.5919  140.2404  155.7917 H   0  0  0  0  0  0  0  0  0  0  0  0  # atno 8010 bound_to 7997
  139.4822  144.5149  151.7967 H   0  0  0  0  0  0  0  0  0  0  0  0  # atno 10167 bound_to 10162
  156.1565  130.6571  150.9988 H   0  0  0  0  0  0  0  0  0  0  0  0  # atno 10718 bound_to 10713
  153.6974  135.6958  153.5073 H   0  0  0  0  0  0  0  0  0  0  0  0  # atno 10763 bound_to 10752
  153.2368  135.4319  155.0654 H   0  0  0  0  0  0  0  0  0  0  0  0  # atno 10764 bound_to 10752
  154.8354  135.3498  154.6514 H   0  0  0  0  0  0  0  0  0  0  0  0  # atno 10765 bound_to 10752
  140.3491  134.2248  155.7682 H   0  0  0  0  0  0  0  0  0  0  0  0  # atno 11005 bound_to 11000
  144.7349  139.7614  143.7333 LP  0  0  0  0  0  0  0  0  0  0  0  0  # atno 17320 bound_to 7965
  146.1643  139.4769  142.9968 LP  0  0  0  0  0  0  0  0  0  0  0  0  # atno 17321 bound_to 7965
  140.4656  144.1660  150.5911 LP  0  0  0  0  0  0  0  0  0  0  0  0  # atno 17342 bound_to 10162
  140.4438  143.2515  151.9438 LP  0  0  0  0  0  0  0  0  0  0  0  0  # atno 17343 bound_to 10162
  157.6699  131.0864  150.7639 LP  0  0  0  0  0  0  0  0  0  0  0  0  # atno 17370 bound_to 10713
  156.7704  130.4827  149.5419 LP  0  0  0  0  0  0  0  0  0  0  0  0  # atno 17371 bound_to 10713
  141.2017  133.7956  157.0427 LP  0  0  0  0  0  0  0  0  0  0  0  0  # atno 17394 bound_to 11000
  140.0718  134.9698  157.1479 LP  0  0  0  0  0  0  0  0  0  0  0  0  # atno 17395 bound_to 11000

$$$$
