AV-unprocessed.smi:270|AV-procd|sdf|2048|dock7
  -GOLD-   2262021273D 1   1.00000     0.00000
 Structure written by MMmdl.
 54 57  0  0  0  0  0  0  0  0  1 V2000
  146.9088  133.1669  152.1873 C   0  0  0  0  0  0  0  0  0  0  0  0
  146.0944  133.3680  150.8998 C   0  0  1  0  0  0  0  0  0  0  0  0
  145.7530  132.0759  150.4027 O   0  0  0  0  0  0  0  0  0  0  0  0
  144.5041  132.1527  149.7388 C   0  0  0  0  0  0  0  0  0  0  0  0
  143.7139  133.0904  150.6380 C   0  0  0  0  0  0  0  0  0  0  0  0
  144.7500  134.1383  151.0346 C   0  0  2  0  0  0  0  0  0  0  0  0
  144.7365  135.1558  150.0464 O   0  0  0  0  0  0  0  0  0  0  0  0
  144.4702  134.8025  152.4086 C   0  0  0  0  0  0  0  0  0  0  0  0
  145.5400  135.6828  152.8545 N   0  0  0  0  0  0  0  0  0  0  0  0
  145.9780  136.8262  152.2263 C   0  0  0  0  0  0  0  0  0  0  0  0
  146.9505  137.4535  152.8287 N   0  0  0  0  0  0  0  0  0  0  0  0
  147.2179  136.6770  153.9505 C   0  0  0  0  0  0  0  0  0  0  0  0
  148.1511  136.7832  155.0234 C   0  0  0  0  0  0  0  0  0  0  0  0
  149.0859  137.8479  155.1732 N   0  0  0  0  0  0  0  0  0  0  0  0
  149.0967  138.8539  154.1213 C   0  0  0  0  0  0  0  0  0  0  0  0
  150.6255  138.8226  154.2194 C   0  0  0  0  0  0  0  0  0  0  0  0
  151.1729  139.8748  154.9988 O   0  0  0  0  0  0  0  0  0  0  0  0
  150.5994  139.9595  156.2936 C   0  0  0  0  0  0  0  0  0  0  0  0
  151.7066  140.2805  157.3044 C   0  0  0  0  0  0  0  0  0  0  0  0
  152.6709  139.5172  157.3748 O   0  0  0  0  0  0  0  0  0  0  0  0
  151.5945  141.3822  158.0828 N   0  0  0  0  0  0  0  0  0  0  0  0
  152.5885  141.7555  159.0942 C   0  0  0  0  0  0  0  0  0  0  0  0
  150.4362  142.2693  157.9448 C   0  0  0  0  0  0  0  0  0  0  0  0
  150.4994  137.5253  155.0200 C   0  0  0  0  0  0  0  0  0  0  0  0
  148.0852  135.8135  155.9750 N   0  0  0  0  0  0  0  0  0  0  0  0
  147.2106  134.8082  155.8792 C   0  0  0  0  0  0  0  0  0  0  0  0
  146.3028  134.5820  154.9297 N   0  0  0  0  0  0  0  0  0  0  0  0
  146.3376  135.5570  153.9788 C   0  0  0  0  0  0  0  0  0  0  0  0
  147.2218  134.1194  152.6149 H   0  0  0  0  0  0  0  0  0  0  0  0
  147.8116  132.5908  151.9838 H   0  0  0  0  0  0  0  0  0  0  0  0
  146.3388  132.6233  152.9411 H   0  0  0  0  0  0  0  0  0  0  0  0
  146.7363  133.8489  150.1590 H   0  0  0  0  0  0  0  0  0  0  0  0
  144.6385  132.5784  148.7432 H   0  0  0  0  0  0  0  0  0  0  0  0
  144.0400  131.1714  149.6383 H   0  0  0  0  0  0  0  0  0  0  0  0
  142.8257  133.5034  150.1575 H   0  0  0  0  0  0  0  0  0  0  0  0
  143.3881  132.5337  151.5169 H   0  0  0  0  0  0  0  0  0  0  0  0
  145.3016  134.8905  149.3370 H   0  0  0  0  0  0  0  0  0  0  0  0
  143.5507  135.3872  152.3720 H   0  0  0  0  0  0  0  0  0  0  0  0
  144.3215  134.0405  153.1745 H   0  0  0  0  0  0  0  0  0  0  0  0
  145.5441  137.1870  151.3049 H   0  0  0  0  0  0  0  0  0  0  0  0
  148.7253  138.4854  153.1640 H   0  0  0  0  0  0  0  0  0  0  0  0
  148.6340  139.7955  154.4175 H   0  0  0  0  0  0  0  0  0  0  0  0
  151.1296  138.6788  153.2625 H   0  0  0  0  0  0  0  0  0  0  0  0
  149.8487  140.7513  156.3112 H   0  0  0  0  0  0  0  0  0  0  0  0
  150.0923  139.0349  156.5710 H   0  0  0  0  0  0  0  0  0  0  0  0
  152.7307  140.9522  159.8174 H   0  0  0  0  0  0  0  0  0  0  0  0
  152.2998  142.6399  159.6620 H   0  0  0  0  0  0  0  0  0  0  0  0
  153.5502  141.9749  158.6295 H   0  0  0  0  0  0  0  0  0  0  0  0
  150.3403  142.6176  156.9153 H   0  0  0  0  0  0  0  0  0  0  0  0
  150.4986  143.1546  158.5775 H   0  0  0  0  0  0  0  0  0  0  0  0
  149.5195  141.7410  158.2106 H   0  0  0  0  0  0  0  0  0  0  0  0
  151.0513  137.5164  155.9602 H   0  0  0  0  0  0  0  0  0  0  0  0
  150.6891  136.6387  154.4128 H   0  0  0  0  0  0  0  0  0  0  0  0
  147.2410  134.0842  156.6800 H   0  0  0  0  0  0  0  0  0  0  0  0
  1  2  1  0  0  0  0
  1 29  1  0  0  0  0
  1 30  1  0  0  0  0
  1 31  1  0  0  0  0
  2  6  1  0  0  0  0
  2  3  1  0  0  0  0
  2 32  1  0  0  0  0
  3  4  1  0  0  0  0
  4  5  1  0  0  0  0
  4 33  1  0  0  0  0
  4 34  1  0  0  0  0
  5  6  1  0  0  0  0
  5 35  1  0  0  0  0
  5 36  1  0  0  0  0
  6  7  1  0  0  0  0
  6  8  1  0  0  0  0
  7 37  1  0  0  0  0
  8  9  1  0  0  0  0
  8 38  1  0  0  0  0
  8 39  1  0  0  0  0
  9 28  1  0  0  0  0
  9 10  1  0  0  0  0
 10 11  2  0  0  0  0
 10 40  1  0  0  0  0
 11 12  1  0  0  0  0
 12 28  2  0  0  0  0
 12 13  1  0  0  0  0
 13 14  1  0  0  0  0
 13 25  2  0  0  0  0
 14 24  1  0  0  0  0
 14 15  1  0  0  0  0
 15 16  1  0  0  0  0
 15 41  1  0  0  0  0
 15 42  1  0  0  0  0
 16 17  1  0  0  0  0
 16 24  1  0  0  0  0
 16 43  1  0  0  0  0
 17 18  1  0  0  0  0
 18 19  1  0  0  0  0
 18 44  1  0  0  0  0
 18 45  1  0  0  0  0
 19 20  2  0  0  0  0
 19 21  1  0  0  0  0
 21 22  1  0  0  0  0
 21 23  1  0  0  0  0
 22 46  1  0  0  0  0
 22 47  1  0  0  0  0
 22 48  1  0  0  0  0
 23 49  1  0  0  0  0
 23 50  1  0  0  0  0
 23 51  1  0  0  0  0
 24 52  1  0  0  0  0
 24 53  1  0  0  0  0
 25 26  1  0  0  0  0
 26 27  2  0  0  0  0
 26 54  1  0  0  0  0
 27 28  1  0  0  0  0
M  END
> <s_m_source_file>
AV-unprocessed.smi

> <i_m_source_file_index>
270

> <i_lp_mmshare_version>
43012

> <i_f3d_flags>
0

> <s_epik_input>
W0NIMl0xW0NIMl1PW0NAQEhdKFtDSDNdKVtDQEBdMShbT0hdKVtDSDJdbihbY0hdbjIpYyhjMjMpbltjSF1uYzNONFtDSDJdW0NIXShbQ0gyXTQpT1tDSDJdQyg9TylOKFtDSDNdKVtDSDNd

> <s_epik_cmdline>
J2VwaWtfcHl0aG9uJywgJy1waCcsICc3LjAnLCAnLXRuJywgJzgnLCAnLW1hJywgJzIwMCcsICctbWV0YWxfYmluZGluZycsICctaW1hZScsICc8aW5maWxlLm1hZT4nLCAnLW9tYWUnLCAnPG91dGZpbGUubWFlPic=

> <r_lp_tautomer_probability>
1

> <r_epik_Ionization_Penalty>
0.00375854

> <r_epik_Ionization_Penalty_Charging>
0

> <r_epik_Ionization_Penalty_Neutral>
0.00375854

> <r_epik_State_Penalty>
-0

> <r_epik_Charging_Adjusted_Penalty>
0

> <i_epik_Tot_Q>
0

> <i_epik_Tot_abs_Q>
0

> <r_epik_Metal_State_Penalty>
-0

> <b_epik_Metal_Only>
0

> <s_lp_Force_Field>
OPLS_2005

> <r_lp_Energy>
53.4022

> <b_lp_Chiralities_Consistent>
1

> <s_lp_Variant>
AV-unprocessed.smi:270-4

> <Gold.Version>
5.8.1

> <Gold.Id.Protein>
6NUR|6NUR_protein|mol2

> <Gold.PLP.Fitness>
43.8906

> <Gold.PLP.PLP>
-34.0723

> <Gold.PLP.part.hbond>
-3.0000

> <Gold.PLP.part.metal>
0.0000

> <Gold.PLP.part.buried>
-2.4584

> <Gold.PLP.part.nonpolar>
-31.1481

> <Gold.PLP.part.repulsive>
3.0396

> <Gold.PLP.ligand.clash>
0.0349

> <Gold.PLP.ligand.torsion>
0.4762

> <Gold.PLP.Chemscore.Hbond>
2.5000

> <Gold.PLP.Chemscore.CHOScore>
1.0000

> <Gold.PLP.Chemscore.Metal>
0.0000

> <Gold.Chemscore.Hbonds>
donor molecule, donor type, donor heavy atom, donor atom, acceptor molecule, acceptor atom, score
      L1  H     7    37       P1  7921  1.00
      P1  H  7989  7998       L1    17  0.65
      P1  H  7997  8009       L1    20  1.00
      L1  C    10    40       P1 10171  0.72

> <Gold.PLP.Chemscore.Internal.Correction>
0.3056

> <Gold.Rescore>
     Score         DG    S(hbond)    S(metal)    S(lipo)     H(rot)  DE(clash)    DE(int)     intcor
      6.04     -14.16       1.98        0.00      86.03       3.12       2.73       5.39       ----

> <Gold.Chemscore.Fitness>
6.0378

> <Gold.Chemscore.DG>
-14.1553

> <Gold.Chemscore.ZeroCoef>
-5.4800

> <Gold.Chemscore.Hbond>
1.9776

> <Gold.Chemscore.Metal>
0.0000

> <Gold.Chemscore.Lipo>
86.0327

> <Gold.Chemscore.Internal_Hbond>
0.0000

> <Gold.Chemscore.DEClash>
2.7301

> <Gold.Chemscore.DEInternal>
5.3874

> <Gold.Chemscore.Rot>
3.1234

> <Gold.Chemscore.Internal.Correction>
   9.000000E+99

> <Gold.Chemscore.Hbonds>
donor molecule, donor type, donor heavy atom, donor atom, acceptor molecule, acceptor atom, score
      L1  H     7    37       P1  7921  1.00
      P1  H  7989  7998       L1    17  0.06
      P1  H  7997  8009       L1    20  0.98

> <Gold.Chemscore.Hbond.Weighted>
-6.6053

> <Gold.Chemscore.Metal.Weighted>
-0.0000

> <Gold.Chemscore.Lipo.Weighted>
-10.0658

> <Gold.Chemscore.Internal_Hbond.Weighted>
0.0000

> <Gold.Chemscore.DEClash.Weighted>
2.7301

> <Gold.Chemscore.DEInternal.Weighted>
5.3874

> <Gold.Chemscore.Rot.Weighted>
7.9959

> <Gold.Chemscore.Internal.Correction.Weighted>
   9.000000E+99

> <Gold.Protein.RotatedTorsions>
[ 6907 6896 6895 6894 ] final   -1.58 input  -60.11 | X-H torsion
[ 7974 7965 7964 7962 ] final   70.24 input  175.53 | X-H torsion
[ 8008 7997 7996 7995 ] final  172.59 input   59.86 | X-H torsion
[ 10167 10162 10161 10158 ] final  -38.40 input  -65.29 | X-H torsion
[ 10718 10713 10712 10709 ] final  148.70 input   66.30 | X-H torsion
[ 10763 10752 10751 10750 ] final  -20.70 input  -60.55 | X-H torsion
[ 11005 11000 10999 10996 ] final  120.86 input  -57.11 | X-H torsion

> <Gold.Protein.ActiveResidues>
 VAL166  LYS551  ARG553  GLY616  TRP617  ASP618  TYR619  PRO620  LYS621  CYS622 
 ASP623  PHE694  ASN695  SER759  ASP760  ASP761  ALA762  ILE779  LEU786  VAL792 
 PHE793  MET794  SER795  GLU796  ALA797  LYS798  CYS799  TRP800  GLU811  SER814 

> <Gold.Protein.RotatedAtoms>
  151.5437  135.1068  159.9932 H   0  0  0  0  0  0  0  0  0  0  0  0  # atno 6907 bound_to 6896
  152.4524  133.7650  159.6778 H   0  0  0  0  0  0  0  0  0  0  0  0  # atno 6908 bound_to 6896
  150.8456  133.7800  159.3069 H   0  0  0  0  0  0  0  0  0  0  0  0  # atno 6909 bound_to 6896
  145.7805  139.2885  143.1268 H   0  0  0  0  0  0  0  0  0  0  0  0  # atno 7974 bound_to 7965
  156.1159  140.1482  156.9273 H   0  0  0  0  0  0  0  0  0  0  0  0  # atno 8008 bound_to 7997
  154.4800  140.0882  156.7398 H   0  0  0  0  0  0  0  0  0  0  0  0  # atno 8009 bound_to 7997
  155.4514  140.3435  155.4303 H   0  0  0  0  0  0  0  0  0  0  0  0  # atno 8010 bound_to 7997
  140.7093  143.3280  151.2636 H   0  0  0  0  0  0  0  0  0  0  0  0  # atno 10167 bound_to 10162
  157.3054  131.0878  151.1358 H   0  0  0  0  0  0  0  0  0  0  0  0  # atno 10718 bound_to 10713
  153.6246  135.6991  153.5298 H   0  0  0  0  0  0  0  0  0  0  0  0  # atno 10763 bound_to 10752
  153.2909  135.4157  155.1166 H   0  0  0  0  0  0  0  0  0  0  0  0  # atno 10764 bound_to 10752
  154.8536  135.3625  154.5787 H   0  0  0  0  0  0  0  0  0  0  0  0  # atno 10765 bound_to 10752
  139.9202  134.9636  156.7871 H   0  0  0  0  0  0  0  0  0  0  0  0  # atno 11005 bound_to 11000
  146.0078  140.8462  142.9986 LP  0  0  0  0  0  0  0  0  0  0  0  0  # atno 17320 bound_to 7965
  144.6797  140.2446  143.7339 LP  0  0  0  0  0  0  0  0  0  0  0  0  # atno 17321 bound_to 7965
  139.6753  143.9948  152.2777 LP  0  0  0  0  0  0  0  0  0  0  0  0  # atno 17342 bound_to 10162
  139.9560  144.6589  150.8125 LP  0  0  0  0  0  0  0  0  0  0  0  0  # atno 17343 bound_to 10162
  157.2701  130.6700  149.6015 LP  0  0  0  0  0  0  0  0  0  0  0  0  # atno 17370 bound_to 10713
  155.9674  130.4482  150.5609 LP  0  0  0  0  0  0  0  0  0  0  0  0  # atno 17371 bound_to 10713
  140.6497  133.9742  155.7749 LP  0  0  0  0  0  0  0  0  0  0  0  0  # atno 17394 bound_to 11000
  141.0716  134.0197  157.3518 LP  0  0  0  0  0  0  0  0  0  0  0  0  # atno 17395 bound_to 11000

$$$$
