AV-unprocessed.smi:224|AV-procd|sdf|1712|dock3
  -GOLD-   2262020183D 1   1.00000     0.00000
 Structure written by MMmdl.
 56 59  0  0  0  0  0  0  0  0  2 V2000
  145.5310  131.8263  149.8639 C   0  0  0  0  0  0  0  0  0  0  0  0
  144.1838  132.5582  149.8110 C   0  0  1  0  0  0  0  0  0  0  0  0
  143.2648  131.7405  149.1154 O   0  0  0  0  0  0  0  0  0  0  0  0
  143.6259  132.8550  151.2143 C   0  0  0  0  0  0  0  0  0  0  0  0
  143.4429  134.3185  151.4257 N   0  3  2  0  0  0  0  0  0  0  0  0
  144.7110  135.0548  151.1596 C   0  0  0  0  0  0  0  0  0  0  0  0
  144.5636  136.5737  151.3524 C   0  0  0  0  0  0  0  0  0  0  0  0
  143.9842  136.8836  152.6551 N   0  0  0  0  0  0  0  0  0  0  0  0
  144.7959  137.0092  153.7404 C   0  0  0  0  0  0  0  0  0  0  0  0
  144.5488  136.2745  154.8580 N   0  0  0  0  0  0  0  0  0  0  0  0
  145.3178  136.4067  155.9423 C   0  0  0  0  0  0  0  0  0  0  0  0
  146.3714  137.2033  156.1239 N   0  0  0  0  0  0  0  0  0  0  0  0
  146.6389  137.9320  155.0032 C   0  0  0  0  0  0  0  0  0  0  0  0
  145.9151  137.8910  153.7774 C   0  0  0  0  0  0  0  0  0  0  0  0
  146.5009  138.7544  152.8582 N   0  0  0  0  0  0  0  0  0  0  0  0
  147.4983  139.2883  153.5084 C   0  0  0  0  0  0  0  0  0  0  0  0
  147.6446  138.8624  154.8087 N   0  0  0  0  0  0  0  0  0  0  0  0
  148.6499  139.3012  155.7639 C   0  0  0  0  0  0  0  0  0  0  0  0
  150.0762  139.3509  155.1673 C   0  0  2  0  0  0  0  0  0  0  0  0
  150.1640  140.4401  154.2647 O   0  0  0  0  0  0  0  0  0  0  0  0
  150.4878  138.0789  154.4302 C   0  0  0  0  0  0  0  0  0  0  0  0
  151.9875  138.0106  154.6809 C   0  0  0  0  0  0  0  0  0  0  0  0
  152.0907  138.4353  156.0288 O   0  0  0  0  0  0  0  0  0  0  0  0
  151.1790  139.5100  156.2328 C   0  0  0  0  0  0  0  0  0  0  0  0
  142.7029  136.2251  152.8770 C   0  0  0  0  0  0  0  0  0  0  0  0
  142.8081  134.6897  152.7301 C   0  0  1  0  0  0  0  0  0  0  0  0
  141.3901  134.1018  152.8889 C   0  0  0  0  0  0  0  0  0  0  0  0
  146.2842  132.4294  150.3717 H   0  0  0  0  0  0  0  0  0  0  0  0
  145.9024  131.6137  148.8607 H   0  0  0  0  0  0  0  0  0  0  0  0
  145.4500  130.8784  150.3973 H   0  0  0  0  0  0  0  0  0  0  0  0
  144.3103  133.4846  149.2504 H   0  0  0  0  0  0  0  0  0  0  0  0
  142.4474  131.7300  149.5902 H   0  0  0  0  0  0  0  0  0  0  0  0
  142.7046  132.2934  151.3483 H   0  0  0  0  0  0  0  0  0  0  0  0
  144.2998  132.4589  151.9756 H   0  0  0  0  0  0  0  0  0  0  0  0
  145.4890  134.6758  151.8234 H   0  0  0  0  0  0  0  0  0  0  0  0
  145.0491  134.8539  150.1431 H   0  0  0  0  0  0  0  0  0  0  0  0
  145.5226  137.0765  151.2209 H   0  0  0  0  0  0  0  0  0  0  0  0
  143.9042  136.9774  150.5830 H   0  0  0  0  0  0  0  0  0  0  0  0
  145.0473  135.7898  156.7866 H   0  0  0  0  0  0  0  0  0  0  0  0
  148.1539  140.0181  153.0558 H   0  0  0  0  0  0  0  0  0  0  0  0
  148.3636  140.2837  156.1416 H   0  0  0  0  0  0  0  0  0  0  0  0
  148.6232  138.6253  156.6196 H   0  0  0  0  0  0  0  0  0  0  0  0
  149.4932  141.0676  154.4862 H   0  0  0  0  0  0  0  0  0  0  0  0
  150.0187  137.2083  154.8898 H   0  0  0  0  0  0  0  0  0  0  0  0
  150.2263  138.0769  153.3712 H   0  0  0  0  0  0  0  0  0  0  0  0
  152.3953  137.0095  154.5401 H   0  0  0  0  0  0  0  0  0  0  0  0
  152.5280  138.7011  154.0317 H   0  0  0  0  0  0  0  0  0  0  0  0
  151.7092  140.4589  156.1360 H   0  0  0  0  0  0  0  0  0  0  0  0
  150.7870  139.4583  157.2489 H   0  0  0  0  0  0  0  0  0  0  0  0
  142.2862  136.4704  153.8523 H   0  0  0  0  0  0  0  0  0  0  0  0
  141.9961  136.6176  152.1448 H   0  0  0  0  0  0  0  0  0  0  0  0
  143.4399  134.3081  153.5341 H   0  0  0  0  0  0  0  0  0  0  0  0
  140.9056  134.5000  153.7808 H   0  0  0  0  0  0  0  0  0  0  0  0
  141.3832  133.0193  153.0020 H   0  0  0  0  0  0  0  0  0  0  0  0
  140.7593  134.3543  152.0357 H   0  0  0  0  0  0  0  0  0  0  0  0
  142.7857  134.6202  150.7200 H   0  0  0  0  0  0  0  0  0  0  0  0
  1  2  1  0  0  0  0
  1 28  1  0  0  0  0
  1 29  1  0  0  0  0
  1 30  1  0  0  0  0
  2  3  1  0  0  0  0
  2  4  1  0  0  0  0
  2 31  1  0  0  0  0
  3 32  1  0  0  0  0
  4  5  1  0  0  0  0
  4 33  1  0  0  0  0
  4 34  1  0  0  0  0
  5 26  1  0  0  0  0
  5  6  1  0  0  0  0
  5 56  1  0  0  0  0
  6  7  1  0  0  0  0
  6 35  1  0  0  0  0
  6 36  1  0  0  0  0
  7  8  1  0  0  0  0
  7 37  1  0  0  0  0
  7 38  1  0  0  0  0
  8  9  1  0  0  0  0
  8 25  1  0  0  0  0
  9 14  1  0  0  0  0
  9 10  2  0  0  0  0
 10 11  1  0  0  0  0
 11 12  2  0  0  0  0
 11 39  1  0  0  0  0
 12 13  1  0  0  0  0
 13 17  1  0  0  0  0
 13 14  2  0  0  0  0
 14 15  1  0  0  0  0
 15 16  2  0  0  0  0
 16 17  1  0  0  0  0
 16 40  1  0  0  0  0
 17 18  1  0  0  0  0
 18 19  1  0  0  0  0
 18 41  1  0  0  0  0
 18 42  1  0  0  0  0
 19 24  1  0  0  0  0
 19 20  1  0  0  0  0
 19 21  1  0  0  0  0
 20 43  1  0  0  0  0
 21 22  1  0  0  0  0
 21 44  1  0  0  0  0
 21 45  1  0  0  0  0
 22 23  1  0  0  0  0
 22 46  1  0  0  0  0
 22 47  1  0  0  0  0
 23 24  1  0  0  0  0
 24 48  1  0  0  0  0
 24 49  1  0  0  0  0
 25 26  1  0  0  0  0
 25 50  1  0  0  0  0
 25 51  1  0  0  0  0
 26 27  1  0  0  0  0
 26 52  1  0  0  0  0
 27 53  1  0  0  0  0
 27 54  1  0  0  0  0
 27 55  1  0  0  0  0
M  CHG  1   5   1
M  END
> <s_m_source_file>
AV-unprocessed.smi

> <i_m_source_file_index>
224

> <i_lp_mmshare_version>
43012

> <i_f3d_flags>
0

> <s_epik_input>
W0NIM11bQ0BIXShbT0hdKVtDSDJdTjFbQ0gyXVtDSDJdTihbQ0gyXVtDQEhdMVtDSDNdKWMobltjSF1uMiljKGMyMyluW2NIXW4zW0NIMl1bQ0BAXTQoW09IXSlbQ0gyXVtDSDJdT1tDSDJdNA==

> <s_epik_cmdline>
J2VwaWtfcHl0aG9uJywgJy1waCcsICc3LjAnLCAnLXRuJywgJzgnLCAnLW1hJywgJzIwMCcsICctbWV0YWxfYmluZGluZycsICctaW1hZScsICc8aW5maWxlLm1hZT4nLCAnLW9tYWUnLCAnPG91dGZpbGUubWFlPic=

> <r_lp_tautomer_probability>
1

> <r_epik_Ionization_Penalty>
0.00516958

> <r_epik_Ionization_Penalty_Charging>
0.00509693

> <r_epik_Ionization_Penalty_Neutral>
7.26542e-05

> <r_epik_State_Penalty>
-0

> <r_epik_Charging_Adjusted_Penalty>
0.00509693

> <i_epik_Tot_Q>
1

> <i_epik_Tot_abs_Q>
1

> <r_epik_Metal_State_Penalty>
-0

> <b_epik_Metal_Only>
0

> <s_lp_Force_Field>
OPLS_2005

> <r_lp_Energy>
47.1484

> <b_lp_Chiralities_Consistent>
1

> <s_lp_Variant>
AV-unprocessed.smi:224-6

> <Gold.Version>
5.8.1

> <Gold.Id.Protein>
6NUR|6NUR_protein|mol2

> <Gold.PLP.Fitness>
52.2853

> <Gold.PLP.PLP>
-39.1911

> <Gold.PLP.part.hbond>
-4.5952

> <Gold.PLP.part.metal>
0.0000

> <Gold.PLP.part.buried>
-3.4622

> <Gold.PLP.part.nonpolar>
-32.8360

> <Gold.PLP.part.repulsive>
0.4817

> <Gold.PLP.ligand.clash>
0.0000

> <Gold.PLP.ligand.torsion>
1.2644

> <Gold.PLP.Chemscore.Hbond>
4.0329

> <Gold.PLP.Chemscore.CHOScore>
1.0000

> <Gold.PLP.Chemscore.Metal>
0.0000

> <Gold.Chemscore.Hbonds>
donor molecule, donor type, donor heavy atom, donor atom, acceptor molecule, acceptor atom, score
      L1  H     3    32       P1 10952  0.48
      L1  H     5    56       P1 10186  1.45
      P1  H  7989  7998       L1    20  0.88
      P1  H 10785 10796       L1     3  0.70
      L1  C    16    40       P1  7957  1.00

> <Gold.PLP.Chemscore.Internal.Correction>
0.5245

> <Gold.Rescore>
     Score         DG    S(hbond)    S(metal)    S(lipo)     H(rot)  DE(clash)    DE(int)     intcor
     12.53     -15.04       2.18        0.00      93.05       3.36       1.05       1.46       ----

> <Gold.Chemscore.Fitness>
12.5331

> <Gold.Chemscore.DG>
-15.0374

> <Gold.Chemscore.ZeroCoef>
-5.4800

> <Gold.Chemscore.Hbond>
2.1780

> <Gold.Chemscore.Metal>
0.0000

> <Gold.Chemscore.Lipo>
93.0532

> <Gold.Chemscore.Internal_Hbond>
0.0000

> <Gold.Chemscore.DEClash>
1.0485

> <Gold.Chemscore.DEInternal>
1.4558

> <Gold.Chemscore.Rot>
3.3611

> <Gold.Chemscore.Internal.Correction>
   9.000000E+99

> <Gold.Chemscore.Hbonds>
donor molecule, donor type, donor heavy atom, donor atom, acceptor molecule, acceptor atom, score
      L1  H     3    32       P1 10952  0.48
      L1  H     5    56       P1 10186  0.16
      P1  H  7989  7998       L1    20  0.85
      P1  H 10785 10796       L1     3  0.07

> <Gold.Chemscore.Hbond.Weighted>
-7.2746

> <Gold.Chemscore.Metal.Weighted>
-0.0000

> <Gold.Chemscore.Lipo.Weighted>
-10.8872

> <Gold.Chemscore.Internal_Hbond.Weighted>
0.0000

> <Gold.Chemscore.DEClash.Weighted>
1.0485

> <Gold.Chemscore.DEInternal.Weighted>
1.4558

> <Gold.Chemscore.Rot.Weighted>
8.6045

> <Gold.Chemscore.Internal.Correction.Weighted>
   9.000000E+99

> <Gold.Protein.RotatedTorsions>
[ 6907 6896 6895 6894 ] final -120.59 input  -60.11 | X-H torsion
[ 7974 7965 7964 7962 ] final  153.56 input  175.53 | X-H torsion
[ 8008 7997 7996 7995 ] final  -12.48 input   59.86 | X-H torsion
[ 10167 10162 10161 10158 ] final  -74.38 input  -65.29 | X-H torsion
[ 10718 10713 10712 10709 ] final  137.99 input   66.30 | X-H torsion
[ 10763 10752 10751 10750 ] final  -44.84 input  -60.55 | X-H torsion
[ 11005 11000 10999 10996 ] final   23.93 input  -57.11 | X-H torsion

> <Gold.Protein.ActiveResidues>
 VAL166  LYS551  ARG553  GLY616  TRP617  ASP618  TYR619  PRO620  LYS621  CYS622 
 ASP623  PHE694  ASN695  SER759  ASP760  ASP761  ALA762  ILE779  LEU786  VAL792 
 PHE793  MET794  SER795  GLU796  ALA797  LYS798  CYS799  TRP800  GLU811  SER814 

> <Gold.Protein.RotatedAtoms>
  150.8407  133.7940  159.3061 H   0  0  0  0  0  0  0  0  0  0  0  0  # atno 6907 bound_to 6896
  151.5642  135.1063  159.9989 H   0  0  0  0  0  0  0  0  0  0  0  0  # atno 6908 bound_to 6896
  152.4471  133.7515  159.6753 H   0  0  0  0  0  0  0  0  0  0  0  0  # atno 6909 bound_to 6896
  144.8146  139.6817  143.6127 H   0  0  0  0  0  0  0  0  0  0  0  0  # atno 7974 bound_to 7965
  154.5374  140.2275  155.8700 H   0  0  0  0  0  0  0  0  0  0  0  0  # atno 8008 bound_to 7997
  156.1825  140.3097  155.9137 H   0  0  0  0  0  0  0  0  0  0  0  0  # atno 8009 bound_to 7997
  155.3327  140.0446  157.3033 H   0  0  0  0  0  0  0  0  0  0  0  0  # atno 8010 bound_to 7997
  140.5032  143.2357  151.7718 H   0  0  0  0  0  0  0  0  0  0  0  0  # atno 10167 bound_to 10162
  157.4301  131.1047  151.0259 H   0  0  0  0  0  0  0  0  0  0  0  0  # atno 10718 bound_to 10713
  154.0188  135.6672  153.4771 H   0  0  0  0  0  0  0  0  0  0  0  0  # atno 10763 bound_to 10752
  153.0589  135.5039  154.8043 H   0  0  0  0  0  0  0  0  0  0  0  0  # atno 10764 bound_to 10752
  154.6950  135.3068  154.9388 H   0  0  0  0  0  0  0  0  0  0  0  0  # atno 10765 bound_to 10752
  140.3642  134.2092  155.7670 H   0  0  0  0  0  0  0  0  0  0  0  0  # atno 11005 bound_to 11000
  146.2448  139.6076  142.9467 LP  0  0  0  0  0  0  0  0  0  0  0  0  # atno 17320 bound_to 7965
  145.5243  141.0430  143.2418 LP  0  0  0  0  0  0  0  0  0  0  0  0  # atno 17321 bound_to 7965
  139.4877  144.4494  151.9672 LP  0  0  0  0  0  0  0  0  0  0  0  0  # atno 17342 bound_to 10162
  140.3583  144.3004  150.5937 LP  0  0  0  0  0  0  0  0  0  0  0  0  # atno 17343 bound_to 10162
  157.1159  130.6041  149.5493 LP  0  0  0  0  0  0  0  0  0  0  0  0  # atno 17370 bound_to 10713
  155.9910  130.4963  150.7282 LP  0  0  0  0  0  0  0  0  0  0  0  0  # atno 17371 bound_to 10713
  141.1975  133.8058  157.0626 LP  0  0  0  0  0  0  0  0  0  0  0  0  # atno 17394 bound_to 11000
  140.0602  134.9759  157.1292 LP  0  0  0  0  0  0  0  0  0  0  0  0  # atno 17395 bound_to 11000

$$$$
