AV-unprocessed.smi:2088|AV-procd|sdf|8527|dock3
  -GOLD-   2272011243D 1   1.00000     0.00000
 Structure written by MMmdl.
 33 34  0  0  0  0  0  0  0  0  1 V2000
  150.2065  139.8897  156.0494 O   0  0  0  0  0  0  0  0  0  0  0  0
  149.8426  141.0313  155.7686 C   0  0  0  0  0  0  0  0  0  0  0  0
  149.1149  141.2987  154.4520 C   0  0  0  0  0  0  0  0  0  0  0  0
  147.8043  141.8686  154.7068 N   0  0  0  0  0  0  0  0  0  0  0  0
  146.8499  142.2622  153.7937 C   0  0  0  0  0  0  0  0  0  0  0  0
  145.7708  142.7066  154.5020 C   0  0  0  0  0  0  0  0  0  0  0  0
  146.1580  142.5440  155.8641 C   0  0  0  0  0  0  0  0  0  0  0  0
  145.3655  142.8584  157.1054 C   0  0  0  0  0  0  0  0  0  0  0  0
  144.2615  142.1128  157.1510 F   0  0  0  0  0  0  0  0  0  0  0  0
  146.0997  142.6040  158.1886 F   0  0  0  0  0  0  0  0  0  0  0  0
  145.0154  144.1446  157.1092 F   0  0  0  0  0  0  0  0  0  0  0  0
  147.3811  142.0436  155.9775 N   0  0  0  0  0  0  0  0  0  0  0  0
  150.0128  142.0886  156.5774 N   0  0  0  0  0  0  0  0  0  0  0  0
  150.5367  142.0384  157.9376 C   0  0  0  0  0  0  0  0  0  0  0  0
  151.6517  143.0786  158.1379 C   0  0  1  0  0  0  0  0  0  0  0  0
  151.1963  144.5379  158.0825 C   0  0  0  0  0  0  0  0  0  0  0  0
  152.2830  145.2230  158.8776 C   0  0  0  0  0  0  0  0  0  0  0  0
  152.5477  144.2040  159.9825 C   0  0  0  0  0  0  0  0  0  0  0  0
  152.2476  142.9272  159.4235 O   0  0  0  0  0  0  0  0  0  0  0  0
  149.6942  141.9780  153.8245 H   0  0  0  0  0  0  0  0  0  0  0  0
  148.9938  140.3680  153.8962 H   0  0  0  0  0  0  0  0  0  0  0  0
  147.0143  142.1874  152.7288 H   0  0  0  0  0  0  0  0  0  0  0  0
  144.8404  143.0862  154.1067 H   0  0  0  0  0  0  0  0  0  0  0  0
  149.6815  142.9858  156.2532 H   0  0  0  0  0  0  0  0  0  0  0  0
  149.7449  142.1823  158.6743 H   0  0  0  0  0  0  0  0  0  0  0  0
  150.9353  141.0383  158.1092 H   0  0  0  0  0  0  0  0  0  0  0  0
  152.4373  142.9252  157.3959 H   0  0  0  0  0  0  0  0  0  0  0  0
  151.1052  144.9185  157.0644 H   0  0  0  0  0  0  0  0  0  0  0  0
  150.2343  144.6609  158.5824 H   0  0  0  0  0  0  0  0  0  0  0  0
  153.1736  145.3503  158.2608 H   0  0  0  0  0  0  0  0  0  0  0  0
  151.9871  146.2007  159.2592 H   0  0  0  0  0  0  0  0  0  0  0  0
  153.5734  144.2470  160.3490 H   0  0  0  0  0  0  0  0  0  0  0  0
  151.8792  144.3759  160.8266 H   0  0  0  0  0  0  0  0  0  0  0  0
  1  2  2  0  0  0  0
  2  3  1  0  0  0  0
  2 13  1  0  0  0  0
  3  4  1  0  0  0  0
  3 20  1  0  0  0  0
  3 21  1  0  0  0  0
  4 12  1  0  0  0  0
  4  5  1  0  0  0  0
  5  6  2  0  0  0  0
  5 22  1  0  0  0  0
  6  7  1  0  0  0  0
  6 23  1  0  0  0  0
  7  8  1  0  0  0  0
  7 12  2  0  0  0  0
  8  9  1  0  0  0  0
  8 10  1  0  0  0  0
  8 11  1  0  0  0  0
 13 14  1  0  0  0  0
 13 24  1  0  0  0  0
 14 15  1  0  0  0  0
 14 25  1  0  0  0  0
 14 26  1  0  0  0  0
 15 19  1  0  0  0  0
 15 16  1  0  0  0  0
 15 27  1  0  0  0  0
 16 17  1  0  0  0  0
 16 28  1  0  0  0  0
 16 29  1  0  0  0  0
 17 18  1  0  0  0  0
 17 30  1  0  0  0  0
 17 31  1  0  0  0  0
 18 19  1  0  0  0  0
 18 32  1  0  0  0  0
 18 33  1  0  0  0  0
M  END
> <s_m_source_file>
AV-unprocessed.smi

> <i_m_source_file_index>
2088

> <i_lp_mmshare_version>
43012

> <i_f3d_flags>
0

> <s_epik_input>
TzFbQ0gyXVtDSDJdW0NIMl1bQ0BIXTFbQ0gyXVtOSF1DKD1PKVtDSDJdbjJbY0hdW2NIXWMobjIpQyhGKShGKUY=

> <s_epik_cmdline>
J2VwaWtfcHl0aG9uJywgJy1waCcsICc3LjAnLCAnLXRuJywgJzgnLCAnLW1hJywgJzIwMCcsICctbWV0YWxfYmluZGluZycsICctaW1hZScsICc8aW5maWxlLm1hZT4nLCAnLW9tYWUnLCAnPG91dGZpbGUubWFlPic=

> <r_lp_tautomer_probability>
1

> <r_epik_Ionization_Penalty>
2.25732e-07

> <r_epik_Ionization_Penalty_Charging>
0

> <r_epik_Ionization_Penalty_Neutral>
2.25732e-07

> <r_epik_State_Penalty>
-0

> <r_epik_Charging_Adjusted_Penalty>
0

> <i_epik_Tot_Q>
0

> <i_epik_Tot_abs_Q>
0

> <r_epik_Metal_State_Penalty>
-0

> <b_epik_Metal_Only>
0

> <s_lp_Force_Field>
OPLS_2005

> <r_lp_Energy>
19.1857

> <b_lp_Chiralities_Consistent>
1

> <s_lp_Variant>
AV-unprocessed.smi:2088-2

> <Gold.Version>
5.8.1

> <Gold.Id.Protein>
6NUR|6NUR_protein|mol2

> <Gold.PLP.Fitness>
39.8206

> <Gold.PLP.PLP>
-36.9667

> <Gold.PLP.part.hbond>
-1.0000

> <Gold.PLP.part.metal>
0.0000

> <Gold.PLP.part.buried>
-5.1809

> <Gold.PLP.part.nonpolar>
-30.7245

> <Gold.PLP.part.repulsive>
0.5541

> <Gold.PLP.ligand.clash>
0.0000

> <Gold.PLP.ligand.torsion>
0.0951

> <Gold.PLP.Chemscore.Hbond>
1.0000

> <Gold.PLP.Chemscore.CHOScore>
0.0000

> <Gold.PLP.Chemscore.Metal>
0.0000

> <Gold.Chemscore.Hbonds>
donor molecule, donor type, donor heavy atom, donor atom, acceptor molecule, acceptor atom, score
      L1  H    13    24       P1  8028  1.00

> <Gold.PLP.Chemscore.Internal.Correction>
0.0442

> <Gold.Rescore>
     Score         DG    S(hbond)    S(metal)    S(lipo)     H(rot)  DE(clash)    DE(int)     intcor
     13.57     -13.65       1.00        0.00      82.72       1.89       0.02       0.06       ----

> <Gold.Chemscore.Fitness>
13.5667

> <Gold.Chemscore.DG>
-13.6485

> <Gold.Chemscore.ZeroCoef>
-5.4800

> <Gold.Chemscore.Hbond>
0.9988

> <Gold.Chemscore.Metal>
0.0000

> <Gold.Chemscore.Lipo>
82.7172

> <Gold.Chemscore.Internal_Hbond>
0.0000

> <Gold.Chemscore.DEClash>
0.0189

> <Gold.Chemscore.DEInternal>
0.0630

> <Gold.Chemscore.Rot>
1.8928

> <Gold.Chemscore.Internal.Correction>
   9.000000E+99

> <Gold.Chemscore.Hbonds>
donor molecule, donor type, donor heavy atom, donor atom, acceptor molecule, acceptor atom, score
      L1  H    13    24       P1  8028  0.96

> <Gold.Chemscore.Hbond.Weighted>
-3.3361

> <Gold.Chemscore.Metal.Weighted>
-0.0000

> <Gold.Chemscore.Lipo.Weighted>
-9.6779

> <Gold.Chemscore.Internal_Hbond.Weighted>
0.0000

> <Gold.Chemscore.DEClash.Weighted>
0.0189

> <Gold.Chemscore.DEInternal.Weighted>
0.0630

> <Gold.Chemscore.Rot.Weighted>
4.8455

> <Gold.Chemscore.Internal.Correction.Weighted>
   9.000000E+99

> <Gold.Protein.RotatedTorsions>
[ 6907 6896 6895 6894 ] final  165.61 input  -60.11 | X-H torsion
[ 7974 7965 7964 7962 ] final  -91.94 input  175.53 | X-H torsion
[ 8008 7997 7996 7995 ] final  -30.77 input   59.86 | X-H torsion
[ 10167 10162 10161 10158 ] final  157.50 input  -65.29 | X-H torsion
[ 10718 10713 10712 10709 ] final -137.20 input   66.30 | X-H torsion
[ 10763 10752 10751 10750 ] final -153.63 input  -60.55 | X-H torsion
[ 11005 11000 10999 10996 ] final  -71.56 input  -57.11 | X-H torsion

> <Gold.Protein.ActiveResidues>
 VAL166  LYS551  ARG553  GLY616  TRP617  ASP618  TYR619  PRO620  LYS621  CYS622 
 ASP623  PHE694  ASN695  SER759  ASP760  ASP761  ALA762  ILE779  LEU786  VAL792 
 PHE793  MET794  SER795  GLU796  ALA797  LYS798  CYS799  TRP800  GLU811  SER814 

> <Gold.Protein.RotatedAtoms>
  151.8918  133.3518  159.3800 H   0  0  0  0  0  0  0  0  0  0  0  0  # atno 6907 bound_to 6896
  150.7101  134.4916  159.5528 H   0  0  0  0  0  0  0  0  0  0  0  0  # atno 6908 bound_to 6896
  152.2488  134.8154  160.0500 H   0  0  0  0  0  0  0  0  0  0  0  0  # atno 6909 bound_to 6896
  145.4065  140.9541  143.2258 H   0  0  0  0  0  0  0  0  0  0  0  0  # atno 7974 bound_to 7965
  154.4238  140.1782  156.1459 H   0  0  0  0  0  0  0  0  0  0  0  0  # atno 8008 bound_to 7997
  155.9954  140.3365  155.6769 H   0  0  0  0  0  0  0  0  0  0  0  0  # atno 8009 bound_to 7997
  155.6316  140.0670  157.2638 H   0  0  0  0  0  0  0  0  0  0  0  0  # atno 8010 bound_to 7997
  139.4823  144.4912  151.8306 H   0  0  0  0  0  0  0  0  0  0  0  0  # atno 10167 bound_to 10162
  156.2855  130.7345  151.1355 H   0  0  0  0  0  0  0  0  0  0  0  0  # atno 10718 bound_to 10713
  154.7914  135.3208  154.7767 H   0  0  0  0  0  0  0  0  0  0  0  0  # atno 10763 bound_to 10752
  153.8455  135.6867  153.4802 H   0  0  0  0  0  0  0  0  0  0  0  0  # atno 10764 bound_to 10752
  153.1586  135.4670  154.9681 H   0  0  0  0  0  0  0  0  0  0  0  0  # atno 10765 bound_to 10752
  141.1594  133.6821  156.6925 H   0  0  0  0  0  0  0  0  0  0  0  0  # atno 11005 bound_to 11000
  144.8338  139.5584  143.6931 LP  0  0  0  0  0  0  0  0  0  0  0  0  # atno 17320 bound_to 7965
  146.2726  139.6673  142.9285 LP  0  0  0  0  0  0  0  0  0  0  0  0  # atno 17321 bound_to 7965
  140.4396  144.2005  150.5891 LP  0  0  0  0  0  0  0  0  0  0  0  0  # atno 17342 bound_to 10162
  140.4697  143.2418  151.9106 LP  0  0  0  0  0  0  0  0  0  0  0  0  # atno 17343 bound_to 10162
  157.7327  131.0597  150.5614 LP  0  0  0  0  0  0  0  0  0  0  0  0  # atno 17370 bound_to 10713
  156.5724  130.4283  149.6013 LP  0  0  0  0  0  0  0  0  0  0  0  0  # atno 17371 bound_to 10713
  140.3019  134.8156  157.4105 LP  0  0  0  0  0  0  0  0  0  0  0  0  # atno 17394 bound_to 11000
  140.1254  134.5165  155.8149 LP  0  0  0  0  0  0  0  0  0  0  0  0  # atno 17395 bound_to 11000

$$$$
