AV-unprocessed.smi:1645|AV-procd|sdf|6617|dock1
  -GOLD-   22720 7313D 1   1.00000     0.00000
 Structure written by MMmdl.
 55 58  0  0  0  0  0  0  0  0  4 V2000
  147.7641  137.6411  155.8492 O   0  0  0  0  0  0  0  0  0  0  0  0
  147.7406  138.0773  154.6929 C   0  0  0  0  0  0  0  0  0  0  0  0
  148.4099  139.1999  154.3760 N   0  0  0  0  0  0  0  0  0  0  0  0
  149.1890  140.0365  155.2187 C   0  0  0  0  0  0  0  0  0  0  0  0
  150.0417  139.4199  156.1590 C   0  0  0  0  0  0  0  0  0  0  0  0
  150.8373  140.2164  157.0079 C   0  0  0  0  0  0  0  0  0  0  0  0
  150.7760  141.6240  156.8925 C   0  0  0  0  0  0  0  0  0  0  0  0
  151.5161  142.4968  157.7000 N   0  0  0  0  0  0  0  0  0  0  0  0
  150.7129  143.5888  158.2434 C   0  0  0  0  0  0  0  0  0  0  0  0
  151.6070  144.6263  158.9434 C   0  0  0  0  0  0  0  0  0  0  0  0
  152.4857  143.9586  160.0137 C   0  0  0  0  0  0  0  0  0  0  0  0
  153.2811  142.7942  159.4003 C   0  0  0  0  0  0  0  0  0  0  0  0
  152.3457  141.8048  158.6828 C   0  0  0  0  0  0  0  0  0  0  0  0
  149.9668  142.1764  155.9631 N   0  3  0  0  0  0  0  0  0  0  0  0
  149.1880  141.4496  155.1329 C   0  0  0  0  0  0  0  0  0  0  0  0
  147.1056  137.5396  153.6174 N   0  5  0  0  0  0  0  0  0  0  0  0
  145.9385  136.6493  153.6913 C   0  0  1  0  0  0  0  0  0  0  0  0
  145.0913  136.7988  152.4122 C   0  0  0  0  0  0  0  0  0  0  0  0
  145.6152  135.7328  151.4268 C   0  0  0  0  0  0  0  0  0  0  0  0
  146.6520  134.9825  152.1637 N   0  3  2  0  0  0  0  0  0  0  0  0
  146.8463  133.5621  151.7972 C   0  0  0  0  0  0  0  0  0  0  0  0
  148.0076  132.9706  152.6221 C   0  0  0  0  0  0  0  0  0  0  0  0
  147.8002  133.1784  154.1364 C   0  0  0  0  0  0  0  0  0  0  0  0
  147.5408  134.6620  154.4614 C   0  0  0  0  0  0  0  0  0  0  0  0
  146.3689  135.1761  153.5954 C   0  0  1  0  0  0  0  0  0  0  0  0
  148.4204  139.4354  153.3945 H   0  0  0  0  0  0  0  0  0  0  0  0
  150.0792  138.3432  156.2390 H   0  0  0  0  0  0  0  0  0  0  0  0
  151.4819  139.7485  157.7373 H   0  0  0  0  0  0  0  0  0  0  0  0
  150.1491  144.0663  157.4407 H   0  0  0  0  0  0  0  0  0  0  0  0
  149.9856  143.1905  158.9522 H   0  0  0  0  0  0  0  0  0  0  0  0
  152.2408  145.1188  158.2049 H   0  0  0  0  0  0  0  0  0  0  0  0
  150.9927  145.4065  159.3941 H   0  0  0  0  0  0  0  0  0  0  0  0
  153.1645  144.6892  160.4546 H   0  0  0  0  0  0  0  0  0  0  0  0
  151.8573  143.5869  160.8241 H   0  0  0  0  0  0  0  0  0  0  0  0
  154.0111  143.1857  158.6902 H   0  0  0  0  0  0  0  0  0  0  0  0
  153.8484  142.2781  160.1751 H   0  0  0  0  0  0  0  0  0  0  0  0
  151.7071  141.3042  159.4119 H   0  0  0  0  0  0  0  0  0  0  0  0
  152.9343  141.0311  158.1881 H   0  0  0  0  0  0  0  0  0  0  0  0
  148.6043  142.0264  154.4311 H   0  0  0  0  0  0  0  0  0  0  0  0
  145.3360  136.8133  154.5856 H   0  0  0  0  0  0  0  0  0  0  0  0
  144.0461  136.5905  152.6439 H   0  0  0  0  0  0  0  0  0  0  0  0
  145.1262  137.8049  151.9913 H   0  0  0  0  0  0  0  0  0  0  0  0
  144.8035  135.0723  151.1171 H   0  0  0  0  0  0  0  0  0  0  0  0
  146.0466  136.1796  150.5302 H   0  0  0  0  0  0  0  0  0  0  0  0
  145.9267  133.0043  151.9807 H   0  0  0  0  0  0  0  0  0  0  0  0
  147.0636  133.4869  150.7314 H   0  0  0  0  0  0  0  0  0  0  0  0
  148.1174  131.9081  152.4031 H   0  0  0  0  0  0  0  0  0  0  0  0
  148.9421  133.4453  152.3199 H   0  0  0  0  0  0  0  0  0  0  0  0
  146.9533  132.5789  154.4725 H   0  0  0  0  0  0  0  0  0  0  0  0
  148.6704  132.8210  154.6874 H   0  0  0  0  0  0  0  0  0  0  0  0
  147.3174  134.7744  155.5235 H   0  0  0  0  0  0  0  0  0  0  0  0
  148.4531  135.2299  154.2703 H   0  0  0  0  0  0  0  0  0  0  0  0
  145.4912  134.5733  153.8396 H   0  0  0  0  0  0  0  0  0  0  0  0
  147.5222  135.4671  151.9948 H   0  0  0  0  0  0  0  0  0  0  0  0
  149.9405  143.1930  155.8839 H   0  0  0  0  0  0  0  0  0  0  0  0
  1  2  2  0  0  0  0
  2  3  1  0  0  0  0
  2 16  1  0  0  0  0
  3  4  1  0  0  0  0
  3 26  1  0  0  0  0
  4 15  1  0  0  0  0
  4  5  2  0  0  0  0
  5  6  1  0  0  0  0
  5 27  1  0  0  0  0
  6  7  2  0  0  0  0
  6 28  1  0  0  0  0
  7  8  1  0  0  0  0
  7 14  1  0  0  0  0
  8 13  1  0  0  0  0
  8  9  1  0  0  0  0
  9 10  1  0  0  0  0
  9 29  1  0  0  0  0
  9 30  1  0  0  0  0
 10 11  1  0  0  0  0
 10 31  1  0  0  0  0
 10 32  1  0  0  0  0
 11 12  1  0  0  0  0
 11 33  1  0  0  0  0
 11 34  1  0  0  0  0
 12 13  1  0  0  0  0
 12 35  1  0  0  0  0
 12 36  1  0  0  0  0
 13 37  1  0  0  0  0
 13 38  1  0  0  0  0
 14 15  2  0  0  0  0
 14 55  1  0  0  0  0
 15 39  1  0  0  0  0
 16 17  1  0  0  0  0
 17 25  1  0  0  0  0
 17 18  1  0  0  0  0
 17 40  1  0  0  0  0
 18 19  1  0  0  0  0
 18 41  1  0  0  0  0
 18 42  1  0  0  0  0
 19 20  1  0  0  0  0
 19 43  1  0  0  0  0
 19 44  1  0  0  0  0
 20 25  1  0  0  0  0
 20 21  1  0  0  0  0
 20 54  1  0  0  0  0
 21 22  1  0  0  0  0
 21 45  1  0  0  0  0
 21 46  1  0  0  0  0
 22 23  1  0  0  0  0
 22 47  1  0  0  0  0
 22 48  1  0  0  0  0
 23 24  1  0  0  0  0
 23 49  1  0  0  0  0
 23 50  1  0  0  0  0
 24 25  1  0  0  0  0
 24 51  1  0  0  0  0
 24 52  1  0  0  0  0
 25 53  1  0  0  0  0
M  CHG  1  14   1
M  CHG  1  16  -1
M  CHG  1  20   1
M  END
> <s_m_source_file>
AV-unprocessed.smi

> <i_m_source_file_index>
1645

> <i_lp_mmshare_version>
43012

> <i_f3d_flags>
0

> <s_epik_input>
W0NIMl0xW0NIMl1bQ0gyXVtDSDJdW0NASF0oTjEyKVtDQEBIXShbQ0gyXVtDSDJdMilbTkhdQyg9TylbTkhdYzNbY0hdW2NIXWMobltjSF0zKU40W0NIMl1bQ0gyXVtDSDJdW0NIMl1bQ0gyXTQ=

> <s_epik_cmdline>
J2VwaWtfcHl0aG9uJywgJy1waCcsICc3LjAnLCAnLXRuJywgJzgnLCAnLW1hJywgJzIwMCcsICctbWV0YWxfYmluZGluZycsICctaW1hZScsICc8aW5maWxlLm1hZT4nLCAnLW9tYWUnLCAnPG91dGZpbGUubWFlPic=

> <r_lp_tautomer_probability>
0.999994

> <r_epik_Ionization_Penalty>
8.55589

> <r_epik_Ionization_Penalty_Charging>
8.55589

> <r_epik_Ionization_Penalty_Neutral>
3.8092e-06

> <r_epik_State_Penalty>
8.15703

> <r_epik_Charging_Adjusted_Penalty>
16.7129

> <i_epik_Tot_Q>
1

> <i_epik_Tot_abs_Q>
3

> <r_epik_Metal_State_Penalty>
4.13781

> <b_epik_Metal_Only>
1

> <s_lp_Force_Field>
OPLS_2005

> <r_lp_Energy>
55.818

> <b_lp_Chiralities_Consistent>
1

> <s_lp_Variant>
AV-unprocessed.smi:1645-18

> <Gold.Version>
5.8.1

> <Gold.Id.Protein>
6NUR|6NUR_protein|mol2

> <Gold.PLP.Fitness>
48.6099

> <Gold.PLP.PLP>
-38.4041

> <Gold.PLP.part.hbond>
-2.0000

> <Gold.PLP.part.metal>
0.0000

> <Gold.PLP.part.buried>
-5.3996

> <Gold.PLP.part.nonpolar>
-33.7190

> <Gold.PLP.part.repulsive>
2.0456

> <Gold.PLP.ligand.clash>
0.0000

> <Gold.PLP.ligand.torsion>
0.9376

> <Gold.PLP.Chemscore.Hbond>
3.9520

> <Gold.PLP.Chemscore.CHOScore>
0.0000

> <Gold.PLP.Chemscore.Metal>
0.0000

> <Gold.Chemscore.Hbonds>
donor molecule, donor type, donor heavy atom, donor atom, acceptor molecule, acceptor atom, score
      L1  H    14    55       P1  8028  1.89
      L1  H    20    54       P1  7948  2.00

> <Gold.PLP.Chemscore.Internal.Correction>
0.2250

> <Gold.Rescore>
     Score         DG    S(hbond)    S(metal)    S(lipo)     H(rot)  DE(clash)    DE(int)     intcor
     19.58     -22.05       1.98        0.00     110.82       1.17       0.33       2.14       ----

> <Gold.Chemscore.Fitness>
19.5844

> <Gold.Chemscore.DG>
-22.0521

> <Gold.Chemscore.ZeroCoef>
-5.4800

> <Gold.Chemscore.Hbond>
1.9790

> <Gold.Chemscore.Metal>
0.0000

> <Gold.Chemscore.Lipo>
110.8173

> <Gold.Chemscore.Internal_Hbond>
0.0000

> <Gold.Chemscore.DEClash>
0.3282

> <Gold.Chemscore.DEInternal>
2.1395

> <Gold.Chemscore.Rot>
1.1731

> <Gold.Chemscore.Internal.Correction>
   9.000000E+99

> <Gold.Chemscore.Hbonds>
donor molecule, donor type, donor heavy atom, donor atom, acceptor molecule, acceptor atom, score
      L1  H    14    55       P1  8028  0.91
      L1  H    20    54       P1  7948  0.98

> <Gold.Chemscore.Hbond.Weighted>
-6.6097

> <Gold.Chemscore.Metal.Weighted>
-0.0000

> <Gold.Chemscore.Lipo.Weighted>
-12.9656

> <Gold.Chemscore.Internal_Hbond.Weighted>
0.0000

> <Gold.Chemscore.DEClash.Weighted>
0.3282

> <Gold.Chemscore.DEInternal.Weighted>
2.1395

> <Gold.Chemscore.Rot.Weighted>
3.0032

> <Gold.Chemscore.Internal.Correction.Weighted>
   9.000000E+99

> <Gold.Protein.RotatedTorsions>
[ 6907 6896 6895 6894 ] final   52.41 input  -60.11 | X-H torsion
[ 7974 7965 7964 7962 ] final  108.67 input  175.53 | X-H torsion
[ 8008 7997 7996 7995 ] final  174.84 input   59.86 | X-H torsion
[ 10167 10162 10161 10158 ] final   82.12 input  -65.29 | X-H torsion
[ 10718 10713 10712 10709 ] final -101.62 input   66.30 | X-H torsion
[ 10763 10752 10751 10750 ] final  178.16 input  -60.55 | X-H torsion
[ 11005 11000 10999 10996 ] final    4.81 input  -57.11 | X-H torsion

> <Gold.Protein.ActiveResidues>
 VAL166  LYS551  ARG553  GLY616  TRP617  ASP618  TYR619  PRO620  LYS621  CYS622 
 ASP623  PHE694  ASN695  SER759  ASP760  ASP761  ALA762  ILE779  LEU786  VAL792 
 PHE793  MET794  SER795  GLU796  ALA797  LYS798  CYS799  TRP800  GLU811  SER814 

> <Gold.Protein.RotatedAtoms>
  152.3230  134.7356  160.0308 H   0  0  0  0  0  0  0  0  0  0  0  0  # atno 6907 bound_to 6896
  151.7798  133.3343  159.3476 H   0  0  0  0  0  0  0  0  0  0  0  0  # atno 6908 bound_to 6896
  150.7380  134.5872  159.6013 H   0  0  0  0  0  0  0  0  0  0  0  0  # atno 6909 bound_to 6896
  145.2777  139.2644  143.3932 H   0  0  0  0  0  0  0  0  0  0  0  0  # atno 7974 bound_to 7965
  156.0932  140.1424  156.9564 H   0  0  0  0  0  0  0  0  0  0  0  0  # atno 8008 bound_to 7997
  154.4655  140.0928  156.7055 H   0  0  0  0  0  0  0  0  0  0  0  0  # atno 8009 bound_to 7997
  155.4884  140.3447  155.4353 H   0  0  0  0  0  0  0  0  0  0  0  0  # atno 8010 bound_to 7997
  139.9321  144.6145  150.8335 H   0  0  0  0  0  0  0  0  0  0  0  0  # atno 10167 bound_to 10162
  156.0201  130.5382  150.6990 H   0  0  0  0  0  0  0  0  0  0  0  0  # atno 10718 bound_to 10713
  154.5040  135.2785  155.1398 H   0  0  0  0  0  0  0  0  0  0  0  0  # atno 10763 bound_to 10752
  154.3020  135.6246  153.5432 H   0  0  0  0  0  0  0  0  0  0  0  0  # atno 10764 bound_to 10752
  152.9907  135.5699  154.5489 H   0  0  0  0  0  0  0  0  0  0  0  0  # atno 10765 bound_to 10752
  140.5777  134.0042  155.8035 H   0  0  0  0  0  0  0  0  0  0  0  0  # atno 11005 bound_to 11000
  146.3226  140.3236  142.8635 LP  0  0  0  0  0  0  0  0  0  0  0  0  # atno 17320 bound_to 7965
  144.9280  140.7943  143.5707 LP  0  0  0  0  0  0  0  0  0  0  0  0  # atno 17321 bound_to 7965
  140.7634  143.3223  151.2593 LP  0  0  0  0  0  0  0  0  0  0  0  0  # atno 17342 bound_to 10162
  139.6774  143.9914  152.2789 LP  0  0  0  0  0  0  0  0  0  0  0  0  # atno 17343 bound_to 10162
  157.4654  131.0887  151.0700 LP  0  0  0  0  0  0  0  0  0  0  0  0  # atno 17370 bound_to 10713
  157.1176  130.6048  149.5497 LP  0  0  0  0  0  0  0  0  0  0  0  0  # atno 17371 bound_to 10713
  141.1016  133.9759  157.3069 LP  0  0  0  0  0  0  0  0  0  0  0  0  # atno 17394 bound_to 11000
  139.9332  135.0198  156.8468 LP  0  0  0  0  0  0  0  0  0  0  0  0  # atno 17395 bound_to 11000

$$$$
