AV-unprocessed.smi:3327|AV-procd|sdf|12787|dock4
  -GOLD-   2272019133D 1   1.00000     0.00000
 Structure written by MMmdl.
 41 42  0  0  0  0  0  0  0  0  2 V2000
  151.3159  143.0046  157.5446 C   0  0  0  0  0  0  0  0  0  0  0  0
  150.2961  141.9526  157.0873 C   0  0  2  0  0  0  0  0  0  0  0  0
  149.8861  141.0188  158.2474 C   0  0  0  0  0  0  0  0  0  0  0  0
  148.9604  139.8818  157.7746 C   0  0  0  0  0  0  0  0  0  0  0  0
  149.5591  139.1594  156.5552 C   0  0  0  0  0  0  0  0  0  0  0  0
  149.8034  140.1497  155.4981 N   0  0  0  0  0  0  0  0  0  0  0  0
  149.1053  140.2544  154.3411 C   0  0  0  0  0  0  0  0  0  0  0  0
  149.3277  141.1426  153.5161 O   0  0  0  0  0  0  0  0  0  0  0  0
  147.9953  139.2337  154.0456 C   0  0  0  0  0  0  0  0  0  0  0  0
  147.9842  138.8063  152.6314 N   0  3  0  0  0  0  0  0  0  0  0  0
  146.6359  138.7149  152.0369 C   0  0  0  0  0  0  0  0  0  0  0  0
  145.7440  137.7310  152.8136 C   0  0  0  0  0  0  0  0  0  0  0  0
  145.7144  136.4046  152.2202 N   0  0  0  0  0  0  0  0  0  0  0  0
  145.3791  136.0520  150.9295 C   0  0  0  0  0  0  0  0  0  0  0  0
  145.5180  134.6973  150.8286 C   0  0  0  0  0  0  0  0  0  0  0  0
  145.9607  134.3049  152.1225 C   0  0  0  0  0  0  0  0  0  0  0  0
  146.0819  135.3295  152.9513 N   0  0  0  0  0  0  0  0  0  0  0  0
  150.8272  141.1242  155.8980 C   0  0  0  0  0  0  0  0  0  0  0  0
  152.2383  142.5383  157.8921 H   0  0  0  0  0  0  0  0  0  0  0  0
  150.9184  143.6069  158.3620 H   0  0  0  0  0  0  0  0  0  0  0  0
  151.5724  143.6828  156.7301 H   0  0  0  0  0  0  0  0  0  0  0  0
  149.4038  142.4844  156.7529 H   0  0  0  0  0  0  0  0  0  0  0  0
  150.7815  140.5818  158.6918 H   0  0  0  0  0  0  0  0  0  0  0  0
  149.3988  141.5898  159.0384 H   0  0  0  0  0  0  0  0  0  0  0  0
  148.7950  139.1742  158.5874 H   0  0  0  0  0  0  0  0  0  0  0  0
  147.9828  140.2893  157.5141 H   0  0  0  0  0  0  0  0  0  0  0  0
  150.5044  138.6888  156.8300 H   0  0  0  0  0  0  0  0  0  0  0  0
  148.9083  138.3411  156.2515 H   0  0  0  0  0  0  0  0  0  0  0  0
  148.1352  138.3573  154.6797 H   0  0  0  0  0  0  0  0  0  0  0  0
  147.0258  139.6739  154.2831 H   0  0  0  0  0  0  0  0  0  0  0  0
  148.5254  139.4715  152.0970 H   0  0  0  0  0  0  0  0  0  0  0  0
  146.1787  139.7050  152.0433 H   0  0  0  0  0  0  0  0  0  0  0  0
  146.7167  138.4122  150.9920 H   0  0  0  0  0  0  0  0  0  0  0  0
  146.0873  137.6455  153.8456 H   0  0  0  0  0  0  0  0  0  0  0  0
  144.7209  138.1072  152.8541 H   0  0  0  0  0  0  0  0  0  0  0  0
  145.0715  136.7846  150.1977 H   0  0  0  0  0  0  0  0  0  0  0  0
  145.3367  134.0805  149.9607 H   0  0  0  0  0  0  0  0  0  0  0  0
  146.1986  133.3141  152.4807 H   0  0  0  0  0  0  0  0  0  0  0  0
  151.1167  141.7869  155.0812 H   0  0  0  0  0  0  0  0  0  0  0  0
  151.7377  140.5940  156.1821 H   0  0  0  0  0  0  0  0  0  0  0  0
  148.4320  137.9033  152.5665 H   0  0  0  0  0  0  0  0  0  0  0  0
  1  2  1  0  0  0  0
  1 19  1  0  0  0  0
  1 20  1  0  0  0  0
  1 21  1  0  0  0  0
  2 18  1  0  0  0  0
  2  3  1  0  0  0  0
  2 22  1  0  0  0  0
  3  4  1  0  0  0  0
  3 23  1  0  0  0  0
  3 24  1  0  0  0  0
  4  5  1  0  0  0  0
  4 25  1  0  0  0  0
  4 26  1  0  0  0  0
  5  6  1  0  0  0  0
  5 27  1  0  0  0  0
  5 28  1  0  0  0  0
  6  7  1  0  0  0  0
  6 18  1  0  0  0  0
  7  8  2  0  0  0  0
  7  9  1  0  0  0  0
  9 10  1  0  0  0  0
  9 29  1  0  0  0  0
  9 30  1  0  0  0  0
 10 11  1  0  0  0  0
 10 31  1  0  0  0  0
 10 41  1  0  0  0  0
 11 12  1  0  0  0  0
 11 32  1  0  0  0  0
 11 33  1  0  0  0  0
 12 13  1  0  0  0  0
 12 34  1  0  0  0  0
 12 35  1  0  0  0  0
 13 17  1  0  0  0  0
 13 14  1  0  0  0  0
 14 15  2  0  0  0  0
 14 36  1  0  0  0  0
 15 16  1  0  0  0  0
 15 37  1  0  0  0  0
 16 17  2  0  0  0  0
 16 38  1  0  0  0  0
 18 39  1  0  0  0  0
 18 40  1  0  0  0  0
M  CHG  1  10   1
M  END
> <s_m_source_file>
AV-unprocessed.smi

> <i_m_source_file_index>
3327

> <i_lp_mmshare_version>
43012

> <i_f3d_flags>
0

> <s_epik_input>
W0NIM11bQ0BASF0xW0NIMl1bQ0gyXVtDSDJdTihbQ0gyXTEpQyg9TylbQ0gyXVtOSF1bQ0gyXVtDSDJdbjJbY0hdW2NIXVtjSF1uMg==

> <s_epik_cmdline>
J2VwaWtfcHl0aG9uJywgJy1waCcsICc3LjAnLCAnLXRuJywgJzgnLCAnLW1hJywgJzIwMCcsICctbWV0YWxfYmluZGluZycsICctaW1hZScsICc8aW5maWxlLm1hZT4nLCAnLW9tYWUnLCAnPG91dGZpbGUubWFlPic=

> <r_lp_tautomer_probability>
1

> <r_epik_Ionization_Penalty>
0.195801

> <r_epik_Ionization_Penalty_Charging>
0.195799

> <r_epik_Ionization_Penalty_Neutral>
2.33113e-06

> <r_epik_State_Penalty>
0.185548

> <r_epik_Charging_Adjusted_Penalty>
0.381347

> <i_epik_Tot_Q>
1

> <i_epik_Tot_abs_Q>
1

> <r_epik_Metal_State_Penalty>
0.186014

> <b_epik_Metal_Only>
0

> <s_lp_Force_Field>
OPLS_2005

> <r_lp_Energy>
21.5547

> <b_lp_Chiralities_Consistent>
1

> <s_lp_Variant>
AV-unprocessed.smi:3327-1

> <Gold.Version>
5.8.1

> <Gold.Id.Protein>
6NUR|6NUR_protein|mol2

> <Gold.PLP.Fitness>
44.8684

> <Gold.PLP.PLP>
-31.2662

> <Gold.PLP.part.hbond>
-3.8894

> <Gold.PLP.part.metal>
0.0000

> <Gold.PLP.part.buried>
-4.2828

> <Gold.PLP.part.nonpolar>
-27.3114

> <Gold.PLP.part.repulsive>
3.6054

> <Gold.PLP.ligand.clash>
0.0000

> <Gold.PLP.ligand.torsion>
0.8401

> <Gold.PLP.Chemscore.Hbond>
4.0655

> <Gold.PLP.Chemscore.CHOScore>
1.0000

> <Gold.PLP.Chemscore.Metal>
0.0000

> <Gold.Chemscore.Hbonds>
donor molecule, donor type, donor heavy atom, donor atom, acceptor molecule, acceptor atom, score
      L1  H    10    31       P1  7957  0.99
      L1  H    10    41       P1  7948  2.00
      P1  H  7989  7998       L1     8  0.07
      P1  H  8011  8017       L1     8  1.00
      L1  C    14    36       P1 10171  1.00

> <Gold.PLP.Chemscore.Internal.Correction>
0.0859

> <Gold.Rescore>
     Score         DG    S(hbond)    S(metal)    S(lipo)     H(rot)  DE(clash)    DE(int)     intcor
     16.41     -18.71       2.94        0.00      68.44       1.80       1.43       0.87       ----

> <Gold.Chemscore.Fitness>
16.4077

> <Gold.Chemscore.DG>
-18.7095

> <Gold.Chemscore.ZeroCoef>
-5.4800

> <Gold.Chemscore.Hbond>
2.9404

> <Gold.Chemscore.Metal>
0.0000

> <Gold.Chemscore.Lipo>
68.4363

> <Gold.Chemscore.Internal_Hbond>
0.0000

> <Gold.Chemscore.DEClash>
1.4337

> <Gold.Chemscore.DEInternal>
0.8681

> <Gold.Chemscore.Rot>
1.7963

> <Gold.Chemscore.Internal.Correction>
   9.000000E+99

> <Gold.Chemscore.Hbonds>
donor molecule, donor type, donor heavy atom, donor atom, acceptor molecule, acceptor atom, score
      L1  H    10    31       P1  7957  0.92
      L1  H    10    41       P1  7948  0.99
      P1  H  7989  7998       L1     8  0.01
      P1  H  8011  8017       L1     8  0.95

> <Gold.Chemscore.Hbond.Weighted>
-9.8209

> <Gold.Chemscore.Metal.Weighted>
-0.0000

> <Gold.Chemscore.Lipo.Weighted>
-8.0070

> <Gold.Chemscore.Internal_Hbond.Weighted>
0.0000

> <Gold.Chemscore.DEClash.Weighted>
1.4337

> <Gold.Chemscore.DEInternal.Weighted>
0.8681

> <Gold.Chemscore.Rot.Weighted>
4.5985

> <Gold.Chemscore.Internal.Correction.Weighted>
   9.000000E+99

> <Gold.Protein.RotatedTorsions>
[ 6907 6896 6895 6894 ] final  121.67 input  -60.11 | X-H torsion
[ 7974 7965 7964 7962 ] final   98.36 input  175.53 | X-H torsion
[ 8008 7997 7996 7995 ] final   34.61 input   59.86 | X-H torsion
[ 10167 10162 10161 10158 ] final   31.26 input  -65.29 | X-H torsion
[ 10718 10713 10712 10709 ] final -126.45 input   66.30 | X-H torsion
[ 10763 10752 10751 10750 ] final   39.03 input  -60.55 | X-H torsion
[ 11005 11000 10999 10996 ] final -115.50 input  -57.11 | X-H torsion

> <Gold.Protein.ActiveResidues>
 VAL166  LYS551  ARG553  GLY616  TRP617  ASP618  TYR619  PRO620  LYS621  CYS622 
 ASP623  PHE694  ASN695  SER759  ASP760  ASP761  ALA762  ILE779  LEU786  VAL792 
 PHE793  MET794  SER795  GLU796  ALA797  LYS798  CYS799  TRP800  GLU811  SER814 

> <Gold.Protein.RotatedAtoms>
  152.4304  133.7267  159.6564 H   0  0  0  0  0  0  0  0  0  0  0  0  # atno 6907 bound_to 6896
  150.8183  133.8288  159.3156 H   0  0  0  0  0  0  0  0  0  0  0  0  # atno 6908 bound_to 6896
  151.5978  135.1051  160.0105 H   0  0  0  0  0  0  0  0  0  0  0  0  # atno 6909 bound_to 6896
  145.4131  139.2331  143.3237 H   0  0  0  0  0  0  0  0  0  0  0  0  # atno 7974 bound_to 7965
  155.1576  140.3280  155.4418 H   0  0  0  0  0  0  0  0  0  0  0  0  # atno 8008 bound_to 7997
  156.2553  140.1966  156.6636 H   0  0  0  0  0  0  0  0  0  0  0  0  # atno 8009 bound_to 7997
  154.6428  140.0568  156.9851 H   0  0  0  0  0  0  0  0  0  0  0  0  # atno 8010 bound_to 7997
  140.4604  144.0914  150.6211 H   0  0  0  0  0  0  0  0  0  0  0  0  # atno 10167 bound_to 10162
  156.1766  130.6704  151.0250 H   0  0  0  0  0  0  0  0  0  0  0  0  # atno 10718 bound_to 10713
  152.9981  135.6232  154.2400 H   0  0  0  0  0  0  0  0  0  0  0  0  # atno 10763 bound_to 10752
  154.2140  135.2798  155.2950 H   0  0  0  0  0  0  0  0  0  0  0  0  # atno 10764 bound_to 10752
  154.5583  135.5713  153.7042 H   0  0  0  0  0  0  0  0  0  0  0  0  # atno 10765 bound_to 10752
  141.0483  133.9727  157.2880 H   0  0  0  0  0  0  0  0  0  0  0  0  # atno 11005 bound_to 11000
  146.2694  140.4846  142.8820 LP  0  0  0  0  0  0  0  0  0  0  0  0  # atno 17320 bound_to 7965
  144.8295  140.6684  143.6300 LP  0  0  0  0  0  0  0  0  0  0  0  0  # atno 17321 bound_to 7965
  140.4100  143.2661  151.9845 LP  0  0  0  0  0  0  0  0  0  0  0  0  # atno 17342 bound_to 10162
  139.4805  144.5924  151.7749 LP  0  0  0  0  0  0  0  0  0  0  0  0  # atno 17343 bound_to 10162
  157.6840  131.0830  150.7294 LP  0  0  0  0  0  0  0  0  0  0  0  0  # atno 17370 bound_to 10713
  156.7351  130.4722  149.5490 LP  0  0  0  0  0  0  0  0  0  0  0  0  # atno 17371 bound_to 10713
  139.9330  135.0198  156.8462 LP  0  0  0  0  0  0  0  0  0  0  0  0  # atno 17394 bound_to 11000
  140.6104  134.0088  155.7574 LP  0  0  0  0  0  0  0  0  0  0  0  0  # atno 17395 bound_to 11000

$$$$
