AV-unprocessed.smi:2961|AV-procd|sdf|11314|dock5
  -GOLD-   2272016213D 1   1.00000     0.00000
 Structure written by MMmdl.
 49 51  0  0  0  0  0  0  0  0  2 V2000
  144.5049  135.5847  150.3298 C   0  0  0  0  0  0  0  0  0  0  0  0
  145.3284  136.0128  151.5395 C   0  0  0  0  0  0  0  0  0  0  0  0
  145.9346  135.1731  152.2035 O   0  0  0  0  0  0  0  0  0  0  0  0
  145.3496  137.3265  151.8085 N   0  0  0  0  0  0  0  0  0  0  0  0
  146.0670  137.9463  152.9196 C   0  0  0  0  0  0  0  0  0  0  0  0
  146.9300  139.1529  152.4957 C   0  0  0  0  0  0  0  0  0  0  0  0
  148.1597  139.3197  153.3326 C   0  0  0  0  0  0  0  0  0  0  0  0
  149.2041  138.4458  153.3947 N   0  3  0  0  0  0  0  0  0  0  0  0
  150.1744  138.9296  154.2723 C   0  0  0  0  0  0  0  0  0  0  0  0
  151.3992  138.3949  154.6601 C   0  0  0  0  0  0  0  0  0  0  0  0
  152.1516  139.1448  155.5878 C   0  0  0  0  0  0  0  0  0  0  0  0
  151.6804  140.3743  156.0921 C   0  0  0  0  0  0  0  0  0  0  0  0
  150.4388  140.9078  155.6882 C   0  0  0  0  0  0  0  0  0  0  0  0
  149.7005  140.1608  154.7702 C   0  0  0  0  0  0  0  0  0  0  0  0
  148.4563  140.3632  154.1597 N   0  0  0  0  0  0  0  0  0  0  0  0
  147.6806  141.5721  154.4774 C   0  0  0  0  0  0  0  0  0  0  0  0
  146.2525  141.2423  154.9346 C   0  0  0  0  0  0  0  0  0  0  0  0
  145.6894  142.3747  155.5832 O   0  0  0  0  0  0  0  0  0  0  0  0
  145.3634  143.4735  154.8189 C   0  0  0  0  0  0  0  0  0  0  0  0
  145.7729  143.6601  153.4746 C   0  0  0  0  0  0  0  0  0  0  0  0
  145.3886  144.8163  152.7682 C   0  0  0  0  0  0  0  0  0  0  0  0
  144.5959  145.7967  153.3928 C   0  0  0  0  0  0  0  0  0  0  0  0
  144.1859  145.6238  154.7292 C   0  0  0  0  0  0  0  0  0  0  0  0
  143.3305  146.6787  155.4001 C   0  0  0  0  0  0  0  0  0  0  0  0
  144.5712  144.4647  155.4338 C   0  0  0  0  0  0  0  0  0  0  0  0
  143.5149  136.0417  150.3566 H   0  0  0  0  0  0  0  0  0  0  0  0
  144.3794  134.5016  150.3105 H   0  0  0  0  0  0  0  0  0  0  0  0
  145.0016  135.8885  149.4078 H   0  0  0  0  0  0  0  0  0  0  0  0
  144.8174  137.9413  151.2093 H   0  0  0  0  0  0  0  0  0  0  0  0
  145.3200  138.2691  153.6447 H   0  0  0  0  0  0  0  0  0  0  0  0
  146.6826  137.2022  153.4273 H   0  0  0  0  0  0  0  0  0  0  0  0
  147.2223  139.0491  151.4506 H   0  0  0  0  0  0  0  0  0  0  0  0
  146.3423  140.0695  152.5547 H   0  0  0  0  0  0  0  0  0  0  0  0
  151.7607  137.4519  154.2769 H   0  0  0  0  0  0  0  0  0  0  0  0
  153.1078  138.7685  155.9213 H   0  0  0  0  0  0  0  0  0  0  0  0
  152.2828  140.9194  156.8044 H   0  0  0  0  0  0  0  0  0  0  0  0
  150.0858  141.8479  156.0856 H   0  0  0  0  0  0  0  0  0  0  0  0
  148.2106  142.1516  155.2334 H   0  0  0  0  0  0  0  0  0  0  0  0
  147.6491  142.1940  153.5832 H   0  0  0  0  0  0  0  0  0  0  0  0
  145.6474  140.9642  154.0707 H   0  0  0  0  0  0  0  0  0  0  0  0
  146.2792  140.3908  155.6166 H   0  0  0  0  0  0  0  0  0  0  0  0
  146.3829  142.9317  152.9626 H   0  0  0  0  0  0  0  0  0  0  0  0
  145.7036  144.9509  151.7439 H   0  0  0  0  0  0  0  0  0  0  0  0
  144.3044  146.6807  152.8443 H   0  0  0  0  0  0  0  0  0  0  0  0
  143.3217  146.5508  156.4831 H   0  0  0  0  0  0  0  0  0  0  0  0
  142.3038  146.6155  155.0391 H   0  0  0  0  0  0  0  0  0  0  0  0
  143.7113  147.6765  155.1805 H   0  0  0  0  0  0  0  0  0  0  0  0
  144.2561  144.3289  156.4581 H   0  0  0  0  0  0  0  0  0  0  0  0
  149.2450  137.5793  152.8735 H   0  0  0  0  0  0  0  0  0  0  0  0
  1  2  1  0  0  0  0
  1 26  1  0  0  0  0
  1 27  1  0  0  0  0
  1 28  1  0  0  0  0
  2  3  2  0  0  0  0
  2  4  1  0  0  0  0
  4  5  1  0  0  0  0
  4 29  1  0  0  0  0
  5  6  1  0  0  0  0
  5 30  1  0  0  0  0
  5 31  1  0  0  0  0
  6  7  1  0  0  0  0
  6 32  1  0  0  0  0
  6 33  1  0  0  0  0
  7 15  1  0  0  0  0
  7  8  2  0  0  0  0
  8  9  1  0  0  0  0
  8 49  1  0  0  0  0
  9 14  2  0  0  0  0
  9 10  1  0  0  0  0
 10 11  2  0  0  0  0
 10 34  1  0  0  0  0
 11 12  1  0  0  0  0
 11 35  1  0  0  0  0
 12 13  2  0  0  0  0
 12 36  1  0  0  0  0
 13 14  1  0  0  0  0
 13 37  1  0  0  0  0
 14 15  1  0  0  0  0
 15 16  1  0  0  0  0
 16 17  1  0  0  0  0
 16 38  1  0  0  0  0
 16 39  1  0  0  0  0
 17 18  1  0  0  0  0
 17 40  1  0  0  0  0
 17 41  1  0  0  0  0
 18 19  1  0  0  0  0
 19 25  1  0  0  0  0
 19 20  2  0  0  0  0
 20 21  1  0  0  0  0
 20 42  1  0  0  0  0
 21 22  2  0  0  0  0
 21 43  1  0  0  0  0
 22 23  1  0  0  0  0
 22 44  1  0  0  0  0
 23 24  1  0  0  0  0
 23 25  2  0  0  0  0
 24 45  1  0  0  0  0
 24 46  1  0  0  0  0
 24 47  1  0  0  0  0
 25 48  1  0  0  0  0
M  CHG  1   8   1
M  END
> <s_m_source_file>
AV-unprocessed.smi

> <i_m_source_file_index>
2961

> <i_lp_mmshare_version>
43012

> <i_f3d_flags>
0

> <s_epik_input>
W0NIM11DKD1PKVtOSF1bQ0gyXVtDSDJdYyhuMSluKGMoYzEyKVtjSF1bY0hdW2NIXVtjSF0yKVtDSDJdW0NIMl1PYzNbY0hdW2NIXVtjSF1jKFtDSDNdKVtjSF0z

> <s_epik_cmdline>
J2VwaWtfcHl0aG9uJywgJy1waCcsICc3LjAnLCAnLXRuJywgJzgnLCAnLW1hJywgJzIwMCcsICctbWV0YWxfYmluZGluZycsICctaW1hZScsICc8aW5maWxlLm1hZT4nLCAnLW9tYWUnLCAnPG91dGZpbGUubWFlPic=

> <r_lp_tautomer_probability>
1

> <r_epik_Ionization_Penalty>
1.11168

> <r_epik_Ionization_Penalty_Charging>
1.11168

> <r_epik_Ionization_Penalty_Neutral>
3.05925e-07

> <r_epik_State_Penalty>
1.16973

> <r_epik_Charging_Adjusted_Penalty>
2.28141

> <i_epik_Tot_Q>
1

> <i_epik_Tot_abs_Q>
1

> <r_epik_Metal_State_Penalty>
1.2554

> <b_epik_Metal_Only>
0

> <s_lp_Force_Field>
OPLS_2005

> <r_lp_Energy>
19.5135

> <b_lp_Chiralities_Consistent>
1

> <s_lp_Variant>
AV-unprocessed.smi:2961-2

> <Gold.Version>
5.8.1

> <Gold.Id.Protein>
6NUR|6NUR_protein|mol2

> <Gold.PLP.Fitness>
64.5766

> <Gold.PLP.PLP>
-56.5527

> <Gold.PLP.part.hbond>
-3.0000

> <Gold.PLP.part.metal>
0.0000

> <Gold.PLP.part.buried>
-0.8064

> <Gold.PLP.part.nonpolar>
-52.7560

> <Gold.PLP.part.repulsive>
0.3773

> <Gold.PLP.ligand.clash>
0.0000

> <Gold.PLP.ligand.torsion>
0.5597

> <Gold.PLP.Chemscore.Hbond>
3.0000

> <Gold.PLP.Chemscore.CHOScore>
0.0000

> <Gold.PLP.Chemscore.Metal>
0.0000

> <Gold.Chemscore.Hbonds>
donor molecule, donor type, donor heavy atom, donor atom, acceptor molecule, acceptor atom, score
      L1  H     4    29       P1 10171  1.00
      L1  H     8    49       P1  7948  2.00

> <Gold.PLP.Chemscore.Internal.Correction>
0.1432

> <Gold.Rescore>
     Score         DG    S(hbond)    S(metal)    S(lipo)     H(rot)  DE(clash)    DE(int)     intcor
     18.40     -21.88       1.95        0.00     132.16       2.18       1.92       1.57       ----

> <Gold.Chemscore.Fitness>
18.4006

> <Gold.Chemscore.DG>
-21.8836

> <Gold.Chemscore.ZeroCoef>
-5.4800

> <Gold.Chemscore.Hbond>
1.9520

> <Gold.Chemscore.Metal>
0.0000

> <Gold.Chemscore.Lipo>
132.1614

> <Gold.Chemscore.Internal_Hbond>
0.0000

> <Gold.Chemscore.DEClash>
1.9154

> <Gold.Chemscore.DEInternal>
1.5676

> <Gold.Chemscore.Rot>
2.1793

> <Gold.Chemscore.Internal.Correction>
   9.000000E+99

> <Gold.Chemscore.Hbonds>
donor molecule, donor type, donor heavy atom, donor atom, acceptor molecule, acceptor atom, score
      L1  H     4    29       P1 10171  1.00
      L1  H     8    49       P1  7948  0.97

> <Gold.Chemscore.Hbond.Weighted>
-6.5198

> <Gold.Chemscore.Metal.Weighted>
-0.0000

> <Gold.Chemscore.Lipo.Weighted>
-15.4629

> <Gold.Chemscore.Internal_Hbond.Weighted>
0.0000

> <Gold.Chemscore.DEClash.Weighted>
1.9154

> <Gold.Chemscore.DEInternal.Weighted>
1.5676

> <Gold.Chemscore.Rot.Weighted>
5.5791

> <Gold.Chemscore.Internal.Correction.Weighted>
   9.000000E+99

> <Gold.Protein.RotatedTorsions>
[ 6907 6896 6895 6894 ] final   59.33 input  -60.11 | X-H torsion
[ 7974 7965 7964 7962 ] final   35.78 input  175.53 | X-H torsion
[ 8008 7997 7996 7995 ] final  101.62 input   59.86 | X-H torsion
[ 10167 10162 10161 10158 ] final   20.18 input  -65.29 | X-H torsion
[ 10718 10713 10712 10709 ] final  -55.50 input   66.30 | X-H torsion
[ 10763 10752 10751 10750 ] final  -49.14 input  -60.55 | X-H torsion
[ 11005 11000 10999 10996 ] final  -92.30 input  -57.11 | X-H torsion

> <Gold.Protein.ActiveResidues>
 VAL166  LYS551  ARG553  GLY616  TRP617  ASP618  TYR619  PRO620  LYS621  CYS622 
 ASP623  PHE694  ASN695  SER759  ASP760  ASP761  ALA762  ILE779  LEU786  VAL792 
 PHE793  MET794  SER795  GLU796  ALA797  LYS798  CYS799  TRP800  GLU811  SER814 

> <Gold.Protein.RotatedAtoms>
  152.3905  134.6449  160.0109 H   0  0  0  0  0  0  0  0  0  0  0  0  # atno 6907 bound_to 6896
  151.6685  133.3309  159.3199 H   0  0  0  0  0  0  0  0  0  0  0  0  # atno 6908 bound_to 6896
  150.7822  134.6820  159.6493 H   0  0  0  0  0  0  0  0  0  0  0  0  # atno 6909 bound_to 6896
  146.1258  139.6099  142.9259 H   0  0  0  0  0  0  0  0  0  0  0  0  # atno 7974 bound_to 7965
  156.1317  140.3194  155.8359 H   0  0  0  0  0  0  0  0  0  0  0  0  # atno 8008 bound_to 7997
  155.4320  140.0519  157.3035 H   0  0  0  0  0  0  0  0  0  0  0  0  # atno 8009 bound_to 7997
  154.4904  140.2090  155.9573 H   0  0  0  0  0  0  0  0  0  0  0  0  # atno 8010 bound_to 7997
  140.5523  143.9487  150.6586 H   0  0  0  0  0  0  0  0  0  0  0  0  # atno 10167 bound_to 10162
  156.1363  130.4156  150.0180 H   0  0  0  0  0  0  0  0  0  0  0  0  # atno 10718 bound_to 10713
  154.0893  135.6580  153.4850 H   0  0  0  0  0  0  0  0  0  0  0  0  # atno 10763 bound_to 10752
  153.0327  135.5198  154.7397 H   0  0  0  0  0  0  0  0  0  0  0  0  # atno 10764 bound_to 10752
  154.6515  135.3002  154.9949 H   0  0  0  0  0  0  0  0  0  0  0  0  # atno 10765 bound_to 10752
  141.1525  133.7812  157.0000 H   0  0  0  0  0  0  0  0  0  0  0  0  # atno 11005 bound_to 11000
  145.5368  141.0423  143.2353 LP  0  0  0  0  0  0  0  0  0  0  0  0  # atno 17320 bound_to 7965
  144.7641  139.6886  143.7222 LP  0  0  0  0  0  0  0  0  0  0  0  0  # atno 17321 bound_to 7965
  140.2916  143.3320  152.1057 LP  0  0  0  0  0  0  0  0  0  0  0  0  # atno 17342 bound_to 10162
  139.5033  144.6752  151.6146 LP  0  0  0  0  0  0  0  0  0  0  0  0  # atno 17343 bound_to 10162
  156.8078  130.9314  151.3645 LP  0  0  0  0  0  0  0  0  0  0  0  0  # atno 17370 bound_to 10713
  157.6535  130.8905  149.9681 LP  0  0  0  0  0  0  0  0  0  0  0  0  # atno 17371 bound_to 10713
  140.0946  134.9572  157.1829 LP  0  0  0  0  0  0  0  0  0  0  0  0  # atno 17394 bound_to 11000
  140.3400  134.2715  155.7213 LP  0  0  0  0  0  0  0  0  0  0  0  0  # atno 17395 bound_to 11000

$$$$
