AV-unprocessed.smi:3328|AV-procd|sdf|12793|dock9
  -GOLD-   2272019143D 1   1.00000     0.00000
 Structure written by MMmdl.
 40 41  0  0  0  0  0  0  0  0  1 V2000
  151.5796  145.8144  159.9538 C   0  0  0  0  0  0  0  0  0  0  0  0
  151.8285  144.4265  159.4377 C   0  0  0  0  0  0  0  0  0  0  0  0
  151.2583  143.8032  158.2913 C   0  0  0  0  0  0  0  0  0  0  0  0
  151.6913  142.5666  158.1088 N   0  0  0  0  0  0  0  0  0  0  0  0
  152.5461  142.3543  159.1320 N   0  0  0  0  0  0  0  0  0  0  0  0
  153.2253  141.0760  159.2582 C   0  0  0  0  0  0  0  0  0  0  0  0
  152.4545  139.9289  158.5743 C   0  0  2  0  0  0  0  0  0  0  0  0
  153.1124  138.5699  158.8722 C   0  0  0  0  0  0  0  0  0  0  0  0
  152.4290  140.1670  157.1348 N   0  0  0  0  0  0  0  0  0  0  0  0
  151.0756  140.2156  156.6039 C   0  0  0  0  0  0  0  0  0  0  0  0
  151.0802  139.7114  155.1532 C   0  0  0  0  0  0  0  0  0  0  0  0
  149.7397  139.7416  154.5761 N   0  0  0  0  0  0  0  0  0  0  0  0
  149.0154  138.5090  154.3170 C   0  0  0  0  0  0  0  0  0  0  0  0
  147.7633  138.9389  153.5388 C   0  0  0  0  0  0  0  0  0  0  0  0
  147.6712  140.4598  153.7047 C   0  0  0  0  0  0  0  0  0  0  0  0
  149.0301  140.8346  154.2712 C   0  0  0  0  0  0  0  0  0  0  0  0
  149.3940  142.0005  154.4165 O   0  0  0  0  0  0  0  0  0  0  0  0
  152.6508  143.4615  159.9467 C   0  0  0  0  0  0  0  0  0  0  0  0
  150.7295  146.2847  159.4590 H   0  0  0  0  0  0  0  0  0  0  0  0
  152.4421  146.4618  159.7954 H   0  0  0  0  0  0  0  0  0  0  0  0
  151.3683  145.8143  161.0233 H   0  0  0  0  0  0  0  0  0  0  0  0
  150.5470  144.2125  157.5892 H   0  0  0  0  0  0  0  0  0  0  0  0
  154.2368  141.1602  158.8563 H   0  0  0  0  0  0  0  0  0  0  0  0
  153.3332  140.8676  160.3234 H   0  0  0  0  0  0  0  0  0  0  0  0
  151.4338  139.9250  158.9595 H   0  0  0  0  0  0  0  0  0  0  0  0
  153.1783  138.3993  159.9470 H   0  0  0  0  0  0  0  0  0  0  0  0
  154.1244  138.5205  158.4688 H   0  0  0  0  0  0  0  0  0  0  0  0
  152.5449  137.7394  158.4534 H   0  0  0  0  0  0  0  0  0  0  0  0
  152.9758  139.4665  156.6545 H   0  0  0  0  0  0  0  0  0  0  0  0
  150.4098  139.6022  157.2103 H   0  0  0  0  0  0  0  0  0  0  0  0
  150.7044  141.2405  156.6415 H   0  0  0  0  0  0  0  0  0  0  0  0
  151.7479  140.3246  154.5459 H   0  0  0  0  0  0  0  0  0  0  0  0
  151.4684  138.6925  155.1066 H   0  0  0  0  0  0  0  0  0  0  0  0
  149.6227  137.8028  153.7493 H   0  0  0  0  0  0  0  0  0  0  0  0
  148.7459  138.0437  155.2660 H   0  0  0  0  0  0  0  0  0  0  0  0
  147.8744  138.6883  152.4830 H   0  0  0  0  0  0  0  0  0  0  0  0
  146.8683  138.4335  153.9034 H   0  0  0  0  0  0  0  0  0  0  0  0
  147.4795  140.9672  152.7587 H   0  0  0  0  0  0  0  0  0  0  0  0
  146.8928  140.7370  154.4161 H   0  0  0  0  0  0  0  0  0  0  0  0
  153.2942  143.4696  160.8141 H   0  0  0  0  0  0  0  0  0  0  0  0
  1  2  1  0  0  0  0
  1 19  1  0  0  0  0
  1 20  1  0  0  0  0
  1 21  1  0  0  0  0
  2 18  2  0  0  0  0
  2  3  1  0  0  0  0
  3  4  2  0  0  0  0
  3 22  1  0  0  0  0
  4  5  1  0  0  0  0
  5  6  1  0  0  0  0
  5 18  1  0  0  0  0
  6  7  1  0  0  0  0
  6 23  1  0  0  0  0
  6 24  1  0  0  0  0
  7  8  1  0  0  0  0
  7  9  1  0  0  0  0
  7 25  1  0  0  0  0
  8 26  1  0  0  0  0
  8 27  1  0  0  0  0
  8 28  1  0  0  0  0
  9 10  1  0  0  0  0
  9 29  1  0  0  0  0
 10 11  1  0  0  0  0
 10 30  1  0  0  0  0
 10 31  1  0  0  0  0
 11 12  1  0  0  0  0
 11 32  1  0  0  0  0
 11 33  1  0  0  0  0
 12 16  1  0  0  0  0
 12 13  1  0  0  0  0
 13 14  1  0  0  0  0
 13 34  1  0  0  0  0
 13 35  1  0  0  0  0
 14 15  1  0  0  0  0
 14 36  1  0  0  0  0
 14 37  1  0  0  0  0
 15 16  1  0  0  0  0
 15 38  1  0  0  0  0
 15 39  1  0  0  0  0
 16 17  2  0  0  0  0
 18 40  1  0  0  0  0
M  END
> <s_m_source_file>
AV-unprocessed.smi

> <i_m_source_file_index>
3328

> <i_lp_mmshare_version>
43012

> <i_f3d_flags>
0

> <s_epik_input>
W0NIM11jMVtjSF1ubihbY0hdMSlbQ0gyXVtDQEhdKFtDSDNdKVtOSF1bQ0gyXVtDSDJdTjJbQ0gyXVtDSDJdW0NIMl1DMj1P

> <s_epik_cmdline>
J2VwaWtfcHl0aG9uJywgJy1waCcsICc3LjAnLCAnLXRuJywgJzgnLCAnLW1hJywgJzIwMCcsICctbWV0YWxfYmluZGluZycsICctaW1hZScsICc8aW5maWxlLm1hZT4nLCAnLW9tYWUnLCAnPG91dGZpbGUubWFlPic=

> <r_lp_tautomer_probability>
1

> <r_epik_Ionization_Penalty>
2.53591

> <r_epik_Ionization_Penalty_Charging>
0

> <r_epik_Ionization_Penalty_Neutral>
2.53591

> <r_epik_State_Penalty>
2.70334

> <r_epik_Charging_Adjusted_Penalty>
2.70334

> <i_epik_Tot_Q>
0

> <i_epik_Tot_abs_Q>
0

> <r_epik_Metal_State_Penalty>
2.70327

> <b_epik_Metal_Only>
0

> <s_lp_Force_Field>
OPLS_2005

> <r_lp_Energy>
20.4488

> <b_lp_Chiralities_Consistent>
1

> <s_lp_Variant>
AV-unprocessed.smi:3328-3

> <Gold.Version>
5.8.1

> <Gold.Id.Protein>
6NUR|6NUR_protein|mol2

> <Gold.PLP.Fitness>
40.8027

> <Gold.PLP.PLP>
-40.3914

> <Gold.PLP.part.hbond>
-3.0000

> <Gold.PLP.part.metal>
0.0000

> <Gold.PLP.part.buried>
1.4531

> <Gold.PLP.part.nonpolar>
-37.3167

> <Gold.PLP.part.repulsive>
0.3447

> <Gold.PLP.ligand.clash>
0.0000

> <Gold.PLP.ligand.torsion>
1.3906

> <Gold.PLP.Chemscore.Hbond>
0.2870

> <Gold.PLP.Chemscore.CHOScore>
0.7563

> <Gold.PLP.Chemscore.Metal>
0.0000

> <Gold.Chemscore.Hbonds>
donor molecule, donor type, donor heavy atom, donor atom, acceptor molecule, acceptor atom, score
      P1  H  8011  8017       L1    17  0.22
      L1  C     3    22       P1  8028  0.91

> <Gold.PLP.Chemscore.Internal.Correction>
0.0627

> <Gold.Rescore>
     Score         DG    S(hbond)    S(metal)    S(lipo)     H(rot)  DE(clash)    DE(int)     intcor
     11.40     -13.84       0.59        0.00      96.07       1.89       0.20       2.25       ----

> <Gold.Chemscore.Fitness>
11.4002

> <Gold.Chemscore.DG>
-13.8447

> <Gold.Chemscore.ZeroCoef>
-5.4800

> <Gold.Chemscore.Hbond>
0.5894

> <Gold.Chemscore.Metal>
0.0000

> <Gold.Chemscore.Lipo>
96.0654

> <Gold.Chemscore.Internal_Hbond>
0.0000

> <Gold.Chemscore.DEClash>
0.1991

> <Gold.Chemscore.DEInternal>
2.2455

> <Gold.Chemscore.Rot>
1.8920

> <Gold.Chemscore.Internal.Correction>
   9.000000E+99

> <Gold.Chemscore.Hbonds>
donor molecule, donor type, donor heavy atom, donor atom, acceptor molecule, acceptor atom, score
      P1  H  8011  8017       L1    17  0.04

> <Gold.Chemscore.Hbond.Weighted>
-1.9685

> <Gold.Chemscore.Metal.Weighted>
-0.0000

> <Gold.Chemscore.Lipo.Weighted>
-11.2397

> <Gold.Chemscore.Internal_Hbond.Weighted>
0.0000

> <Gold.Chemscore.DEClash.Weighted>
0.1991

> <Gold.Chemscore.DEInternal.Weighted>
2.2455

> <Gold.Chemscore.Rot.Weighted>
4.8435

> <Gold.Chemscore.Internal.Correction.Weighted>
   9.000000E+99

> <Gold.Protein.RotatedTorsions>
[ 6907 6896 6895 6894 ] final  119.62 input  -60.11 | X-H torsion
[ 7974 7965 7964 7962 ] final  124.46 input  175.53 | X-H torsion
[ 8008 7997 7996 7995 ] final  130.52 input   59.86 | X-H torsion
[ 10167 10162 10161 10158 ] final  107.25 input  -65.29 | X-H torsion
[ 10718 10713 10712 10709 ] final -115.26 input   66.30 | X-H torsion
[ 10763 10752 10751 10750 ] final  113.89 input  -60.55 | X-H torsion
[ 11005 11000 10999 10996 ] final   94.92 input  -57.11 | X-H torsion

> <Gold.Protein.ActiveResidues>
 VAL166  LYS551  ARG553  GLY616  TRP617  ASP618  TYR619  PRO620  LYS621  CYS622 
 ASP623  PHE694  ASN695  SER759  ASP760  ASP761  ALA762  ILE779  LEU786  VAL792 
 PHE793  MET794  SER795  GLU796  ALA797  LYS798  CYS799  TRP800  GLU811  SER814 

> <Gold.Protein.RotatedAtoms>
  152.4459  133.7534  159.6706 H   0  0  0  0  0  0  0  0  0  0  0  0  # atno 6907 bound_to 6896
  150.8358  133.8005  159.3086 H   0  0  0  0  0  0  0  0  0  0  0  0  # atno 6908 bound_to 6896
  151.5645  135.1067  160.0032 H   0  0  0  0  0  0  0  0  0  0  0  0  # atno 6909 bound_to 6896
  145.0841  139.3635  143.4894 H   0  0  0  0  0  0  0  0  0  0  0  0  # atno 7974 bound_to 7965
  156.2956  140.2594  156.2775 H   0  0  0  0  0  0  0  0  0  0  0  0  # atno 8008 bound_to 7997
  154.9635  140.0392  157.2219 H   0  0  0  0  0  0  0  0  0  0  0  0  # atno 8009 bound_to 7997
  154.7925  140.2814  155.5986 H   0  0  0  0  0  0  0  0  0  0  0  0  # atno 8010 bound_to 7997
  139.6943  144.7103  151.1295 H   0  0  0  0  0  0  0  0  0  0  0  0  # atno 10167 bound_to 10162
  156.0884  130.6071  150.8882 H   0  0  0  0  0  0  0  0  0  0  0  0  # atno 10718 bound_to 10713
  153.4991  135.3642  155.2531 H   0  0  0  0  0  0  0  0  0  0  0  0  # atno 10763 bound_to 10752
  154.8748  135.3995  154.3499 H   0  0  0  0  0  0  0  0  0  0  0  0  # atno 10764 bound_to 10752
  153.4132  135.7078  153.6411 H   0  0  0  0  0  0  0  0  0  0  0  0  # atno 10765 bound_to 10752
  139.8794  134.8871  156.3934 H   0  0  0  0  0  0  0  0  0  0  0  0  # atno 11005 bound_to 11000
  146.3531  140.0645  142.8627 LP  0  0  0  0  0  0  0  0  0  0  0  0  # atno 17320 bound_to 7965
  145.1143  140.9424  143.4638 LP  0  0  0  0  0  0  0  0  0  0  0  0  # atno 17321 bound_to 7965
  140.7692  143.5514  150.9200 LP  0  0  0  0  0  0  0  0  0  0  0  0  # atno 17342 bound_to 10162
  139.9193  143.6625  152.3100 LP  0  0  0  0  0  0  0  0  0  0  0  0  # atno 17343 bound_to 10162
  157.6025  131.0940  150.8935 LP  0  0  0  0  0  0  0  0  0  0  0  0  # atno 17370 bound_to 10713
  156.9090  130.5274  149.5281 LP  0  0  0  0  0  0  0  0  0  0  0  0  # atno 17371 bound_to 10713
  140.9317  133.7575  156.0033 LP  0  0  0  0  0  0  0  0  0  0  0  0  # atno 17394 bound_to 11000
  140.8323  134.3164  157.5344 LP  0  0  0  0  0  0  0  0  0  0  0  0  # atno 17395 bound_to 11000

$$$$
