AV-unprocessed.smi:35|AV-procd|sdf|254|dock3
  -GOLD-   2262016 13D 1   1.00000     0.00000
 Structure written by MMmdl.
 29 30  0  0  0  0  0  0  0  0  1 V2000
  153.1683  140.7976  161.3546 O   0  0  0  0  0  0  0  0  0  0  0  0
  152.7595  140.8467  160.1964 C   0  0  0  0  0  0  0  0  0  0  0  0
  152.2595  142.0428  159.6745 N   0  0  0  0  0  0  0  0  0  0  0  0
  151.7691  142.2193  158.3793 C   0  0  0  0  0  0  0  0  0  0  0  0
  151.3408  143.3174  158.0265 O   0  0  0  0  0  0  0  0  0  0  0  0
  151.7811  141.0959  157.5226 N   0  0  0  0  0  0  0  0  0  0  0  0
  151.2546  141.2644  156.1087 C   0  0  1  0  0  0  0  0  0  0  0  0
  151.5547  140.1263  155.3540 O   0  0  0  0  0  0  0  0  0  0  0  0
  150.3707  139.3732  155.1089 C   0  0  2  0  0  0  0  0  0  0  0  0
  150.5357  138.4628  153.8803 C   0  0  0  0  0  0  0  0  0  0  0  0
  149.3275  138.4131  153.1526 O   0  0  0  0  0  0  0  0  0  0  0  0
  149.2937  140.4581  154.9915 C   0  0  2  0  0  0  0  0  0  0  0  0
  149.3029  141.0524  153.7057 O   0  0  0  0  0  0  0  0  0  0  0  0
  149.7202  141.4689  156.0477 C   0  0  1  0  0  0  0  0  0  0  0  0
  149.0542  141.1888  157.2676 O   0  0  0  0  0  0  0  0  0  0  0  0
  152.2683  139.8842  157.9987 C   0  0  0  0  0  0  0  0  0  0  0  0
  152.7389  139.7294  159.2587 C   0  0  0  0  0  0  0  0  0  0  0  0
  153.3883  137.9221  159.7453 Br  0  0  0  0  0  0  0  0  0  0  0  0
  152.2502  142.8456  160.2869 H   0  0  0  0  0  0  0  0  0  0  0  0
  151.8180  142.0948  155.6785 H   0  0  0  0  0  0  0  0  0  0  0  0
  150.1408  138.7705  155.9892 H   0  0  0  0  0  0  0  0  0  0  0  0
  151.3006  138.8651  153.2153 H   0  0  0  0  0  0  0  0  0  0  0  0
  150.8458  137.4570  154.1655 H   0  0  0  0  0  0  0  0  0  0  0  0
  149.4310  138.9259  152.3653 H   0  0  0  0  0  0  0  0  0  0  0  0
  148.2937  140.0596  155.1698 H   0  0  0  0  0  0  0  0  0  0  0  0
  149.0478  140.4006  153.0705 H   0  0  0  0  0  0  0  0  0  0  0  0
  149.4944  142.4968  155.7600 H   0  0  0  0  0  0  0  0  0  0  0  0
  148.6437  141.9844  157.5710 H   0  0  0  0  0  0  0  0  0  0  0  0
  152.2826  139.0171  157.3571 H   0  0  0  0  0  0  0  0  0  0  0  0
  1  2  2  0  0  0  0
  2 17  1  0  0  0  0
  2  3  1  0  0  0  0
  3 19  1  0  0  0  0
  3  4  1  0  0  0  0
  4  5  2  0  0  0  0
  4  6  1  0  0  0  0
  6  7  1  0  0  0  0
  6 16  1  0  0  0  0
  7 14  1  0  0  0  0
  7  8  1  0  0  0  0
  7 20  1  0  0  0  0
  8  9  1  0  0  0  0
  9 10  1  0  0  0  0
  9 12  1  0  0  0  0
  9 21  1  0  0  0  0
 10 11  1  0  0  0  0
 10 22  1  0  0  0  0
 10 23  1  0  0  0  0
 11 24  1  0  0  0  0
 12 13  1  0  0  0  0
 12 14  1  0  0  0  0
 12 25  1  0  0  0  0
 13 26  1  0  0  0  0
 14 15  1  0  0  0  0
 14 27  1  0  0  0  0
 15 28  1  0  0  0  0
 16 17  2  0  0  0  0
 16 29  1  0  0  0  0
 17 18  1  0  0  0  0
M  END
> <s_m_source_file>
AV-unprocessed.smi

> <i_m_source_file_index>
35

> <i_lp_mmshare_version>
43012

> <i_f3d_flags>
0

> <s_epik_input>
Tz1jMVtuSF1jKD1PKW4oW2NIXWMxQnIpW0NAQEhdMk9bQ0BASF0oW0NIMl1bT0hdKVtDQEBIXShbT0hdKVtDQEhdMltPSF0=

> <s_epik_cmdline>
J2VwaWtfcHl0aG9uJywgJy1waCcsICc3LjAnLCAnLXRuJywgJzgnLCAnLW1hJywgJzIwMCcsICctbWV0YWxfYmluZGluZycsICctaW1hZScsICc8aW5maWxlLm1hZT4nLCAnLW9tYWUnLCAnPG91dGZpbGUubWFlPic=

> <r_lp_tautomer_probability>
0.999537

> <r_epik_Ionization_Penalty>
0.10812

> <r_epik_Ionization_Penalty_Charging>
0.108119

> <r_epik_Ionization_Penalty_Neutral>
4.93006e-07

> <r_epik_State_Penalty>
0.0979238

> <r_epik_Charging_Adjusted_Penalty>
0.206043

> <i_epik_Tot_Q>
0

> <i_epik_Tot_abs_Q>
0

> <r_epik_Metal_State_Penalty>
3.07911

> <b_epik_Metal_Only>
0

> <s_epik_Chemistry_Notes>
This compound contains an acetal/aminal-like group ( X-CH(R)-Y where X, Y are N, S, or O) that may be acid/base labile, releasing an aldehyde.

> <s_lp_Force_Field>
OPLS_2005

> <r_lp_Energy>
33.5115

> <b_lp_Chiralities_Consistent>
1

> <s_lp_Variant>
AV-unprocessed.smi:35-8

> <Gold.Version>
5.8.1

> <Gold.Id.Protein>
6NUR|6NUR_protein|mol2

> <Gold.PLP.Fitness>
37.3863

> <Gold.PLP.PLP>
-28.4941

> <Gold.PLP.part.hbond>
-5.8661

> <Gold.PLP.part.metal>
0.0000

> <Gold.PLP.part.buried>
-6.5870

> <Gold.PLP.part.nonpolar>
-15.9849

> <Gold.PLP.part.repulsive>
0.2071

> <Gold.PLP.ligand.clash>
0.0000

> <Gold.PLP.ligand.torsion>
0.6737

> <Gold.PLP.Chemscore.Hbond>
3.3922

> <Gold.PLP.Chemscore.CHOScore>
0.0000

> <Gold.PLP.Chemscore.Metal>
0.0000

> <Gold.Chemscore.Hbonds>
donor molecule, donor type, donor heavy atom, donor atom, acceptor molecule, acceptor atom, score
      L1  H    11    24       P1  7957  1.00
      L1  H    13    26       P1  7957  0.66
      P1  H  7989  7998       L1     8  0.73
      P1  H  8011  8017       L1    13  0.69

> <Gold.PLP.Chemscore.Internal.Correction>
0.0631

> <Gold.Rescore>
     Score         DG    S(hbond)    S(metal)    S(lipo)     H(rot)  DE(clash)    DE(int)     intcor
      6.07      -6.82       1.63        0.00      45.11       3.67       0.02       0.73       ----

> <Gold.Chemscore.Fitness>
6.0684

> <Gold.Chemscore.DG>
-6.8202

> <Gold.Chemscore.ZeroCoef>
-5.4800

> <Gold.Chemscore.Hbond>
1.6342

> <Gold.Chemscore.Metal>
0.0000

> <Gold.Chemscore.Lipo>
45.1062

> <Gold.Chemscore.Internal_Hbond>
0.0000

> <Gold.Chemscore.DEClash>
0.0174

> <Gold.Chemscore.DEInternal>
0.7345

> <Gold.Chemscore.Rot>
3.6701

> <Gold.Chemscore.Internal.Correction>
   9.000000E+99

> <Gold.Chemscore.Hbonds>
donor molecule, donor type, donor heavy atom, donor atom, acceptor molecule, acceptor atom, score
      L1  H    11    24       P1  7957  0.82
      L1  H    13    26       P1  7957  0.62
      P1  H  7989  7998       L1     8  0.03
      P1  H  8011  8017       L1    13  0.07

> <Gold.Chemscore.Hbond.Weighted>
-5.4582

> <Gold.Chemscore.Metal.Weighted>
-0.0000

> <Gold.Chemscore.Lipo.Weighted>
-5.2774

> <Gold.Chemscore.Internal_Hbond.Weighted>
0.0000

> <Gold.Chemscore.DEClash.Weighted>
0.0174

> <Gold.Chemscore.DEInternal.Weighted>
0.7345

> <Gold.Chemscore.Rot.Weighted>
9.3955

> <Gold.Chemscore.Internal.Correction.Weighted>
   9.000000E+99

> <Gold.Protein.RotatedTorsions>
[ 6907 6896 6895 6894 ] final  112.69 input  -60.11 | X-H torsion
[ 7974 7965 7964 7962 ] final  125.73 input  175.53 | X-H torsion
[ 8008 7997 7996 7995 ] final   49.07 input   59.86 | X-H torsion
[ 10167 10162 10161 10158 ] final  113.86 input  -65.29 | X-H torsion
[ 10718 10713 10712 10709 ] final   72.01 input   66.30 | X-H torsion
[ 10763 10752 10751 10750 ] final  -32.05 input  -60.55 | X-H torsion
[ 11005 11000 10999 10996 ] final  136.70 input  -57.11 | X-H torsion

> <Gold.Protein.ActiveResidues>
 VAL166  LYS551  ARG553  GLY616  TRP617  ASP618  TYR619  PRO620  LYS621  CYS622 
 ASP623  PHE694  ASN695  SER759  ASP760  ASP761  ALA762  ILE779  LEU786  VAL792 
 PHE793  MET794  SER795  GLU796  ALA797  LYS798  CYS799  TRP800  GLU811  SER814 

> <Gold.Protein.RotatedAtoms>
  152.4903  133.8481  159.7186 H   0  0  0  0  0  0  0  0  0  0  0  0  # atno 6907 bound_to 6896
  150.9026  133.7090  159.2882 H   0  0  0  0  0  0  0  0  0  0  0  0  # atno 6908 bound_to 6896
  151.4526  135.1035  159.9754 H   0  0  0  0  0  0  0  0  0  0  0  0  # atno 6909 bound_to 6896
  145.0697  139.3739  143.4964 H   0  0  0  0  0  0  0  0  0  0  0  0  # atno 7974 bound_to 7965
  155.3962  140.3435  155.4254 H   0  0  0  0  0  0  0  0  0  0  0  0  # atno 8008 bound_to 7997
  156.1529  140.1576  156.8772 H   0  0  0  0  0  0  0  0  0  0  0  0  # atno 8009 bound_to 7997
  154.5069  140.0800  156.7893 H   0  0  0  0  0  0  0  0  0  0  0  0  # atno 8010 bound_to 7997
  139.6430  144.7125  151.2199 H   0  0  0  0  0  0  0  0  0  0  0  0  # atno 10167 bound_to 10162
  157.6480  130.9557  150.0870 H   0  0  0  0  0  0  0  0  0  0  0  0  # atno 10718 bound_to 10713
  153.8074  135.6885  153.4846 H   0  0  0  0  0  0  0  0  0  0  0  0  # atno 10763 bound_to 10752
  153.1650  135.4565  154.9823 H   0  0  0  0  0  0  0  0  0  0  0  0  # atno 10764 bound_to 10752
  154.7982  135.3327  154.7557 H   0  0  0  0  0  0  0  0  0  0  0  0  # atno 10765 bound_to 10752
  140.0064  134.9457  157.0183 H   0  0  0  0  0  0  0  0  0  0  0  0  # atno 11005 bound_to 11000
  146.3528  140.0436  142.8641 LP  0  0  0  0  0  0  0  0  0  0  0  0  # atno 17320 bound_to 7965
  145.1307  140.9516  143.4546 LP  0  0  0  0  0  0  0  0  0  0  0  0  # atno 17321 bound_to 7965
  140.7500  143.6279  150.8451 LP  0  0  0  0  0  0  0  0  0  0  0  0  # atno 17342 bound_to 10162
  139.9919  143.5838  152.2907 LP  0  0  0  0  0  0  0  0  0  0  0  0  # atno 17343 bound_to 10162
  156.1830  130.3651  149.9010 LP  0  0  0  0  0  0  0  0  0  0  0  0  # atno 17370 bound_to 10713
  156.6958  130.8914  151.3593 LP  0  0  0  0  0  0  0  0  0  0  0  0  # atno 17371 bound_to 10713
  140.4634  134.1461  155.7194 LP  0  0  0  0  0  0  0  0  0  0  0  0  # atno 17394 bound_to 11000
  141.1680  133.8666  157.1658 LP  0  0  0  0  0  0  0  0  0  0  0  0  # atno 17395 bound_to 11000

$$$$
