AV-unprocessed.smi:1954|AV-procd|sdf|7895|dock10
  -GOLD-   2272010 53D 1   1.00000     0.00000
 Structure written by MMmdl.
 44 46  0  0  0  0  0  0  0  0  1 V2000
  144.5682  136.5287  152.9727 O   0  0  0  0  0  0  0  0  0  0  0  0
  145.7609  136.4261  152.6846 C   0  0  0  0  0  0  0  0  0  0  0  0
  146.6969  137.3005  153.0803 N   0  0  0  0  0  0  0  0  0  0  0  0
  146.4653  138.4872  153.9034 C   0  0  0  0  0  0  0  0  0  0  0  0
  147.0427  138.3445  155.3511 C   0  0  2  0  0  0  0  0  0  0  0  0
  148.4537  138.8385  155.3986 N   0  0  0  0  0  0  0  0  0  0  0  0
  148.6569  140.2507  155.0441 C   0  0  0  0  0  0  0  0  0  0  0  0
  150.1224  140.6900  155.2021 C   0  0  0  0  0  0  0  0  0  0  0  0
  150.9622  139.8564  154.4153 O   0  0  0  0  0  0  0  0  0  0  0  0
  150.8532  138.4881  154.7821 C   0  0  0  0  0  0  0  0  0  0  0  0
  149.3964  138.0228  154.6207 C   0  0  0  0  0  0  0  0  0  0  0  0
  146.8936  136.8571  155.7858 C   0  0  0  0  0  0  0  0  0  0  0  0
  145.4111  136.5438  156.0130 C   0  0  0  0  0  0  0  0  0  0  0  0
  144.6357  138.0513  156.6416 S   0  0  0  0  0  0  0  0  0  0  0  0
  146.0913  139.0876  156.3240 C   0  0  0  0  0  0  0  0  0  0  0  0
  146.3006  135.4399  151.9471 N   0  0  0  0  0  0  0  0  0  0  0  0
  145.6461  134.3264  151.3565 C   0  0  0  0  0  0  0  0  0  0  0  0
  146.5050  133.3640  150.7787 C   0  0  0  0  0  0  0  0  0  0  0  0
  145.9537  132.2219  150.1662 C   0  0  0  0  0  0  0  0  0  0  0  0
  144.5560  132.0704  150.1483 C   0  0  0  0  0  0  0  0  0  0  0  0
  143.7726  133.0742  150.7472 C   0  0  0  0  0  0  0  0  0  0  0  0
  144.2986  134.1697  151.3344 N   0  0  0  0  0  0  0  0  0  0  0  0
  147.6524  137.1267  152.8048 H   0  0  0  0  0  0  0  0  0  0  0  0
  146.9135  139.3346  153.3868 H   0  0  0  0  0  0  0  0  0  0  0  0
  145.4042  138.7358  153.9126 H   0  0  0  0  0  0  0  0  0  0  0  0
  148.3444  140.4386  154.0177 H   0  0  0  0  0  0  0  0  0  0  0  0
  148.0697  140.9040  155.6848 H   0  0  0  0  0  0  0  0  0  0  0  0
  150.2441  141.7241  154.8789 H   0  0  0  0  0  0  0  0  0  0  0  0
  150.4282  140.6446  156.2486 H   0  0  0  0  0  0  0  0  0  0  0  0
  151.5119  137.8966  154.1462 H   0  0  0  0  0  0  0  0  0  0  0  0
  151.1914  138.3496  155.8102 H   0  0  0  0  0  0  0  0  0  0  0  0
  149.3578  136.9795  154.9256 H   0  0  0  0  0  0  0  0  0  0  0  0
  149.1300  138.0518  153.5637 H   0  0  0  0  0  0  0  0  0  0  0  0
  147.3523  136.1599  155.0851 H   0  0  0  0  0  0  0  0  0  0  0  0
  147.3689  136.6780  156.7475 H   0  0  0  0  0  0  0  0  0  0  0  0
  144.9252  136.2602  155.0795 H   0  0  0  0  0  0  0  0  0  0  0  0
  145.2743  135.7186  156.7123 H   0  0  0  0  0  0  0  0  0  0  0  0
  146.5615  139.2586  157.2910 H   0  0  0  0  0  0  0  0  0  0  0  0
  145.7831  140.0627  155.9456 H   0  0  0  0  0  0  0  0  0  0  0  0
  147.2958  135.4921  151.7885 H   0  0  0  0  0  0  0  0  0  0  0  0
  147.5771  133.4963  150.8010 H   0  0  0  0  0  0  0  0  0  0  0  0
  146.5933  131.4757  149.7183 H   0  0  0  0  0  0  0  0  0  0  0  0
  144.0962  131.2085  149.6880 H   0  0  0  0  0  0  0  0  0  0  0  0
  142.6956  132.9960  150.7559 H   0  0  0  0  0  0  0  0  0  0  0  0
  1  2  2  0  0  0  0
  2  3  1  0  0  0  0
  2 16  1  0  0  0  0
  3  4  1  0  0  0  0
  3 23  1  0  0  0  0
  4  5  1  0  0  0  0
  4 24  1  0  0  0  0
  4 25  1  0  0  0  0
  5 15  1  0  0  0  0
  5  6  1  0  0  0  0
  5 12  1  0  0  0  0
  6 11  1  0  0  0  0
  6  7  1  0  0  0  0
  7  8  1  0  0  0  0
  7 26  1  0  0  0  0
  7 27  1  0  0  0  0
  8  9  1  0  0  0  0
  8 28  1  0  0  0  0
  8 29  1  0  0  0  0
  9 10  1  0  0  0  0
 10 11  1  0  0  0  0
 10 30  1  0  0  0  0
 10 31  1  0  0  0  0
 11 32  1  0  0  0  0
 11 33  1  0  0  0  0
 12 13  1  0  0  0  0
 12 34  1  0  0  0  0
 12 35  1  0  0  0  0
 13 14  1  0  0  0  0
 13 36  1  0  0  0  0
 13 37  1  0  0  0  0
 14 15  1  0  0  0  0
 15 38  1  0  0  0  0
 15 39  1  0  0  0  0
 16 17  1  0  0  0  0
 16 40  1  0  0  0  0
 17 22  1  0  0  0  0
 17 18  2  0  0  0  0
 18 19  1  0  0  0  0
 18 41  1  0  0  0  0
 19 20  2  0  0  0  0
 19 42  1  0  0  0  0
 20 21  1  0  0  0  0
 20 43  1  0  0  0  0
 21 22  2  0  0  0  0
 21 44  1  0  0  0  0
M  END
> <s_m_source_file>
AV-unprocessed.smi

> <i_m_source_file_index>
1954

> <i_lp_mmshare_version>
43012

> <i_f3d_flags>
0

> <s_epik_input>
bjFbY0hdW2NIXVtjSF1bY0hdYzFbTkhdQyg9TylbTkhdW0NIMl1bQ0BdMihbQ0gyXVtDSDJdU1tDSDJdMilOM1tDSDJdW0NIMl1PW0NIMl1bQ0gyXTM=

> <s_epik_cmdline>
J2VwaWtfcHl0aG9uJywgJy1waCcsICc3LjAnLCAnLXRuJywgJzgnLCAnLW1hJywgJzIwMCcsICctbWV0YWxfYmluZGluZycsICctaW1hZScsICc8aW5maWxlLm1hZT4nLCAnLW9tYWUnLCAnPG91dGZpbGUubWFlPic=

> <r_epik_Ionization_Penalty>
0.0195535

> <r_epik_Ionization_Penalty_Charging>
0

> <r_epik_Ionization_Penalty_Neutral>
0.0195535

> <r_epik_State_Penalty>
0.0155843

> <r_epik_Charging_Adjusted_Penalty>
0.0155843

> <i_epik_Tot_Q>
0

> <i_epik_Tot_abs_Q>
0

> <r_epik_Metal_State_Penalty>
0.0155842

> <b_epik_Metal_Only>
0

> <s_lp_Force_Field>
OPLS_2005

> <r_lp_Energy>
55.0934

> <b_lp_Chiralities_Consistent>
1

> <s_lp_Variant>
AV-unprocessed.smi:1954-2

> <Gold.Version>
5.8.1

> <Gold.Id.Protein>
6NUR|6NUR_protein|mol2

> <Gold.PLP.Fitness>
38.4146

> <Gold.PLP.PLP>
-27.7391

> <Gold.PLP.part.hbond>
-3.0000

> <Gold.PLP.part.metal>
0.0000

> <Gold.PLP.part.buried>
-4.9084

> <Gold.PLP.part.nonpolar>
-21.2330

> <Gold.PLP.part.repulsive>
0.5118

> <Gold.PLP.ligand.clash>
0.0502

> <Gold.PLP.ligand.torsion>
0.6713

> <Gold.PLP.Chemscore.Hbond>
3.0000

> <Gold.PLP.Chemscore.CHOScore>
1.0000

> <Gold.PLP.Chemscore.Metal>
0.0000

> <Gold.Chemscore.Hbonds>
donor molecule, donor type, donor heavy atom, donor atom, acceptor molecule, acceptor atom, score
      L1  H     3    23       P1  7948  1.00
      L1  H    16    40       P1  7948  1.00
      P1  H  7989  7998       L1     9  0.98
      L1  C    21    44       P1 10186  0.98

> <Gold.PLP.Chemscore.Internal.Correction>
0.0684

> <Gold.Rescore>
     Score         DG    S(hbond)    S(metal)    S(lipo)     H(rot)  DE(clash)    DE(int)     intcor
     17.39     -19.43       2.93        0.00      68.31       1.49       0.15       1.90       ----

> <Gold.Chemscore.Fitness>
17.3895

> <Gold.Chemscore.DG>
-19.4342

> <Gold.Chemscore.ZeroCoef>
-5.4800

> <Gold.Chemscore.Hbond>
2.9303

> <Gold.Chemscore.Metal>
0.0000

> <Gold.Chemscore.Lipo>
68.3058

> <Gold.Chemscore.Internal_Hbond>
0.0000

> <Gold.Chemscore.DEClash>
0.1454

> <Gold.Chemscore.DEInternal>
1.8993

> <Gold.Chemscore.Rot>
1.4940

> <Gold.Chemscore.Internal.Correction>
   9.000000E+99

> <Gold.Chemscore.Hbonds>
donor molecule, donor type, donor heavy atom, donor atom, acceptor molecule, acceptor atom, score
      L1  H     3    23       P1  7948  0.97
      L1  H    16    40       P1  7948  0.99
      P1  H  7989  7998       L1     9  0.32

> <Gold.Chemscore.Hbond.Weighted>
-9.7871

> <Gold.Chemscore.Metal.Weighted>
-0.0000

> <Gold.Chemscore.Lipo.Weighted>
-7.9918

> <Gold.Chemscore.Internal_Hbond.Weighted>
0.0000

> <Gold.Chemscore.DEClash.Weighted>
0.1454

> <Gold.Chemscore.DEInternal.Weighted>
1.8993

> <Gold.Chemscore.Rot.Weighted>
3.8246

> <Gold.Chemscore.Internal.Correction.Weighted>
   9.000000E+99

> <Gold.Protein.RotatedTorsions>
[ 6907 6896 6895 6894 ] final  -37.30 input  -60.11 | X-H torsion
[ 7974 7965 7964 7962 ] final   66.12 input  175.53 | X-H torsion
[ 8008 7997 7996 7995 ] final -116.65 input   59.86 | X-H torsion
[ 10167 10162 10161 10158 ] final  -41.37 input  -65.29 | X-H torsion
[ 10718 10713 10712 10709 ] final   35.31 input   66.30 | X-H torsion
[ 10763 10752 10751 10750 ] final  -44.01 input  -60.55 | X-H torsion
[ 11005 11000 10999 10996 ] final  -68.17 input  -57.11 | X-H torsion

> <Gold.Protein.ActiveResidues>
 VAL166  LYS551  ARG553  GLY616  TRP617  ASP618  TYR619  PRO620  LYS621  CYS622 
 ASP623  PHE694  ASN695  SER759  ASP760  ASP761  ALA762  ILE779  LEU786  VAL792 
 PHE793  MET794  SER795  GLU796  ALA797  LYS798  CYS799  TRP800  GLU811  SER814 

> <Gold.Protein.RotatedAtoms>
  151.0164  134.9436  159.8035 H   0  0  0  0  0  0  0  0  0  0  0  0  # atno 6907 bound_to 6896
  152.5315  134.2961  159.9071 H   0  0  0  0  0  0  0  0  0  0  0  0  # atno 6908 bound_to 6896
  151.2968  133.4098  159.2671 H   0  0  0  0  0  0  0  0  0  0  0  0  # atno 6909 bound_to 6896
  145.8304  139.3135  143.0991 H   0  0  0  0  0  0  0  0  0  0  0  0  # atno 7974 bound_to 7965
  155.0712  140.0393  157.2609 H   0  0  0  0  0  0  0  0  0  0  0  0  # atno 8008 bound_to 7997
  154.6981  140.2667  155.6721 H   0  0  0  0  0  0  0  0  0  0  0  0  # atno 8009 bound_to 7997
  156.2751  140.2746  156.1583 H   0  0  0  0  0  0  0  0  0  0  0  0  # atno 8010 bound_to 7997
  140.7004  143.3098  151.3057 H   0  0  0  0  0  0  0  0  0  0  0  0  # atno 10167 bound_to 10162
  157.3211  130.7449  149.6786 H   0  0  0  0  0  0  0  0  0  0  0  0  # atno 10718 bound_to 10713
  154.0051  135.6688  153.4761 H   0  0  0  0  0  0  0  0  0  0  0  0  # atno 10763 bound_to 10752
  153.0645  135.5008  154.8166 H   0  0  0  0  0  0  0  0  0  0  0  0  # atno 10764 bound_to 10752
  154.7030  135.3082  154.9276 H   0  0  0  0  0  0  0  0  0  0  0  0  # atno 10765 bound_to 10752
  141.1525  133.6735  156.6405 H   0  0  0  0  0  0  0  0  0  0  0  0  # atno 11005 bound_to 11000
  145.9578  140.8859  143.0226 LP  0  0  0  0  0  0  0  0  0  0  0  0  # atno 17320 bound_to 7965
  144.6740  140.1769  143.7409 LP  0  0  0  0  0  0  0  0  0  0  0  0  # atno 17321 bound_to 7965
  139.6517  144.0350  152.2631 LP  0  0  0  0  0  0  0  0  0  0  0  0  # atno 17342 bound_to 10162
  139.9889  144.6376  150.7833 LP  0  0  0  0  0  0  0  0  0  0  0  0  # atno 17343 bound_to 10162
  155.9686  130.4223  150.4508 LP  0  0  0  0  0  0  0  0  0  0  0  0  # atno 17370 bound_to 10713
  157.2524  131.0549  151.2371 LP  0  0  0  0  0  0  0  0  0  0  0  0  # atno 17371 bound_to 10713
  140.3397  134.7859  157.4388 LP  0  0  0  0  0  0  0  0  0  0  0  0  # atno 17394 bound_to 11000
  140.0948  134.5552  155.8409 LP  0  0  0  0  0  0  0  0  0  0  0  0  # atno 17395 bound_to 11000

$$$$
