AV-unprocessed.smi:1788|AV-procd|sdf|7211|dock2
  -GOLD-   22720 8453D 1   1.00000     0.00000
 Structure written by MMmdl.
 55 57  0  0  0  0  0  0  0  0  2 V2000
  146.7244  133.4023  151.5102 C   0  0  0  0  0  0  0  0  0  0  0  0
  145.3539  134.0621  151.2766 C   0  0  1  0  0  0  0  0  0  0  0  0
  144.5341  134.2117  152.5716 C   0  0  0  0  0  0  0  0  0  0  0  0
  145.0873  135.3394  153.4543 C   0  0  0  0  0  0  0  0  0  0  0  0
  145.2043  136.6521  152.6638 C   0  0  0  0  0  0  0  0  0  0  0  0
  146.0358  136.4723  151.4457 N   0  3  2  0  0  0  0  0  0  0  0  0
  146.2901  137.7557  150.7443 C   0  0  0  0  0  0  0  0  0  0  0  0
  146.4488  138.9364  151.7220 C   0  0  0  0  0  0  0  0  0  0  0  0
  147.7088  138.8619  152.4526 N   0  0  0  0  0  0  0  0  0  0  0  0
  148.0821  139.7097  153.4218 C   0  0  0  0  0  0  0  0  0  0  0  0
  147.3785  140.6421  153.8098 O   0  0  0  0  0  0  0  0  0  0  0  0
  149.2928  139.3898  153.9102 N   0  0  0  0  0  0  0  0  0  0  0  0
  150.0385  140.0431  154.9287 C   0  0  0  0  0  0  0  0  0  0  0  0
  151.2295  139.5355  155.4981 C   0  0  0  0  0  0  0  0  0  0  0  0
  151.8659  140.2702  156.5165 C   0  0  0  0  0  0  0  0  0  0  0  0
  151.2968  141.4905  156.9508 C   0  0  0  0  0  0  0  0  0  0  0  0
  151.9201  142.2410  157.9713 N   0  0  0  0  0  0  0  0  0  0  0  0
  151.5421  143.6454  158.1176 C   0  0  0  0  0  0  0  0  0  0  0  0
  152.5156  144.3654  159.0659 C   0  0  0  0  0  0  0  0  0  0  0  0
  152.5660  143.6787  160.3121 O   0  0  0  0  0  0  0  0  0  0  0  0
  153.0416  142.3451  160.1622 C   0  0  0  0  0  0  0  0  0  0  0  0
  152.0924  141.5514  159.2477 C   0  0  0  0  0  0  0  0  0  0  0  0
  150.1518  141.9707  156.4066 N   0  0  0  0  0  0  0  0  0  0  0  0
  149.5434  141.2622  155.4329 C   0  0  0  0  0  0  0  0  0  0  0  0
  145.4765  135.4196  150.5538 C   0  0  0  0  0  0  0  0  0  0  0  0
  147.3699  134.0139  152.1404 H   0  0  0  0  0  0  0  0  0  0  0  0
  147.2456  133.2400  150.5663 H   0  0  0  0  0  0  0  0  0  0  0  0
  146.6138  132.4307  151.9926 H   0  0  0  0  0  0  0  0  0  0  0  0
  144.7998  133.3910  150.6187 H   0  0  0  0  0  0  0  0  0  0  0  0
  143.4979  134.4372  152.3158 H   0  0  0  0  0  0  0  0  0  0  0  0
  144.5138  133.2720  153.1243 H   0  0  0  0  0  0  0  0  0  0  0  0
  144.4384  135.4840  154.3186 H   0  0  0  0  0  0  0  0  0  0  0  0
  146.0641  135.0592  153.8500 H   0  0  0  0  0  0  0  0  0  0  0  0
  144.2140  137.0123  152.3804 H   0  0  0  0  0  0  0  0  0  0  0  0
  145.6475  137.4139  153.3061 H   0  0  0  0  0  0  0  0  0  0  0  0
  147.1661  137.6516  150.1019 H   0  0  0  0  0  0  0  0  0  0  0  0
  145.4511  137.9795  150.0834 H   0  0  0  0  0  0  0  0  0  0  0  0
  146.4319  139.8777  151.1721 H   0  0  0  0  0  0  0  0  0  0  0  0
  145.6264  138.9813  152.4365 H   0  0  0  0  0  0  0  0  0  0  0  0
  148.3445  138.1202  152.1962 H   0  0  0  0  0  0  0  0  0  0  0  0
  149.7124  138.5484  153.5424 H   0  0  0  0  0  0  0  0  0  0  0  0
  151.6623  138.5979  155.1866 H   0  0  0  0  0  0  0  0  0  0  0  0
  152.7843  139.8952  156.9429 H   0  0  0  0  0  0  0  0  0  0  0  0
  151.5500  144.1422  157.1464 H   0  0  0  0  0  0  0  0  0  0  0  0
  150.5256  143.7077  158.5088 H   0  0  0  0  0  0  0  0  0  0  0  0
  153.5140  144.4228  158.6285 H   0  0  0  0  0  0  0  0  0  0  0  0
  152.1839  145.3895  159.2374 H   0  0  0  0  0  0  0  0  0  0  0  0
  154.0555  142.3522  159.7584 H   0  0  0  0  0  0  0  0  0  0  0  0
  153.0943  141.8753  161.1445 H   0  0  0  0  0  0  0  0  0  0  0  0
  151.1168  141.4474  159.7246 H   0  0  0  0  0  0  0  0  0  0  0  0
  152.4883  140.5455  159.1142 H   0  0  0  0  0  0  0  0  0  0  0  0
  148.6317  141.6885  155.0401 H   0  0  0  0  0  0  0  0  0  0  0  0
  146.0946  135.2979  149.6650 H   0  0  0  0  0  0  0  0  0  0  0  0
  144.4938  135.7383  150.2021 H   0  0  0  0  0  0  0  0  0  0  0  0
  146.9337  136.1404  151.7674 H   0  0  0  0  0  0  0  0  0  0  0  0
  1  2  1  0  0  0  0
  1 26  1  0  0  0  0
  1 27  1  0  0  0  0
  1 28  1  0  0  0  0
  2 25  1  0  0  0  0
  2  3  1  0  0  0  0
  2 29  1  0  0  0  0
  3  4  1  0  0  0  0
  3 30  1  0  0  0  0
  3 31  1  0  0  0  0
  4  5  1  0  0  0  0
  4 32  1  0  0  0  0
  4 33  1  0  0  0  0
  5  6  1  0  0  0  0
  5 34  1  0  0  0  0
  5 35  1  0  0  0  0
  6  7  1  0  0  0  0
  6 25  1  0  0  0  0
  6 55  1  0  0  0  0
  7  8  1  0  0  0  0
  7 36  1  0  0  0  0
  7 37  1  0  0  0  0
  8  9  1  0  0  0  0
  8 38  1  0  0  0  0
  8 39  1  0  0  0  0
  9 10  1  0  0  0  0
  9 40  1  0  0  0  0
 10 11  2  0  0  0  0
 10 12  1  0  0  0  0
 12 13  1  0  0  0  0
 12 41  1  0  0  0  0
 13 24  1  0  0  0  0
 13 14  2  0  0  0  0
 14 15  1  0  0  0  0
 14 42  1  0  0  0  0
 15 16  2  0  0  0  0
 15 43  1  0  0  0  0
 16 17  1  0  0  0  0
 16 23  1  0  0  0  0
 17 22  1  0  0  0  0
 17 18  1  0  0  0  0
 18 19  1  0  0  0  0
 18 44  1  0  0  0  0
 18 45  1  0  0  0  0
 19 20  1  0  0  0  0
 19 46  1  0  0  0  0
 19 47  1  0  0  0  0
 20 21  1  0  0  0  0
 21 22  1  0  0  0  0
 21 48  1  0  0  0  0
 21 49  1  0  0  0  0
 22 50  1  0  0  0  0
 22 51  1  0  0  0  0
 23 24  2  0  0  0  0
 24 52  1  0  0  0  0
 25 53  1  0  0  0  0
 25 54  1  0  0  0  0
M  CHG  1   6   1
M  END
> <s_m_source_file>
AV-unprocessed.smi

> <i_m_source_file_index>
1788

> <i_lp_mmshare_version>
43012

> <i_f3d_flags>
0

> <s_epik_input>
W0NIM11bQ0BASF0xW0NIMl1bQ0gyXVtDSDJdTihbQ0gyXTEpW0NIMl1bQ0gyXVtOSF1DKD1PKVtOSF1jMltjSF1bY0hdYyhuW2NIXTIpTjNbQ0gyXVtDSDJdT1tDSDJdW0NIMl0z

> <s_epik_cmdline>
J2VwaWtfcHl0aG9uJywgJy1waCcsICc3LjAnLCAnLXRuJywgJzgnLCAnLW1hJywgJzIwMCcsICctbWV0YWxfYmluZGluZycsICctaW1hZScsICc8aW5maWxlLm1hZT4nLCAnLW9tYWUnLCAnPG91dGZpbGUubWFlPic=

> <r_lp_tautomer_probability>
1

> <r_epik_Ionization_Penalty>
0.00340126

> <r_epik_Ionization_Penalty_Charging>
0.00171832

> <r_epik_Ionization_Penalty_Neutral>
0.00168294

> <r_epik_State_Penalty>
-0

> <r_epik_Charging_Adjusted_Penalty>
0.00171832

> <i_epik_Tot_Q>
1

> <i_epik_Tot_abs_Q>
1

> <r_epik_Metal_State_Penalty>
-0

> <b_epik_Metal_Only>
0

> <s_lp_Force_Field>
OPLS_2005

> <r_lp_Energy>
36.4544

> <b_lp_Chiralities_Consistent>
1

> <s_lp_Variant>
AV-unprocessed.smi:1788-2

> <Gold.Version>
5.8.1

> <Gold.Id.Protein>
6NUR|6NUR_protein|mol2

> <Gold.PLP.Fitness>
53.6870

> <Gold.PLP.PLP>
-45.2758

> <Gold.PLP.part.hbond>
-4.0000

> <Gold.PLP.part.metal>
0.0000

> <Gold.PLP.part.buried>
3.0323

> <Gold.PLP.part.nonpolar>
-44.8285

> <Gold.PLP.part.repulsive>
0.8258

> <Gold.PLP.ligand.clash>
0.0000

> <Gold.PLP.ligand.torsion>
0.5043

> <Gold.PLP.Chemscore.Hbond>
3.0000

> <Gold.PLP.Chemscore.CHOScore>
0.0000

> <Gold.PLP.Chemscore.Metal>
0.0000

> <Gold.Chemscore.Hbonds>
donor molecule, donor type, donor heavy atom, donor atom, acceptor molecule, acceptor atom, score
      L1  H     6    55       P1  7948  2.00
      L1  H     9    40       P1  7948  1.00

> <Gold.PLP.Chemscore.Internal.Correction>
0.4198

> <Gold.Rescore>
     Score         DG    S(hbond)    S(metal)    S(lipo)     H(rot)  DE(clash)    DE(int)     intcor
     17.79     -20.94       1.87        0.00     113.75       1.60       1.32       1.83       ----

> <Gold.Chemscore.Fitness>
17.7940

> <Gold.Chemscore.DG>
-20.9393

> <Gold.Chemscore.ZeroCoef>
-5.4800

> <Gold.Chemscore.Hbond>
1.8683

> <Gold.Chemscore.Metal>
0.0000

> <Gold.Chemscore.Lipo>
113.7528

> <Gold.Chemscore.Internal_Hbond>
0.0000

> <Gold.Chemscore.DEClash>
1.3184

> <Gold.Chemscore.DEInternal>
1.8268

> <Gold.Chemscore.Rot>
1.5976

> <Gold.Chemscore.Internal.Correction>
   9.000000E+99

> <Gold.Chemscore.Hbonds>
donor molecule, donor type, donor heavy atom, donor atom, acceptor molecule, acceptor atom, score
      L1  H     6    55       P1  7948  0.93
      L1  H     9    40       P1  7948  0.97

> <Gold.Chemscore.Hbond.Weighted>
-6.2401

> <Gold.Chemscore.Metal.Weighted>
-0.0000

> <Gold.Chemscore.Lipo.Weighted>
-13.3091

> <Gold.Chemscore.Internal_Hbond.Weighted>
0.0000

> <Gold.Chemscore.DEClash.Weighted>
1.3184

> <Gold.Chemscore.DEInternal.Weighted>
1.8268

> <Gold.Chemscore.Rot.Weighted>
4.0899

> <Gold.Chemscore.Internal.Correction.Weighted>
   9.000000E+99

> <Gold.Protein.RotatedTorsions>
[ 6907 6896 6895 6894 ] final  143.61 input  -60.11 | X-H torsion
[ 7974 7965 7964 7962 ] final  121.67 input  175.53 | X-H torsion
[ 8008 7997 7996 7995 ] final   62.01 input   59.86 | X-H torsion
[ 10167 10162 10161 10158 ] final -125.78 input  -65.29 | X-H torsion
[ 10718 10713 10712 10709 ] final  163.60 input   66.30 | X-H torsion
[ 10763 10752 10751 10750 ] final   -8.75 input  -60.55 | X-H torsion
[ 11005 11000 10999 10996 ] final  -25.55 input  -57.11 | X-H torsion

> <Gold.Protein.ActiveResidues>
 VAL166  LYS551  ARG553  GLY616  TRP617  ASP618  TYR619  PRO620  LYS621  CYS622 
 ASP623  PHE694  ASN695  SER759  ASP760  ASP761  ALA762  ILE779  LEU786  VAL792 
 PHE793  MET794  SER795  GLU796  ALA797  LYS798  CYS799  TRP800  GLU811  SER814 

> <Gold.Protein.RotatedAtoms>
  152.2041  133.4862  159.5074 H   0  0  0  0  0  0  0  0  0  0  0  0  # atno 6907 bound_to 6896
  150.6976  134.1552  159.4164 H   0  0  0  0  0  0  0  0  0  0  0  0  # atno 6908 bound_to 6896
  151.9470  135.0186  160.0590 H   0  0  0  0  0  0  0  0  0  0  0  0  # atno 6909 bound_to 6896
  145.1166  139.3417  143.4736 H   0  0  0  0  0  0  0  0  0  0  0  0  # atno 7974 bound_to 7965
  155.6075  140.3494  155.4612 H   0  0  0  0  0  0  0  0  0  0  0  0  # atno 8008 bound_to 7997
  156.0180  140.1247  157.0411 H   0  0  0  0  0  0  0  0  0  0  0  0  # atno 8009 bound_to 7997
  154.4305  140.1068  156.5910 H   0  0  0  0  0  0  0  0  0  0  0  0  # atno 8010 bound_to 7997
  139.9784  143.5769  152.2387 H   0  0  0  0  0  0  0  0  0  0  0  0  # atno 10167 bound_to 10162
  157.1062  131.0456  151.2477 H   0  0  0  0  0  0  0  0  0  0  0  0  # atno 10718 bound_to 10713
  153.4450  135.7014  153.6145 H   0  0  0  0  0  0  0  0  0  0  0  0  # atno 10763 bound_to 10752
  153.4504  135.3759  155.2280 H   0  0  0  0  0  0  0  0  0  0  0  0  # atno 10764 bound_to 10752
  154.8728  135.3995  154.3854 H   0  0  0  0  0  0  0  0  0  0  0  0  # atno 10765 bound_to 10752
  140.8948  133.7564  156.0467 H   0  0  0  0  0  0  0  0  0  0  0  0  # atno 11005 bound_to 11000
  146.3523  140.1108  142.8604 LP  0  0  0  0  0  0  0  0  0  0  0  0  # atno 17320 bound_to 7965
  145.0787  140.9206  143.4838 LP  0  0  0  0  0  0  0  0  0  0  0  0  # atno 17321 bound_to 7965
  139.6428  144.7656  151.2305 LP  0  0  0  0  0  0  0  0  0  0  0  0  # atno 17342 bound_to 10162
  140.7497  143.6289  150.8442 LP  0  0  0  0  0  0  0  0  0  0  0  0  # atno 17343 bound_to 10162
  157.4599  130.7647  149.7226 LP  0  0  0  0  0  0  0  0  0  0  0  0  # atno 17370 bound_to 10713
  155.9861  130.3977  150.3227 LP  0  0  0  0  0  0  0  0  0  0  0  0  # atno 17371 bound_to 10713
  140.8303  134.3186  157.5351 LP  0  0  0  0  0  0  0  0  0  0  0  0  # atno 17394 bound_to 11000
  139.8734  134.9359  156.3647 LP  0  0  0  0  0  0  0  0  0  0  0  0  # atno 17395 bound_to 11000

$$$$
