AV-unprocessed.smi:1510|AV-procd|sdf|6095|dock7
  -GOLD-   22720 6223D 1   1.00000     0.00000
 Structure written by MMmdl.
 32 33  0  0  0  0  0  0  0  0  2 V2000
  151.3472  139.4809  159.3124 O   0  0  0  0  0  0  0  0  0  0  0  0
  152.4732  139.6628  158.8457 C   0  0  0  0  0  0  0  0  0  0  0  0
  153.0711  138.7071  157.8009 C   0  0  0  0  0  0  0  0  0  0  0  0
  152.1973  138.4482  156.6471 N   0  0  0  0  0  0  0  0  0  0  0  0
  151.6394  139.6572  156.0474 N   0  5  0  0  0  0  0  0  0  0  0  0
  150.8185  139.5441  154.9697 C   0  0  0  0  0  0  0  0  0  0  0  0
  150.3222  140.5162  154.4051 O   0  0  0  0  0  0  0  0  0  0  0  0
  150.5186  138.2105  154.4749 C   0  0  0  0  0  0  0  0  0  0  0  0
  151.0336  137.1108  155.0594 C   0  0  0  0  0  0  0  0  0  0  0  0
  151.9210  137.1848  156.2137 C   0  0  0  0  0  0  0  0  0  0  0  0
  152.3878  136.1841  156.7580 O   0  0  0  0  0  0  0  0  0  0  0  0
  153.2598  140.6863  159.2108 N   0  0  0  0  0  0  0  0  0  0  0  0
  152.9052  141.7159  160.1802 C   0  0  0  0  0  0  0  0  0  0  0  0
  152.1822  142.8976  159.5127 C   0  0  1  0  0  0  0  0  0  0  0  0
  151.7497  143.9916  160.4909 C   0  0  0  0  0  0  0  0  0  0  0  0
  151.8100  145.2714  159.6674 C   0  0  0  0  0  0  0  0  0  0  0  0
  152.4343  144.8352  158.3407 C   0  0  0  0  0  0  0  0  0  0  0  0
  153.0533  143.5926  158.6337 O   0  0  0  0  0  0  0  0  0  0  0  0
  154.0223  139.1131  157.4524 H   0  0  0  0  0  0  0  0  0  0  0  0
  153.3208  137.7713  158.3044 H   0  0  0  0  0  0  0  0  0  0  0  0
  149.8661  138.0994  153.6214 H   0  0  0  0  0  0  0  0  0  0  0  0
  150.7816  136.1400  154.6594 H   0  0  0  0  0  0  0  0  0  0  0  0
  154.1685  140.7610  158.7780 H   0  0  0  0  0  0  0  0  0  0  0  0
  152.2811  141.2851  160.9649 H   0  0  0  0  0  0  0  0  0  0  0  0
  153.8192  142.0597  160.6652 H   0  0  0  0  0  0  0  0  0  0  0  0
  151.3141  142.5500  158.9489 H   0  0  0  0  0  0  0  0  0  0  0  0
  150.7588  143.8034  160.9054 H   0  0  0  0  0  0  0  0  0  0  0  0
  152.4514  144.0616  161.3233 H   0  0  0  0  0  0  0  0  0  0  0  0
  150.8240  145.7113  159.5147 H   0  0  0  0  0  0  0  0  0  0  0  0
  152.4344  146.0127  160.1676 H   0  0  0  0  0  0  0  0  0  0  0  0
  151.6628  144.6824  157.5845 H   0  0  0  0  0  0  0  0  0  0  0  0
  153.1521  145.5588  157.9540 H   0  0  0  0  0  0  0  0  0  0  0  0
  1  2  2  0  0  0  0
  2  3  1  0  0  0  0
  2 12  1  0  0  0  0
  3 19  1  0  0  0  0
  3 20  1  0  0  0  0
  3  4  1  0  0  0  0
  4  5  1  0  0  0  0
  4 10  1  0  0  0  0
  5  6  1  0  0  0  0
  6  7  2  0  0  0  0
  6  8  1  0  0  0  0
  8 21  1  0  0  0  0
  8  9  2  0  0  0  0
  9 22  1  0  0  0  0
  9 10  1  0  0  0  0
 10 11  2  0  0  0  0
 12 13  1  0  0  0  0
 12 23  1  0  0  0  0
 13 14  1  0  0  0  0
 13 24  1  0  0  0  0
 13 25  1  0  0  0  0
 14 18  1  0  0  0  0
 14 15  1  0  0  0  0
 14 26  1  0  0  0  0
 15 16  1  0  0  0  0
 15 27  1  0  0  0  0
 15 28  1  0  0  0  0
 16 17  1  0  0  0  0
 16 29  1  0  0  0  0
 16 30  1  0  0  0  0
 17 18  1  0  0  0  0
 17 31  1  0  0  0  0
 17 32  1  0  0  0  0
M  CHG  1   5  -1
M  END
> <s_m_source_file>
AV-unprocessed.smi

> <i_m_source_file_index>
1510

> <i_lp_mmshare_version>
43012

> <i_f3d_flags>
0

> <s_epik_input>
TzFbQ0gyXVtDSDJdW0NIMl1bQ0BIXTFbQ0gyXVtOSF1DKD1PKVtDSDJdbjJbbkhdYyg9TylbY0hdW2NIXWMyPU8=

> <s_epik_cmdline>
J2VwaWtfcHl0aG9uJywgJy1waCcsICc3LjAnLCAnLXRuJywgJzgnLCAnLW1hJywgJzIwMCcsICctbWV0YWxfYmluZGluZycsICctaW1hZScsICc8aW5maWxlLm1hZT4nLCAnLW9tYWUnLCAnPG91dGZpbGUubWFlPic=

> <r_lp_tautomer_probability>
1

> <r_epik_Ionization_Penalty>
0.0970799

> <r_epik_Ionization_Penalty_Charging>
0.0970799

> <r_epik_Ionization_Penalty_Neutral>
2.6859e-08

> <r_epik_State_Penalty>
0.0341592

> <r_epik_Charging_Adjusted_Penalty>
0.131239

> <i_epik_Tot_Q>
-1

> <i_epik_Tot_abs_Q>
1

> <r_epik_Metal_State_Penalty>
0.0341592

> <b_epik_Metal_Only>
0

> <s_lp_Force_Field>
OPLS_2005

> <r_lp_Energy>
32.1041

> <b_lp_Chiralities_Consistent>
1

> <s_lp_Variant>
AV-unprocessed.smi:1510-2

> <Gold.Version>
5.8.1

> <Gold.Id.Protein>
6NUR|6NUR_protein|mol2

> <Gold.PLP.Fitness>
40.0391

> <Gold.PLP.PLP>
-34.9080

> <Gold.PLP.part.hbond>
-2.1483

> <Gold.PLP.part.metal>
0.0000

> <Gold.PLP.part.buried>
-2.2323

> <Gold.PLP.part.nonpolar>
-29.9584

> <Gold.PLP.part.repulsive>
0.2113

> <Gold.PLP.ligand.clash>
0.0000

> <Gold.PLP.ligand.torsion>
0.3794

> <Gold.PLP.Chemscore.Hbond>
1.9600

> <Gold.PLP.Chemscore.CHOScore>
0.0000

> <Gold.PLP.Chemscore.Metal>
0.0000

> <Gold.Chemscore.Hbonds>
donor molecule, donor type, donor heavy atom, donor atom, acceptor molecule, acceptor atom, score
      P1  H  7989  7998       L1     7  0.79
      P1  H 10752 10764       L1    11  1.00

> <Gold.PLP.Chemscore.Internal.Correction>
0.0099

> <Gold.Rescore>
     Score         DG    S(hbond)    S(metal)    S(lipo)     H(rot)  DE(clash)    DE(int)     intcor
     12.05     -12.66       0.95        0.00      78.91       2.05       0.07       0.54       ----

> <Gold.Chemscore.Fitness>
12.0531

> <Gold.Chemscore.DG>
-12.6614

> <Gold.Chemscore.ZeroCoef>
-5.4800

> <Gold.Chemscore.Hbond>
0.9545

> <Gold.Chemscore.Metal>
0.0000

> <Gold.Chemscore.Lipo>
78.9059

> <Gold.Chemscore.Internal_Hbond>
0.0000

> <Gold.Chemscore.DEClash>
0.0695

> <Gold.Chemscore.DEInternal>
0.5388

> <Gold.Chemscore.Rot>
2.0463

> <Gold.Chemscore.Internal.Correction>
   9.000000E+99

> <Gold.Chemscore.Hbonds>
donor molecule, donor type, donor heavy atom, donor atom, acceptor molecule, acceptor atom, score
      P1  H  7989  7998       L1     7  0.13
      P1  H 10752 10764       L1    11  0.38

> <Gold.Chemscore.Hbond.Weighted>
-3.1880

> <Gold.Chemscore.Metal.Weighted>
-0.0000

> <Gold.Chemscore.Lipo.Weighted>
-9.2320

> <Gold.Chemscore.Internal_Hbond.Weighted>
0.0000

> <Gold.Chemscore.DEClash.Weighted>
0.0695

> <Gold.Chemscore.DEInternal.Weighted>
0.5388

> <Gold.Chemscore.Rot.Weighted>
5.2386

> <Gold.Chemscore.Internal.Correction.Weighted>
   9.000000E+99

> <Gold.Protein.RotatedTorsions>
[ 6907 6896 6895 6894 ] final  124.31 input  -60.11 | X-H torsion
[ 7974 7965 7964 7962 ] final  -67.75 input  175.53 | X-H torsion
[ 8008 7997 7996 7995 ] final   35.28 input   59.86 | X-H torsion
[ 10167 10162 10161 10158 ] final    2.47 input  -65.29 | X-H torsion
[ 10718 10713 10712 10709 ] final   52.80 input   66.30 | X-H torsion
[ 10763 10752 10751 10750 ] final   -1.54 input  -60.55 | X-H torsion
[ 11005 11000 10999 10996 ] final -101.42 input  -57.11 | X-H torsion

> <Gold.Protein.ActiveResidues>
 VAL166  LYS551  ARG553  GLY616  TRP617  ASP618  TYR619  PRO620  LYS621  CYS622 
 ASP623  PHE694  ASN695  SER759  ASP760  ASP761  ALA762  ILE779  LEU786  VAL792 
 PHE793  MET794  SER795  GLU796  ALA797  LYS798  CYS799  TRP800  GLU811  SER814 

> <Gold.Protein.RotatedAtoms>
  152.4089  133.6932  159.6379 H   0  0  0  0  0  0  0  0  0  0  0  0  # atno 6907 bound_to 6896
  150.7971  133.8660  159.3254 H   0  0  0  0  0  0  0  0  0  0  0  0  # atno 6908 bound_to 6896
  151.6408  135.1015  160.0192 H   0  0  0  0  0  0  0  0  0  0  0  0  # atno 6909 bound_to 6896
  145.7252  140.9021  143.0609 H   0  0  0  0  0  0  0  0  0  0  0  0  # atno 7974 bound_to 7965
  155.1686  140.3289  155.4397 H   0  0  0  0  0  0  0  0  0  0  0  0  # atno 8008 bound_to 7997
  156.2518  140.1947  156.6741 H   0  0  0  0  0  0  0  0  0  0  0  0  # atno 8009 bound_to 7997
  154.6354  140.0577  156.9768 H   0  0  0  0  0  0  0  0  0  0  0  0  # atno 8010 bound_to 7997
  140.6633  143.7246  150.7779 H   0  0  0  0  0  0  0  0  0  0  0  0  # atno 10167 bound_to 10162
  157.5109  130.8500  149.8433 H   0  0  0  0  0  0  0  0  0  0  0  0  # atno 10718 bound_to 10713
  153.3462  135.6983  153.6826 H   0  0  0  0  0  0  0  0  0  0  0  0  # atno 10763 bound_to 10752
  153.5571  135.3542  155.2784 H   0  0  0  0  0  0  0  0  0  0  0  0  # atno 10764 bound_to 10752
  154.8645  135.4240  154.2686 H   0  0  0  0  0  0  0  0  0  0  0  0  # atno 10765 bound_to 10752
  141.1231  133.8477  157.1230 H   0  0  0  0  0  0  0  0  0  0  0  0  # atno 11005 bound_to 11000
  144.6906  139.9257  143.7469 LP  0  0  0  0  0  0  0  0  0  0  0  0  # atno 17320 bound_to 7965
  146.0588  139.3583  143.0594 LP  0  0  0  0  0  0  0  0  0  0  0  0  # atno 17321 bound_to 7965
  140.0919  143.4870  152.2474 LP  0  0  0  0  0  0  0  0  0  0  0  0  # atno 17342 bound_to 10162
  139.5874  144.7536  151.3487 LP  0  0  0  0  0  0  0  0  0  0  0  0  # atno 17343 bound_to 10162
  156.0288  130.3771  150.1746 LP  0  0  0  0  0  0  0  0  0  0  0  0  # atno 17370 bound_to 10713
  156.9935  130.9901  151.3409 LP  0  0  0  0  0  0  0  0  0  0  0  0  # atno 17371 bound_to 10713
  140.0206  134.9947  157.0583 LP  0  0  0  0  0  0  0  0  0  0  0  0  # atno 17394 bound_to 11000
  140.4447  134.1645  155.7176 LP  0  0  0  0  0  0  0  0  0  0  0  0  # atno 17395 bound_to 11000

$$$$
