AV-unprocessed.smi:560|AV-procd|sdf|2929|dock9
  -GOLD-   2262023423D 1   1.00000     0.00000
 Structure written by MMmdl.
 42 43  0  0  0  0  0  0  0  0  2 V2000
  146.9915  142.4954  153.8231 C   0  0  0  0  0  0  0  0  0  0  0  0
  147.0878  141.4975  154.9953 C   0  0  1  0  0  0  0  0  0  0  0  0
  146.4053  140.1514  154.6978 C   0  0  0  0  0  0  0  0  0  0  0  0
  145.7845  139.5490  155.5746 O   0  0  0  0  0  0  0  0  0  0  0  0
  146.5359  139.6837  153.4456 N   0  0  0  0  0  0  0  0  0  0  0  0
  145.9513  138.4443  152.9443 C   0  0  2  0  0  0  0  0  0  0  0  0
  146.4418  137.2339  153.7602 C   0  0  0  0  0  0  0  0  0  0  0  0
  145.9179  135.9143  153.1691 C   0  0  0  0  0  0  0  0  0  0  0  0
  146.3043  135.7754  151.7418 N   0  3  1  0  0  0  0  0  0  0  0  0
  145.9395  134.4490  151.1807 C   0  0  0  0  0  0  0  0  0  0  0  0
  144.4338  134.2939  150.9420 C   0  0  0  0  0  0  0  0  0  0  0  0
  144.0162  134.3477  149.6752 N   0  0  0  0  0  0  0  0  0  0  0  0
  143.6562  134.1427  151.8829 O   0  0  0  0  0  0  0  0  0  0  0  0
  145.7999  136.9138  150.9274 C   0  0  0  0  0  0  0  0  0  0  0  0
  146.3257  138.2546  151.4656 C   0  0  0  0  0  0  0  0  0  0  0  0
  148.4677  141.2903  155.4211 N   0  0  0  0  0  0  0  0  0  0  0  0
  149.5158  140.7767  154.6841 C   0  0  0  0  0  0  0  0  0  0  0  0
  150.6260  140.7969  155.4786 C   0  0  0  0  0  0  0  0  0  0  0  0
  150.1571  141.3559  156.6998 C   0  0  0  0  0  0  0  0  0  0  0  0
  148.8696  141.6569  156.6605 N   0  0  0  0  0  0  0  0  0  0  0  0
  145.9519  142.6948  153.5601 H   0  0  0  0  0  0  0  0  0  0  0  0
  147.4945  142.1263  152.9282 H   0  0  0  0  0  0  0  0  0  0  0  0
  147.4486  143.4492  154.0879 H   0  0  0  0  0  0  0  0  0  0  0  0
  146.5552  141.9409  155.8381 H   0  0  0  0  0  0  0  0  0  0  0  0
  147.0626  140.2401  152.7880 H   0  0  0  0  0  0  0  0  0  0  0  0
  144.8636  138.5080  153.0168 H   0  0  0  0  0  0  0  0  0  0  0  0
  147.5326  137.2152  153.7766 H   0  0  0  0  0  0  0  0  0  0  0  0
  146.1195  137.3214  154.7985 H   0  0  0  0  0  0  0  0  0  0  0  0
  146.3236  135.0808  153.7440 H   0  0  0  0  0  0  0  0  0  0  0  0
  144.8316  135.8645  153.2603 H   0  0  0  0  0  0  0  0  0  0  0  0
  146.4228  134.3149  150.2119 H   0  0  0  0  0  0  0  0  0  0  0  0
  146.3097  133.6527  151.8289 H   0  0  0  0  0  0  0  0  0  0  0  0
  143.0351  134.2467  149.4579 H   0  0  0  0  0  0  0  0  0  0  0  0
  144.6874  134.4854  148.9329 H   0  0  0  0  0  0  0  0  0  0  0  0
  146.1107  136.8009  149.8884 H   0  0  0  0  0  0  0  0  0  0  0  0
  144.7086  136.9107  150.9310 H   0  0  0  0  0  0  0  0  0  0  0  0
  145.9218  139.0743  150.8695 H   0  0  0  0  0  0  0  0  0  0  0  0
  147.4099  138.2909  151.3473 H   0  0  0  0  0  0  0  0  0  0  0  0
  149.3861  140.4421  153.6653 H   0  0  0  0  0  0  0  0  0  0  0  0
  151.6221  140.4649  155.2258 H   0  0  0  0  0  0  0  0  0  0  0  0
  150.7106  141.5544  157.6059 H   0  0  0  0  0  0  0  0  0  0  0  0
  147.3134  135.8195  151.7156 H   0  0  0  0  0  0  0  0  0  0  0  0
  1  2  1  0  0  0  0
  1 21  1  0  0  0  0
  1 22  1  0  0  0  0
  1 23  1  0  0  0  0
  2  3  1  0  0  0  0
  2 16  1  0  0  0  0
  2 24  1  0  0  0  0
  3  4  2  0  0  0  0
  3  5  1  0  0  0  0
  5  6  1  0  0  0  0
  5 25  1  0  0  0  0
  6 15  1  0  0  0  0
  6  7  1  0  0  0  0
  6 26  1  0  0  0  0
  7  8  1  0  0  0  0
  7 27  1  0  0  0  0
  7 28  1  0  0  0  0
  8  9  1  0  0  0  0
  8 29  1  0  0  0  0
  8 30  1  0  0  0  0
  9 10  1  0  0  0  0
  9 14  1  0  0  0  0
  9 42  1  0  0  0  0
 10 11  1  0  0  0  0
 10 31  1  0  0  0  0
 10 32  1  0  0  0  0
 11 12  1  0  0  0  0
 11 13  2  0  0  0  0
 12 33  1  0  0  0  0
 12 34  1  0  0  0  0
 14 15  1  0  0  0  0
 14 35  1  0  0  0  0
 14 36  1  0  0  0  0
 15 37  1  0  0  0  0
 15 38  1  0  0  0  0
 16 20  1  0  0  0  0
 16 17  1  0  0  0  0
 17 18  2  0  0  0  0
 17 39  1  0  0  0  0
 18 19  1  0  0  0  0
 18 40  1  0  0  0  0
 19 20  2  0  0  0  0
 19 41  1  0  0  0  0
M  CHG  1   9   1
M  END
> <s_m_source_file>
AV-unprocessed.smi

> <i_m_source_file_index>
560

> <i_lp_mmshare_version>
43012

> <i_f3d_flags>
0

> <s_epik_input>
bjFbY0hdW2NIXVtjSF1uMVtDQEhdKFtDSDNdKUMoPU8pW05IXVtDSF0yW0NIMl1bQ0gyXU4oW0NIMl1bQ0gyXTIpW0NIMl1DKD1PKVtOSDJd

> <s_epik_cmdline>
J2VwaWtfcHl0aG9uJywgJy1waCcsICc3LjAnLCAnLXRuJywgJzgnLCAnLW1hJywgJzIwMCcsICctbWV0YWxfYmluZGluZycsICctaW1hZScsICc8aW5maWxlLm1hZT4nLCAnLW9tYWUnLCAnPG91dGZpbGUubWFlPic=

> <r_lp_tautomer_probability>
1

> <r_epik_Ionization_Penalty>
1.02943

> <r_epik_Ionization_Penalty_Charging>
1.02936

> <r_epik_Ionization_Penalty_Neutral>
7.4537e-05

> <r_epik_State_Penalty>
1.08036

> <r_epik_Charging_Adjusted_Penalty>
2.10972

> <i_epik_Tot_Q>
1

> <i_epik_Tot_abs_Q>
1

> <r_epik_Metal_State_Penalty>
1.09347

> <b_epik_Metal_Only>
0

> <s_lp_Force_Field>
OPLS_2005

> <r_lp_Energy>
15.5023

> <b_lp_Chiralities_Consistent>
1

> <s_lp_Variant>
AV-unprocessed.smi:560-4

> <Gold.Version>
5.8.1

> <Gold.Id.Protein>
6NUR|6NUR_protein|mol2

> <Gold.PLP.Fitness>
41.7300

> <Gold.PLP.PLP>
-28.5129

> <Gold.PLP.part.hbond>
-3.7444

> <Gold.PLP.part.metal>
0.0000

> <Gold.PLP.part.buried>
2.0935

> <Gold.PLP.part.nonpolar>
-28.2145

> <Gold.PLP.part.repulsive>
0.4795

> <Gold.PLP.ligand.clash>
0.0000

> <Gold.PLP.ligand.torsion>
0.9311

> <Gold.PLP.Chemscore.Hbond>
4.0000

> <Gold.PLP.Chemscore.CHOScore>
0.9788

> <Gold.PLP.Chemscore.Metal>
0.0000

> <Gold.Chemscore.Hbonds>
donor molecule, donor type, donor heavy atom, donor atom, acceptor molecule, acceptor atom, score
      L1  H     9    42       P1  7948  2.00
      L1  H    12    33       P1 10186  0.99
      L1  H    12    34       P1  7921  1.00
      L1  C    17    39       P1  7957  0.96

> <Gold.PLP.Chemscore.Internal.Correction>
0.1431

> <Gold.Rescore>
     Score         DG    S(hbond)    S(metal)    S(lipo)     H(rot)  DE(clash)    DE(int)     intcor
     13.24     -16.46       2.96        0.00      64.67       2.52       1.36       1.86       ----

> <Gold.Chemscore.Fitness>
13.2383

> <Gold.Chemscore.DG>
-16.4551

> <Gold.Chemscore.ZeroCoef>
-5.4800

> <Gold.Chemscore.Hbond>
2.9554

> <Gold.Chemscore.Metal>
0.0000

> <Gold.Chemscore.Lipo>
64.6697

> <Gold.Chemscore.Internal_Hbond>
0.0000

> <Gold.Chemscore.DEClash>
1.3578

> <Gold.Chemscore.DEInternal>
1.8590

> <Gold.Chemscore.Rot>
2.5243

> <Gold.Chemscore.Internal.Correction>
   9.000000E+99

> <Gold.Chemscore.Hbonds>
donor molecule, donor type, donor heavy atom, donor atom, acceptor molecule, acceptor atom, score
      L1  H     9    42       P1  7948  1.00
      L1  H    12    33       P1 10186  0.93
      L1  H    12    34       P1  7921  0.98

> <Gold.Chemscore.Hbond.Weighted>
-9.8710

> <Gold.Chemscore.Metal.Weighted>
-0.0000

> <Gold.Chemscore.Lipo.Weighted>
-7.5664

> <Gold.Chemscore.Internal_Hbond.Weighted>
0.0000

> <Gold.Chemscore.DEClash.Weighted>
1.3578

> <Gold.Chemscore.DEInternal.Weighted>
1.8590

> <Gold.Chemscore.Rot.Weighted>
6.4622

> <Gold.Chemscore.Internal.Correction.Weighted>
   9.000000E+99

> <Gold.Protein.RotatedTorsions>
[ 6907 6896 6895 6894 ] final  168.81 input  -60.11 | X-H torsion
[ 7974 7965 7964 7962 ] final -148.39 input  175.53 | X-H torsion
[ 8008 7997 7996 7995 ] final  -43.12 input   59.86 | X-H torsion
[ 10167 10162 10161 10158 ] final   68.89 input  -65.29 | X-H torsion
[ 10718 10713 10712 10709 ] final  -37.84 input   66.30 | X-H torsion
[ 10763 10752 10751 10750 ] final  169.92 input  -60.55 | X-H torsion
[ 11005 11000 10999 10996 ] final  161.45 input  -57.11 | X-H torsion

> <Gold.Protein.ActiveResidues>
 VAL166  LYS551  ARG553  GLY616  TRP617  ASP618  TYR619  PRO620  LYS621  CYS622 
 ASP623  PHE694  ASN695  SER759  ASP760  ASP761  ALA762  ILE779  LEU786  VAL792 
 PHE793  MET794  SER795  GLU796  ALA797  LYS798  CYS799  TRP800  GLU811  SER814 

> <Gold.Protein.RotatedAtoms>
  151.8418  133.3425  159.3645 H   0  0  0  0  0  0  0  0  0  0  0  0  # atno 6907 bound_to 6896
  150.7232  134.5384  159.5744 H   0  0  0  0  0  0  0  0  0  0  0  0  # atno 6908 bound_to 6896
  152.2859  134.7777  160.0438 H   0  0  0  0  0  0  0  0  0  0  0  0  # atno 6909 bound_to 6896
  144.8032  140.5202  143.5693 H   0  0  0  0  0  0  0  0  0  0  0  0  # atno 7974 bound_to 7965
  154.3997  140.1456  156.3467 H   0  0  0  0  0  0  0  0  0  0  0  0  # atno 8008 bound_to 7997
  155.8307  140.3466  155.5549 H   0  0  0  0  0  0  0  0  0  0  0  0  # atno 8009 bound_to 7997
  155.8191  140.0895  157.1850 H   0  0  0  0  0  0  0  0  0  0  0  0  # atno 8010 bound_to 7997
  140.0738  144.5130  150.7209 H   0  0  0  0  0  0  0  0  0  0  0  0  # atno 10167 bound_to 10162
  156.3106  130.4252  149.8054 H   0  0  0  0  0  0  0  0  0  0  0  0  # atno 10718 bound_to 10713
  154.3901  135.2754  155.2159 H   0  0  0  0  0  0  0  0  0  0  0  0  # atno 10763 bound_to 10752
  154.4229  135.5996  153.6024 H   0  0  0  0  0  0  0  0  0  0  0  0  # atno 10764 bound_to 10752
  152.9832  135.5977  154.4155 H   0  0  0  0  0  0  0  0  0  0  0  0  # atno 10765 bound_to 10752
  140.2159  134.8232  157.3170 H   0  0  0  0  0  0  0  0  0  0  0  0  # atno 11005 bound_to 11000
  145.5502  139.1476  143.3398 LP  0  0  0  0  0  0  0  0  0  0  0  0  # atno 17320 bound_to 7965
  146.2318  140.5640  142.8972 LP  0  0  0  0  0  0  0  0  0  0  0  0  # atno 17321 bound_to 7965
  140.7112  143.2507  151.4574 LP  0  0  0  0  0  0  0  0  0  0  0  0  # atno 17342 bound_to 10162
  139.5820  144.1688  152.1981 LP  0  0  0  0  0  0  0  0  0  0  0  0  # atno 17343 bound_to 10162
  156.5398  130.8295  151.3265 LP  0  0  0  0  0  0  0  0  0  0  0  0  # atno 17370 bound_to 10713
  157.7390  130.9823  150.2286 LP  0  0  0  0  0  0  0  0  0  0  0  0  # atno 17371 bound_to 10713
  140.1900  134.4383  155.7721 LP  0  0  0  0  0  0  0  0  0  0  0  0  # atno 17394 bound_to 11000
  141.2225  133.7023  156.8012 LP  0  0  0  0  0  0  0  0  0  0  0  0  # atno 17395 bound_to 11000

$$$$
