AV-unprocessed.smi:1419|AV-procd|sdf|5783|dock5
  -GOLD-   22720 5433D 1   1.00000     0.00000
 Structure written by MMmdl.
 41 42  0  0  0  0  0  0  0  0  1 V2000
  146.2185  138.3584  151.2881 C   0  0  0  0  0  0  0  0  0  0  0  0
  146.3493  138.2249  152.8141 C   0  0  1  0  0  0  0  0  0  0  0  0
  146.0651  136.7957  153.3248 C   0  0  0  0  0  0  0  0  0  0  0  0
  145.3157  135.9990  152.3723 N   0  0  0  0  0  0  0  0  0  0  0  0
  145.7990  135.3864  151.2233 C   0  0  0  0  0  0  0  0  0  0  0  0
  144.7294  134.7445  150.6410 C   0  0  0  0  0  0  0  0  0  0  0  0
  143.5867  134.9433  151.4124 N   0  0  0  0  0  0  0  0  0  0  0  0
  144.0121  135.6930  152.4213 C   0  0  0  0  0  0  0  0  0  0  0  0
  147.6890  138.6418  153.2158 N   0  0  0  0  0  0  0  0  0  0  0  0
  147.9838  139.7121  153.9734 C   0  0  0  0  0  0  0  0  0  0  0  0
  147.1162  140.4813  154.3889 O   0  0  0  0  0  0  0  0  0  0  0  0
  149.3056  139.8753  154.2290 N   0  0  0  0  0  0  0  0  0  0  0  0
  150.3556  138.8521  154.1288 C   0  0  0  0  0  0  0  0  0  0  0  0
  150.8207  138.4693  155.5495 C   0  0  2  0  0  0  0  0  0  0  0  0
  149.7808  137.6659  156.3523 C   0  0  0  0  0  0  0  0  0  0  0  0
  151.2332  139.6448  156.2542 O   0  0  0  0  0  0  0  0  0  0  0  0
  150.2790  140.7094  156.3011 C   0  0  1  0  0  0  0  0  0  0  0  0
  150.9273  141.8924  157.0280 C   0  0  0  0  0  0  0  0  0  0  0  0
  149.8439  141.0771  154.8686 C   0  0  0  0  0  0  0  0  0  0  0  0
  145.2034  138.1447  150.9530 H   0  0  0  0  0  0  0  0  0  0  0  0
  146.8915  137.6733  150.7714 H   0  0  0  0  0  0  0  0  0  0  0  0
  146.4590  139.3707  150.9613 H   0  0  0  0  0  0  0  0  0  0  0  0
  145.6248  138.9067  153.2637 H   0  0  0  0  0  0  0  0  0  0  0  0
  147.0002  136.2796  153.5477 H   0  0  0  0  0  0  0  0  0  0  0  0
  145.4981  136.8276  154.2563 H   0  0  0  0  0  0  0  0  0  0  0  0
  146.8335  135.4589  150.9213 H   0  0  0  0  0  0  0  0  0  0  0  0
  144.6948  134.1589  149.7343 H   0  0  0  0  0  0  0  0  0  0  0  0
  143.3600  136.0299  153.2139 H   0  0  0  0  0  0  0  0  0  0  0  0
  148.4556  138.0623  152.9063 H   0  0  0  0  0  0  0  0  0  0  0  0
  150.0589  137.9581  153.5802 H   0  0  0  0  0  0  0  0  0  0  0  0
  151.1952  139.2661  153.5682 H   0  0  0  0  0  0  0  0  0  0  0  0
  151.7073  137.8421  155.4543 H   0  0  0  0  0  0  0  0  0  0  0  0
  149.5400  136.7311  155.8456 H   0  0  0  0  0  0  0  0  0  0  0  0
  148.8466  138.2101  156.4874 H   0  0  0  0  0  0  0  0  0  0  0  0
  150.1647  137.4157  157.3414 H   0  0  0  0  0  0  0  0  0  0  0  0
  149.4092  140.3923  156.8772 H   0  0  0  0  0  0  0  0  0  0  0  0
  150.2350  142.7307  157.1082 H   0  0  0  0  0  0  0  0  0  0  0  0
  151.8158  142.2405  156.5007 H   0  0  0  0  0  0  0  0  0  0  0  0
  151.2282  141.6119  158.0378 H   0  0  0  0  0  0  0  0  0  0  0  0
  150.6955  141.4440  154.2937 H   0  0  0  0  0  0  0  0  0  0  0  0
  149.1249  141.8973  154.8932 H   0  0  0  0  0  0  0  0  0  0  0  0
  1  2  1  0  0  0  0
  1 20  1  0  0  0  0
  1 21  1  0  0  0  0
  1 22  1  0  0  0  0
  2  3  1  0  0  0  0
  2  9  1  0  0  0  0
  2 23  1  0  0  0  0
  3  4  1  0  0  0  0
  3 24  1  0  0  0  0
  3 25  1  0  0  0  0
  4  8  1  0  0  0  0
  4  5  1  0  0  0  0
  5  6  2  0  0  0  0
  5 26  1  0  0  0  0
  6  7  1  0  0  0  0
  6 27  1  0  0  0  0
  7  8  2  0  0  0  0
  8 28  1  0  0  0  0
  9 10  1  0  0  0  0
  9 29  1  0  0  0  0
 10 11  2  0  0  0  0
 10 12  1  0  0  0  0
 12 19  1  0  0  0  0
 12 13  1  0  0  0  0
 13 14  1  0  0  0  0
 13 30  1  0  0  0  0
 13 31  1  0  0  0  0
 14 15  1  0  0  0  0
 14 16  1  0  0  0  0
 14 32  1  0  0  0  0
 15 33  1  0  0  0  0
 15 34  1  0  0  0  0
 15 35  1  0  0  0  0
 16 17  1  0  0  0  0
 17 18  1  0  0  0  0
 17 19  1  0  0  0  0
 17 36  1  0  0  0  0
 18 37  1  0  0  0  0
 18 38  1  0  0  0  0
 18 39  1  0  0  0  0
 19 40  1  0  0  0  0
 19 41  1  0  0  0  0
M  END
> <s_m_source_file>
AV-unprocessed.smi

> <i_m_source_file_index>
1419

> <i_lp_mmshare_version>
43012

> <i_f3d_flags>
0

> <s_epik_input>
W2NIXTFuW2NIXVtjSF1uMVtDSDJdW0NAQEhdKFtDSDNdKVtOSF1DKD1PKU4yW0NIMl1bQ0BASF0oW0NIM10pT1tDQEBIXShbQ0gzXSlbQ0gyXTI=

> <s_epik_cmdline>
J2VwaWtfcHl0aG9uJywgJy1waCcsICc3LjAnLCAnLXRuJywgJzgnLCAnLW1hJywgJzIwMCcsICctbWV0YWxfYmluZGluZycsICctaW1hZScsICc8aW5maWxlLm1hZT4nLCAnLW9tYWUnLCAnPG91dGZpbGUubWFlPic=

> <r_lp_tautomer_probability>
1

> <r_epik_Ionization_Penalty>
0.625124

> <r_epik_Ionization_Penalty_Charging>
0.625093

> <r_epik_Ionization_Penalty_Neutral>
3.17415e-05

> <r_epik_State_Penalty>
0.641455

> <r_epik_Charging_Adjusted_Penalty>
1.26655

> <i_epik_Tot_Q>
0

> <i_epik_Tot_abs_Q>
0

> <r_epik_Metal_State_Penalty>
0.307717

> <b_epik_Metal_Only>
0

> <s_lp_Force_Field>
OPLS_2005

> <r_lp_Energy>
30.8813

> <b_lp_Chiralities_Consistent>
1

> <s_lp_Variant>
AV-unprocessed.smi:1419-10

> <Gold.Version>
5.8.1

> <Gold.Id.Protein>
6NUR|6NUR_protein|mol2

> <Gold.PLP.Fitness>
33.8413

> <Gold.PLP.PLP>
-28.2085

> <Gold.PLP.part.hbond>
-1.9751

> <Gold.PLP.part.metal>
0.0000

> <Gold.PLP.part.buried>
3.7505

> <Gold.PLP.part.nonpolar>
-30.1819

> <Gold.PLP.part.repulsive>
0.3708

> <Gold.PLP.ligand.clash>
0.0000

> <Gold.PLP.ligand.torsion>
0.8926

> <Gold.PLP.Chemscore.Hbond>
0.6063

> <Gold.PLP.Chemscore.CHOScore>
1.8498

> <Gold.PLP.Chemscore.Metal>
0.0000

> <Gold.Chemscore.Hbonds>
donor molecule, donor type, donor heavy atom, donor atom, acceptor molecule, acceptor atom, score
      L1  H     9    29       P1  7948  0.64
      L1  C     5    26       P1  7948  1.00
      L1  C     6    27       P1  7921  0.63

> <Gold.PLP.Chemscore.Internal.Correction>
0.0498

> <Gold.Rescore>
     Score         DG    S(hbond)    S(metal)    S(lipo)     H(rot)  DE(clash)    DE(int)     intcor
      9.60     -12.01       0.82        0.00      66.81       1.58       1.44       0.97       ----

> <Gold.Chemscore.Fitness>
9.6040

> <Gold.Chemscore.DG>
-12.0132

> <Gold.Chemscore.ZeroCoef>
-5.4800

> <Gold.Chemscore.Hbond>
0.8244

> <Gold.Chemscore.Metal>
0.0000

> <Gold.Chemscore.Lipo>
66.8079

> <Gold.Chemscore.Internal_Hbond>
0.0000

> <Gold.Chemscore.DEClash>
1.4388

> <Gold.Chemscore.DEInternal>
0.9704

> <Gold.Chemscore.Rot>
1.5769

> <Gold.Chemscore.Internal.Correction>
   9.000000E+99

> <Gold.Chemscore.Hbonds>
donor molecule, donor type, donor heavy atom, donor atom, acceptor molecule, acceptor atom, score
      L1  H     9    29       P1  7948  0.62

> <Gold.Chemscore.Hbond.Weighted>
-2.7536

> <Gold.Chemscore.Metal.Weighted>
-0.0000

> <Gold.Chemscore.Lipo.Weighted>
-7.8165

> <Gold.Chemscore.Internal_Hbond.Weighted>
0.0000

> <Gold.Chemscore.DEClash.Weighted>
1.4388

> <Gold.Chemscore.DEInternal.Weighted>
0.9704

> <Gold.Chemscore.Rot.Weighted>
4.0369

> <Gold.Chemscore.Internal.Correction.Weighted>
   9.000000E+99

> <Gold.Protein.RotatedTorsions>
[ 6907 6896 6895 6894 ] final -165.24 input  -60.11 | X-H torsion
[ 7974 7965 7964 7962 ] final   55.10 input  175.53 | X-H torsion
[ 8008 7997 7996 7995 ] final -151.09 input   59.86 | X-H torsion
[ 10167 10162 10161 10158 ] final -162.19 input  -65.29 | X-H torsion
[ 10718 10713 10712 10709 ] final  139.10 input   66.30 | X-H torsion
[ 10763 10752 10751 10750 ] final  135.93 input  -60.55 | X-H torsion
[ 11005 11000 10999 10996 ] final   95.56 input  -57.11 | X-H torsion

> <Gold.Protein.ActiveResidues>
 VAL166  LYS551  ARG553  GLY616  TRP617  ASP618  TYR619  PRO620  LYS621  CYS622 
 ASP623  PHE694  ASN695  SER759  ASP760  ASP761  ALA762  ILE779  LEU786  VAL792 
 PHE793  MET794  SER795  GLU796  ALA797  LYS798  CYS799  TRP800  GLU811  SER814 

> <Gold.Protein.RotatedAtoms>
  151.4245  133.3688  159.2760 H   0  0  0  0  0  0  0  0  0  0  0  0  # atno 6907 bound_to 6896
  150.9270  134.8687  159.7537 H   0  0  0  0  0  0  0  0  0  0  0  0  # atno 6908 bound_to 6896
  152.5009  134.4187  159.9525 H   0  0  0  0  0  0  0  0  0  0  0  0  # atno 6909 bound_to 6896
  145.9539  139.3997  143.0289 H   0  0  0  0  0  0  0  0  0  0  0  0  # atno 7974 bound_to 7965
  155.6339  140.0694  157.2640 H   0  0  0  0  0  0  0  0  0  0  0  0  # atno 8008 bound_to 7997
  154.4199  140.1762  156.1551 H   0  0  0  0  0  0  0  0  0  0  0  0  # atno 8009 bound_to 7997
  155.9910  140.3345  155.6756 H   0  0  0  0  0  0  0  0  0  0  0  0  # atno 8010 bound_to 7997
  139.6410  144.0259  152.2092 H   0  0  0  0  0  0  0  0  0  0  0  0  # atno 10167 bound_to 10162
  157.4181  131.1035  151.0383 H   0  0  0  0  0  0  0  0  0  0  0  0  # atno 10718 bound_to 10713
  153.8481  135.3083  155.3430 H   0  0  0  0  0  0  0  0  0  0  0  0  # atno 10763 bound_to 10752
  154.7903  135.4786  154.0041 H   0  0  0  0  0  0  0  0  0  0  0  0  # atno 10764 bound_to 10752
  153.1535  135.6847  153.8940 H   0  0  0  0  0  0  0  0  0  0  0  0  # atno 10765 bound_to 10752
  139.8788  134.8905  156.4030 H   0  0  0  0  0  0  0  0  0  0  0  0  # atno 11005 bound_to 11000
  145.8132  140.9715  143.0937 LP  0  0  0  0  0  0  0  0  0  0  0  0  # atno 17320 bound_to 7965
  144.6801  139.9948  143.7484 LP  0  0  0  0  0  0  0  0  0  0  0  0  # atno 17321 bound_to 7965
  139.9949  144.6335  150.7781 LP  0  0  0  0  0  0  0  0  0  0  0  0  # atno 17342 bound_to 10162
  140.7491  143.2933  151.3273 LP  0  0  0  0  0  0  0  0  0  0  0  0  # atno 17343 bound_to 10162
  157.1323  130.6107  149.5532 LP  0  0  0  0  0  0  0  0  0  0  0  0  # atno 17370 bound_to 10713
  155.9872  130.4910  150.7113 LP  0  0  0  0  0  0  0  0  0  0  0  0  # atno 17371 bound_to 10713
  140.9254  133.7616  155.9958 LP  0  0  0  0  0  0  0  0  0  0  0  0  # atno 17394 bound_to 11000
  140.8392  134.3087  157.5320 LP  0  0  0  0  0  0  0  0  0  0  0  0  # atno 17395 bound_to 11000

$$$$
