AV-unprocessed.smi:1945|AV-procd|sdf|7860|dock6
  -GOLD-   2272010 13D 1   1.00000     0.00000
 Structure written by MMmdl.
 47 48  0  0  0  0  0  0  0  0  1 V2000
  149.5106  131.7137  153.7061 C   0  0  0  0  0  0  0  0  0  0  0  0
  149.2515  133.1569  154.0223 C   0  0  0  0  0  0  0  0  0  0  0  0
  150.1866  134.1436  154.4493 C   0  0  0  0  0  0  0  0  0  0  0  0
  149.4068  135.2596  154.5868 C   0  0  0  0  0  0  0  0  0  0  0  0
  149.7708  136.5108  154.9757 N   0  0  0  0  0  0  0  0  0  0  0  0
  150.8893  136.9015  155.6109 C   0  0  0  0  0  0  0  0  0  0  0  0
  151.8234  136.1654  155.9293 O   0  0  0  0  0  0  0  0  0  0  0  0
  150.8621  138.2167  155.8710 N   0  0  0  0  0  0  0  0  0  0  0  0
  151.8845  138.9469  156.6136 C   0  0  0  0  0  0  0  0  0  0  0  0
  151.5106  140.4284  156.7644 C   0  0  0  0  0  0  0  0  0  0  0  0
  151.5641  140.7820  158.1384 O   0  0  0  0  0  0  0  0  0  0  0  0
  152.0731  142.0820  158.4008 C   0  0  1  0  0  0  0  0  0  0  0  0
  151.2310  143.1201  157.6283 C   0  0  0  0  0  0  0  0  0  0  0  0
  151.6339  144.5576  157.9873 C   0  0  0  0  0  0  0  0  0  0  0  0
  151.5378  144.7944  159.5007 C   0  0  0  0  0  0  0  0  0  0  0  0
  152.3828  143.7704  160.2732 C   0  0  0  0  0  0  0  0  0  0  0  0
  151.9853  142.3217  159.9251 C   0  0  2  0  0  0  0  0  0  0  0  0
  152.8456  141.3190  160.7109 C   0  0  0  0  0  0  0  0  0  0  0  0
  148.1080  134.9374  154.2550 N   0  0  0  0  0  0  0  0  0  0  0  0
  146.9140  135.7606  154.2395 C   0  0  0  0  0  0  0  0  0  0  0  0
  148.0177  133.6354  153.9095 N   0  0  0  0  0  0  0  0  0  0  0  0
  150.5653  131.4668  153.8285 H   0  0  0  0  0  0  0  0  0  0  0  0
  149.2329  131.4807  152.6781 H   0  0  0  0  0  0  0  0  0  0  0  0
  148.9384  131.0592  154.3639 H   0  0  0  0  0  0  0  0  0  0  0  0
  151.2464  134.0291  154.6202 H   0  0  0  0  0  0  0  0  0  0  0  0
  149.0929  137.2338  154.7856 H   0  0  0  0  0  0  0  0  0  0  0  0
  150.0582  138.7459  155.5667 H   0  0  0  0  0  0  0  0  0  0  0  0
  152.0643  138.4917  157.5892 H   0  0  0  0  0  0  0  0  0  0  0  0
  152.8185  138.8634  156.0579 H   0  0  0  0  0  0  0  0  0  0  0  0
  152.2157  141.0483  156.2093 H   0  0  0  0  0  0  0  0  0  0  0  0
  150.5214  140.6060  156.3418 H   0  0  0  0  0  0  0  0  0  0  0  0
  153.1192  142.1487  158.0950 H   0  0  0  0  0  0  0  0  0  0  0  0
  151.3346  142.9780  156.5531 H   0  0  0  0  0  0  0  0  0  0  0  0
  150.1744  142.9729  157.8562 H   0  0  0  0  0  0  0  0  0  0  0  0
  152.6533  144.7476  157.6494 H   0  0  0  0  0  0  0  0  0  0  0  0
  150.9947  145.2655  157.4588 H   0  0  0  0  0  0  0  0  0  0  0  0
  151.8667  145.8058  159.7406 H   0  0  0  0  0  0  0  0  0  0  0  0
  150.4965  144.7239  159.8175 H   0  0  0  0  0  0  0  0  0  0  0  0
  153.4384  143.9274  160.0463 H   0  0  0  0  0  0  0  0  0  0  0  0
  152.2696  143.9408  161.3443 H   0  0  0  0  0  0  0  0  0  0  0  0
  150.9478  142.1777  160.2308 H   0  0  0  0  0  0  0  0  0  0  0  0
  153.8995  141.4077  160.4457 H   0  0  0  0  0  0  0  0  0  0  0  0
  152.5385  140.2914  160.5142 H   0  0  0  0  0  0  0  0  0  0  0  0
  152.7573  141.4848  161.7849 H   0  0  0  0  0  0  0  0  0  0  0  0
  147.1696  136.8125  154.3665 H   0  0  0  0  0  0  0  0  0  0  0  0
  146.2501  135.4572  155.0494 H   0  0  0  0  0  0  0  0  0  0  0  0
  146.3944  135.6397  153.2884 H   0  0  0  0  0  0  0  0  0  0  0  0
  1  2  1  0  0  0  0
  1 22  1  0  0  0  0
  1 23  1  0  0  0  0
  1 24  1  0  0  0  0
  2 21  2  0  0  0  0
  2  3  1  0  0  0  0
  3  4  2  0  0  0  0
  3 25  1  0  0  0  0
  4  5  1  0  0  0  0
  4 19  1  0  0  0  0
  5  6  1  0  0  0  0
  5 26  1  0  0  0  0
  6  7  2  0  0  0  0
  6  8  1  0  0  0  0
  8  9  1  0  0  0  0
  8 27  1  0  0  0  0
  9 10  1  0  0  0  0
  9 28  1  0  0  0  0
  9 29  1  0  0  0  0
 10 11  1  0  0  0  0
 10 30  1  0  0  0  0
 10 31  1  0  0  0  0
 11 12  1  0  0  0  0
 12 17  1  0  0  0  0
 12 13  1  0  0  0  0
 12 32  1  0  0  0  0
 13 14  1  0  0  0  0
 13 33  1  0  0  0  0
 13 34  1  0  0  0  0
 14 15  1  0  0  0  0
 14 35  1  0  0  0  0
 14 36  1  0  0  0  0
 15 16  1  0  0  0  0
 15 37  1  0  0  0  0
 15 38  1  0  0  0  0
 16 17  1  0  0  0  0
 16 39  1  0  0  0  0
 16 40  1  0  0  0  0
 17 18  1  0  0  0  0
 17 41  1  0  0  0  0
 18 42  1  0  0  0  0
 18 43  1  0  0  0  0
 18 44  1  0  0  0  0
 19 20  1  0  0  0  0
 19 21  1  0  0  0  0
 20 45  1  0  0  0  0
 20 46  1  0  0  0  0
 20 47  1  0  0  0  0
M  END
> <s_m_source_file>
AV-unprocessed.smi

> <i_m_source_file_index>
1945

> <i_lp_mmshare_version>
43012

> <i_f3d_flags>
0

> <s_epik_input>
W0NIM11jMVtjSF1jKG4objEpW0NIM10pW05IXUMoPU8pW05IXVtDSDJdW0NIMl1PW0NAQEhdMltDSDJdW0NIMl1bQ0gyXVtDSDJdW0NASF0yW0NIM10=

> <s_epik_cmdline>
J2VwaWtfcHl0aG9uJywgJy1waCcsICc3LjAnLCAnLXRuJywgJzgnLCAnLW1hJywgJzIwMCcsICctbWV0YWxfYmluZGluZycsICctaW1hZScsICc8aW5maWxlLm1hZT4nLCAnLW9tYWUnLCAnPG91dGZpbGUubWFlPic=

> <r_lp_tautomer_probability>
1

> <r_epik_Ionization_Penalty>
9.47735e-05

> <r_epik_Ionization_Penalty_Charging>
0

> <r_epik_Ionization_Penalty_Neutral>
9.47735e-05

> <r_epik_State_Penalty>
-0

> <r_epik_Charging_Adjusted_Penalty>
0

> <i_epik_Tot_Q>
0

> <i_epik_Tot_abs_Q>
0

> <r_epik_Metal_State_Penalty>
-0

> <b_epik_Metal_Only>
0

> <s_lp_Force_Field>
OPLS_2005

> <r_lp_Energy>
11.6834

> <b_lp_Chiralities_Consistent>
1

> <s_lp_Variant>
AV-unprocessed.smi:1945-4

> <Gold.Version>
5.8.1

> <Gold.Id.Protein>
6NUR|6NUR_protein|mol2

> <Gold.PLP.Fitness>
41.0305

> <Gold.PLP.PLP>
-39.4064

> <Gold.PLP.part.hbond>
-1.0000

> <Gold.PLP.part.metal>
0.0000

> <Gold.PLP.part.buried>
-5.3689

> <Gold.PLP.part.nonpolar>
-32.5187

> <Gold.PLP.part.repulsive>
0.1408

> <Gold.PLP.ligand.clash>
0.0000

> <Gold.PLP.ligand.torsion>
0.6998

> <Gold.PLP.Chemscore.Hbond>
1.0000

> <Gold.PLP.Chemscore.CHOScore>
0.0000

> <Gold.PLP.Chemscore.Metal>
0.0000

> <Gold.Chemscore.Hbonds>
donor molecule, donor type, donor heavy atom, donor atom, acceptor molecule, acceptor atom, score
      P1  H 10752 10763       L1     7  1.00

> <Gold.PLP.Chemscore.Internal.Correction>
0.0236

> <Gold.Rescore>
     Score         DG    S(hbond)    S(metal)    S(lipo)     H(rot)  DE(clash)    DE(int)     intcor
     15.37     -17.19       1.00        0.00     107.23       1.63       0.05       1.77       ----

> <Gold.Chemscore.Fitness>
15.3742

> <Gold.Chemscore.DG>
-17.1888

> <Gold.Chemscore.ZeroCoef>
-5.4800

> <Gold.Chemscore.Hbond>
0.9998

> <Gold.Chemscore.Metal>
0.0000

> <Gold.Chemscore.Lipo>
107.2320

> <Gold.Chemscore.Internal_Hbond>
0.0000

> <Gold.Chemscore.DEClash>
0.0473

> <Gold.Chemscore.DEInternal>
1.7673

> <Gold.Chemscore.Rot>
1.6316

> <Gold.Chemscore.Internal.Correction>
   9.000000E+99

> <Gold.Chemscore.Hbonds>
donor molecule, donor type, donor heavy atom, donor atom, acceptor molecule, acceptor atom, score
      P1  H 10752 10763       L1     7  1.00

> <Gold.Chemscore.Hbond.Weighted>
-3.3395

> <Gold.Chemscore.Metal.Weighted>
-0.0000

> <Gold.Chemscore.Lipo.Weighted>
-12.5461

> <Gold.Chemscore.Internal_Hbond.Weighted>
0.0000

> <Gold.Chemscore.DEClash.Weighted>
0.0473

> <Gold.Chemscore.DEInternal.Weighted>
1.7673

> <Gold.Chemscore.Rot.Weighted>
4.1768

> <Gold.Chemscore.Internal.Correction.Weighted>
   9.000000E+99

> <Gold.Protein.RotatedTorsions>
[ 6907 6896 6895 6894 ] final  -70.03 input  -60.11 | X-H torsion
[ 7974 7965 7964 7962 ] final  -93.54 input  175.53 | X-H torsion
[ 8008 7997 7996 7995 ] final -176.92 input   59.86 | X-H torsion
[ 10167 10162 10161 10158 ] final   22.15 input  -65.29 | X-H torsion
[ 10718 10713 10712 10709 ] final  -23.88 input   66.30 | X-H torsion
[ 10763 10752 10751 10750 ] final   77.83 input  -60.55 | X-H torsion
[ 11005 11000 10999 10996 ] final  100.03 input  -57.11 | X-H torsion

> <Gold.Protein.ActiveResidues>
 VAL166  LYS551  ARG553  GLY616  TRP617  ASP618  TYR619  PRO620  LYS621  CYS622 
 ASP623  PHE694  ASN695  SER759  ASP760  ASP761  ALA762  ILE779  LEU786  VAL792 
 PHE793  MET794  SER795  GLU796  ALA797  LYS798  CYS799  TRP800  GLU811  SER814 

> <Gold.Protein.RotatedAtoms>
  150.7277  134.5511  159.5794 H   0  0  0  0  0  0  0  0  0  0  0  0  # atno 6907 bound_to 6896
  152.2998  134.7621  160.0369 H   0  0  0  0  0  0  0  0  0  0  0  0  # atno 6908 bound_to 6896
  151.8205  133.3358  159.3619 H   0  0  0  0  0  0  0  0  0  0  0  0  # atno 6909 bound_to 6896
  145.3852  140.9522  143.2371 H   0  0  0  0  0  0  0  0  0  0  0  0  # atno 7974 bound_to 7965
  156.0007  140.1220  157.0550 H   0  0  0  0  0  0  0  0  0  0  0  0  # atno 8008 bound_to 7997
  154.4241  140.1107  156.5761 H   0  0  0  0  0  0  0  0  0  0  0  0  # atno 8009 bound_to 7997
  155.6216  140.3472  155.4656 H   0  0  0  0  0  0  0  0  0  0  0  0  # atno 8010 bound_to 7997
  140.5371  143.9741  150.6498 H   0  0  0  0  0  0  0  0  0  0  0  0  # atno 10167 bound_to 10162
  156.4852  130.4554  149.6788 H   0  0  0  0  0  0  0  0  0  0  0  0  # atno 10718 bound_to 10713
  153.0828  135.4900  154.8537 H   0  0  0  0  0  0  0  0  0  0  0  0  # atno 10763 bound_to 10752
  154.7172  135.3032  154.9107 H   0  0  0  0  0  0  0  0  0  0  0  0  # atno 10764 bound_to 10752
  153.9782  135.6793  153.4802 H   0  0  0  0  0  0  0  0  0  0  0  0  # atno 10765 bound_to 10752
  139.8771  134.9122  156.4694 H   0  0  0  0  0  0  0  0  0  0  0  0  # atno 11005 bound_to 11000
  144.8479  139.5367  143.6870 LP  0  0  0  0  0  0  0  0  0  0  0  0  # atno 17320 bound_to 7965
  146.2824  139.6912  142.9220 LP  0  0  0  0  0  0  0  0  0  0  0  0  # atno 17321 bound_to 7965
  140.3132  143.3185  152.0858 LP  0  0  0  0  0  0  0  0  0  0  0  0  # atno 17342 bound_to 10162
  139.4975  144.6623  151.6437 LP  0  0  0  0  0  0  0  0  0  0  0  0  # atno 17343 bound_to 10162
  156.3482  130.7418  151.2373 LP  0  0  0  0  0  0  0  0  0  0  0  0  # atno 17370 bound_to 10713
  157.7479  131.0384  150.4504 LP  0  0  0  0  0  0  0  0  0  0  0  0  # atno 17371 bound_to 10713
  140.8806  133.7920  155.9463 LP  0  0  0  0  0  0  0  0  0  0  0  0  # atno 17394 bound_to 11000
  140.8858  134.2556  157.5121 LP  0  0  0  0  0  0  0  0  0  0  0  0  # atno 17395 bound_to 11000

$$$$
