AV-unprocessed.smi:2440|AV-procd|sdf|9617|dock2
  -GOLD-   2272013253D 1   1.00000     0.00000
 Structure written by MMmdl.
 53 55  0  0  0  0  0  0  0  0  3 V2000
  145.6180  136.0060  151.0718 C   0  0  0  0  0  0  0  0  0  0  0  0
  145.3992  135.5950  152.5174 C   0  0  0  0  0  0  0  0  0  0  0  0
  144.4472  134.5972  152.8209 C   0  0  0  0  0  0  0  0  0  0  0  0
  144.2441  134.2203  154.1009 N   0  3  0  0  0  0  0  0  0  0  0  0
  144.9229  134.7564  155.1361 C   0  0  0  0  0  0  0  0  0  0  0  0
  145.8855  135.7579  154.9014 C   0  0  0  0  0  0  0  0  0  0  0  0
  146.1246  136.2005  153.5753 C   0  0  0  0  0  0  0  0  0  0  0  0
  147.0965  137.1915  153.2616 N   0  0  0  0  0  0  0  0  0  0  0  0
  147.8758  137.8850  154.1088 C   0  0  0  0  0  0  0  0  0  0  0  0
  147.8491  137.7897  155.3358 O   0  0  0  0  0  0  0  0  0  0  0  0
  148.6860  138.7258  153.4499 N   0  0  0  0  0  0  0  0  0  0  0  0
  149.6528  139.6222  154.0774 C   0  0  2  0  0  0  0  0  0  0  0  0
  150.5152  138.8712  155.1038 C   0  0  0  0  0  0  0  0  0  0  0  0
  151.4733  139.8335  155.8236 C   0  0  0  0  0  0  0  0  0  0  0  0
  150.7422  140.9421  156.5028 N   0  3  1  0  0  0  0  0  0  0  0  0
  151.6533  141.7735  157.3567 C   0  0  0  0  0  0  0  0  0  0  0  0
  152.1339  140.9548  158.5808 C   0  0  0  0  0  0  0  0  0  0  0  0
  153.1026  141.7500  159.4710 C   0  0  0  0  0  0  0  0  0  0  0  0
  152.4725  143.0662  159.9434 C   0  0  0  0  0  0  0  0  0  0  0  0
  152.0000  143.9008  158.7466 C   0  0  0  0  0  0  0  0  0  0  0  0
  151.0317  143.1055  157.8560 C   0  0  0  0  0  0  0  0  0  0  0  0
  149.9024  141.6944  155.5249 C   0  0  0  0  0  0  0  0  0  0  0  0
  148.9207  140.7697  154.7844 C   0  0  0  0  0  0  0  0  0  0  0  0
  144.9985  135.4175  150.3945 H   0  0  0  0  0  0  0  0  0  0  0  0
  146.6598  135.8606  150.7855 H   0  0  0  0  0  0  0  0  0  0  0  0
  145.3644  137.0574  150.9335 H   0  0  0  0  0  0  0  0  0  0  0  0
  143.8446  134.0892  152.0819 H   0  0  0  0  0  0  0  0  0  0  0  0
  144.6822  134.3668  156.1146 H   0  0  0  0  0  0  0  0  0  0  0  0
  146.4330  136.1600  155.7406 H   0  0  0  0  0  0  0  0  0  0  0  0
  147.1541  137.4502  152.2875 H   0  0  0  0  0  0  0  0  0  0  0  0
  148.6380  138.7415  152.4414 H   0  0  0  0  0  0  0  0  0  0  0  0
  150.2999  140.0493  153.3084 H   0  0  0  0  0  0  0  0  0  0  0  0
  149.8786  138.3735  155.8370 H   0  0  0  0  0  0  0  0  0  0  0  0
  151.0900  138.0865  154.6102 H   0  0  0  0  0  0  0  0  0  0  0  0
  152.0614  139.2606  156.5385 H   0  0  0  0  0  0  0  0  0  0  0  0
  152.1817  140.2530  155.1072 H   0  0  0  0  0  0  0  0  0  0  0  0
  152.5219  142.0397  156.7515 H   0  0  0  0  0  0  0  0  0  0  0  0
  151.2721  140.6453  159.1740 H   0  0  0  0  0  0  0  0  0  0  0  0
  152.6330  140.0373  158.2728 H   0  0  0  0  0  0  0  0  0  0  0  0
  153.3931  141.1490  160.3332 H   0  0  0  0  0  0  0  0  0  0  0  0
  154.0189  141.9599  158.9179 H   0  0  0  0  0  0  0  0  0  0  0  0
  151.6285  142.8559  160.6016 H   0  0  0  0  0  0  0  0  0  0  0  0
  153.1921  143.6343  160.5340 H   0  0  0  0  0  0  0  0  0  0  0  0
  151.5161  144.8120  159.0993 H   0  0  0  0  0  0  0  0  0  0  0  0
  152.8619  144.2175  158.1579 H   0  0  0  0  0  0  0  0  0  0  0  0
  150.7602  143.7457  157.0164 H   0  0  0  0  0  0  0  0  0  0  0  0
  150.1160  142.9046  158.4140 H   0  0  0  0  0  0  0  0  0  0  0  0
  149.3006  142.4487  156.0302 H   0  0  0  0  0  0  0  0  0  0  0  0
  150.5451  142.2132  154.8119 H   0  0  0  0  0  0  0  0  0  0  0  0
  148.3479  141.3498  154.0597 H   0  0  0  0  0  0  0  0  0  0  0  0
  148.1988  140.3667  155.4965 H   0  0  0  0  0  0  0  0  0  0  0  0
  150.0885  140.5111  157.1407 H   0  0  0  0  0  0  0  0  0  0  0  0
  143.5517  133.4957  154.2932 H   0  0  0  0  0  0  0  0  0  0  0  0
  1  2  1  0  0  0  0
  1 24  1  0  0  0  0
  1 25  1  0  0  0  0
  1 26  1  0  0  0  0
  2  7  1  0  0  0  0
  2  3  2  0  0  0  0
  3  4  1  0  0  0  0
  3 27  1  0  0  0  0
  4  5  2  0  0  0  0
  4 53  1  0  0  0  0
  5  6  1  0  0  0  0
  5 28  1  0  0  0  0
  6  7  2  0  0  0  0
  6 29  1  0  0  0  0
  7  8  1  0  0  0  0
  8  9  1  0  0  0  0
  8 30  1  0  0  0  0
  9 10  2  0  0  0  0
  9 11  1  0  0  0  0
 11 12  1  0  0  0  0
 11 31  1  0  0  0  0
 12 23  1  0  0  0  0
 12 13  1  0  0  0  0
 12 32  1  0  0  0  0
 13 14  1  0  0  0  0
 13 33  1  0  0  0  0
 13 34  1  0  0  0  0
 14 15  1  0  0  0  0
 14 35  1  0  0  0  0
 14 36  1  0  0  0  0
 15 16  1  0  0  0  0
 15 22  1  0  0  0  0
 15 52  1  0  0  0  0
 16 21  1  0  0  0  0
 16 17  1  0  0  0  0
 16 37  1  0  0  0  0
 17 18  1  0  0  0  0
 17 38  1  0  0  0  0
 17 39  1  0  0  0  0
 18 19  1  0  0  0  0
 18 40  1  0  0  0  0
 18 41  1  0  0  0  0
 19 20  1  0  0  0  0
 19 42  1  0  0  0  0
 19 43  1  0  0  0  0
 20 21  1  0  0  0  0
 20 44  1  0  0  0  0
 20 45  1  0  0  0  0
 21 46  1  0  0  0  0
 21 47  1  0  0  0  0
 22 23  1  0  0  0  0
 22 48  1  0  0  0  0
 22 49  1  0  0  0  0
 23 50  1  0  0  0  0
 23 51  1  0  0  0  0
M  CHG  1   4   1
M  CHG  1  15   1
M  END
> <s_m_source_file>
AV-unprocessed.smi

> <i_m_source_file_index>
2440

> <i_lp_mmshare_version>
43012

> <i_f3d_flags>
0

> <s_epik_input>
W0NIM11jMVtjSF1uW2NIXVtjSF1jMVtOSF1DKD1PKVtOSF1bQ0hdMltDSDJdW0NIMl1OKFtDSDJdW0NIMl0yKVtDSF0zW0NIMl1bQ0gyXVtDSDJdW0NIMl1bQ0gyXTM=

> <s_epik_cmdline>
J2VwaWtfcHl0aG9uJywgJy1waCcsICc3LjAnLCAnLXRuJywgJzgnLCAnLW1hJywgJzIwMCcsICctbWV0YWxfYmluZGluZycsICctaW1hZScsICc8aW5maWxlLm1hZT4nLCAnLW9tYWUnLCAnPG91dGZpbGUubWFlPic=

> <r_epik_Ionization_Penalty>
0.799454

> <r_epik_Ionization_Penalty_Charging>
0.799436

> <r_epik_Ionization_Penalty_Neutral>
1.84398e-05

> <r_epik_State_Penalty>
0.81805

> <r_epik_Charging_Adjusted_Penalty>
1.61749

> <i_epik_Tot_Q>
2

> <i_epik_Tot_abs_Q>
2

> <r_epik_Metal_State_Penalty>
0.955144

> <b_epik_Metal_Only>
0

> <s_lp_Force_Field>
OPLS_2005

> <r_lp_Energy>
40.0513

> <b_lp_Chiralities_Consistent>
1

> <s_lp_Variant>
AV-unprocessed.smi:2440-3

> <Gold.Version>
5.8.1

> <Gold.Id.Protein>
6NUR|6NUR_protein|mol2

> <Gold.PLP.Fitness>
45.6426

> <Gold.PLP.PLP>
-38.6188

> <Gold.PLP.part.hbond>
-4.0000

> <Gold.PLP.part.metal>
0.0000

> <Gold.PLP.part.buried>
-1.6313

> <Gold.PLP.part.nonpolar>
-33.2348

> <Gold.PLP.part.repulsive>
0.2096

> <Gold.PLP.ligand.clash>
0.0000

> <Gold.PLP.ligand.torsion>
0.3375

> <Gold.PLP.Chemscore.Hbond>
2.5522

> <Gold.PLP.Chemscore.CHOScore>
0.0000

> <Gold.PLP.Chemscore.Metal>
0.0000

> <Gold.Chemscore.Hbonds>
donor molecule, donor type, donor heavy atom, donor atom, acceptor molecule, acceptor atom, score
      L1  H     4    53       P1 10957  2.00
      L1  H    11    31       P1  7957  0.55

> <Gold.PLP.Chemscore.Internal.Correction>
0.0421

> <Gold.Rescore>
     Score         DG    S(hbond)    S(metal)    S(lipo)     H(rot)  DE(clash)    DE(int)     intcor
     17.10     -20.37       1.49        0.00     110.55       1.18       0.51       2.76       ----

> <Gold.Chemscore.Fitness>
17.1024

> <Gold.Chemscore.DG>
-20.3734

> <Gold.Chemscore.ZeroCoef>
-5.4800

> <Gold.Chemscore.Hbond>
1.4946

> <Gold.Chemscore.Metal>
0.0000

> <Gold.Chemscore.Lipo>
110.5479

> <Gold.Chemscore.Internal_Hbond>
0.0000

> <Gold.Chemscore.DEClash>
0.5108

> <Gold.Chemscore.DEInternal>
2.7602

> <Gold.Chemscore.Rot>
1.1846

> <Gold.Chemscore.Internal.Correction>
   9.000000E+99

> <Gold.Chemscore.Hbonds>
donor molecule, donor type, donor heavy atom, donor atom, acceptor molecule, acceptor atom, score
      L1  H     4    53       P1 10957  0.95
      L1  H     8    30       P1  7948  0.01
      L1  H    11    31       P1  7957  0.51

> <Gold.Chemscore.Hbond.Weighted>
-4.9919

> <Gold.Chemscore.Metal.Weighted>
-0.0000

> <Gold.Chemscore.Lipo.Weighted>
-12.9341

> <Gold.Chemscore.Internal_Hbond.Weighted>
0.0000

> <Gold.Chemscore.DEClash.Weighted>
0.5108

> <Gold.Chemscore.DEInternal.Weighted>
2.7602

> <Gold.Chemscore.Rot.Weighted>
3.0326

> <Gold.Chemscore.Internal.Correction.Weighted>
   9.000000E+99

> <Gold.Protein.RotatedTorsions>
[ 6907 6896 6895 6894 ] final   90.23 input  -60.11 | X-H torsion
[ 7974 7965 7964 7962 ] final  127.02 input  175.53 | X-H torsion
[ 8008 7997 7996 7995 ] final  129.93 input   59.86 | X-H torsion
[ 10167 10162 10161 10158 ] final  148.05 input  -65.29 | X-H torsion
[ 10718 10713 10712 10709 ] final -140.34 input   66.30 | X-H torsion
[ 10763 10752 10751 10750 ] final  -66.58 input  -60.55 | X-H torsion
[ 11005 11000 10999 10996 ] final   30.51 input  -57.11 | X-H torsion

> <Gold.Protein.ActiveResidues>
 VAL166  LYS551  ARG553  GLY616  TRP617  ASP618  TYR619  PRO620  LYS621  CYS622 
 ASP623  PHE694  ASN695  SER759  ASP760  ASP761  ALA762  ILE779  LEU786  VAL792 
 PHE793  MET794  SER795  GLU796  ALA797  LYS798  CYS799  TRP800  GLU811  SER814 

> <Gold.Protein.RotatedAtoms>
  152.5443  134.1843  159.8647 H   0  0  0  0  0  0  0  0  0  0  0  0  # atno 6907 bound_to 6896
  151.1843  133.4699  159.2602 H   0  0  0  0  0  0  0  0  0  0  0  0  # atno 6908 bound_to 6896
  151.1147  135.0058  159.8565 H   0  0  0  0  0  0  0  0  0  0  0  0  # atno 6909 bound_to 6896
  145.0553  139.3849  143.5033 H   0  0  0  0  0  0  0  0  0  0  0  0  # atno 7974 bound_to 7965
  156.2945  140.2608  156.2680 H   0  0  0  0  0  0  0  0  0  0  0  0  # atno 8008 bound_to 7997
  154.9723  140.0391  157.2259 H   0  0  0  0  0  0  0  0  0  0  0  0  # atno 8009 bound_to 7997
  154.7847  140.2801  155.6041 H   0  0  0  0  0  0  0  0  0  0  0  0  # atno 8010 bound_to 7997
  139.4880  144.5709  151.7057 H   0  0  0  0  0  0  0  0  0  0  0  0  # atno 10167 bound_to 10162
  156.3212  130.7535  151.1633 H   0  0  0  0  0  0  0  0  0  0  0  0  # atno 10718 bound_to 10713
  154.3618  135.6114  153.5695 H   0  0  0  0  0  0  0  0  0  0  0  0  # atno 10763 bound_to 10752
  152.9793  135.5817  154.4624 H   0  0  0  0  0  0  0  0  0  0  0  0  # atno 10764 bound_to 10752
  154.4363  135.2849  155.1856 H   0  0  0  0  0  0  0  0  0  0  0  0  # atno 10765 bound_to 10752
  140.2936  134.2836  155.7770 H   0  0  0  0  0  0  0  0  0  0  0  0  # atno 11005 bound_to 11000
  146.3521  140.0223  142.8657 LP  0  0  0  0  0  0  0  0  0  0  0  0  # atno 17320 bound_to 7965
  145.1476  140.9606  143.4451 LP  0  0  0  0  0  0  0  0  0  0  0  0  # atno 17321 bound_to 7965
  140.5296  144.0751  150.6049 LP  0  0  0  0  0  0  0  0  0  0  0  0  # atno 17342 bound_to 10162
  140.3737  143.2840  152.0249 LP  0  0  0  0  0  0  0  0  0  0  0  0  # atno 17343 bound_to 10162
  157.7412  131.0507  150.5113 LP  0  0  0  0  0  0  0  0  0  0  0  0  # atno 17370 bound_to 10713
  156.5266  130.4174  149.6223 LP  0  0  0  0  0  0  0  0  0  0  0  0  # atno 17371 bound_to 10713
  141.2141  133.7601  156.9662 LP  0  0  0  0  0  0  0  0  0  0  0  0  # atno 17394 bound_to 11000
  140.1173  134.9439  157.2152 LP  0  0  0  0  0  0  0  0  0  0  0  0  # atno 17395 bound_to 11000

$$$$
