AV-unprocessed.smi:496|AV-procd|sdf|2720|dock9
  -GOLD-   2262023163D 1   1.00000     0.00000
 Structure written by MMmdl.
 41 43  0  0  0  0  0  0  0  0  2 V2000
  149.2398  139.6000  154.4435 C   0  0  0  0  0  0  0  0  0  0  0  0
  150.1311  140.6134  154.8721 O   0  0  0  0  0  0  0  0  0  0  0  0
  149.6584  141.3053  156.0169 C   0  0  0  0  0  0  0  0  0  0  0  0
  150.6932  142.3538  156.4533 C   0  0  0  0  0  0  0  0  0  0  0  0
  151.3017  142.0323  157.7474 N   0  0  0  0  0  0  0  0  0  0  0  0
  151.6944  140.8293  158.2705 C   0  0  0  0  0  0  0  0  0  0  0  0
  151.5675  139.4958  157.5526 C   0  0  2  0  0  0  0  0  0  0  0  0
  150.6714  138.5195  158.3288 C   0  0  0  0  0  0  0  0  0  0  0  0
  152.8691  138.8707  157.3077 N   0  5  0  0  0  0  0  0  0  0  0  0
  153.0301  137.6513  156.7197 C   0  0  0  0  0  0  0  0  0  0  0  0
  152.1823  136.8767  156.2625 O   0  0  0  0  0  0  0  0  0  0  0  0
  154.4503  137.2344  156.6874 C   0  0  0  0  0  0  0  0  0  0  0  0
  155.0517  136.0551  156.3270 C   0  0  0  0  0  0  0  0  0  0  0  0
  156.4490  136.2273  156.5282 C   0  0  0  0  0  0  0  0  0  0  0  0
  156.6042  137.4957  157.0078 C   0  0  0  0  0  0  0  0  0  0  0  0
  155.3991  138.1179  157.1177 O   0  0  0  0  0  0  0  0  0  0  0  0
  152.2371  140.8942  159.4913 N   0  0  0  0  0  0  0  0  0  0  0  0
  152.1787  142.2378  159.7950 C   0  0  0  0  0  0  0  0  0  0  0  0
  152.5915  142.9345  160.9534 C   0  0  0  0  0  0  0  0  0  0  0  0
  152.4245  144.3316  161.0438 C   0  0  0  0  0  0  0  0  0  0  0  0
  151.8432  145.0496  159.9790 C   0  0  0  0  0  0  0  0  0  0  0  0
  151.4270  144.3733  158.8160 C   0  0  0  0  0  0  0  0  0  0  0  0
  151.5968  142.9775  158.7294 C   0  0  0  0  0  0  0  0  0  0  0  0
  149.6488  139.1005  153.5655 H   0  0  0  0  0  0  0  0  0  0  0  0
  148.2699  140.0181  154.1711 H   0  0  0  0  0  0  0  0  0  0  0  0
  149.0927  138.8496  155.2211 H   0  0  0  0  0  0  0  0  0  0  0  0
  148.7065  141.7883  155.7928 H   0  0  0  0  0  0  0  0  0  0  0  0
  149.4804  140.6013  156.8308 H   0  0  0  0  0  0  0  0  0  0  0  0
  151.4685  142.4761  155.6967 H   0  0  0  0  0  0  0  0  0  0  0  0
  150.2113  143.3283  156.5295 H   0  0  0  0  0  0  0  0  0  0  0  0
  151.0550  139.6735  156.6073 H   0  0  0  0  0  0  0  0  0  0  0  0
  149.6801  138.9453  158.4865 H   0  0  0  0  0  0  0  0  0  0  0  0
  151.0895  138.2812  159.3075 H   0  0  0  0  0  0  0  0  0  0  0  0
  150.5438  137.5830  157.7848 H   0  0  0  0  0  0  0  0  0  0  0  0
  154.5449  135.1740  155.9613 H   0  0  0  0  0  0  0  0  0  0  0  0
  157.2385  135.5129  156.3484 H   0  0  0  0  0  0  0  0  0  0  0  0
  157.4570  138.0851  157.3104 H   0  0  0  0  0  0  0  0  0  0  0  0
  153.0364  142.3907  161.7733 H   0  0  0  0  0  0  0  0  0  0  0  0
  152.7425  144.8541  161.9339 H   0  0  0  0  0  0  0  0  0  0  0  0
  151.7165  146.1195  160.0552 H   0  0  0  0  0  0  0  0  0  0  0  0
  150.9789  144.9221  158.0014 H   0  0  0  0  0  0  0  0  0  0  0  0
  1  2  1  0  0  0  0
  1 24  1  0  0  0  0
  1 25  1  0  0  0  0
  1 26  1  0  0  0  0
  2  3  1  0  0  0  0
  3  4  1  0  0  0  0
  3 27  1  0  0  0  0
  3 28  1  0  0  0  0
  4  5  1  0  0  0  0
  4 29  1  0  0  0  0
  4 30  1  0  0  0  0
  5 23  1  0  0  0  0
  5  6  1  0  0  0  0
  6  7  1  0  0  0  0
  6 17  2  0  0  0  0
  7  8  1  0  0  0  0
  7  9  1  0  0  0  0
  7 31  1  0  0  0  0
  8 32  1  0  0  0  0
  8 33  1  0  0  0  0
  8 34  1  0  0  0  0
  9 10  1  0  0  0  0
 10 11  2  0  0  0  0
 10 12  1  0  0  0  0
 12 16  1  0  0  0  0
 12 13  2  0  0  0  0
 13 14  1  0  0  0  0
 13 35  1  0  0  0  0
 14 15  2  0  0  0  0
 14 36  1  0  0  0  0
 15 16  1  0  0  0  0
 15 37  1  0  0  0  0
 17 18  1  0  0  0  0
 18 23  2  0  0  0  0
 18 19  1  0  0  0  0
 19 20  2  0  0  0  0
 19 38  1  0  0  0  0
 20 21  1  0  0  0  0
 20 39  1  0  0  0  0
 21 22  2  0  0  0  0
 21 40  1  0  0  0  0
 22 23  1  0  0  0  0
 22 41  1  0  0  0  0
M  CHG  1   9  -1
M  END
> <s_m_source_file>
AV-unprocessed.smi

> <i_m_source_file_index>
496

> <i_lp_mmshare_version>
43012

> <i_f3d_flags>
0

> <s_epik_input>
W2NIXTFbY0hdW2NIXVtjSF1jKGMxMiluKFtDSDJdW0NIMl1PW0NIM10pYyhuMilbQ0BIXShbQ0gzXSlbTkhdQyg9TyljM1tjSF1bY0hdW2NIXW8z

> <s_epik_cmdline>
J2VwaWtfcHl0aG9uJywgJy1waCcsICc3LjAnLCAnLXRuJywgJzgnLCAnLW1hJywgJzIwMCcsICctbWV0YWxfYmluZGluZycsICctaW1hZScsICc8aW5maWxlLm1hZT4nLCAnLW9tYWUnLCAnPG91dGZpbGUubWFlPic=

> <r_epik_Ionization_Penalty>
7.3423

> <r_epik_Ionization_Penalty_Charging>
6.43826

> <r_epik_Ionization_Penalty_Neutral>
0.90404

> <r_epik_State_Penalty>
6.54438

> <r_epik_Charging_Adjusted_Penalty>
12.9826

> <i_epik_Tot_Q>
-1

> <i_epik_Tot_abs_Q>
1

> <r_epik_Metal_State_Penalty>
2.56942

> <b_epik_Metal_Only>
1

> <s_lp_Force_Field>
OPLS_2005

> <r_lp_Energy>
15.948

> <b_lp_Chiralities_Consistent>
1

> <s_lp_Variant>
AV-unprocessed.smi:496-5

> <Gold.Version>
5.8.1

> <Gold.Id.Protein>
6NUR|6NUR_protein|mol2

> <Gold.PLP.Fitness>
55.4193

> <Gold.PLP.PLP>
-43.2336

> <Gold.PLP.part.hbond>
-4.0000

> <Gold.PLP.part.metal>
0.0000

> <Gold.PLP.part.buried>
-6.7260

> <Gold.PLP.part.nonpolar>
-32.4720

> <Gold.PLP.part.repulsive>
0.1035

> <Gold.PLP.ligand.clash>
0.0000

> <Gold.PLP.ligand.torsion>
0.7049

> <Gold.PLP.Chemscore.Hbond>
4.4800

> <Gold.PLP.Chemscore.CHOScore>
0.0000

> <Gold.PLP.Chemscore.Metal>
0.0000

> <Gold.Chemscore.Hbonds>
donor molecule, donor type, donor heavy atom, donor atom, acceptor molecule, acceptor atom, score
      P1  H  7989  7998       L1     2  0.86
      P1  H  7997  8008       L1    16  0.01
      P1  H  7997  8009       L1     9  1.98
      P1  H 10752 10765       L1    11  0.58

> <Gold.PLP.Chemscore.Internal.Correction>
0.1554

> <Gold.Rescore>
     Score         DG    S(hbond)    S(metal)    S(lipo)     H(rot)  DE(clash)    DE(int)     intcor
     20.50     -22.42       2.42        0.00     114.73       1.78       1.41       0.51       ----

> <Gold.Chemscore.Fitness>
20.4999

> <Gold.Chemscore.DG>
-22.4195

> <Gold.Chemscore.ZeroCoef>
-5.4800

> <Gold.Chemscore.Hbond>
2.4184

> <Gold.Chemscore.Metal>
0.0000

> <Gold.Chemscore.Lipo>
114.7318

> <Gold.Chemscore.Internal_Hbond>
0.0000

> <Gold.Chemscore.DEClash>
1.4096

> <Gold.Chemscore.DEInternal>
0.5100

> <Gold.Chemscore.Rot>
1.7819

> <Gold.Chemscore.Internal.Correction>
   9.000000E+99

> <Gold.Chemscore.Hbonds>
donor molecule, donor type, donor heavy atom, donor atom, acceptor molecule, acceptor atom, score
      P1  H  7989  7998       L1     2  0.62
      P1  H  7997  8008       L1    16  0.01
      P1  H  7997  8009       L1     9  0.53
      P1  H 10752 10765       L1    11  0.17

> <Gold.Chemscore.Hbond.Weighted>
-8.0776

> <Gold.Chemscore.Metal.Weighted>
-0.0000

> <Gold.Chemscore.Lipo.Weighted>
-13.4236

> <Gold.Chemscore.Internal_Hbond.Weighted>
0.0000

> <Gold.Chemscore.DEClash.Weighted>
1.4096

> <Gold.Chemscore.DEInternal.Weighted>
0.5100

> <Gold.Chemscore.Rot.Weighted>
4.5617

> <Gold.Chemscore.Internal.Correction.Weighted>
   9.000000E+99

> <Gold.Protein.RotatedTorsions>
[ 6907 6896 6895 6894 ] final  -99.58 input  -60.11 | X-H torsion
[ 7974 7965 7964 7962 ] final  -15.60 input  175.53 | X-H torsion
[ 8008 7997 7996 7995 ] final  178.90 input   59.86 | X-H torsion
[ 10167 10162 10161 10158 ] final   81.70 input  -65.29 | X-H torsion
[ 10718 10713 10712 10709 ] final  119.92 input   66.30 | X-H torsion
[ 10763 10752 10751 10750 ] final -127.82 input  -60.55 | X-H torsion
[ 11005 11000 10999 10996 ] final  144.90 input  -57.11 | X-H torsion

> <Gold.Protein.ActiveResidues>
 VAL166  LYS551  ARG553  GLY616  TRP617  ASP618  TYR619  PRO620  LYS621  CYS622 
 ASP623  PHE694  ASN695  SER759  ASP760  ASP761  ALA762  ILE779  LEU786  VAL792 
 PHE793  MET794  SER795  GLU796  ALA797  LYS798  CYS799  TRP800  GLU811  SER814 

> <Gold.Protein.RotatedAtoms>
  150.7085  134.1019  159.3968 H   0  0  0  0  0  0  0  0  0  0  0  0  # atno 6907 bound_to 6896
  151.9005  135.0378  160.0515 H   0  0  0  0  0  0  0  0  0  0  0  0  # atno 6908 bound_to 6896
  152.2418  133.5106  159.5311 H   0  0  0  0  0  0  0  0  0  0  0  0  # atno 6909 bound_to 6896
  146.2025  140.3516  142.8418 H   0  0  0  0  0  0  0  0  0  0  0  0  # atno 7974 bound_to 7965
  156.0495  140.1322  157.0066 H   0  0  0  0  0  0  0  0  0  0  0  0  # atno 8008 bound_to 7997
  154.4428  140.1014  156.6426 H   0  0  0  0  0  0  0  0  0  0  0  0  # atno 8009 bound_to 7997
  155.5545  140.3463  155.4478 H   0  0  0  0  0  0  0  0  0  0  0  0  # atno 8010 bound_to 7997
  139.9365  144.6118  150.8293 H   0  0  0  0  0  0  0  0  0  0  0  0  # atno 10167 bound_to 10162
  157.5927  131.1062  150.7964 H   0  0  0  0  0  0  0  0  0  0  0  0  # atno 10718 bound_to 10713
  154.8754  135.3949  154.3656 H   0  0  0  0  0  0  0  0  0  0  0  0  # atno 10763 bound_to 10752
  153.4423  135.7027  153.6166 H   0  0  0  0  0  0  0  0  0  0  0  0  # atno 10764 bound_to 10752
  153.4742  135.3783  155.2376 H   0  0  0  0  0  0  0  0  0  0  0  0  # atno 10765 bound_to 10752
  140.0669  134.9173  157.1280 H   0  0  0  0  0  0  0  0  0  0  0  0  # atno 11005 bound_to 11000
  144.8715  140.7279  143.6044 LP  0  0  0  0  0  0  0  0  0  0  0  0  # atno 17320 bound_to 7965
  145.3436  139.1725  143.4472 LP  0  0  0  0  0  0  0  0  0  0  0  0  # atno 17321 bound_to 7965
  140.7623  143.3195  151.2656 LP  0  0  0  0  0  0  0  0  0  0  0  0  # atno 17342 bound_to 10162
  139.6739  143.9971  152.2769 LP  0  0  0  0  0  0  0  0  0  0  0  0  # atno 17343 bound_to 10162
  156.8382  130.5039  149.5324 LP  0  0  0  0  0  0  0  0  0  0  0  0  # atno 17370 bound_to 10713
  156.0985  130.5950  150.9853 LP  0  0  0  0  0  0  0  0  0  0  0  0  # atno 17371 bound_to 10713
  140.3685  134.2416  155.7180 LP  0  0  0  0  0  0  0  0  0  0  0  0  # atno 17394 bound_to 11000
  141.1996  133.8007  157.0527 LP  0  0  0  0  0  0  0  0  0  0  0  0  # atno 17395 bound_to 11000

$$$$
