AV-unprocessed.smi:433|AV-procd|sdf|2550|dock10
  -GOLD-   2262022513D 1   1.00000     0.00000
 Structure written by MMmdl.
 36 37  0  0  0  0  0  0  0  0  1 V2000
  154.4760  138.0390  157.8802 C   0  0  0  0  0  0  0  0  0  0  0  0
  153.0830  138.3773  157.8304 N   0  0  0  0  0  0  0  0  0  0  0  0
  152.1872  137.9743  158.8015 C   0  0  0  0  0  0  0  0  0  0  0  0
  150.8717  138.2779  158.7558 C   0  0  0  0  0  0  0  0  0  0  0  0
  150.3218  139.0652  157.6577 C   0  0  0  0  0  0  0  0  0  0  0  0
  149.1250  139.3406  157.5629 O   0  0  0  0  0  0  0  0  0  0  0  0
  151.2722  139.4786  156.6900 N   0  0  0  0  0  0  0  0  0  0  0  0
  150.7933  140.2465  155.5538 C   0  0  0  0  0  0  0  0  0  0  0  0
  150.0306  141.5250  155.9699 C   0  0  2  0  0  0  0  0  0  0  0  0
  149.4928  142.1317  154.8125 O   0  0  0  0  0  0  0  0  0  0  0  0
  150.9485  142.5568  156.6418 C   0  0  0  0  0  0  0  0  0  0  0  0
  151.4529  141.9924  157.8448 O   0  0  0  0  0  0  0  0  0  0  0  0
  151.5534  142.8002  158.9562 C   0  0  0  0  0  0  0  0  0  0  0  0
  151.1444  144.1418  158.8090 C   0  0  0  0  0  0  0  0  0  0  0  0
  151.2115  145.0388  159.8923 C   0  0  0  0  0  0  0  0  0  0  0  0
  151.6921  144.6001  161.1397 C   0  0  0  0  0  0  0  0  0  0  0  0
  152.1051  143.2644  161.3004 C   0  0  0  0  0  0  0  0  0  0  0  0
  152.0377  142.3670  160.2166 C   0  0  0  0  0  0  0  0  0  0  0  0
  152.6460  139.1444  156.7287 C   0  0  0  0  0  0  0  0  0  0  0  0
  153.4298  139.4944  155.8417 O   0  0  0  0  0  0  0  0  0  0  0  0
  154.6494  137.4589  158.7872 H   0  0  0  0  0  0  0  0  0  0  0  0
  155.0410  138.9722  157.9063 H   0  0  0  0  0  0  0  0  0  0  0  0
  154.7017  137.4442  156.9934 H   0  0  0  0  0  0  0  0  0  0  0  0
  152.5488  137.3874  159.6333 H   0  0  0  0  0  0  0  0  0  0  0  0
  150.2157  137.9309  159.5405 H   0  0  0  0  0  0  0  0  0  0  0  0
  151.6681  140.4814  154.9452 H   0  0  0  0  0  0  0  0  0  0  0  0
  150.2029  139.5880  154.9139 H   0  0  0  0  0  0  0  0  0  0  0  0
  149.2088  141.2889  156.6476 H   0  0  0  0  0  0  0  0  0  0  0  0
  149.0392  142.9197  155.0710 H   0  0  0  0  0  0  0  0  0  0  0  0
  151.7623  142.8309  155.9678 H   0  0  0  0  0  0  0  0  0  0  0  0
  150.3817  143.4596  156.8764 H   0  0  0  0  0  0  0  0  0  0  0  0
  150.7736  144.4863  157.8546 H   0  0  0  0  0  0  0  0  0  0  0  0
  150.8940  146.0633  159.7655 H   0  0  0  0  0  0  0  0  0  0  0  0
  151.7443  145.2869  161.9717 H   0  0  0  0  0  0  0  0  0  0  0  0
  152.4754  142.9266  162.2572 H   0  0  0  0  0  0  0  0  0  0  0  0
  152.3651  141.3513  160.3774 H   0  0  0  0  0  0  0  0  0  0  0  0
  1  2  1  0  0  0  0
  1 21  1  0  0  0  0
  1 22  1  0  0  0  0
  1 23  1  0  0  0  0
  2 19  1  0  0  0  0
  2  3  1  0  0  0  0
  3  4  2  0  0  0  0
  3 24  1  0  0  0  0
  4  5  1  0  0  0  0
  4 25  1  0  0  0  0
  5  6  2  0  0  0  0
  5  7  1  0  0  0  0
  7  8  1  0  0  0  0
  7 19  1  0  0  0  0
  8  9  1  0  0  0  0
  8 26  1  0  0  0  0
  8 27  1  0  0  0  0
  9 10  1  0  0  0  0
  9 11  1  0  0  0  0
  9 28  1  0  0  0  0
 10 29  1  0  0  0  0
 11 12  1  0  0  0  0
 11 30  1  0  0  0  0
 11 31  1  0  0  0  0
 12 13  1  0  0  0  0
 13 18  1  0  0  0  0
 13 14  2  0  0  0  0
 14 15  1  0  0  0  0
 14 32  1  0  0  0  0
 15 16  2  0  0  0  0
 15 33  1  0  0  0  0
 16 17  1  0  0  0  0
 16 34  1  0  0  0  0
 17 18  2  0  0  0  0
 17 35  1  0  0  0  0
 18 36  1  0  0  0  0
 19 20  2  0  0  0  0
M  END
> <s_m_source_file>
AV-unprocessed.smi

> <i_m_source_file_index>
433

> <i_lp_mmshare_version>
43012

> <i_f3d_flags>
0

> <s_epik_input>
W0NIM11uMVtjSF1bY0hdYyg9TyluKGMxPU8pW0NIMl1bQ0BIXShbT0hdKVtDSDJdT2MyW2NIXVtjSF1bY0hdW2NIXVtjSF0y

> <s_epik_cmdline>
J2VwaWtfcHl0aG9uJywgJy1waCcsICc3LjAnLCAnLXRuJywgJzgnLCAnLW1hJywgJzIwMCcsICctbWV0YWxfYmluZGluZycsICctaW1hZScsICc8aW5maWxlLm1hZT4nLCAnLW9tYWUnLCAnPG91dGZpbGUubWFlPic=

> <r_lp_tautomer_probability>
1

> <r_epik_Ionization_Penalty>
2.21742e-07

> <r_epik_Ionization_Penalty_Charging>
1.04568e-07

> <r_epik_Ionization_Penalty_Neutral>
1.17174e-07

> <r_epik_State_Penalty>
-0

> <r_epik_Charging_Adjusted_Penalty>
1.04568e-07

> <i_epik_Tot_Q>
0

> <i_epik_Tot_abs_Q>
0

> <r_epik_Metal_State_Penalty>
-0

> <b_epik_Metal_Only>
0

> <s_lp_Force_Field>
OPLS_2005

> <r_lp_Energy>
22.5639

> <b_lp_Chiralities_Consistent>
1

> <s_lp_Variant>
AV-unprocessed.smi:433-1

> <Gold.Version>
5.8.1

> <Gold.Id.Protein>
6NUR|6NUR_protein|mol2

> <Gold.PLP.Fitness>
42.0305

> <Gold.PLP.PLP>
-38.7795

> <Gold.PLP.part.hbond>
-3.2503

> <Gold.PLP.part.metal>
0.0000

> <Gold.PLP.part.buried>
-5.1968

> <Gold.PLP.part.nonpolar>
-30.4738

> <Gold.PLP.part.repulsive>
0.0268

> <Gold.PLP.ligand.clash>
2.0814

> <Gold.PLP.ligand.torsion>
0.3352

> <Gold.PLP.Chemscore.Hbond>
1.9920

> <Gold.PLP.Chemscore.CHOScore>
0.0000

> <Gold.PLP.Chemscore.Metal>
0.0000

> <Gold.Chemscore.Hbonds>
donor molecule, donor type, donor heavy atom, donor atom, acceptor molecule, acceptor atom, score
      L1  H    10    29       P1  8028  1.00
      P1  H  7997  8009       L1    20  0.26

> <Gold.PLP.Chemscore.Internal.Correction>
0.0268

> <Gold.Rescore>
     Score         DG    S(hbond)    S(metal)    S(lipo)     H(rot)  DE(clash)    DE(int)     intcor
     15.04     -17.96       1.99        0.00     103.63       2.46       0.08       2.83       ----

> <Gold.Chemscore.Fitness>
15.0438

> <Gold.Chemscore.DG>
-17.9616

> <Gold.Chemscore.ZeroCoef>
-5.4800

> <Gold.Chemscore.Hbond>
1.9931

> <Gold.Chemscore.Metal>
0.0000

> <Gold.Chemscore.Lipo>
103.6273

> <Gold.Chemscore.Internal_Hbond>
0.0000

> <Gold.Chemscore.DEClash>
0.0840

> <Gold.Chemscore.DEInternal>
2.8338

> <Gold.Chemscore.Rot>
2.4608

> <Gold.Chemscore.Internal.Correction>
   9.000000E+99

> <Gold.Chemscore.Hbonds>
donor molecule, donor type, donor heavy atom, donor atom, acceptor molecule, acceptor atom, score
      L1  H    10    29       P1  8028  0.98
      P1  H  7997  8009       L1    20  0.14

> <Gold.Chemscore.Hbond.Weighted>
-6.6569

> <Gold.Chemscore.Metal.Weighted>
-0.0000

> <Gold.Chemscore.Lipo.Weighted>
-12.1244

> <Gold.Chemscore.Internal_Hbond.Weighted>
0.0000

> <Gold.Chemscore.DEClash.Weighted>
0.0840

> <Gold.Chemscore.DEInternal.Weighted>
2.8338

> <Gold.Chemscore.Rot.Weighted>
6.2997

> <Gold.Chemscore.Internal.Correction.Weighted>
   9.000000E+99

> <Gold.Protein.RotatedTorsions>
[ 6907 6896 6895 6894 ] final -165.63 input  -60.11 | X-H torsion
[ 7974 7965 7964 7962 ] final   34.88 input  175.53 | X-H torsion
[ 8008 7997 7996 7995 ] final -168.41 input   59.86 | X-H torsion
[ 10167 10162 10161 10158 ] final  -41.68 input  -65.29 | X-H torsion
[ 10718 10713 10712 10709 ] final  123.07 input   66.30 | X-H torsion
[ 10763 10752 10751 10750 ] final -166.17 input  -60.55 | X-H torsion
[ 11005 11000 10999 10996 ] final   -7.49 input  -57.11 | X-H torsion

> <Gold.Protein.ActiveResidues>
 VAL166  LYS551  ARG553  GLY616  TRP617  ASP618  TYR619  PRO620  LYS621  CYS622 
 ASP623  PHE694  ASN695  SER759  ASP760  ASP761  ALA762  ILE779  LEU786  VAL792 
 PHE793  MET794  SER795  GLU796  ALA797  LYS798  CYS799  TRP800  GLU811  SER814 

> <Gold.Protein.RotatedAtoms>
  151.4307  133.3671  159.2768 H   0  0  0  0  0  0  0  0  0  0  0  0  # atno 6907 bound_to 6896
  150.9227  134.8646  159.7510 H   0  0  0  0  0  0  0  0  0  0  0  0  # atno 6908 bound_to 6896
  152.4990  134.4246  159.9544 H   0  0  0  0  0  0  0  0  0  0  0  0  # atno 6909 bound_to 6896
  146.1322  139.6213  142.9219 H   0  0  0  0  0  0  0  0  0  0  0  0  # atno 7974 bound_to 7965
  155.8910  140.1025  157.1418 H   0  0  0  0  0  0  0  0  0  0  0  0  # atno 8008 bound_to 7997
  154.4015  140.1311  156.4380 H   0  0  0  0  0  0  0  0  0  0  0  0  # atno 8009 bound_to 7997
  155.7533  140.3464  155.5164 H   0  0  0  0  0  0  0  0  0  0  0  0  # atno 8010 bound_to 7997
  140.6994  143.3080  151.3101 H   0  0  0  0  0  0  0  0  0  0  0  0  # atno 10167 bound_to 10162
  157.5693  131.1084  150.8396 H   0  0  0  0  0  0  0  0  0  0  0  0  # atno 10718 bound_to 10713
  154.6859  135.2962  154.9548 H   0  0  0  0  0  0  0  0  0  0  0  0  # atno 10763 bound_to 10752
  154.0527  135.6642  153.4806 H   0  0  0  0  0  0  0  0  0  0  0  0  # atno 10764 bound_to 10752
  153.0579  135.5133  154.7926 H   0  0  0  0  0  0  0  0  0  0  0  0  # atno 10765 bound_to 10752
  140.7133  133.8890  155.8766 H   0  0  0  0  0  0  0  0  0  0  0  0  # atno 11005 bound_to 11000
  145.5235  141.0431  143.2422 LP  0  0  0  0  0  0  0  0  0  0  0  0  # atno 17320 bound_to 7965
  144.7702  139.6751  143.7198 LP  0  0  0  0  0  0  0  0  0  0  0  0  # atno 17321 bound_to 7965
  139.6493  144.0392  152.2614 LP  0  0  0  0  0  0  0  0  0  0  0  0  # atno 17342 bound_to 10162
  139.9923  144.6353  150.7803 LP  0  0  0  0  0  0  0  0  0  0  0  0  # atno 17343 bound_to 10162
  156.8872  130.5200  149.5288 LP  0  0  0  0  0  0  0  0  0  0  0  0  # atno 17370 bound_to 10713
  156.0739  130.5766  150.9437 LP  0  0  0  0  0  0  0  0  0  0  0  0  # atno 17371 bound_to 10713
  141.0066  134.1078  157.4264 LP  0  0  0  0  0  0  0  0  0  0  0  0  # atno 17394 bound_to 11000
  139.8866  135.0083  156.6509 LP  0  0  0  0  0  0  0  0  0  0  0  0  # atno 17395 bound_to 11000

$$$$
