AV-unprocessed.smi:1244|AV-procd|sdf|5233|dock9
  -GOLD-   22720 4333D 1   1.00000     0.00000
 Structure written by MMmdl.
 56 58  0  0  0  0  0  0  0  0  3 V2000
  153.0645  139.2083  154.5892 C   0  0  0  0  0  0  0  0  0  0  0  0
  151.6395  138.8240  155.0021 C   0  0  2  0  0  0  0  0  0  0  0  0
  151.0701  137.6872  154.1289 C   0  0  0  0  0  0  0  0  0  0  0  0
  149.6615  137.3870  154.4842 N   0  3  1  0  0  0  0  0  0  0  0  0
  149.5188  136.5815  155.7261 C   0  0  0  0  0  0  0  0  0  0  0  0
  148.8490  135.2184  155.4652 C   0  0  0  0  0  0  0  0  0  0  0  0
  147.7049  135.3446  154.5691 N   0  0  0  0  0  0  0  0  0  0  0  0
  147.2622  134.3770  153.7536 C   0  0  0  0  0  0  0  0  0  0  0  0
  147.7906  133.2687  153.6667 O   0  0  0  0  0  0  0  0  0  0  0  0
  146.1733  134.7705  153.0714 N   0  0  0  0  0  0  0  0  0  0  0  0
  145.4035  134.0164  152.1401 C   0  0  0  0  0  0  0  0  0  0  0  0
  146.0088  133.0465  151.2998 C   0  0  0  0  0  0  0  0  0  0  0  0
  145.2364  132.3676  150.3386 C   0  0  0  0  0  0  0  0  0  0  0  0
  143.8718  132.6797  150.2192 C   0  0  0  0  0  0  0  0  0  0  0  0
  143.3275  133.6157  151.0236 N   0  3  0  0  0  0  0  0  0  0  0  0
  144.0146  134.2926  151.9777 C   0  0  0  0  0  0  0  0  0  0  0  0
  143.3082  135.2372  152.7565 N   0  0  0  0  0  0  0  0  0  0  0  0
  143.2582  136.6372  152.3509 C   0  0  0  0  0  0  0  0  0  0  0  0
  142.1424  137.2521  153.1910 C   0  0  0  0  0  0  0  0  0  0  0  0
  141.1400  136.1062  153.2927 C   0  0  0  0  0  0  0  0  0  0  0  0
  142.0211  134.8525  153.3280 C   0  0  0  0  0  0  0  0  0  0  0  0
  148.8439  138.6269  154.4487 C   0  0  0  0  0  0  0  0  0  0  0  0
  149.4762  139.7534  155.2949 C   0  0  2  0  0  0  0  0  0  0  0  0
  148.7081  141.0727  155.1598 C   0  0  0  0  0  0  0  0  0  0  0  0
  150.8128  139.9740  154.8578 O   0  0  0  0  0  0  0  0  0  0  0  0
  153.7444  138.3617  154.6889 H   0  0  0  0  0  0  0  0  0  0  0  0
  153.4469  140.0160  155.2140 H   0  0  0  0  0  0  0  0  0  0  0  0
  153.0989  139.5448  153.5527 H   0  0  0  0  0  0  0  0  0  0  0  0
  151.6561  138.5207  156.0502 H   0  0  0  0  0  0  0  0  0  0  0  0
  151.0997  137.9852  153.0799 H   0  0  0  0  0  0  0  0  0  0  0  0
  151.6847  136.7894  154.2071 H   0  0  0  0  0  0  0  0  0  0  0  0
  150.5087  136.3918  156.1433 H   0  0  0  0  0  0  0  0  0  0  0  0
  148.9744  137.1447  156.4839 H   0  0  0  0  0  0  0  0  0  0  0  0
  149.5524  134.4990  155.0450 H   0  0  0  0  0  0  0  0  0  0  0  0
  148.4968  134.7929  156.4055 H   0  0  0  0  0  0  0  0  0  0  0  0
  147.2105  136.2250  154.5816 H   0  0  0  0  0  0  0  0  0  0  0  0
  145.7952  135.6737  153.3174 H   0  0  0  0  0  0  0  0  0  0  0  0
  147.0640  132.8270  151.3606 H   0  0  0  0  0  0  0  0  0  0  0  0
  145.6884  131.6280  149.6939 H   0  0  0  0  0  0  0  0  0  0  0  0
  143.2038  132.2168  149.5072 H   0  0  0  0  0  0  0  0  0  0  0  0
  144.2133  137.1358  152.5189 H   0  0  0  0  0  0  0  0  0  0  0  0
  143.0060  136.7209  151.2931 H   0  0  0  0  0  0  0  0  0  0  0  0
  142.5174  137.5079  154.1831 H   0  0  0  0  0  0  0  0  0  0  0  0
  141.7205  138.1529  152.7438 H   0  0  0  0  0  0  0  0  0  0  0  0
  140.4851  136.1885  154.1606 H   0  0  0  0  0  0  0  0  0  0  0  0
  140.5130  136.0891  152.4002 H   0  0  0  0  0  0  0  0  0  0  0  0
  141.5586  134.0280  152.7837 H   0  0  0  0  0  0  0  0  0  0  0  0
  142.1748  134.5344  154.3594 H   0  0  0  0  0  0  0  0  0  0  0  0
  148.7773  138.9521  153.4095 H   0  0  0  0  0  0  0  0  0  0  0  0
  147.8212  138.4336  154.7694 H   0  0  0  0  0  0  0  0  0  0  0  0
  149.4860  139.4753  156.3496 H   0  0  0  0  0  0  0  0  0  0  0  0
  147.6754  140.9614  155.4913 H   0  0  0  0  0  0  0  0  0  0  0  0
  148.6925  141.4176  154.1255 H   0  0  0  0  0  0  0  0  0  0  0  0
  149.1677  141.8548  155.7646 H   0  0  0  0  0  0  0  0  0  0  0  0
  149.3145  136.7926  153.7449 H   0  0  0  0  0  0  0  0  0  0  0  0
  142.3345  133.8208  150.9115 H   0  0  0  0  0  0  0  0  0  0  0  0
  1  2  1  0  0  0  0
  1 26  1  0  0  0  0
  1 27  1  0  0  0  0
  1 28  1  0  0  0  0
  2 25  1  0  0  0  0
  2  3  1  0  0  0  0
  2 29  1  0  0  0  0
  3  4  1  0  0  0  0
  3 30  1  0  0  0  0
  3 31  1  0  0  0  0
  4  5  1  0  0  0  0
  4 22  1  0  0  0  0
  4 55  1  0  0  0  0
  5  6  1  0  0  0  0
  5 32  1  0  0  0  0
  5 33  1  0  0  0  0
  6  7  1  0  0  0  0
  6 34  1  0  0  0  0
  6 35  1  0  0  0  0
  7  8  1  0  0  0  0
  7 36  1  0  0  0  0
  8  9  2  0  0  0  0
  8 10  1  0  0  0  0
 10 11  1  0  0  0  0
 10 37  1  0  0  0  0
 11 16  1  0  0  0  0
 11 12  2  0  0  0  0
 12 13  1  0  0  0  0
 12 38  1  0  0  0  0
 13 14  2  0  0  0  0
 13 39  1  0  0  0  0
 14 15  1  0  0  0  0
 14 40  1  0  0  0  0
 15 16  2  0  0  0  0
 15 56  1  0  0  0  0
 16 17  1  0  0  0  0
 17 21  1  0  0  0  0
 17 18  1  0  0  0  0
 18 19  1  0  0  0  0
 18 41  1  0  0  0  0
 18 42  1  0  0  0  0
 19 20  1  0  0  0  0
 19 43  1  0  0  0  0
 19 44  1  0  0  0  0
 20 21  1  0  0  0  0
 20 45  1  0  0  0  0
 20 46  1  0  0  0  0
 21 47  1  0  0  0  0
 21 48  1  0  0  0  0
 22 23  1  0  0  0  0
 22 49  1  0  0  0  0
 22 50  1  0  0  0  0
 23 24  1  0  0  0  0
 23 25  1  0  0  0  0
 23 51  1  0  0  0  0
 24 52  1  0  0  0  0
 24 53  1  0  0  0  0
 24 54  1  0  0  0  0
M  CHG  1   4   1
M  CHG  1  15   1
M  END
> <s_m_source_file>
AV-unprocessed.smi

> <i_m_source_file_index>
1244

> <i_lp_mmshare_version>
43012

> <i_f3d_flags>
0

> <s_epik_input>
W0NIM11bQ0BASF0xW0NIMl1OKFtDSDJdW0NASF0oTzEpW0NIM10pW0NIMl1bQ0gyXVtOSF1DKD1PKVtOSF1jMltjSF1bY0hdW2NIXW5jMk4zW0NIMl1bQ0gyXVtDSDJdW0NIMl0z

> <s_epik_cmdline>
J2VwaWtfcHl0aG9uJywgJy1waCcsICc3LjAnLCAnLXRuJywgJzgnLCAnLW1hJywgJzIwMCcsICctbWV0YWxfYmluZGluZycsICctaW1hZScsICc8aW5maWxlLm1hZT4nLCAnLW9tYWUnLCAnPG91dGZpbGUubWFlPic=

> <r_lp_tautomer_probability>
0.999994

> <r_epik_Ionization_Penalty>
1.81601

> <r_epik_Ionization_Penalty_Charging>
1.81599

> <r_epik_Ionization_Penalty_Neutral>
2.01972e-05

> <r_epik_State_Penalty>
1.85672

> <r_epik_Charging_Adjusted_Penalty>
3.6727

> <i_epik_Tot_Q>
2

> <i_epik_Tot_abs_Q>
2

> <r_epik_Metal_State_Penalty>
1.93796

> <b_epik_Metal_Only>
0

> <s_lp_Force_Field>
OPLS_2005

> <r_lp_Energy>
53.9706

> <b_lp_Chiralities_Consistent>
1

> <s_lp_Variant>
AV-unprocessed.smi:1244-13

> <Gold.Version>
5.8.1

> <Gold.Id.Protein>
6NUR|6NUR_protein|mol2

> <Gold.PLP.Fitness>
52.3522

> <Gold.PLP.PLP>
-40.8994

> <Gold.PLP.part.hbond>
-4.0343

> <Gold.PLP.part.metal>
0.0000

> <Gold.PLP.part.buried>
-4.7003

> <Gold.PLP.part.nonpolar>
-33.1991

> <Gold.PLP.part.repulsive>
0.3321

> <Gold.PLP.ligand.clash>
0.0000

> <Gold.PLP.ligand.torsion>
1.7089

> <Gold.PLP.Chemscore.Hbond>
4.8240

> <Gold.PLP.Chemscore.CHOScore>
0.0000

> <Gold.PLP.Chemscore.Metal>
0.0000

> <Gold.Chemscore.Hbonds>
donor molecule, donor type, donor heavy atom, donor atom, acceptor molecule, acceptor atom, score
      L1  H     4    55       P1  7948  2.00
      L1  H    15    56       P1 10186  1.70
      P1  H  7989  7998       L1    25  1.00

> <Gold.PLP.Chemscore.Internal.Correction>
0.3988

> <Gold.Rescore>
     Score         DG    S(hbond)    S(metal)    S(lipo)     H(rot)  DE(clash)    DE(int)     intcor
     17.13     -20.17       2.24        0.00      97.41       1.63       0.51       2.54       ----

> <Gold.Chemscore.Fitness>
17.1252

> <Gold.Chemscore.DG>
-20.1746

> <Gold.Chemscore.ZeroCoef>
-5.4800

> <Gold.Chemscore.Hbond>
2.2360

> <Gold.Chemscore.Metal>
0.0000

> <Gold.Chemscore.Lipo>
97.4114

> <Gold.Chemscore.Internal_Hbond>
0.0000

> <Gold.Chemscore.DEClash>
0.5096

> <Gold.Chemscore.DEInternal>
2.5398

> <Gold.Chemscore.Rot>
1.6293

> <Gold.Chemscore.Internal.Correction>
   9.000000E+99

> <Gold.Chemscore.Hbonds>
donor molecule, donor type, donor heavy atom, donor atom, acceptor molecule, acceptor atom, score
      L1  H     4    55       P1  7948  0.92
      L1  H    15    56       P1 10186  0.50
      P1  H  7989  7998       L1    25  0.35

> <Gold.Chemscore.Hbond.Weighted>
-7.4683

> <Gold.Chemscore.Metal.Weighted>
-0.0000

> <Gold.Chemscore.Lipo.Weighted>
-11.3971

> <Gold.Chemscore.Internal_Hbond.Weighted>
0.0000

> <Gold.Chemscore.DEClash.Weighted>
0.5096

> <Gold.Chemscore.DEInternal.Weighted>
2.5398

> <Gold.Chemscore.Rot.Weighted>
4.1709

> <Gold.Chemscore.Internal.Correction.Weighted>
   9.000000E+99

> <Gold.Protein.RotatedTorsions>
[ 6907 6896 6895 6894 ] final -118.53 input  -60.11 | X-H torsion
[ 7974 7965 7964 7962 ] final  -97.15 input  175.53 | X-H torsion
[ 8008 7997 7996 7995 ] final -176.72 input   59.86 | X-H torsion
[ 10167 10162 10161 10158 ] final  -11.17 input  -65.29 | X-H torsion
[ 10718 10713 10712 10709 ] final -127.78 input   66.30 | X-H torsion
[ 10763 10752 10751 10750 ] final  148.07 input  -60.55 | X-H torsion
[ 11005 11000 10999 10996 ] final   71.58 input  -57.11 | X-H torsion

> <Gold.Protein.ActiveResidues>
 VAL166  LYS551  ARG553  GLY616  TRP617  ASP618  TYR619  PRO620  LYS621  CYS622 
 ASP623  PHE694  ASN695  SER759  ASP760  ASP761  ALA762  ILE779  LEU786  VAL792 
 PHE793  MET794  SER795  GLU796  ALA797  LYS798  CYS799  TRP800  GLU811  SER814 

> <Gold.Protein.RotatedAtoms>
  150.8227  133.8224  159.3131 H   0  0  0  0  0  0  0  0  0  0  0  0  # atno 6907 bound_to 6896
  151.5978  135.1047  160.0063 H   0  0  0  0  0  0  0  0  0  0  0  0  # atno 6908 bound_to 6896
  152.4315  133.7245  159.6609 H   0  0  0  0  0  0  0  0  0  0  0  0  # atno 6909 bound_to 6896
  145.3374  140.9453  143.2627 H   0  0  0  0  0  0  0  0  0  0  0  0  # atno 7974 bound_to 7965
  155.9982  140.1215  157.0573 H   0  0  0  0  0  0  0  0  0  0  0  0  # atno 8008 bound_to 7997
  154.4233  140.1112  156.5729 H   0  0  0  0  0  0  0  0  0  0  0  0  # atno 8009 bound_to 7997
  155.6249  140.3472  155.4666 H   0  0  0  0  0  0  0  0  0  0  0  0  # atno 8010 bound_to 7997
  140.7132  143.5668  150.9135 H   0  0  0  0  0  0  0  0  0  0  0  0  # atno 10167 bound_to 10162
  156.1889  130.6782  151.0399 H   0  0  0  0  0  0  0  0  0  0  0  0  # atno 10718 bound_to 10713
  154.0487  135.2883  155.3344 H   0  0  0  0  0  0  0  0  0  0  0  0  # atno 10763 bound_to 10752
  154.6883  135.5236  153.8360 H   0  0  0  0  0  0  0  0  0  0  0  0  # atno 10764 bound_to 10752
  153.0570  135.6599  154.0685 H   0  0  0  0  0  0  0  0  0  0  0  0  # atno 10765 bound_to 10752
  139.9536  134.7183  156.0805 H   0  0  0  0  0  0  0  0  0  0  0  0  # atno 11005 bound_to 11000
  144.8816  139.4896  143.6720 LP  0  0  0  0  0  0  0  0  0  0  0  0  # atno 17320 bound_to 7965
  146.3021  139.7460  142.9083 LP  0  0  0  0  0  0  0  0  0  0  0  0  # atno 17321 bound_to 7965
  139.9394  143.6399  152.3057 LP  0  0  0  0  0  0  0  0  0  0  0  0  # atno 17342 bound_to 10162
  139.6879  144.7650  151.1491 LP  0  0  0  0  0  0  0  0  0  0  0  0  # atno 17343 bound_to 10162
  157.6916  131.0808  150.7090 LP  0  0  0  0  0  0  0  0  0  0  0  0  # atno 17370 bound_to 10713
  156.7146  130.4662  149.5538 LP  0  0  0  0  0  0  0  0  0  0  0  0  # atno 17371 bound_to 10713
  141.1204  133.6615  156.3199 LP  0  0  0  0  0  0  0  0  0  0  0  0  # atno 17394 bound_to 11000
  140.5661  134.5886  157.5446 LP  0  0  0  0  0  0  0  0  0  0  0  0  # atno 17395 bound_to 11000

$$$$
