AV-unprocessed.smi:1512|AV-procd|sdf|6105|dock5
  -GOLD-   22720 6233D 1   1.00000     0.00000
 Structure written by MMmdl.
 44 46  0  0  0  0  0  0  0  0  3 V2000
  148.7711  132.0122  152.8544 C   0  0  0  0  0  0  0  0  0  0  0  0
  147.4477  132.7946  152.8282 C   0  0  1  0  0  0  0  0  0  0  0  0
  147.6307  134.1049  153.4425 N   0  0  0  0  0  0  0  0  0  0  0  0
  147.1955  134.4828  154.6565 C   0  0  0  0  0  0  0  0  0  0  0  0
  146.6692  133.7052  155.4511 O   0  0  0  0  0  0  0  0  0  0  0  0
  147.3433  135.9660  155.0407 C   0  0  0  0  0  0  0  0  0  0  0  0
  148.7366  136.4136  155.2342 N   0  0  0  0  0  0  0  0  0  0  0  0
  149.7379  135.4266  155.1711 C   0  0  0  0  0  0  0  0  0  0  0  0
  151.0378  135.7265  155.3031 C   0  0  0  0  0  0  0  0  0  0  0  0
  151.4035  137.1080  155.5005 C   0  0  0  0  0  0  0  0  0  0  0  0
  150.4589  138.0742  155.5640 C   0  0  0  0  0  0  0  0  0  0  0  0
  150.8936  139.4409  155.7337 N   0  3  0  0  0  0  0  0  0  0  0  0
  150.0533  140.3353  155.7137 O   0  0  0  0  0  0  0  0  0  0  0  0
  152.0926  139.6611  155.8748 O   0  5  0  0  0  0  0  0  0  0  0  0
  149.0259  137.7358  155.4478 C   0  0  0  0  0  0  0  0  0  0  0  0
  148.1316  138.5797  155.5287 O   0  0  0  0  0  0  0  0  0  0  0  0
  146.9092  132.9951  151.3919 C   0  0  2  0  0  0  0  0  0  0  0  0
  145.6464  133.8825  151.2829 C   0  0  0  0  0  0  0  0  0  0  0  0
  144.7125  133.0454  150.3902 C   0  0  2  0  0  0  0  0  0  0  0  0
  144.1546  131.8705  151.2136 C   0  0  0  0  0  0  0  0  0  0  0  0
  145.3749  130.9407  151.3441 C   0  0  0  0  0  0  0  0  0  0  0  0
  146.4851  131.7249  150.6138 C   0  0  1  0  0  0  0  0  0  0  0  0
  145.6963  132.3408  149.4621 C   0  0  0  0  0  0  0  0  0  0  0  0
  148.6467  131.0124  152.4382 H   0  0  0  0  0  0  0  0  0  0  0  0
  149.1406  131.8945  153.8736 H   0  0  0  0  0  0  0  0  0  0  0  0
  149.5439  132.5201  152.2767 H   0  0  0  0  0  0  0  0  0  0  0  0
  146.7074  132.2510  153.4153 H   0  0  0  0  0  0  0  0  0  0  0  0
  148.0642  134.8101  152.8645 H   0  0  0  0  0  0  0  0  0  0  0  0
  146.8623  136.5734  154.2721 H   0  0  0  0  0  0  0  0  0  0  0  0
  146.7556  136.1380  155.9431 H   0  0  0  0  0  0  0  0  0  0  0  0
  149.3844  134.4188  155.0073 H   0  0  0  0  0  0  0  0  0  0  0  0
  151.7924  134.9553  155.2514 H   0  0  0  0  0  0  0  0  0  0  0  0
  152.4504  137.3636  155.5773 H   0  0  0  0  0  0  0  0  0  0  0  0
  147.6995  133.4783  150.8138 H   0  0  0  0  0  0  0  0  0  0  0  0
  145.1886  134.1000  152.2490 H   0  0  0  0  0  0  0  0  0  0  0  0
  145.8895  134.8368  150.8137 H   0  0  0  0  0  0  0  0  0  0  0  0
  143.9427  133.6335  149.8899 H   0  0  0  0  0  0  0  0  0  0  0  0
  143.7693  132.1899  152.1826 H   0  0  0  0  0  0  0  0  0  0  0  0
  143.3456  131.3696  150.6807 H   0  0  0  0  0  0  0  0  0  0  0  0
  145.6166  130.7002  152.3783 H   0  0  0  0  0  0  0  0  0  0  0  0
  145.1820  129.9961  150.8340 H   0  0  0  0  0  0  0  0  0  0  0  0
  147.3242  131.1028  150.3010 H   0  0  0  0  0  0  0  0  0  0  0  0
  145.2254  131.5998  148.8137 H   0  0  0  0  0  0  0  0  0  0  0  0
  146.2829  133.0287  148.8502 H   0  0  0  0  0  0  0  0  0  0  0  0
  1  2  1  0  0  0  0
  1 24  1  0  0  0  0
  1 25  1  0  0  0  0
  1 26  1  0  0  0  0
  2  3  1  0  0  0  0
  2 17  1  0  0  0  0
  2 27  1  0  0  0  0
  3  4  1  0  0  0  0
  3 28  1  0  0  0  0
  4  5  2  0  0  0  0
  4  6  1  0  0  0  0
  6  7  1  0  0  0  0
  6 29  1  0  0  0  0
  6 30  1  0  0  0  0
  7 15  1  0  0  0  0
  7  8  1  0  0  0  0
  8  9  2  0  0  0  0
  8 31  1  0  0  0  0
  9 10  1  0  0  0  0
  9 32  1  0  0  0  0
 10 11  2  0  0  0  0
 10 33  1  0  0  0  0
 11 12  1  0  0  0  0
 11 15  1  0  0  0  0
 12 13  2  0  0  0  0
 12 14  1  0  0  0  0
 15 16  2  0  0  0  0
 17 22  1  0  0  0  0
 17 18  1  0  0  0  0
 17 34  1  0  0  0  0
 18 19  1  0  0  0  0
 18 35  1  0  0  0  0
 18 36  1  0  0  0  0
 19 23  1  0  0  0  0
 19 20  1  0  0  0  0
 19 37  1  0  0  0  0
 20 21  1  0  0  0  0
 20 38  1  0  0  0  0
 20 39  1  0  0  0  0
 21 22  1  0  0  0  0
 21 40  1  0  0  0  0
 21 41  1  0  0  0  0
 22 23  1  0  0  0  0
 22 42  1  0  0  0  0
 23 43  1  0  0  0  0
 23 44  1  0  0  0  0
M  CHG  1  12   1
M  CHG  1  14  -1
M  END
> <s_m_source_file>
AV-unprocessed.smi

> <i_m_source_file_index>
1512

> <i_lp_mmshare_version>
43012

> <i_f3d_flags>
0

> <s_epik_input>
W0NIMl0xW0NIMl1bQ0BIXShbQ0gyXTIpW0NAQEhdKFtDSDJdW0NAQEhdMTIpW0NASF0oW0NIM10pW05IXUMoPU8pW0NIMl1uM1tjSF1bY0hdW2NIXWMoW04rXSg9TylbTy1dKWMzPU8=

> <s_epik_cmdline>
J2VwaWtfcHl0aG9uJywgJy1waCcsICc3LjAnLCAnLXRuJywgJzgnLCAnLW1hJywgJzIwMCcsICctbWV0YWxfYmluZGluZycsICctaW1hZScsICc8aW5maWxlLm1hZT4nLCAnLW9tYWUnLCAnPG91dGZpbGUubWFlPic=

> <r_lp_tautomer_probability>
1

> <r_epik_Ionization_Penalty>
2.17697e-08

> <r_epik_Ionization_Penalty_Charging>
1.42735e-10

> <r_epik_Ionization_Penalty_Neutral>
2.16269e-08

> <r_epik_State_Penalty>
-0

> <r_epik_Charging_Adjusted_Penalty>
1.42735e-10

> <i_epik_Tot_Q>
0

> <i_epik_Tot_abs_Q>
2

> <r_epik_Metal_State_Penalty>
-0

> <b_epik_Metal_Only>
0

> <s_lp_Force_Field>
OPLS_2005

> <r_lp_Energy>
64.4109

> <b_lp_Chiralities_Consistent>
1

> <s_lp_Variant>
AV-unprocessed.smi:1512-6

> <Gold.Version>
5.8.1

> <Gold.Id.Protein>
6NUR|6NUR_protein|mol2

> <Gold.PLP.Fitness>
44.5816

> <Gold.PLP.PLP>
-36.1384

> <Gold.PLP.part.hbond>
-3.0000

> <Gold.PLP.part.metal>
0.0000

> <Gold.PLP.part.buried>
-3.0148

> <Gold.PLP.part.nonpolar>
-29.3986

> <Gold.PLP.part.repulsive>
0.1982

> <Gold.PLP.ligand.clash>
0.0000

> <Gold.PLP.ligand.torsion>
0.2865

> <Gold.PLP.Chemscore.Hbond>
3.0000

> <Gold.PLP.Chemscore.CHOScore>
0.0000

> <Gold.PLP.Chemscore.Metal>
0.0000

> <Gold.Chemscore.Hbonds>
donor molecule, donor type, donor heavy atom, donor atom, acceptor molecule, acceptor atom, score
      L1  H     3    28       P1  7948  1.00
      P1  H  7997  8010       L1    14  0.26

> <Gold.PLP.Chemscore.Internal.Correction>
0.0162

> <Gold.Rescore>
     Score         DG    S(hbond)    S(metal)    S(lipo)     H(rot)  DE(clash)    DE(int)     intcor
     18.83     -20.93       2.89        0.00      87.64       1.75       0.05       2.05       ----

> <Gold.Chemscore.Fitness>
18.8266

> <Gold.Chemscore.DG>
-20.9268

> <Gold.Chemscore.ZeroCoef>
-5.4800

> <Gold.Chemscore.Hbond>
2.8943

> <Gold.Chemscore.Metal>
0.0000

> <Gold.Chemscore.Lipo>
87.6352

> <Gold.Chemscore.Internal_Hbond>
0.0000

> <Gold.Chemscore.DEClash>
0.0513

> <Gold.Chemscore.DEInternal>
2.0489

> <Gold.Chemscore.Rot>
1.7474

> <Gold.Chemscore.Internal.Correction>
   9.000000E+99

> <Gold.Chemscore.Hbonds>
donor molecule, donor type, donor heavy atom, donor atom, acceptor molecule, acceptor atom, score
      L1  H     3    28       P1  7948  0.82
      P1  H  7997  8010       L1    14  0.27

> <Gold.Chemscore.Hbond.Weighted>
-9.6668

> <Gold.Chemscore.Metal.Weighted>
-0.0000

> <Gold.Chemscore.Lipo.Weighted>
-10.2533

> <Gold.Chemscore.Internal_Hbond.Weighted>
0.0000

> <Gold.Chemscore.DEClash.Weighted>
0.0513

> <Gold.Chemscore.DEInternal.Weighted>
2.0489

> <Gold.Chemscore.Rot.Weighted>
4.4733

> <Gold.Chemscore.Internal.Correction.Weighted>
   9.000000E+99

> <Gold.Protein.RotatedTorsions>
[ 6907 6896 6895 6894 ] final  -82.77 input  -60.11 | X-H torsion
[ 7974 7965 7964 7962 ] final   66.30 input  175.53 | X-H torsion
[ 8008 7997 7996 7995 ] final   84.80 input   59.86 | X-H torsion
[ 10167 10162 10161 10158 ] final -129.37 input  -65.29 | X-H torsion
[ 10718 10713 10712 10709 ] final   92.80 input   66.30 | X-H torsion
[ 10763 10752 10751 10750 ] final  115.97 input  -60.55 | X-H torsion
[ 11005 11000 10999 10996 ] final   10.26 input  -57.11 | X-H torsion

> <Gold.Protein.ActiveResidues>
 VAL166  LYS551  ARG553  GLY616  TRP617  ASP618  TYR619  PRO620  LYS621  CYS622 
 ASP623  PHE694  ASN695  SER759  ASP760  ASP761  ALA762  ILE779  LEU786  VAL792 
 PHE793  MET794  SER795  GLU796  ALA797  LYS798  CYS799  TRP800  GLU811  SER814 

> <Gold.Protein.RotatedAtoms>
  150.6893  134.3614  159.4951 H   0  0  0  0  0  0  0  0  0  0  0  0  # atno 6907 bound_to 6896
  152.1442  134.9036  160.0561 H   0  0  0  0  0  0  0  0  0  0  0  0  # atno 6908 bound_to 6896
  152.0158  133.3844  159.4275 H   0  0  0  0  0  0  0  0  0  0  0  0  # atno 6909 bound_to 6896
  145.8282  139.3124  143.1003 H   0  0  0  0  0  0  0  0  0  0  0  0  # atno 7974 bound_to 7965
  155.9417  140.3407  155.6333 H   0  0  0  0  0  0  0  0  0  0  0  0  # atno 8008 bound_to 7997
  155.7031  140.0762  157.2420 H   0  0  0  0  0  0  0  0  0  0  0  0  # atno 8009 bound_to 7997
  154.4104  140.1636  156.2200 H   0  0  0  0  0  0  0  0  0  0  0  0  # atno 8010 bound_to 7997
  139.9405  143.6168  152.2505 H   0  0  0  0  0  0  0  0  0  0  0  0  # atno 10167 bound_to 10162
  157.6957  131.0456  150.3937 H   0  0  0  0  0  0  0  0  0  0  0  0  # atno 10718 bound_to 10713
  153.5301  135.3580  155.2672 H   0  0  0  0  0  0  0  0  0  0  0  0  # atno 10763 bound_to 10752
  154.8727  135.4066  154.3161 H   0  0  0  0  0  0  0  0  0  0  0  0  # atno 10764 bound_to 10752
  153.3848  135.7069  153.6606 H   0  0  0  0  0  0  0  0  0  0  0  0  # atno 10765 bound_to 10752
  140.5165  134.0601  155.7832 H   0  0  0  0  0  0  0  0  0  0  0  0  # atno 11005 bound_to 11000
  145.9600  140.8843  143.0216 LP  0  0  0  0  0  0  0  0  0  0  0  0  # atno 17320 bound_to 7965
  144.6742  140.1799  143.7406 LP  0  0  0  0  0  0  0  0  0  0  0  0  # atno 17321 bound_to 7965
  139.6708  144.7661  151.1787 LP  0  0  0  0  0  0  0  0  0  0  0  0  # atno 17342 bound_to 10162
  140.7612  143.5868  150.8837 LP  0  0  0  0  0  0  0  0  0  0  0  0  # atno 17343 bound_to 10162
  156.4338  130.3977  149.6742 LP  0  0  0  0  0  0  0  0  0  0  0  0  # atno 17370 bound_to 10713
  156.3950  130.7646  151.2650 LP  0  0  0  0  0  0  0  0  0  0  0  0  # atno 17371 bound_to 10713
  141.1357  133.9225  157.2438 LP  0  0  0  0  0  0  0  0  0  0  0  0  # atno 17394 bound_to 11000
  139.9630  135.0149  156.9311 LP  0  0  0  0  0  0  0  0  0  0  0  0  # atno 17395 bound_to 11000

$$$$
