AV-unprocessed.smi:2062|AV-procd|sdf|8399|dock2
  -GOLD-   2272011 83D 1   1.00000     0.00000
 Structure written by MMmdl.
 43 44  0  0  0  0  0  0  0  0  2 V2000
  152.2050  139.5753  156.4966 C   0  0  0  0  0  0  0  0  0  0  0  0
  150.8335  139.9854  155.9344 C   0  0  0  0  0  0  0  0  0  0  0  0
  149.7048  139.3713  156.7758 C   0  0  0  0  0  0  0  0  0  0  0  0
  150.6784  139.5910  154.4497 C   0  0  0  0  0  0  0  0  0  0  0  0
  149.4026  140.0610  153.8512 N   0  3  2  0  0  0  0  0  0  0  0  0
  148.8478  141.2714  154.5057 C   0  0  0  0  0  0  0  0  0  0  0  0
  147.5497  141.7089  153.8092 C   0  0  0  0  0  0  0  0  0  0  0  0
  146.6223  140.6325  153.8202 O   0  0  0  0  0  0  0  0  0  0  0  0
  147.0972  139.4987  153.1012 C   0  0  2  0  0  0  0  0  0  0  0  0
  145.9962  138.4232  153.0774 C   0  0  0  0  0  0  0  0  0  0  0  0
  146.4628  137.1841  152.4634 N   0  0  0  0  0  0  0  0  0  0  0  0
  145.6675  136.2167  151.9842 C   0  0  0  0  0  0  0  0  0  0  0  0
  144.4379  136.2703  152.0219 O   0  0  0  0  0  0  0  0  0  0  0  0
  146.3862  135.2066  151.4642 N   0  0  0  0  0  0  0  0  0  0  0  0
  145.9107  134.0165  150.8534 C   0  0  0  0  0  0  0  0  0  0  0  0
  146.6950  133.0099  150.4505 N   0  0  0  0  0  0  0  0  0  0  0  0
  145.9592  131.9663  149.8834 C   0  0  0  0  0  0  0  0  0  0  0  0
  144.6060  132.1960  149.8646 C   0  0  0  0  0  0  0  0  0  0  0  0
  144.1997  133.7423  150.5597 S   0  0  0  0  0  0  0  0  0  0  0  0
  148.3786  138.9905  153.7910 C   0  0  0  0  0  0  0  0  0  0  0  0
  152.3563  138.4976  156.4268 H   0  0  0  0  0  0  0  0  0  0  0  0
  152.2975  139.8557  157.5463 H   0  0  0  0  0  0  0  0  0  0  0  0
  153.0193  140.0616  155.9593 H   0  0  0  0  0  0  0  0  0  0  0  0
  150.7414  141.0670  156.0295 H   0  0  0  0  0  0  0  0  0  0  0  0
  149.7300  138.2817  156.7398 H   0  0  0  0  0  0  0  0  0  0  0  0
  148.7266  139.6933  156.4175 H   0  0  0  0  0  0  0  0  0  0  0  0
  149.7850  139.6712  157.8212 H   0  0  0  0  0  0  0  0  0  0  0  0
  151.5162  140.0164  153.8949 H   0  0  0  0  0  0  0  0  0  0  0  0
  150.7541  138.5090  154.3282 H   0  0  0  0  0  0  0  0  0  0  0  0
  148.6503  141.0617  155.5581 H   0  0  0  0  0  0  0  0  0  0  0  0
  149.5655  142.0902  154.4723 H   0  0  0  0  0  0  0  0  0  0  0  0
  147.1102  142.5590  154.3312 H   0  0  0  0  0  0  0  0  0  0  0  0
  147.7431  142.0298  152.7844 H   0  0  0  0  0  0  0  0  0  0  0  0
  147.3284  139.7900  152.0745 H   0  0  0  0  0  0  0  0  0  0  0  0
  145.6937  138.1863  154.0977 H   0  0  0  0  0  0  0  0  0  0  0  0
  145.1032  138.7958  152.5720 H   0  0  0  0  0  0  0  0  0  0  0  0
  147.4620  137.0563  152.3963 H   0  0  0  0  0  0  0  0  0  0  0  0
  147.3904  135.3001  151.5050 H   0  0  0  0  0  0  0  0  0  0  0  0
  146.4813  131.0946  149.5178 H   0  0  0  0  0  0  0  0  0  0  0  0
  143.8269  131.5520  149.4844 H   0  0  0  0  0  0  0  0  0  0  0  0
  148.7749  138.1358  153.2415 H   0  0  0  0  0  0  0  0  0  0  0  0
  148.1532  138.6462  154.8018 H   0  0  0  0  0  0  0  0  0  0  0  0
  149.6076  140.3089  152.8937 H   0  0  0  0  0  0  0  0  0  0  0  0
  1  2  1  0  0  0  0
  1 21  1  0  0  0  0
  1 22  1  0  0  0  0
  1 23  1  0  0  0  0
  2  3  1  0  0  0  0
  2  4  1  0  0  0  0
  2 24  1  0  0  0  0
  3 25  1  0  0  0  0
  3 26  1  0  0  0  0
  3 27  1  0  0  0  0
  4  5  1  0  0  0  0
  4 28  1  0  0  0  0
  4 29  1  0  0  0  0
  5 20  1  0  0  0  0
  5  6  1  0  0  0  0
  5 43  1  0  0  0  0
  6  7  1  0  0  0  0
  6 30  1  0  0  0  0
  6 31  1  0  0  0  0
  7  8  1  0  0  0  0
  7 32  1  0  0  0  0
  7 33  1  0  0  0  0
  8  9  1  0  0  0  0
  9 10  1  0  0  0  0
  9 20  1  0  0  0  0
  9 34  1  0  0  0  0
 10 11  1  0  0  0  0
 10 35  1  0  0  0  0
 10 36  1  0  0  0  0
 11 12  1  0  0  0  0
 11 37  1  0  0  0  0
 12 13  2  0  0  0  0
 12 14  1  0  0  0  0
 14 15  1  0  0  0  0
 14 38  1  0  0  0  0
 15 19  1  0  0  0  0
 15 16  2  0  0  0  0
 16 17  1  0  0  0  0
 17 18  2  0  0  0  0
 17 39  1  0  0  0  0
 18 19  1  0  0  0  0
 18 40  1  0  0  0  0
 20 41  1  0  0  0  0
 20 42  1  0  0  0  0
M  CHG  1   5   1
M  END
> <s_m_source_file>
AV-unprocessed.smi

> <i_m_source_file_index>
2062

> <i_lp_mmshare_version>
43012

> <i_f3d_flags>
0

> <s_epik_input>
W0NIM11bQ0hdKFtDSDNdKVtDSDJdTjFbQ0gyXVtDSDJdT1tDQEhdKFtDSDJdMSlbQ0gyXVtOSF1DKD1PKVtOSF1jMm5bY0hdW2NIXXMy

> <s_epik_cmdline>
J2VwaWtfcHl0aG9uJywgJy1waCcsICc3LjAnLCAnLXRuJywgJzgnLCAnLW1hJywgJzIwMCcsICctbWV0YWxfYmluZGluZycsICctaW1hZScsICc8aW5maWxlLm1hZT4nLCAnLW9tYWUnLCAnPG91dGZpbGUubWFlPic=

> <r_lp_tautomer_probability>
0.999

> <r_epik_Ionization_Penalty>
0.0985527

> <r_epik_Ionization_Penalty_Charging>
0.098413

> <r_epik_Ionization_Penalty_Neutral>
0.000139681

> <r_epik_State_Penalty>
0.0884988

> <r_epik_Charging_Adjusted_Penalty>
0.186912

> <i_epik_Tot_Q>
1

> <i_epik_Tot_abs_Q>
1

> <r_epik_Metal_State_Penalty>
0.141792

> <b_epik_Metal_Only>
0

> <s_lp_Force_Field>
OPLS_2005

> <r_lp_Energy>
15.2202

> <b_lp_Chiralities_Consistent>
1

> <s_lp_Variant>
AV-unprocessed.smi:2062-4

> <Gold.Version>
5.8.1

> <Gold.Id.Protein>
6NUR|6NUR_protein|mol2

> <Gold.PLP.Fitness>
44.4567

> <Gold.PLP.PLP>
-34.5738

> <Gold.PLP.part.hbond>
-3.0000

> <Gold.PLP.part.metal>
0.0000

> <Gold.PLP.part.buried>
-0.6707

> <Gold.PLP.part.nonpolar>
-30.3619

> <Gold.PLP.part.repulsive>
0.9787

> <Gold.PLP.ligand.clash>
0.0000

> <Gold.PLP.ligand.torsion>
0.6515

> <Gold.PLP.Chemscore.Hbond>
3.0000

> <Gold.PLP.Chemscore.CHOScore>
0.6973

> <Gold.PLP.Chemscore.Metal>
0.0000

> <Gold.Chemscore.Hbonds>
donor molecule, donor type, donor heavy atom, donor atom, acceptor molecule, acceptor atom, score
      L1  H     5    43       P1  7957  1.00
      L1  H    11    37       P1  7948  1.00
      L1  H    14    38       P1  7948  1.00
      L1  C    17    39       P1 10747  0.62

> <Gold.PLP.Chemscore.Internal.Correction>
0.0940

> <Gold.Rescore>
     Score         DG    S(hbond)    S(metal)    S(lipo)     H(rot)  DE(clash)    DE(int)     intcor
     18.28     -20.19       2.84        0.00      83.14       1.76       0.04       1.86       ----

> <Gold.Chemscore.Fitness>
18.2799

> <Gold.Chemscore.DG>
-20.1858

> <Gold.Chemscore.ZeroCoef>
-5.4800

> <Gold.Chemscore.Hbond>
2.8394

> <Gold.Chemscore.Metal>
0.0000

> <Gold.Chemscore.Lipo>
83.1434

> <Gold.Chemscore.Internal_Hbond>
0.0000

> <Gold.Chemscore.DEClash>
0.0418

> <Gold.Chemscore.DEInternal>
1.8641

> <Gold.Chemscore.Rot>
1.7599

> <Gold.Chemscore.Internal.Correction>
   9.000000E+99

> <Gold.Chemscore.Hbonds>
donor molecule, donor type, donor heavy atom, donor atom, acceptor molecule, acceptor atom, score
      L1  H     5    43       P1  7957  0.98
      L1  H    11    37       P1  7948  0.98
      L1  H    14    38       P1  7948  0.86

> <Gold.Chemscore.Hbond.Weighted>
-9.4835

> <Gold.Chemscore.Metal.Weighted>
-0.0000

> <Gold.Chemscore.Lipo.Weighted>
-9.7278

> <Gold.Chemscore.Internal_Hbond.Weighted>
0.0000

> <Gold.Chemscore.DEClash.Weighted>
0.0418

> <Gold.Chemscore.DEInternal.Weighted>
1.8641

> <Gold.Chemscore.Rot.Weighted>
4.5054

> <Gold.Chemscore.Internal.Correction.Weighted>
   9.000000E+99

> <Gold.Protein.RotatedTorsions>
[ 6907 6896 6895 6894 ] final  -68.93 input  -60.11 | X-H torsion
[ 7974 7965 7964 7962 ] final -109.46 input  175.53 | X-H torsion
[ 8008 7997 7996 7995 ] final  105.05 input   59.86 | X-H torsion
[ 10167 10162 10161 10158 ] final -110.14 input  -65.29 | X-H torsion
[ 10718 10713 10712 10709 ] final   82.87 input   66.30 | X-H torsion
[ 10763 10752 10751 10750 ] final   78.76 input  -60.55 | X-H torsion
[ 11005 11000 10999 10996 ] final  -32.03 input  -57.11 | X-H torsion

> <Gold.Protein.ActiveResidues>
 VAL166  LYS551  ARG553  GLY616  TRP617  ASP618  TYR619  PRO620  LYS621  CYS622 
 ASP623  PHE694  ASN695  SER759  ASP760  ASP761  ALA762  ILE779  LEU786  VAL792 
 PHE793  MET794  SER795  GLU796  ALA797  LYS798  CYS799  TRP800  GLU811  SER814 

> <Gold.Protein.RotatedAtoms>
  150.7331  134.5668  159.5869 H   0  0  0  0  0  0  0  0  0  0  0  0  # atno 6907 bound_to 6896
  152.3117  134.7486  160.0344 H   0  0  0  0  0  0  0  0  0  0  0  0  # atno 6908 bound_to 6896
  151.8031  133.3337  159.3569 H   0  0  0  0  0  0  0  0  0  0  0  0  # atno 6909 bound_to 6896
  145.1802  140.8968  143.3484 H   0  0  0  0  0  0  0  0  0  0  0  0  # atno 7974 bound_to 7965
  156.1626  140.3137  155.8834 H   0  0  0  0  0  0  0  0  0  0  0  0  # atno 8008 bound_to 7997
  155.3751  140.0484  157.3062 H   0  0  0  0  0  0  0  0  0  0  0  0  # atno 8009 bound_to 7997
  154.5161  140.2182  155.9074 H   0  0  0  0  0  0  0  0  0  0  0  0  # atno 8010 bound_to 7997
  140.1477  143.4225  152.1517 H   0  0  0  0  0  0  0  0  0  0  0  0  # atno 10167 bound_to 10162
  157.6867  131.0066  150.2439 H   0  0  0  0  0  0  0  0  0  0  0  0  # atno 10718 bound_to 10713
  153.0899  135.4865  154.8670 H   0  0  0  0  0  0  0  0  0  0  0  0  # atno 10763 bound_to 10752
  154.7256  135.3049  154.8978 H   0  0  0  0  0  0  0  0  0  0  0  0  # atno 10764 bound_to 10752
  153.9629  135.6810  153.4798 H   0  0  0  0  0  0  0  0  0  0  0  0  # atno 10765 bound_to 10752
  140.9518  133.7216  156.1232 H   0  0  0  0  0  0  0  0  0  0  0  0  # atno 11005 bound_to 11000
  145.0143  139.3481  143.6104 LP  0  0  0  0  0  0  0  0  0  0  0  0  # atno 17320 bound_to 7965
  146.3454  139.9419  142.8740 LP  0  0  0  0  0  0  0  0  0  0  0  0  # atno 17321 bound_to 7965
  139.5441  144.7283  151.4640 LP  0  0  0  0  0  0  0  0  0  0  0  0  # atno 17342 bound_to 10162
  140.6721  143.8270  150.7013 LP  0  0  0  0  0  0  0  0  0  0  0  0  # atno 17343 bound_to 10162
  156.3048  130.3763  149.7716 LP  0  0  0  0  0  0  0  0  0  0  0  0  # atno 17370 bound_to 10713
  156.5335  130.8268  151.3245 LP  0  0  0  0  0  0  0  0  0  0  0  0  # atno 17371 bound_to 10713
  140.7591  134.3959  157.5528 LP  0  0  0  0  0  0  0  0  0  0  0  0  # atno 17394 bound_to 11000
  139.8850  134.8950  156.2670 LP  0  0  0  0  0  0  0  0  0  0  0  0  # atno 17395 bound_to 11000

$$$$
