AV-unprocessed.smi:150|AV-procd|sdf|1243|dock4
  -GOLD-   2262018463D 1   1.00000     0.00000
 Structure written by MMmdl.
 55 57  0  0  0  0  0  0  0  0  1 V2000
  151.3027  145.0385  160.0803 C   0  0  0  0  0  0  0  0  0  0  0  0
  151.7057  144.0250  158.9979 C   0  0  0  0  0  0  0  0  0  0  0  0
  152.4079  144.7432  157.8327 C   0  0  0  0  0  0  0  0  0  0  0  0
  150.4764  143.2079  158.5417 C   0  0  0  0  0  0  0  0  0  0  0  0
  150.7579  141.9540  157.6666 C   0  0  1  0  0  0  0  0  0  0  0  0
  151.6887  140.9082  158.3290 C   0  0  0  0  0  0  0  0  0  0  0  0
  151.9932  139.8554  157.4396 O   0  0  0  0  0  0  0  0  0  0  0  0
  149.5134  141.3440  157.1722 N   0  0  0  0  0  0  0  0  0  0  0  0
  148.2482  141.9573  157.5653 C   0  0  0  0  0  0  0  0  0  0  0  0
  149.4571  140.6610  155.9971 C   0  0  0  0  0  0  0  0  0  0  0  0
  150.5982  140.3569  155.3245 N   0  0  0  0  0  0  0  0  0  0  0  0
  150.5470  139.6995  154.1628 C   0  0  0  0  0  0  0  0  0  0  0  0
  149.4761  139.2619  153.4989 N   0  0  0  0  0  0  0  0  0  0  0  0
  148.3252  139.5690  154.1620 C   0  0  0  0  0  0  0  0  0  0  0  0
  148.2260  140.2584  155.4041 C   0  0  0  0  0  0  0  0  0  0  0  0
  146.8908  140.3736  155.7738 N   0  0  0  0  0  0  0  0  0  0  0  0
  146.2394  139.7908  154.8051 C   0  0  0  0  0  0  0  0  0  0  0  0
  147.0218  139.2877  153.7904 N   0  0  0  0  0  0  0  0  0  0  0  0
  146.5607  138.5954  152.5964 C   0  0  0  0  0  0  0  0  0  0  0  0
  145.9529  137.1971  152.8712 C   0  0  0  0  0  0  0  0  0  0  0  0
  146.9623  136.3922  153.4549 O   0  0  0  0  0  0  0  0  0  0  0  0
  144.7833  137.3094  153.8698 C   0  0  0  0  0  0  0  0  0  0  0  0
  144.0367  135.9749  154.0433 C   0  0  0  0  0  0  0  0  0  0  0  0
  143.5926  135.4990  152.7787 O   0  0  0  0  0  0  0  0  0  0  0  0
  144.6668  135.2144  151.8910 C   0  0  0  0  0  0  0  0  0  0  0  0
  145.4572  136.4991  151.5856 C   0  0  0  0  0  0  0  0  0  0  0  0
  150.5823  145.7625  159.6980 H   0  0  0  0  0  0  0  0  0  0  0  0
  152.1691  145.5920  160.4439 H   0  0  0  0  0  0  0  0  0  0  0  0
  150.8507  144.5401  160.9383 H   0  0  0  0  0  0  0  0  0  0  0  0
  152.4233  143.3489  159.4610 H   0  0  0  0  0  0  0  0  0  0  0  0
  151.7209  145.4031  157.3020 H   0  0  0  0  0  0  0  0  0  0  0  0
  152.8193  144.0378  157.1116 H   0  0  0  0  0  0  0  0  0  0  0  0
  153.2390  145.3503  158.1924 H   0  0  0  0  0  0  0  0  0  0  0  0
  149.9186  142.9154  159.4307 H   0  0  0  0  0  0  0  0  0  0  0  0
  149.8149  143.8754  157.9876 H   0  0  0  0  0  0  0  0  0  0  0  0
  151.2538  142.2986  156.7595 H   0  0  0  0  0  0  0  0  0  0  0  0
  152.6163  141.3627  158.6773 H   0  0  0  0  0  0  0  0  0  0  0  0
  151.2094  140.4594  159.1995 H   0  0  0  0  0  0  0  0  0  0  0  0
  152.3155  139.1225  157.9417 H   0  0  0  0  0  0  0  0  0  0  0  0
  147.6703  141.2672  158.1799 H   0  0  0  0  0  0  0  0  0  0  0  0
  147.6480  142.2300  156.6958 H   0  0  0  0  0  0  0  0  0  0  0  0
  148.4126  142.8634  158.1492 H   0  0  0  0  0  0  0  0  0  0  0  0
  151.5006  139.4964  153.6982 H   0  0  0  0  0  0  0  0  0  0  0  0
  145.1617  139.7161  154.8013 H   0  0  0  0  0  0  0  0  0  0  0  0
  145.8340  139.2321  152.0896 H   0  0  0  0  0  0  0  0  0  0  0  0
  147.4084  138.5048  151.9157 H   0  0  0  0  0  0  0  0  0  0  0  0
  147.6636  136.2885  152.8302 H   0  0  0  0  0  0  0  0  0  0  0  0
  145.1385  137.6675  154.8371 H   0  0  0  0  0  0  0  0  0  0  0  0
  144.0734  138.0556  153.5107 H   0  0  0  0  0  0  0  0  0  0  0  0
  144.6697  135.2281  154.5251 H   0  0  0  0  0  0  0  0  0  0  0  0
  143.1694  136.1150  154.6886 H   0  0  0  0  0  0  0  0  0  0  0  0
  145.3135  134.4470  152.3188 H   0  0  0  0  0  0  0  0  0  0  0  0
  144.2583  134.8019  150.9683 H   0  0  0  0  0  0  0  0  0  0  0  0
  144.8096  137.1816  151.0337 H   0  0  0  0  0  0  0  0  0  0  0  0
  146.2911  136.2637  150.9234 H   0  0  0  0  0  0  0  0  0  0  0  0
  1  2  1  0  0  0  0
  1 27  1  0  0  0  0
  1 28  1  0  0  0  0
  1 29  1  0  0  0  0
  2  3  1  0  0  0  0
  2  4  1  0  0  0  0
  2 30  1  0  0  0  0
  3 31  1  0  0  0  0
  3 32  1  0  0  0  0
  3 33  1  0  0  0  0
  4  5  1  0  0  0  0
  4 34  1  0  0  0  0
  4 35  1  0  0  0  0
  5  6  1  0  0  0  0
  5  8  1  0  0  0  0
  5 36  1  0  0  0  0
  6  7  1  0  0  0  0
  6 37  1  0  0  0  0
  6 38  1  0  0  0  0
  7 39  1  0  0  0  0
  8  9  1  0  0  0  0
  8 10  1  0  0  0  0
  9 40  1  0  0  0  0
  9 41  1  0  0  0  0
  9 42  1  0  0  0  0
 10 15  1  0  0  0  0
 10 11  2  0  0  0  0
 11 12  1  0  0  0  0
 12 13  2  0  0  0  0
 12 43  1  0  0  0  0
 13 14  1  0  0  0  0
 14 18  1  0  0  0  0
 14 15  2  0  0  0  0
 15 16  1  0  0  0  0
 16 17  2  0  0  0  0
 17 18  1  0  0  0  0
 17 44  1  0  0  0  0
 18 19  1  0  0  0  0
 19 20  1  0  0  0  0
 19 45  1  0  0  0  0
 19 46  1  0  0  0  0
 20 26  1  0  0  0  0
 20 21  1  0  0  0  0
 20 22  1  0  0  0  0
 21 47  1  0  0  0  0
 22 23  1  0  0  0  0
 22 48  1  0  0  0  0
 22 49  1  0  0  0  0
 23 24  1  0  0  0  0
 23 50  1  0  0  0  0
 23 51  1  0  0  0  0
 24 25  1  0  0  0  0
 25 26  1  0  0  0  0
 25 52  1  0  0  0  0
 25 53  1  0  0  0  0
 26 54  1  0  0  0  0
 26 55  1  0  0  0  0
M  END
> <s_m_source_file>
AV-unprocessed.smi

> <i_m_source_file_index>
150

> <i_lp_mmshare_version>
43012

> <i_f3d_flags>
0

> <s_epik_input>
W0NIM11bQ0hdKFtDSDNdKVtDSDJdW0NASF0oW0NIMl1bT0hdKU4oW0NIM10pYyhuW2NIXW4xKWMoYzEyKW5bY0hdbjJbQ0gyXUMzKFtPSF0pW0NIMl1bQ0gyXU9bQ0gyXVtDSDJdMw==

> <s_epik_cmdline>
J2VwaWtfcHl0aG9uJywgJy1waCcsICc3LjAnLCAnLXRuJywgJzgnLCAnLW1hJywgJzIwMCcsICctbWV0YWxfYmluZGluZycsICctaW1hZScsICc8aW5maWxlLm1hZT4nLCAnLW9tYWUnLCAnPG91dGZpbGUubWFlPic=

> <r_lp_tautomer_probability>
1

> <r_epik_Ionization_Penalty>
0.00548416

> <r_epik_Ionization_Penalty_Charging>
0

> <r_epik_Ionization_Penalty_Neutral>
0.00548416

> <r_epik_State_Penalty>
0.0038135

> <r_epik_Charging_Adjusted_Penalty>
0.0038135

> <i_epik_Tot_Q>
0

> <i_epik_Tot_abs_Q>
0

> <r_epik_Metal_State_Penalty>
-0

> <b_epik_Metal_Only>
0

> <s_lp_Force_Field>
OPLS_2005

> <r_lp_Energy>
26.5114

> <b_lp_Chiralities_Consistent>
1

> <s_lp_Variant>
AV-unprocessed.smi:150-2

> <Gold.Version>
5.8.1

> <Gold.Id.Protein>
6NUR|6NUR_protein|mol2

> <Gold.PLP.Fitness>
43.3411

> <Gold.PLP.PLP>
-38.0574

> <Gold.PLP.part.hbond>
-1.0000

> <Gold.PLP.part.metal>
0.0000

> <Gold.PLP.part.buried>
-4.9821

> <Gold.PLP.part.nonpolar>
-35.2026

> <Gold.PLP.part.repulsive>
2.1604

> <Gold.PLP.ligand.clash>
0.5818

> <Gold.PLP.ligand.torsion>
0.6036

> <Gold.PLP.Chemscore.Hbond>
1.0000

> <Gold.PLP.Chemscore.CHOScore>
1.0000

> <Gold.PLP.Chemscore.Metal>
0.0000

> <Gold.Chemscore.Hbonds>
donor molecule, donor type, donor heavy atom, donor atom, acceptor molecule, acceptor atom, score
      L1  H    21    47       P1  7948  1.00
      L1  C    17    44       P1 10175  0.16

> <Gold.PLP.Chemscore.Internal.Correction>
1.0728

> <Gold.Rescore>
     Score         DG    S(hbond)    S(metal)    S(lipo)     H(rot)  DE(clash)    DE(int)     intcor
      5.93     -10.59       1.00        0.00      89.50       3.40       0.13       4.52       ----

> <Gold.Chemscore.Fitness>
5.9341

> <Gold.Chemscore.DG>
-10.5892

> <Gold.Chemscore.ZeroCoef>
-5.4800

> <Gold.Chemscore.Hbond>
1.0000

> <Gold.Chemscore.Metal>
0.0000

> <Gold.Chemscore.Lipo>
89.5042

> <Gold.Chemscore.Internal_Hbond>
0.0000

> <Gold.Chemscore.DEClash>
0.1311

> <Gold.Chemscore.DEInternal>
4.5239

> <Gold.Chemscore.Rot>
3.3995

> <Gold.Chemscore.Internal.Correction>
   9.000000E+99

> <Gold.Chemscore.Hbonds>
donor molecule, donor type, donor heavy atom, donor atom, acceptor molecule, acceptor atom, score
      L1  H    21    47       P1  7948  0.99

> <Gold.Chemscore.Hbond.Weighted>
-3.3400

> <Gold.Chemscore.Metal.Weighted>
-0.0000

> <Gold.Chemscore.Lipo.Weighted>
-10.4720

> <Gold.Chemscore.Internal_Hbond.Weighted>
0.0000

> <Gold.Chemscore.DEClash.Weighted>
0.1311

> <Gold.Chemscore.DEInternal.Weighted>
4.5239

> <Gold.Chemscore.Rot.Weighted>
8.7028

> <Gold.Chemscore.Internal.Correction.Weighted>
   9.000000E+99

> <Gold.Protein.RotatedTorsions>
[ 6907 6896 6895 6894 ] final -140.57 input  -60.11 | X-H torsion
[ 7974 7965 7964 7962 ] final  137.03 input  175.53 | X-H torsion
[ 8008 7997 7996 7995 ] final  138.62 input   59.86 | X-H torsion
[ 10167 10162 10161 10158 ] final  113.73 input  -65.29 | X-H torsion
[ 10718 10713 10712 10709 ] final  -17.89 input   66.30 | X-H torsion
[ 10763 10752 10751 10750 ] final   56.79 input  -60.55 | X-H torsion
[ 11005 11000 10999 10996 ] final   21.97 input  -57.11 | X-H torsion

> <Gold.Protein.ActiveResidues>
 VAL166  LYS551  ARG553  GLY616  TRP617  ASP618  TYR619  PRO620  LYS621  CYS622 
 ASP623  PHE694  ASN695  SER759  ASP760  ASP761  ALA762  ILE779  LEU786  VAL792 
 PHE793  MET794  SER795  GLU796  ALA797  LYS798  CYS799  TRP800  GLU811  SER814 

> <Gold.Protein.RotatedAtoms>
  151.0625  133.5533  159.2633 H   0  0  0  0  0  0  0  0  0  0  0  0  # atno 6907 bound_to 6896
  151.2503  135.0619  159.9069 H   0  0  0  0  0  0  0  0  0  0  0  0  # atno 6908 bound_to 6896
  152.5399  134.0386  159.8111 H   0  0  0  0  0  0  0  0  0  0  0  0  # atno 6909 bound_to 6896
  144.9507  139.4822  143.5527 H   0  0  0  0  0  0  0  0  0  0  0  0  # atno 7974 bound_to 7965
  156.2996  140.2389  156.4104 H   0  0  0  0  0  0  0  0  0  0  0  0  # atno 8008 bound_to 7997
  154.8447  140.0427  157.1584 H   0  0  0  0  0  0  0  0  0  0  0  0  # atno 8009 bound_to 7997
  154.9064  140.2984  155.5293 H   0  0  0  0  0  0  0  0  0  0  0  0  # atno 8010 bound_to 7997
  139.6440  144.7125  151.2180 H   0  0  0  0  0  0  0  0  0  0  0  0  # atno 10167 bound_to 10162
  156.5672  130.4740  149.6379 H   0  0  0  0  0  0  0  0  0  0  0  0  # atno 10718 bound_to 10713
  152.9838  135.5664  154.5286 H   0  0  0  0  0  0  0  0  0  0  0  0  # atno 10763 bound_to 10752
  154.4762  135.2787  155.1607 H   0  0  0  0  0  0  0  0  0  0  0  0  # atno 10764 bound_to 10752
  154.3135  135.6283  153.5529 H   0  0  0  0  0  0  0  0  0  0  0  0  # atno 10765 bound_to 10752
  140.3858  134.1872  155.7663 H   0  0  0  0  0  0  0  0  0  0  0  0  # atno 11005 bound_to 11000
  146.3320  139.8591  142.8859 LP  0  0  0  0  0  0  0  0  0  0  0  0  # atno 17320 bound_to 7965
  145.2848  141.0149  143.3697 LP  0  0  0  0  0  0  0  0  0  0  0  0  # atno 17321 bound_to 7965
  140.7505  143.6263  150.8465 LP  0  0  0  0  0  0  0  0  0  0  0  0  # atno 17342 bound_to 10162
  139.9903  143.5854  152.2912 LP  0  0  0  0  0  0  0  0  0  0  0  0  # atno 17343 bound_to 10162
  156.2746  130.7036  151.1844 LP  0  0  0  0  0  0  0  0  0  0  0  0  # atno 17370 bound_to 10713
  157.7356  131.0571  150.5461 LP  0  0  0  0  0  0  0  0  0  0  0  0  # atno 17371 bound_to 10713
  141.1908  133.8209  157.0904 LP  0  0  0  0  0  0  0  0  0  0  0  0  # atno 17394 bound_to 11000
  140.0444  134.9838  157.1022 LP  0  0  0  0  0  0  0  0  0  0  0  0  # atno 17395 bound_to 11000

$$$$
