AV-unprocessed.smi:2424|AV-procd|sdf|9563|dock2
  -GOLD-   2272013193D 1   1.00000     0.00000
 Structure written by MMmdl.
 50 51  0  0  0  0  0  0  0  0  1 V2000
  150.4921  138.9762  154.9282 C   0  0  0  0  0  0  0  0  0  0  0  0
  149.2681  138.9276  153.9980 C   0  0  0  0  0  0  0  0  0  0  0  0
  147.9329  139.3547  154.6531 C   0  0  0  0  0  0  0  0  0  0  0  0
  147.9868  140.8727  154.9745 C   0  0  0  0  0  0  0  0  0  0  0  0
  147.8524  141.8325  153.7772 C   0  0  0  0  0  0  0  0  0  0  0  0
  146.6161  138.9377  153.9305 C   0  0  1  0  0  0  0  0  0  0  0  0
  146.7539  137.7464  153.0869 N   0  0  0  0  0  0  0  0  0  0  0  0
  145.7425  137.0654  152.5324 C   0  0  0  0  0  0  0  0  0  0  0  0
  144.5607  137.3819  152.6642 O   0  0  0  0  0  0  0  0  0  0  0  0
  146.2057  136.0114  151.8352 N   0  0  0  0  0  0  0  0  0  0  0  0
  145.4963  135.0662  151.0801 C   0  0  0  0  0  0  0  0  0  0  0  0
  144.4012  135.3224  150.3330 C   0  0  0  0  0  0  0  0  0  0  0  0
  143.7678  134.3120  149.6047 N   0  0  0  0  0  0  0  0  0  0  0  0
  144.1759  133.0228  149.5732 C   0  0  0  0  0  0  0  0  0  0  0  0
  143.5633  132.1905  148.9067 O   0  0  0  0  0  0  0  0  0  0  0  0
  145.3714  132.7189  150.3758 C   0  0  0  0  0  0  0  0  0  0  0  0
  145.8845  131.2902  150.3844 C   0  0  0  0  0  0  0  0  0  0  0  0
  145.9816  133.6989  151.0806 C   0  0  0  0  0  0  0  0  0  0  0  0
  145.9948  138.5864  155.2943 C   0  0  1  0  0  0  0  0  0  0  0  0
  145.0080  137.4277  155.4225 C   0  0  0  0  0  0  0  0  0  0  0  0
  147.4374  138.4343  155.8017 C   0  0  2  0  0  0  0  0  0  0  0  0
  147.6674  138.9595  157.0999 O   0  0  0  0  0  0  0  0  0  0  0  0
  147.0538  138.2024  158.1281 C   0  0  0  0  0  0  0  0  0  0  0  0
  142.9522  134.5754  149.0709 H   0  0  0  0  0  0  0  0  0  0  0  0
  151.4041  138.7578  154.3725 H   0  0  0  0  0  0  0  0  0  0  0  0
  150.4215  138.2426  155.7307 H   0  0  0  0  0  0  0  0  0  0  0  0
  150.6131  139.9580  155.3842 H   0  0  0  0  0  0  0  0  0  0  0  0
  149.4801  139.5609  153.1364 H   0  0  0  0  0  0  0  0  0  0  0  0
  149.1832  137.9296  153.5688 H   0  0  0  0  0  0  0  0  0  0  0  0
  147.2217  141.1253  155.7089 H   0  0  0  0  0  0  0  0  0  0  0  0
  148.9263  141.1117  155.4724 H   0  0  0  0  0  0  0  0  0  0  0  0
  148.0388  142.8593  154.0922 H   0  0  0  0  0  0  0  0  0  0  0  0
  146.8506  141.8111  153.3494 H   0  0  0  0  0  0  0  0  0  0  0  0
  148.5612  141.6026  152.9831 H   0  0  0  0  0  0  0  0  0  0  0  0
  146.1068  139.7729  153.4461 H   0  0  0  0  0  0  0  0  0  0  0  0
  147.6934  137.4168  152.9220 H   0  0  0  0  0  0  0  0  0  0  0  0
  147.2050  135.8706  151.8533 H   0  0  0  0  0  0  0  0  0  0  0  0
  143.9236  136.2819  150.2131 H   0  0  0  0  0  0  0  0  0  0  0  0
  146.7729  131.1893  151.0085 H   0  0  0  0  0  0  0  0  0  0  0  0
  146.1441  130.9727  149.3740 H   0  0  0  0  0  0  0  0  0  0  0  0
  145.1215  130.6144  150.7723 H   0  0  0  0  0  0  0  0  0  0  0  0
  146.8579  133.4579  151.6652 H   0  0  0  0  0  0  0  0  0  0  0  0
  145.5558  139.4926  155.7150 H   0  0  0  0  0  0  0  0  0  0  0  0
  145.4759  136.4696  155.1958 H   0  0  0  0  0  0  0  0  0  0  0  0
  144.1653  137.5535  154.7425 H   0  0  0  0  0  0  0  0  0  0  0  0
  144.6027  137.3613  156.4319 H   0  0  0  0  0  0  0  0  0  0  0  0
  147.8127  137.4141  155.6922 H   0  0  0  0  0  0  0  0  0  0  0  0
  147.3137  138.6279  159.0972 H   0  0  0  0  0  0  0  0  0  0  0  0
  147.3947  137.1664  158.1141 H   0  0  0  0  0  0  0  0  0  0  0  0
  145.9678  138.2163  158.0397 H   0  0  0  0  0  0  0  0  0  0  0  0
  1  2  1  0  0  0  0
  1 25  1  0  0  0  0
  1 26  1  0  0  0  0
  1 27  1  0  0  0  0
  2  3  1  0  0  0  0
  2 28  1  0  0  0  0
  2 29  1  0  0  0  0
  3 21  1  0  0  0  0
  3  4  1  0  0  0  0
  3  6  1  0  0  0  0
  4  5  1  0  0  0  0
  4 30  1  0  0  0  0
  4 31  1  0  0  0  0
  5 32  1  0  0  0  0
  5 33  1  0  0  0  0
  5 34  1  0  0  0  0
  6  7  1  0  0  0  0
  6 19  1  0  0  0  0
  6 35  1  0  0  0  0
  7  8  1  0  0  0  0
  7 36  1  0  0  0  0
  8  9  2  0  0  0  0
  8 10  1  0  0  0  0
 10 11  1  0  0  0  0
 10 37  1  0  0  0  0
 11 18  1  0  0  0  0
 11 12  2  0  0  0  0
 12 13  1  0  0  0  0
 12 38  1  0  0  0  0
 13 24  1  0  0  0  0
 13 14  1  0  0  0  0
 14 15  2  0  0  0  0
 14 16  1  0  0  0  0
 16 17  1  0  0  0  0
 16 18  2  0  0  0  0
 17 39  1  0  0  0  0
 17 40  1  0  0  0  0
 17 41  1  0  0  0  0
 18 42  1  0  0  0  0
 19 20  1  0  0  0  0
 19 21  1  0  0  0  0
 19 43  1  0  0  0  0
 20 44  1  0  0  0  0
 20 45  1  0  0  0  0
 20 46  1  0  0  0  0
 21 22  1  0  0  0  0
 21 47  1  0  0  0  0
 22 23  1  0  0  0  0
 23 48  1  0  0  0  0
 23 49  1  0  0  0  0
 23 50  1  0  0  0  0
M  END
> <s_m_source_file>
AV-unprocessed.smi

> <i_m_source_file_index>
2424

> <i_lp_mmshare_version>
43012

> <i_f3d_flags>
0

> <s_epik_input>
W0NIM11PW0NAQEhdMVtDQEhdKFtDSDNdKVtDQEBIXShDMShbQ0gyXVtDSDNdKVtDSDJdW0NIM10pW05IXUMoPU8pW05IXWMyW2NIXVtuSF1jKD1PKWMoW0NIM10pW2NIXTI=

> <s_epik_cmdline>
J2VwaWtfcHl0aG9uJywgJy1waCcsICc3LjAnLCAnLXRuJywgJzgnLCAnLW1hJywgJzIwMCcsICctbWV0YWxfYmluZGluZycsICctaW1hZScsICc8aW5maWxlLm1hZT4nLCAnLW9tYWUnLCAnPG91dGZpbGUubWFlPic=

> <r_lp_tautomer_probability>
1

> <r_epik_Ionization_Penalty>
4.7326e-05

> <r_epik_Ionization_Penalty_Charging>
2.70169e-05

> <r_epik_Ionization_Penalty_Neutral>
2.0309e-05

> <r_epik_State_Penalty>
-0

> <r_epik_Charging_Adjusted_Penalty>
2.70169e-05

> <i_epik_Tot_Q>
0

> <i_epik_Tot_abs_Q>
0

> <r_epik_Metal_State_Penalty>
0.0198736

> <b_epik_Metal_Only>
0

> <s_lp_Force_Field>
OPLS_2005

> <r_lp_Energy>
37.0133

> <b_lp_Chiralities_Consistent>
1

> <s_lp_Variant>
AV-unprocessed.smi:2424-5

> <Gold.Version>
5.8.1

> <Gold.Id.Protein>
6NUR|6NUR_protein|mol2

> <Gold.PLP.Fitness>
45.8211

> <Gold.PLP.PLP>
-32.7388

> <Gold.PLP.part.hbond>
-4.4269

> <Gold.PLP.part.metal>
0.0000

> <Gold.PLP.part.buried>
-4.6532

> <Gold.PLP.part.nonpolar>
-25.3816

> <Gold.PLP.part.repulsive>
0.6181

> <Gold.PLP.ligand.clash>
0.0000

> <Gold.PLP.ligand.torsion>
0.6995

> <Gold.PLP.Chemscore.Hbond>
3.6080

> <Gold.PLP.Chemscore.CHOScore>
1.0000

> <Gold.PLP.Chemscore.Metal>
0.0000

> <Gold.Chemscore.Hbonds>
donor molecule, donor type, donor heavy atom, donor atom, acceptor molecule, acceptor atom, score
      L1  H     7    36       P1  7948  0.98
      L1  H    10    37       P1  7948  1.00
      L1  H    13    24       P1 10186  0.61
      P1  H 10785 10796       L1    15  0.73
      L1  C    12    38       P1 10171  1.00

> <Gold.PLP.Chemscore.Internal.Correction>
0.6574

> <Gold.Rescore>
     Score         DG    S(hbond)    S(metal)    S(lipo)     H(rot)  DE(clash)    DE(int)     intcor
     19.11     -22.59       3.75        0.00      73.05       1.55       0.22       3.26       ----

> <Gold.Chemscore.Fitness>
19.1148

> <Gold.Chemscore.DG>
-22.5942

> <Gold.Chemscore.ZeroCoef>
-5.4800

> <Gold.Chemscore.Hbond>
3.7532

> <Gold.Chemscore.Metal>
0.0000

> <Gold.Chemscore.Lipo>
73.0519

> <Gold.Chemscore.Internal_Hbond>
0.0000

> <Gold.Chemscore.DEClash>
0.2237

> <Gold.Chemscore.DEInternal>
3.2557

> <Gold.Chemscore.Rot>
1.5502

> <Gold.Chemscore.Internal.Correction>
   9.000000E+99

> <Gold.Chemscore.Hbonds>
donor molecule, donor type, donor heavy atom, donor atom, acceptor molecule, acceptor atom, score
      L1  H     7    36       P1  7948  0.88
      L1  H    10    37       P1  7948  1.00
      L1  H    13    24       P1 10186  0.60
      P1  H 10785 10796       L1    15  0.70

> <Gold.Chemscore.Hbond.Weighted>
-12.5356

> <Gold.Chemscore.Metal.Weighted>
-0.0000

> <Gold.Chemscore.Lipo.Weighted>
-8.5471

> <Gold.Chemscore.Internal_Hbond.Weighted>
0.0000

> <Gold.Chemscore.DEClash.Weighted>
0.2237

> <Gold.Chemscore.DEInternal.Weighted>
3.2557

> <Gold.Chemscore.Rot.Weighted>
3.9685

> <Gold.Chemscore.Internal.Correction.Weighted>
   9.000000E+99

> <Gold.Protein.RotatedTorsions>
[ 6907 6896 6895 6894 ] final  -39.90 input  -60.11 | X-H torsion
[ 7974 7965 7964 7962 ] final  -39.18 input  175.53 | X-H torsion
[ 8008 7997 7996 7995 ] final  -17.80 input   59.86 | X-H torsion
[ 10167 10162 10161 10158 ] final  119.13 input  -65.29 | X-H torsion
[ 10718 10713 10712 10709 ] final  153.92 input   66.30 | X-H torsion
[ 10763 10752 10751 10750 ] final   57.57 input  -60.55 | X-H torsion
[ 11005 11000 10999 10996 ] final -167.24 input  -57.11 | X-H torsion

> <Gold.Protein.ActiveResidues>
 VAL166  LYS551  ARG553  GLY616  TRP617  ASP618  TYR619  PRO620  LYS621  CYS622 
 ASP623  PHE694  ASN695  SER759  ASP760  ASP761  ALA762  ILE779  LEU786  VAL792 
 PHE793  MET794  SER795  GLU796  ALA797  LYS798  CYS799  TRP800  GLU811  SER814 

> <Gold.Protein.RotatedAtoms>
  150.9848  134.9195  159.7864 H   0  0  0  0  0  0  0  0  0  0  0  0  # atno 6907 bound_to 6896
  152.5233  134.3362  159.9210 H   0  0  0  0  0  0  0  0  0  0  0  0  # atno 6908 bound_to 6896
  151.3368  133.3937  159.2702 H   0  0  0  0  0  0  0  0  0  0  0  0  # atno 6909 bound_to 6896
  146.0420  140.6596  142.9083 H   0  0  0  0  0  0  0  0  0  0  0  0  # atno 7974 bound_to 7965
  154.4952  140.2133  155.9462 H   0  0  0  0  0  0  0  0  0  0  0  0  # atno 8008 bound_to 7997
  156.1360  140.3188  155.8390 H   0  0  0  0  0  0  0  0  0  0  0  0  # atno 8009 bound_to 7997
  155.4208  140.0497  157.3016 H   0  0  0  0  0  0  0  0  0  0  0  0  # atno 8010 bound_to 7997
  139.6066  144.7071  151.2939 H   0  0  0  0  0  0  0  0  0  0  0  0  # atno 10167 bound_to 10162
  157.2384  131.0754  151.1808 H   0  0  0  0  0  0  0  0  0  0  0  0  # atno 10718 bound_to 10713
  152.9852  135.5637  154.5412 H   0  0  0  0  0  0  0  0  0  0  0  0  # atno 10763 bound_to 10752
  154.4866  135.2791  155.1531 H   0  0  0  0  0  0  0  0  0  0  0  0  # atno 10764 bound_to 10752
  154.3018  135.6306  153.5481 H   0  0  0  0  0  0  0  0  0  0  0  0  # atno 10765 bound_to 10752
  140.5555  134.5385  157.5132 H   0  0  0  0  0  0  0  0  0  0  0  0  # atno 11005 bound_to 11000
  144.7079  140.3925  143.7103 LP  0  0  0  0  0  0  0  0  0  0  0  0  # atno 17320 bound_to 7965
  145.6869  139.1630  143.2669 LP  0  0  0  0  0  0  0  0  0  0  0  0  # atno 17321 bound_to 7965
  140.7289  143.6922  150.7913 LP  0  0  0  0  0  0  0  0  0  0  0  0  # atno 17342 bound_to 10162
  140.0509  143.5251  152.2674 LP  0  0  0  0  0  0  0  0  0  0  0  0  # atno 17343 bound_to 10162
  157.3405  130.7031  149.6378 LP  0  0  0  0  0  0  0  0  0  0  0  0  # atno 17370 bound_to 10713
  155.9671  130.4281  150.4774 LP  0  0  0  0  0  0  0  0  0  0  0  0  # atno 17371 bound_to 10713
  139.9434  134.7746  156.0622 LP  0  0  0  0  0  0  0  0  0  0  0  0  # atno 17394 bound_to 11000
  141.1146  133.6632  156.3062 LP  0  0  0  0  0  0  0  0  0  0  0  0  # atno 17395 bound_to 11000

$$$$
