AV-unprocessed.smi:2923|AV-procd|sdf|11208|dock7
  -GOLD-   2272016103D 1   1.00000     0.00000
 Structure written by MMmdl.
 47 49  0  0  0  0  0  0  0  0  2 V2000
  143.8292  132.7151  148.8642 C   0  0  0  0  0  0  0  0  0  0  0  0
  144.5691  132.7522  150.1209 N   0  0  0  0  0  0  0  0  0  0  0  0
  145.1145  131.5272  150.6905 C   0  0  0  0  0  0  0  0  0  0  0  0
  144.7395  133.9787  150.7988 C   0  0  0  0  0  0  0  0  0  0  0  0
  145.9648  134.3758  151.3883 C   0  0  0  0  0  0  0  0  0  0  0  0
  146.0537  135.6157  152.0535 C   0  0  0  0  0  0  0  0  0  0  0  0
  144.9257  136.4597  152.1223 C   0  0  0  0  0  0  0  0  0  0  0  0
  145.0637  137.6902  152.8203 N   0  0  0  0  0  0  0  0  0  0  0  0
  145.9151  138.0059  153.8115 C   0  0  0  0  0  0  0  0  0  0  0  0
  146.7107  137.2319  154.3427 O   0  0  0  0  0  0  0  0  0  0  0  0
  145.7843  139.2896  154.1697 N   0  0  0  0  0  0  0  0  0  0  0  0
  146.5827  139.9446  155.1989 C   0  0  2  0  0  0  0  0  0  0  0  0
  145.7203  140.6806  156.2246 C   0  0  1  0  0  0  0  0  0  0  0  0
  145.4396  140.5045  157.6743 C   0  0  0  0  0  0  0  0  0  0  0  0
  145.6128  141.9861  158.1041 C   0  0  0  0  0  0  0  0  0  0  0  0
  146.1989  142.6645  156.9660 O   0  0  0  0  0  0  0  0  0  0  0  0
  146.8925  141.6400  156.2840 C   0  0  2  0  0  0  0  0  0  0  0  0
  147.1046  141.3713  154.7805 C   0  0  0  0  0  0  0  0  0  0  0  0
  148.5581  141.4253  154.3097 C   0  0  0  0  0  0  0  0  0  0  0  0
  146.2937  142.2187  153.7789 C   0  0  0  0  0  0  0  0  0  0  0  0
  143.7226  136.0162  151.5230 C   0  0  0  0  0  0  0  0  0  0  0  0
  143.6811  134.8199  150.8978 N   0  3  0  0  0  0  0  0  0  0  0  0
  142.8129  133.0844  149.0054 H   0  0  0  0  0  0  0  0  0  0  0  0
  143.7628  131.7001  148.4721 H   0  0  0  0  0  0  0  0  0  0  0  0
  144.3214  133.3318  148.1116 H   0  0  0  0  0  0  0  0  0  0  0  0
  144.6967  131.3443  151.6808 H   0  0  0  0  0  0  0  0  0  0  0  0
  146.1993  131.5956  150.7760 H   0  0  0  0  0  0  0  0  0  0  0  0
  144.8833  130.6628  150.0678 H   0  0  0  0  0  0  0  0  0  0  0  0
  146.8418  133.7476  151.3441 H   0  0  0  0  0  0  0  0  0  0  0  0
  146.9881  135.9143  152.5062 H   0  0  0  0  0  0  0  0  0  0  0  0
  144.4227  138.4189  152.5422 H   0  0  0  0  0  0  0  0  0  0  0  0
  145.1018  139.8578  153.6896 H   0  0  0  0  0  0  0  0  0  0  0  0
  147.3413  139.3028  155.6568 H   0  0  0  0  0  0  0  0  0  0  0  0
  144.8399  141.1107  155.7407 H   0  0  0  0  0  0  0  0  0  0  0  0
  144.4364  140.1253  157.8700 H   0  0  0  0  0  0  0  0  0  0  0  0
  146.1686  139.8507  158.1552 H   0  0  0  0  0  0  0  0  0  0  0  0
  144.6592  142.4521  158.3536 H   0  0  0  0  0  0  0  0  0  0  0  0
  146.2668  142.0649  158.9733 H   0  0  0  0  0  0  0  0  0  0  0  0
  147.7322  141.2755  156.8870 H   0  0  0  0  0  0  0  0  0  0  0  0
  148.9418  142.4460  154.3120 H   0  0  0  0  0  0  0  0  0  0  0  0
  148.6676  141.0331  153.2982 H   0  0  0  0  0  0  0  0  0  0  0  0
  149.2100  140.8345  154.9535 H   0  0  0  0  0  0  0  0  0  0  0  0
  146.6115  143.2615  153.8017 H   0  0  0  0  0  0  0  0  0  0  0  0
  145.2216  142.2158  153.9673 H   0  0  0  0  0  0  0  0  0  0  0  0
  146.4301  141.8624  152.7573 H   0  0  0  0  0  0  0  0  0  0  0  0
  142.7875  136.5551  151.5249 H   0  0  0  0  0  0  0  0  0  0  0  0
  142.7972  134.5314  150.4780 H   0  0  0  0  0  0  0  0  0  0  0  0
  1  2  1  0  0  0  0
  1 23  1  0  0  0  0
  1 24  1  0  0  0  0
  1 25  1  0  0  0  0
  2  3  1  0  0  0  0
  2  4  1  0  0  0  0
  3 26  1  0  0  0  0
  3 27  1  0  0  0  0
  3 28  1  0  0  0  0
  4 22  1  0  0  0  0
  4  5  2  0  0  0  0
  5  6  1  0  0  0  0
  5 29  1  0  0  0  0
  6  7  2  0  0  0  0
  6 30  1  0  0  0  0
  7  8  1  0  0  0  0
  7 21  1  0  0  0  0
  8  9  1  0  0  0  0
  8 31  1  0  0  0  0
  9 10  2  0  0  0  0
  9 11  1  0  0  0  0
 11 12  1  0  0  0  0
 11 32  1  0  0  0  0
 12 18  1  0  0  0  0
 12 13  1  0  0  0  0
 12 33  1  0  0  0  0
 13 17  1  0  0  0  0
 13 14  1  0  0  0  0
 13 34  1  0  0  0  0
 14 15  1  0  0  0  0
 14 35  1  0  0  0  0
 14 36  1  0  0  0  0
 15 16  1  0  0  0  0
 15 37  1  0  0  0  0
 15 38  1  0  0  0  0
 16 17  1  0  0  0  0
 17 18  1  0  0  0  0
 17 39  1  0  0  0  0
 18 19  1  0  0  0  0
 18 20  1  0  0  0  0
 19 40  1  0  0  0  0
 19 41  1  0  0  0  0
 19 42  1  0  0  0  0
 20 43  1  0  0  0  0
 20 44  1  0  0  0  0
 20 45  1  0  0  0  0
 21 22  2  0  0  0  0
 21 46  1  0  0  0  0
 22 47  1  0  0  0  0
M  CHG  1  22   1
M  END
> <s_m_source_file>
AV-unprocessed.smi

> <i_m_source_file_index>
2923

> <i_lp_mmshare_version>
43012

> <i_f3d_flags>
0

> <s_epik_input>
W0NIM11OKFtDSDNdKWMxW2NIXVtjSF1jKFtjSF1uMSlbTkhdQyg9TylbTkhdW0NASF0yQyhbQ0gzXSkoW0NIM10pW0NAQEhdKFtDQEhdMjMpT1tDSDJdW0NIMl0z

> <s_epik_cmdline>
J2VwaWtfcHl0aG9uJywgJy1waCcsICc3LjAnLCAnLXRuJywgJzgnLCAnLW1hJywgJzIwMCcsICctbWV0YWxfYmluZGluZycsICctaW1hZScsICc8aW5maWxlLm1hZT4nLCAnLW9tYWUnLCAnPG91dGZpbGUubWFlPic=

> <r_lp_tautomer_probability>
0.999994

> <r_epik_Ionization_Penalty>
0.252205

> <r_epik_Ionization_Penalty_Charging>
0.252185

> <r_epik_Ionization_Penalty_Neutral>
1.99479e-05

> <r_epik_State_Penalty>
0.243573

> <r_epik_Charging_Adjusted_Penalty>
0.495758

> <i_epik_Tot_Q>
1

> <i_epik_Tot_abs_Q>
1

> <r_epik_Metal_State_Penalty>
0.534372

> <b_epik_Metal_Only>
0

> <s_lp_Force_Field>
OPLS_2005

> <r_lp_Energy>
68.0101

> <b_lp_Chiralities_Consistent>
1

> <s_lp_Variant>
AV-unprocessed.smi:2923-7

> <Gold.Version>
5.8.1

> <Gold.Id.Protein>
6NUR|6NUR_protein|mol2

> <Gold.PLP.Fitness>
41.0819

> <Gold.PLP.PLP>
-31.7618

> <Gold.PLP.part.hbond>
-2.7427

> <Gold.PLP.part.metal>
0.0000

> <Gold.PLP.part.buried>
-2.5938

> <Gold.PLP.part.nonpolar>
-26.6502

> <Gold.PLP.part.repulsive>
0.2662

> <Gold.PLP.ligand.clash>
0.0000

> <Gold.PLP.ligand.torsion>
0.9980

> <Gold.PLP.Chemscore.Hbond>
3.6825

> <Gold.PLP.Chemscore.CHOScore>
0.0000

> <Gold.PLP.Chemscore.Metal>
0.0000

> <Gold.Chemscore.Hbonds>
donor molecule, donor type, donor heavy atom, donor atom, acceptor molecule, acceptor atom, score
      L1  H     8    31       P1 10175  0.67
      L1  H    11    32       P1 10175  1.00
      L1  H    22    47       P1 10186  2.00

> <Gold.PLP.Chemscore.Internal.Correction>
0.2685

> <Gold.Rescore>
     Score         DG    S(hbond)    S(metal)    S(lipo)     H(rot)  DE(clash)    DE(int)     intcor
     15.86     -18.63       2.28        0.00      69.10       1.00       0.74       2.03       ----

> <Gold.Chemscore.Fitness>
15.8613

> <Gold.Chemscore.DG>
-18.6301

> <Gold.Chemscore.ZeroCoef>
-5.4800

> <Gold.Chemscore.Hbond>
2.2832

> <Gold.Chemscore.Metal>
0.0000

> <Gold.Chemscore.Lipo>
69.0962

> <Gold.Chemscore.Internal_Hbond>
0.0000

> <Gold.Chemscore.DEClash>
0.7369

> <Gold.Chemscore.DEInternal>
2.0319

> <Gold.Chemscore.Rot>
1.0000

> <Gold.Chemscore.Internal.Correction>
   9.000000E+99

> <Gold.Chemscore.Hbonds>
donor molecule, donor type, donor heavy atom, donor atom, acceptor molecule, acceptor atom, score
      L1  H     8    31       P1 10175  0.66
      L1  H    11    32       P1 10175  0.98
      L1  H    22    47       P1 10186  0.43

> <Gold.Chemscore.Hbond.Weighted>
-7.6258

> <Gold.Chemscore.Metal.Weighted>
-0.0000

> <Gold.Chemscore.Lipo.Weighted>
-8.0843

> <Gold.Chemscore.Internal_Hbond.Weighted>
0.0000

> <Gold.Chemscore.DEClash.Weighted>
0.7369

> <Gold.Chemscore.DEInternal.Weighted>
2.0319

> <Gold.Chemscore.Rot.Weighted>
2.5600

> <Gold.Chemscore.Internal.Correction.Weighted>
   9.000000E+99

> <Gold.Protein.RotatedTorsions>
[ 6907 6896 6895 6894 ] final  -59.54 input  -60.11 | X-H torsion
[ 7974 7965 7964 7962 ] final   72.55 input  175.53 | X-H torsion
[ 8008 7997 7996 7995 ] final   63.49 input   59.86 | X-H torsion
[ 10167 10162 10161 10158 ] final -153.51 input  -65.29 | X-H torsion
[ 10718 10713 10712 10709 ] final  -33.89 input   66.30 | X-H torsion
[ 10763 10752 10751 10750 ] final -102.81 input  -60.55 | X-H torsion
[ 11005 11000 10999 10996 ] final  -32.28 input  -57.11 | X-H torsion

> <Gold.Protein.ActiveResidues>
 VAL166  LYS551  ARG553  GLY616  TRP617  ASP618  TYR619  PRO620  LYS621  CYS622 
 ASP623  PHE694  ASN695  SER759  ASP760  ASP761  ALA762  ILE779  LEU786  VAL792 
 PHE793  MET794  SER795  GLU796  ALA797  LYS798  CYS799  TRP800  GLU811  SER814 

> <Gold.Protein.RotatedAtoms>
  150.7923  134.6955  159.6520 H   0  0  0  0  0  0  0  0  0  0  0  0  # atno 6907 bound_to 6896
  152.4030  134.6251  160.0071 H   0  0  0  0  0  0  0  0  0  0  0  0  # atno 6908 bound_to 6896
  151.6517  133.3284  159.3189 H   0  0  0  0  0  0  0  0  0  0  0  0  # atno 6909 bound_to 6896
  145.7520  139.2764  143.1426 H   0  0  0  0  0  0  0  0  0  0  0  0  # atno 7974 bound_to 7965
  155.6311  140.3496  155.4683 H   0  0  0  0  0  0  0  0  0  0  0  0  # atno 8008 bound_to 7997
  156.0002  140.1212  157.0578 H   0  0  0  0  0  0  0  0  0  0  0  0  # atno 8009 bound_to 7997
  154.4246  140.1102  156.5673 H   0  0  0  0  0  0  0  0  0  0  0  0  # atno 8010 bound_to 7997
  139.7091  143.9138  152.2460 H   0  0  0  0  0  0  0  0  0  0  0  0  # atno 10167 bound_to 10162
  156.3572  130.4318  149.7654 H   0  0  0  0  0  0  0  0  0  0  0  0  # atno 10718 bound_to 10713
  154.7761  135.4847  153.9748 H   0  0  0  0  0  0  0  0  0  0  0  0  # atno 10763 bound_to 10752
  153.1431  135.6776  153.9004 H   0  0  0  0  0  0  0  0  0  0  0  0  # atno 10764 bound_to 10752
  153.8672  135.3148  155.3419 H   0  0  0  0  0  0  0  0  0  0  0  0  # atno 10765 bound_to 10752
  140.9539  133.7204  156.1263 H   0  0  0  0  0  0  0  0  0  0  0  0  # atno 11005 bound_to 11000
  146.0348  140.8223  142.9858 LP  0  0  0  0  0  0  0  0  0  0  0  0  # atno 17320 bound_to 7965
  144.6848  140.2822  143.7290 LP  0  0  0  0  0  0  0  0  0  0  0  0  # atno 17321 bound_to 7965
  139.9002  144.6916  150.8673 LP  0  0  0  0  0  0  0  0  0  0  0  0  # atno 17342 bound_to 10162
  140.7729  143.3519  151.1997 LP  0  0  0  0  0  0  0  0  0  0  0  0  # atno 17343 bound_to 10162
  156.4832  130.8050  151.3064 LP  0  0  0  0  0  0  0  0  0  0  0  0  # atno 17370 bound_to 10713
  157.7469  130.9999  150.2907 LP  0  0  0  0  0  0  0  0  0  0  0  0  # atno 17371 bound_to 10713
  140.7564  134.3988  157.5533 LP  0  0  0  0  0  0  0  0  0  0  0  0  # atno 17394 bound_to 11000
  139.8856  134.8933  156.2634 LP  0  0  0  0  0  0  0  0  0  0  0  0  # atno 17395 bound_to 11000

$$$$
