AV-unprocessed.smi:2016|AV-procd|sdf|8166|dock1
  -GOLD-   2272010413D 1   1.00000     0.00000
 Structure written by MMmdl.
 42 43  0  0  0  0  0  0  0  0  1 V2000
  143.8666  145.1269  154.1929 C   0  0  0  0  0  0  0  0  0  0  0  0
  144.1391  144.6359  155.6165 C   0  0  0  0  0  0  0  0  0  0  0  0
  143.9019  145.4045  156.5485 O   0  0  0  0  0  0  0  0  0  0  0  0
  144.6309  143.3873  155.8040 N   0  0  0  0  0  0  0  0  0  0  0  0
  145.0058  142.4519  154.7363 C   0  0  0  0  0  0  0  0  0  0  0  0
  146.5392  142.3283  154.7011 C   0  0  0  0  0  0  0  0  0  0  0  0
  147.1009  141.8965  156.0763 C   0  0  0  0  0  0  0  0  0  0  0  0
  148.5579  141.9814  156.0865 N   0  0  0  0  0  0  0  0  0  0  0  0
  149.3927  140.9729  156.3804 C   0  0  0  0  0  0  0  0  0  0  0  0
  149.0060  139.8398  156.6705 O   0  0  0  0  0  0  0  0  0  0  0  0
  150.8908  141.3031  156.3125 C   0  0  0  0  0  0  0  0  0  0  0  0
  151.4293  141.8446  157.5723 N   0  0  0  0  0  0  0  0  0  0  0  0
  150.9055  143.0736  158.0116 C   0  0  0  0  0  0  0  0  0  0  0  0
  151.3254  143.6554  159.1430 C   0  0  0  0  0  0  0  0  0  0  0  0
  152.3424  142.9865  159.9173 C   0  0  0  0  0  0  0  0  0  0  0  0
  152.8687  141.8056  159.5178 C   0  0  0  0  0  0  0  0  0  0  0  0
  153.9445  141.0834  160.3260 C   0  0  0  0  0  0  0  0  0  0  0  0
  155.1427  141.2498  159.7650 F   0  0  0  0  0  0  0  0  0  0  0  0
  154.0134  141.5394  161.5776 F   0  0  0  0  0  0  0  0  0  0  0  0
  153.6893  139.7758  160.3831 F   0  0  0  0  0  0  0  0  0  0  0  0
  152.4007  141.1745  158.2669 C   0  0  0  0  0  0  0  0  0  0  0  0
  152.8518  140.1023  157.8599 O   0  0  0  0  0  0  0  0  0  0  0  0
  146.5260  142.7635  157.2176 C   0  0  0  0  0  0  0  0  0  0  0  0
  144.9926  142.8672  157.1276 C   0  0  0  0  0  0  0  0  0  0  0  0
  144.7769  145.1022  153.5931 H   0  0  0  0  0  0  0  0  0  0  0  0
  143.5045  146.1557  154.2042 H   0  0  0  0  0  0  0  0  0  0  0  0
  143.1060  144.5119  153.7111 H   0  0  0  0  0  0  0  0  0  0  0  0
  144.5598  141.4774  154.9413 H   0  0  0  0  0  0  0  0  0  0  0  0
  144.6342  142.7384  153.7537 H   0  0  0  0  0  0  0  0  0  0  0  0
  146.8342  141.6135  153.9322 H   0  0  0  0  0  0  0  0  0  0  0  0
  146.9680  143.2888  154.4106 H   0  0  0  0  0  0  0  0  0  0  0  0
  146.8012  140.8633  156.2632 H   0  0  0  0  0  0  0  0  0  0  0  0
  148.9622  142.8773  155.8558 H   0  0  0  0  0  0  0  0  0  0  0  0
  151.4247  140.3954  156.0278 H   0  0  0  0  0  0  0  0  0  0  0  0
  151.0695  142.0048  155.4953 H   0  0  0  0  0  0  0  0  0  0  0  0
  150.1536  143.5115  157.3710 H   0  0  0  0  0  0  0  0  0  0  0  0
  150.9159  144.6017  159.4645 H   0  0  0  0  0  0  0  0  0  0  0  0
  152.6795  143.4519  160.8314 H   0  0  0  0  0  0  0  0  0  0  0  0
  146.8145  142.3496  158.1846 H   0  0  0  0  0  0  0  0  0  0  0  0
  146.9525  143.7669  157.1714 H   0  0  0  0  0  0  0  0  0  0  0  0
  144.6141  143.4853  157.9426 H   0  0  0  0  0  0  0  0  0  0  0  0
  144.5403  141.8841  157.2668 H   0  0  0  0  0  0  0  0  0  0  0  0
  1  2  1  0  0  0  0
  1 25  1  0  0  0  0
  1 26  1  0  0  0  0
  1 27  1  0  0  0  0
  2  3  2  0  0  0  0
  2  4  1  0  0  0  0
  4 24  1  0  0  0  0
  4  5  1  0  0  0  0
  5  6  1  0  0  0  0
  5 28  1  0  0  0  0
  5 29  1  0  0  0  0
  6  7  1  0  0  0  0
  6 30  1  0  0  0  0
  6 31  1  0  0  0  0
  7  8  1  0  0  0  0
  7 23  1  0  0  0  0
  7 32  1  0  0  0  0
  8  9  1  0  0  0  0
  8 33  1  0  0  0  0
  9 10  2  0  0  0  0
  9 11  1  0  0  0  0
 11 12  1  0  0  0  0
 11 34  1  0  0  0  0
 11 35  1  0  0  0  0
 12 21  1  0  0  0  0
 12 13  1  0  0  0  0
 13 14  2  0  0  0  0
 13 36  1  0  0  0  0
 14 15  1  0  0  0  0
 14 37  1  0  0  0  0
 15 16  2  0  0  0  0
 15 38  1  0  0  0  0
 16 17  1  0  0  0  0
 16 21  1  0  0  0  0
 17 18  1  0  0  0  0
 17 19  1  0  0  0  0
 17 20  1  0  0  0  0
 21 22  2  0  0  0  0
 23 24  1  0  0  0  0
 23 39  1  0  0  0  0
 23 40  1  0  0  0  0
 24 41  1  0  0  0  0
 24 42  1  0  0  0  0
M  END
> <s_m_source_file>
AV-unprocessed.smi

> <i_m_source_file_index>
2016

> <i_lp_mmshare_version>
43012

> <i_f3d_flags>
0

> <s_epik_input>
W0NIM11DKD1PKU4xW0NIMl1bQ0gyXVtDSF0oW0NIMl1bQ0gyXTEpW05IXUMoPU8pW0NIMl1uMltjSF1bY0hdW2NIXWMoQyhGKShGKUYpYzI9Tw==

> <s_epik_cmdline>
J2VwaWtfcHl0aG9uJywgJy1waCcsICc3LjAnLCAnLXRuJywgJzgnLCAnLW1hJywgJzIwMCcsICctbWV0YWxfYmluZGluZycsICctaW1hZScsICc8aW5maWxlLm1hZT4nLCAnLW9tYWUnLCAnPG91dGZpbGUubWFlPic=

> <r_lp_tautomer_probability>
1

> <r_epik_Ionization_Penalty>
1.12606e-06

> <r_epik_Ionization_Penalty_Charging>
2.00242e-09

> <r_epik_Ionization_Penalty_Neutral>
1.12405e-06

> <r_epik_State_Penalty>
-0

> <r_epik_Charging_Adjusted_Penalty>
2.00242e-09

> <i_epik_Tot_Q>
0

> <i_epik_Tot_abs_Q>
0

> <r_epik_Metal_State_Penalty>
-0

> <b_epik_Metal_Only>
0

> <s_lp_Force_Field>
OPLS_2005

> <r_lp_Energy>
31.7258

> <b_lp_Chiralities_Consistent>
1

> <s_lp_Variant>
AV-unprocessed.smi:2016-1

> <Gold.Version>
5.8.1

> <Gold.Id.Protein>
6NUR|6NUR_protein|mol2

> <Gold.PLP.Fitness>
52.3644

> <Gold.PLP.PLP>
-45.2183

> <Gold.PLP.part.hbond>
-2.0000

> <Gold.PLP.part.metal>
0.0000

> <Gold.PLP.part.buried>
-5.7350

> <Gold.PLP.part.nonpolar>
-37.4992

> <Gold.PLP.part.repulsive>
0.1140

> <Gold.PLP.ligand.clash>
0.0000

> <Gold.PLP.ligand.torsion>
1.1020

> <Gold.PLP.Chemscore.Hbond>
1.9920

> <Gold.PLP.Chemscore.CHOScore>
1.0000

> <Gold.PLP.Chemscore.Metal>
0.0000

> <Gold.Chemscore.Hbonds>
donor molecule, donor type, donor heavy atom, donor atom, acceptor molecule, acceptor atom, score
      L1  H     8    33       P1  8028  1.00
      P1  H  7997  8009       L1    22  1.00
      L1  C    13    36       P1  8028  1.00

> <Gold.PLP.Chemscore.Internal.Correction>
0.3742

> <Gold.Rescore>
     Score         DG    S(hbond)    S(metal)    S(lipo)     H(rot)  DE(clash)    DE(int)     intcor
     14.76     -17.06       1.91        0.00      80.48       1.64       0.09       2.21       ----

> <Gold.Chemscore.Fitness>
14.7566

> <Gold.Chemscore.DG>
-17.0565

> <Gold.Chemscore.ZeroCoef>
-5.4800

> <Gold.Chemscore.Hbond>
1.9065

> <Gold.Chemscore.Metal>
0.0000

> <Gold.Chemscore.Lipo>
80.4810

> <Gold.Chemscore.Internal_Hbond>
0.0000

> <Gold.Chemscore.DEClash>
0.0869

> <Gold.Chemscore.DEInternal>
2.2130

> <Gold.Chemscore.Rot>
1.6435

> <Gold.Chemscore.Internal.Correction>
   9.000000E+99

> <Gold.Chemscore.Hbonds>
donor molecule, donor type, donor heavy atom, donor atom, acceptor molecule, acceptor atom, score
      L1  H     8    33       P1  8028  0.96
      P1  H  7997  8009       L1    22  0.94

> <Gold.Chemscore.Hbond.Weighted>
-6.3677

> <Gold.Chemscore.Metal.Weighted>
-0.0000

> <Gold.Chemscore.Lipo.Weighted>
-9.4163

> <Gold.Chemscore.Internal_Hbond.Weighted>
0.0000

> <Gold.Chemscore.DEClash.Weighted>
0.0869

> <Gold.Chemscore.DEInternal.Weighted>
2.2130

> <Gold.Chemscore.Rot.Weighted>
4.2074

> <Gold.Chemscore.Internal.Correction.Weighted>
   9.000000E+99

> <Gold.Protein.RotatedTorsions>
[ 6907 6896 6895 6894 ] final -134.73 input  -60.11 | X-H torsion
[ 7974 7965 7964 7962 ] final -174.63 input  175.53 | X-H torsion
[ 8008 7997 7996 7995 ] final  168.07 input   59.86 | X-H torsion
[ 10167 10162 10161 10158 ] final   87.26 input  -65.29 | X-H torsion
[ 10718 10713 10712 10709 ] final -131.30 input   66.30 | X-H torsion
[ 10763 10752 10751 10750 ] final   18.66 input  -60.55 | X-H torsion
[ 11005 11000 10999 10996 ] final -140.54 input  -57.11 | X-H torsion

> <Gold.Protein.ActiveResidues>
 VAL166  LYS551  ARG553  GLY616  TRP617  ASP618  TYR619  PRO620  LYS621  CYS622 
 ASP623  PHE694  ASN695  SER759  ASP760  ASP761  ALA762  ILE779  LEU786  VAL792 
 PHE793  MET794  SER795  GLU796  ALA797  LYS798  CYS799  TRP800  GLU811  SER814 

> <Gold.Protein.RotatedAtoms>
  150.9894  133.6165  159.2710 H   0  0  0  0  0  0  0  0  0  0  0  0  # atno 6907 bound_to 6896
  151.3391  135.0858  159.9375 H   0  0  0  0  0  0  0  0  0  0  0  0  # atno 6908 bound_to 6896
  152.5241  133.9508  159.7725 H   0  0  0  0  0  0  0  0  0  0  0  0  # atno 6909 bound_to 6896
  144.7131  140.1443  143.6389 H   0  0  0  0  0  0  0  0  0  0  0  0  # atno 7974 bound_to 7965
  156.1579  140.1600  156.8662 H   0  0  0  0  0  0  0  0  0  0  0  0  # atno 8008 bound_to 7997
  154.5132  140.0796  156.8066 H   0  0  0  0  0  0  0  0  0  0  0  0  # atno 8009 bound_to 7997
  155.3767  140.3403  155.4247 H   0  0  0  0  0  0  0  0  0  0  0  0  # atno 8010 bound_to 7997
  139.8792  144.6449  150.8862 H   0  0  0  0  0  0  0  0  0  0  0  0  # atno 10167 bound_to 10162
  156.2230  130.6990  151.0777 H   0  0  0  0  0  0  0  0  0  0  0  0  # atno 10718 bound_to 10713
  153.1230  135.6723  153.9304 H   0  0  0  0  0  0  0  0  0  0  0  0  # atno 10763 bound_to 10752
  153.8814  135.3058  155.3446 H   0  0  0  0  0  0  0  0  0  0  0  0  # atno 10764 bound_to 10752
  154.7639  135.4974  153.9596 H   0  0  0  0  0  0  0  0  0  0  0  0  # atno 10765 bound_to 10752
  140.8412  134.2399  157.4809 H   0  0  0  0  0  0  0  0  0  0  0  0  # atno 11005 bound_to 11000
  145.9174  139.2524  143.1401 LP  0  0  0  0  0  0  0  0  0  0  0  0  # atno 17320 bound_to 7965
  145.9655  140.8802  143.0189 LP  0  0  0  0  0  0  0  0  0  0  0  0  # atno 17321 bound_to 7965
  140.7747  143.3600  151.1847 LP  0  0  0  0  0  0  0  0  0  0  0  0  # atno 17342 bound_to 10162
  139.7212  143.9221  152.2986 LP  0  0  0  0  0  0  0  0  0  0  0  0  # atno 17343 bound_to 10162
  157.7097  131.0740  150.6544 LP  0  0  0  0  0  0  0  0  0  0  0  0  # atno 17370 bound_to 10713
  156.6608  130.4512  149.5688 LP  0  0  0  0  0  0  0  0  0  0  0  0  # atno 17371 bound_to 10713
  139.8703  134.9636  156.4468 LP  0  0  0  0  0  0  0  0  0  0  0  0  # atno 17394 bound_to 11000
  140.8893  133.7860  155.9553 LP  0  0  0  0  0  0  0  0  0  0  0  0  # atno 17395 bound_to 11000

$$$$
