AV-unprocessed.smi:2978|AV-procd|sdf|11368|dock1
  -GOLD-   2272016283D 1   1.00000     0.00000
 Structure written by MMmdl.
 32 33  0  0  0  0  0  0  0  0  1 V2000
  149.9997  140.2986  154.5693 O   0  0  0  0  0  0  0  0  0  0  0  0
  149.4615  141.3560  154.9008 C   0  0  0  0  0  0  0  0  0  0  0  0
  148.2383  141.8872  154.1392 C   0  0  0  0  0  0  0  0  0  0  0  0
  147.1042  142.2164  155.0153 N   0  0  0  0  0  0  0  0  0  0  0  0
  147.2200  141.7157  156.3004 N   0  0  0  0  0  0  0  0  0  0  0  0
  146.2925  141.9578  157.1613 C   0  0  0  0  0  0  0  0  0  0  0  0
  145.1200  142.7378  156.8318 C   0  0  0  0  0  0  0  0  0  0  0  0
  143.9090  143.0306  158.0298 Cl  0  0  0  0  0  0  0  0  0  0  0  0
  145.0125  143.2175  155.5673 C   0  0  0  0  0  0  0  0  0  0  0  0
  143.6369  144.1560  155.0971 Cl  0  0  0  0  0  0  0  0  0  0  0  0
  146.0502  142.9610  154.5588 C   0  0  0  0  0  0  0  0  0  0  0  0
  145.9884  143.3760  153.4007 O   0  0  0  0  0  0  0  0  0  0  0  0
  149.9020  142.1211  155.9111 N   0  0  0  0  0  0  0  0  0  0  0  0
  151.0484  141.8227  156.7633 C   0  0  0  0  0  0  0  0  0  0  0  0
  151.1808  142.8313  157.9170 C   0  0  2  0  0  0  0  0  0  0  0  0
  151.7363  144.2008  157.5226 C   0  0  0  0  0  0  0  0  0  0  0  0
  152.3203  144.6812  158.8307 C   0  0  0  0  0  0  0  0  0  0  0  0
  152.9011  143.3915  159.4026 C   0  0  0  0  0  0  0  0  0  0  0  0
  152.0856  142.3353  158.9004 O   0  0  0  0  0  0  0  0  0  0  0  0
  148.5227  142.7637  153.5537 H   0  0  0  0  0  0  0  0  0  0  0  0
  147.9440  141.1316  153.4088 H   0  0  0  0  0  0  0  0  0  0  0  0
  146.3419  141.5864  158.1850 H   0  0  0  0  0  0  0  0  0  0  0  0
  149.4024  142.9763  156.1078 H   0  0  0  0  0  0  0  0  0  0  0  0
  150.9030  140.8227  157.1726 H   0  0  0  0  0  0  0  0  0  0  0  0
  151.9718  141.7808  156.1831 H   0  0  0  0  0  0  0  0  0  0  0  0
  150.2142  142.9649  158.4059 H   0  0  0  0  0  0  0  0  0  0  0  0
  152.5280  144.0968  156.7792 H   0  0  0  0  0  0  0  0  0  0  0  0
  150.9755  144.8710  157.1215 H   0  0  0  0  0  0  0  0  0  0  0  0
  153.0663  145.4666  158.7065 H   0  0  0  0  0  0  0  0  0  0  0  0
  151.5279  145.0586  159.4786 H   0  0  0  0  0  0  0  0  0  0  0  0
  153.9198  143.2410  159.0432 H   0  0  0  0  0  0  0  0  0  0  0  0
  152.9237  143.3938  160.4925 H   0  0  0  0  0  0  0  0  0  0  0  0
  1  2  2  0  0  0  0
  2  3  1  0  0  0  0
  2 13  1  0  0  0  0
  3  4  1  0  0  0  0
  3 20  1  0  0  0  0
  3 21  1  0  0  0  0
  4 11  1  0  0  0  0
  4  5  1  0  0  0  0
  5  6  2  0  0  0  0
  6  7  1  0  0  0  0
  6 22  1  0  0  0  0
  7  8  1  0  0  0  0
  7  9  2  0  0  0  0
  9 10  1  0  0  0  0
  9 11  1  0  0  0  0
 11 12  2  0  0  0  0
 13 14  1  0  0  0  0
 13 23  1  0  0  0  0
 14 15  1  0  0  0  0
 14 24  1  0  0  0  0
 14 25  1  0  0  0  0
 15 19  1  0  0  0  0
 15 16  1  0  0  0  0
 15 26  1  0  0  0  0
 16 17  1  0  0  0  0
 16 27  1  0  0  0  0
 16 28  1  0  0  0  0
 17 18  1  0  0  0  0
 17 29  1  0  0  0  0
 17 30  1  0  0  0  0
 18 19  1  0  0  0  0
 18 31  1  0  0  0  0
 18 32  1  0  0  0  0
M  END
> <s_m_source_file>
AV-unprocessed.smi

> <i_m_source_file_index>
2978

> <i_lp_mmshare_version>
43012

> <i_f3d_flags>
0

> <s_epik_input>
TzFbQ0gyXVtDSDJdW0NIMl1bQ0BIXTFbQ0gyXVtOSF1DKD1PKVtDSDJdbjJuW2NIXWMoQ2wpYyhDbCljMj1P

> <s_epik_cmdline>
J2VwaWtfcHl0aG9uJywgJy1waCcsICc3LjAnLCAnLXRuJywgJzgnLCAnLW1hJywgJzIwMCcsICctbWV0YWxfYmluZGluZycsICctaW1hZScsICc8aW5maWxlLm1hZT4nLCAnLW9tYWUnLCAnPG91dGZpbGUubWFlPic=

> <r_lp_tautomer_probability>
1

> <r_epik_Ionization_Penalty>
2.68881e-08

> <r_epik_Ionization_Penalty_Charging>
2.90862e-11

> <r_epik_Ionization_Penalty_Neutral>
2.6859e-08

> <r_epik_State_Penalty>
-0

> <r_epik_Charging_Adjusted_Penalty>
2.90862e-11

> <i_epik_Tot_Q>
0

> <i_epik_Tot_abs_Q>
0

> <r_epik_Metal_State_Penalty>
-0

> <b_epik_Metal_Only>
0

> <s_lp_Force_Field>
OPLS_2005

> <r_lp_Energy>
31.3125

> <b_lp_Chiralities_Consistent>
1

> <s_lp_Variant>
AV-unprocessed.smi:2978-1

> <Gold.Version>
5.8.1

> <Gold.Id.Protein>
6NUR|6NUR_protein|mol2

> <Gold.PLP.Fitness>
42.7469

> <Gold.PLP.PLP>
-37.5168

> <Gold.PLP.part.hbond>
-2.0000

> <Gold.PLP.part.metal>
0.0000

> <Gold.PLP.part.buried>
-4.1038

> <Gold.PLP.part.nonpolar>
-31.9829

> <Gold.PLP.part.repulsive>
0.5554

> <Gold.PLP.ligand.clash>
0.0000

> <Gold.PLP.ligand.torsion>
0.3542

> <Gold.PLP.Chemscore.Hbond>
1.9760

> <Gold.PLP.Chemscore.CHOScore>
0.0000

> <Gold.PLP.Chemscore.Metal>
0.0000

> <Gold.Chemscore.Hbonds>
donor molecule, donor type, donor heavy atom, donor atom, acceptor molecule, acceptor atom, score
      L1  H    13    23       P1  8028  1.00
      P1  H  7989  7998       L1     1  0.98

> <Gold.PLP.Chemscore.Internal.Correction>
0.0106

> <Gold.Rescore>
     Score         DG    S(hbond)    S(metal)    S(lipo)     H(rot)  DE(clash)    DE(int)     intcor
     14.76     -15.08       1.65        0.00      74.93       1.83       0.05       0.26       ----

> <Gold.Chemscore.Fitness>
14.7577

> <Gold.Chemscore.DG>
-15.0750

> <Gold.Chemscore.ZeroCoef>
-5.4800

> <Gold.Chemscore.Hbond>
1.6521

> <Gold.Chemscore.Metal>
0.0000

> <Gold.Chemscore.Lipo>
74.9323

> <Gold.Chemscore.Internal_Hbond>
0.0000

> <Gold.Chemscore.DEClash>
0.0541

> <Gold.Chemscore.DEInternal>
0.2632

> <Gold.Chemscore.Rot>
1.8320

> <Gold.Chemscore.Internal.Correction>
   9.000000E+99

> <Gold.Chemscore.Hbonds>
donor molecule, donor type, donor heavy atom, donor atom, acceptor molecule, acceptor atom, score
      L1  H    13    23       P1  8028  0.95
      P1  H  7989  7998       L1     1  0.39

> <Gold.Chemscore.Hbond.Weighted>
-5.5179

> <Gold.Chemscore.Metal.Weighted>
-0.0000

> <Gold.Chemscore.Lipo.Weighted>
-8.7671

> <Gold.Chemscore.Internal_Hbond.Weighted>
0.0000

> <Gold.Chemscore.DEClash.Weighted>
0.0541

> <Gold.Chemscore.DEInternal.Weighted>
0.2632

> <Gold.Chemscore.Rot.Weighted>
4.6900

> <Gold.Chemscore.Internal.Correction.Weighted>
   9.000000E+99

> <Gold.Protein.RotatedTorsions>
[ 6907 6896 6895 6894 ] final  152.84 input  -60.11 | X-H torsion
[ 7974 7965 7964 7962 ] final  166.60 input  175.53 | X-H torsion
[ 8008 7997 7996 7995 ] final  111.87 input   59.86 | X-H torsion
[ 10167 10162 10161 10158 ] final  -55.77 input  -65.29 | X-H torsion
[ 10718 10713 10712 10709 ] final   30.61 input   66.30 | X-H torsion
[ 10763 10752 10751 10750 ] final -136.32 input  -60.55 | X-H torsion
[ 11005 11000 10999 10996 ] final    6.31 input  -57.11 | X-H torsion

> <Gold.Protein.ActiveResidues>
 VAL166  LYS551  ARG553  GLY616  TRP617  ASP618  TYR619  PRO620  LYS621  CYS622 
 ASP623  PHE694  ASN695  SER759  ASP760  ASP761  ALA762  ILE779  LEU786  VAL792 
 PHE793  MET794  SER795  GLU796  ALA797  LYS798  CYS799  TRP800  GLU811  SER814 

> <Gold.Protein.RotatedAtoms>
  152.0811  133.4153  159.4501 H   0  0  0  0  0  0  0  0  0  0  0  0  # atno 6907 bound_to 6896
  150.6862  134.2981  159.4704 H   0  0  0  0  0  0  0  0  0  0  0  0  # atno 6908 bound_to 6896
  152.0822  134.9463  160.0624 H   0  0  0  0  0  0  0  0  0  0  0  0  # atno 6909 bound_to 6896
  144.7456  139.8639  143.6383 H   0  0  0  0  0  0  0  0  0  0  0  0  # atno 7974 bound_to 7965
  156.2153  140.3011  155.9826 H   0  0  0  0  0  0  0  0  0  0  0  0  # atno 8008 bound_to 7997
  155.2620  140.0430  157.3015 H   0  0  0  0  0  0  0  0  0  0  0  0  # atno 8009 bound_to 7997
  154.5759  140.2361  155.8132 H   0  0  0  0  0  0  0  0  0  0  0  0  # atno 8010 bound_to 7997
  140.6356  143.2480  151.5127 H   0  0  0  0  0  0  0  0  0  0  0  0  # atno 10167 bound_to 10162
  157.2618  130.7165  149.6458 H   0  0  0  0  0  0  0  0  0  0  0  0  # atno 10718 bound_to 10713
  154.8686  135.3676  154.5041 H   0  0  0  0  0  0  0  0  0  0  0  0  # atno 10763 bound_to 10752
  153.5680  135.7021  153.5522 H   0  0  0  0  0  0  0  0  0  0  0  0  # atno 10764 bound_to 10752
  153.3568  135.4057  155.1651 H   0  0  0  0  0  0  0  0  0  0  0  0  # atno 10765 bound_to 10752
  140.5609  134.0193  155.7971 H   0  0  0  0  0  0  0  0  0  0  0  0  # atno 11005 bound_to 11000
  146.1328  139.4367  143.0158 LP  0  0  0  0  0  0  0  0  0  0  0  0  # atno 17320 bound_to 7965
  145.7136  141.0098  143.1440 LP  0  0  0  0  0  0  0  0  0  0  0  0  # atno 17321 bound_to 7965
  139.5567  144.2259  152.1623 LP  0  0  0  0  0  0  0  0  0  0  0  0  # atno 17342 bound_to 10162
  140.1515  144.5110  150.6685 LP  0  0  0  0  0  0  0  0  0  0  0  0  # atno 17343 bound_to 10162
  155.9664  130.4395  150.5261 LP  0  0  0  0  0  0  0  0  0  0  0  0  # atno 17370 bound_to 10713
  157.3167  131.0674  151.1962 LP  0  0  0  0  0  0  0  0  0  0  0  0  # atno 17371 bound_to 10713
  141.1115  133.9609  157.2901 LP  0  0  0  0  0  0  0  0  0  0  0  0  # atno 17394 bound_to 11000
  139.9408  135.0191  156.8703 LP  0  0  0  0  0  0  0  0  0  0  0  0  # atno 17395 bound_to 11000

$$$$
