AV-unprocessed.smi:2802|AV-procd|sdf|10806|dock2
  -GOLD-   2272015243D 1   1.00000     0.00000
 Structure written by MMmdl.
 47 48  0  0  0  0  0  0  0  0  1 V2000
  147.3673  140.0605  153.4175 C   0  0  0  0  0  0  0  0  0  0  0  0
  148.0202  139.1967  154.5064 C   0  0  1  0  0  0  0  0  0  0  0  0
  147.2915  137.8484  154.6555 C   0  0  0  0  0  0  0  0  0  0  0  0
  147.9058  136.9331  155.7396 C   0  0  0  0  0  0  0  0  0  0  0  0
  147.5581  137.4511  157.1521 C   0  0  0  0  0  0  0  0  0  0  0  0
  147.2798  135.5294  155.6092 C   0  0  0  0  0  0  0  0  0  0  0  0
  149.4403  136.8021  155.5205 C   0  0  0  0  0  0  0  0  0  0  0  0
  150.2420  138.1222  155.2894 C   0  0  2  0  0  0  0  0  0  0  0  0
  151.6835  137.8487  154.7643 C   0  0  0  0  0  0  0  0  0  0  0  0
  151.8521  136.5605  154.2065 O   0  0  0  0  0  0  0  0  0  0  0  0
  150.3229  138.9756  156.4837 N   0  0  0  0  0  0  0  0  0  0  0  0
  150.8783  140.1936  156.6208 C   0  0  0  0  0  0  0  0  0  0  0  0
  151.4437  140.8033  155.7149 O   0  0  0  0  0  0  0  0  0  0  0  0
  150.7826  140.8228  158.0119 C   0  0  0  0  0  0  0  0  0  0  0  0
  151.5704  142.1197  158.0626 C   0  0  0  0  0  0  0  0  0  0  0  0
  152.6117  142.3009  158.9968 C   0  0  0  0  0  0  0  0  0  0  0  0
  153.3309  143.5111  158.9842 C   0  0  0  0  0  0  0  0  0  0  0  0
  152.9755  144.4926  158.0375 C   0  0  0  0  0  0  0  0  0  0  0  0
  151.9783  144.3320  157.1412 N   0  0  0  0  0  0  0  0  0  0  0  0
  151.2927  143.1688  157.1599 C   0  0  0  0  0  0  0  0  0  0  0  0
  149.5122  138.9573  154.2067 C   0  0  0  0  0  0  0  0  0  0  0  0
  147.4131  139.5735  152.4428 H   0  0  0  0  0  0  0  0  0  0  0  0
  147.8660  141.0262  153.3310 H   0  0  0  0  0  0  0  0  0  0  0  0
  146.3183  140.2519  153.6452 H   0  0  0  0  0  0  0  0  0  0  0  0
  147.9337  139.7530  155.4394 H   0  0  0  0  0  0  0  0  0  0  0  0
  146.2358  138.0197  154.8712 H   0  0  0  0  0  0  0  0  0  0  0  0
  147.3181  137.3344  153.6933 H   0  0  0  0  0  0  0  0  0  0  0  0
  148.0468  136.8570  157.9249 H   0  0  0  0  0  0  0  0  0  0  0  0
  146.4845  137.4054  157.3366 H   0  0  0  0  0  0  0  0  0  0  0  0
  147.8511  138.4864  157.3021 H   0  0  0  0  0  0  0  0  0  0  0  0
  147.6824  134.8448  156.3567 H   0  0  0  0  0  0  0  0  0  0  0  0
  147.4726  135.0916  154.6290 H   0  0  0  0  0  0  0  0  0  0  0  0
  146.1978  135.5606  155.7422 H   0  0  0  0  0  0  0  0  0  0  0  0
  149.8709  136.2237  156.3380 H   0  0  0  0  0  0  0  0  0  0  0  0
  149.5927  136.1841  154.6340 H   0  0  0  0  0  0  0  0  0  0  0  0
  151.9338  138.5468  153.9648 H   0  0  0  0  0  0  0  0  0  0  0  0
  152.4273  138.0071  155.5466 H   0  0  0  0  0  0  0  0  0  0  0  0
  151.2468  136.4612  153.4879 H   0  0  0  0  0  0  0  0  0  0  0  0
  149.9001  138.5872  157.3138 H   0  0  0  0  0  0  0  0  0  0  0  0
  149.7386  141.0194  158.2602 H   0  0  0  0  0  0  0  0  0  0  0  0
  151.1598  140.1227  158.7584 H   0  0  0  0  0  0  0  0  0  0  0  0
  152.8641  141.5233  159.7028 H   0  0  0  0  0  0  0  0  0  0  0  0
  154.1380  143.6825  159.6809 H   0  0  0  0  0  0  0  0  0  0  0  0
  153.5076  145.4316  157.9986 H   0  0  0  0  0  0  0  0  0  0  0  0
  150.5082  143.0674  156.4245 H   0  0  0  0  0  0  0  0  0  0  0  0
  149.5851  138.4496  153.2434 H   0  0  0  0  0  0  0  0  0  0  0  0
  150.0188  139.9150  154.0754 H   0  0  0  0  0  0  0  0  0  0  0  0
  1  2  1  0  0  0  0
  1 22  1  0  0  0  0
  1 23  1  0  0  0  0
  1 24  1  0  0  0  0
  2 21  1  0  0  0  0
  2  3  1  0  0  0  0
  2 25  1  0  0  0  0
  3  4  1  0  0  0  0
  3 26  1  0  0  0  0
  3 27  1  0  0  0  0
  4  5  1  0  0  0  0
  4  6  1  0  0  0  0
  4  7  1  0  0  0  0
  5 28  1  0  0  0  0
  5 29  1  0  0  0  0
  5 30  1  0  0  0  0
  6 31  1  0  0  0  0
  6 32  1  0  0  0  0
  6 33  1  0  0  0  0
  7  8  1  0  0  0  0
  7 34  1  0  0  0  0
  7 35  1  0  0  0  0
  8  9  1  0  0  0  0
  8 11  1  0  0  0  0
  8 21  1  0  0  0  0
  9 10  1  0  0  0  0
  9 36  1  0  0  0  0
  9 37  1  0  0  0  0
 10 38  1  0  0  0  0
 11 12  1  0  0  0  0
 11 39  1  0  0  0  0
 12 13  2  0  0  0  0
 12 14  1  0  0  0  0
 14 15  1  0  0  0  0
 14 40  1  0  0  0  0
 14 41  1  0  0  0  0
 15 20  1  0  0  0  0
 15 16  2  0  0  0  0
 16 17  1  0  0  0  0
 16 42  1  0  0  0  0
 17 18  2  0  0  0  0
 17 43  1  0  0  0  0
 18 19  1  0  0  0  0
 18 44  1  0  0  0  0
 19 20  2  0  0  0  0
 20 45  1  0  0  0  0
 21 46  1  0  0  0  0
 21 47  1  0  0  0  0
M  END
> <s_m_source_file>
AV-unprocessed.smi

> <i_m_source_file_index>
2802

> <i_lp_mmshare_version>
43012

> <i_f3d_flags>
0

> <s_epik_input>
W0NIM11DMShbQ0gzXSlbQ0gyXVtDQEBIXShbQ0gzXSlbQ0gyXVtDQF0oW0NIMl0xKShbQ0gyXVtPSF0pW05IXUMoPU8pW0NIMl1jMltjSF1bY0hdW2NIXW5bY0hdMg==

> <s_epik_cmdline>
J2VwaWtfcHl0aG9uJywgJy1waCcsICc3LjAnLCAnLXRuJywgJzgnLCAnLW1hJywgJzIwMCcsICctbWV0YWxfYmluZGluZycsICctaW1hZScsICc8aW5maWxlLm1hZT4nLCAnLW9tYWUnLCAnPG91dGZpbGUubWFlPic=

> <r_epik_Ionization_Penalty>
0.004793

> <r_epik_Ionization_Penalty_Charging>
0

> <r_epik_Ionization_Penalty_Neutral>
0.004793

> <r_epik_State_Penalty>
0.00347421

> <r_epik_Charging_Adjusted_Penalty>
0.00347421

> <i_epik_Tot_Q>
0

> <i_epik_Tot_abs_Q>
0

> <r_epik_Metal_State_Penalty>
-0

> <b_epik_Metal_Only>
0

> <s_lp_Force_Field>
OPLS_2005

> <r_lp_Energy>
17.3779

> <b_lp_Chiralities_Consistent>
1

> <s_lp_Variant>
AV-unprocessed.smi:2802-4

> <Gold.Version>
5.8.1

> <Gold.Id.Protein>
6NUR|6NUR_protein|mol2

> <Gold.PLP.Fitness>
43.9979

> <Gold.PLP.PLP>
-35.8099

> <Gold.PLP.part.hbond>
-2.8596

> <Gold.PLP.part.metal>
0.0000

> <Gold.PLP.part.buried>
-1.8277

> <Gold.PLP.part.nonpolar>
-30.9719

> <Gold.PLP.part.repulsive>
0.1813

> <Gold.PLP.ligand.clash>
0.0000

> <Gold.PLP.ligand.torsion>
0.8592

> <Gold.PLP.Chemscore.Hbond>
2.2915

> <Gold.PLP.Chemscore.CHOScore>
0.9865

> <Gold.PLP.Chemscore.Metal>
0.0000

> <Gold.Chemscore.Hbonds>
donor molecule, donor type, donor heavy atom, donor atom, acceptor molecule, acceptor atom, score
      L1  H    10    38       P1  7949  0.78
      P1  H  7989  7998       L1    13  0.38
      P1  H 10752 10764       L1    10  0.78
      L1  C    20    45       P1  8028  0.97

> <Gold.PLP.Chemscore.Internal.Correction>
0.0726

> <Gold.Rescore>
     Score         DG    S(hbond)    S(metal)    S(lipo)     H(rot)  DE(clash)    DE(int)     intcor
     16.14     -19.02       1.91        0.00     104.85       2.00       0.16       2.71       ----

> <Gold.Chemscore.Fitness>
16.1449

> <Gold.Chemscore.DG>
-19.0173

> <Gold.Chemscore.ZeroCoef>
-5.4800

> <Gold.Chemscore.Hbond>
1.9150

> <Gold.Chemscore.Metal>
0.0000

> <Gold.Chemscore.Lipo>
104.8535

> <Gold.Chemscore.Internal_Hbond>
0.0000

> <Gold.Chemscore.DEClash>
0.1641

> <Gold.Chemscore.DEInternal>
2.7084

> <Gold.Chemscore.Rot>
2.0026

> <Gold.Chemscore.Internal.Correction>
   9.000000E+99

> <Gold.Chemscore.Hbonds>
donor molecule, donor type, donor heavy atom, donor atom, acceptor molecule, acceptor atom, score
      L1  H    10    38       P1  7949  0.41
      P1  H  7989  7998       L1    13  0.37
      P1  H 10752 10764       L1    10  0.62

> <Gold.Chemscore.Hbond.Weighted>
-6.3961

> <Gold.Chemscore.Metal.Weighted>
-0.0000

> <Gold.Chemscore.Lipo.Weighted>
-12.2679

> <Gold.Chemscore.Internal_Hbond.Weighted>
0.0000

> <Gold.Chemscore.DEClash.Weighted>
0.1641

> <Gold.Chemscore.DEInternal.Weighted>
2.7084

> <Gold.Chemscore.Rot.Weighted>
5.1267

> <Gold.Chemscore.Internal.Correction.Weighted>
   9.000000E+99

> <Gold.Protein.RotatedTorsions>
[ 6907 6896 6895 6894 ] final   14.91 input  -60.11 | X-H torsion
[ 7974 7965 7964 7962 ] final   41.73 input  175.53 | X-H torsion
[ 8008 7997 7996 7995 ] final   28.44 input   59.86 | X-H torsion
[ 10167 10162 10161 10158 ] final   49.74 input  -65.29 | X-H torsion
[ 10718 10713 10712 10709 ] final -137.94 input   66.30 | X-H torsion
[ 10763 10752 10751 10750 ] final  -91.58 input  -60.55 | X-H torsion
[ 11005 11000 10999 10996 ] final   -6.67 input  -57.11 | X-H torsion

> <Gold.Protein.ActiveResidues>
 VAL166  LYS551  ARG553  GLY616  TRP617  ASP618  TYR619  PRO620  LYS621  CYS622 
 ASP623  PHE694  ASN695  SER759  ASP760  ASP761  ALA762  ILE779  LEU786  VAL792 
 PHE793  MET794  SER795  GLU796  ALA797  LYS798  CYS799  TRP800  GLU811  SER814 

> <Gold.Protein.RotatedAtoms>
  151.8098  135.0684  160.0411 H   0  0  0  0  0  0  0  0  0  0  0  0  # atno 6907 bound_to 6896
  152.3029  133.5669  159.5638 H   0  0  0  0  0  0  0  0  0  0  0  0  # atno 6908 bound_to 6896
  150.7282  134.0181  159.3734 H   0  0  0  0  0  0  0  0  0  0  0  0  # atno 6909 bound_to 6896
  146.0799  139.5382  142.9543 H   0  0  0  0  0  0  0  0  0  0  0  0  # atno 7974 bound_to 7965
  155.0587  140.3187  155.4668 H   0  0  0  0  0  0  0  0  0  0  0  0  # atno 8008 bound_to 7997
  156.2818  140.2133  156.5657 H   0  0  0  0  0  0  0  0  0  0  0  0  # atno 8009 bound_to 7997
  154.7150  140.0494  157.0574 H   0  0  0  0  0  0  0  0  0  0  0  0  # atno 8010 bound_to 7997
  140.2798  144.3170  150.6267 H   0  0  0  0  0  0  0  0  0  0  0  0  # atno 10167 bound_to 10162
  156.2937  130.7390  151.1423 H   0  0  0  0  0  0  0  0  0  0  0  0  # atno 10718 bound_to 10713
  154.6775  135.5262  153.8219 H   0  0  0  0  0  0  0  0  0  0  0  0  # atno 10763 bound_to 10752
  153.0542  135.6544  154.0628 H   0  0  0  0  0  0  0  0  0  0  0  0  # atno 10764 bound_to 10752
  154.0519  135.2968  155.3319 H   0  0  0  0  0  0  0  0  0  0  0  0  # atno 10765 bound_to 10752
  140.7044  133.8962  155.8706 H   0  0  0  0  0  0  0  0  0  0  0  0  # atno 11005 bound_to 11000
  145.6237  141.0317  143.1901 LP  0  0  0  0  0  0  0  0  0  0  0  0  # atno 17320 bound_to 7965
  144.7286  139.7796  143.7355 LP  0  0  0  0  0  0  0  0  0  0  0  0  # atno 17321 bound_to 7965
  140.5821  143.2172  151.7409 LP  0  0  0  0  0  0  0  0  0  0  0  0  # atno 17342 bound_to 10162
  139.4966  144.4064  152.0127 LP  0  0  0  0  0  0  0  0  0  0  0  0  # atno 17343 bound_to 10162
  157.7349  131.0577  150.5496 LP  0  0  0  0  0  0  0  0  0  0  0  0  # atno 17370 bound_to 10713
  156.5616  130.4257  149.6060 LP  0  0  0  0  0  0  0  0  0  0  0  0  # atno 17371 bound_to 10713
  141.0136  134.0986  157.4195 LP  0  0  0  0  0  0  0  0  0  0  0  0  # atno 17394 bound_to 11000
  139.8888  135.0100  156.6641 LP  0  0  0  0  0  0  0  0  0  0  0  0  # atno 17395 bound_to 11000

$$$$
