AV-unprocessed.smi:2066|AV-procd|sdf|8420|dock2
  -GOLD-   2272011113D 1   1.00000     0.00000
 Structure written by MMmdl.
 40 41  0  0  0  0  0  0  0  0  2 V2000
  146.8160  142.5062  153.9008 C   0  0  0  0  0  0  0  0  0  0  0  0
  147.4143  141.0974  154.1368 C   0  0  0  0  0  0  0  0  0  0  0  0
  147.0123  140.2047  152.9326 C   0  0  0  0  0  0  0  0  0  0  0  0
  148.9730  141.1541  154.1819 C   0  0  0  0  0  0  0  0  0  0  0  0
  149.5134  142.1456  155.1127 N   0  0  0  0  0  0  0  0  0  0  0  0
  150.3870  141.8952  156.0990 C   0  0  0  0  0  0  0  0  0  0  0  0
  150.8301  140.7726  156.3436 O   0  0  0  0  0  0  0  0  0  0  0  0
  150.6987  143.0179  156.7694 N   0  0  0  0  0  0  0  0  0  0  0  0
  151.5691  143.1621  157.8813 C   0  0  0  0  0  0  0  0  0  0  0  0
  152.1837  142.1444  158.4955 N   0  0  0  0  0  0  0  0  0  0  0  0
  152.9794  142.5775  159.5591 C   0  0  0  0  0  0  0  0  0  0  0  0
  152.9581  143.9376  159.7424 C   0  0  0  0  0  0  0  0  0  0  0  0
  151.9302  144.7335  158.5805 S   0  0  0  0  0  0  0  0  0  0  0  0
  146.9214  140.5105  155.4385 N   0  3  0  0  0  0  0  0  0  0  0  0
  147.4530  139.1562  155.7689 C   0  0  0  0  0  0  0  0  0  0  0  0
  146.7396  138.5761  156.9994 C   0  0  0  0  0  0  0  0  0  0  0  0
  146.9272  139.4490  158.1033 O   0  0  0  0  0  0  0  0  0  0  0  0
  146.3560  140.7261  157.8608 C   0  0  0  0  0  0  0  0  0  0  0  0
  147.0252  141.3861  156.6417 C   0  0  0  0  0  0  0  0  0  0  0  0
  147.0555  142.8803  152.9052 H   0  0  0  0  0  0  0  0  0  0  0  0
  147.2003  143.2388  154.6108 H   0  0  0  0  0  0  0  0  0  0  0  0
  145.7290  142.5028  153.9808 H   0  0  0  0  0  0  0  0  0  0  0  0
  147.4408  140.5621  151.9962 H   0  0  0  0  0  0  0  0  0  0  0  0
  145.9347  140.1935  152.7689 H   0  0  0  0  0  0  0  0  0  0  0  0
  147.3470  139.1757  153.0686 H   0  0  0  0  0  0  0  0  0  0  0  0
  149.4078  140.1849  154.4216 H   0  0  0  0  0  0  0  0  0  0  0  0
  149.3547  141.4044  153.1915 H   0  0  0  0  0  0  0  0  0  0  0  0
  149.2045  143.0987  154.9878 H   0  0  0  0  0  0  0  0  0  0  0  0
  150.2620  143.8696  156.4491 H   0  0  0  0  0  0  0  0  0  0  0  0
  153.5290  141.8473  160.1342 H   0  0  0  0  0  0  0  0  0  0  0  0
  153.4823  144.5170  160.4878 H   0  0  0  0  0  0  0  0  0  0  0  0
  147.3288  138.4595  154.9432 H   0  0  0  0  0  0  0  0  0  0  0  0
  148.5220  139.2124  155.9785 H   0  0  0  0  0  0  0  0  0  0  0  0
  145.6758  138.4290  156.8048 H   0  0  0  0  0  0  0  0  0  0  0  0
  147.1566  137.6001  157.2487 H   0  0  0  0  0  0  0  0  0  0  0  0
  145.2798  140.6314  157.7076 H   0  0  0  0  0  0  0  0  0  0  0  0
  146.4952  141.3468  158.7462 H   0  0  0  0  0  0  0  0  0  0  0  0
  148.0725  141.5981  156.8601 H   0  0  0  0  0  0  0  0  0  0  0  0
  146.5243  142.3406  156.4896 H   0  0  0  0  0  0  0  0  0  0  0  0
  145.9289  140.3851  155.3000 H   0  0  0  0  0  0  0  0  0  0  0  0
  1  2  1  0  0  0  0
  1 20  1  0  0  0  0
  1 21  1  0  0  0  0
  1 22  1  0  0  0  0
  2  3  1  0  0  0  0
  2  4  1  0  0  0  0
  2 14  1  0  0  0  0
  3 23  1  0  0  0  0
  3 24  1  0  0  0  0
  3 25  1  0  0  0  0
  4  5  1  0  0  0  0
  4 26  1  0  0  0  0
  4 27  1  0  0  0  0
  5  6  1  0  0  0  0
  5 28  1  0  0  0  0
  6  7  2  0  0  0  0
  6  8  1  0  0  0  0
  8  9  1  0  0  0  0
  8 29  1  0  0  0  0
  9 13  1  0  0  0  0
  9 10  2  0  0  0  0
 10 11  1  0  0  0  0
 11 12  2  0  0  0  0
 11 30  1  0  0  0  0
 12 13  1  0  0  0  0
 12 31  1  0  0  0  0
 14 19  1  0  0  0  0
 14 15  1  0  0  0  0
 14 40  1  0  0  0  0
 15 16  1  0  0  0  0
 15 32  1  0  0  0  0
 15 33  1  0  0  0  0
 16 17  1  0  0  0  0
 16 34  1  0  0  0  0
 16 35  1  0  0  0  0
 17 18  1  0  0  0  0
 18 19  1  0  0  0  0
 18 36  1  0  0  0  0
 18 37  1  0  0  0  0
 19 38  1  0  0  0  0
 19 39  1  0  0  0  0
M  CHG  1  14   1
M  END
> <s_m_source_file>
AV-unprocessed.smi

> <i_m_source_file_index>
2066

> <i_lp_mmshare_version>
43012

> <i_f3d_flags>
0

> <s_epik_input>
W0NIMl0xW0NIMl1PW0NIMl1bQ0gyXU4xQyhbQ0gzXSkoW0NIM10pW0NIMl1bTkhdQyg9TylbTkhdYzJuW2NIXVtjSF1zMg==

> <s_epik_cmdline>
J2VwaWtfcHl0aG9uJywgJy1waCcsICc3LjAnLCAnLXRuJywgJzgnLCAnLW1hJywgJzIwMCcsICctbWV0YWxfYmluZGluZycsICctaW1hZScsICc8aW5maWxlLm1hZT4nLCAnLW9tYWUnLCAnPG91dGZpbGUubWFlPic=

> <r_lp_tautomer_probability>
0.999

> <r_epik_Ionization_Penalty>
0.695839

> <r_epik_Ionization_Penalty_Charging>
0.695697

> <r_epik_Ionization_Penalty_Neutral>
0.000141498

> <r_epik_State_Penalty>
0.717972

> <r_epik_Charging_Adjusted_Penalty>
1.41367

> <i_epik_Tot_Q>
1

> <i_epik_Tot_abs_Q>
1

> <r_epik_Metal_State_Penalty>
0.756569

> <b_epik_Metal_Only>
0

> <s_lp_Force_Field>
OPLS_2005

> <r_lp_Energy>
24.1099

> <b_lp_Chiralities_Consistent>
1

> <s_lp_Variant>
AV-unprocessed.smi:2066-2

> <Gold.Version>
5.8.1

> <Gold.Id.Protein>
6NUR|6NUR_protein|mol2

> <Gold.PLP.Fitness>
39.7121

> <Gold.PLP.PLP>
-33.9851

> <Gold.PLP.part.hbond>
-2.7984

> <Gold.PLP.part.metal>
0.0000

> <Gold.PLP.part.buried>
-4.4650

> <Gold.PLP.part.nonpolar>
-27.2032

> <Gold.PLP.part.repulsive>
0.2680

> <Gold.PLP.ligand.clash>
0.0000

> <Gold.PLP.ligand.torsion>
0.1811

> <Gold.PLP.Chemscore.Hbond>
2.0000

> <Gold.PLP.Chemscore.CHOScore>
0.0000

> <Gold.PLP.Chemscore.Metal>
0.0000

> <Gold.Chemscore.Hbonds>
donor molecule, donor type, donor heavy atom, donor atom, acceptor molecule, acceptor atom, score
      L1  H     5    28       P1  8028  1.00
      L1  H     8    29       P1  8028  1.00

> <Gold.PLP.Chemscore.Internal.Correction>
0.0893

> <Gold.Rescore>
     Score         DG    S(hbond)    S(metal)    S(lipo)     H(rot)  DE(clash)    DE(int)     intcor
     14.39     -16.09       1.96        0.00      70.21       1.62       0.08       1.62       ----

> <Gold.Chemscore.Fitness>
14.3930

> <Gold.Chemscore.DG>
-16.0929

> <Gold.Chemscore.ZeroCoef>
-5.4800

> <Gold.Chemscore.Hbond>
1.9625

> <Gold.Chemscore.Metal>
0.0000

> <Gold.Chemscore.Lipo>
70.2146

> <Gold.Chemscore.Internal_Hbond>
0.0000

> <Gold.Chemscore.DEClash>
0.0768

> <Gold.Chemscore.DEInternal>
1.6230

> <Gold.Chemscore.Rot>
1.6238

> <Gold.Chemscore.Internal.Correction>
   9.000000E+99

> <Gold.Chemscore.Hbonds>
donor molecule, donor type, donor heavy atom, donor atom, acceptor molecule, acceptor atom, score
      L1  H     5    28       P1  8028  0.95
      L1  H     8    29       P1  8028  0.96

> <Gold.Chemscore.Hbond.Weighted>
-6.5548

> <Gold.Chemscore.Metal.Weighted>
-0.0000

> <Gold.Chemscore.Lipo.Weighted>
-8.2151

> <Gold.Chemscore.Internal_Hbond.Weighted>
0.0000

> <Gold.Chemscore.DEClash.Weighted>
0.0768

> <Gold.Chemscore.DEInternal.Weighted>
1.6230

> <Gold.Chemscore.Rot.Weighted>
4.1570

> <Gold.Chemscore.Internal.Correction.Weighted>
   9.000000E+99

> <Gold.Protein.RotatedTorsions>
[ 6907 6896 6895 6894 ] final  -14.00 input  -60.11 | X-H torsion
[ 7974 7965 7964 7962 ] final  134.82 input  175.53 | X-H torsion
[ 8008 7997 7996 7995 ] final    4.42 input   59.86 | X-H torsion
[ 10167 10162 10161 10158 ] final  -28.20 input  -65.29 | X-H torsion
[ 10718 10713 10712 10709 ] final   94.96 input   66.30 | X-H torsion
[ 10763 10752 10751 10750 ] final -144.95 input  -60.55 | X-H torsion
[ 11005 11000 10999 10996 ] final   99.38 input  -57.11 | X-H torsion

> <Gold.Protein.ActiveResidues>
 VAL166  LYS551  ARG553  GLY616  TRP617  ASP618  TYR619  PRO620  LYS621  CYS622 
 ASP623  PHE694  ASN695  SER759  ASP760  ASP761  ALA762  ILE779  LEU786  VAL792 
 PHE793  MET794  SER795  GLU796  ALA797  LYS798  CYS799  TRP800  GLU811  SER814 

> <Gold.Protein.RotatedAtoms>
  151.3462  135.0874  159.9387 H   0  0  0  0  0  0  0  0  0  0  0  0  # atno 6907 bound_to 6896
  152.5199  133.9398  159.7631 H   0  0  0  0  0  0  0  0  0  0  0  0  # atno 6908 bound_to 6896
  150.9765  133.6236  159.2759 H   0  0  0  0  0  0  0  0  0  0  0  0  # atno 6909 bound_to 6896
  144.9725  139.4590  143.5426 H   0  0  0  0  0  0  0  0  0  0  0  0  # atno 7974 bound_to 7965
  154.7157  140.2701  155.6587 H   0  0  0  0  0  0  0  0  0  0  0  0  # atno 8008 bound_to 7997
  156.2809  140.2744  156.1738 H   0  0  0  0  0  0  0  0  0  0  0  0  # atno 8009 bound_to 7997
  155.0574  140.0371  157.2555 H   0  0  0  0  0  0  0  0  0  0  0  0  # atno 8010 bound_to 7997
  140.7272  143.4030  151.1233 H   0  0  0  0  0  0  0  0  0  0  0  0  # atno 10167 bound_to 10162
  157.6943  131.0529  150.4265 H   0  0  0  0  0  0  0  0  0  0  0  0  # atno 10718 bound_to 10713
  154.8405  135.3426  154.6427 H   0  0  0  0  0  0  0  0  0  0  0  0  # atno 10763 bound_to 10752
  153.7038  135.6968  153.5060 H   0  0  0  0  0  0  0  0  0  0  0  0  # atno 10764 bound_to 10752
  153.2503  135.4356  155.0744 H   0  0  0  0  0  0  0  0  0  0  0  0  # atno 10765 bound_to 10752
  139.8771  134.9093  156.4598 H   0  0  0  0  0  0  0  0  0  0  0  0  # atno 11005 bound_to 11000
  146.3386  139.8947  142.8803 LP  0  0  0  0  0  0  0  0  0  0  0  0  # atno 17320 bound_to 7965
  145.2537  141.0053  143.3866 LP  0  0  0  0  0  0  0  0  0  0  0  0  # atno 17321 bound_to 7965
  139.7652  143.8575  152.3109 LP  0  0  0  0  0  0  0  0  0  0  0  0  # atno 17342 bound_to 10162
  139.8475  144.7180  150.9255 LP  0  0  0  0  0  0  0  0  0  0  0  0  # atno 17343 bound_to 10162
  156.4636  130.4037  149.6561 LP  0  0  0  0  0  0  0  0  0  0  0  0  # atno 17370 bound_to 10713
  156.3667  130.7509  151.2488 LP  0  0  0  0  0  0  0  0  0  0  0  0  # atno 17371 bound_to 10713
  140.8872  133.7874  155.9532 LP  0  0  0  0  0  0  0  0  0  0  0  0  # atno 17394 bound_to 11000
  140.8791  134.2633  157.5153 LP  0  0  0  0  0  0  0  0  0  0  0  0  # atno 17395 bound_to 11000

$$$$
