AV-unprocessed.smi:1047|AV-procd|sdf|4563|dock3
  -GOLD-   22720 3 03D 1   1.00000     0.00000
 Structure written by MMmdl.
 57 59  0  0  0  0  0  0  0  0  3 V2000
  144.5053  135.4815  149.6542 C   0  0  0  0  0  0  0  0  0  0  0  0
  146.0303  135.3965  149.8108 C   0  0  0  0  0  0  0  0  0  0  0  0
  146.5374  136.2460  150.9175 N   0  3  2  0  0  0  0  0  0  0  0  0
  146.1290  135.7393  152.2496 C   0  0  0  0  0  0  0  0  0  0  0  0
  146.7252  136.6125  153.3665 C   0  0  0  0  0  0  0  0  0  0  0  0
  146.3213  137.9649  153.1869 O   0  0  0  0  0  0  0  0  0  0  0  0
  146.7685  138.4999  151.9457 C   0  0  2  0  0  0  0  0  0  0  0  0
  146.4134  139.9957  151.8872 C   0  0  0  0  0  0  0  0  0  0  0  0
  147.2187  140.8014  152.8294 N   0  3  0  0  0  0  0  0  0  0  0  0
  147.0612  140.4052  154.2430 C   0  0  0  0  0  0  0  0  0  0  0  0
  147.8877  141.3108  155.1768 C   0  0  2  0  0  0  0  0  0  0  0  0
  147.2472  142.5668  155.2803 O   0  0  0  0  0  0  0  0  0  0  0  0
  149.3300  141.5604  154.6902 C   0  0  0  0  0  0  0  0  0  0  0  0
  150.3277  140.9592  155.5564 N   0  0  0  0  0  0  0  0  0  0  0  0
  150.8723  139.7334  155.4339 C   0  0  0  0  0  0  0  0  0  0  0  0
  151.7833  139.3796  156.3356 N   0  0  0  0  0  0  0  0  0  0  0  0
  151.8315  140.5042  157.1412 C   0  0  0  0  0  0  0  0  0  0  0  0
  152.6107  140.7800  158.2859 C   0  0  0  0  0  0  0  0  0  0  0  0
  152.5001  142.0188  158.9567 C   0  0  0  0  0  0  0  0  0  0  0  0
  153.3604  142.2744  160.1818 C   0  0  0  0  0  0  0  0  0  0  0  0
  151.5959  143.0042  158.4852 C   0  0  0  0  0  0  0  0  0  0  0  0
  151.4610  144.3424  159.1897 C   0  0  0  0  0  0  0  0  0  0  0  0
  150.8076  142.7440  157.3447 C   0  0  0  0  0  0  0  0  0  0  0  0
  150.9296  141.5090  156.6836 C   0  0  0  0  0  0  0  0  0  0  0  0
  146.1791  137.6798  150.7787 C   0  0  0  0  0  0  0  0  0  0  0  0
  144.1789  134.9178  148.7796 H   0  0  0  0  0  0  0  0  0  0  0  0
  144.1795  136.5134  149.5203 H   0  0  0  0  0  0  0  0  0  0  0  0
  143.9805  135.0701  150.5159 H   0  0  0  0  0  0  0  0  0  0  0  0
  146.3451  134.3620  149.9561 H   0  0  0  0  0  0  0  0  0  0  0  0
  146.4801  135.7273  148.8736 H   0  0  0  0  0  0  0  0  0  0  0  0
  145.0402  135.7314  152.3211 H   0  0  0  0  0  0  0  0  0  0  0  0
  146.4656  134.7092  152.3741 H   0  0  0  0  0  0  0  0  0  0  0  0
  146.3760  136.2665  154.3397 H   0  0  0  0  0  0  0  0  0  0  0  0
  147.8142  136.5429  153.3770 H   0  0  0  0  0  0  0  0  0  0  0  0
  147.8570  138.4221  151.9102 H   0  0  0  0  0  0  0  0  0  0  0  0
  146.5731  140.3709  150.8756 H   0  0  0  0  0  0  0  0  0  0  0  0
  145.3547  140.1316  152.1114 H   0  0  0  0  0  0  0  0  0  0  0  0
  148.1950  140.7122  152.5860 H   0  0  0  0  0  0  0  0  0  0  0  0
  146.0015  140.4760  154.4886 H   0  0  0  0  0  0  0  0  0  0  0  0
  147.3508  139.3609  154.3700 H   0  0  0  0  0  0  0  0  0  0  0  0
  147.9221  140.8659  156.1723 H   0  0  0  0  0  0  0  0  0  0  0  0
  147.8395  143.1765  155.6941 H   0  0  0  0  0  0  0  0  0  0  0  0
  149.4672  141.1679  153.6817 H   0  0  0  0  0  0  0  0  0  0  0  0
  149.5295  142.6317  154.6345 H   0  0  0  0  0  0  0  0  0  0  0  0
  150.5875  139.0652  154.6342 H   0  0  0  0  0  0  0  0  0  0  0  0
  153.2993  140.0292  158.6452 H   0  0  0  0  0  0  0  0  0  0  0  0
  152.7354  142.4657  161.0543 H   0  0  0  0  0  0  0  0  0  0  0  0
  154.0069  143.1376  160.0219 H   0  0  0  0  0  0  0  0  0  0  0  0
  153.9968  141.4183  160.4080 H   0  0  0  0  0  0  0  0  0  0  0  0
  150.7366  144.9853  158.6890 H   0  0  0  0  0  0  0  0  0  0  0  0
  152.4173  144.8655  159.2041 H   0  0  0  0  0  0  0  0  0  0  0  0
  151.1282  144.2003  160.2180 H   0  0  0  0  0  0  0  0  0  0  0  0
  150.1152  143.4863  156.9762 H   0  0  0  0  0  0  0  0  0  0  0  0
  146.5571  138.0738  149.8357 H   0  0  0  0  0  0  0  0  0  0  0  0
  145.0926  137.7764  150.7528 H   0  0  0  0  0  0  0  0  0  0  0  0
  146.9511  141.7713  152.7367 H   0  0  0  0  0  0  0  0  0  0  0  0
  147.5455  136.1849  150.8880 H   0  0  0  0  0  0  0  0  0  0  0  0
  1  2  1  0  0  0  0
  1 26  1  0  0  0  0
  1 27  1  0  0  0  0
  1 28  1  0  0  0  0
  2  3  1  0  0  0  0
  2 29  1  0  0  0  0
  2 30  1  0  0  0  0
  3 25  1  0  0  0  0
  3  4  1  0  0  0  0
  3 57  1  0  0  0  0
  4  5  1  0  0  0  0
  4 31  1  0  0  0  0
  4 32  1  0  0  0  0
  5  6  1  0  0  0  0
  5 33  1  0  0  0  0
  5 34  1  0  0  0  0
  6  7  1  0  0  0  0
  7  8  1  0  0  0  0
  7 25  1  0  0  0  0
  7 35  1  0  0  0  0
  8  9  1  0  0  0  0
  8 36  1  0  0  0  0
  8 37  1  0  0  0  0
  9 10  1  0  0  0  0
  9 38  1  0  0  0  0
  9 56  1  0  0  0  0
 10 11  1  0  0  0  0
 10 39  1  0  0  0  0
 10 40  1  0  0  0  0
 11 12  1  0  0  0  0
 11 13  1  0  0  0  0
 11 41  1  0  0  0  0
 12 42  1  0  0  0  0
 13 14  1  0  0  0  0
 13 43  1  0  0  0  0
 13 44  1  0  0  0  0
 14 24  1  0  0  0  0
 14 15  1  0  0  0  0
 15 16  2  0  0  0  0
 15 45  1  0  0  0  0
 16 17  1  0  0  0  0
 17 24  2  0  0  0  0
 17 18  1  0  0  0  0
 18 19  2  0  0  0  0
 18 46  1  0  0  0  0
 19 20  1  0  0  0  0
 19 21  1  0  0  0  0
 20 47  1  0  0  0  0
 20 48  1  0  0  0  0
 20 49  1  0  0  0  0
 21 22  1  0  0  0  0
 21 23  2  0  0  0  0
 22 50  1  0  0  0  0
 22 51  1  0  0  0  0
 22 52  1  0  0  0  0
 23 24  1  0  0  0  0
 23 53  1  0  0  0  0
 25 54  1  0  0  0  0
 25 55  1  0  0  0  0
M  CHG  1   3   1
M  CHG  1   9   1
M  END
> <s_m_source_file>
AV-unprocessed.smi

> <i_m_source_file_index>
1047

> <i_lp_mmshare_version>
43012

> <i_f3d_flags>
0

> <s_epik_input>
W0NIM11bQ0gyXU4xW0NIMl1bQ0gyXU9bQ0BIXShbQ0gyXTEpW0NIMl1bTkhdW0NIMl1bQ0BIXShbT0hdKVtDSDJdbihbY0hdbjIpYyhjMjMpW2NIXWMoW0NIM10pYyhbY0hdMylbQ0gzXQ==

> <s_epik_cmdline>
J2VwaWtfcHl0aG9uJywgJy1waCcsICc3LjAnLCAnLXRuJywgJzgnLCAnLW1hJywgJzIwMCcsICctbWV0YWxfYmluZGluZycsICctaW1hZScsICc8aW5maWxlLm1hZT4nLCAnLW9tYWUnLCAnPG91dGZpbGUubWFlPic=

> <r_epik_Ionization_Penalty>
0.528991

> <r_epik_Ionization_Penalty_Charging>
0.438567

> <r_epik_Ionization_Penalty_Neutral>
0.0904237

> <r_epik_State_Penalty>
0.533036

> <r_epik_Charging_Adjusted_Penalty>
0.971603

> <i_epik_Tot_Q>
2

> <i_epik_Tot_abs_Q>
2

> <r_epik_Metal_State_Penalty>
0.448985

> <b_epik_Metal_Only>
0

> <s_lp_Force_Field>
OPLS_2005

> <r_lp_Energy>
33.7981

> <b_lp_Chiralities_Consistent>
1

> <s_lp_Variant>
AV-unprocessed.smi:1047-4

> <Gold.Version>
5.8.1

> <Gold.Id.Protein>
6NUR|6NUR_protein|mol2

> <Gold.PLP.Fitness>
55.7632

> <Gold.PLP.PLP>
-46.7603

> <Gold.PLP.part.hbond>
-2.8076

> <Gold.PLP.part.metal>
0.0000

> <Gold.PLP.part.buried>
3.8488

> <Gold.PLP.part.nonpolar>
-48.2519

> <Gold.PLP.part.repulsive>
0.2986

> <Gold.PLP.ligand.clash>
0.0000

> <Gold.PLP.ligand.torsion>
1.2831

> <Gold.PLP.Chemscore.Hbond>
3.7680

> <Gold.PLP.Chemscore.CHOScore>
0.0000

> <Gold.PLP.Chemscore.Metal>
0.0000

> <Gold.Chemscore.Hbonds>
donor molecule, donor type, donor heavy atom, donor atom, acceptor molecule, acceptor atom, score
      L1  H     3    57       P1  7948  1.82
      L1  H     9    38       P1  7957  0.74
      L1  H    12    42       P1  8028  1.00

> <Gold.PLP.Chemscore.Internal.Correction>
0.2651

> <Gold.Rescore>
     Score         DG    S(hbond)    S(metal)    S(lipo)     H(rot)  DE(clash)    DE(int)     intcor
     18.18     -22.50       2.48        0.00     133.69       2.70       1.55       2.77       ----

> <Gold.Chemscore.Fitness>
18.1804

> <Gold.Chemscore.DG>
-22.4980

> <Gold.Chemscore.ZeroCoef>
-5.4800

> <Gold.Chemscore.Hbond>
2.4804

> <Gold.Chemscore.Metal>
0.0000

> <Gold.Chemscore.Lipo>
133.6891

> <Gold.Chemscore.Internal_Hbond>
0.0000

> <Gold.Chemscore.DEClash>
1.5517

> <Gold.Chemscore.DEInternal>
2.7659

> <Gold.Chemscore.Rot>
2.6985

> <Gold.Chemscore.Internal.Correction>
   9.000000E+99

> <Gold.Chemscore.Hbonds>
donor molecule, donor type, donor heavy atom, donor atom, acceptor molecule, acceptor atom, score
      L1  H     3    57       P1  7948  0.73
      L1  H     9    38       P1  7957  0.72
      L1  H    12    42       P1  8028  0.42

> <Gold.Chemscore.Hbond.Weighted>
-8.2845

> <Gold.Chemscore.Metal.Weighted>
-0.0000

> <Gold.Chemscore.Lipo.Weighted>
-15.6416

> <Gold.Chemscore.Internal_Hbond.Weighted>
0.0000

> <Gold.Chemscore.DEClash.Weighted>
1.5517

> <Gold.Chemscore.DEInternal.Weighted>
2.7659

> <Gold.Chemscore.Rot.Weighted>
6.9081

> <Gold.Chemscore.Internal.Correction.Weighted>
   9.000000E+99

> <Gold.Protein.RotatedTorsions>
[ 6907 6896 6895 6894 ] final   80.26 input  -60.11 | X-H torsion
[ 7974 7965 7964 7962 ] final  -87.62 input  175.53 | X-H torsion
[ 8008 7997 7996 7995 ] final  143.28 input   59.86 | X-H torsion
[ 10167 10162 10161 10158 ] final    5.43 input  -65.29 | X-H torsion
[ 10718 10713 10712 10709 ] final  157.70 input   66.30 | X-H torsion
[ 10763 10752 10751 10750 ] final  -18.54 input  -60.55 | X-H torsion
[ 11005 11000 10999 10996 ] final  104.98 input  -57.11 | X-H torsion

> <Gold.Protein.ActiveResidues>
 VAL166  LYS551  ARG553  GLY616  TRP617  ASP618  TYR619  PRO620  LYS621  CYS622 
 ASP623  PHE694  ASN695  SER759  ASP760  ASP761  ALA762  ILE779  LEU786  VAL792 
 PHE793  MET794  SER795  GLU796  ALA797  LYS798  CYS799  TRP800  GLU811  SER814 

> <Gold.Protein.RotatedAtoms>
  152.5228  134.3386  159.9208 H   0  0  0  0  0  0  0  0  0  0  0  0  # atno 6907 bound_to 6896
  151.3335  133.3984  159.2672 H   0  0  0  0  0  0  0  0  0  0  0  0  # atno 6908 bound_to 6896
  150.9861  134.9224  159.7930 H   0  0  0  0  0  0  0  0  0  0  0  0  # atno 6909 bound_to 6896
  145.4641  140.9560  143.1953 H   0  0  0  0  0  0  0  0  0  0  0  0  # atno 7974 bound_to 7965
  156.2933  140.2266  156.4865 H   0  0  0  0  0  0  0  0  0  0  0  0  # atno 8008 bound_to 7997
  154.7808  140.0460  157.1147 H   0  0  0  0  0  0  0  0  0  0  0  0  # atno 8009 bound_to 7997
  154.9761  140.3072  155.4970 H   0  0  0  0  0  0  0  0  0  0  0  0  # atno 8010 bound_to 7997
  140.6482  143.7610  150.7532 H   0  0  0  0  0  0  0  0  0  0  0  0  # atno 10167 bound_to 10162
  157.1879  131.0647  151.2096 H   0  0  0  0  0  0  0  0  0  0  0  0  # atno 10718 bound_to 10713
  153.5908  135.7002  153.5424 H   0  0  0  0  0  0  0  0  0  0  0  0  # atno 10763 bound_to 10752
  153.3180  135.4082  155.1392 H   0  0  0  0  0  0  0  0  0  0  0  0  # atno 10764 bound_to 10752
  154.8601  135.3688  154.5440 H   0  0  0  0  0  0  0  0  0  0  0  0  # atno 10765 bound_to 10752
  139.8797  134.9319  156.5444 H   0  0  0  0  0  0  0  0  0  0  0  0  # atno 11005 bound_to 11000
  144.7985  139.6187  143.7082 LP  0  0  0  0  0  0  0  0  0  0  0  0  # atno 17320 bound_to 7965
  146.2434  139.6049  142.9476 LP  0  0  0  0  0  0  0  0  0  0  0  0  # atno 17321 bound_to 7965
  140.1255  143.4573  152.2287 LP  0  0  0  0  0  0  0  0  0  0  0  0  # atno 17342 bound_to 10162
  139.5694  144.7454  151.3931 LP  0  0  0  0  0  0  0  0  0  0  0  0  # atno 17343 bound_to 10162
  157.3889  130.7271  149.6683 LP  0  0  0  0  0  0  0  0  0  0  0  0  # atno 17370 bound_to 10713
  155.9715  130.4152  150.4168 LP  0  0  0  0  0  0  0  0  0  0  0  0  # atno 17371 bound_to 10713
  140.8287  133.8296  155.8963 LP  0  0  0  0  0  0  0  0  0  0  0  0  # atno 17394 bound_to 11000
  140.9350  134.1974  157.4838 LP  0  0  0  0  0  0  0  0  0  0  0  0  # atno 17395 bound_to 11000

$$$$
