AV-unprocessed.smi:54|AV-procd|sdf|547|dock4
  -GOLD-   2262016443D 1   1.00000     0.00000
 Structure written by MMmdl.
 43 45  0  0  0  0  0  0  0  0  2 V2000
  152.8108  143.7979  159.7474 C   0  0  0  0  0  0  0  0  0  0  0  0
  152.5327  142.4734  160.4772 C   0  0  0  0  0  0  0  0  0  0  0  0
  153.3890  142.3457  161.7480 C   0  0  0  0  0  0  0  0  0  0  0  0
  152.7662  141.2765  159.5440 C   0  0  0  0  0  0  0  0  0  0  0  0
  153.6407  140.4558  159.8298 O   0  0  0  0  0  0  0  0  0  0  0  0
  151.9557  141.2218  158.4635 N   0  0  0  0  0  0  0  0  0  0  0  0
  151.8980  140.2627  157.4451 C   0  0  0  0  0  0  0  0  0  0  0  0
  150.9509  140.5017  156.5705 N   0  0  0  0  0  0  0  0  0  0  0  0
  150.9097  139.5587  155.5613 C   0  0  0  0  0  0  0  0  0  0  0  0
  151.7185  138.4680  155.3994 C   0  0  0  0  0  0  0  0  0  0  0  0
  151.3697  137.7414  154.2675 N   0  0  0  0  0  0  0  0  0  0  0  0
  150.3447  138.4453  153.7889 C   0  0  0  0  0  0  0  0  0  0  0  0
  150.0191  139.5498  154.4937 N   0  0  0  0  0  0  0  0  0  0  0  0
  148.9238  140.5400  154.2315 C   0  0  2  0  0  0  0  0  0  0  0  0
  148.5490  141.1191  155.4464 O   0  0  0  0  0  0  0  0  0  0  0  0
  147.4265  140.4218  155.9762 C   0  0  1  0  0  0  0  0  0  0  0  0
  146.7260  141.2390  157.0760 C   0  0  0  0  0  0  0  0  0  0  0  0
  147.5953  141.4180  158.1738 O   0  0  0  0  0  0  0  0  0  0  0  0
  146.6003  140.1580  154.7113 C   0  0  1  0  0  0  0  0  0  0  0  0
  145.8507  141.3102  154.3577 O   0  0  0  0  0  0  0  0  0  0  0  0
  147.6801  139.8126  153.6843 C   0  0  1  0  0  0  0  0  0  0  0  0
  147.3375  140.2041  152.3681 O   0  0  0  0  0  0  0  0  0  0  0  0
  152.7755  138.2623  156.4175 C   0  0  0  0  0  0  0  0  0  0  0  0
  153.5298  137.2970  156.3117 O   0  0  0  0  0  0  0  0  0  0  0  0
  152.8196  139.1967  157.4141 N   0  5  0  0  0  0  0  0  0  0  0  0
  149.3661  141.2734  153.5561 H   0  0  0  0  0  0  0  0  0  0  0  0
  147.7538  139.4607  156.3777 H   0  0  0  0  0  0  0  0  0  0  0  0
  145.9030  139.3315  154.8522 H   0  0  0  0  0  0  0  0  0  0  0  0
  147.8538  138.7351  153.6952 H   0  0  0  0  0  0  0  0  0  0  0  0
  152.2052  143.8873  158.8445 H   0  0  0  0  0  0  0  0  0  0  0  0
  153.8585  143.8849  159.4565 H   0  0  0  0  0  0  0  0  0  0  0  0
  152.5742  144.6502  160.3849 H   0  0  0  0  0  0  0  0  0  0  0  0
  151.4843  142.4749  160.7803 H   0  0  0  0  0  0  0  0  0  0  0  0
  153.2025  141.3998  162.2580 H   0  0  0  0  0  0  0  0  0  0  0  0
  153.1626  143.1466  162.4522 H   0  0  0  0  0  0  0  0  0  0  0  0
  154.4548  142.3973  161.5212 H   0  0  0  0  0  0  0  0  0  0  0  0
  151.2602  141.9516  158.4229 H   0  0  0  0  0  0  0  0  0  0  0  0
  149.8189  138.1447  152.8947 H   0  0  0  0  0  0  0  0  0  0  0  0
  146.3875  142.2057  156.7009 H   0  0  0  0  0  0  0  0  0  0  0  0
  145.8485  140.7039  157.4403 H   0  0  0  0  0  0  0  0  0  0  0  0
  148.3423  141.9204  157.8868 H   0  0  0  0  0  0  0  0  0  0  0  0
  145.1985  141.0620  153.7210 H   0  0  0  0  0  0  0  0  0  0  0  0
  148.1001  140.0998  151.8197 H   0  0  0  0  0  0  0  0  0  0  0  0
  1  2  1  0  0  0  0
  1 30  1  0  0  0  0
  1 31  1  0  0  0  0
  1 32  1  0  0  0  0
  2  3  1  0  0  0  0
  2  4  1  0  0  0  0
  2 33  1  0  0  0  0
  3 34  1  0  0  0  0
  3 35  1  0  0  0  0
  3 36  1  0  0  0  0
  4  5  2  0  0  0  0
  4  6  1  0  0  0  0
  6 37  1  0  0  0  0
  6  7  1  0  0  0  0
  7 25  1  0  0  0  0
  7  8  2  0  0  0  0
  8  9  1  0  0  0  0
  9 13  1  0  0  0  0
  9 10  2  0  0  0  0
 10 11  1  0  0  0  0
 10 23  1  0  0  0  0
 11 12  2  0  0  0  0
 12 13  1  0  0  0  0
 12 38  1  0  0  0  0
 13 14  1  0  0  0  0
 14 26  1  0  0  0  0
 14 21  1  0  0  0  0
 14 15  1  0  0  0  0
 15 16  1  0  0  0  0
 16 27  1  0  0  0  0
 16 17  1  0  0  0  0
 16 19  1  0  0  0  0
 17 18  1  0  0  0  0
 17 39  1  0  0  0  0
 17 40  1  0  0  0  0
 18 41  1  0  0  0  0
 19 28  1  0  0  0  0
 19 20  1  0  0  0  0
 19 21  1  0  0  0  0
 20 42  1  0  0  0  0
 21 29  1  0  0  0  0
 21 22  1  0  0  0  0
 22 43  1  0  0  0  0
 23 24  2  0  0  0  0
 23 25  1  0  0  0  0
M  CHG  1  25  -1
M  END
> <s_m_source_file>
AV-unprocessed.smi

> <i_m_source_file_index>
54

> <i_lp_mmshare_version>
43012

> <i_f3d_flags>
0

> <s_epik_input>
W0NIM11bQ0hdKFtDSDNdKUMoPU8pW05IXWMobjEpW25IXWMoPU8pYyhjMTIpbltjSF1uMltDQEBIXTNPW0NASF0oW0NIMl1bT0hdKVtDQEBIXShbT0hdKVtDQEhdM1tPSF0=

> <s_epik_cmdline>
J2VwaWtfcHl0aG9uJywgJy1waCcsICc3LjAnLCAnLXRuJywgJzgnLCAnLW1hJywgJzIwMCcsICctbWV0YWxfYmluZGluZycsICctaW1hZScsICc8aW5maWxlLm1hZT4nLCAnLW9tYWUnLCAnPG91dGZpbGUubWFlPic=

> <r_lp_tautomer_probability>
0.85571

> <r_epik_Ionization_Penalty>
1.75936

> <r_epik_Ionization_Penalty_Charging>
4.55893e-11

> <r_epik_Ionization_Penalty_Neutral>
1.75936

> <r_epik_State_Penalty>
1.72072

> <r_epik_Charging_Adjusted_Penalty>
1.72072

> <i_epik_Tot_Q>
-1

> <i_epik_Tot_abs_Q>
1

> <r_epik_Metal_State_Penalty>
0.400338

> <b_epik_Metal_Only>
1

> <s_epik_Chemistry_Notes>
This compound contains an acetal/aminal-like group ( X-CH(R)-Y where X, Y are N, S, or O) that may be acid/base labile, releasing an aldehyde.

> <s_lp_Force_Field>
OPLS_2005

> <r_lp_Energy>
64.1359

> <b_lp_Chiralities_Consistent>
1

> <s_lp_Variant>
AV-unprocessed.smi:54-19

> <Gold.Version>
5.8.1

> <Gold.Id.Protein>
6NUR|6NUR_protein|mol2

> <Gold.PLP.Fitness>
56.1623

> <Gold.PLP.PLP>
-39.4768

> <Gold.PLP.part.hbond>
-4.9089

> <Gold.PLP.part.metal>
0.0000

> <Gold.PLP.part.buried>
-4.5757

> <Gold.PLP.part.nonpolar>
-30.2808

> <Gold.PLP.part.repulsive>
0.4066

> <Gold.PLP.ligand.clash>
0.0000

> <Gold.PLP.ligand.torsion>
0.7290

> <Gold.PLP.Chemscore.Hbond>
4.3378

> <Gold.PLP.Chemscore.CHOScore>
1.6920

> <Gold.PLP.Chemscore.Metal>
0.0000

> <Gold.Chemscore.Hbonds>
donor molecule, donor type, donor heavy atom, donor atom, acceptor molecule, acceptor atom, score
      L1  H    20    42       P1 10175  0.99
      L1  H    22    43       P1  7957  1.00
      P1  H  7997  8009       L1    25  2.00
      P1  H 10752 10765       L1    24  0.43
      L1  C    12    38       P1  7948  1.00
      L1  C    12    38       P1  7957  0.64

> <Gold.PLP.Chemscore.Internal.Correction>
0.0542

> <Gold.Rescore>
     Score         DG    S(hbond)    S(metal)    S(lipo)     H(rot)  DE(clash)    DE(int)     intcor
      6.78     -10.70       2.72        0.00      54.83       4.02       0.35       3.56       ----

> <Gold.Chemscore.Fitness>
6.7806

> <Gold.Chemscore.DG>
-10.6972

> <Gold.Chemscore.ZeroCoef>
-5.4800

> <Gold.Chemscore.Hbond>
2.7218

> <Gold.Chemscore.Metal>
0.0000

> <Gold.Chemscore.Lipo>
54.8348

> <Gold.Chemscore.Internal_Hbond>
0.0000

> <Gold.Chemscore.DEClash>
0.3521

> <Gold.Chemscore.DEInternal>
3.5645

> <Gold.Chemscore.Rot>
4.0192

> <Gold.Chemscore.Internal.Correction>
   9.000000E+99

> <Gold.Chemscore.Hbonds>
donor molecule, donor type, donor heavy atom, donor atom, acceptor molecule, acceptor atom, score
      L1  H    20    42       P1 10175  0.65
      L1  H    22    43       P1  7957  0.99
      P1  H  7997  8009       L1    25  0.13
      P1  H 10752 10765       L1    24  0.42

> <Gold.Chemscore.Hbond.Weighted>
-9.0908

> <Gold.Chemscore.Metal.Weighted>
-0.0000

> <Gold.Chemscore.Lipo.Weighted>
-6.4157

> <Gold.Chemscore.Internal_Hbond.Weighted>
0.0000

> <Gold.Chemscore.DEClash.Weighted>
0.3521

> <Gold.Chemscore.DEInternal.Weighted>
3.5645

> <Gold.Chemscore.Rot.Weighted>
10.2893

> <Gold.Chemscore.Internal.Correction.Weighted>
   9.000000E+99

> <Gold.Protein.RotatedTorsions>
[ 6907 6896 6895 6894 ] final  -74.38 input  -60.11 | X-H torsion
[ 7974 7965 7964 7962 ] final   -9.20 input  175.53 | X-H torsion
[ 8008 7997 7996 7995 ] final  152.36 input   59.86 | X-H torsion
[ 10167 10162 10161 10158 ] final  -80.02 input  -65.29 | X-H torsion
[ 10718 10713 10712 10709 ] final  126.06 input   66.30 | X-H torsion
[ 10763 10752 10751 10750 ] final -123.81 input  -60.55 | X-H torsion
[ 11005 11000 10999 10996 ] final  -29.99 input  -57.11 | X-H torsion

> <Gold.Protein.ActiveResidues>
 VAL166  LYS551  ARG553  GLY616  TRP617  ASP618  TYR619  PRO620  LYS621  CYS622 
 ASP623  PHE694  ASN695  SER759  ASP760  ASP761  ALA762  ILE779  LEU786  VAL792 
 PHE793  MET794  SER795  GLU796  ALA797  LYS798  CYS799  TRP800  GLU811  SER814 

> <Gold.Protein.RotatedAtoms>
  150.7095  134.4878  159.5500 H   0  0  0  0  0  0  0  0  0  0  0  0  # atno 6907 bound_to 6896
  152.2501  134.8138  160.0456 H   0  0  0  0  0  0  0  0  0  0  0  0  # atno 6908 bound_to 6896
  151.8888  133.3476  159.3828 H   0  0  0  0  0  0  0  0  0  0  0  0  # atno 6909 bound_to 6896
  146.2259  140.2580  142.8350 H   0  0  0  0  0  0  0  0  0  0  0  0  # atno 7974 bound_to 7965
  156.2632  140.2023  156.6321 H   0  0  0  0  0  0  0  0  0  0  0  0  # atno 8008 bound_to 7997
  154.6674  140.0554  157.0153 H   0  0  0  0  0  0  0  0  0  0  0  0  # atno 8009 bound_to 7997
  155.1186  140.3222  155.4506 H   0  0  0  0  0  0  0  0  0  0  0  0  # atno 8010 bound_to 7997
  140.4541  143.2474  151.8446 H   0  0  0  0  0  0  0  0  0  0  0  0  # atno 10167 bound_to 10162
  157.5451  131.1096  150.8795 H   0  0  0  0  0  0  0  0  0  0  0  0  # atno 10718 bound_to 10713
  154.8714  135.4085  154.3004 H   0  0  0  0  0  0  0  0  0  0  0  0  # atno 10763 bound_to 10752
  153.3865  135.7013  153.6532 H   0  0  0  0  0  0  0  0  0  0  0  0  # atno 10764 bound_to 10752
  153.5333  135.3663  155.2657 H   0  0  0  0  0  0  0  0  0  0  0  0  # atno 10765 bound_to 10752
  140.9344  133.7318  156.0983 H   0  0  0  0  0  0  0  0  0  0  0  0  # atno 11005 bound_to 11000
  144.9361  140.8028  143.5659 LP  0  0  0  0  0  0  0  0  0  0  0  0  # atno 17320 bound_to 7965
  145.2528  139.2024  143.4933 LP  0  0  0  0  0  0  0  0  0  0  0  0  # atno 17321 bound_to 7965
  139.4799  144.5086  151.8964 LP  0  0  0  0  0  0  0  0  0  0  0  0  # atno 17342 bound_to 10162
  140.4172  144.2291  150.5887 LP  0  0  0  0  0  0  0  0  0  0  0  0  # atno 17343 bound_to 10162
  156.9336  130.5358  149.5279 LP  0  0  0  0  0  0  0  0  0  0  0  0  # atno 17370 bound_to 10713
  156.0529  130.5595  150.9028 LP  0  0  0  0  0  0  0  0  0  0  0  0  # atno 17371 bound_to 10713
  140.7819  134.3716  157.5485 LP  0  0  0  0  0  0  0  0  0  0  0  0  # atno 17394 bound_to 11000
  139.8804  134.9087  156.2973 LP  0  0  0  0  0  0  0  0  0  0  0  0  # atno 17395 bound_to 11000

$$$$
