AV-unprocessed.smi:3263|AV-procd|sdf|12493|dock8
  -GOLD-   2272018393D 1   1.00000     0.00000
 Structure written by MMmdl.
 42 44  0  0  0  0  0  0  0  0  2 V2000
  151.3574  140.6265  155.3362 O   0  0  0  0  0  0  0  0  0  0  0  0
  150.5655  141.1812  156.0987 C   0  0  0  0  0  0  0  0  0  0  0  0
  150.9715  141.4957  157.5423 C   0  0  0  0  0  0  0  0  0  0  0  0
  150.7414  142.9761  157.9211 C   0  0  1  0  0  0  0  0  0  0  0  0
  149.6383  143.2238  158.9750 C   0  0  0  0  0  0  0  0  0  0  0  0
  150.3399  144.1392  159.9962 C   0  0  1  0  0  0  0  0  0  0  0  0
  151.3325  143.3018  160.8228 C   0  0  0  0  0  0  0  0  0  0  0  0
  152.4655  143.0314  159.8162 C   0  0  0  0  0  0  0  0  0  0  0  0
  151.9552  143.7164  158.5312 C   0  0  2  0  0  0  0  0  0  0  0  0
  151.2769  144.9543  159.1112 C   0  0  0  0  0  0  0  0  0  0  0  0
  149.3266  141.5443  155.7320 N   0  0  0  0  0  0  0  0  0  0  0  0
  148.7625  141.3544  154.4012 C   0  0  0  0  0  0  0  0  0  0  0  0
  147.5750  140.3771  154.4260 C   0  0  0  0  0  0  0  0  0  0  0  0
  146.2825  141.0548  154.8364 C   0  0  0  0  0  0  0  0  0  0  0  0
  145.6666  142.0469  154.0428 C   0  0  0  0  0  0  0  0  0  0  0  0
  144.4665  142.6388  154.4892 C   0  0  0  0  0  0  0  0  0  0  0  0
  143.9092  142.2281  155.7180 C   0  0  0  0  0  0  0  0  0  0  0  0
  144.5672  141.2343  156.4708 C   0  0  0  0  0  0  0  0  0  0  0  0
  145.7151  140.6908  156.0094 N   0  3  0  0  0  0  0  0  0  0  0  0
  150.4220  140.8375  158.2156 H   0  0  0  0  0  0  0  0  0  0  0  0
  152.0273  141.2483  157.6580 H   0  0  0  0  0  0  0  0  0  0  0  0
  150.4685  143.5177  157.0132 H   0  0  0  0  0  0  0  0  0  0  0  0
  148.7828  143.7252  158.5205 H   0  0  0  0  0  0  0  0  0  0  0  0
  149.2750  142.3056  159.4386 H   0  0  0  0  0  0  0  0  0  0  0  0
  149.6509  144.7257  160.6044 H   0  0  0  0  0  0  0  0  0  0  0  0
  151.7064  143.8691  161.6761 H   0  0  0  0  0  0  0  0  0  0  0  0
  150.8847  142.3829  161.2027 H   0  0  0  0  0  0  0  0  0  0  0  0
  153.3880  143.5048  160.1551 H   0  0  0  0  0  0  0  0  0  0  0  0
  152.6781  141.9707  159.6913 H   0  0  0  0  0  0  0  0  0  0  0  0
  152.7434  143.9278  157.8080 H   0  0  0  0  0  0  0  0  0  0  0  0
  150.7536  145.5557  158.3655 H   0  0  0  0  0  0  0  0  0  0  0  0
  151.9547  145.5973  159.6757 H   0  0  0  0  0  0  0  0  0  0  0  0
  148.7382  141.9910  156.4208 H   0  0  0  0  0  0  0  0  0  0  0  0
  148.4602  142.3178  153.9872 H   0  0  0  0  0  0  0  0  0  0  0  0
  149.5475  140.9692  153.7497 H   0  0  0  0  0  0  0  0  0  0  0  0
  147.4461  139.9218  153.4431 H   0  0  0  0  0  0  0  0  0  0  0  0
  147.7713  139.5576  155.1191 H   0  0  0  0  0  0  0  0  0  0  0  0
  146.1069  142.3530  153.1049 H   0  0  0  0  0  0  0  0  0  0  0  0
  143.9795  143.3995  153.8967 H   0  0  0  0  0  0  0  0  0  0  0  0
  142.9908  142.6692  156.0773 H   0  0  0  0  0  0  0  0  0  0  0  0
  144.2135  140.8608  157.4207 H   0  0  0  0  0  0  0  0  0  0  0  0
  146.1753  139.9732  156.5705 H   0  0  0  0  0  0  0  0  0  0  0  0
  1  2  2  0  0  0  0
  2  3  1  0  0  0  0
  2 11  1  0  0  0  0
  3  4  1  0  0  0  0
  3 20  1  0  0  0  0
  3 21  1  0  0  0  0
  4  9  1  0  0  0  0
  4  5  1  0  0  0  0
  4 22  1  0  0  0  0
  5  6  1  0  0  0  0
  5 23  1  0  0  0  0
  5 24  1  0  0  0  0
  6 10  1  0  0  0  0
  6  7  1  0  0  0  0
  6 25  1  0  0  0  0
  7  8  1  0  0  0  0
  7 26  1  0  0  0  0
  7 27  1  0  0  0  0
  8  9  1  0  0  0  0
  8 28  1  0  0  0  0
  8 29  1  0  0  0  0
  9 10  1  0  0  0  0
  9 30  1  0  0  0  0
 10 31  1  0  0  0  0
 10 32  1  0  0  0  0
 11 12  1  0  0  0  0
 11 33  1  0  0  0  0
 12 13  1  0  0  0  0
 12 34  1  0  0  0  0
 12 35  1  0  0  0  0
 13 14  1  0  0  0  0
 13 36  1  0  0  0  0
 13 37  1  0  0  0  0
 14 19  1  0  0  0  0
 14 15  2  0  0  0  0
 15 16  1  0  0  0  0
 15 38  1  0  0  0  0
 16 17  2  0  0  0  0
 16 39  1  0  0  0  0
 17 18  1  0  0  0  0
 17 40  1  0  0  0  0
 18 19  2  0  0  0  0
 18 41  1  0  0  0  0
 19 42  1  0  0  0  0
M  CHG  1  19   1
M  END
> <s_m_source_file>
AV-unprocessed.smi

> <i_m_source_file_index>
3263

> <i_lp_mmshare_version>
43012

> <i_f3d_flags>
0

> <s_epik_input>
W0NIMl0xW0NIMl1bQ0BASF0oW0NIMl0yKVtDQEBIXShbQ0gyXVtDQEhdMTIpW0NIMl1DKD1PKVtOSF1bQ0gyXVtDSDJdYzNbY0hdW2NIXVtjSF1bY0hdbjM=

> <s_epik_cmdline>
J2VwaWtfcHl0aG9uJywgJy1waCcsICc3LjAnLCAnLXRuJywgJzgnLCAnLW1hJywgJzIwMCcsICctbWV0YWxfYmluZGluZycsICctaW1hZScsICc8aW5maWxlLm1hZT4nLCAnLW9tYWUnLCAnPG91dGZpbGUubWFlPic=

> <r_epik_Ionization_Penalty>
1.83579

> <r_epik_Ionization_Penalty_Charging>
1.83579

> <r_epik_Ionization_Penalty_Neutral>
2.47288e-08

> <r_epik_State_Penalty>
1.95213

> <r_epik_Charging_Adjusted_Penalty>
3.78793

> <i_epik_Tot_Q>
1

> <i_epik_Tot_abs_Q>
1

> <r_epik_Metal_State_Penalty>
1.97847

> <b_epik_Metal_Only>
0

> <s_lp_Force_Field>
OPLS_2005

> <r_lp_Energy>
51.7701

> <b_lp_Chiralities_Consistent>
1

> <s_lp_Variant>
AV-unprocessed.smi:3263-8

> <Gold.Version>
5.8.1

> <Gold.Id.Protein>
6NUR|6NUR_protein|mol2

> <Gold.PLP.Fitness>
49.9306

> <Gold.PLP.PLP>
-49.1437

> <Gold.PLP.part.hbond>
-2.0000

> <Gold.PLP.part.metal>
0.0000

> <Gold.PLP.part.buried>
-5.1098

> <Gold.PLP.part.nonpolar>
-41.2025

> <Gold.PLP.part.repulsive>
0.1464

> <Gold.PLP.ligand.clash>
0.0000

> <Gold.PLP.ligand.torsion>
0.9348

> <Gold.PLP.Chemscore.Hbond>
0.8736

> <Gold.PLP.Chemscore.CHOScore>
0.0000

> <Gold.PLP.Chemscore.Metal>
0.0000

> <Gold.Chemscore.Hbonds>
donor molecule, donor type, donor heavy atom, donor atom, acceptor molecule, acceptor atom, score
      P1  H  7989  7998       L1     1  0.82

> <Gold.PLP.Chemscore.Internal.Correction>
0.0358

> <Gold.Rescore>
     Score         DG    S(hbond)    S(metal)    S(lipo)     H(rot)  DE(clash)    DE(int)     intcor
     18.53     -20.14       0.99        0.00     131.23       1.56       0.72       0.89       ----

> <Gold.Chemscore.Fitness>
18.5326

> <Gold.Chemscore.DG>
-20.1429

> <Gold.Chemscore.ZeroCoef>
-5.4800

> <Gold.Chemscore.Hbond>
0.9919

> <Gold.Chemscore.Metal>
0.0000

> <Gold.Chemscore.Lipo>
131.2285

> <Gold.Chemscore.Internal_Hbond>
0.0000

> <Gold.Chemscore.DEClash>
0.7212

> <Gold.Chemscore.DEInternal>
0.8892

> <Gold.Chemscore.Rot>
1.5640

> <Gold.Chemscore.Internal.Correction>
   9.000000E+99

> <Gold.Chemscore.Hbonds>
donor molecule, donor type, donor heavy atom, donor atom, acceptor molecule, acceptor atom, score
      P1  H  7989  7998       L1     1  0.81

> <Gold.Chemscore.Hbond.Weighted>
-3.3130

> <Gold.Chemscore.Metal.Weighted>
-0.0000

> <Gold.Chemscore.Lipo.Weighted>
-15.3537

> <Gold.Chemscore.Internal_Hbond.Weighted>
0.0000

> <Gold.Chemscore.DEClash.Weighted>
0.7212

> <Gold.Chemscore.DEInternal.Weighted>
0.8892

> <Gold.Chemscore.Rot.Weighted>
4.0038

> <Gold.Chemscore.Internal.Correction.Weighted>
   9.000000E+99

> <Gold.Protein.RotatedTorsions>
[ 6907 6896 6895 6894 ] final   67.98 input  -60.11 | X-H torsion
[ 7974 7965 7964 7962 ] final  169.92 input  175.53 | X-H torsion
[ 8008 7997 7996 7995 ] final -119.62 input   59.86 | X-H torsion
[ 10167 10162 10161 10158 ] final  146.14 input  -65.29 | X-H torsion
[ 10718 10713 10712 10709 ] final  169.91 input   66.30 | X-H torsion
[ 10763 10752 10751 10750 ] final  129.37 input  -60.55 | X-H torsion
[ 11005 11000 10999 10996 ] final -156.45 input  -57.11 | X-H torsion

> <Gold.Protein.ActiveResidues>
 VAL166  LYS551  ARG553  GLY616  TRP617  ASP618  TYR619  PRO620  LYS621  CYS622 
 ASP623  PHE694  ASN695  SER759  ASP760  ASP761  ALA762  ILE779  LEU786  VAL792 
 PHE793  MET794  SER795  GLU796  ALA797  LYS798  CYS799  TRP800  GLU811  SER814 

> <Gold.Protein.RotatedAtoms>
  152.4589  134.5229  159.9787 H   0  0  0  0  0  0  0  0  0  0  0  0  # atno 6907 bound_to 6896
  151.5283  133.3448  159.2921 H   0  0  0  0  0  0  0  0  0  0  0  0  # atno 6908 bound_to 6896
  150.8544  134.7908  159.7096 H   0  0  0  0  0  0  0  0  0  0  0  0  # atno 6909 bound_to 6896
  144.7340  139.9125  143.6416 H   0  0  0  0  0  0  0  0  0  0  0  0  # atno 7974 bound_to 7965
  155.1187  140.0398  157.2744 H   0  0  0  0  0  0  0  0  0  0  0  0  # atno 8008 bound_to 7997
  154.6630  140.2595  155.7063 H   0  0  0  0  0  0  0  0  0  0  0  0  # atno 8009 bound_to 7997
  156.2627  140.2813  156.1109 H   0  0  0  0  0  0  0  0  0  0  0  0  # atno 8010 bound_to 7997
  139.4912  144.5851  151.6795 H   0  0  0  0  0  0  0  0  0  0  0  0  # atno 10167 bound_to 10162
  157.0158  131.0217  151.2789 H   0  0  0  0  0  0  0  0  0  0  0  0  # atno 10718 bound_to 10713
  153.7407  135.3224  155.3303 H   0  0  0  0  0  0  0  0  0  0  0  0  # atno 10763 bound_to 10752
  154.8296  135.4544  154.1029 H   0  0  0  0  0  0  0  0  0  0  0  0  # atno 10764 bound_to 10752
  153.2203  135.6947  153.8089 H   0  0  0  0  0  0  0  0  0  0  0  0  # atno 10765 bound_to 10752
  140.6754  134.4202  157.5229 H   0  0  0  0  0  0  0  0  0  0  0  0  # atno 11005 bound_to 11000
  146.0990  139.3984  143.0358 LP  0  0  0  0  0  0  0  0  0  0  0  0  # atno 17320 bound_to 7965
  145.7605  140.9937  143.1202 LP  0  0  0  0  0  0  0  0  0  0  0  0  # atno 17321 bound_to 7965
  140.5465  144.0495  150.6109 LP  0  0  0  0  0  0  0  0  0  0  0  0  # atno 17342 bound_to 10162
  140.3534  143.2949  152.0462 LP  0  0  0  0  0  0  0  0  0  0  0  0  # atno 17343 bound_to 10162
  157.5287  130.8044  149.7891 LP  0  0  0  0  0  0  0  0  0  0  0  0  # atno 17370 bound_to 10713
  156.0120  130.3829  150.2234 LP  0  0  0  0  0  0  0  0  0  0  0  0  # atno 17371 bound_to 10713
  139.8968  134.8650  156.2070 LP  0  0  0  0  0  0  0  0  0  0  0  0  # atno 17394 bound_to 11000
  141.0360  133.6963  156.1512 LP  0  0  0  0  0  0  0  0  0  0  0  0  # atno 17395 bound_to 11000

$$$$
