AV-unprocessed.smi:2079|AV-procd|sdf|8479|dock7
  -GOLD-   2272011183D 1   1.00000     0.00000
 Structure written by MMmdl.
 41 42  0  0  0  0  0  0  0  0  3 V2000
  148.7819  140.4063  154.5101 C   0  0  0  0  0  0  0  0  0  0  0  0
  149.6868  139.2231  154.5596 C   0  0  0  0  0  0  0  0  0  0  0  0
  149.4564  137.8840  154.6991 C   0  0  0  0  0  0  0  0  0  0  0  0
  150.7623  137.3236  154.6586 C   0  0  0  0  0  0  0  0  0  0  0  0
  151.0645  136.0208  154.7695 N   0  5  0  0  0  0  0  0  0  0  0  0
  150.1119  135.1296  155.1272 C   0  0  0  0  0  0  0  0  0  0  0  0
  149.7795  134.8325  156.2771 O   0  0  0  0  0  0  0  0  0  0  0  0
  149.5054  134.5431  154.0870 N   0  0  0  0  0  0  0  0  0  0  0  0
  148.4417  133.5538  154.1900 C   0  0  0  0  0  0  0  0  0  0  0  0
  148.7143  132.3709  153.2453 C   0  0  0  0  0  0  0  0  0  0  0  0
  147.6222  132.1771  152.2491 N   0  3  2  0  0  0  0  0  0  0  0  0
  147.0813  133.4863  151.7814 C   0  0  0  0  0  0  0  0  0  0  0  0
  146.0621  133.3173  150.6469 C   0  0  0  0  0  0  0  0  0  0  0  0
  144.9092  132.4205  151.0968 C   0  0  0  0  0  0  0  0  0  0  0  0
  145.4701  131.0801  151.5782 C   0  0  0  0  0  0  0  0  0  0  0  0
  146.5271  131.2523  152.6934 C   0  0  1  0  0  0  0  0  0  0  0  0
  147.0362  129.8513  153.0954 C   0  0  0  0  0  0  0  0  0  0  0  0
  151.7033  138.2432  154.5246 N   0  0  0  0  0  0  0  0  0  0  0  0
  151.0214  139.4639  154.4535 O   0  0  0  0  0  0  0  0  0  0  0  0
  148.4863  140.7070  155.5152 H   0  0  0  0  0  0  0  0  0  0  0  0
  147.8782  140.1777  153.9453 H   0  0  0  0  0  0  0  0  0  0  0  0
  149.2719  141.2550  154.0327 H   0  0  0  0  0  0  0  0  0  0  0  0
  148.5057  137.3840  154.8088 H   0  0  0  0  0  0  0  0  0  0  0  0
  149.8044  134.8114  153.1607 H   0  0  0  0  0  0  0  0  0  0  0  0
  148.3763  133.2307  155.2285 H   0  0  0  0  0  0  0  0  0  0  0  0
  147.4900  134.0232  153.9355 H   0  0  0  0  0  0  0  0  0  0  0  0
  149.6623  132.5833  152.7583 H   0  0  0  0  0  0  0  0  0  0  0  0
  148.8664  131.4502  153.8108 H   0  0  0  0  0  0  0  0  0  0  0  0
  146.6180  134.0074  152.6206 H   0  0  0  0  0  0  0  0  0  0  0  0
  147.8823  134.1298  151.4218 H   0  0  0  0  0  0  0  0  0  0  0  0
  145.6784  134.2915  150.3421 H   0  0  0  0  0  0  0  0  0  0  0  0
  146.5503  132.8869  149.7714 H   0  0  0  0  0  0  0  0  0  0  0  0
  144.3515  132.9029  151.9005 H   0  0  0  0  0  0  0  0  0  0  0  0
  144.2083  132.2646  150.2762 H   0  0  0  0  0  0  0  0  0  0  0  0
  144.6484  130.4568  151.9332 H   0  0  0  0  0  0  0  0  0  0  0  0
  145.9116  130.5507  150.7322 H   0  0  0  0  0  0  0  0  0  0  0  0
  146.0393  131.6997  153.5611 H   0  0  0  0  0  0  0  0  0  0  0  0
  146.2045  129.1579  153.2245 H   0  0  0  0  0  0  0  0  0  0  0  0
  147.5683  129.8538  154.0456 H   0  0  0  0  0  0  0  0  0  0  0  0
  147.6947  129.4321  152.3338 H   0  0  0  0  0  0  0  0  0  0  0  0
  148.0494  131.7337  151.4483 H   0  0  0  0  0  0  0  0  0  0  0  0
  1  2  1  0  0  0  0
  1 20  1  0  0  0  0
  1 21  1  0  0  0  0
  1 22  1  0  0  0  0
  2 19  1  0  0  0  0
  2  3  2  0  0  0  0
  3  4  1  0  0  0  0
  3 23  1  0  0  0  0
  4  5  1  0  0  0  0
  4 18  2  0  0  0  0
  5  6  1  0  0  0  0
  6  7  2  0  0  0  0
  6  8  1  0  0  0  0
  8  9  1  0  0  0  0
  8 24  1  0  0  0  0
  9 10  1  0  0  0  0
  9 25  1  0  0  0  0
  9 26  1  0  0  0  0
 10 11  1  0  0  0  0
 10 27  1  0  0  0  0
 10 28  1  0  0  0  0
 11 16  1  0  0  0  0
 11 12  1  0  0  0  0
 11 41  1  0  0  0  0
 12 13  1  0  0  0  0
 12 29  1  0  0  0  0
 12 30  1  0  0  0  0
 13 14  1  0  0  0  0
 13 31  1  0  0  0  0
 13 32  1  0  0  0  0
 14 15  1  0  0  0  0
 14 33  1  0  0  0  0
 14 34  1  0  0  0  0
 15 16  1  0  0  0  0
 15 35  1  0  0  0  0
 15 36  1  0  0  0  0
 16 17  1  0  0  0  0
 16 37  1  0  0  0  0
 17 38  1  0  0  0  0
 17 39  1  0  0  0  0
 17 40  1  0  0  0  0
 18 19  1  0  0  0  0
M  CHG  1   5  -1
M  CHG  1  11   1
M  END
> <s_m_source_file>
AV-unprocessed.smi

> <i_m_source_file_index>
2079

> <i_lp_mmshare_version>
43012

> <i_f3d_flags>
0

> <s_epik_input>
W0NIM11jMVtjSF1jKG5vMSlbTkhdQyg9TylbTkhdW0NIMl1bQ0gyXU4yW0NIMl1bQ0gyXVtDSDJdW0NIMl1bQ0BIXTJbQ0gzXQ==

> <s_epik_cmdline>
J2VwaWtfcHl0aG9uJywgJy1waCcsICc3LjAnLCAnLXRuJywgJzgnLCAnLW1hJywgJzIwMCcsICctbWV0YWxfYmluZGluZycsICctaW1hZScsICc8aW5maWxlLm1hZT4nLCAnLW9tYWUnLCAnPG91dGZpbGUubWFlPic=

> <r_epik_Ionization_Penalty>
6.22371

> <r_epik_Ionization_Penalty_Charging>
6.22362

> <r_epik_Ionization_Penalty_Neutral>
9.40454e-05

> <r_epik_State_Penalty>
6.22363

> <r_epik_Charging_Adjusted_Penalty>
12.4472

> <i_epik_Tot_Q>
0

> <i_epik_Tot_abs_Q>
2

> <r_epik_Metal_State_Penalty>
2.16675

> <b_epik_Metal_Only>
1

> <s_lp_Force_Field>
OPLS_2005

> <r_lp_Energy>
9.22117

> <b_lp_Chiralities_Consistent>
1

> <s_lp_Variant>
AV-unprocessed.smi:2079-5

> <Gold.Version>
5.8.1

> <Gold.Id.Protein>
6NUR|6NUR_protein|mol2

> <Gold.PLP.Fitness>
43.7226

> <Gold.PLP.PLP>
-34.7535

> <Gold.PLP.part.hbond>
-4.0000

> <Gold.PLP.part.metal>
0.0000

> <Gold.PLP.part.buried>
-4.8927

> <Gold.PLP.part.nonpolar>
-26.3421

> <Gold.PLP.part.repulsive>
0.4781

> <Gold.PLP.ligand.clash>
0.0000

> <Gold.PLP.ligand.torsion>
1.5353

> <Gold.PLP.Chemscore.Hbond>
4.0000

> <Gold.PLP.Chemscore.CHOScore>
0.0000

> <Gold.PLP.Chemscore.Metal>
0.0000

> <Gold.Chemscore.Hbonds>
donor molecule, donor type, donor heavy atom, donor atom, acceptor molecule, acceptor atom, score
      L1  H    11    41       P1 10747  1.00
      P1  H  7989  7998       L1    19  1.00
      P1  H 10752 10764       L1     5  2.00

> <Gold.PLP.Chemscore.Internal.Correction>
0.0398

> <Gold.Rescore>
     Score         DG    S(hbond)    S(metal)    S(lipo)     H(rot)  DE(clash)    DE(int)     intcor
     18.29     -19.77       2.91        0.00      72.79       1.54       0.03       1.45       ----

> <Gold.Chemscore.Fitness>
18.2868

> <Gold.Chemscore.DG>
-19.7673

> <Gold.Chemscore.ZeroCoef>
-5.4800

> <Gold.Chemscore.Hbond>
2.9088

> <Gold.Chemscore.Metal>
0.0000

> <Gold.Chemscore.Lipo>
72.7914

> <Gold.Chemscore.Internal_Hbond>
0.0000

> <Gold.Chemscore.DEClash>
0.0333

> <Gold.Chemscore.DEInternal>
1.4472

> <Gold.Chemscore.Rot>
1.5409

> <Gold.Chemscore.Internal.Correction>
   9.000000E+99

> <Gold.Chemscore.Hbonds>
donor molecule, donor type, donor heavy atom, donor atom, acceptor molecule, acceptor atom, score
      L1  H    11    41       P1 10747  1.00
      P1  H  7989  7998       L1    19  0.97
      P1  H 10752 10764       L1     5  0.84

> <Gold.Chemscore.Hbond.Weighted>
-9.7153

> <Gold.Chemscore.Metal.Weighted>
-0.0000

> <Gold.Chemscore.Lipo.Weighted>
-8.5166

> <Gold.Chemscore.Internal_Hbond.Weighted>
0.0000

> <Gold.Chemscore.DEClash.Weighted>
0.0333

> <Gold.Chemscore.DEInternal.Weighted>
1.4472

> <Gold.Chemscore.Rot.Weighted>
3.9446

> <Gold.Chemscore.Internal.Correction.Weighted>
   9.000000E+99

> <Gold.Protein.RotatedTorsions>
[ 6907 6896 6895 6894 ] final  -56.25 input  -60.11 | X-H torsion
[ 7974 7965 7964 7962 ] final  -25.02 input  175.53 | X-H torsion
[ 8008 7997 7996 7995 ] final  -42.57 input   59.86 | X-H torsion
[ 10167 10162 10161 10158 ] final -105.85 input  -65.29 | X-H torsion
[ 10718 10713 10712 10709 ] final    6.51 input   66.30 | X-H torsion
[ 10763 10752 10751 10750 ] final  -76.04 input  -60.55 | X-H torsion
[ 11005 11000 10999 10996 ] final  -45.86 input  -57.11 | X-H torsion

> <Gold.Protein.ActiveResidues>
 VAL166  LYS551  ARG553  GLY616  TRP617  ASP618  TYR619  PRO620  LYS621  CYS622 
 ASP623  PHE694  ASN695  SER759  ASP760  ASP761  ALA762  ILE779  LEU786  VAL792 
 PHE793  MET794  SER795  GLU796  ALA797  LYS798  CYS799  TRP800  GLU811  SER814 

> <Gold.Protein.RotatedAtoms>
  150.8183  134.7377  159.6749 H   0  0  0  0  0  0  0  0  0  0  0  0  # atno 6907 bound_to 6896
  152.4300  134.5792  159.9953 H   0  0  0  0  0  0  0  0  0  0  0  0  # atno 6908 bound_to 6896
  151.5982  133.3322  159.3078 H   0  0  0  0  0  0  0  0  0  0  0  0  # atno 6909 bound_to 6896
  146.1517  140.4831  142.8608 H   0  0  0  0  0  0  0  0  0  0  0  0  # atno 7974 bound_to 7965
  154.3998  140.1470  156.3376 H   0  0  0  0  0  0  0  0  0  0  0  0  # atno 8008 bound_to 7997
  155.8386  140.3463  155.5596 H   0  0  0  0  0  0  0  0  0  0  0  0  # atno 8009 bound_to 7997
  155.8112  140.0884  157.1893 H   0  0  0  0  0  0  0  0  0  0  0  0  # atno 8010 bound_to 7997
  140.1941  143.3869  152.1183 H   0  0  0  0  0  0  0  0  0  0  0  0  # atno 10167 bound_to 10162
  156.9233  130.5799  149.5648 H   0  0  0  0  0  0  0  0  0  0  0  0  # atno 10718 bound_to 10713
  154.4945  135.5811  153.6484 H   0  0  0  0  0  0  0  0  0  0  0  0  # atno 10763 bound_to 10752
  152.9868  135.6121  154.3082 H   0  0  0  0  0  0  0  0  0  0  0  0  # atno 10764 bound_to 10752
  154.2984  135.2847  155.2602 H   0  0  0  0  0  0  0  0  0  0  0  0  # atno 10765 bound_to 10752
  141.0542  133.6732  156.3072 H   0  0  0  0  0  0  0  0  0  0  0  0  # atno 11005 bound_to 11000
  144.7913  140.6036  143.6540 LP  0  0  0  0  0  0  0  0  0  0  0  0  # atno 17320 bound_to 7965
  145.4806  139.1496  143.3764 LP  0  0  0  0  0  0  0  0  0  0  0  0  # atno 17321 bound_to 7965
  139.5244  144.7083  151.5285 LP  0  0  0  0  0  0  0  0  0  0  0  0  # atno 17342 bound_to 10162
  140.6436  143.8840  150.6715 LP  0  0  0  0  0  0  0  0  0  0  0  0  # atno 17343 bound_to 10162
  156.0481  130.5554  150.8927 LP  0  0  0  0  0  0  0  0  0  0  0  0  # atno 17370 bound_to 10713
  157.5894  131.0945  150.9144 LP  0  0  0  0  0  0  0  0  0  0  0  0  # atno 17371 bound_to 10713
  140.5996  134.5568  157.5515 LP  0  0  0  0  0  0  0  0  0  0  0  0  # atno 17394 bound_to 11000
  139.9376  134.7847  156.0762 LP  0  0  0  0  0  0  0  0  0  0  0  0  # atno 17395 bound_to 11000

$$$$
