AV-unprocessed.smi:1432|AV-procd|sdf|5832|dock9
  -GOLD-   22720 5493D 1   1.00000     0.00000
 Structure written by MMmdl.
 47 48  0  0  0  0  0  0  0  0  2 V2000
  145.6437  137.2119  155.1887 C   0  0  0  0  0  0  0  0  0  0  0  0
  146.6622  136.6367  154.1802 C   0  0  1  0  0  0  0  0  0  0  0  0
  146.1054  135.4199  153.4112 C   0  0  0  0  0  0  0  0  0  0  0  0
  145.0585  135.8276  152.3642 C   0  0  0  0  0  0  0  0  0  0  0  0
  145.6397  136.8938  151.4277 C   0  0  0  0  0  0  0  0  0  0  0  0
  146.1860  138.0926  152.2205 C   0  0  0  0  0  0  0  0  0  0  0  0
  147.1930  137.6564  153.2261 N   0  3  1  0  0  0  0  0  0  0  0  0
  147.8992  138.7831  153.8880 C   0  0  0  0  0  0  0  0  0  0  0  0
  149.2758  138.3631  154.4380 C   0  0  0  0  0  0  0  0  0  0  0  0
  150.1153  139.5211  154.7230 N   0  0  0  0  0  0  0  0  0  0  0  0
  150.0251  140.2821  155.8244 C   0  0  0  0  0  0  0  0  0  0  0  0
  149.2051  140.0699  156.7190 O   0  0  0  0  0  0  0  0  0  0  0  0
  151.0075  141.4594  155.9081 C   0  0  0  0  0  0  0  0  0  0  0  0
  151.5906  141.6437  157.2478 N   0  0  0  0  0  0  0  0  0  0  0  0
  151.3224  142.8646  157.8973 C   0  0  0  0  0  0  0  0  0  0  0  0
  151.7740  143.1527  159.1327 C   0  0  0  0  0  0  0  0  0  0  0  0
  151.4970  144.4984  159.7843 C   0  0  0  0  0  0  0  0  0  0  0  0
  152.0352  145.4744  159.0544 F   0  0  0  0  0  0  0  0  0  0  0  0
  150.1878  144.7274  159.8876 F   0  0  0  0  0  0  0  0  0  0  0  0
  152.0300  144.5536  161.0053 F   0  0  0  0  0  0  0  0  0  0  0  0
  152.5955  142.1432  159.7713 C   0  0  0  0  0  0  0  0  0  0  0  0
  152.8655  140.9719  159.1622 C   0  0  0  0  0  0  0  0  0  0  0  0
  152.3445  140.6627  157.8284 C   0  0  0  0  0  0  0  0  0  0  0  0
  152.5694  139.5892  157.2692 O   0  0  0  0  0  0  0  0  0  0  0  0
  145.3043  136.4360  155.8753 H   0  0  0  0  0  0  0  0  0  0  0  0
  144.7594  137.6197  154.7001 H   0  0  0  0  0  0  0  0  0  0  0  0
  146.0794  138.0037  155.7977 H   0  0  0  0  0  0  0  0  0  0  0  0
  147.5114  136.2737  154.7613 H   0  0  0  0  0  0  0  0  0  0  0  0
  146.9273  134.9082  152.9086 H   0  0  0  0  0  0  0  0  0  0  0  0
  145.6791  134.6947  154.1052 H   0  0  0  0  0  0  0  0  0  0  0  0
  144.7440  134.9555  151.7901 H   0  0  0  0  0  0  0  0  0  0  0  0
  144.1643  136.2119  152.8558 H   0  0  0  0  0  0  0  0  0  0  0  0
  146.4404  136.4570  150.8294 H   0  0  0  0  0  0  0  0  0  0  0  0
  144.8762  137.2281  150.7245 H   0  0  0  0  0  0  0  0  0  0  0  0
  146.6353  138.7966  151.5212 H   0  0  0  0  0  0  0  0  0  0  0  0
  145.3713  138.6256  152.7114 H   0  0  0  0  0  0  0  0  0  0  0  0
  147.9983  139.6206  153.1957 H   0  0  0  0  0  0  0  0  0  0  0  0
  147.2910  139.1412  154.7197 H   0  0  0  0  0  0  0  0  0  0  0  0
  149.1593  137.7596  155.3401 H   0  0  0  0  0  0  0  0  0  0  0  0
  149.8092  137.7440  153.7176 H   0  0  0  0  0  0  0  0  0  0  0  0
  150.8174  139.7593  154.0369 H   0  0  0  0  0  0  0  0  0  0  0  0
  151.7923  141.3165  155.1629 H   0  0  0  0  0  0  0  0  0  0  0  0
  150.4864  142.3671  155.5997 H   0  0  0  0  0  0  0  0  0  0  0  0
  150.7166  143.5542  157.3273 H   0  0  0  0  0  0  0  0  0  0  0  0
  152.9983  142.3250  160.7568 H   0  0  0  0  0  0  0  0  0  0  0  0
  153.4789  140.2413  159.6689 H   0  0  0  0  0  0  0  0  0  0  0  0
  147.9071  137.1689  152.7040 H   0  0  0  0  0  0  0  0  0  0  0  0
  1  2  1  0  0  0  0
  1 25  1  0  0  0  0
  1 26  1  0  0  0  0
  1 27  1  0  0  0  0
  2  7  1  0  0  0  0
  2  3  1  0  0  0  0
  2 28  1  0  0  0  0
  3  4  1  0  0  0  0
  3 29  1  0  0  0  0
  3 30  1  0  0  0  0
  4  5  1  0  0  0  0
  4 31  1  0  0  0  0
  4 32  1  0  0  0  0
  5  6  1  0  0  0  0
  5 33  1  0  0  0  0
  5 34  1  0  0  0  0
  6  7  1  0  0  0  0
  6 35  1  0  0  0  0
  6 36  1  0  0  0  0
  7  8  1  0  0  0  0
  7 47  1  0  0  0  0
  8  9  1  0  0  0  0
  8 37  1  0  0  0  0
  8 38  1  0  0  0  0
  9 10  1  0  0  0  0
  9 39  1  0  0  0  0
  9 40  1  0  0  0  0
 10 11  1  0  0  0  0
 10 41  1  0  0  0  0
 11 12  2  0  0  0  0
 11 13  1  0  0  0  0
 13 14  1  0  0  0  0
 13 42  1  0  0  0  0
 13 43  1  0  0  0  0
 14 23  1  0  0  0  0
 14 15  1  0  0  0  0
 15 16  2  0  0  0  0
 15 44  1  0  0  0  0
 16 17  1  0  0  0  0
 16 21  1  0  0  0  0
 17 18  1  0  0  0  0
 17 19  1  0  0  0  0
 17 20  1  0  0  0  0
 21 22  2  0  0  0  0
 21 45  1  0  0  0  0
 22 23  1  0  0  0  0
 22 46  1  0  0  0  0
 23 24  2  0  0  0  0
M  CHG  1   7   1
M  END
> <s_m_source_file>
AV-unprocessed.smi

> <i_m_source_file_index>
1432

> <i_lp_mmshare_version>
43012

> <i_f3d_flags>
0

> <s_epik_input>
W0NIM11bQ0BASF0xW0NIMl1bQ0gyXVtDSDJdW0NIMl1OMVtDSDJdW0NIMl1bTkhdQyg9TylbQ0gyXW4yW2NIXWMoQyhGKShGKUYpW2NIXVtjSF1jMj1P

> <s_epik_cmdline>
J2VwaWtfcHl0aG9uJywgJy1waCcsICc3LjAnLCAnLXRuJywgJzgnLCAnLW1hJywgJzIwMCcsICctbWV0YWxfYmluZGluZycsICctaW1hZScsICc8aW5maWxlLm1hZT4nLCAnLW9tYWUnLCAnPG91dGZpbGUubWFlPic=

> <r_lp_tautomer_probability>
1

> <r_epik_Ionization_Penalty>
0.00237222

> <r_epik_Ionization_Penalty_Charging>
0.00237213

> <r_epik_Ionization_Penalty_Neutral>
8.2065e-08

> <r_epik_State_Penalty>
0.00163922

> <r_epik_Charging_Adjusted_Penalty>
0.00401135

> <i_epik_Tot_Q>
1

> <i_epik_Tot_abs_Q>
1

> <r_epik_Metal_State_Penalty>
-0

> <b_epik_Metal_Only>
0

> <s_lp_Force_Field>
OPLS_2005

> <r_lp_Energy>
30.8691

> <b_lp_Chiralities_Consistent>
1

> <s_lp_Variant>
AV-unprocessed.smi:1432-2

> <Gold.Version>
5.8.1

> <Gold.Id.Protein>
6NUR|6NUR_protein|mol2

> <Gold.PLP.Fitness>
52.5274

> <Gold.PLP.PLP>
-42.4908

> <Gold.PLP.part.hbond>
-2.0000

> <Gold.PLP.part.metal>
0.0000

> <Gold.PLP.part.buried>
-2.1595

> <Gold.PLP.part.nonpolar>
-38.1888

> <Gold.PLP.part.repulsive>
0.1500

> <Gold.PLP.ligand.clash>
0.0000

> <Gold.PLP.ligand.torsion>
0.6645

> <Gold.PLP.Chemscore.Hbond>
3.0000

> <Gold.PLP.Chemscore.CHOScore>
0.7602

> <Gold.PLP.Chemscore.Metal>
0.0000

> <Gold.Chemscore.Hbonds>
donor molecule, donor type, donor heavy atom, donor atom, acceptor molecule, acceptor atom, score
      L1  H     7    47       P1  7948  2.00
      P1  H  7997  8010       L1    24  0.85
      L1  C    15    44       P1  8028  0.52

> <Gold.PLP.Chemscore.Internal.Correction>
0.0849

> <Gold.Rescore>
     Score         DG    S(hbond)    S(metal)    S(lipo)     H(rot)  DE(clash)    DE(int)     intcor
     15.44     -16.62       1.91        0.00      86.20       2.08       0.39       0.80       ----

> <Gold.Chemscore.Fitness>
15.4417

> <Gold.Chemscore.DG>
-16.6239

> <Gold.Chemscore.ZeroCoef>
-5.4800

> <Gold.Chemscore.Hbond>
1.9083

> <Gold.Chemscore.Metal>
0.0000

> <Gold.Chemscore.Lipo>
86.1977

> <Gold.Chemscore.Internal_Hbond>
0.0000

> <Gold.Chemscore.DEClash>
0.3854

> <Gold.Chemscore.DEInternal>
0.7968

> <Gold.Chemscore.Rot>
2.0762

> <Gold.Chemscore.Internal.Correction>
   9.000000E+99

> <Gold.Chemscore.Hbonds>
donor molecule, donor type, donor heavy atom, donor atom, acceptor molecule, acceptor atom, score
      L1  H     7    47       P1  7948  1.00
      P1  H  7997  8010       L1    24  0.13

> <Gold.Chemscore.Hbond.Weighted>
-6.3738

> <Gold.Chemscore.Metal.Weighted>
-0.0000

> <Gold.Chemscore.Lipo.Weighted>
-10.0851

> <Gold.Chemscore.Internal_Hbond.Weighted>
0.0000

> <Gold.Chemscore.DEClash.Weighted>
0.3854

> <Gold.Chemscore.DEInternal.Weighted>
0.7968

> <Gold.Chemscore.Rot.Weighted>
5.3150

> <Gold.Chemscore.Internal.Correction.Weighted>
   9.000000E+99

> <Gold.Protein.RotatedTorsions>
[ 6907 6896 6895 6894 ] final   28.91 input  -60.11 | X-H torsion
[ 7974 7965 7964 7962 ] final   99.28 input  175.53 | X-H torsion
[ 8008 7997 7996 7995 ] final   72.85 input   59.86 | X-H torsion
[ 10167 10162 10161 10158 ] final -166.00 input  -65.29 | X-H torsion
[ 10718 10713 10712 10709 ] final  -60.51 input   66.30 | X-H torsion
[ 10763 10752 10751 10750 ] final  -63.38 input  -60.55 | X-H torsion
[ 11005 11000 10999 10996 ] final   94.81 input  -57.11 | X-H torsion

> <Gold.Protein.ActiveResidues>
 VAL166  LYS551  ARG553  GLY616  TRP617  ASP618  TYR619  PRO620  LYS621  CYS622 
 ASP623  PHE694  ASN695  SER759  ASP760  ASP761  ALA762  ILE779  LEU786  VAL792 
 PHE793  MET794  SER795  GLU796  ALA797  LYS798  CYS799  TRP800  GLU811  SER814 

> <Gold.Protein.RotatedAtoms>
  152.0239  134.9807  160.0570 H   0  0  0  0  0  0  0  0  0  0  0  0  # atno 6907 bound_to 6896
  152.1311  133.4403  159.4729 H   0  0  0  0  0  0  0  0  0  0  0  0  # atno 6908 bound_to 6896
  150.6856  134.2338  159.4488 H   0  0  0  0  0  0  0  0  0  0  0  0  # atno 6909 bound_to 6896
  145.4009  139.2348  143.3300 H   0  0  0  0  0  0  0  0  0  0  0  0  # atno 7974 bound_to 7965
  155.7749  140.3483  155.5266 H   0  0  0  0  0  0  0  0  0  0  0  0  # atno 8008 bound_to 7997
  155.8785  140.0998  157.1522 H   0  0  0  0  0  0  0  0  0  0  0  0  # atno 8009 bound_to 7997
  154.4023  140.1327  156.4154 H   0  0  0  0  0  0  0  0  0  0  0  0  # atno 8010 bound_to 7997
  139.6144  144.0749  152.1873 H   0  0  0  0  0  0  0  0  0  0  0  0  # atno 10167 bound_to 10162
  156.0985  130.4189  150.0864 H   0  0  0  0  0  0  0  0  0  0  0  0  # atno 10718 bound_to 10713
  154.3141  135.6209  153.5478 H   0  0  0  0  0  0  0  0  0  0  0  0  # atno 10763 bound_to 10752
  152.9826  135.5708  154.5144 H   0  0  0  0  0  0  0  0  0  0  0  0  # atno 10764 bound_to 10752
  154.4799  135.2862  155.1555 H   0  0  0  0  0  0  0  0  0  0  0  0  # atno 10765 bound_to 10752
  139.8795  134.8865  156.3919 H   0  0  0  0  0  0  0  0  0  0  0  0  # atno 11005 bound_to 11000
  146.2752  140.4706  142.8798 LP  0  0  0  0  0  0  0  0  0  0  0  0  # atno 17320 bound_to 7965
  144.8374  140.6804  143.6251 LP  0  0  0  0  0  0  0  0  0  0  0  0  # atno 17321 bound_to 7965
  140.0376  144.6032  150.7437 LP  0  0  0  0  0  0  0  0  0  0  0  0  # atno 17342 bound_to 10162
  140.7341  143.2725  151.3844 LP  0  0  0  0  0  0  0  0  0  0  0  0  # atno 17343 bound_to 10162
  156.8857  130.9572  151.3594 LP  0  0  0  0  0  0  0  0  0  0  0  0  # atno 17370 bound_to 10713
  157.6151  130.8612  149.9015 LP  0  0  0  0  0  0  0  0  0  0  0  0  # atno 17371 bound_to 10713
  140.9327  133.7568  156.0045 LP  0  0  0  0  0  0  0  0  0  0  0  0  # atno 17394 bound_to 11000
  140.8312  134.3176  157.5348 LP  0  0  0  0  0  0  0  0  0  0  0  0  # atno 17395 bound_to 11000

$$$$
