AV-unprocessed.smi:106|AV-procd|sdf|1011|dock7
  -GOLD-   2262018 13D 1   1.00000     0.00000
 Structure written by MMmdl.
 51 54  0  0  0  0  0  0  0  0  1 V2000
  151.7859  137.0321  157.6679 O   0  0  0  0  0  0  0  0  0  0  0  0
  151.6812  136.8465  156.4533 C   0  0  0  0  0  0  0  0  0  0  0  0
  152.1819  137.9392  155.4833 C   0  0  0  0  0  0  0  0  0  0  0  0
  151.4785  139.2336  155.6335 N   0  0  0  0  0  0  0  0  0  0  0  0
  150.3224  139.4690  154.8490 C   0  0  0  0  0  0  0  0  0  0  0  0
  149.9072  138.6246  154.0537 O   0  0  0  0  0  0  0  0  0  0  0  0
  149.6780  140.7612  155.0497 C   0  0  0  0  0  0  0  0  0  0  0  0
  148.5583  141.0602  154.3694 F   0  0  0  0  0  0  0  0  0  0  0  0
  150.1866  141.6635  155.9135 C   0  0  0  0  0  0  0  0  0  0  0  0
  151.3365  141.4394  156.6450 N   0  0  0  0  0  0  0  0  0  0  0  0
  151.8070  142.5049  157.6111 C   0  0  2  0  0  0  0  0  0  0  0  0
  152.1550  141.9663  159.0069 C   0  0  0  0  0  0  0  0  0  0  0  0
  151.7163  143.1190  159.8837 C   0  0  0  0  0  0  0  0  0  0  0  0
  150.4926  143.6381  159.1364 C   0  0  0  0  0  0  0  0  0  0  0  0
  150.8047  143.4696  157.7558 O   0  0  0  0  0  0  0  0  0  0  0  0
  151.9995  140.1942  156.5346 C   0  0  0  0  0  0  0  0  0  0  0  0
  153.0053  139.9471  157.2011 O   0  0  0  0  0  0  0  0  0  0  0  0
  151.1384  135.7133  155.9439 N   0  0  0  0  0  0  0  0  0  0  0  0
  150.9464  135.4783  154.5048 C   0  0  0  0  0  0  0  0  0  0  0  0
  149.7911  134.5008  154.2132 C   0  0  0  0  0  0  0  0  0  0  0  0
  149.9371  133.2131  154.9075 N   0  0  0  0  0  0  0  0  0  0  0  0
  149.2670  132.1213  154.4581 C   0  0  0  0  0  0  0  0  0  0  0  0
  149.4655  130.9977  154.9246 O   0  0  0  0  0  0  0  0  0  0  0  0
  148.2505  132.2784  153.3874 C   0  0  0  0  0  0  0  0  0  0  0  0
  148.2686  132.9179  152.1710 C   0  0  0  0  0  0  0  0  0  0  0  0
  147.0217  132.8534  151.4825 C   0  0  0  0  0  0  0  0  0  0  0  0
  146.0564  132.1898  152.1912 C   0  0  0  0  0  0  0  0  0  0  0  0
  146.6585  131.6390  153.7301 S   0  0  0  0  0  0  0  0  0  0  0  0
  150.7360  133.2477  156.1424 C   0  0  0  0  0  0  0  0  0  0  0  0
  150.7001  134.6255  156.8309 C   0  0  0  0  0  0  0  0  0  0  0  0
  153.2555  138.0771  155.6211 H   0  0  0  0  0  0  0  0  0  0  0  0
  152.0867  137.5690  154.4620 H   0  0  0  0  0  0  0  0  0  0  0  0
  149.6674  142.6040  156.0266 H   0  0  0  0  0  0  0  0  0  0  0  0
  152.6657  142.9830  157.1383 H   0  0  0  0  0  0  0  0  0  0  0  0
  151.5887  141.0668  159.2445 H   0  0  0  0  0  0  0  0  0  0  0  0
  153.2187  141.7396  159.0839 H   0  0  0  0  0  0  0  0  0  0  0  0
  151.4955  142.8187  160.9084 H   0  0  0  0  0  0  0  0  0  0  0  0
  152.4917  143.8859  159.9097 H   0  0  0  0  0  0  0  0  0  0  0  0
  149.6126  143.0445  159.3848 H   0  0  0  0  0  0  0  0  0  0  0  0
  150.2714  144.6798  159.3695 H   0  0  0  0  0  0  0  0  0  0  0  0
  150.7277  136.4027  153.9711 H   0  0  0  0  0  0  0  0  0  0  0  0
  151.8769  135.0890  154.0893 H   0  0  0  0  0  0  0  0  0  0  0  0
  148.8429  134.9509  154.5118 H   0  0  0  0  0  0  0  0  0  0  0  0
  149.7387  134.3512  153.1333 H   0  0  0  0  0  0  0  0  0  0  0  0
  149.1225  133.4283  151.7517 H   0  0  0  0  0  0  0  0  0  0  0  0
  146.8762  133.2974  150.5088 H   0  0  0  0  0  0  0  0  0  0  0  0
  145.0303  132.0021  151.9117 H   0  0  0  0  0  0  0  0  0  0  0  0
  150.3768  132.5147  156.8655 H   0  0  0  0  0  0  0  0  0  0  0  0
  151.7664  132.9835  155.9023 H   0  0  0  0  0  0  0  0  0  0  0  0
  151.3262  134.5694  157.7230 H   0  0  0  0  0  0  0  0  0  0  0  0
  149.6881  134.8435  157.1750 H   0  0  0  0  0  0  0  0  0  0  0  0
  1  2  2  0  0  0  0
  2  3  1  0  0  0  0
  2 18  1  0  0  0  0
  3  4  1  0  0  0  0
  3 31  1  0  0  0  0
  3 32  1  0  0  0  0
  4 16  1  0  0  0  0
  4  5  1  0  0  0  0
  5  6  2  0  0  0  0
  5  7  1  0  0  0  0
  7  8  1  0  0  0  0
  7  9  2  0  0  0  0
  9 10  1  0  0  0  0
  9 33  1  0  0  0  0
 10 11  1  0  0  0  0
 10 16  1  0  0  0  0
 11 15  1  0  0  0  0
 11 12  1  0  0  0  0
 11 34  1  0  0  0  0
 12 13  1  0  0  0  0
 12 35  1  0  0  0  0
 12 36  1  0  0  0  0
 13 14  1  0  0  0  0
 13 37  1  0  0  0  0
 13 38  1  0  0  0  0
 14 15  1  0  0  0  0
 14 39  1  0  0  0  0
 14 40  1  0  0  0  0
 16 17  2  0  0  0  0
 18 30  1  0  0  0  0
 18 19  1  0  0  0  0
 19 20  1  0  0  0  0
 19 41  1  0  0  0  0
 19 42  1  0  0  0  0
 20 21  1  0  0  0  0
 20 43  1  0  0  0  0
 20 44  1  0  0  0  0
 21 22  1  0  0  0  0
 21 29  1  0  0  0  0
 22 23  2  0  0  0  0
 22 24  1  0  0  0  0
 24 28  1  0  0  0  0
 24 25  2  0  0  0  0
 25 26  1  0  0  0  0
 25 45  1  0  0  0  0
 26 27  2  0  0  0  0
 26 46  1  0  0  0  0
 27 28  1  0  0  0  0
 27 47  1  0  0  0  0
 29 30  1  0  0  0  0
 29 48  1  0  0  0  0
 29 49  1  0  0  0  0
 30 50  1  0  0  0  0
 30 51  1  0  0  0  0
M  END
> <s_m_source_file>
AV-unprocessed.smi

> <i_m_source_file_index>
106

> <i_lp_mmshare_version>
43012

> <i_f3d_flags>
0

> <s_epik_input>
czFbY0hdW2NIXVtjSF1jMUMoPU8pTihbQ0gyXVtDSDJdMilbQ0gyXVtDSDJdTjJDKD1PKVtDSDJdbjNjKD1PKWMoRilbY0hdbihjMz1PKVtDQEBIXTRbQ0gyXVtDSDJdW0NIMl1PNA==

> <s_epik_cmdline>
J2VwaWtfcHl0aG9uJywgJy1waCcsICc3LjAnLCAnLXRuJywgJzgnLCAnLW1hJywgJzIwMCcsICctbWV0YWxfYmluZGluZycsICctaW1hZScsICc8aW5maWxlLm1hZT4nLCAnLW9tYWUnLCAnPG91dGZpbGUubWFlPic=

> <r_lp_tautomer_probability>
1

> <r_epik_Ionization_Penalty>
4.82844e-09

> <r_epik_Ionization_Penalty_Charging>
4.20153e-09

> <r_epik_Ionization_Penalty_Neutral>
6.26919e-10

> <r_epik_State_Penalty>
-0

> <r_epik_Charging_Adjusted_Penalty>
4.20153e-09

> <i_epik_Tot_Q>
0

> <i_epik_Tot_abs_Q>
0

> <r_epik_Metal_State_Penalty>
-0

> <b_epik_Metal_Only>
0

> <s_epik_Chemistry_Notes>
This compound contains an acetal/aminal-like group ( X-CH(R)-Y where X, Y are N, S, or O) that may be acid/base labile, releasing an aldehyde.

> <s_lp_Force_Field>
OPLS_2005

> <r_lp_Energy>
67.8789

> <b_lp_Chiralities_Consistent>
1

> <s_lp_Variant>
AV-unprocessed.smi:106-1

> <Gold.Version>
5.8.1

> <Gold.Id.Protein>
6NUR|6NUR_protein|mol2

> <Gold.PLP.Fitness>
49.4622

> <Gold.PLP.PLP>
-46.2046

> <Gold.PLP.part.hbond>
-1.0000

> <Gold.PLP.part.metal>
0.0000

> <Gold.PLP.part.buried>
-1.8919

> <Gold.PLP.part.nonpolar>
-43.3786

> <Gold.PLP.part.repulsive>
0.9624

> <Gold.PLP.ligand.clash>
0.0339

> <Gold.PLP.ligand.torsion>
1.6372

> <Gold.PLP.Chemscore.Hbond>
1.0000

> <Gold.PLP.Chemscore.CHOScore>
1.0000

> <Gold.PLP.Chemscore.Metal>
0.0000

> <Gold.Chemscore.Hbonds>
donor molecule, donor type, donor heavy atom, donor atom, acceptor molecule, acceptor atom, score
      P1  H  7997  8009       L1    17  0.91
      L1  C     9    33       P1  8028  1.00

> <Gold.PLP.Chemscore.Internal.Correction>
0.5659

> <Gold.Rescore>
     Score         DG    S(hbond)    S(metal)    S(lipo)     H(rot)  DE(clash)    DE(int)     intcor
     10.90     -15.67       0.96        0.00      95.22       1.63       0.52       4.25       ----

> <Gold.Chemscore.Fitness>
10.8969

> <Gold.Chemscore.DG>
-15.6665

> <Gold.Chemscore.ZeroCoef>
-5.4800

> <Gold.Chemscore.Hbond>
0.9600

> <Gold.Chemscore.Metal>
0.0000

> <Gold.Chemscore.Lipo>
95.2195

> <Gold.Chemscore.Internal_Hbond>
0.0000

> <Gold.Chemscore.DEClash>
0.5159

> <Gold.Chemscore.DEInternal>
4.2537

> <Gold.Chemscore.Rot>
1.6252

> <Gold.Chemscore.Internal.Correction>
   9.000000E+99

> <Gold.Chemscore.Hbonds>
donor molecule, donor type, donor heavy atom, donor atom, acceptor molecule, acceptor atom, score
      P1  H  7997  8009       L1    17  0.85

> <Gold.Chemscore.Hbond.Weighted>
-3.2063

> <Gold.Chemscore.Metal.Weighted>
-0.0000

> <Gold.Chemscore.Lipo.Weighted>
-11.1407

> <Gold.Chemscore.Internal_Hbond.Weighted>
0.0000

> <Gold.Chemscore.DEClash.Weighted>
0.5159

> <Gold.Chemscore.DEInternal.Weighted>
4.2537

> <Gold.Chemscore.Rot.Weighted>
4.1605

> <Gold.Chemscore.Internal.Correction.Weighted>
   9.000000E+99

> <Gold.Protein.RotatedTorsions>
[ 6907 6896 6895 6894 ] final -150.39 input  -60.11 | X-H torsion
[ 7974 7965 7964 7962 ] final  -79.83 input  175.53 | X-H torsion
[ 8008 7997 7996 7995 ] final  158.22 input   59.86 | X-H torsion
[ 10167 10162 10161 10158 ] final -106.45 input  -65.29 | X-H torsion
[ 10718 10713 10712 10709 ] final   80.07 input   66.30 | X-H torsion
[ 10763 10752 10751 10750 ] final   97.58 input  -60.55 | X-H torsion
[ 11005 11000 10999 10996 ] final -100.47 input  -57.11 | X-H torsion

> <Gold.Protein.ActiveResidues>
 VAL166  LYS551  ARG553  GLY616  TRP617  ASP618  TYR619  PRO620  LYS621  CYS622 
 ASP623  PHE694  ASN695  SER759  ASP760  ASP761  ALA762  ILE779  LEU786  VAL792 
 PHE793  MET794  SER795  GLU796  ALA797  LYS798  CYS799  TRP800  GLU811  SER814 

> <Gold.Protein.RotatedAtoms>
  151.1978  133.4629  159.2595 H   0  0  0  0  0  0  0  0  0  0  0  0  # atno 6907 bound_to 6896
  151.1099  135.0021  159.8499 H   0  0  0  0  0  0  0  0  0  0  0  0  # atno 6908 bound_to 6896
  152.5449  134.1898  159.8722 H   0  0  0  0  0  0  0  0  0  0  0  0  # atno 6909 bound_to 6896
  145.5680  140.9471  143.1411 H   0  0  0  0  0  0  0  0  0  0  0  0  # atno 7974 bound_to 7965
  156.2316  140.1864  156.7227 H   0  0  0  0  0  0  0  0  0  0  0  0  # atno 8008 bound_to 7997
  154.6033  140.0633  156.9425 H   0  0  0  0  0  0  0  0  0  0  0  0  # atno 8009 bound_to 7997
  155.2138  140.3302  155.4327 H   0  0  0  0  0  0  0  0  0  0  0  0  # atno 8010 bound_to 7997
  140.1876  143.3917  152.1232 H   0  0  0  0  0  0  0  0  0  0  0  0  # atno 10167 bound_to 10162
  157.6795  130.9943  150.2025 H   0  0  0  0  0  0  0  0  0  0  0  0  # atno 10718 bound_to 10713
  153.2786  135.4178  155.1057 H   0  0  0  0  0  0  0  0  0  0  0  0  # atno 10763 bound_to 10752
  154.8481  135.3490  154.6143 H   0  0  0  0  0  0  0  0  0  0  0  0  # atno 10764 bound_to 10752
  153.6563  135.7050  153.5249 H   0  0  0  0  0  0  0  0  0  0  0  0  # atno 10765 bound_to 10752
  141.1269  133.8402  157.1107 H   0  0  0  0  0  0  0  0  0  0  0  0  # atno 11005 bound_to 11000
  144.7451  139.7342  143.7295 LP  0  0  0  0  0  0  0  0  0  0  0  0  # atno 17320 bound_to 7965
  146.1804  139.4994  142.9870 LP  0  0  0  0  0  0  0  0  0  0  0  0  # atno 17321 bound_to 7965
  139.5269  144.7113  151.5195 LP  0  0  0  0  0  0  0  0  0  0  0  0  # atno 17342 bound_to 10162
  140.6477  143.8760  150.6754 LP  0  0  0  0  0  0  0  0  0  0  0  0  # atno 17343 bound_to 10162
  156.2713  130.3722  149.8028 LP  0  0  0  0  0  0  0  0  0  0  0  0  # atno 17370 bound_to 10713
  156.5744  130.8439  151.3366 LP  0  0  0  0  0  0  0  0  0  0  0  0  # atno 17371 bound_to 10713
  140.0277  134.9916  157.0718 LP  0  0  0  0  0  0  0  0  0  0  0  0  # atno 17394 bound_to 11000
  140.4336  134.1755  155.7169 LP  0  0  0  0  0  0  0  0  0  0  0  0  # atno 17395 bound_to 11000

$$$$
