AV-unprocessed.smi:1694|AV-procd|sdf|6788|dock5
  -GOLD-   22720 7553D 1   1.00000     0.00000
 Structure written by MMmdl.
 34 35  0  0  0  0  0  0  0  0  1 V2000
  151.3027  144.8604  157.8001 C   0  0  0  0  0  0  0  0  0  0  0  0
  150.9705  143.8809  158.9148 C   0  0  0  0  0  0  0  0  0  0  0  0
  151.5731  144.0497  160.1796 C   0  0  0  0  0  0  0  0  0  0  0  0
  151.2684  143.1463  161.2114 C   0  0  0  0  0  0  0  0  0  0  0  0
  150.3677  142.1052  160.9322 C   0  0  0  0  0  0  0  0  0  0  0  0
  149.7874  141.9373  159.7265 N   0  0  0  0  0  0  0  0  0  0  0  0
  150.0689  142.8000  158.7161 C   0  0  0  0  0  0  0  0  0  0  0  0
  149.4994  142.6995  157.4082 N   0  0  0  0  0  0  0  0  0  0  0  0
  148.9380  141.6660  156.7443 C   0  0  0  0  0  0  0  0  0  0  0  0
  148.8462  140.5551  157.2642 O   0  0  0  0  0  0  0  0  0  0  0  0
  148.4953  141.9233  155.5030 N   0  0  0  0  0  0  0  0  0  0  0  0
  147.8606  140.9615  154.6090 C   0  0  1  0  0  0  0  0  0  0  0  0
  147.6911  141.5851  153.2182 C   0  0  0  0  0  0  0  0  0  0  0  0
  147.0069  140.6048  152.2528 C   0  0  0  0  0  0  0  0  0  0  0  0
  147.5939  139.1866  152.3069 C   0  0  0  0  0  0  0  0  0  0  0  0
  147.3799  138.4088  151.3800 O   0  0  0  0  0  0  0  0  0  0  0  0
  148.3023  138.8137  153.3873 N   0  0  0  0  0  0  0  0  0  0  0  0
  148.6976  139.6705  154.5048 C   0  0  0  0  0  0  0  0  0  0  0  0
  152.0242  145.6082  158.1302 H   0  0  0  0  0  0  0  0  0  0  0  0
  150.4043  145.3838  157.4717 H   0  0  0  0  0  0  0  0  0  0  0  0
  151.7314  144.3368  156.9450 H   0  0  0  0  0  0  0  0  0  0  0  0
  152.2622  144.8617  160.3605 H   0  0  0  0  0  0  0  0  0  0  0  0
  151.7131  143.2493  162.1901 H   0  0  0  0  0  0  0  0  0  0  0  0
  150.1051  141.3879  161.6956 H   0  0  0  0  0  0  0  0  0  0  0  0
  149.5134  143.5638  156.8868 H   0  0  0  0  0  0  0  0  0  0  0  0
  148.6103  142.8641  155.1523 H   0  0  0  0  0  0  0  0  0  0  0  0
  146.8693  140.7163  154.9957 H   0  0  0  0  0  0  0  0  0  0  0  0
  147.1017  142.5005  153.2858 H   0  0  0  0  0  0  0  0  0  0  0  0
  148.6643  141.8739  152.8178 H   0  0  0  0  0  0  0  0  0  0  0  0
  145.9469  140.5322  152.4987 H   0  0  0  0  0  0  0  0  0  0  0  0
  147.0648  140.9845  151.2322 H   0  0  0  0  0  0  0  0  0  0  0  0
  148.6455  137.8641  153.4091 H   0  0  0  0  0  0  0  0  0  0  0  0
  149.7508  139.9183  154.3665 H   0  0  0  0  0  0  0  0  0  0  0  0
  148.6303  139.0977  155.4302 H   0  0  0  0  0  0  0  0  0  0  0  0
  1  2  1  0  0  0  0
  1 19  1  0  0  0  0
  1 20  1  0  0  0  0
  1 21  1  0  0  0  0
  2  7  1  0  0  0  0
  2  3  2  0  0  0  0
  3  4  1  0  0  0  0
  3 22  1  0  0  0  0
  4  5  2  0  0  0  0
  4 23  1  0  0  0  0
  5  6  1  0  0  0  0
  5 24  1  0  0  0  0
  6  7  2  0  0  0  0
  7  8  1  0  0  0  0
  8  9  1  0  0  0  0
  8 25  1  0  0  0  0
  9 10  2  0  0  0  0
  9 11  1  0  0  0  0
 11 12  1  0  0  0  0
 11 26  1  0  0  0  0
 12 18  1  0  0  0  0
 12 13  1  0  0  0  0
 12 27  1  0  0  0  0
 13 14  1  0  0  0  0
 13 28  1  0  0  0  0
 13 29  1  0  0  0  0
 14 15  1  0  0  0  0
 14 30  1  0  0  0  0
 14 31  1  0  0  0  0
 15 16  2  0  0  0  0
 15 17  1  0  0  0  0
 17 18  1  0  0  0  0
 17 32  1  0  0  0  0
 18 33  1  0  0  0  0
 18 34  1  0  0  0  0
M  END
> <s_m_source_file>
AV-unprocessed.smi

> <i_m_source_file_index>
1694

> <i_lp_mmshare_version>
43012

> <i_f3d_flags>
0

> <s_epik_input>
W0NIM11jMVtjSF1bY0hdW2NIXW5jMVtOSF1DKD1PKVtOSF1bQ0BASF0yW0NIMl1bQ0gyXUMoPU8pW05IXVtDSDJdMg==

> <s_epik_cmdline>
J2VwaWtfcHl0aG9uJywgJy1waCcsICc3LjAnLCAnLXRuJywgJzgnLCAnLW1hJywgJzIwMCcsICctbWV0YWxfYmluZGluZycsICctaW1hZScsICc8aW5maWxlLm1hZT4nLCAnLW9tYWUnLCAnPG91dGZpbGUubWFlPic=

> <r_lp_tautomer_probability>
1

> <r_epik_Ionization_Penalty>
5.3746e-05

> <r_epik_Ionization_Penalty_Charging>
0

> <r_epik_Ionization_Penalty_Neutral>
5.3746e-05

> <r_epik_State_Penalty>
-0

> <r_epik_Charging_Adjusted_Penalty>
0

> <i_epik_Tot_Q>
0

> <i_epik_Tot_abs_Q>
0

> <r_epik_Metal_State_Penalty>
-0

> <b_epik_Metal_Only>
0

> <s_lp_Force_Field>
OPLS_2005

> <r_lp_Energy>
12.9855

> <b_lp_Chiralities_Consistent>
1

> <s_lp_Variant>
AV-unprocessed.smi:1694-2

> <Gold.Version>
5.8.1

> <Gold.Id.Protein>
6NUR|6NUR_protein|mol2

> <Gold.PLP.Fitness>
44.3842

> <Gold.PLP.PLP>
-32.7877

> <Gold.PLP.part.hbond>
-4.9863

> <Gold.PLP.part.metal>
0.0000

> <Gold.PLP.part.buried>
0.0675

> <Gold.PLP.part.nonpolar>
-30.2218

> <Gold.PLP.part.repulsive>
1.3890

> <Gold.PLP.ligand.clash>
0.0000

> <Gold.PLP.ligand.torsion>
0.1761

> <Gold.PLP.Chemscore.Hbond>
3.9825

> <Gold.PLP.Chemscore.CHOScore>
0.0000

> <Gold.PLP.Chemscore.Metal>
0.0000

> <Gold.Chemscore.Hbonds>
donor molecule, donor type, donor heavy atom, donor atom, acceptor molecule, acceptor atom, score
      L1  H     8    25       P1  8028  1.00
      L1  H    11    26       P1  8028  0.91
      L1  H    17    32       P1  7948  0.30
      P1  H  7954  7966       L1    16  1.00

> <Gold.PLP.Chemscore.Internal.Correction>
0.0013

> <Gold.Rescore>
     Score         DG    S(hbond)    S(metal)    S(lipo)     H(rot)  DE(clash)    DE(int)     intcor
     17.63     -25.83       3.71        0.00      89.77       1.00       5.36       2.84       ----

> <Gold.Chemscore.Fitness>
17.6255

> <Gold.Chemscore.DG>
-25.8255

> <Gold.Chemscore.ZeroCoef>
-5.4800

> <Gold.Chemscore.Hbond>
3.7134

> <Gold.Chemscore.Metal>
0.0000

> <Gold.Chemscore.Lipo>
89.7658

> <Gold.Chemscore.Internal_Hbond>
0.0000

> <Gold.Chemscore.DEClash>
5.3617

> <Gold.Chemscore.DEInternal>
2.8383

> <Gold.Chemscore.Rot>
1.0000

> <Gold.Chemscore.Internal.Correction>
   9.000000E+99

> <Gold.Chemscore.Hbonds>
donor molecule, donor type, donor heavy atom, donor atom, acceptor molecule, acceptor atom, score
      L1  H     8    25       P1  8028  0.93
      L1  H    11    26       P1  8028  0.88
      L1  H    17    32       P1  7948  0.30
      P1  H  7954  7966       L1    16  0.99

> <Gold.Chemscore.Hbond.Weighted>
-12.4029

> <Gold.Chemscore.Metal.Weighted>
-0.0000

> <Gold.Chemscore.Lipo.Weighted>
-10.5026

> <Gold.Chemscore.Internal_Hbond.Weighted>
0.0000

> <Gold.Chemscore.DEClash.Weighted>
5.3617

> <Gold.Chemscore.DEInternal.Weighted>
2.8383

> <Gold.Chemscore.Rot.Weighted>
2.5600

> <Gold.Chemscore.Internal.Correction.Weighted>
   9.000000E+99

> <Gold.Protein.RotatedTorsions>
[ 6907 6896 6895 6894 ] final -137.34 input  -60.11 | X-H torsion
[ 7974 7965 7964 7962 ] final  -26.76 input  175.53 | X-H torsion
[ 8008 7997 7996 7995 ] final  -24.86 input   59.86 | X-H torsion
[ 10167 10162 10161 10158 ] final   41.78 input  -65.29 | X-H torsion
[ 10718 10713 10712 10709 ] final  -16.41 input   66.30 | X-H torsion
[ 10763 10752 10751 10750 ] final  -14.80 input  -60.55 | X-H torsion
[ 11005 11000 10999 10996 ] final  165.10 input  -57.11 | X-H torsion

> <Gold.Protein.ActiveResidues>
 VAL166  LYS551  ARG553  GLY616  TRP617  ASP618  TYR619  PRO620  LYS621  CYS622 
 ASP623  PHE694  ASN695  SER759  ASP760  ASP761  ALA762  ILE779  LEU786  VAL792 
 PHE793  MET794  SER795  GLU796  ALA797  LYS798  CYS799  TRP800  GLU811  SER814 

> <Gold.Protein.RotatedAtoms>
  151.0212  133.5875  159.2670 H   0  0  0  0  0  0  0  0  0  0  0  0  # atno 6907 bound_to 6896
  151.2991  135.0762  159.9242 H   0  0  0  0  0  0  0  0  0  0  0  0  # atno 6908 bound_to 6896
  152.5323  133.9897  159.7899 H   0  0  0  0  0  0  0  0  0  0  0  0  # atno 6909 bound_to 6896
  146.1404  140.5062  142.8654 H   0  0  0  0  0  0  0  0  0  0  0  0  # atno 7974 bound_to 7965
  154.4506  140.1942  156.0530 H   0  0  0  0  0  0  0  0  0  0  0  0  # atno 8008 bound_to 7997
  156.0640  140.3293  155.7468 H   0  0  0  0  0  0  0  0  0  0  0  0  # atno 8009 bound_to 7997
  155.5368  140.0583  157.2869 H   0  0  0  0  0  0  0  0  0  0  0  0  # atno 8010 bound_to 7997
  140.3609  144.2230  150.6138 H   0  0  0  0  0  0  0  0  0  0  0  0  # atno 10167 bound_to 10162
  156.5879  130.4791  149.6292 H   0  0  0  0  0  0  0  0  0  0  0  0  # atno 10718 bound_to 10713
  153.5338  135.7014  153.5670 H   0  0  0  0  0  0  0  0  0  0  0  0  # atno 10763 bound_to 10752
  153.3666  135.3955  155.1758 H   0  0  0  0  0  0  0  0  0  0  0  0  # atno 10764 bound_to 10752
  154.8681  135.3801  154.4837 H   0  0  0  0  0  0  0  0  0  0  0  0  # atno 10765 bound_to 10752
  140.2527  134.7964  157.3517 H   0  0  0  0  0  0  0  0  0  0  0  0  # atno 11005 bound_to 11000
  144.7786  140.5792  143.6621 LP  0  0  0  0  0  0  0  0  0  0  0  0  # atno 17320 bound_to 7965
  145.5060  139.1481  143.3631 LP  0  0  0  0  0  0  0  0  0  0  0  0  # atno 17321 bound_to 7965
  140.5128  143.2286  151.8509 LP  0  0  0  0  0  0  0  0  0  0  0  0  # atno 17342 bound_to 10162
  139.4814  144.4929  151.9161 LP  0  0  0  0  0  0  0  0  0  0  0  0  # atno 17343 bound_to 10162
  156.2575  130.6943  151.1701 LP  0  0  0  0  0  0  0  0  0  0  0  0  # atno 17370 bound_to 10713
  157.7311  131.0611  150.5696 LP  0  0  0  0  0  0  0  0  0  0  0  0  # atno 17371 bound_to 10713
  140.1542  134.4811  155.7939 LP  0  0  0  0  0  0  0  0  0  0  0  0  # atno 17394 bound_to 11000
  141.2199  133.6875  156.7432 LP  0  0  0  0  0  0  0  0  0  0  0  0  # atno 17395 bound_to 11000

$$$$
