AV-unprocessed.smi:435|AV-procd|sdf|2556|dock10
  -GOLD-   2262022523D 1   1.00000     0.00000
 Structure written by MMmdl.
 44 45  0  0  0  0  0  0  0  0  1 V2000
  152.4695  143.4687  162.1137 C   0  0  0  0  0  0  0  0  0  0  0  0
  152.5832  142.6301  160.8691 C   0  0  0  0  0  0  0  0  0  0  0  0
  151.8168  142.9539  159.8800 N   0  0  0  0  0  0  0  0  0  0  0  0
  151.8402  142.2506  158.6913 N   0  0  0  0  0  0  0  0  0  0  0  0
  150.9222  142.7717  157.6676 C   0  0  0  0  0  0  0  0  0  0  0  0
  150.0690  141.6822  157.0009 C   0  0  0  0  0  0  0  0  0  0  0  0
  150.1050  140.5179  157.4019 O   0  0  0  0  0  0  0  0  0  0  0  0
  149.3159  142.0799  155.9642 N   0  0  0  0  0  0  0  0  0  0  0  0
  148.4257  141.2222  155.1880 C   0  0  2  0  0  0  0  0  0  0  0  0
  149.1826  139.9906  154.6514 C   0  0  0  0  0  0  0  0  0  0  0  0
  148.2790  139.1176  153.7655 C   0  0  0  0  0  0  0  0  0  0  0  0
  147.6702  139.9256  152.6038 C   0  0  1  0  0  0  0  0  0  0  0  0
  146.7660  139.0508  151.7242 C   0  0  0  0  0  0  0  0  0  0  0  0
  146.9130  141.1533  153.1449 C   0  0  0  0  0  0  0  0  0  0  0  0
  147.8146  142.0300  154.0289 C   0  0  0  0  0  0  0  0  0  0  0  0
  152.6300  141.1651  158.4466 C   0  0  0  0  0  0  0  0  0  0  0  0
  152.6047  140.5552  157.3765 O   0  0  0  0  0  0  0  0  0  0  0  0
  153.4994  140.8073  159.5694 C   0  0  0  0  0  0  0  0  0  0  0  0
  154.3495  139.6815  159.3523 C   0  0  0  0  0  0  0  0  0  0  0  0
  155.0433  138.7756  159.1572 N   0  0  0  0  0  0  0  0  0  0  0  0
  153.4965  141.4992  160.7361 C   0  0  0  0  0  0  0  0  0  0  0  0
  154.3794  141.1648  161.9308 C   0  0  0  0  0  0  0  0  0  0  0  0
  152.2938  142.8435  162.9891 H   0  0  0  0  0  0  0  0  0  0  0  0
  151.6457  144.1811  162.0498 H   0  0  0  0  0  0  0  0  0  0  0  0
  153.3847  144.0364  162.2810 H   0  0  0  0  0  0  0  0  0  0  0  0
  150.2696  143.5291  158.1060 H   0  0  0  0  0  0  0  0  0  0  0  0
  151.4816  143.2864  156.8845 H   0  0  0  0  0  0  0  0  0  0  0  0
  149.3543  143.0533  155.6982 H   0  0  0  0  0  0  0  0  0  0  0  0
  147.6108  140.8839  155.8311 H   0  0  0  0  0  0  0  0  0  0  0  0
  150.0514  140.3123  154.0755 H   0  0  0  0  0  0  0  0  0  0  0  0
  149.5659  139.3923  155.4788 H   0  0  0  0  0  0  0  0  0  0  0  0
  148.8542  138.2775  153.3746 H   0  0  0  0  0  0  0  0  0  0  0  0
  147.4819  138.6884  154.3742 H   0  0  0  0  0  0  0  0  0  0  0  0
  148.4889  140.2843  151.9781 H   0  0  0  0  0  0  0  0  0  0  0  0
  145.9208  138.6584  152.2905 H   0  0  0  0  0  0  0  0  0  0  0  0
  147.3162  138.2023  151.3166 H   0  0  0  0  0  0  0  0  0  0  0  0
  146.3681  139.6193  150.8833 H   0  0  0  0  0  0  0  0  0  0  0  0
  146.5261  141.7478  152.3166 H   0  0  0  0  0  0  0  0  0  0  0  0
  146.0463  140.8278  153.7219 H   0  0  0  0  0  0  0  0  0  0  0  0
  147.2379  142.8685  154.4212 H   0  0  0  0  0  0  0  0  0  0  0  0
  148.6091  142.4607  153.4178 H   0  0  0  0  0  0  0  0  0  0  0  0
  155.1359  140.4197  161.6865 H   0  0  0  0  0  0  0  0  0  0  0  0
  153.7761  140.7702  162.7486 H   0  0  0  0  0  0  0  0  0  0  0  0
  154.9050  142.0511  162.2871 H   0  0  0  0  0  0  0  0  0  0  0  0
  1  2  1  0  0  0  0
  1 23  1  0  0  0  0
  1 24  1  0  0  0  0
  1 25  1  0  0  0  0
  2 21  1  0  0  0  0
  2  3  2  0  0  0  0
  3  4  1  0  0  0  0
  4  5  1  0  0  0  0
  4 16  1  0  0  0  0
  5  6  1  0  0  0  0
  5 26  1  0  0  0  0
  5 27  1  0  0  0  0
  6  7  2  0  0  0  0
  6  8  1  0  0  0  0
  8  9  1  0  0  0  0
  8 28  1  0  0  0  0
  9 15  1  0  0  0  0
  9 10  1  0  0  0  0
  9 29  1  0  0  0  0
 10 11  1  0  0  0  0
 10 30  1  0  0  0  0
 10 31  1  0  0  0  0
 11 12  1  0  0  0  0
 11 32  1  0  0  0  0
 11 33  1  0  0  0  0
 12 13  1  0  0  0  0
 12 14  1  0  0  0  0
 12 34  1  0  0  0  0
 13 35  1  0  0  0  0
 13 36  1  0  0  0  0
 13 37  1  0  0  0  0
 14 15  1  0  0  0  0
 14 38  1  0  0  0  0
 14 39  1  0  0  0  0
 15 40  1  0  0  0  0
 15 41  1  0  0  0  0
 16 17  2  0  0  0  0
 16 18  1  0  0  0  0
 18 19  1  0  0  0  0
 18 21  2  0  0  0  0
 19 20  3  0  0  0  0
 21 22  1  0  0  0  0
 22 42  1  0  0  0  0
 22 43  1  0  0  0  0
 22 44  1  0  0  0  0
M  END
> <s_m_source_file>
AV-unprocessed.smi

> <i_m_source_file_index>
435

> <i_lp_mmshare_version>
43012

> <i_f3d_flags>
0

> <s_epik_input>
TiNDYyhjMVtDSDNdKWMoPU8pbihuYzFbQ0gzXSlbQ0gyXUMoPU8pW05IXVtDQEBIXTJbQ0gyXVtDSDJdW0NAQEhdKFtDSDNdKVtDSDJdW0NIMl0y

> <s_epik_cmdline>
J2VwaWtfcHl0aG9uJywgJy1waCcsICc3LjAnLCAnLXRuJywgJzgnLCAnLW1hJywgJzIwMCcsICctbWV0YWxfYmluZGluZycsICctaW1hZScsICc8aW5maWxlLm1hZT4nLCAnLW9tYWUnLCAnPG91dGZpbGUubWFlPic=

> <r_lp_tautomer_probability>
1

> <r_epik_Ionization_Penalty>
1.90703e-08

> <r_epik_Ionization_Penalty_Charging>
2.32563e-11

> <r_epik_Ionization_Penalty_Neutral>
1.90471e-08

> <r_epik_State_Penalty>
-0

> <r_epik_Charging_Adjusted_Penalty>
2.32563e-11

> <i_epik_Tot_Q>
0

> <i_epik_Tot_abs_Q>
0

> <r_epik_Metal_State_Penalty>
-0

> <b_epik_Metal_Only>
0

> <s_lp_Force_Field>
OPLS_2005

> <r_lp_Energy>
23.1706

> <b_lp_Chiralities_Consistent>
1

> <s_lp_Variant>
AV-unprocessed.smi:435-1

> <Gold.Version>
5.8.1

> <Gold.Id.Protein>
6NUR|6NUR_protein|mol2

> <Gold.PLP.Fitness>
44.8292

> <Gold.PLP.PLP>
-42.2191

> <Gold.PLP.part.hbond>
-2.0000

> <Gold.PLP.part.metal>
0.0000

> <Gold.PLP.part.buried>
2.2510

> <Gold.PLP.part.nonpolar>
-41.9472

> <Gold.PLP.part.repulsive>
0.1131

> <Gold.PLP.ligand.clash>
0.0000

> <Gold.PLP.ligand.torsion>
0.1970

> <Gold.PLP.Chemscore.Hbond>
1.0000

> <Gold.PLP.Chemscore.CHOScore>
0.0000

> <Gold.PLP.Chemscore.Metal>
0.0000

> <Gold.Chemscore.Hbonds>
donor molecule, donor type, donor heavy atom, donor atom, acceptor molecule, acceptor atom, score
      L1  H     8    28       P1  8028  1.00

> <Gold.PLP.Chemscore.Internal.Correction>
0.0041

> <Gold.Rescore>
     Score         DG    S(hbond)    S(metal)    S(lipo)     H(rot)  DE(clash)    DE(int)     intcor
     11.21     -18.66       1.07        0.00     114.02       1.46       1.75       5.70       ----

> <Gold.Chemscore.Fitness>
11.2112

> <Gold.Chemscore.DG>
-18.6596

> <Gold.Chemscore.ZeroCoef>
-5.4800

> <Gold.Chemscore.Hbond>
1.0721

> <Gold.Chemscore.Metal>
0.0000

> <Gold.Chemscore.Lipo>
114.0184

> <Gold.Chemscore.Internal_Hbond>
0.0000

> <Gold.Chemscore.DEClash>
1.7472

> <Gold.Chemscore.DEInternal>
5.7012

> <Gold.Chemscore.Rot>
1.4615

> <Gold.Chemscore.Internal.Correction>
   9.000000E+99

> <Gold.Chemscore.Hbonds>
donor molecule, donor type, donor heavy atom, donor atom, acceptor molecule, acceptor atom, score
      L1  H     8    28       P1  8028  0.99

> <Gold.Chemscore.Hbond.Weighted>
-3.5808

> <Gold.Chemscore.Metal.Weighted>
-0.0000

> <Gold.Chemscore.Lipo.Weighted>
-13.3402

> <Gold.Chemscore.Internal_Hbond.Weighted>
0.0000

> <Gold.Chemscore.DEClash.Weighted>
1.7472

> <Gold.Chemscore.DEInternal.Weighted>
5.7012

> <Gold.Chemscore.Rot.Weighted>
3.7414

> <Gold.Chemscore.Internal.Correction.Weighted>
   9.000000E+99

> <Gold.Protein.RotatedTorsions>
[ 6907 6896 6895 6894 ] final  -10.43 input  -60.11 | X-H torsion
[ 7974 7965 7964 7962 ] final -111.71 input  175.53 | X-H torsion
[ 8008 7997 7996 7995 ] final  109.60 input   59.86 | X-H torsion
[ 10167 10162 10161 10158 ] final   58.24 input  -65.29 | X-H torsion
[ 10718 10713 10712 10709 ] final -130.83 input   66.30 | X-H torsion
[ 10763 10752 10751 10750 ] final -166.64 input  -60.55 | X-H torsion
[ 11005 11000 10999 10996 ] final -153.59 input  -57.11 | X-H torsion

> <Gold.Protein.ActiveResidues>
 VAL166  LYS551  ARG553  GLY616  TRP617  ASP618  TYR619  PRO620  LYS621  CYS622 
 ASP623  PHE694  ASN695  SER759  ASP760  ASP761  ALA762  ILE779  LEU786  VAL792 
 PHE793  MET794  SER795  GLU796  ALA797  LYS798  CYS799  TRP800  GLU811  SER814 

> <Gold.Protein.RotatedAtoms>
  151.4021  135.0972  159.9558 H   0  0  0  0  0  0  0  0  0  0  0  0  # atno 6907 bound_to 6896
  152.5047  133.8878  159.7389 H   0  0  0  0  0  0  0  0  0  0  0  0  # atno 6908 bound_to 6896
  150.9354  133.6661  159.2830 H   0  0  0  0  0  0  0  0  0  0  0  0  # atno 6909 bound_to 6896
  145.1528  140.8838  143.3636 H   0  0  0  0  0  0  0  0  0  0  0  0  # atno 7974 bound_to 7965
  156.1991  140.3054  155.9489 H   0  0  0  0  0  0  0  0  0  0  0  0  # atno 8008 bound_to 7997
  155.2996  140.0446  157.3045 H   0  0  0  0  0  0  0  0  0  0  0  0  # atno 8009 bound_to 7997
  154.5547  140.2302  155.8437 H   0  0  0  0  0  0  0  0  0  0  0  0  # atno 8010 bound_to 7997
  140.1894  144.4101  150.6578 H   0  0  0  0  0  0  0  0  0  0  0  0  # atno 10167 bound_to 10162
  156.2184  130.6962  151.0728 H   0  0  0  0  0  0  0  0  0  0  0  0  # atno 10718 bound_to 10713
  154.6813  135.2955  154.9609 H   0  0  0  0  0  0  0  0  0  0  0  0  # atno 10763 bound_to 10752
  154.0603  135.6632  153.4815 H   0  0  0  0  0  0  0  0  0  0  0  0  # atno 10764 bound_to 10752
  153.0549  135.5150  154.7858 H   0  0  0  0  0  0  0  0  0  0  0  0  # atno 10765 bound_to 10752
  140.7064  134.3880  157.5203 H   0  0  0  0  0  0  0  0  0  0  0  0  # atno 11005 bound_to 11000
  145.0413  139.3258  143.5975 LP  0  0  0  0  0  0  0  0  0  0  0  0  # atno 17320 bound_to 7965
  146.3492  139.9787  142.8698 LP  0  0  0  0  0  0  0  0  0  0  0  0  # atno 17321 bound_to 7965
  140.6466  143.2215  151.6172 LP  0  0  0  0  0  0  0  0  0  0  0  0  # atno 17342 bound_to 10162
  139.5262  144.3052  152.1040 LP  0  0  0  0  0  0  0  0  0  0  0  0  # atno 17343 bound_to 10162
  157.7075  131.0750  150.6617 LP  0  0  0  0  0  0  0  0  0  0  0  0  # atno 17370 bound_to 10713
  156.6679  130.4531  149.5666 LP  0  0  0  0  0  0  0  0  0  0  0  0  # atno 17371 bound_to 10713
  139.8883  134.8860  156.2482 LP  0  0  0  0  0  0  0  0  0  0  0  0  # atno 17394 bound_to 11000
  141.0121  133.7090  156.1128 LP  0  0  0  0  0  0  0  0  0  0  0  0  # atno 17395 bound_to 11000

$$$$
