AV-unprocessed.smi:1701|AV-procd|sdf|6821|dock2
  -GOLD-   22720 7593D 1   1.00000     0.00000
 Structure written by MMmdl.
 55 57  0  0  0  0  0  0  0  0  3 V2000
  149.8043  142.3954  157.9563 C   0  0  0  0  0  0  0  0  0  0  0  0
  151.2946  142.3365  157.5877 C   0  0  0  0  0  0  0  0  0  0  0  0
  151.8669  140.9944  157.6975 N   0  0  0  0  0  0  0  0  0  0  0  0
  152.8102  140.7031  158.7798 C   0  0  0  0  0  0  0  0  0  0  0  0
  152.9316  141.8433  159.8017 C   0  0  0  0  0  0  0  0  0  0  0  0
  151.3654  139.9394  156.8957 C   0  0  0  0  0  0  0  0  0  0  0  0
  151.2460  140.0148  155.4851 C   0  0  0  0  0  0  0  0  0  0  0  0
  150.7292  138.9209  154.7612 C   0  0  0  0  0  0  0  0  0  0  0  0
  150.3421  137.7478  155.4404 C   0  0  0  0  0  0  0  0  0  0  0  0
  149.8049  136.6813  154.6699 N   0  0  0  0  0  0  0  0  0  0  0  0
  149.5179  135.4226  155.0576 C   0  0  0  0  0  0  0  0  0  0  0  0
  149.7692  134.9580  156.1667 O   0  0  0  0  0  0  0  0  0  0  0  0
  148.9439  134.6685  154.1033 N   0  0  0  0  0  0  0  0  0  0  0  0
  148.5109  133.2731  154.1944 C   0  0  2  0  0  0  0  0  0  0  0  0
  149.5351  132.3382  154.8605 C   0  0  0  0  0  0  0  0  0  0  0  0
  149.4817  131.0260  154.0533 C   0  0  0  0  0  0  0  0  0  0  0  0
  148.4050  131.1871  153.0497 N   0  3  1  0  0  0  0  0  0  0  0  0
  147.1270  130.5669  153.4952 C   0  0  0  0  0  0  0  0  0  0  0  0
  145.9559  130.9327  152.5748 C   0  0  0  0  0  0  0  0  0  0  0  0
  145.7910  132.4529  152.5090 C   0  0  0  0  0  0  0  0  0  0  0  0
  147.0908  133.0869  152.0019 C   0  0  0  0  0  0  0  0  0  0  0  0
  148.3353  132.6484  152.8062 C   0  0  1  0  0  0  0  0  0  0  0  0
  150.4758  137.7186  156.8483 C   0  0  0  0  0  0  0  0  0  0  0  0
  150.9731  138.7911  157.5008 N   0  3  0  0  0  0  0  0  0  0  0  0
  149.4204  143.4076  157.8292 H   0  0  0  0  0  0  0  0  0  0  0  0
  149.6343  142.1140  158.9943 H   0  0  0  0  0  0  0  0  0  0  0  0
  149.2044  141.7361  157.3292 H   0  0  0  0  0  0  0  0  0  0  0  0
  151.4562  142.7309  156.5847 H   0  0  0  0  0  0  0  0  0  0  0  0
  151.8452  143.0072  158.2480 H   0  0  0  0  0  0  0  0  0  0  0  0
  152.5300  139.7772  159.2828 H   0  0  0  0  0  0  0  0  0  0  0  0
  153.7924  140.5085  158.3485 H   0  0  0  0  0  0  0  0  0  0  0  0
  153.6097  141.5625  160.6074 H   0  0  0  0  0  0  0  0  0  0  0  0
  151.9684  142.0843  160.2520 H   0  0  0  0  0  0  0  0  0  0  0  0
  153.3271  142.7507  159.3484 H   0  0  0  0  0  0  0  0  0  0  0  0
  151.5357  140.8979  154.9369 H   0  0  0  0  0  0  0  0  0  0  0  0
  150.6342  138.9872  153.6872 H   0  0  0  0  0  0  0  0  0  0  0  0
  149.6303  136.8941  153.6989 H   0  0  0  0  0  0  0  0  0  0  0  0
  148.8193  135.1088  153.2027 H   0  0  0  0  0  0  0  0  0  0  0  0
  147.5638  133.2165  154.7333 H   0  0  0  0  0  0  0  0  0  0  0  0
  150.5426  132.7551  154.8218 H   0  0  0  0  0  0  0  0  0  0  0  0
  149.2894  132.1751  155.9105 H   0  0  0  0  0  0  0  0  0  0  0  0
  150.4247  130.8848  153.5238 H   0  0  0  0  0  0  0  0  0  0  0  0
  149.3350  130.1511  154.6884 H   0  0  0  0  0  0  0  0  0  0  0  0
  147.2497  129.4837  153.5239 H   0  0  0  0  0  0  0  0  0  0  0  0
  146.8965  130.8808  154.5145 H   0  0  0  0  0  0  0  0  0  0  0  0
  146.1263  130.5305  151.5752 H   0  0  0  0  0  0  0  0  0  0  0  0
  145.0372  130.4746  152.9424 H   0  0  0  0  0  0  0  0  0  0  0  0
  144.9648  132.7132  151.8467 H   0  0  0  0  0  0  0  0  0  0  0  0
  145.5364  132.8464  153.4937 H   0  0  0  0  0  0  0  0  0  0  0  0
  147.2304  132.7984  150.9592 H   0  0  0  0  0  0  0  0  0  0  0  0
  147.0041  134.1739  152.0019 H   0  0  0  0  0  0  0  0  0  0  0  0
  149.2151  132.9045  152.2122 H   0  0  0  0  0  0  0  0  0  0  0  0
  150.1944  136.8936  157.4851 H   0  0  0  0  0  0  0  0  0  0  0  0
  148.6761  130.7282  152.1915 H   0  0  0  0  0  0  0  0  0  0  0  0
  151.0532  138.7344  158.5161 H   0  0  0  0  0  0  0  0  0  0  0  0
  1  2  1  0  0  0  0
  1 25  1  0  0  0  0
  1 26  1  0  0  0  0
  1 27  1  0  0  0  0
  2  3  1  0  0  0  0
  2 28  1  0  0  0  0
  2 29  1  0  0  0  0
  3  4  1  0  0  0  0
  3  6  1  0  0  0  0
  4  5  1  0  0  0  0
  4 30  1  0  0  0  0
  4 31  1  0  0  0  0
  5 32  1  0  0  0  0
  5 33  1  0  0  0  0
  5 34  1  0  0  0  0
  6 24  1  0  0  0  0
  6  7  2  0  0  0  0
  7  8  1  0  0  0  0
  7 35  1  0  0  0  0
  8  9  2  0  0  0  0
  8 36  1  0  0  0  0
  9 10  1  0  0  0  0
  9 23  1  0  0  0  0
 10 11  1  0  0  0  0
 10 37  1  0  0  0  0
 11 12  2  0  0  0  0
 11 13  1  0  0  0  0
 13 14  1  0  0  0  0
 13 38  1  0  0  0  0
 14 22  1  0  0  0  0
 14 15  1  0  0  0  0
 14 39  1  0  0  0  0
 15 16  1  0  0  0  0
 15 40  1  0  0  0  0
 15 41  1  0  0  0  0
 16 17  1  0  0  0  0
 16 42  1  0  0  0  0
 16 43  1  0  0  0  0
 17 22  1  0  0  0  0
 17 18  1  0  0  0  0
 17 54  1  0  0  0  0
 18 19  1  0  0  0  0
 18 44  1  0  0  0  0
 18 45  1  0  0  0  0
 19 20  1  0  0  0  0
 19 46  1  0  0  0  0
 19 47  1  0  0  0  0
 20 21  1  0  0  0  0
 20 48  1  0  0  0  0
 20 49  1  0  0  0  0
 21 22  1  0  0  0  0
 21 50  1  0  0  0  0
 21 51  1  0  0  0  0
 22 52  1  0  0  0  0
 23 24  2  0  0  0  0
 23 53  1  0  0  0  0
 24 55  1  0  0  0  0
M  CHG  1  17   1
M  CHG  1  24   1
M  END
> <s_m_source_file>
AV-unprocessed.smi

> <i_m_source_file_index>
1701

> <i_lp_mmshare_version>
43012

> <i_f3d_flags>
0

> <s_epik_input>
W0NIM11bQ0gyXU4oW0NIMl1bQ0gzXSljMVtjSF1bY0hdYyhbY0hdbjEpW05IXUMoPU8pW05IXVtDQEhdKFtDSDJdW0NIMl0yKVtDQEBIXShOMjMpW0NIMl1bQ0gyXVtDSDJdW0NIMl0z

> <s_epik_cmdline>
J2VwaWtfcHl0aG9uJywgJy1waCcsICc3LjAnLCAnLXRuJywgJzgnLCAnLW1hJywgJzIwMCcsICctbWV0YWxfYmluZGluZycsICctaW1hZScsICc8aW5maWxlLm1hZT4nLCAnLW9tYWUnLCAnPG91dGZpbGUubWFlPic=

> <r_lp_tautomer_probability>
0.999994

> <r_epik_Ionization_Penalty>
0.302862

> <r_epik_Ionization_Penalty_Charging>
0.302842

> <r_epik_Ionization_Penalty_Neutral>
1.95166e-05

> <r_epik_State_Penalty>
0.019791

> <r_epik_Charging_Adjusted_Penalty>
0.322633

> <i_epik_Tot_Q>
2

> <i_epik_Tot_abs_Q>
2

> <r_epik_Metal_State_Penalty>
0.0536763

> <b_epik_Metal_Only>
0

> <s_lp_Force_Field>
OPLS_2005

> <r_lp_Energy>
65.2354

> <b_lp_Chiralities_Consistent>
1

> <s_lp_Variant>
AV-unprocessed.smi:1701-1

> <Gold.Version>
5.8.1

> <Gold.Id.Protein>
6NUR|6NUR_protein|mol2

> <Gold.PLP.Fitness>
47.4430

> <Gold.PLP.PLP>
-40.9366

> <Gold.PLP.part.hbond>
-3.0000

> <Gold.PLP.part.metal>
0.0000

> <Gold.PLP.part.buried>
-4.1364

> <Gold.PLP.part.nonpolar>
-34.0401

> <Gold.PLP.part.repulsive>
0.0895

> <Gold.PLP.ligand.clash>
0.0000

> <Gold.PLP.ligand.torsion>
1.2741

> <Gold.PLP.Chemscore.Hbond>
2.9436

> <Gold.PLP.Chemscore.CHOScore>
0.0000

> <Gold.PLP.Chemscore.Metal>
0.0000

> <Gold.Chemscore.Hbonds>
donor molecule, donor type, donor heavy atom, donor atom, acceptor molecule, acceptor atom, score
      L1  H    10    37       P1  7948  0.95
      L1  H    13    38       P1  7948  1.00
      L1  H    17    54       P1 10747  0.99

> <Gold.PLP.Chemscore.Internal.Correction>
0.2239

> <Gold.Rescore>
     Score         DG    S(hbond)    S(metal)    S(lipo)     H(rot)  DE(clash)    DE(int)     intcor
     18.44     -21.71       2.56        0.00      94.24       1.30       0.10       3.17       ----

> <Gold.Chemscore.Fitness>
18.4377

> <Gold.Chemscore.DG>
-21.7116

> <Gold.Chemscore.ZeroCoef>
-5.4800

> <Gold.Chemscore.Hbond>
2.5565

> <Gold.Chemscore.Metal>
0.0000

> <Gold.Chemscore.Lipo>
94.2389

> <Gold.Chemscore.Internal_Hbond>
0.0000

> <Gold.Chemscore.DEClash>
0.0999

> <Gold.Chemscore.DEInternal>
3.1740

> <Gold.Chemscore.Rot>
1.3020

> <Gold.Chemscore.Internal.Correction>
   9.000000E+99

> <Gold.Chemscore.Hbonds>
donor molecule, donor type, donor heavy atom, donor atom, acceptor molecule, acceptor atom, score
      L1  H    10    37       P1  7948  0.63
      L1  H    13    38       P1  7948  0.50
      L1  H    17    54       P1 10747  0.69

> <Gold.Chemscore.Hbond.Weighted>
-8.5387

> <Gold.Chemscore.Metal.Weighted>
-0.0000

> <Gold.Chemscore.Lipo.Weighted>
-11.0259

> <Gold.Chemscore.Internal_Hbond.Weighted>
0.0000

> <Gold.Chemscore.DEClash.Weighted>
0.0999

> <Gold.Chemscore.DEInternal.Weighted>
3.1740

> <Gold.Chemscore.Rot.Weighted>
3.3330

> <Gold.Chemscore.Internal.Correction.Weighted>
   9.000000E+99

> <Gold.Protein.RotatedTorsions>
[ 6907 6896 6895 6894 ] final  120.93 input  -60.11 | X-H torsion
[ 7974 7965 7964 7962 ] final   43.47 input  175.53 | X-H torsion
[ 8008 7997 7996 7995 ] final  -82.12 input   59.86 | X-H torsion
[ 10167 10162 10161 10158 ] final -160.19 input  -65.29 | X-H torsion
[ 10718 10713 10712 10709 ] final  -80.79 input   66.30 | X-H torsion
[ 10763 10752 10751 10750 ] final  171.28 input  -60.55 | X-H torsion
[ 11005 11000 10999 10996 ] final  -15.20 input  -57.11 | X-H torsion

> <Gold.Protein.ActiveResidues>
 VAL166  LYS551  ARG553  GLY616  TRP617  ASP618  TYR619  PRO620  LYS621  CYS622 
 ASP623  PHE694  ASN695  SER759  ASP760  ASP761  ALA762  ILE779  LEU786  VAL792 
 PHE793  MET794  SER795  GLU796  ALA797  LYS798  CYS799  TRP800  GLU811  SER814 

> <Gold.Protein.RotatedAtoms>
  152.4360  133.7362  159.6615 H   0  0  0  0  0  0  0  0  0  0  0  0  # atno 6907 bound_to 6896
  150.8244  133.8186  159.3131 H   0  0  0  0  0  0  0  0  0  0  0  0  # atno 6908 bound_to 6896
  151.5858  135.1058  160.0079 H   0  0  0  0  0  0  0  0  0  0  0  0  # atno 6909 bound_to 6896
  146.0653  139.5183  142.9632 H   0  0  0  0  0  0  0  0  0  0  0  0  # atno 7974 bound_to 7965
  154.6053  140.0638  156.9423 H   0  0  0  0  0  0  0  0  0  0  0  0  # atno 8008 bound_to 7997
  155.2063  140.3319  155.4317 H   0  0  0  0  0  0  0  0  0  0  0  0  # atno 8009 bound_to 7997
  156.2344  140.1856  156.7142 H   0  0  0  0  0  0  0  0  0  0  0  0  # atno 8010 bound_to 7997
  139.6558  144.0002  152.2192 H   0  0  0  0  0  0  0  0  0  0  0  0  # atno 10167 bound_to 10162
  156.0063  130.4584  150.3854 H   0  0  0  0  0  0  0  0  0  0  0  0  # atno 10718 bound_to 10713
  154.4097  135.2756  155.2045 H   0  0  0  0  0  0  0  0  0  0  0  0  # atno 10763 bound_to 10752
  154.4035  135.6039  153.5915 H   0  0  0  0  0  0  0  0  0  0  0  0  # atno 10764 bound_to 10752
  152.9831  135.5932  154.4377 H   0  0  0  0  0  0  0  0  0  0  0  0  # atno 10765 bound_to 10752
  140.7942  133.8264  155.9408 H   0  0  0  0  0  0  0  0  0  0  0  0  # atno 11005 bound_to 11000
  145.6488  141.0268  143.1771 LP  0  0  0  0  0  0  0  0  0  0  0  0  # atno 17320 bound_to 7965
  144.7198  139.8068  143.7386 LP  0  0  0  0  0  0  0  0  0  0  0  0  # atno 17321 bound_to 7965
  139.9728  144.6482  150.7973 LP  0  0  0  0  0  0  0  0  0  0  0  0  # atno 17342 bound_to 10162
  140.7558  143.3054  151.2976 LP  0  0  0  0  0  0  0  0  0  0  0  0  # atno 17343 bound_to 10162
  157.1931  131.0420  151.2689 LP  0  0  0  0  0  0  0  0  0  0  0  0  # atno 17370 bound_to 10713
  157.4043  130.7350  149.6790 LP  0  0  0  0  0  0  0  0  0  0  0  0  # atno 17371 bound_to 10713
  140.9359  134.1963  157.4832 LP  0  0  0  0  0  0  0  0  0  0  0  0  # atno 17394 bound_to 11000
  139.8728  134.9852  156.5271 LP  0  0  0  0  0  0  0  0  0  0  0  0  # atno 17395 bound_to 11000

$$$$
