AV-unprocessed.smi:287|AV-procd|sdf|2205|dock7
  -GOLD-   2262022 33D 1   1.00000     0.00000
 Structure written by MMmdl.
 55 58  0  0  0  0  0  0  0  0  1 V2000
  152.6247  142.1883  160.8516 C   0  0  0  0  0  0  0  0  0  0  0  0
  152.2520  141.4493  159.6126 C   0  0  0  0  0  0  0  0  0  0  0  0
  152.4988  140.1881  159.1554 C   0  0  0  0  0  0  0  0  0  0  0  0
  151.8779  140.0688  157.8763 C   0  0  0  0  0  0  0  0  0  0  0  0
  151.9048  138.8329  156.9864 C   0  0  1  0  0  0  0  0  0  0  0  0
  151.2470  139.1478  155.6324 C   0  0  0  0  0  0  0  0  0  0  0  0
  153.2166  138.4073  156.6724 O   0  0  0  0  0  0  0  0  0  0  0  0
  151.2083  137.6229  157.6503 C   0  0  0  0  0  0  0  0  0  0  0  0
  150.8019  136.6071  156.6845 N   0  0  0  0  0  0  0  0  0  0  0  0
  149.5274  136.5583  156.2447 C   0  0  0  0  0  0  0  0  0  0  0  0
  148.6068  137.4656  156.6623 N   0  0  0  0  0  0  0  0  0  0  0  0
  147.3493  137.3910  156.2163 C   0  0  0  0  0  0  0  0  0  0  0  0
  146.8156  136.5079  155.3698 N   0  0  0  0  0  0  0  0  0  0  0  0
  147.7365  135.5949  154.9449 C   0  0  0  0  0  0  0  0  0  0  0  0
  149.1044  135.5552  155.3352 C   0  0  0  0  0  0  0  0  0  0  0  0
  149.7423  134.4904  154.7132 N   0  0  0  0  0  0  0  0  0  0  0  0
  148.8019  133.9345  153.9983 C   0  0  0  0  0  0  0  0  0  0  0  0
  147.5627  134.5305  154.0803 N   0  0  0  0  0  0  0  0  0  0  0  0
  146.3075  134.1023  153.3795 C   0  0  2  0  0  0  0  0  0  0  0  0
  146.6090  133.1135  152.4382 O   0  0  0  0  0  0  0  0  0  0  0  0
  146.2425  133.5405  151.1257 C   0  0  1  0  0  0  0  0  0  0  0  0
  145.8140  132.3283  150.2848 C   0  0  0  0  0  0  0  0  0  0  0  0
  145.0848  132.7544  149.1540 O   0  0  0  0  0  0  0  0  0  0  0  0
  145.1071  134.5290  151.3966 C   0  0  2  0  0  0  0  0  0  0  0  0
  144.8488  135.4029  150.3144 O   0  0  0  0  0  0  0  0  0  0  0  0
  145.5996  135.2540  152.6403 C   0  0  2  0  0  0  0  0  0  0  0  0
  146.4553  136.3449  152.3327 O   0  0  0  0  0  0  0  0  0  0  0  0
  151.2833  141.2891  157.6601 C   0  0  0  0  0  0  0  0  0  0  0  0
  150.4717  141.8669  156.5478 C   0  0  0  0  0  0  0  0  0  0  0  0
  151.5070  142.1316  158.7073 O   0  0  0  0  0  0  0  0  0  0  0  0
  145.6904  133.6622  154.1639 H   0  0  0  0  0  0  0  0  0  0  0  0
  147.0783  134.0662  150.6609 H   0  0  0  0  0  0  0  0  0  0  0  0
  144.1945  133.9808  151.6361 H   0  0  0  0  0  0  0  0  0  0  0  0
  144.7739  135.6259  153.2479 H   0  0  0  0  0  0  0  0  0  0  0  0
  153.2316  141.5652  161.5088 H   0  0  0  0  0  0  0  0  0  0  0  0
  151.7350  142.4940  161.4020 H   0  0  0  0  0  0  0  0  0  0  0  0
  153.1985  143.0830  160.6101 H   0  0  0  0  0  0  0  0  0  0  0  0
  153.0701  139.4340  159.6764 H   0  0  0  0  0  0  0  0  0  0  0  0
  150.2077  139.4537  155.7583 H   0  0  0  0  0  0  0  0  0  0  0  0
  151.2536  138.2793  154.9725 H   0  0  0  0  0  0  0  0  0  0  0  0
  151.7662  139.9577  155.1183 H   0  0  0  0  0  0  0  0  0  0  0  0
  153.2033  138.0005  155.8196 H   0  0  0  0  0  0  0  0  0  0  0  0
  151.9154  137.1506  158.3344 H   0  0  0  0  0  0  0  0  0  0  0  0
  150.3562  137.9407  158.2532 H   0  0  0  0  0  0  0  0  0  0  0  0
  151.4928  135.9024  156.4684 H   0  0  0  0  0  0  0  0  0  0  0  0
  146.6734  138.1448  156.5921 H   0  0  0  0  0  0  0  0  0  0  0  0
  148.9876  133.0621  153.3887 H   0  0  0  0  0  0  0  0  0  0  0  0
  146.6746  131.7318  149.9804 H   0  0  0  0  0  0  0  0  0  0  0  0
  145.1601  131.6793  150.8681 H   0  0  0  0  0  0  0  0  0  0  0  0
  145.4773  133.5480  148.8239 H   0  0  0  0  0  0  0  0  0  0  0  0
  145.4061  135.1513  149.5930 H   0  0  0  0  0  0  0  0  0  0  0  0
  147.3095  136.0033  152.1163 H   0  0  0  0  0  0  0  0  0  0  0  0
  149.5907  141.2551  156.3543 H   0  0  0  0  0  0  0  0  0  0  0  0
  151.0573  141.9202  155.6298 H   0  0  0  0  0  0  0  0  0  0  0  0
  150.1331  142.8751  156.7882 H   0  0  0  0  0  0  0  0  0  0  0  0
  1  2  1  0  0  0  0
  1 35  1  0  0  0  0
  1 36  1  0  0  0  0
  1 37  1  0  0  0  0
  2 30  1  0  0  0  0
  2  3  2  0  0  0  0
  3  4  1  0  0  0  0
  3 38  1  0  0  0  0
  4  5  1  0  0  0  0
  4 28  2  0  0  0  0
  5  6  1  0  0  0  0
  5  7  1  0  0  0  0
  5  8  1  0  0  0  0
  6 39  1  0  0  0  0
  6 40  1  0  0  0  0
  6 41  1  0  0  0  0
  7 42  1  0  0  0  0
  8  9  1  0  0  0  0
  8 43  1  0  0  0  0
  8 44  1  0  0  0  0
  9 10  1  0  0  0  0
  9 45  1  0  0  0  0
 10 15  1  0  0  0  0
 10 11  2  0  0  0  0
 11 12  1  0  0  0  0
 12 13  2  0  0  0  0
 12 46  1  0  0  0  0
 13 14  1  0  0  0  0
 14 18  1  0  0  0  0
 14 15  2  0  0  0  0
 15 16  1  0  0  0  0
 16 17  2  0  0  0  0
 17 18  1  0  0  0  0
 17 47  1  0  0  0  0
 18 19  1  0  0  0  0
 19 31  1  0  0  0  0
 19 26  1  0  0  0  0
 19 20  1  0  0  0  0
 20 21  1  0  0  0  0
 21 32  1  0  0  0  0
 21 22  1  0  0  0  0
 21 24  1  0  0  0  0
 22 23  1  0  0  0  0
 22 48  1  0  0  0  0
 22 49  1  0  0  0  0
 23 50  1  0  0  0  0
 24 33  1  0  0  0  0
 24 25  1  0  0  0  0
 24 26  1  0  0  0  0
 25 51  1  0  0  0  0
 26 34  1  0  0  0  0
 26 27  1  0  0  0  0
 27 52  1  0  0  0  0
 28 29  1  0  0  0  0
 28 30  1  0  0  0  0
 29 53  1  0  0  0  0
 29 54  1  0  0  0  0
 29 55  1  0  0  0  0
M  END
> <s_m_source_file>
AV-unprocessed.smi

> <i_m_source_file_index>
287

> <i_lp_mmshare_version>
43012

> <i_f3d_flags>
0

> <s_epik_input>
W0NIM11jMVtjSF1jKGMobzEpW0NIM10pW0NAQF0oW0NIM10pKFtPSF0pW0NIMl1bTkhdYyhuW2NIXW4yKWMoYzIzKW5bY0hdbjNbQ0BASF00T1tDQEhdKFtDSDJdW09IXSlbQ0BASF0oW09IXSlbQ0BIXTRbT0hd

> <s_epik_cmdline>
J2VwaWtfcHl0aG9uJywgJy1waCcsICc3LjAnLCAnLXRuJywgJzgnLCAnLW1hJywgJzIwMCcsICctbWV0YWxfYmluZGluZycsICctaW1hZScsICc8aW5maWxlLm1hZT4nLCAnLW9tYWUnLCAnPG91dGZpbGUubWFlPic=

> <r_lp_tautomer_probability>
1

> <r_epik_Ionization_Penalty>
0.000992612

> <r_epik_Ionization_Penalty_Charging>
0

> <r_epik_Ionization_Penalty_Neutral>
0.000992612

> <r_epik_State_Penalty>
-0

> <r_epik_Charging_Adjusted_Penalty>
0

> <i_epik_Tot_Q>
0

> <i_epik_Tot_abs_Q>
0

> <r_epik_Metal_State_Penalty>
-0

> <b_epik_Metal_Only>
0

> <s_epik_Chemistry_Notes>
This compound contains an acetal/aminal-like group ( X-CH(R)-Y where X, Y are N, S, or O) that may be acid/base labile, releasing an aldehyde.

> <s_lp_Force_Field>
OPLS_2005

> <r_lp_Energy>
50.5208

> <b_lp_Chiralities_Consistent>
1

> <s_lp_Variant>
AV-unprocessed.smi:287-29

> <Gold.Version>
5.8.1

> <Gold.Id.Protein>
6NUR|6NUR_protein|mol2

> <Gold.PLP.Fitness>
47.7338

> <Gold.PLP.PLP>
-38.4859

> <Gold.PLP.part.hbond>
-3.6701

> <Gold.PLP.part.metal>
0.0000

> <Gold.PLP.part.buried>
-5.2960

> <Gold.PLP.part.nonpolar>
-29.3205

> <Gold.PLP.part.repulsive>
0.4321

> <Gold.PLP.ligand.clash>
0.9300

> <Gold.PLP.ligand.torsion>
0.7696

> <Gold.PLP.Chemscore.Hbond>
3.8880

> <Gold.PLP.Chemscore.CHOScore>
0.0000

> <Gold.PLP.Chemscore.Metal>
0.0000

> <Gold.Chemscore.Hbonds>
donor molecule, donor type, donor heavy atom, donor atom, acceptor molecule, acceptor atom, score
      L1  H    23    50       P1  7921  1.00
      L1  H    25    51       P1  7921  0.80
      L1  H    27    52       P1  7948  1.00
      P1  H  7997  8010       L1     7  0.99

> <Gold.PLP.Chemscore.Internal.Correction>
0.0530

> <Gold.Rescore>
     Score         DG    S(hbond)    S(metal)    S(lipo)     H(rot)  DE(clash)    DE(int)     intcor
     10.01     -13.62       3.38        0.00      88.24       5.27       0.49       3.13       ----

> <Gold.Chemscore.Fitness>
10.0053

> <Gold.Chemscore.DG>
-13.6217

> <Gold.Chemscore.ZeroCoef>
-5.4800

> <Gold.Chemscore.Hbond>
3.3836

> <Gold.Chemscore.Metal>
0.0000

> <Gold.Chemscore.Lipo>
88.2419

> <Gold.Chemscore.Internal_Hbond>
0.0000

> <Gold.Chemscore.DEClash>
0.4889

> <Gold.Chemscore.DEInternal>
3.1274

> <Gold.Chemscore.Rot>
5.2672

> <Gold.Chemscore.Internal.Correction>
   9.000000E+99

> <Gold.Chemscore.Hbonds>
donor molecule, donor type, donor heavy atom, donor atom, acceptor molecule, acceptor atom, score
      L1  H    23    50       P1  7921  0.35
      L1  H    25    51       P1  7921  0.78
      L1  H    27    52       P1  7948  0.95
      P1  H  7997  8010       L1     7  0.38

> <Gold.Chemscore.Hbond.Weighted>
-11.3013

> <Gold.Chemscore.Metal.Weighted>
-0.0000

> <Gold.Chemscore.Lipo.Weighted>
-10.3243

> <Gold.Chemscore.Internal_Hbond.Weighted>
0.0000

> <Gold.Chemscore.DEClash.Weighted>
0.4889

> <Gold.Chemscore.DEInternal.Weighted>
3.1274

> <Gold.Chemscore.Rot.Weighted>
13.4839

> <Gold.Chemscore.Internal.Correction.Weighted>
   9.000000E+99

> <Gold.Protein.RotatedTorsions>
[ 6907 6896 6895 6894 ] final -155.11 input  -60.11 | X-H torsion
[ 7974 7965 7964 7962 ] final -119.74 input  175.53 | X-H torsion
[ 8008 7997 7996 7995 ] final   65.00 input   59.86 | X-H torsion
[ 10167 10162 10161 10158 ] final   50.73 input  -65.29 | X-H torsion
[ 10718 10713 10712 10709 ] final -113.29 input   66.30 | X-H torsion
[ 10763 10752 10751 10750 ] final   19.12 input  -60.55 | X-H torsion
[ 11005 11000 10999 10996 ] final   50.15 input  -57.11 | X-H torsion

> <Gold.Protein.ActiveResidues>
 VAL166  LYS551  ARG553  GLY616  TRP617  ASP618  TYR619  PRO620  LYS621  CYS622 
 ASP623  PHE694  ASN695  SER759  ASP760  ASP761  ALA762  ILE779  LEU786  VAL792 
 PHE793  MET794  SER795  GLU796  ALA797  LYS798  CYS799  TRP800  GLU811  SER814 

> <Gold.Protein.RotatedAtoms>
  151.2676  133.4271  159.2619 H   0  0  0  0  0  0  0  0  0  0  0  0  # atno 6907 bound_to 6896
  151.0474  134.9650  159.8204 H   0  0  0  0  0  0  0  0  0  0  0  0  # atno 6908 bound_to 6896
  152.5376  134.2632  159.8996 H   0  0  0  0  0  0  0  0  0  0  0  0  # atno 6909 bound_to 6896
  145.0591  140.8276  143.4163 H   0  0  0  0  0  0  0  0  0  0  0  0  # atno 7974 bound_to 7965
  155.6548  140.3497  155.4761 H   0  0  0  0  0  0  0  0  0  0  0  0  # atno 8008 bound_to 7997
  155.9817  140.1176  157.0743 H   0  0  0  0  0  0  0  0  0  0  0  0  # atno 8009 bound_to 7997
  154.4193  140.1137  156.5431 H   0  0  0  0  0  0  0  0  0  0  0  0  # atno 8010 bound_to 7997
  140.2694  144.3283  150.6294 H   0  0  0  0  0  0  0  0  0  0  0  0  # atno 10167 bound_to 10162
  156.0757  130.5965  150.8622 H   0  0  0  0  0  0  0  0  0  0  0  0  # atno 10718 bound_to 10713
  153.1189  135.6714  153.9369 H   0  0  0  0  0  0  0  0  0  0  0  0  # atno 10763 bound_to 10752
  153.8890  135.3049  155.3448 H   0  0  0  0  0  0  0  0  0  0  0  0  # atno 10764 bound_to 10752
  154.7603  135.4991  153.9530 H   0  0  0  0  0  0  0  0  0  0  0  0  # atno 10765 bound_to 10752
  140.1042  134.5040  155.8735 H   0  0  0  0  0  0  0  0  0  0  0  0  # atno 11005 bound_to 11000
  145.1431  139.2560  143.5480 LP  0  0  0  0  0  0  0  0  0  0  0  0  # atno 17320 bound_to 7965
  146.3523  140.1114  142.8604 LP  0  0  0  0  0  0  0  0  0  0  0  0  # atno 17321 bound_to 7965
  140.5902  143.2168  151.7267 LP  0  0  0  0  0  0  0  0  0  0  0  0  # atno 17342 bound_to 10162
  139.4993  144.3950  152.0240 LP  0  0  0  0  0  0  0  0  0  0  0  0  # atno 17343 bound_to 10162
  157.5851  131.0945  150.9208 LP  0  0  0  0  0  0  0  0  0  0  0  0  # atno 17370 bound_to 10713
  156.9396  130.5379  149.5280 LP  0  0  0  0  0  0  0  0  0  0  0  0  # atno 17371 bound_to 10713
  141.2114  133.6706  156.6578 LP  0  0  0  0  0  0  0  0  0  0  0  0  # atno 17394 bound_to 11000
  140.3178  134.8033  157.4228 LP  0  0  0  0  0  0  0  0  0  0  0  0  # atno 17395 bound_to 11000

$$$$
