AV-unprocessed.smi:743|AV-procd|sdf|3563|dock7
  -GOLD-   22720 0563D 1   1.00000     0.00000
 Structure written by MMmdl.
 29 30  0  0  0  0  0  0  0  0  2 V2000
  144.6451  131.9532  150.4532 C   0  0  0  0  0  0  0  0  0  0  0  0
  144.3296  133.3088  150.8501 N   0  0  0  0  0  0  0  0  0  0  0  0
  143.8605  133.7633  152.0631 C   0  0  0  0  0  0  0  0  0  0  0  0
  143.7178  135.1218  151.9707 C   0  0  0  0  0  0  0  0  0  0  0  0
  143.2483  136.1183  153.0118 C   0  0  1  0  0  0  0  0  0  0  0  0
  142.7575  135.4289  154.2082 N   0  0  0  0  0  0  0  0  0  0  0  0
  143.4423  135.2113  155.3467 C   0  0  0  0  0  0  0  0  0  0  0  0
  142.9789  134.5186  156.2490 O   0  0  0  0  0  0  0  0  0  0  0  0
  144.8105  135.8863  155.5424 C   0  0  0  0  0  0  0  0  0  0  0  0
  145.4192  136.4763  154.2572 C   0  0  0  0  0  0  0  0  0  0  0  0
  144.3431  137.1451  153.3911 C   0  0  1  0  0  0  0  0  0  0  0  0
  144.9262  137.8139  152.2130 N   0  3  0  0  0  0  0  0  0  0  0  0
  144.1199  135.3965  150.6310 C   0  0  0  0  0  0  0  0  0  0  0  0
  144.4915  134.3149  149.9680 N   0  0  0  0  0  0  0  0  0  0  0  0
  143.8798  137.9329  153.9872 H   0  0  0  0  0  0  0  0  0  0  0  0
  144.4818  131.2711  151.2878 H   0  0  0  0  0  0  0  0  0  0  0  0
  145.6894  131.8916  150.1449 H   0  0  0  0  0  0  0  0  0  0  0  0
  144.0069  131.6541  149.6211 H   0  0  0  0  0  0  0  0  0  0  0  0
  143.6746  133.0896  152.8871 H   0  0  0  0  0  0  0  0  0  0  0  0
  142.3973  136.6731  152.6148 H   0  0  0  0  0  0  0  0  0  0  0  0
  141.8423  135.0072  154.1365 H   0  0  0  0  0  0  0  0  0  0  0  0
  144.6698  136.6859  156.2703 H   0  0  0  0  0  0  0  0  0  0  0  0
  145.5058  135.1781  155.9941 H   0  0  0  0  0  0  0  0  0  0  0  0
  146.1889  137.2011  154.5240 H   0  0  0  0  0  0  0  0  0  0  0  0
  145.9248  135.6902  153.6945 H   0  0  0  0  0  0  0  0  0  0  0  0
  144.4579  137.4905  151.3784 H   0  0  0  0  0  0  0  0  0  0  0  0
  145.9104  137.5948  152.1528 H   0  0  0  0  0  0  0  0  0  0  0  0
  144.1586  136.3501  150.1254 H   0  0  0  0  0  0  0  0  0  0  0  0
  144.8088  138.8134  152.2986 H   0  0  0  0  0  0  0  0  0  0  0  0
  1  2  1  0  0  0  0
  1 16  1  0  0  0  0
  1 17  1  0  0  0  0
  1 18  1  0  0  0  0
  2 14  1  0  0  0  0
  2  3  1  0  0  0  0
  3  4  2  0  0  0  0
  3 19  1  0  0  0  0
  4  5  1  0  0  0  0
  4 13  1  0  0  0  0
  5 11  1  0  0  0  0
  5  6  1  0  0  0  0
  5 20  1  0  0  0  0
  6  7  1  0  0  0  0
  6 21  1  0  0  0  0
  7  8  2  0  0  0  0
  7  9  1  0  0  0  0
  9 10  1  0  0  0  0
  9 22  1  0  0  0  0
  9 23  1  0  0  0  0
 10 11  1  0  0  0  0
 10 24  1  0  0  0  0
 10 25  1  0  0  0  0
 11 15  1  0  0  0  0
 11 12  1  0  0  0  0
 12 26  1  0  0  0  0
 12 27  1  0  0  0  0
 12 29  1  0  0  0  0
 13 14  2  0  0  0  0
 13 28  1  0  0  0  0
M  CHG  1  12   1
M  END
> <s_m_source_file>
AV-unprocessed.smi

> <i_m_source_file_index>
743

> <i_lp_mmshare_version>
43012

> <i_f3d_flags>
0

> <s_epik_input>
W0NIM11uMVtjSF1jKFtjSF1uMSlbQ0BASF0yW05IXUMoPU8pW0NIMl1bQ0gyXVtDQEBIXTJbTkgyXQ==

> <s_epik_cmdline>
J2VwaWtfcHl0aG9uJywgJy1waCcsICc3LjAnLCAnLXRuJywgJzgnLCAnLW1hJywgJzIwMCcsICctbWV0YWxfYmluZGluZycsICctaW1hZScsICc8aW5maWxlLm1hZT4nLCAnLW9tYWUnLCAnPG91dGZpbGUubWFlPic=

> <r_lp_tautomer_probability>
1

> <r_epik_Ionization_Penalty>
0.00878543

> <r_epik_Ionization_Penalty_Charging>
0.00874185

> <r_epik_Ionization_Penalty_Neutral>
4.35793e-05

> <r_epik_State_Penalty>
0.00660351

> <r_epik_Charging_Adjusted_Penalty>
0.0153454

> <i_epik_Tot_Q>
1

> <i_epik_Tot_abs_Q>
1

> <r_epik_Metal_State_Penalty>
0.00660727

> <b_epik_Metal_Only>
0

> <s_lp_Force_Field>
OPLS_2005

> <r_lp_Energy>
11.1602

> <b_lp_Chiralities_Consistent>
1

> <s_lp_Variant>
AV-unprocessed.smi:743-4

> <Gold.Version>
5.8.1

> <Gold.Id.Protein>
6NUR|6NUR_protein|mol2

> <Gold.PLP.Fitness>
34.7361

> <Gold.PLP.PLP>
-19.5621

> <Gold.PLP.part.hbond>
-3.0000

> <Gold.PLP.part.metal>
0.0000

> <Gold.PLP.part.buried>
-5.1951

> <Gold.PLP.part.nonpolar>
-13.1469

> <Gold.PLP.part.repulsive>
1.7080

> <Gold.PLP.ligand.clash>
0.0180

> <Gold.PLP.ligand.torsion>
0.0622

> <Gold.PLP.Chemscore.Hbond>
3.0992

> <Gold.PLP.Chemscore.CHOScore>
2.0000

> <Gold.PLP.Chemscore.Metal>
0.0000

> <Gold.Chemscore.Hbonds>
donor molecule, donor type, donor heavy atom, donor atom, acceptor molecule, acceptor atom, score
      L1  H    12    26       P1 10171  0.54
      L1  H    12    29       P1 10175  2.00
      P1  H 11000 11005       L1     8  0.53
      L1  C     3    19       P1 10957  1.00
      L1  C    13    28       P1 10171  1.00

> <Gold.PLP.Chemscore.Internal.Correction>
0.0187

> <Gold.Rescore>
     Score         DG    S(hbond)    S(metal)    S(lipo)     H(rot)  DE(clash)    DE(int)     intcor
     12.79     -13.41       2.02        0.00      31.83       1.00       0.24       0.38       ----

> <Gold.Chemscore.Fitness>
12.7855

> <Gold.Chemscore.DG>
-13.4073

> <Gold.Chemscore.ZeroCoef>
-5.4800

> <Gold.Chemscore.Hbond>
2.0249

> <Gold.Chemscore.Metal>
0.0000

> <Gold.Chemscore.Lipo>
31.8307

> <Gold.Chemscore.Internal_Hbond>
0.0000

> <Gold.Chemscore.DEClash>
0.2431

> <Gold.Chemscore.DEInternal>
0.3788

> <Gold.Chemscore.Rot>
1.0000

> <Gold.Chemscore.Internal.Correction>
   9.000000E+99

> <Gold.Chemscore.Hbonds>
donor molecule, donor type, donor heavy atom, donor atom, acceptor molecule, acceptor atom, score
      L1  H    12    26       P1 10171  0.54
      L1  H    12    29       P1 10175  0.93
      P1  H 11000 11005       L1     8  0.50

> <Gold.Chemscore.Hbond.Weighted>
-6.7631

> <Gold.Chemscore.Metal.Weighted>
-0.0000

> <Gold.Chemscore.Lipo.Weighted>
-3.7242

> <Gold.Chemscore.Internal_Hbond.Weighted>
0.0000

> <Gold.Chemscore.DEClash.Weighted>
0.2431

> <Gold.Chemscore.DEInternal.Weighted>
0.3788

> <Gold.Chemscore.Rot.Weighted>
2.5600

> <Gold.Chemscore.Internal.Correction.Weighted>
   9.000000E+99

> <Gold.Protein.RotatedTorsions>
[ 6907 6896 6895 6894 ] final  -97.41 input  -60.11 | X-H torsion
[ 7974 7965 7964 7962 ] final   17.69 input  175.53 | X-H torsion
[ 8008 7997 7996 7995 ] final   58.59 input   59.86 | X-H torsion
[ 10167 10162 10161 10158 ] final   73.94 input  -65.29 | X-H torsion
[ 10718 10713 10712 10709 ] final   17.78 input   66.30 | X-H torsion
[ 10763 10752 10751 10750 ] final    5.47 input  -60.55 | X-H torsion
[ 11005 11000 10999 10996 ] final  -55.73 input  -57.11 | X-H torsion

> <Gold.Protein.ActiveResidues>
 VAL166  LYS551  ARG553  GLY616  TRP617  ASP618  TYR619  PRO620  LYS621  CYS622 
 ASP623  PHE694  ASN695  SER759  ASP760  ASP761  ALA762  ILE779  LEU786  VAL792 
 PHE793  MET794  SER795  GLU796  ALA797  LYS798  CYS799  TRP800  GLU811  SER814 

> <Gold.Protein.RotatedAtoms>
  150.7016  134.1353  159.4084 H   0  0  0  0  0  0  0  0  0  0  0  0  # atno 6907 bound_to 6896
  151.9338  135.0242  160.0540 H   0  0  0  0  0  0  0  0  0  0  0  0  # atno 6908 bound_to 6896
  152.2153  133.4907  159.5169 H   0  0  0  0  0  0  0  0  0  0  0  0  # atno 6909 bound_to 6896
  146.2210  139.8565  142.8613 H   0  0  0  0  0  0  0  0  0  0  0  0  # atno 7974 bound_to 7965
  155.5525  140.3486  155.4472 H   0  0  0  0  0  0  0  0  0  0  0  0  # atno 8008 bound_to 7997
  156.0573  140.1331  157.0008 H   0  0  0  0  0  0  0  0  0  0  0  0  # atno 8009 bound_to 7997
  154.4462  140.0992  156.6449 H   0  0  0  0  0  0  0  0  0  0  0  0  # atno 8010 bound_to 7997
  140.0191  144.5555  150.7596 H   0  0  0  0  0  0  0  0  0  0  0  0  # atno 10167 bound_to 10162
  157.0870  130.6412  149.5840 H   0  0  0  0  0  0  0  0  0  0  0  0  # atno 10718 bound_to 10713
  153.2590  135.6921  153.7598 H   0  0  0  0  0  0  0  0  0  0  0  0  # atno 10763 bound_to 10752
  153.6664  135.3351  155.3142 H   0  0  0  0  0  0  0  0  0  0  0  0  # atno 10764 bound_to 10752
  154.8423  135.4489  154.1574 H   0  0  0  0  0  0  0  0  0  0  0  0  # atno 10765 bound_to 10752
  141.1087  133.6611  156.4513 H   0  0  0  0  0  0  0  0  0  0  0  0  # atno 11005 bound_to 11000
  145.2748  141.0120  143.3751 LP  0  0  0  0  0  0  0  0  0  0  0  0  # atno 17320 bound_to 7965
  144.9195  139.4429  143.6548 LP  0  0  0  0  0  0  0  0  0  0  0  0  # atno 17321 bound_to 7965
  140.7350  143.2735  151.3813 LP  0  0  0  0  0  0  0  0  0  0  0  0  # atno 17342 bound_to 10162
  139.6152  144.1017  152.2338 LP  0  0  0  0  0  0  0  0  0  0  0  0  # atno 17343 bound_to 10162
  155.9908  130.4960  150.7272 LP  0  0  0  0  0  0  0  0  0  0  0  0  # atno 17370 bound_to 10713
  157.4753  131.0897  151.0597 LP  0  0  0  0  0  0  0  0  0  0  0  0  # atno 17371 bound_to 10713
  140.4833  134.6644  157.5180 LP  0  0  0  0  0  0  0  0  0  0  0  0  # atno 17394 bound_to 11000
  139.9970  134.6896  155.9593 LP  0  0  0  0  0  0  0  0  0  0  0  0  # atno 17395 bound_to 11000

$$$$
