AV-unprocessed.smi:2590|AV-procd|sdf|10152|dock1
  -GOLD-   2272014163D 1   1.00000     0.00000
 Structure written by MMmdl.
 27 28  0  0  0  0  0  0  0  0  1 V2000
  152.4985  139.2152  155.6126 N   0  0  0  0  0  0  0  0  0  0  0  0
  151.3864  140.0591  155.5947 C   0  0  0  0  0  0  0  0  0  0  0  0
  150.6471  140.0337  154.4629 N   0  0  0  0  0  0  0  0  0  0  0  0
  149.5856  140.8668  154.4047 C   0  0  0  0  0  0  0  0  0  0  0  0
  149.2637  141.7306  155.4709 C   0  0  0  0  0  0  0  0  0  0  0  0
  149.9961  141.7607  156.6050 N   0  0  0  0  0  0  0  0  0  0  0  0
  151.0536  140.9184  156.6790 C   0  0  0  0  0  0  0  0  0  0  0  0
  151.8517  140.9595  157.9510 C   0  0  0  0  0  0  0  0  0  0  0  0
  152.2533  139.9108  158.4546 O   0  0  0  0  0  0  0  0  0  0  0  0
  152.1137  142.1740  158.4752 N   0  0  0  0  0  0  0  0  0  0  0  0
  152.9423  142.4990  159.6387 C   0  0  0  0  0  0  0  0  0  0  0  0
  152.2484  143.5565  160.5089 C   0  0  0  0  0  0  0  0  0  0  0  0
  151.7929  144.7404  159.6515 C   0  0  0  0  0  0  0  0  0  0  0  0
  150.9881  144.2284  158.4499 C   0  0  0  0  0  0  0  0  0  0  0  0
  151.7829  143.3100  157.7052 O   0  0  0  0  0  0  0  0  0  0  0  0
  153.1221  139.1781  156.4060 H   0  0  0  0  0  0  0  0  0  0  0  0
  152.7430  138.6534  154.8098 H   0  0  0  0  0  0  0  0  0  0  0  0
  148.9935  140.8482  153.5019 H   0  0  0  0  0  0  0  0  0  0  0  0
  148.4165  142.3978  155.4138 H   0  0  0  0  0  0  0  0  0  0  0  0
  153.1525  141.6097  160.2345 H   0  0  0  0  0  0  0  0  0  0  0  0
  153.9025  142.8754  159.2841 H   0  0  0  0  0  0  0  0  0  0  0  0
  151.3817  143.1089  160.9973 H   0  0  0  0  0  0  0  0  0  0  0  0
  152.9149  143.8937  161.3031 H   0  0  0  0  0  0  0  0  0  0  0  0
  151.1954  145.4326  160.2452 H   0  0  0  0  0  0  0  0  0  0  0  0
  152.6624  145.2957  159.2977 H   0  0  0  0  0  0  0  0  0  0  0  0
  150.0619  143.7560  158.7777 H   0  0  0  0  0  0  0  0  0  0  0  0
  150.7097  145.0591  157.8013 H   0  0  0  0  0  0  0  0  0  0  0  0
  1  2  1  0  0  0  0
  1 16  1  0  0  0  0
  1 17  1  0  0  0  0
  2  7  1  0  0  0  0
  2  3  2  0  0  0  0
  3  4  1  0  0  0  0
  4  5  2  0  0  0  0
  4 18  1  0  0  0  0
  5  6  1  0  0  0  0
  5 19  1  0  0  0  0
  6  7  2  0  0  0  0
  7  8  1  0  0  0  0
  8  9  2  0  0  0  0
  8 10  1  0  0  0  0
 10 15  1  0  0  0  0
 10 11  1  0  0  0  0
 11 12  1  0  0  0  0
 11 20  1  0  0  0  0
 11 21  1  0  0  0  0
 12 13  1  0  0  0  0
 12 22  1  0  0  0  0
 12 23  1  0  0  0  0
 13 14  1  0  0  0  0
 13 24  1  0  0  0  0
 13 25  1  0  0  0  0
 14 15  1  0  0  0  0
 14 26  1  0  0  0  0
 14 27  1  0  0  0  0
M  END
> <s_m_source_file>
AV-unprocessed.smi

> <i_m_source_file_index>
2590

> <i_lp_mmshare_version>
43012

> <i_f3d_flags>
0

> <s_epik_input>
W05IMl1jMW5bY0hdW2NIXW5jMUMoPU8pTjJbQ0gyXVtDSDJdW0NIMl1bQ0gyXU8y

> <s_epik_cmdline>
J2VwaWtfcHl0aG9uJywgJy1waCcsICc3LjAnLCAnLXRuJywgJzgnLCAnLW1hJywgJzIwMCcsICctbWV0YWxfYmluZGluZycsICctaW1hZScsICc8aW5maWxlLm1hZT4nLCAnLW9tYWUnLCAnPG91dGZpbGUubWFlPic=

> <r_lp_tautomer_probability>
1

> <r_epik_Ionization_Penalty>
4.08043e-05

> <r_epik_Ionization_Penalty_Charging>
0

> <r_epik_Ionization_Penalty_Neutral>
4.08043e-05

> <r_epik_State_Penalty>
-0

> <r_epik_Charging_Adjusted_Penalty>
0

> <i_epik_Tot_Q>
0

> <i_epik_Tot_abs_Q>
0

> <r_epik_Metal_State_Penalty>
-0

> <b_epik_Metal_Only>
0

> <s_epik_Chemistry_Notes>
This compound has a N-S or N-O group and may undergo hydrolysis at high or low pH.

> <s_lp_Force_Field>
OPLS_2005

> <r_lp_Energy>
28.4776

> <b_lp_Chiralities_Consistent>
1

> <s_lp_Variant>
AV-unprocessed.smi:2590-1

> <Gold.Version>
5.8.1

> <Gold.Id.Protein>
6NUR|6NUR_protein|mol2

> <Gold.PLP.Fitness>
37.3251

> <Gold.PLP.PLP>
-29.9013

> <Gold.PLP.part.hbond>
-1.0000

> <Gold.PLP.part.metal>
0.0000

> <Gold.PLP.part.buried>
-0.5656

> <Gold.PLP.part.nonpolar>
-27.7008

> <Gold.PLP.part.repulsive>
0.4814

> <Gold.PLP.ligand.clash>
0.0000

> <Gold.PLP.ligand.torsion>
0.6920

> <Gold.PLP.Chemscore.Hbond>
0.9000

> <Gold.PLP.Chemscore.CHOScore>
1.6948

> <Gold.PLP.Chemscore.Metal>
0.0000

> <Gold.Chemscore.Hbonds>
donor molecule, donor type, donor heavy atom, donor atom, acceptor molecule, acceptor atom, score
      P1  H  7989  7998       L1     3  0.85
      L1  C     4    18       P1  7957  0.95
      L1  C     5    19       P1  8028  0.74

> <Gold.PLP.Chemscore.Internal.Correction>
1.0233

> <Gold.Rescore>
     Score         DG    S(hbond)    S(metal)    S(lipo)     H(rot)  DE(clash)    DE(int)     intcor
     10.01     -13.59       0.14        0.00      65.31       0.00       0.07       3.51       ----

> <Gold.Chemscore.Fitness>
10.0059

> <Gold.Chemscore.DG>
-13.5917

> <Gold.Chemscore.ZeroCoef>
-5.4800

> <Gold.Chemscore.Hbond>
0.1410

> <Gold.Chemscore.Metal>
0.0000

> <Gold.Chemscore.Lipo>
65.3063

> <Gold.Chemscore.Internal_Hbond>
0.0000

> <Gold.Chemscore.DEClash>
0.0747

> <Gold.Chemscore.DEInternal>
3.5111

> <Gold.Chemscore.Rot>
0.0000

> <Gold.Chemscore.Internal.Correction>
   9.000000E+99

> <Gold.Chemscore.Hbonds>
donor molecule, donor type, donor heavy atom, donor atom, acceptor molecule, acceptor atom, score
      P1  H  7989  7998       L1     3  0.04

> <Gold.Chemscore.Hbond.Weighted>
-0.4708

> <Gold.Chemscore.Metal.Weighted>
-0.0000

> <Gold.Chemscore.Lipo.Weighted>
-7.6408

> <Gold.Chemscore.Internal_Hbond.Weighted>
0.0000

> <Gold.Chemscore.DEClash.Weighted>
0.0747

> <Gold.Chemscore.DEInternal.Weighted>
3.5111

> <Gold.Chemscore.Rot.Weighted>
0.0000

> <Gold.Chemscore.Internal.Correction.Weighted>
   9.000000E+99

> <Gold.Protein.RotatedTorsions>
[ 6907 6896 6895 6894 ] final  121.23 input  -60.11 | X-H torsion
[ 7974 7965 7964 7962 ] final   -1.64 input  175.53 | X-H torsion
[ 8008 7997 7996 7995 ] final   12.50 input   59.86 | X-H torsion
[ 10167 10162 10161 10158 ] final  -61.95 input  -65.29 | X-H torsion
[ 10718 10713 10712 10709 ] final -103.44 input   66.30 | X-H torsion
[ 10763 10752 10751 10750 ] final  -43.15 input  -60.55 | X-H torsion
[ 11005 11000 10999 10996 ] final  146.02 input  -57.11 | X-H torsion

> <Gold.Protein.ActiveResidues>
 VAL166  LYS551  ARG553  GLY616  TRP617  ASP618  TYR619  PRO620  LYS621  CYS622 
 ASP623  PHE694  ASN695  SER759  ASP760  ASP761  ALA762  ILE779  LEU786  VAL792 
 PHE793  MET794  SER795  GLU796  ALA797  LYS798  CYS799  TRP800  GLU811  SER814 

> <Gold.Protein.RotatedAtoms>
  152.4337  133.7323  159.6594 H   0  0  0  0  0  0  0  0  0  0  0  0  # atno 6907 bound_to 6896
  150.8219  133.8228  159.3141 H   0  0  0  0  0  0  0  0  0  0  0  0  # atno 6908 bound_to 6896
  151.5907  135.1056  160.0090 H   0  0  0  0  0  0  0  0  0  0  0  0  # atno 6909 bound_to 6896
  146.2414  140.1451  142.8335 H   0  0  0  0  0  0  0  0  0  0  0  0  # atno 7974 bound_to 7965
  154.8214  140.2884  155.5784 H   0  0  0  0  0  0  0  0  0  0  0  0  # atno 8008 bound_to 7997
  156.2998  140.2549  156.3052 H   0  0  0  0  0  0  0  0  0  0  0  0  # atno 8009 bound_to 7997
  154.9334  140.0383  157.2049 H   0  0  0  0  0  0  0  0  0  0  0  0  # atno 8010 bound_to 7997
  140.5972  143.2353  151.6010 H   0  0  0  0  0  0  0  0  0  0  0  0  # atno 10167 bound_to 10162
  156.0265  130.5467  150.7253 H   0  0  0  0  0  0  0  0  0  0  0  0  # atno 10718 bound_to 10713
  153.9909  135.6705  153.4754 H   0  0  0  0  0  0  0  0  0  0  0  0  # atno 10763 bound_to 10752
  153.0705  135.4976  154.8292 H   0  0  0  0  0  0  0  0  0  0  0  0  # atno 10764 bound_to 10752
  154.7110  135.3097  154.9160 H   0  0  0  0  0  0  0  0  0  0  0  0  # atno 10765 bound_to 10752
  140.0759  134.9125  157.1422 H   0  0  0  0  0  0  0  0  0  0  0  0  # atno 11005 bound_to 11000
  145.0214  140.8797  143.5164 LP  0  0  0  0  0  0  0  0  0  0  0  0  # atno 17320 bound_to 7965
  145.1500  139.2520  143.5446 LP  0  0  0  0  0  0  0  0  0  0  0  0  # atno 17321 bound_to 7965
  139.5266  144.3041  152.1048 LP  0  0  0  0  0  0  0  0  0  0  0  0  # atno 17342 bound_to 10162
  140.2215  144.4461  150.6340 LP  0  0  0  0  0  0  0  0  0  0  0  0  # atno 17343 bound_to 10162
  157.4859  131.0906  151.0483 LP  0  0  0  0  0  0  0  0  0  0  0  0  # atno 17370 bound_to 10713
  157.0903  130.5939  149.5438 LP  0  0  0  0  0  0  0  0  0  0  0  0  # atno 17371 bound_to 10713
  140.3558  134.2548  155.7193 LP  0  0  0  0  0  0  0  0  0  0  0  0  # atno 17394 bound_to 11000
  141.2029  133.7925  157.0366 LP  0  0  0  0  0  0  0  0  0  0  0  0  # atno 17395 bound_to 11000

$$$$
