AV-unprocessed.smi:2888|AV-procd|sdf|11100|dock8
  -GOLD-   2272015573D 1   1.00000     0.00000
 Structure written by MMmdl.
 33 35  0  0  0  0  0  0  0  0  1 V2000
  151.6899  144.9972  158.6058 C   0  0  0  0  0  0  0  0  0  0  0  0
  152.0791  143.6366  159.1431 C   0  0  0  0  0  0  0  0  0  0  0  0
  152.7541  143.4929  160.3733 C   0  0  0  0  0  0  0  0  0  0  0  0
  153.0600  142.1717  160.7619 C   0  0  0  0  0  0  0  0  0  0  0  0
  153.7791  141.8746  162.0606 C   0  0  0  0  0  0  0  0  0  0  0  0
  152.7231  141.1084  159.9984 N   0  0  0  0  0  0  0  0  0  0  0  0
  152.0824  141.3607  158.8540 C   0  0  0  0  0  0  0  0  0  0  0  0
  151.7455  140.2494  158.1035 N   0  0  0  0  0  0  0  0  0  0  0  0
  150.6734  140.2178  157.1167 C   0  0  2  0  0  0  0  0  0  0  0  0
  150.5170  138.8469  156.4466 C   0  0  0  0  0  0  0  0  0  0  0  0
  150.6523  139.2038  154.9613 C   0  0  1  0  0  0  0  0  0  0  0  0
  149.4546  140.0138  154.4462 C   0  0  0  0  0  0  0  0  0  0  0  0
  149.7017  141.3789  155.0878 C   0  0  0  0  0  0  0  0  0  0  0  0
  150.9735  141.1182  155.9065 C   0  0  2  0  0  0  0  0  0  0  0  0
  151.6407  140.2157  155.0385 O   0  0  0  0  0  0  0  0  0  0  0  0
  151.7439  142.5687  158.3867 N   0  0  0  0  0  0  0  0  0  0  0  0
  152.0718  145.7960  159.2422 H   0  0  0  0  0  0  0  0  0  0  0  0
  150.6044  145.0876  158.5578 H   0  0  0  0  0  0  0  0  0  0  0  0
  152.0924  145.1394  157.6026 H   0  0  0  0  0  0  0  0  0  0  0  0
  153.0201  144.3445  160.9822 H   0  0  0  0  0  0  0  0  0  0  0  0
  154.1073  142.7932  162.5475 H   0  0  0  0  0  0  0  0  0  0  0  0
  154.6573  141.2549  161.8771 H   0  0  0  0  0  0  0  0  0  0  0  0
  153.1187  141.3422  162.7453 H   0  0  0  0  0  0  0  0  0  0  0  0
  152.1609  139.3705  158.3760 H   0  0  0  0  0  0  0  0  0  0  0  0
  149.7455  140.5354  157.5943 H   0  0  0  0  0  0  0  0  0  0  0  0
  151.3127  138.1608  156.7411 H   0  0  0  0  0  0  0  0  0  0  0  0
  149.5623  138.3731  156.6775 H   0  0  0  0  0  0  0  0  0  0  0  0
  150.9229  138.3593  154.3270 H   0  0  0  0  0  0  0  0  0  0  0  0
  149.4752  140.0930  153.3587 H   0  0  0  0  0  0  0  0  0  0  0  0
  148.5014  139.5728  154.7397 H   0  0  0  0  0  0  0  0  0  0  0  0
  149.8843  142.1331  154.3216 H   0  0  0  0  0  0  0  0  0  0  0  0
  148.8682  141.7149  155.7054 H   0  0  0  0  0  0  0  0  0  0  0  0
  151.5341  142.0239  156.1416 H   0  0  0  0  0  0  0  0  0  0  0  0
  1  2  1  0  0  0  0
  1 17  1  0  0  0  0
  1 18  1  0  0  0  0
  1 19  1  0  0  0  0
  2 16  1  0  0  0  0
  2  3  2  0  0  0  0
  3  4  1  0  0  0  0
  3 20  1  0  0  0  0
  4  5  1  0  0  0  0
  4  6  2  0  0  0  0
  5 21  1  0  0  0  0
  5 22  1  0  0  0  0
  5 23  1  0  0  0  0
  6  7  1  0  0  0  0
  7  8  1  0  0  0  0
  7 16  2  0  0  0  0
  8  9  1  0  0  0  0
  8 24  1  0  0  0  0
  9 14  1  0  0  0  0
  9 10  1  0  0  0  0
  9 25  1  0  0  0  0
 10 11  1  0  0  0  0
 10 26  1  0  0  0  0
 10 27  1  0  0  0  0
 11 15  1  0  0  0  0
 11 12  1  0  0  0  0
 11 28  1  0  0  0  0
 12 13  1  0  0  0  0
 12 29  1  0  0  0  0
 12 30  1  0  0  0  0
 13 14  1  0  0  0  0
 13 31  1  0  0  0  0
 13 32  1  0  0  0  0
 14 15  1  0  0  0  0
 14 33  1  0  0  0  0
M  END
> <s_m_source_file>
AV-unprocessed.smi

> <i_m_source_file_index>
2888

> <i_lp_mmshare_version>
43012

> <i_f3d_flags>
0

> <s_epik_input>
W0NIM11jMVtjSF1jKFtDSDNdKW5jKG4xKVtOSF1bQ0BIXShbQ0gyXVtDQEBIXTIzKVtDQEBIXShPMylbQ0gyXVtDSDJdMg==

> <s_epik_cmdline>
J2VwaWtfcHl0aG9uJywgJy1waCcsICc3LjAnLCAnLXRuJywgJzgnLCAnLW1hJywgJzIwMCcsICctbWV0YWxfYmluZGluZycsICctaW1hZScsICc8aW5maWxlLm1hZT4nLCAnLW9tYWUnLCAnPG91dGZpbGUubWFlPic=

> <r_lp_tautomer_probability>
1

> <r_epik_Ionization_Penalty>
0.00890508

> <r_epik_Ionization_Penalty_Charging>
0

> <r_epik_Ionization_Penalty_Neutral>
0.00890508

> <r_epik_State_Penalty>
0.0067342

> <r_epik_Charging_Adjusted_Penalty>
0.0067342

> <i_epik_Tot_Q>
0

> <i_epik_Tot_abs_Q>
0

> <r_epik_Metal_State_Penalty>
0.00663442

> <b_epik_Metal_Only>
0

> <s_lp_Force_Field>
OPLS_2005

> <r_lp_Energy>
31.5378

> <b_lp_Chiralities_Consistent>
1

> <s_lp_Variant>
AV-unprocessed.smi:2888-1

> <Gold.Version>
5.8.1

> <Gold.Id.Protein>
6NUR|6NUR_protein|mol2

> <Gold.PLP.Fitness>
39.8046

> <Gold.PLP.PLP>
-37.1742

> <Gold.PLP.part.hbond>
-1.0000

> <Gold.PLP.part.metal>
0.0000

> <Gold.PLP.part.buried>
-3.8099

> <Gold.PLP.part.nonpolar>
-31.0161

> <Gold.PLP.part.repulsive>
0.1600

> <Gold.PLP.ligand.clash>
0.0000

> <Gold.PLP.ligand.torsion>
0.1342

> <Gold.PLP.Chemscore.Hbond>
0.9600

> <Gold.PLP.Chemscore.CHOScore>
0.0000

> <Gold.PLP.Chemscore.Metal>
0.0000

> <Gold.Chemscore.Hbonds>
donor molecule, donor type, donor heavy atom, donor atom, acceptor molecule, acceptor atom, score
      P1  H  7989  7998       L1    15  0.96

> <Gold.PLP.Chemscore.Internal.Correction>
0.0187

> <Gold.Rescore>
     Score         DG    S(hbond)    S(metal)    S(lipo)     H(rot)  DE(clash)    DE(int)     intcor
     15.68     -16.99       0.84        0.00      96.22       1.00       0.02       1.28       ----

> <Gold.Chemscore.Fitness>
15.6795

> <Gold.Chemscore.DG>
-16.9888

> <Gold.Chemscore.ZeroCoef>
-5.4800

> <Gold.Chemscore.Hbond>
0.8415

> <Gold.Chemscore.Metal>
0.0000

> <Gold.Chemscore.Lipo>
96.2240

> <Gold.Chemscore.Internal_Hbond>
0.0000

> <Gold.Chemscore.DEClash>
0.0243

> <Gold.Chemscore.DEInternal>
1.2849

> <Gold.Chemscore.Rot>
1.0000

> <Gold.Chemscore.Internal.Correction>
   9.000000E+99

> <Gold.Chemscore.Hbonds>
donor molecule, donor type, donor heavy atom, donor atom, acceptor molecule, acceptor atom, score
      P1  H  7989  7998       L1    15  0.27

> <Gold.Chemscore.Hbond.Weighted>
-2.8106

> <Gold.Chemscore.Metal.Weighted>
-0.0000

> <Gold.Chemscore.Lipo.Weighted>
-11.2582

> <Gold.Chemscore.Internal_Hbond.Weighted>
0.0000

> <Gold.Chemscore.DEClash.Weighted>
0.0243

> <Gold.Chemscore.DEInternal.Weighted>
1.2849

> <Gold.Chemscore.Rot.Weighted>
2.5600

> <Gold.Chemscore.Internal.Correction.Weighted>
   9.000000E+99

> <Gold.Protein.RotatedTorsions>
[ 6907 6896 6895 6894 ] final  146.92 input  -60.11 | X-H torsion
[ 7974 7965 7964 7962 ] final -166.47 input  175.53 | X-H torsion
[ 8008 7997 7996 7995 ] final   63.83 input   59.86 | X-H torsion
[ 10167 10162 10161 10158 ] final  -90.69 input  -65.29 | X-H torsion
[ 10718 10713 10712 10709 ] final -156.26 input   66.30 | X-H torsion
[ 10763 10752 10751 10750 ] final  -87.17 input  -60.55 | X-H torsion
[ 11005 11000 10999 10996 ] final   88.07 input  -57.11 | X-H torsion

> <Gold.Protein.ActiveResidues>
 VAL166  LYS551  ARG553  GLY616  TRP617  ASP618  TYR619  PRO620  LYS621  CYS622 
 ASP623  PHE694  ASN695  SER759  ASP760  ASP761  ALA762  ILE779  LEU786  VAL792 
 PHE793  MET794  SER795  GLU796  ALA797  LYS798  CYS799  TRP800  GLU811  SER814 

> <Gold.Protein.RotatedAtoms>
  152.1616  133.4585  159.4863 H   0  0  0  0  0  0  0  0  0  0  0  0  # atno 6907 bound_to 6896
  150.6907  134.2065  159.4351 H   0  0  0  0  0  0  0  0  0  0  0  0  # atno 6908 bound_to 6896
  151.9967  134.9950  160.0614 H   0  0  0  0  0  0  0  0  0  0  0  0  # atno 6909 bound_to 6896
  144.7245  140.2662  143.6257 H   0  0  0  0  0  0  0  0  0  0  0  0  # atno 7974 bound_to 7965
  155.6365  140.3496  155.4700 H   0  0  0  0  0  0  0  0  0  0  0  0  # atno 8008 bound_to 7997
  155.9961  140.1203  157.0616 H   0  0  0  0  0  0  0  0  0  0  0  0  # atno 8009 bound_to 7997
  154.4234  140.1110  156.5618 H   0  0  0  0  0  0  0  0  0  0  0  0  # atno 8010 bound_to 7997
  140.3524  143.2884  151.9711 H   0  0  0  0  0  0  0  0  0  0  0  0  # atno 10167 bound_to 10162
  156.5240  130.8491  151.2692 H   0  0  0  0  0  0  0  0  0  0  0  0  # atno 10718 bound_to 10713
  154.6306  135.5423  153.7676 H   0  0  0  0  0  0  0  0  0  0  0  0  # atno 10763 bound_to 10752
  153.0283  135.6435  154.1306 H   0  0  0  0  0  0  0  0  0  0  0  0  # atno 10764 bound_to 10752
  154.1236  135.2918  155.3182 H   0  0  0  0  0  0  0  0  0  0  0  0  # atno 10765 bound_to 10752
  139.8905  134.8464  156.2949 H   0  0  0  0  0  0  0  0  0  0  0  0  # atno 11005 bound_to 11000
  145.8087  139.1994  143.2005 LP  0  0  0  0  0  0  0  0  0  0  0  0  # atno 17320 bound_to 7965
  146.0614  140.7966  142.9733 LP  0  0  0  0  0  0  0  0  0  0  0  0  # atno 17321 bound_to 7965
  139.4824  144.6065  151.7512 LP  0  0  0  0  0  0  0  0  0  0  0  0  # atno 17342 bound_to 10162
  140.5206  144.0884  150.6021 LP  0  0  0  0  0  0  0  0  0  0  0  0  # atno 17343 bound_to 10162
  157.7432  130.9907  150.2576 LP  0  0  0  0  0  0  0  0  0  0  0  0  # atno 17370 bound_to 10713
  156.3122  130.3773  149.7651 LP  0  0  0  0  0  0  0  0  0  0  0  0  # atno 17371 bound_to 10713
  140.9952  133.7184  156.0875 LP  0  0  0  0  0  0  0  0  0  0  0  0  # atno 17394 bound_to 11000
  140.7572  134.3979  157.5532 LP  0  0  0  0  0  0  0  0  0  0  0  0  # atno 17395 bound_to 11000

$$$$
