AV-unprocessed.smi:1944|AV-procd|sdf|7854|dock3
  -GOLD-   2272010 03D 1   1.00000     0.00000
 Structure written by MMmdl.
 46 47  0  0  0  0  0  0  0  0  2 V2000
  151.7694  138.3205  154.5232 C   0  0  0  0  0  0  0  0  0  0  0  0
  150.4133  138.3050  154.0902 O   0  0  0  0  0  0  0  0  0  0  0  0
  149.6642  139.4582  154.2275 C   0  0  0  0  0  0  0  0  0  0  0  0
  150.2290  140.5243  154.8480 N   0  0  0  0  0  0  0  0  0  0  0  0
  149.5007  141.6519  154.9802 C   0  0  0  0  0  0  0  0  0  0  0  0
  148.1848  141.7798  154.4993 C   0  0  0  0  0  0  0  0  0  0  0  0
  147.5965  140.6755  153.8557 C   0  0  0  0  0  0  0  0  0  0  0  0
  148.3426  139.4794  153.7234 C   0  0  0  0  0  0  0  0  0  0  0  0
  147.8485  138.3162  153.0713 N   0  0  0  0  0  0  0  0  0  0  0  0
  146.5823  137.8706  153.0115 C   0  0  0  0  0  0  0  0  0  0  0  0
  145.6157  138.3950  153.5650 O   0  0  0  0  0  0  0  0  0  0  0  0
  146.4928  136.7498  152.2814 N   0  0  0  0  0  0  0  0  0  0  0  0
  145.2538  136.0265  152.0193 C   0  0  0  0  0  0  0  0  0  0  0  0
  145.0950  135.7053  150.5200 C   0  0  0  0  0  0  0  0  0  0  0  0
  145.1997  134.2526  150.2147 N   0  3  1  0  0  0  0  0  0  0  0  0
  146.4366  133.6509  150.7823 C   0  0  0  0  0  0  0  0  0  0  0  0
  146.6448  132.2142  150.2776 C   0  0  0  0  0  0  0  0  0  0  0  0
  145.4242  131.3403  150.5847 C   0  0  0  0  0  0  0  0  0  0  0  0
  144.1605  131.9906  150.0055 C   0  0  0  0  0  0  0  0  0  0  0  0
  143.9726  133.4416  150.4982 C   0  0  1  0  0  0  0  0  0  0  0  0
  143.5143  133.5015  151.9716 C   0  0  0  0  0  0  0  0  0  0  0  0
  152.2124  137.3393  154.3541 H   0  0  0  0  0  0  0  0  0  0  0  0
  151.8459  138.5377  155.5895 H   0  0  0  0  0  0  0  0  0  0  0  0
  152.3589  139.0497  153.9655 H   0  0  0  0  0  0  0  0  0  0  0  0
  149.9839  142.4795  155.4780 H   0  0  0  0  0  0  0  0  0  0  0  0
  147.6410  142.7055  154.6168 H   0  0  0  0  0  0  0  0  0  0  0  0
  146.5957  140.7716  153.4640 H   0  0  0  0  0  0  0  0  0  0  0  0
  148.5523  137.7265  152.6514 H   0  0  0  0  0  0  0  0  0  0  0  0
  147.3365  136.3806  151.8673 H   0  0  0  0  0  0  0  0  0  0  0  0
  145.2438  135.1223  152.6282 H   0  0  0  0  0  0  0  0  0  0  0  0
  144.4206  136.6421  152.3595 H   0  0  0  0  0  0  0  0  0  0  0  0
  144.1084  136.0525  150.2093 H   0  0  0  0  0  0  0  0  0  0  0  0
  145.8078  136.2692  149.9182 H   0  0  0  0  0  0  0  0  0  0  0  0
  147.3012  134.2499  150.4940 H   0  0  0  0  0  0  0  0  0  0  0  0
  146.3975  133.6709  151.8719 H   0  0  0  0  0  0  0  0  0  0  0  0
  146.8240  132.2267  149.2016 H   0  0  0  0  0  0  0  0  0  0  0  0
  147.5362  131.7836  150.7348 H   0  0  0  0  0  0  0  0  0  0  0  0
  145.5603  130.3437  150.1636 H   0  0  0  0  0  0  0  0  0  0  0  0
  145.3210  131.2091  151.6623 H   0  0  0  0  0  0  0  0  0  0  0  0
  144.2296  131.9888  148.9166 H   0  0  0  0  0  0  0  0  0  0  0  0
  143.2843  131.3897  150.2514 H   0  0  0  0  0  0  0  0  0  0  0  0
  143.1587  133.8480  149.8997 H   0  0  0  0  0  0  0  0  0  0  0  0
  142.6385  132.8710  152.1263 H   0  0  0  0  0  0  0  0  0  0  0  0
  143.2261  134.5104  152.2662 H   0  0  0  0  0  0  0  0  0  0  0  0
  144.2844  133.1584  152.6618 H   0  0  0  0  0  0  0  0  0  0  0  0
  145.3248  134.2023  149.2137 H   0  0  0  0  0  0  0  0  0  0  0  0
  1  2  1  0  0  0  0
  1 22  1  0  0  0  0
  1 23  1  0  0  0  0
  1 24  1  0  0  0  0
  2  3  1  0  0  0  0
  3  8  1  0  0  0  0
  3  4  2  0  0  0  0
  4  5  1  0  0  0  0
  5  6  2  0  0  0  0
  5 25  1  0  0  0  0
  6  7  1  0  0  0  0
  6 26  1  0  0  0  0
  7  8  2  0  0  0  0
  7 27  1  0  0  0  0
  8  9  1  0  0  0  0
  9 10  1  0  0  0  0
  9 28  1  0  0  0  0
 10 11  2  0  0  0  0
 10 12  1  0  0  0  0
 12 13  1  0  0  0  0
 12 29  1  0  0  0  0
 13 14  1  0  0  0  0
 13 30  1  0  0  0  0
 13 31  1  0  0  0  0
 14 15  1  0  0  0  0
 14 32  1  0  0  0  0
 14 33  1  0  0  0  0
 15 20  1  0  0  0  0
 15 16  1  0  0  0  0
 15 46  1  0  0  0  0
 16 17  1  0  0  0  0
 16 34  1  0  0  0  0
 16 35  1  0  0  0  0
 17 18  1  0  0  0  0
 17 36  1  0  0  0  0
 17 37  1  0  0  0  0
 18 19  1  0  0  0  0
 18 38  1  0  0  0  0
 18 39  1  0  0  0  0
 19 20  1  0  0  0  0
 19 40  1  0  0  0  0
 19 41  1  0  0  0  0
 20 21  1  0  0  0  0
 20 42  1  0  0  0  0
 21 43  1  0  0  0  0
 21 44  1  0  0  0  0
 21 45  1  0  0  0  0
M  CHG  1  15   1
M  END
> <s_m_source_file>
AV-unprocessed.smi

> <i_m_source_file_index>
1944

> <i_lp_mmshare_version>
43012

> <i_f3d_flags>
0

> <s_epik_input>
W0NIM11PYzFuW2NIXVtjSF1bY0hdYzFbTkhdQyg9TylbTkhdW0NIMl1bQ0gyXU4yW0NIMl1bQ0gyXVtDSDJdW0NIMl1bQ0BIXTJbQ0gzXQ==

> <s_epik_cmdline>
J2VwaWtfcHl0aG9uJywgJy1waCcsICc3LjAnLCAnLXRuJywgJzgnLCAnLW1hJywgJzIwMCcsICctbWV0YWxfYmluZGluZycsICctaW1hZScsICc8aW5maWxlLm1hZT4nLCAnLW9tYWUnLCAnPG91dGZpbGUubWFlPic=

> <r_lp_tautomer_probability>
1

> <r_epik_Ionization_Penalty>
0.00219525

> <r_epik_Ionization_Penalty_Charging>
0.00211816

> <r_epik_Ionization_Penalty_Neutral>
7.7088e-05

> <r_epik_State_Penalty>
0.00145254

> <r_epik_Charging_Adjusted_Penalty>
0.0035707

> <i_epik_Tot_Q>
1

> <i_epik_Tot_abs_Q>
1

> <r_epik_Metal_State_Penalty>
-0

> <b_epik_Metal_Only>
0

> <s_lp_Force_Field>
OPLS_2005

> <r_lp_Energy>
22.8304

> <b_lp_Chiralities_Consistent>
1

> <s_lp_Variant>
AV-unprocessed.smi:1944-2

> <Gold.Version>
5.8.1

> <Gold.Id.Protein>
6NUR|6NUR_protein|mol2

> <Gold.PLP.Fitness>
50.6845

> <Gold.PLP.PLP>
-37.8866

> <Gold.PLP.part.hbond>
-4.7408

> <Gold.PLP.part.metal>
0.0000

> <Gold.PLP.part.buried>
2.8550

> <Gold.PLP.part.nonpolar>
-38.0826

> <Gold.PLP.part.repulsive>
1.5817

> <Gold.PLP.ligand.clash>
0.0000

> <Gold.PLP.ligand.torsion>
0.7336

> <Gold.PLP.Chemscore.Hbond>
3.9040

> <Gold.PLP.Chemscore.CHOScore>
0.8176

> <Gold.PLP.Chemscore.Metal>
0.0000

> <Gold.Chemscore.Hbonds>
donor molecule, donor type, donor heavy atom, donor atom, acceptor molecule, acceptor atom, score
      L1  H     9    28       P1  7948  0.99
      L1  H    12    29       P1  7948  1.00
      L1  H    15    46       P1  7921  1.00
      P1  H  7989  7998       L1     4  0.80
      L1  C     5    25       P1  8028  0.83

> <Gold.PLP.Chemscore.Internal.Correction>
0.1002

> <Gold.Rescore>
     Score         DG    S(hbond)    S(metal)    S(lipo)     H(rot)  DE(clash)    DE(int)     intcor
     19.38     -22.66       2.92        0.00     100.82       1.71       1.60       1.67       ----

> <Gold.Chemscore.Fitness>
19.3811

> <Gold.Chemscore.DG>
-22.6559

> <Gold.Chemscore.ZeroCoef>
-5.4800

> <Gold.Chemscore.Hbond>
2.9221

> <Gold.Chemscore.Metal>
0.0000

> <Gold.Chemscore.Lipo>
100.8174

> <Gold.Chemscore.Internal_Hbond>
0.0000

> <Gold.Chemscore.DEClash>
1.6045

> <Gold.Chemscore.DEInternal>
1.6703

> <Gold.Chemscore.Rot>
1.7107

> <Gold.Chemscore.Internal.Correction>
   9.000000E+99

> <Gold.Chemscore.Hbonds>
donor molecule, donor type, donor heavy atom, donor atom, acceptor molecule, acceptor atom, score
      L1  H     9    28       P1  7948  0.94
      L1  H    12    29       P1  7948  0.95
      L1  H    15    46       P1  7921  0.91
      P1  H  7989  7998       L1     4  0.08

> <Gold.Chemscore.Hbond.Weighted>
-9.7597

> <Gold.Chemscore.Metal.Weighted>
-0.0000

> <Gold.Chemscore.Lipo.Weighted>
-11.7956

> <Gold.Chemscore.Internal_Hbond.Weighted>
0.0000

> <Gold.Chemscore.DEClash.Weighted>
1.6045

> <Gold.Chemscore.DEInternal.Weighted>
1.6703

> <Gold.Chemscore.Rot.Weighted>
4.3794

> <Gold.Chemscore.Internal.Correction.Weighted>
   9.000000E+99

> <Gold.Protein.RotatedTorsions>
[ 6907 6896 6895 6894 ] final   91.97 input  -60.11 | X-H torsion
[ 7974 7965 7964 7962 ] final   26.95 input  175.53 | X-H torsion
[ 8008 7997 7996 7995 ] final  -16.27 input   59.86 | X-H torsion
[ 10167 10162 10161 10158 ] final -107.08 input  -65.29 | X-H torsion
[ 10718 10713 10712 10709 ] final  -82.75 input   66.30 | X-H torsion
[ 10763 10752 10751 10750 ] final    6.05 input  -60.55 | X-H torsion
[ 11005 11000 10999 10996 ] final  -15.28 input  -57.11 | X-H torsion

> <Gold.Protein.ActiveResidues>
 VAL166  LYS551  ARG553  GLY616  TRP617  ASP618  TYR619  PRO620  LYS621  CYS622 
 ASP623  PHE694  ASN695  SER759  ASP760  ASP761  ALA762  ILE779  LEU786  VAL792 
 PHE793  MET794  SER795  GLU796  ALA797  LYS798  CYS799  TRP800  GLU811  SER814 

> <Gold.Protein.RotatedAtoms>
  152.5451  134.1575  159.8543 H   0  0  0  0  0  0  0  0  0  0  0  0  # atno 6907 bound_to 6896
  151.1596  133.4847  159.2602 H   0  0  0  0  0  0  0  0  0  0  0  0  # atno 6908 bound_to 6896
  151.1387  135.0179  159.8671 H   0  0  0  0  0  0  0  0  0  0  0  0  # atno 6909 bound_to 6896
  146.1810  139.7258  142.8900 H   0  0  0  0  0  0  0  0  0  0  0  0  # atno 7974 bound_to 7965
  154.5066  140.2174  155.9239 H   0  0  0  0  0  0  0  0  0  0  0  0  # atno 8008 bound_to 7997
  156.1501  140.3163  155.8600 H   0  0  0  0  0  0  0  0  0  0  0  0  # atno 8009 bound_to 7997
  155.3955  140.0481  157.3029 H   0  0  0  0  0  0  0  0  0  0  0  0  # atno 8010 bound_to 7997
  140.1808  143.3968  152.1283 H   0  0  0  0  0  0  0  0  0  0  0  0  # atno 10167 bound_to 10162
  156.0028  130.4644  150.4153 H   0  0  0  0  0  0  0  0  0  0  0  0  # atno 10718 bound_to 10713
  153.2523  135.6915  153.7666 H   0  0  0  0  0  0  0  0  0  0  0  0  # atno 10763 bound_to 10752
  153.6756  135.3337  155.3166 H   0  0  0  0  0  0  0  0  0  0  0  0  # atno 10764 bound_to 10752
  154.8399  135.4510  154.1484 H   0  0  0  0  0  0  0  0  0  0  0  0  # atno 10765 bound_to 10752
  140.7950  133.8258  155.9415 H   0  0  0  0  0  0  0  0  0  0  0  0  # atno 11005 bound_to 11000
  145.4075  141.0392  143.3036 LP  0  0  0  0  0  0  0  0  0  0  0  0  # atno 17320 bound_to 7965
  144.8316  139.5620  143.6941 LP  0  0  0  0  0  0  0  0  0  0  0  0  # atno 17321 bound_to 7965
  139.5297  144.7144  151.5101 LP  0  0  0  0  0  0  0  0  0  0  0  0  # atno 17342 bound_to 10162
  140.6521  143.8676  150.6796 LP  0  0  0  0  0  0  0  0  0  0  0  0  # atno 17343 bound_to 10162
  157.2212  131.0483  151.2545 LP  0  0  0  0  0  0  0  0  0  0  0  0  # atno 17370 bound_to 10713
  157.3798  130.7225  149.6622 LP  0  0  0  0  0  0  0  0  0  0  0  0  # atno 17371 bound_to 10713
  140.9352  134.1972  157.4837 LP  0  0  0  0  0  0  0  0  0  0  0  0  # atno 17394 bound_to 11000
  139.8727  134.9849  156.5259 LP  0  0  0  0  0  0  0  0  0  0  0  0  # atno 17395 bound_to 11000

$$$$
