AV-unprocessed.smi:1565|AV-procd|sdf|6300|dock2
  -GOLD-   22720 6503D 1   1.00000     0.00000
 Structure written by MMmdl.
 39 40  0  0  0  0  0  0  0  0  2 V2000
  152.4184  138.5788  155.2622 C   0  0  0  0  0  0  0  0  0  0  0  0
  151.0103  139.1655  155.4072 C   0  0  2  0  0  0  0  0  0  0  0  0
  149.9740  138.3769  154.5870 C   0  0  0  0  0  0  0  0  0  0  0  0
  148.6732  139.0352  154.6471 N   0  0  0  0  0  0  0  0  0  0  0  0
  147.5764  138.2562  154.2209 C   0  0  0  0  0  0  0  0  0  0  0  0
  147.3412  136.9871  154.7990 C   0  0  0  0  0  0  0  0  0  0  0  0
  146.2436  136.2234  154.3576 C   0  0  0  0  0  0  0  0  0  0  0  0
  145.3968  136.7474  153.3548 C   0  0  0  0  0  0  0  0  0  0  0  0
  144.2238  135.9757  152.8127 C   0  0  0  0  0  0  0  0  0  0  0  0
  143.1591  136.5813  152.6464 O   0  0  0  0  0  0  0  0  0  0  0  0
  144.5105  134.6563  152.6255 N   0  5  0  0  0  0  0  0  0  0  0  0
  143.7640  133.7701  151.7291 C   0  0  0  0  0  0  0  0  0  0  0  0
  144.6702  132.6605  151.1583 C   0  0  0  0  0  0  0  0  0  0  0  0
  144.0497  132.0784  150.1321 F   0  0  0  0  0  0  0  0  0  0  0  0
  145.8218  133.1705  150.7191 F   0  0  0  0  0  0  0  0  0  0  0  0
  144.9260  131.7280  152.0773 F   0  0  0  0  0  0  0  0  0  0  0  0
  145.7175  138.0197  152.8344 C   0  0  0  0  0  0  0  0  0  0  0  0
  146.7678  138.7569  153.2550 N   0  0  0  0  0  0  0  0  0  0  0  0
  148.7195  140.4373  154.2388 C   0  0  0  0  0  0  0  0  0  0  0  0
  149.7967  141.2079  155.0271 C   0  0  1  0  0  0  0  0  0  0  0  0
  149.3871  141.5242  156.4767 C   0  0  0  0  0  0  0  0  0  0  0  0
  151.0475  140.5194  154.9574 O   0  0  0  0  0  0  0  0  0  0  0  0
  152.4494  137.5437  155.6033 H   0  0  0  0  0  0  0  0  0  0  0  0
  153.1388  139.1448  155.8534 H   0  0  0  0  0  0  0  0  0  0  0  0
  152.7500  138.5998  154.2237 H   0  0  0  0  0  0  0  0  0  0  0  0
  150.7401  139.1353  156.4628 H   0  0  0  0  0  0  0  0  0  0  0  0
  150.2861  138.3181  153.5435 H   0  0  0  0  0  0  0  0  0  0  0  0
  149.9270  137.3546  154.9596 H   0  0  0  0  0  0  0  0  0  0  0  0
  147.9784  136.5967  155.5785 H   0  0  0  0  0  0  0  0  0  0  0  0
  146.0653  135.2492  154.7895 H   0  0  0  0  0  0  0  0  0  0  0  0
  142.9051  133.3122  152.2228 H   0  0  0  0  0  0  0  0  0  0  0  0
  143.3422  134.3364  150.8979 H   0  0  0  0  0  0  0  0  0  0  0  0
  145.1140  138.4697  152.0594 H   0  0  0  0  0  0  0  0  0  0  0  0
  148.9435  140.4833  153.1720 H   0  0  0  0  0  0  0  0  0  0  0  0
  147.7483  140.9121  154.3845 H   0  0  0  0  0  0  0  0  0  0  0  0
  149.9495  142.1656  154.5285 H   0  0  0  0  0  0  0  0  0  0  0  0
  148.5052  142.1648  156.4965 H   0  0  0  0  0  0  0  0  0  0  0  0
  150.1865  142.0477  157.0013 H   0  0  0  0  0  0  0  0  0  0  0  0
  149.1450  140.6260  157.0443 H   0  0  0  0  0  0  0  0  0  0  0  0
  1  2  1  0  0  0  0
  1 23  1  0  0  0  0
  1 24  1  0  0  0  0
  1 25  1  0  0  0  0
  2 22  1  0  0  0  0
  2  3  1  0  0  0  0
  2 26  1  0  0  0  0
  3  4  1  0  0  0  0
  3 27  1  0  0  0  0
  3 28  1  0  0  0  0
  4  5  1  0  0  0  0
  4 19  1  0  0  0  0
  5 18  1  0  0  0  0
  5  6  2  0  0  0  0
  6  7  1  0  0  0  0
  6 29  1  0  0  0  0
  7  8  2  0  0  0  0
  7 30  1  0  0  0  0
  8  9  1  0  0  0  0
  8 17  1  0  0  0  0
  9 10  2  0  0  0  0
  9 11  1  0  0  0  0
 11 12  1  0  0  0  0
 12 13  1  0  0  0  0
 12 31  1  0  0  0  0
 12 32  1  0  0  0  0
 13 14  1  0  0  0  0
 13 15  1  0  0  0  0
 13 16  1  0  0  0  0
 17 18  2  0  0  0  0
 17 33  1  0  0  0  0
 19 20  1  0  0  0  0
 19 34  1  0  0  0  0
 19 35  1  0  0  0  0
 20 21  1  0  0  0  0
 20 22  1  0  0  0  0
 20 36  1  0  0  0  0
 21 37  1  0  0  0  0
 21 38  1  0  0  0  0
 21 39  1  0  0  0  0
M  CHG  1  11  -1
M  END
> <s_m_source_file>
AV-unprocessed.smi

> <i_m_source_file_index>
1565

> <i_lp_mmshare_version>
43012

> <i_f3d_flags>
0

> <s_epik_input>
W0NIM11bQ0BASF0xW0NIMl1OKFtDSDJdW0NASF0oTzEpW0NIM10pYzJbY0hdW2NIXWMoW2NIXW4yKUMoPU8pW05IXVtDSDJdQyhGKShGKUY=

> <s_epik_cmdline>
J2VwaWtfcHl0aG9uJywgJy1waCcsICc3LjAnLCAnLXRuJywgJzgnLCAnLW1hJywgJzIwMCcsICctbWV0YWxfYmluZGluZycsICctaW1hZScsICc8aW5maWxlLm1hZT4nLCAnLW9tYWUnLCAnPG91dGZpbGUubWFlPic=

> <r_lp_tautomer_probability>
1

> <r_epik_Ionization_Penalty>
6.78525

> <r_epik_Ionization_Penalty_Charging>
6.78469

> <r_epik_Ionization_Penalty_Neutral>
0.000559052

> <r_epik_State_Penalty>
6.78469

> <r_epik_Charging_Adjusted_Penalty>
13.5694

> <i_epik_Tot_Q>
-1

> <i_epik_Tot_abs_Q>
1

> <r_epik_Metal_State_Penalty>
2.70441

> <b_epik_Metal_Only>
1

> <s_lp_Force_Field>
OPLS_2005

> <r_lp_Energy>
29.3636

> <b_lp_Chiralities_Consistent>
1

> <s_lp_Variant>
AV-unprocessed.smi:1565-4

> <Gold.Version>
5.8.1

> <Gold.Id.Protein>
6NUR|6NUR_protein|mol2

> <Gold.PLP.Fitness>
39.2890

> <Gold.PLP.PLP>
-33.0307

> <Gold.PLP.part.hbond>
-0.9610

> <Gold.PLP.part.metal>
0.0000

> <Gold.PLP.part.buried>
-3.9160

> <Gold.PLP.part.nonpolar>
-29.4363

> <Gold.PLP.part.repulsive>
0.7181

> <Gold.PLP.ligand.clash>
0.0065

> <Gold.PLP.ligand.torsion>
1.3253

> <Gold.PLP.Chemscore.Hbond>
0.9920

> <Gold.PLP.Chemscore.CHOScore>
1.8672

> <Gold.PLP.Chemscore.Metal>
0.0000

> <Gold.Chemscore.Hbonds>
donor molecule, donor type, donor heavy atom, donor atom, acceptor molecule, acceptor atom, score
      P1  H  7989  7998       L1    22  1.00
      L1  C    17    33       P1 10171  0.92
      L1  C    17    33       P1 10175  0.87

> <Gold.PLP.Chemscore.Internal.Correction>
0.3377

> <Gold.Rescore>
     Score         DG    S(hbond)    S(metal)    S(lipo)     H(rot)  DE(clash)    DE(int)     intcor
     11.42     -12.46       0.79        0.00      65.34       1.29       0.00       1.04       ----

> <Gold.Chemscore.Fitness>
11.4168

> <Gold.Chemscore.DG>
-12.4601

> <Gold.Chemscore.ZeroCoef>
-5.4800

> <Gold.Chemscore.Hbond>
0.7913

> <Gold.Chemscore.Metal>
0.0000

> <Gold.Chemscore.Lipo>
65.3402

> <Gold.Chemscore.Internal_Hbond>
0.0000

> <Gold.Chemscore.DEClash>
0.0009

> <Gold.Chemscore.DEInternal>
1.0423

> <Gold.Chemscore.Rot>
1.2921

> <Gold.Chemscore.Internal.Correction>
   9.000000E+99

> <Gold.Chemscore.Hbonds>
donor molecule, donor type, donor heavy atom, donor atom, acceptor molecule, acceptor atom, score
      P1  H  7989  7998       L1    22  0.46

> <Gold.Chemscore.Hbond.Weighted>
-2.6430

> <Gold.Chemscore.Metal.Weighted>
-0.0000

> <Gold.Chemscore.Lipo.Weighted>
-7.6448

> <Gold.Chemscore.Internal_Hbond.Weighted>
0.0000

> <Gold.Chemscore.DEClash.Weighted>
0.0009

> <Gold.Chemscore.DEInternal.Weighted>
1.0423

> <Gold.Chemscore.Rot.Weighted>
3.3078

> <Gold.Chemscore.Internal.Correction.Weighted>
   9.000000E+99

> <Gold.Protein.RotatedTorsions>
[ 6907 6896 6895 6894 ] final  128.99 input  -60.11 | X-H torsion
[ 7974 7965 7964 7962 ] final  106.73 input  175.53 | X-H torsion
[ 8008 7997 7996 7995 ] final  -94.98 input   59.86 | X-H torsion
[ 10167 10162 10161 10158 ] final   79.77 input  -65.29 | X-H torsion
[ 10718 10713 10712 10709 ] final   11.57 input   66.30 | X-H torsion
[ 10763 10752 10751 10750 ] final -159.19 input  -60.55 | X-H torsion
[ 11005 11000 10999 10996 ] final   38.09 input  -57.11 | X-H torsion

> <Gold.Protein.ActiveResidues>
 VAL166  LYS551  ARG553  GLY616  TRP617  ASP618  TYR619  PRO620  LYS621  CYS622 
 ASP623  PHE694  ASN695  SER759  ASP760  ASP761  ALA762  ILE779  LEU786  VAL792 
 PHE793  MET794  SER795  GLU796  ALA797  LYS798  CYS799  TRP800  GLU811  SER814 

> <Gold.Protein.RotatedAtoms>
  152.3667  133.6366  159.6055 H   0  0  0  0  0  0  0  0  0  0  0  0  # atno 6907 bound_to 6896
  150.7639  133.9336  159.3443 H   0  0  0  0  0  0  0  0  0  0  0  0  # atno 6908 bound_to 6896
  151.7166  135.0903  160.0328 H   0  0  0  0  0  0  0  0  0  0  0  0  # atno 6909 bound_to 6896
  145.3028  139.2564  143.3805 H   0  0  0  0  0  0  0  0  0  0  0  0  # atno 7974 bound_to 7965
  154.7554  140.0484  157.0929 H   0  0  0  0  0  0  0  0  0  0  0  0  # atno 8008 bound_to 7997
  155.0005  140.3124  155.4850 H   0  0  0  0  0  0  0  0  0  0  0  0  # atno 8009 bound_to 7997
  156.2893  140.2202  156.5114 H   0  0  0  0  0  0  0  0  0  0  0  0  # atno 8010 bound_to 7997
  139.9568  144.5988  150.8109 H   0  0  0  0  0  0  0  0  0  0  0  0  # atno 10167 bound_to 10162
  156.9975  130.6066  149.5692 H   0  0  0  0  0  0  0  0  0  0  0  0  # atno 10718 bound_to 10713
  154.7495  135.3088  154.8584 H   0  0  0  0  0  0  0  0  0  0  0  0  # atno 10763 bound_to 10752
  153.9375  135.6778  153.4749 H   0  0  0  0  0  0  0  0  0  0  0  0  # atno 10764 bound_to 10752
  153.1091  135.4875  154.8931 H   0  0  0  0  0  0  0  0  0  0  0  0  # atno 10765 bound_to 10752
  140.2160  134.3697  155.8026 H   0  0  0  0  0  0  0  0  0  0  0  0  # atno 11005 bound_to 11000
  146.3146  140.3546  142.8659 LP  0  0  0  0  0  0  0  0  0  0  0  0  # atno 17320 bound_to 7965
  144.9079  140.7722  143.5826 LP  0  0  0  0  0  0  0  0  0  0  0  0  # atno 17321 bound_to 7965
  140.7566  143.3068  151.2941 LP  0  0  0  0  0  0  0  0  0  0  0  0  # atno 17342 bound_to 10162
  139.6585  144.0233  152.2676 LP  0  0  0  0  0  0  0  0  0  0  0  0  # atno 17343 bound_to 10162
  156.0183  130.5278  150.8202 LP  0  0  0  0  0  0  0  0  0  0  0  0  # atno 17370 bound_to 10713
  157.5414  131.0941  150.9822 LP  0  0  0  0  0  0  0  0  0  0  0  0  # atno 17371 bound_to 10713
  141.2225  133.7168  156.8497 LP  0  0  0  0  0  0  0  0  0  0  0  0  # atno 17394 bound_to 11000
  140.1900  134.8972  157.3049 LP  0  0  0  0  0  0  0  0  0  0  0  0  # atno 17395 bound_to 11000

$$$$
