AV-unprocessed.smi:714|AV-procd|sdf|3482|dock3
  -GOLD-   22720 0473D 1   1.00000     0.00000
 Structure written by MMmdl.
 38 39  0  0  0  0  0  0  0  0  1 V2000
  145.4251  136.7089  151.9662 C   0  0  0  0  0  0  0  0  0  0  0  0
  146.0547  137.7515  152.0544 C   0  0  0  0  0  0  0  0  0  0  0  0
  146.8021  139.0145  152.1761 C   0  0  0  0  0  0  0  0  0  0  0  0
  148.0477  138.8571  152.9183 N   0  0  0  0  0  0  0  0  0  0  0  0
  148.4599  139.6337  153.9366 C   0  0  0  0  0  0  0  0  0  0  0  0
  147.7780  140.5702  154.3565 O   0  0  0  0  0  0  0  0  0  0  0  0
  149.7721  139.2584  154.4698 C   0  0  0  0  0  0  0  0  0  0  0  0
  150.4513  138.0247  154.1097 C   0  0  0  0  0  0  0  0  0  0  0  0
  151.6694  137.7453  154.6094 C   0  0  0  0  0  0  0  0  0  0  0  0
  152.3572  138.6552  155.5291 C   0  0  0  0  0  0  0  0  0  0  0  0
  153.4832  138.3990  155.9567 O   0  0  0  0  0  0  0  0  0  0  0  0
  151.6744  139.7980  155.8717 N   0  0  0  0  0  0  0  0  0  0  0  0
  152.2162  140.8176  156.8063 C   0  0  2  0  0  0  0  0  0  0  0  0
  152.4807  140.2621  158.2204 C   0  0  0  0  0  0  0  0  0  0  0  0
  151.8568  141.2716  159.1959 C   0  0  0  0  0  0  0  0  0  0  0  0
  151.1187  142.2122  158.3685 N   0  0  0  0  0  0  0  0  0  0  0  0
  150.2980  143.2544  158.9817 C   0  0  0  0  0  0  0  0  0  0  0  0
  151.1452  144.3733  159.6157 C   0  0  0  0  0  0  0  0  0  0  0  0
  150.3320  145.3234  160.0753 F   0  0  0  0  0  0  0  0  0  0  0  0
  151.8733  143.9134  160.6329 F   0  0  0  0  0  0  0  0  0  0  0  0
  151.9564  144.9128  158.7057 F   0  0  0  0  0  0  0  0  0  0  0  0
  151.2934  142.0094  157.0581 C   0  0  0  0  0  0  0  0  0  0  0  0
  150.8044  142.6794  156.1491 O   0  0  0  0  0  0  0  0  0  0  0  0
  150.4044  140.0846  155.3261 C   0  0  0  0  0  0  0  0  0  0  0  0
  144.8718  135.7996  151.8925 H   0  0  0  0  0  0  0  0  0  0  0  0
  146.9791  139.4158  151.1770 H   0  0  0  0  0  0  0  0  0  0  0  0
  146.1686  139.7295  152.7008 H   0  0  0  0  0  0  0  0  0  0  0  0
  148.6548  138.1047  152.6278 H   0  0  0  0  0  0  0  0  0  0  0  0
  150.0015  137.3090  153.4373 H   0  0  0  0  0  0  0  0  0  0  0  0
  152.1555  136.8234  154.3257 H   0  0  0  0  0  0  0  0  0  0  0  0
  153.1443  141.2486  156.4285 H   0  0  0  0  0  0  0  0  0  0  0  0
  152.0361  139.2778  158.3708 H   0  0  0  0  0  0  0  0  0  0  0  0
  153.5501  140.1499  158.4024 H   0  0  0  0  0  0  0  0  0  0  0  0
  151.1947  140.7793  159.9092 H   0  0  0  0  0  0  0  0  0  0  0  0
  152.6275  141.8022  159.7563 H   0  0  0  0  0  0  0  0  0  0  0  0
  149.6404  143.6795  158.2223 H   0  0  0  0  0  0  0  0  0  0  0  0
  149.6445  142.8087  159.7332 H   0  0  0  0  0  0  0  0  0  0  0  0
  149.9784  141.0251  155.6458 H   0  0  0  0  0  0  0  0  0  0  0  0
  1  2  3  0  0  0  0
  1 25  1  0  0  0  0
  2  3  1  0  0  0  0
  3  4  1  0  0  0  0
  3 26  1  0  0  0  0
  3 27  1  0  0  0  0
  4  5  1  0  0  0  0
  4 28  1  0  0  0  0
  5  6  2  0  0  0  0
  5  7  1  0  0  0  0
  7 24  2  0  0  0  0
  7  8  1  0  0  0  0
  8  9  2  0  0  0  0
  8 29  1  0  0  0  0
  9 10  1  0  0  0  0
  9 30  1  0  0  0  0
 10 11  2  0  0  0  0
 10 12  1  0  0  0  0
 12 13  1  0  0  0  0
 12 24  1  0  0  0  0
 13 22  1  0  0  0  0
 13 14  1  0  0  0  0
 13 31  1  0  0  0  0
 14 15  1  0  0  0  0
 14 32  1  0  0  0  0
 14 33  1  0  0  0  0
 15 16  1  0  0  0  0
 15 34  1  0  0  0  0
 15 35  1  0  0  0  0
 16 17  1  0  0  0  0
 16 22  1  0  0  0  0
 17 18  1  0  0  0  0
 17 36  1  0  0  0  0
 17 37  1  0  0  0  0
 18 19  1  0  0  0  0
 18 20  1  0  0  0  0
 18 21  1  0  0  0  0
 22 23  2  0  0  0  0
 24 38  1  0  0  0  0
M  END
> <s_m_source_file>
AV-unprocessed.smi

> <i_m_source_file_index>
714

> <i_lp_mmshare_version>
43012

> <i_f3d_flags>
0

> <s_epik_input>
W0NIXSNDW0NIMl1bTkhdQyg9TyljMVtjSF1bY0hdYyg9TyluKFtjSF0xKVtDQEBIXTJbQ0gyXVtDSDJdTihDMj1PKVtDSDJdQyhGKShGKUY=

> <s_epik_cmdline>
J2VwaWtfcHl0aG9uJywgJy1waCcsICc3LjAnLCAnLXRuJywgJzgnLCAnLW1hJywgJzIwMCcsICctbWV0YWxfYmluZGluZycsICctaW1hZScsICc8aW5maWxlLm1hZT4nLCAnLW9tYWUnLCAnPG91dGZpbGUubWFlPic=

> <r_lp_tautomer_probability>
1

> <r_epik_Ionization_Penalty>
2.95503e-06

> <r_epik_Ionization_Penalty_Charging>
5.74209e-08

> <r_epik_Ionization_Penalty_Neutral>
2.89761e-06

> <r_epik_State_Penalty>
-0

> <r_epik_Charging_Adjusted_Penalty>
5.74209e-08

> <i_epik_Tot_Q>
0

> <i_epik_Tot_abs_Q>
0

> <r_epik_Metal_State_Penalty>
-0

> <b_epik_Metal_Only>
0

> <s_lp_Force_Field>
OPLS_2005

> <r_lp_Energy>
34.0974

> <b_lp_Chiralities_Consistent>
1

> <s_lp_Variant>
AV-unprocessed.smi:714-1

> <Gold.Version>
5.8.1

> <Gold.Id.Protein>
6NUR|6NUR_protein|mol2

> <Gold.PLP.Fitness>
52.2141

> <Gold.PLP.PLP>
-47.5389

> <Gold.PLP.part.hbond>
-3.0000

> <Gold.PLP.part.metal>
0.0000

> <Gold.PLP.part.buried>
-1.0307

> <Gold.PLP.part.nonpolar>
-44.6331

> <Gold.PLP.part.repulsive>
2.1264

> <Gold.PLP.ligand.clash>
0.4473

> <Gold.PLP.ligand.torsion>
0.2670

> <Gold.PLP.Chemscore.Hbond>
1.8000

> <Gold.PLP.Chemscore.CHOScore>
0.0000

> <Gold.PLP.Chemscore.Metal>
0.0000

> <Gold.Chemscore.Hbonds>
donor molecule, donor type, donor heavy atom, donor atom, acceptor molecule, acceptor atom, score
      L1  H     4    28       P1  7948  1.00
      P1  H  7997  8009       L1    11  0.80

> <Gold.PLP.Chemscore.Internal.Correction>
0.2565

> <Gold.Rescore>
     Score         DG    S(hbond)    S(metal)    S(lipo)     H(rot)  DE(clash)    DE(int)     intcor
     12.20     -17.15       1.68        0.00      86.97       1.61       2.30       2.66       ----

> <Gold.Chemscore.Fitness>
12.1992

> <Gold.Chemscore.DG>
-17.1511

> <Gold.Chemscore.ZeroCoef>
-5.4800

> <Gold.Chemscore.Hbond>
1.6846

> <Gold.Chemscore.Metal>
0.0000

> <Gold.Chemscore.Lipo>
86.9692

> <Gold.Chemscore.Internal_Hbond>
0.0000

> <Gold.Chemscore.DEClash>
2.2967

> <Gold.Chemscore.DEInternal>
2.6551

> <Gold.Chemscore.Rot>
1.6136

> <Gold.Chemscore.Internal.Correction>
   9.000000E+99

> <Gold.Chemscore.Hbonds>
donor molecule, donor type, donor heavy atom, donor atom, acceptor molecule, acceptor atom, score
      L1  H     4    28       P1  7948  0.91
      P1  H  7997  8009       L1    11  0.48

> <Gold.Chemscore.Hbond.Weighted>
-5.6265

> <Gold.Chemscore.Metal.Weighted>
-0.0000

> <Gold.Chemscore.Lipo.Weighted>
-10.1754

> <Gold.Chemscore.Internal_Hbond.Weighted>
0.0000

> <Gold.Chemscore.DEClash.Weighted>
2.2967

> <Gold.Chemscore.DEInternal.Weighted>
2.6551

> <Gold.Chemscore.Rot.Weighted>
4.1308

> <Gold.Chemscore.Internal.Correction.Weighted>
   9.000000E+99

> <Gold.Protein.RotatedTorsions>
[ 6907 6896 6895 6894 ] final  134.12 input  -60.11 | X-H torsion
[ 7974 7965 7964 7962 ] final  -70.64 input  175.53 | X-H torsion
[ 8008 7997 7996 7995 ] final -158.98 input   59.86 | X-H torsion
[ 10167 10162 10161 10158 ] final -115.04 input  -65.29 | X-H torsion
[ 10718 10713 10712 10709 ] final   30.15 input   66.30 | X-H torsion
[ 10763 10752 10751 10750 ] final   -5.91 input  -60.55 | X-H torsion
[ 11005 11000 10999 10996 ] final  111.45 input  -57.11 | X-H torsion

> <Gold.Protein.ActiveResidues>
 VAL166  LYS551  ARG553  GLY616  TRP617  ASP618  TYR619  PRO620  LYS621  CYS622 
 ASP623  PHE694  ASN695  SER759  ASP760  ASP761  ALA762  ILE779  LEU786  VAL792 
 PHE793  MET794  SER795  GLU796  ALA797  LYS798  CYS799  TRP800  GLU811  SER814 

> <Gold.Protein.RotatedAtoms>
  152.3147  133.5789  159.5703 H   0  0  0  0  0  0  0  0  0  0  0  0  # atno 6907 bound_to 6896
  150.7340  134.0101  159.3675 H   0  0  0  0  0  0  0  0  0  0  0  0  # atno 6908 bound_to 6896
  151.7990  135.0714  160.0448 H   0  0  0  0  0  0  0  0  0  0  0  0  # atno 6909 bound_to 6896
  145.6883  140.9162  143.0795 H   0  0  0  0  0  0  0  0  0  0  0  0  # atno 7974 bound_to 7965
  155.7557  140.0832  157.2179 H   0  0  0  0  0  0  0  0  0  0  0  0  # atno 8008 bound_to 7997
  154.4008  140.1552  156.2831 H   0  0  0  0  0  0  0  0  0  0  0  0  # atno 8009 bound_to 7997
  155.8887  140.3416  155.5943 H   0  0  0  0  0  0  0  0  0  0  0  0  # atno 8010 bound_to 7997
  140.0944  143.4670  152.1850 H   0  0  0  0  0  0  0  0  0  0  0  0  # atno 10167 bound_to 10162
  157.2558  130.7137  149.6428 H   0  0  0  0  0  0  0  0  0  0  0  0  # atno 10718 bound_to 10713
  153.4050  135.7006  153.6399 H   0  0  0  0  0  0  0  0  0  0  0  0  # atno 10763 bound_to 10752
  153.4917  135.3671  155.2495 H   0  0  0  0  0  0  0  0  0  0  0  0  # atno 10764 bound_to 10752
  154.8713  135.4090  154.3392 H   0  0  0  0  0  0  0  0  0  0  0  0  # atno 10765 bound_to 10752
  139.8904  134.9508  156.6434 H   0  0  0  0  0  0  0  0  0  0  0  0  # atno 11005 bound_to 11000
  144.7004  139.8787  143.7445 LP  0  0  0  0  0  0  0  0  0  0  0  0  # atno 17320 bound_to 7965
  146.0904  139.3894  143.0409 LP  0  0  0  0  0  0  0  0  0  0  0  0  # atno 17321 bound_to 7965
  139.5706  144.7460  151.3900 LP  0  0  0  0  0  0  0  0  0  0  0  0  # atno 17342 bound_to 10162
  140.7011  143.7628  150.7405 LP  0  0  0  0  0  0  0  0  0  0  0  0  # atno 17343 bound_to 10162
  155.9665  130.4413  150.5334 LP  0  0  0  0  0  0  0  0  0  0  0  0  # atno 17370 bound_to 10713
  157.3228  131.0685  151.1919 LP  0  0  0  0  0  0  0  0  0  0  0  0  # atno 17371 bound_to 10713
  140.7576  133.8845  155.8393 LP  0  0  0  0  0  0  0  0  0  0  0  0  # atno 17394 bound_to 11000
  140.9949  134.1229  157.4373 LP  0  0  0  0  0  0  0  0  0  0  0  0  # atno 17395 bound_to 11000

$$$$
