AV-unprocessed.smi:2804|AV-procd|sdf|10811|dock1
  -GOLD-   2272015243D 1   1.00000     0.00000
 Structure written by MMmdl.
 34 35  0  0  0  0  0  0  0  0  2 V2000
  148.8267  141.0133  154.3411 C   0  0  0  0  0  0  0  0  0  0  0  0
  149.4862  140.9687  155.7231 C   0  0  0  0  0  0  0  0  0  0  0  0
  150.6798  141.9295  155.8347 C   0  0  0  0  0  0  0  0  0  0  0  0
  151.3718  141.7665  157.1110 N   0  0  0  0  0  0  0  0  0  0  0  0
  151.8416  140.6077  157.6294 C   0  0  0  0  0  0  0  0  0  0  0  0
  151.7812  139.5026  157.0893 O   0  0  0  0  0  0  0  0  0  0  0  0
  152.3975  140.8765  158.8390 N   0  0  0  0  0  0  0  0  0  0  0  0
  153.0725  139.9219  159.7346 C   0  0  0  0  0  0  0  0  0  0  0  0
  154.6054  140.1519  159.8815 C   0  0  2  0  0  0  0  0  0  0  0  0
  155.1999  139.3490  159.0310 O   0  5  0  0  0  0  0  0  0  0  0  0
  155.1009  139.7772  161.2998 C   0  0  0  0  0  0  0  0  0  0  0  0
  156.4271  139.9035  161.3767 F   0  0  0  0  0  0  0  0  0  0  0  0
  154.5622  140.6052  162.1962 F   0  0  0  0  0  0  0  0  0  0  0  0
  154.7611  138.5282  161.6274 F   0  0  0  0  0  0  0  0  0  0  0  0
  152.2988  142.2583  159.0822 C   0  0  0  0  0  0  0  0  0  0  0  0
  152.7293  143.0397  160.1696 C   0  0  0  0  0  0  0  0  0  0  0  0
  152.4644  144.4279  160.1165 C   0  0  0  0  0  0  0  0  0  0  0  0
  151.7895  144.9968  159.0057 C   0  0  0  0  0  0  0  0  0  0  0  0
  151.3677  144.1892  157.9238 C   0  0  0  0  0  0  0  0  0  0  0  0
  151.6470  142.8134  158.0009 C   0  0  0  0  0  0  0  0  0  0  0  0
  147.9844  140.3229  154.2902 H   0  0  0  0  0  0  0  0  0  0  0  0
  149.5340  140.7352  153.5593 H   0  0  0  0  0  0  0  0  0  0  0  0
  148.4526  142.0124  154.1161 H   0  0  0  0  0  0  0  0  0  0  0  0
  148.7444  141.2149  156.4836 H   0  0  0  0  0  0  0  0  0  0  0  0
  149.8134  139.9491  155.9307 H   0  0  0  0  0  0  0  0  0  0  0  0
  151.3778  141.7548  155.0147 H   0  0  0  0  0  0  0  0  0  0  0  0
  150.3451  142.9617  155.7284 H   0  0  0  0  0  0  0  0  0  0  0  0
  152.6022  139.9985  160.7159 H   0  0  0  0  0  0  0  0  0  0  0  0
  152.8654  138.9029  159.4041 H   0  0  0  0  0  0  0  0  0  0  0  0
  154.7482  141.2312  159.8065 H   0  0  0  0  0  0  0  0  0  0  0  0
  153.2350  142.6000  161.0164 H   0  0  0  0  0  0  0  0  0  0  0  0
  152.7766  145.0610  160.9338 H   0  0  0  0  0  0  0  0  0  0  0  0
  151.5944  146.0588  158.9867 H   0  0  0  0  0  0  0  0  0  0  0  0
  150.8525  144.6170  157.0768 H   0  0  0  0  0  0  0  0  0  0  0  0
  1  2  1  0  0  0  0
  1 21  1  0  0  0  0
  1 22  1  0  0  0  0
  1 23  1  0  0  0  0
  2  3  1  0  0  0  0
  2 24  1  0  0  0  0
  2 25  1  0  0  0  0
  3  4  1  0  0  0  0
  3 26  1  0  0  0  0
  3 27  1  0  0  0  0
  4 20  1  0  0  0  0
  4  5  1  0  0  0  0
  5  6  2  0  0  0  0
  5  7  1  0  0  0  0
  7  8  1  0  0  0  0
  7 15  1  0  0  0  0
  8  9  1  0  0  0  0
  8 28  1  0  0  0  0
  8 29  1  0  0  0  0
  9 10  1  0  0  0  0
  9 11  1  0  0  0  0
  9 30  1  0  0  0  0
 11 12  1  0  0  0  0
 11 13  1  0  0  0  0
 11 14  1  0  0  0  0
 15 20  2  0  0  0  0
 15 16  1  0  0  0  0
 16 17  2  0  0  0  0
 16 31  1  0  0  0  0
 17 18  1  0  0  0  0
 17 32  1  0  0  0  0
 18 19  2  0  0  0  0
 18 33  1  0  0  0  0
 19 20  1  0  0  0  0
 19 34  1  0  0  0  0
M  CHG  1  10  -1
M  END
> <s_m_source_file>
AV-unprocessed.smi

> <i_m_source_file_index>
2804

> <i_lp_mmshare_version>
43012

> <i_f3d_flags>
0

> <s_epik_input>
W2NIXTFbY0hdW2NIXVtjSF1jKGMxMiluKFtDSDJdW0NIMl1bQ0gzXSljKD1PKW4yW0NIMl1bQ0BIXShbT0hdKUMoRikoRilG

> <s_epik_cmdline>
J2VwaWtfcHl0aG9uJywgJy1waCcsICc3LjAnLCAnLXRuJywgJzgnLCAnLW1hJywgJzIwMCcsICctbWV0YWxfYmluZGluZycsICctaW1hZScsICc8aW5maWxlLm1hZT4nLCAnLW9tYWUnLCAnPG91dGZpbGUubWFlPic=

> <r_epik_Ionization_Penalty>
2.32651

> <r_epik_Ionization_Penalty_Charging>
2.32651

> <r_epik_Ionization_Penalty_Neutral>
0

> <r_epik_State_Penalty>
2.47909

> <r_epik_Charging_Adjusted_Penalty>
4.8056

> <i_epik_Tot_Q>
-1

> <i_epik_Tot_abs_Q>
1

> <r_epik_Metal_State_Penalty>
2.47909

> <b_epik_Metal_Only>
0

> <s_lp_Force_Field>
OPLS_2005

> <r_lp_Energy>
44.0832

> <b_lp_Chiralities_Consistent>
1

> <s_lp_Variant>
AV-unprocessed.smi:2804-3

> <Gold.Version>
5.8.1

> <Gold.Id.Protein>
6NUR|6NUR_protein|mol2

> <Gold.PLP.Fitness>
49.1786

> <Gold.PLP.PLP>
-44.2523

> <Gold.PLP.part.hbond>
-1.0000

> <Gold.PLP.part.metal>
0.0000

> <Gold.PLP.part.buried>
-4.1890

> <Gold.PLP.part.nonpolar>
-38.0176

> <Gold.PLP.part.repulsive>
0.0000

> <Gold.PLP.ligand.clash>
0.0000

> <Gold.PLP.ligand.torsion>
0.5857

> <Gold.PLP.Chemscore.Hbond>
2.0000

> <Gold.PLP.Chemscore.CHOScore>
0.0000

> <Gold.PLP.Chemscore.Metal>
0.0000

> <Gold.Chemscore.Hbonds>
donor molecule, donor type, donor heavy atom, donor atom, acceptor molecule, acceptor atom, score
      P1  H  7997  8009       L1    10  2.00

> <Gold.PLP.Chemscore.Internal.Correction>
0.0977

> <Gold.Rescore>
     Score         DG    S(hbond)    S(metal)    S(lipo)     H(rot)  DE(clash)    DE(int)     intcor
     16.61     -17.77       0.99        0.00     114.25       1.72       0.09       1.07       ----

> <Gold.Chemscore.Fitness>
16.6134

> <Gold.Chemscore.DG>
-17.7677

> <Gold.Chemscore.ZeroCoef>
-5.4800

> <Gold.Chemscore.Hbond>
0.9938

> <Gold.Chemscore.Metal>
0.0000

> <Gold.Chemscore.Lipo>
114.2546

> <Gold.Chemscore.Internal_Hbond>
0.0000

> <Gold.Chemscore.DEClash>
0.0886

> <Gold.Chemscore.DEInternal>
1.0657

> <Gold.Chemscore.Rot>
1.7185

> <Gold.Chemscore.Internal.Correction>
   9.000000E+99

> <Gold.Chemscore.Hbonds>
donor molecule, donor type, donor heavy atom, donor atom, acceptor molecule, acceptor atom, score
      P1  H  7997  8009       L1    10  0.91

> <Gold.Chemscore.Hbond.Weighted>
-3.3192

> <Gold.Chemscore.Metal.Weighted>
-0.0000

> <Gold.Chemscore.Lipo.Weighted>
-13.3678

> <Gold.Chemscore.Internal_Hbond.Weighted>
0.0000

> <Gold.Chemscore.DEClash.Weighted>
0.0886

> <Gold.Chemscore.DEInternal.Weighted>
1.0657

> <Gold.Chemscore.Rot.Weighted>
4.3992

> <Gold.Chemscore.Internal.Correction.Weighted>
   9.000000E+99

> <Gold.Protein.RotatedTorsions>
[ 6907 6896 6895 6894 ] final  -55.91 input  -60.11 | X-H torsion
[ 7974 7965 7964 7962 ] final -139.33 input  175.53 | X-H torsion
[ 8008 7997 7996 7995 ] final  103.89 input   59.86 | X-H torsion
[ 10167 10162 10161 10158 ] final  -20.32 input  -65.29 | X-H torsion
[ 10718 10713 10712 10709 ] final  -14.47 input   66.30 | X-H torsion
[ 10763 10752 10751 10750 ] final -124.17 input  -60.55 | X-H torsion
[ 11005 11000 10999 10996 ] final   75.29 input  -57.11 | X-H torsion

> <Gold.Protein.ActiveResidues>
 VAL166  LYS551  ARG553  GLY616  TRP617  ASP618  TYR619  PRO620  LYS621  CYS622 
 ASP623  PHE694  ASN695  SER759  ASP760  ASP761  ALA762  ILE779  LEU786  VAL792 
 PHE793  MET794  SER795  GLU796  ALA797  LYS798  CYS799  TRP800  GLU811  SER814 

> <Gold.Protein.RotatedAtoms>
  150.8212  134.7420  159.6773 H   0  0  0  0  0  0  0  0  0  0  0  0  # atno 6907 bound_to 6896
  152.4327  134.5743  159.9940 H   0  0  0  0  0  0  0  0  0  0  0  0  # atno 6908 bound_to 6896
  151.5927  133.3327  159.3067 H   0  0  0  0  0  0  0  0  0  0  0  0  # atno 6909 bound_to 6896
  144.8686  140.6331  143.5282 H   0  0  0  0  0  0  0  0  0  0  0  0  # atno 7974 bound_to 7965
  156.1524  140.3157  155.8670 H   0  0  0  0  0  0  0  0  0  0  0  0  # atno 8008 bound_to 7997
  155.3945  140.0495  157.3056 H   0  0  0  0  0  0  0  0  0  0  0  0  # atno 8009 bound_to 7997
  154.5070  140.2151  155.9242 H   0  0  0  0  0  0  0  0  0  0  0  0  # atno 8010 bound_to 7997
  140.7275  143.4733  151.0216 H   0  0  0  0  0  0  0  0  0  0  0  0  # atno 10167 bound_to 10162
  156.6155  130.4861  149.6184 H   0  0  0  0  0  0  0  0  0  0  0  0  # atno 10718 bound_to 10713
  154.8719  135.4073  154.3062 H   0  0  0  0  0  0  0  0  0  0  0  0  # atno 10763 bound_to 10752
  153.3913  135.7015  153.6498 H   0  0  0  0  0  0  0  0  0  0  0  0  # atno 10764 bound_to 10752
  153.5279  135.3673  155.2633 H   0  0  0  0  0  0  0  0  0  0  0  0  # atno 10765 bound_to 10752
  139.9351  134.7505  156.1252 H   0  0  0  0  0  0  0  0  0  0  0  0  # atno 11005 bound_to 11000
  145.4174  139.1569  143.4092 LP  0  0  0  0  0  0  0  0  0  0  0  0  # atno 17320 bound_to 7965
  146.2914  140.4282  142.8738 LP  0  0  0  0  0  0  0  0  0  0  0  0  # atno 17321 bound_to 7965
  139.8427  143.7542  152.3180 LP  0  0  0  0  0  0  0  0  0  0  0  0  # atno 17342 bound_to 10162
  139.7697  144.7480  151.0243 LP  0  0  0  0  0  0  0  0  0  0  0  0  # atno 17343 bound_to 10162
  156.2354  130.6819  151.1504 LP  0  0  0  0  0  0  0  0  0  0  0  0  # atno 17370 bound_to 10713
  157.7242  131.0661  150.6004 LP  0  0  0  0  0  0  0  0  0  0  0  0  # atno 17371 bound_to 10713
  141.0960  133.6695  156.2646 LP  0  0  0  0  0  0  0  0  0  0  0  0  # atno 17394 bound_to 11000
  140.6098  134.5470  157.5531 LP  0  0  0  0  0  0  0  0  0  0  0  0  # atno 17395 bound_to 11000

$$$$
