AV-unprocessed.smi:1757|AV-procd|sdf|7075|dock1
  -GOLD-   22720 8293D 1   1.00000     0.00000
 Structure written by MMmdl.
 40 41  0  0  0  0  0  0  0  0  2 V2000
  144.0884  132.4522  151.1525 C   0  0  0  0  0  0  0  0  0  0  0  0
  144.4861  133.8255  151.5295 N   0  3  2  0  0  0  0  0  0  0  0  0
  143.5936  134.4086  152.5620 C   0  0  0  0  0  0  0  0  0  0  0  0
  144.1080  135.7818  153.0256 C   0  0  0  0  0  0  0  0  0  0  0  0
  144.2717  136.7433  151.8368 C   0  0  1  0  0  0  0  0  0  0  0  0
  144.8644  137.9992  152.2898 N   0  0  0  0  0  0  0  0  0  0  0  0
  146.0770  138.1404  152.8447 C   0  0  0  0  0  0  0  0  0  0  0  0
  146.8468  137.2006  153.0425 O   0  0  0  0  0  0  0  0  0  0  0  0
  146.3099  139.4268  153.1629 N   0  0  0  0  0  0  0  0  0  0  0  0
  147.4607  140.0033  153.7250 C   0  0  0  0  0  0  0  0  0  0  0  0
  148.6378  139.3516  153.9134 C   0  0  0  0  0  0  0  0  0  0  0  0
  149.7990  140.0111  154.4890 C   0  0  0  0  0  0  0  0  0  0  0  0
  151.1148  139.2868  154.7256 C   0  0  0  0  0  0  0  0  0  0  0  0
  150.9704  138.3770  155.6886 F   0  0  0  0  0  0  0  0  0  0  0  0
  151.4991  138.6545  153.6170 F   0  0  0  0  0  0  0  0  0  0  0  0
  152.0842  140.1279  155.0860 F   0  0  0  0  0  0  0  0  0  0  0  0
  149.6521  141.3072  154.8175 C   0  0  0  0  0  0  0  0  0  0  0  0
  148.4497  141.9878  154.6133 N   0  0  0  0  0  0  0  0  0  0  0  0
  147.3395  141.4258  154.0847 C   0  0  0  0  0  0  0  0  0  0  0  0
  146.3170  142.0934  153.9320 O   0  0  0  0  0  0  0  0  0  0  0  0
  145.1643  136.0979  150.7634 C   0  0  0  0  0  0  0  0  0  0  0  0
  144.6288  134.7164  150.3508 C   0  0  0  0  0  0  0  0  0  0  0  0
  148.4216  142.9610  154.8809 H   0  0  0  0  0  0  0  0  0  0  0  0
  143.1010  132.4441  150.6889 H   0  0  0  0  0  0  0  0  0  0  0  0
  144.0604  131.8052  152.0298 H   0  0  0  0  0  0  0  0  0  0  0  0
  144.8017  132.0243  150.4474 H   0  0  0  0  0  0  0  0  0  0  0  0
  142.5825  134.5019  152.1616 H   0  0  0  0  0  0  0  0  0  0  0  0
  143.5349  133.7353  153.4180 H   0  0  0  0  0  0  0  0  0  0  0  0
  143.4187  136.2055  153.7572 H   0  0  0  0  0  0  0  0  0  0  0  0
  145.0635  135.6562  153.5374 H   0  0  0  0  0  0  0  0  0  0  0  0
  143.2852  136.9184  151.4032 H   0  0  0  0  0  0  0  0  0  0  0  0
  144.3041  138.8311  152.1737 H   0  0  0  0  0  0  0  0  0  0  0  0
  145.5468  140.0721  153.0178 H   0  0  0  0  0  0  0  0  0  0  0  0
  148.7478  138.3213  153.6169 H   0  0  0  0  0  0  0  0  0  0  0  0
  150.4328  141.9121  155.2554 H   0  0  0  0  0  0  0  0  0  0  0  0
  145.2251  136.7459  149.8881 H   0  0  0  0  0  0  0  0  0  0  0  0
  146.1826  135.9925  151.1412 H   0  0  0  0  0  0  0  0  0  0  0  0
  145.3107  134.2631  149.6302 H   0  0  0  0  0  0  0  0  0  0  0  0
  143.6637  134.8214  149.8523 H   0  0  0  0  0  0  0  0  0  0  0  0
  145.4025  133.7526  151.9483 H   0  0  0  0  0  0  0  0  0  0  0  0
  1  2  1  0  0  0  0
  1 24  1  0  0  0  0
  1 25  1  0  0  0  0
  1 26  1  0  0  0  0
  2 22  1  0  0  0  0
  2  3  1  0  0  0  0
  2 40  1  0  0  0  0
  3  4  1  0  0  0  0
  3 27  1  0  0  0  0
  3 28  1  0  0  0  0
  4  5  1  0  0  0  0
  4 29  1  0  0  0  0
  4 30  1  0  0  0  0
  5  6  1  0  0  0  0
  5 21  1  0  0  0  0
  5 31  1  0  0  0  0
  6  7  1  0  0  0  0
  6 32  1  0  0  0  0
  7  8  2  0  0  0  0
  7  9  1  0  0  0  0
  9 10  1  0  0  0  0
  9 33  1  0  0  0  0
 10 19  1  0  0  0  0
 10 11  2  0  0  0  0
 11 12  1  0  0  0  0
 11 34  1  0  0  0  0
 12 13  1  0  0  0  0
 12 17  2  0  0  0  0
 13 14  1  0  0  0  0
 13 15  1  0  0  0  0
 13 16  1  0  0  0  0
 17 18  1  0  0  0  0
 17 35  1  0  0  0  0
 18 23  1  0  0  0  0
 18 19  1  0  0  0  0
 19 20  2  0  0  0  0
 21 22  1  0  0  0  0
 21 36  1  0  0  0  0
 21 37  1  0  0  0  0
 22 38  1  0  0  0  0
 22 39  1  0  0  0  0
M  CHG  1   2   1
M  END
> <s_m_source_file>
AV-unprocessed.smi

> <i_m_source_file_index>
1757

> <i_lp_mmshare_version>
43012

> <i_f3d_flags>
0

> <s_epik_input>
W0NIM11OMVtDSDJdW0NIMl1bQ0hdKFtDSDJdW0NIMl0xKVtOSF1DKD1PKVtOSF1jMltjSF1jKEMoRikoRilGKVtjSF1bbkhdYzI9Tw==

> <s_epik_cmdline>
J2VwaWtfcHl0aG9uJywgJy1waCcsICc3LjAnLCAnLXRuJywgJzgnLCAnLW1hJywgJzIwMCcsICctbWV0YWxfYmluZGluZycsICctaW1hZScsICc8aW5maWxlLm1hZT4nLCAnLW9tYWUnLCAnPG91dGZpbGUubWFlPic=

> <r_lp_tautomer_probability>
1

> <r_epik_Ionization_Penalty>
0.00859077

> <r_epik_Ionization_Penalty_Charging>
0.00857233

> <r_epik_Ionization_Penalty_Neutral>
1.84472e-05

> <r_epik_State_Penalty>
-0

> <r_epik_Charging_Adjusted_Penalty>
0.00857233

> <i_epik_Tot_Q>
1

> <i_epik_Tot_abs_Q>
1

> <r_epik_Metal_State_Penalty>
0.377538

> <b_epik_Metal_Only>
0

> <s_lp_Force_Field>
OPLS_2005

> <r_lp_Energy>
26.9081

> <b_lp_Chiralities_Consistent>
1

> <s_lp_Variant>
AV-unprocessed.smi:1757-1

> <Gold.Version>
5.8.1

> <Gold.Id.Protein>
6NUR|6NUR_protein|mol2

> <Gold.PLP.Fitness>
44.0457

> <Gold.PLP.PLP>
-36.7703

> <Gold.PLP.part.hbond>
-4.0000

> <Gold.PLP.part.metal>
0.0000

> <Gold.PLP.part.buried>
-2.0919

> <Gold.PLP.part.nonpolar>
-32.4582

> <Gold.PLP.part.repulsive>
2.9988

> <Gold.PLP.ligand.clash>
1.2213

> <Gold.PLP.ligand.torsion>
0.2461

> <Gold.PLP.Chemscore.Hbond>
2.9920

> <Gold.PLP.Chemscore.CHOScore>
0.0000

> <Gold.PLP.Chemscore.Metal>
0.0000

> <Gold.Chemscore.Hbonds>
donor molecule, donor type, donor heavy atom, donor atom, acceptor molecule, acceptor atom, score
      L1  H     6    32       P1 10175  1.00
      L1  H     9    33       P1 10175  1.00
      L1  H    18    23       P1  8028  1.00

> <Gold.PLP.Chemscore.Internal.Correction>
0.0129

> <Gold.Rescore>
     Score         DG    S(hbond)    S(metal)    S(lipo)     H(rot)  DE(clash)    DE(int)     intcor
     14.26     -20.12       2.82        0.00      66.54       1.00       3.37       2.49       ----

> <Gold.Chemscore.Fitness>
14.2641

> <Gold.Chemscore.DG>
-20.1218

> <Gold.Chemscore.ZeroCoef>
-5.4800

> <Gold.Chemscore.Hbond>
2.8192

> <Gold.Chemscore.Metal>
0.0000

> <Gold.Chemscore.Lipo>
66.5444

> <Gold.Chemscore.Internal_Hbond>
0.0000

> <Gold.Chemscore.DEClash>
3.3681

> <Gold.Chemscore.DEInternal>
2.4896

> <Gold.Chemscore.Rot>
1.0000

> <Gold.Chemscore.Internal.Correction>
   9.000000E+99

> <Gold.Chemscore.Hbonds>
donor molecule, donor type, donor heavy atom, donor atom, acceptor molecule, acceptor atom, score
      L1  H     6    32       P1 10175  1.00
      L1  H     9    33       P1 10175  0.93
      L1  H    18    23       P1  8028  0.98

> <Gold.Chemscore.Hbond.Weighted>
-9.4161

> <Gold.Chemscore.Metal.Weighted>
-0.0000

> <Gold.Chemscore.Lipo.Weighted>
-7.7857

> <Gold.Chemscore.Internal_Hbond.Weighted>
0.0000

> <Gold.Chemscore.DEClash.Weighted>
3.3681

> <Gold.Chemscore.DEInternal.Weighted>
2.4896

> <Gold.Chemscore.Rot.Weighted>
2.5600

> <Gold.Chemscore.Internal.Correction.Weighted>
   9.000000E+99

> <Gold.Protein.RotatedTorsions>
[ 6907 6896 6895 6894 ] final   50.97 input  -60.11 | X-H torsion
[ 7974 7965 7964 7962 ] final  -14.62 input  175.53 | X-H torsion
[ 8008 7997 7996 7995 ] final  -80.49 input   59.86 | X-H torsion
[ 10167 10162 10161 10158 ] final   37.58 input  -65.29 | X-H torsion
[ 10718 10713 10712 10709 ] final  137.30 input   66.30 | X-H torsion
[ 10763 10752 10751 10750 ] final -105.17 input  -60.55 | X-H torsion
[ 11005 11000 10999 10996 ] final   70.79 input  -57.11 | X-H torsion

> <Gold.Protein.ActiveResidues>
 VAL166  LYS551  ARG553  GLY616  TRP617  ASP618  TYR619  PRO620  LYS621  CYS622 
 ASP623  PHE694  ASN695  SER759  ASP760  ASP761  ALA762  ILE779  LEU786  VAL792 
 PHE793  MET794  SER795  GLU796  ALA797  LYS798  CYS799  TRP800  GLU811  SER814 

> <Gold.Protein.RotatedAtoms>
  152.3076  134.7536  160.0343 H   0  0  0  0  0  0  0  0  0  0  0  0  # atno 6907 bound_to 6896
  151.8028  133.3367  159.3540 H   0  0  0  0  0  0  0  0  0  0  0  0  # atno 6908 bound_to 6896
  150.7304  134.5668  159.5914 H   0  0  0  0  0  0  0  0  0  0  0  0  # atno 6909 bound_to 6896
  146.2066  140.3375  142.8405 H   0  0  0  0  0  0  0  0  0  0  0  0  # atno 7974 bound_to 7965
  154.5888  140.0662  156.9209 H   0  0  0  0  0  0  0  0  0  0  0  0  # atno 8008 bound_to 7997
  155.2332  140.3339  155.4282 H   0  0  0  0  0  0  0  0  0  0  0  0  # atno 8009 bound_to 7997
  156.2241  140.1811  156.7390 H   0  0  0  0  0  0  0  0  0  0  0  0  # atno 8010 bound_to 7997
  140.4019  144.1712  150.6134 H   0  0  0  0  0  0  0  0  0  0  0  0  # atno 10167 bound_to 10162
  157.4375  131.1054  151.0180 H   0  0  0  0  0  0  0  0  0  0  0  0  # atno 10718 bound_to 10713
  154.7929  135.4759  154.0093 H   0  0  0  0  0  0  0  0  0  0  0  0  # atno 10763 bound_to 10752
  153.1658  135.6816  153.8685 H   0  0  0  0  0  0  0  0  0  0  0  0  # atno 10764 bound_to 10752
  153.8283  135.3195  155.3394 H   0  0  0  0  0  0  0  0  0  0  0  0  # atno 10765 bound_to 10752
  139.9578  134.7113  156.0712 H   0  0  0  0  0  0  0  0  0  0  0  0  # atno 11005 bound_to 11000
  144.8809  140.7398  143.5987 LP  0  0  0  0  0  0  0  0  0  0  0  0  # atno 17320 bound_to 7965
  145.3295  139.1764  143.4544 LP  0  0  0  0  0  0  0  0  0  0  0  0  # atno 17321 bound_to 7965
  140.4731  143.2406  151.9062 LP  0  0  0  0  0  0  0  0  0  0  0  0  # atno 17342 bound_to 10162
  139.4784  144.5349  151.8613 LP  0  0  0  0  0  0  0  0  0  0  0  0  # atno 17343 bound_to 10162
  157.1055  130.5999  149.5470 LP  0  0  0  0  0  0  0  0  0  0  0  0  # atno 17370 bound_to 10713
  155.9936  130.4998  150.7387 LP  0  0  0  0  0  0  0  0  0  0  0  0  # atno 17371 bound_to 10713
  141.1252  133.6601  156.3319 LP  0  0  0  0  0  0  0  0  0  0  0  0  # atno 17394 bound_to 11000
  140.5568  134.5973  157.5423 LP  0  0  0  0  0  0  0  0  0  0  0  0  # atno 17395 bound_to 11000

$$$$
