AV-unprocessed.smi:2822|AV-procd|sdf|10869|dock7
  -GOLD-   2272015313D 1   1.00000     0.00000
 Structure written by MMmdl.
 40 42  0  0  0  0  0  0  0  0  2 V2000
  146.8086  143.2552  153.8046 Cl  0  0  0  0  0  0  0  0  0  0  0  0
  147.5331  141.6863  153.7414 C   0  0  0  0  0  0  0  0  0  0  0  0
  147.1135  140.7612  152.7635 C   0  0  0  0  0  0  0  0  0  0  0  0
  147.6299  139.5199  152.6441 N   0  0  0  0  0  0  0  0  0  0  0  0
  148.5959  139.1550  153.5124 C   0  0  0  0  0  0  0  0  0  0  0  0
  149.0875  140.0007  154.5269 C   0  0  0  0  0  0  0  0  0  0  0  0
  148.5470  141.3025  154.6490 C   0  0  0  0  0  0  0  0  0  0  0  0
  148.9789  142.2104  155.6275 N   0  0  0  0  0  0  0  0  0  0  0  0
  149.6119  141.7494  156.8532 C   0  0  0  0  0  0  0  0  0  0  0  0
  151.1429  141.9201  156.7931 C   0  0  1  0  0  0  0  0  0  0  0  0
  151.6012  143.3705  157.0350 C   0  0  0  0  0  0  0  0  0  0  0  0
  151.4308  143.7623  158.4538 N   0  3  2  0  0  0  0  0  0  0  0  0
  151.8339  145.1710  158.6967 C   0  0  0  0  0  0  0  0  0  0  0  0
  151.5692  145.5828  160.1532 C   0  0  0  0  0  0  0  0  0  0  0  0
  152.2799  144.6334  161.1252 C   0  0  0  0  0  0  0  0  0  0  0  0
  151.8647  143.1842  160.8395 C   0  0  0  0  0  0  0  0  0  0  0  0
  152.1162  142.8063  159.3654 C   0  0  1  0  0  0  0  0  0  0  0  0
  151.6433  141.3692  159.0751 C   0  0  0  0  0  0  0  0  0  0  0  0
  151.8258  141.0529  157.6990 O   0  0  0  0  0  0  0  0  0  0  0  0
  146.3421  141.0259  152.0555 H   0  0  0  0  0  0  0  0  0  0  0  0
  148.9905  138.1564  153.3962 H   0  0  0  0  0  0  0  0  0  0  0  0
  149.8599  139.6377  155.1881 H   0  0  0  0  0  0  0  0  0  0  0  0
  149.0320  143.1926  155.3953 H   0  0  0  0  0  0  0  0  0  0  0  0
  149.2161  142.3373  157.6822 H   0  0  0  0  0  0  0  0  0  0  0  0
  149.3396  140.7125  157.0477 H   0  0  0  0  0  0  0  0  0  0  0  0
  151.4636  141.6382  155.7893 H   0  0  0  0  0  0  0  0  0  0  0  0
  152.6536  143.4687  156.7629 H   0  0  0  0  0  0  0  0  0  0  0  0
  151.0447  144.0524  156.3908 H   0  0  0  0  0  0  0  0  0  0  0  0
  152.8921  145.2944  158.4602 H   0  0  0  0  0  0  0  0  0  0  0  0
  151.2806  145.8293  158.0258 H   0  0  0  0  0  0  0  0  0  0  0  0
  151.9074  146.6062  160.3183 H   0  0  0  0  0  0  0  0  0  0  0  0
  150.4961  145.5754  160.3492 H   0  0  0  0  0  0  0  0  0  0  0  0
  153.3606  144.7360  161.0195 H   0  0  0  0  0  0  0  0  0  0  0  0
  152.0392  144.8987  162.1552 H   0  0  0  0  0  0  0  0  0  0  0  0
  152.4122  142.5089  161.4983 H   0  0  0  0  0  0  0  0  0  0  0  0
  150.8076  143.0584  161.0791 H   0  0  0  0  0  0  0  0  0  0  0  0
  153.1886  142.8621  159.1683 H   0  0  0  0  0  0  0  0  0  0  0  0
  152.2234  140.6608  159.6669 H   0  0  0  0  0  0  0  0  0  0  0  0
  150.6023  141.2289  159.3669 H   0  0  0  0  0  0  0  0  0  0  0  0
  150.4433  143.7019  158.6577 H   0  0  0  0  0  0  0  0  0  0  0  0
  1  2  1  0  0  0  0
  2  7  1  0  0  0  0
  2  3  2  0  0  0  0
  3  4  1  0  0  0  0
  3 20  1  0  0  0  0
  4  5  2  0  0  0  0
  5  6  1  0  0  0  0
  5 21  1  0  0  0  0
  6  7  2  0  0  0  0
  6 22  1  0  0  0  0
  7  8  1  0  0  0  0
  8  9  1  0  0  0  0
  8 23  1  0  0  0  0
  9 10  1  0  0  0  0
  9 24  1  0  0  0  0
  9 25  1  0  0  0  0
 10 19  1  0  0  0  0
 10 11  1  0  0  0  0
 10 26  1  0  0  0  0
 11 12  1  0  0  0  0
 11 27  1  0  0  0  0
 11 28  1  0  0  0  0
 12 17  1  0  0  0  0
 12 13  1  0  0  0  0
 12 40  1  0  0  0  0
 13 14  1  0  0  0  0
 13 29  1  0  0  0  0
 13 30  1  0  0  0  0
 14 15  1  0  0  0  0
 14 31  1  0  0  0  0
 14 32  1  0  0  0  0
 15 16  1  0  0  0  0
 15 33  1  0  0  0  0
 15 34  1  0  0  0  0
 16 17  1  0  0  0  0
 16 35  1  0  0  0  0
 16 36  1  0  0  0  0
 17 18  1  0  0  0  0
 17 37  1  0  0  0  0
 18 19  1  0  0  0  0
 18 38  1  0  0  0  0
 18 39  1  0  0  0  0
M  CHG  1  12   1
M  END
> <s_m_source_file>
AV-unprocessed.smi

> <i_m_source_file_index>
2822

> <i_lp_mmshare_version>
43012

> <i_f3d_flags>
0

> <s_epik_input>
Q2xjMVtjSF1uW2NIXVtjSF1jMVtOSF1bQ0gyXVtDQEhdKFtDSDJdMilPW0NIMl1bQ0BASF0oTjIzKVtDSDJdW0NIMl1bQ0gyXVtDSDJdMw==

> <s_epik_cmdline>
J2VwaWtfcHl0aG9uJywgJy1waCcsICc3LjAnLCAnLXRuJywgJzgnLCAnLW1hJywgJzIwMCcsICctbWV0YWxfYmluZGluZycsICctaW1hZScsICc8aW5maWxlLm1hZT4nLCAnLW9tYWUnLCAnPG91dGZpbGUubWFlPic=

> <r_lp_tautomer_probability>
0.999999

> <r_epik_Ionization_Penalty>
0.88937

> <r_epik_Ionization_Penalty_Charging>
0.0803403

> <r_epik_Ionization_Penalty_Neutral>
0.80903

> <r_epik_State_Penalty>
0.931884

> <r_epik_Charging_Adjusted_Penalty>
1.01222

> <i_epik_Tot_Q>
1

> <i_epik_Tot_abs_Q>
1

> <r_epik_Metal_State_Penalty>
0.0782275

> <b_epik_Metal_Only>
0

> <s_lp_Force_Field>
OPLS_2005

> <r_lp_Energy>
31.9591

> <b_lp_Chiralities_Consistent>
1

> <s_lp_Variant>
AV-unprocessed.smi:2822-10

> <Gold.Version>
5.8.1

> <Gold.Id.Protein>
6NUR|6NUR_protein|mol2

> <Gold.PLP.Fitness>
47.0976

> <Gold.PLP.PLP>
-38.9561

> <Gold.PLP.part.hbond>
-1.0000

> <Gold.PLP.part.metal>
0.0000

> <Gold.PLP.part.buried>
-5.9076

> <Gold.PLP.part.nonpolar>
-34.0517

> <Gold.PLP.part.repulsive>
1.4575

> <Gold.PLP.ligand.clash>
0.0000

> <Gold.PLP.ligand.torsion>
0.4321

> <Gold.PLP.Chemscore.Hbond>
1.0000

> <Gold.PLP.Chemscore.CHOScore>
2.0000

> <Gold.PLP.Chemscore.Metal>
0.0000

> <Gold.Chemscore.Hbonds>
donor molecule, donor type, donor heavy atom, donor atom, acceptor molecule, acceptor atom, score
      L1  H     8    23       P1  8028  1.00
      L1  C     3    20       P1 10175  0.23
      L1  C     5    21       P1  7948  1.00

> <Gold.PLP.Chemscore.Internal.Correction>
0.0057

> <Gold.Rescore>
     Score         DG    S(hbond)    S(metal)    S(lipo)     H(rot)  DE(clash)    DE(int)     intcor
     20.15     -20.65       1.00        0.00     126.79       1.17       0.13       0.37       ----

> <Gold.Chemscore.Fitness>
20.1536

> <Gold.Chemscore.DG>
-20.6507

> <Gold.Chemscore.ZeroCoef>
-5.4800

> <Gold.Chemscore.Hbond>
0.9968

> <Gold.Chemscore.Metal>
0.0000

> <Gold.Chemscore.Lipo>
126.7928

> <Gold.Chemscore.Internal_Hbond>
0.0000

> <Gold.Chemscore.DEClash>
0.1268

> <Gold.Chemscore.DEInternal>
0.3703

> <Gold.Chemscore.Rot>
1.1693

> <Gold.Chemscore.Internal.Correction>
   9.000000E+99

> <Gold.Chemscore.Hbonds>
donor molecule, donor type, donor heavy atom, donor atom, acceptor molecule, acceptor atom, score
      L1  H     8    23       P1  8028  0.94

> <Gold.Chemscore.Hbond.Weighted>
-3.3293

> <Gold.Chemscore.Metal.Weighted>
-0.0000

> <Gold.Chemscore.Lipo.Weighted>
-14.8348

> <Gold.Chemscore.Internal_Hbond.Weighted>
0.0000

> <Gold.Chemscore.DEClash.Weighted>
0.1268

> <Gold.Chemscore.DEInternal.Weighted>
0.3703

> <Gold.Chemscore.Rot.Weighted>
2.9934

> <Gold.Chemscore.Internal.Correction.Weighted>
   9.000000E+99

> <Gold.Protein.RotatedTorsions>
[ 6907 6896 6895 6894 ] final  170.84 input  -60.11 | X-H torsion
[ 7974 7965 7964 7962 ] final   18.04 input  175.53 | X-H torsion
[ 8008 7997 7996 7995 ] final -147.31 input   59.86 | X-H torsion
[ 10167 10162 10161 10158 ] final  172.64 input  -65.29 | X-H torsion
[ 10718 10713 10712 10709 ] final  -85.00 input   66.30 | X-H torsion
[ 10763 10752 10751 10750 ] final  169.97 input  -60.55 | X-H torsion
[ 11005 11000 10999 10996 ] final  119.91 input  -57.11 | X-H torsion

> <Gold.Protein.ActiveResidues>
 VAL166  LYS551  ARG553  GLY616  TRP617  ASP618  TYR619  PRO620  LYS621  CYS622 
 ASP623  PHE694  ASN695  SER759  ASP760  ASP761  ALA762  ILE779  LEU786  VAL792 
 PHE793  MET794  SER795  GLU796  ALA797  LYS798  CYS799  TRP800  GLU811  SER814 

> <Gold.Protein.RotatedAtoms>
  151.8098  133.3380  159.3551 H   0  0  0  0  0  0  0  0  0  0  0  0  # atno 6907 bound_to 6896
  150.7330  134.5675  159.5883 H   0  0  0  0  0  0  0  0  0  0  0  0  # atno 6908 bound_to 6896
  152.3083  134.7529  160.0393 H   0  0  0  0  0  0  0  0  0  0  0  0  # atno 6909 bound_to 6896
  146.2198  139.8515  142.8621 H   0  0  0  0  0  0  0  0  0  0  0  0  # atno 7974 bound_to 7965
  155.5735  140.0636  157.2800 H   0  0  0  0  0  0  0  0  0  0  0  0  # atno 8008 bound_to 7997
  154.4354  140.1864  156.0950 H   0  0  0  0  0  0  0  0  0  0  0  0  # atno 8009 bound_to 7997
  156.0358  140.3301  155.7193 H   0  0  0  0  0  0  0  0  0  0  0  0  # atno 8010 bound_to 7997
  139.5083  144.3350  152.0074 H   0  0  0  0  0  0  0  0  0  0  0  0  # atno 10167 bound_to 10162
  156.0000  130.4716  150.4496 H   0  0  0  0  0  0  0  0  0  0  0  0  # atno 10718 bound_to 10713
  154.3908  135.2754  155.2156 H   0  0  0  0  0  0  0  0  0  0  0  0  # atno 10763 bound_to 10752
  154.4223  135.5997  153.6021 H   0  0  0  0  0  0  0  0  0  0  0  0  # atno 10764 bound_to 10752
  152.9832  135.5975  154.4162 H   0  0  0  0  0  0  0  0  0  0  0  0  # atno 10765 bound_to 10752
  139.9164  134.9631  156.7727 H   0  0  0  0  0  0  0  0  0  0  0  0  # atno 11005 bound_to 11000
  145.2796  141.0134  143.3725 LP  0  0  0  0  0  0  0  0  0  0  0  0  # atno 17320 bound_to 7965
  144.9160  139.4470  143.6564 LP  0  0  0  0  0  0  0  0  0  0  0  0  # atno 17321 bound_to 7965
  140.2789  144.3881  150.6125 LP  0  0  0  0  0  0  0  0  0  0  0  0  # atno 17342 bound_to 10162
  140.6033  143.2167  151.7031 LP  0  0  0  0  0  0  0  0  0  0  0  0  # atno 17343 bound_to 10162
  157.2530  131.0550  151.2367 LP  0  0  0  0  0  0  0  0  0  0  0  0  # atno 17370 bound_to 10713
  157.3510  130.7082  149.6440 LP  0  0  0  0  0  0  0  0  0  0  0  0  # atno 17371 bound_to 10713
  140.6608  133.9647  155.7804 LP  0  0  0  0  0  0  0  0  0  0  0  0  # atno 17394 bound_to 11000
  141.0645  134.0298  157.3613 LP  0  0  0  0  0  0  0  0  0  0  0  0  # atno 17395 bound_to 11000

$$$$
