AV-unprocessed.smi:104|AV-procd|sdf|996|dock10
  -GOLD-   2262017583D 1   1.00000     0.00000
 Structure written by MMmdl.
 47 49  0  0  0  0  0  0  0  0  1 V2000
  153.3963  138.4484  158.5788 C   0  0  0  0  0  0  0  0  0  0  0  0
  152.5399  137.3848  159.2543 C   0  0  0  0  0  0  0  0  0  0  0  0
  152.9283  136.7932  160.2614 O   0  0  0  0  0  0  0  0  0  0  0  0
  151.3690  137.1935  158.6282 O   0  0  0  0  0  0  0  0  0  0  0  0
  150.2281  136.7794  159.3660 C   0  0  0  0  0  0  0  0  0  0  0  0
  149.2977  135.9016  158.5110 C   0  0  1  0  0  0  0  0  0  0  0  0
  149.8840  134.6433  158.1850 O   0  0  0  0  0  0  0  0  0  0  0  0
  148.8774  133.6816  158.0646 C   0  0  2  0  0  0  0  0  0  0  0  0
  148.9821  133.0091  156.7348 N   0  0  0  0  0  0  0  0  0  0  0  0
  150.0927  132.4665  156.1302 C   0  0  0  0  0  0  0  0  0  0  0  0
  151.8068  132.4709  156.9606 Br  0  0  0  0  0  0  0  0  0  0  0  0
  149.9268  131.9223  154.9572 N   0  0  0  0  0  0  0  0  0  0  0  0
  148.5667  132.0927  154.7309 C   0  0  0  0  0  0  0  0  0  0  0  0
  147.6939  131.7441  153.6693 C   0  0  0  0  0  0  0  0  0  0  0  0
  148.1046  131.1137  152.5603 N   0  0  0  0  0  0  0  0  0  0  0  0
  146.3825  132.0601  153.7799 N   0  0  0  0  0  0  0  0  0  0  0  0
  145.9454  132.6874  154.8765 C   0  0  0  0  0  0  0  0  0  0  0  0
  146.6400  133.0792  155.9480 N   0  0  0  0  0  0  0  0  0  0  0  0
  147.9635  132.7636  155.8355 C   0  0  0  0  0  0  0  0  0  0  0  0
  147.5326  134.3971  158.1915 C   0  0  1  0  0  0  0  0  0  0  0  0
  146.5509  133.5391  158.7584 O   0  0  0  0  0  0  0  0  0  0  0  0
  145.2727  133.9403  158.8416 C   0  0  0  0  0  0  0  0  0  0  0  0
  144.3799  132.8975  159.5004 C   0  0  0  0  0  0  0  0  0  0  0  0
  144.8251  135.0199  158.4557 O   0  0  0  0  0  0  0  0  0  0  0  0
  147.9035  135.5833  159.0692 C   0  0  1  0  0  0  0  0  0  0  0  0
  147.9803  135.2065  160.4426 O   0  0  0  0  0  0  0  0  0  0  0  0
  147.6717  136.0799  161.4170 C   0  0  0  0  0  0  0  0  0  0  0  0
  147.7063  135.4432  162.8000 C   0  0  0  0  0  0  0  0  0  0  0  0
  147.3852  137.2673  161.2654 O   0  0  0  0  0  0  0  0  0  0  0  0
  153.1001  138.5815  157.5378 H   0  0  0  0  0  0  0  0  0  0  0  0
  154.4469  138.1583  158.6022 H   0  0  0  0  0  0  0  0  0  0  0  0
  153.2894  139.4023  159.0954 H   0  0  0  0  0  0  0  0  0  0  0  0
  150.5296  136.2202  160.2532 H   0  0  0  0  0  0  0  0  0  0  0  0
  149.6927  137.6650  159.7097 H   0  0  0  0  0  0  0  0  0  0  0  0
  149.1472  136.4225  157.5646 H   0  0  0  0  0  0  0  0  0  0  0  0
  149.0350  132.9046  158.8125 H   0  0  0  0  0  0  0  0  0  0  0  0
  149.0776  130.8649  152.4531 H   0  0  0  0  0  0  0  0  0  0  0  0
  147.4412  130.8918  151.8321 H   0  0  0  0  0  0  0  0  0  0  0  0
  144.8883  132.9078  154.8977 H   0  0  0  0  0  0  0  0  0  0  0  0
  147.2385  134.7501  157.2012 H   0  0  0  0  0  0  0  0  0  0  0  0
  144.6346  131.8979  159.1472 H   0  0  0  0  0  0  0  0  0  0  0  0
  143.3321  133.0891  159.2676 H   0  0  0  0  0  0  0  0  0  0  0  0
  144.5051  132.9258  160.5829 H   0  0  0  0  0  0  0  0  0  0  0  0
  147.2255  136.4248  158.9207 H   0  0  0  0  0  0  0  0  0  0  0  0
  147.7956  134.3588  162.7276 H   0  0  0  0  0  0  0  0  0  0  0  0
  146.7930  135.6785  163.3469 H   0  0  0  0  0  0  0  0  0  0  0  0
  148.5568  135.8221  163.3666 H   0  0  0  0  0  0  0  0  0  0  0  0
  1  2  1  0  0  0  0
  1 30  1  0  0  0  0
  1 31  1  0  0  0  0
  1 32  1  0  0  0  0
  2  3  2  0  0  0  0
  2  4  1  0  0  0  0
  4  5  1  0  0  0  0
  5  6  1  0  0  0  0
  5 33  1  0  0  0  0
  5 34  1  0  0  0  0
  6 25  1  0  0  0  0
  6  7  1  0  0  0  0
  6 35  1  0  0  0  0
  7  8  1  0  0  0  0
  8  9  1  0  0  0  0
  8 20  1  0  0  0  0
  8 36  1  0  0  0  0
  9 19  1  0  0  0  0
  9 10  1  0  0  0  0
 10 11  1  0  0  0  0
 10 12  2  0  0  0  0
 12 13  1  0  0  0  0
 13 19  2  0  0  0  0
 13 14  1  0  0  0  0
 14 15  1  0  0  0  0
 14 16  2  0  0  0  0
 15 37  1  0  0  0  0
 15 38  1  0  0  0  0
 16 17  1  0  0  0  0
 17 18  2  0  0  0  0
 17 39  1  0  0  0  0
 18 19  1  0  0  0  0
 20 21  1  0  0  0  0
 20 25  1  0  0  0  0
 20 40  1  0  0  0  0
 21 22  1  0  0  0  0
 22 23  1  0  0  0  0
 22 24  2  0  0  0  0
 23 41  1  0  0  0  0
 23 42  1  0  0  0  0
 23 43  1  0  0  0  0
 25 26  1  0  0  0  0
 25 44  1  0  0  0  0
 26 27  1  0  0  0  0
 27 28  1  0  0  0  0
 27 29  2  0  0  0  0
 28 45  1  0  0  0  0
 28 46  1  0  0  0  0
 28 47  1  0  0  0  0
M  END
> <s_m_source_file>
AV-unprocessed.smi

> <i_m_source_file_index>
104

> <i_lp_mmshare_version>
43012

> <i_f3d_flags>
0

> <s_epik_input>
W0NIM11DKD1PKU9bQ0gyXVtDQEBIXTFPW0NASF0oW0NAQEhdKE9DKD1PKVtDSDNdKVtDQEhdMU9DKD1PKVtDSDNdKW4oYyhCciluMiljKGMyMyluW2NIXW5jM1tOSDJd

> <s_epik_cmdline>
J2VwaWtfcHl0aG9uJywgJy1waCcsICc3LjAnLCAnLXRuJywgJzgnLCAnLW1hJywgJzIwMCcsICctbWV0YWxfYmluZGluZycsICctaW1hZScsICc8aW5maWxlLm1hZT4nLCAnLW9tYWUnLCAnPG91dGZpbGUubWFlPic=

> <r_lp_tautomer_probability>
1

> <r_epik_Ionization_Penalty>
7.36622e-05

> <r_epik_Ionization_Penalty_Charging>
0

> <r_epik_Ionization_Penalty_Neutral>
7.36622e-05

> <r_epik_State_Penalty>
-0

> <r_epik_Charging_Adjusted_Penalty>
0

> <i_epik_Tot_Q>
0

> <i_epik_Tot_abs_Q>
0

> <r_epik_Metal_State_Penalty>
-0

> <b_epik_Metal_Only>
0

> <s_epik_Chemistry_Notes>
This compound has an ester and may undergo hydrolysis at high or low pH. This compound contains an acetal/aminal-like group ( X-CH(R)-Y where X, Y are N, S, or O) that may be acid/base labile, releasing an aldehyde.

> <s_lp_Force_Field>
OPLS_2005

> <r_lp_Energy>
19.7206

> <b_lp_Chiralities_Consistent>
1

> <s_lp_Variant>
AV-unprocessed.smi:104-4

> <Gold.Version>
5.8.1

> <Gold.Id.Protein>
6NUR|6NUR_protein|mol2

> <Gold.PLP.Fitness>
38.7815

> <Gold.PLP.PLP>
-26.5773

> <Gold.PLP.part.hbond>
-4.6996

> <Gold.PLP.part.metal>
0.0000

> <Gold.PLP.part.buried>
-4.6359

> <Gold.PLP.part.nonpolar>
-19.0632

> <Gold.PLP.part.repulsive>
0.1912

> <Gold.PLP.ligand.clash>
0.0000

> <Gold.PLP.ligand.torsion>
1.4647

> <Gold.PLP.Chemscore.Hbond>
3.9513

> <Gold.PLP.Chemscore.CHOScore>
0.9979

> <Gold.PLP.Chemscore.Metal>
0.0000

> <Gold.Chemscore.Hbonds>
donor molecule, donor type, donor heavy atom, donor atom, acceptor molecule, acceptor atom, score
      P1  H  6896  6907       L1     7  0.89
      P1  H  6896  6908       L1     3  1.00
      P1  H  6931  6943       L1    29  0.85
      P1  H  6934  6947       L1    29  0.98
      L1  C    17    39       P1 10957  1.00

> <Gold.PLP.Chemscore.Internal.Correction>
0.2862

> <Gold.Rescore>
     Score         DG    S(hbond)    S(metal)    S(lipo)     H(rot)  DE(clash)    DE(int)     intcor
      6.13      -8.87       3.07        0.00      35.68       4.31       0.07       2.67       ----

> <Gold.Chemscore.Fitness>
6.1301

> <Gold.Chemscore.DG>
-8.8700

> <Gold.Chemscore.ZeroCoef>
-5.4800

> <Gold.Chemscore.Hbond>
3.0662

> <Gold.Chemscore.Metal>
0.0000

> <Gold.Chemscore.Lipo>
35.6824

> <Gold.Chemscore.Internal_Hbond>
0.0000

> <Gold.Chemscore.DEClash>
0.0720

> <Gold.Chemscore.DEInternal>
2.6680

> <Gold.Chemscore.Rot>
4.3070

> <Gold.Chemscore.Internal.Correction>
   9.000000E+99

> <Gold.Chemscore.Hbonds>
donor molecule, donor type, donor heavy atom, donor atom, acceptor molecule, acceptor atom, score
      L1  H    15    38       P1 10747  0.01
      P1  H  6896  6907       L1     7  0.20
      P1  H  6896  6908       L1     3  0.25
      P1  H  6931  6943       L1    29  0.35
      P1  H  6934  6947       L1    29  0.93

> <Gold.Chemscore.Hbond.Weighted>
-10.2410

> <Gold.Chemscore.Metal.Weighted>
-0.0000

> <Gold.Chemscore.Lipo.Weighted>
-4.1748

> <Gold.Chemscore.Internal_Hbond.Weighted>
0.0000

> <Gold.Chemscore.DEClash.Weighted>
0.0720

> <Gold.Chemscore.DEInternal.Weighted>
2.6680

> <Gold.Chemscore.Rot.Weighted>
11.0259

> <Gold.Chemscore.Internal.Correction.Weighted>
   9.000000E+99

> <Gold.Protein.RotatedTorsions>
[ 6907 6896 6895 6894 ] final  -98.30 input  -60.11 | X-H torsion
[ 7974 7965 7964 7962 ] final  119.85 input  175.53 | X-H torsion
[ 8008 7997 7996 7995 ] final  -65.46 input   59.86 | X-H torsion
[ 10167 10162 10161 10158 ] final  -46.85 input  -65.29 | X-H torsion
[ 10718 10713 10712 10709 ] final -126.91 input   66.30 | X-H torsion
[ 10763 10752 10751 10750 ] final -141.41 input  -60.55 | X-H torsion
[ 11005 11000 10999 10996 ] final  -79.93 input  -57.11 | X-H torsion

> <Gold.Protein.ActiveResidues>
 VAL166  LYS551  ARG553  GLY616  TRP617  ASP618  TYR619  PRO620  LYS621  CYS622 
 ASP623  PHE694  ASN695  SER759  ASP760  ASP761  ALA762  ILE779  LEU786  VAL792 
 PHE793  MET794  SER795  GLU796  ALA797  LYS798  CYS799  TRP800  GLU811  SER814 

> <Gold.Protein.RotatedAtoms>
  150.7042  134.1216  159.4036 H   0  0  0  0  0  0  0  0  0  0  0  0  # atno 6907 bound_to 6896
  151.9203  135.0299  160.0531 H   0  0  0  0  0  0  0  0  0  0  0  0  # atno 6908 bound_to 6896
  152.2262  133.4987  159.5227 H   0  0  0  0  0  0  0  0  0  0  0  0  # atno 6909 bound_to 6896
  145.1382  139.3284  143.4629 H   0  0  0  0  0  0  0  0  0  0  0  0  # atno 7974 bound_to 7965
  154.4673  140.0932  156.7054 H   0  0  0  0  0  0  0  0  0  0  0  0  # atno 8008 bound_to 7997
  155.4821  140.3468  155.4323 H   0  0  0  0  0  0  0  0  0  0  0  0  # atno 8009 bound_to 7997
  156.0979  140.1414  156.9495 H   0  0  0  0  0  0  0  0  0  0  0  0  # atno 8010 bound_to 7997
  140.6800  143.2811  151.3842 H   0  0  0  0  0  0  0  0  0  0  0  0  # atno 10167 bound_to 10162
  156.1808  130.6731  151.0302 H   0  0  0  0  0  0  0  0  0  0  0  0  # atno 10718 bound_to 10713
  154.8546  135.3525  154.5863 H   0  0  0  0  0  0  0  0  0  0  0  0  # atno 10763 bound_to 10752
  153.6473  135.6995  153.5225 H   0  0  0  0  0  0  0  0  0  0  0  0  # atno 10764 bound_to 10752
  153.2922  135.4231  155.1135 H   0  0  0  0  0  0  0  0  0  0  0  0  # atno 10765 bound_to 10752
  141.1668  133.7127  156.8196 H   0  0  0  0  0  0  0  0  0  0  0  0  # atno 11005 bound_to 11000
  146.3507  140.1409  142.8594 LP  0  0  0  0  0  0  0  0  0  0  0  0  # atno 17320 bound_to 7965
  145.0561  140.9053  143.4967 LP  0  0  0  0  0  0  0  0  0  0  0  0  # atno 17321 bound_to 7965
  139.6116  144.1087  152.2304 LP  0  0  0  0  0  0  0  0  0  0  0  0  # atno 17342 bound_to 10162
  140.0503  144.5938  150.7341 LP  0  0  0  0  0  0  0  0  0  0  0  0  # atno 17343 bound_to 10162
  157.6867  131.0823  150.7223 LP  0  0  0  0  0  0  0  0  0  0  0  0  # atno 17370 bound_to 10713
  156.7281  130.4701  149.5506 LP  0  0  0  0  0  0  0  0  0  0  0  0  # atno 17371 bound_to 10713
  140.2128  134.8814  157.3293 LP  0  0  0  0  0  0  0  0  0  0  0  0  # atno 17394 bound_to 11000
  140.2068  134.4187  155.7633 LP  0  0  0  0  0  0  0  0  0  0  0  0  # atno 17395 bound_to 11000

$$$$
