AV-unprocessed.smi:1123|AV-procd|sdf|4829|dock7
  -GOLD-   22720 3393D 1   1.00000     0.00000
 Structure written by MMmdl.
 37 38  0  0  0  0  0  0  0  0  1 V2000
  153.0785  138.8169  154.4193 C   0  0  0  0  0  0  0  0  0  0  0  0
  152.2060  138.6936  155.6854 C   0  0  2  0  0  0  0  0  0  0  0  0
  151.1163  137.6179  155.5523 C   0  0  0  0  0  0  0  0  0  0  0  0
  151.4076  136.4215  155.5789 O   0  0  0  0  0  0  0  0  0  0  0  0
  149.8576  138.0622  155.4066 N   0  0  0  0  0  0  0  0  0  0  0  0
  148.6828  137.2152  155.2424 C   0  0  0  0  0  0  0  0  0  0  0  0
  147.6175  137.5172  156.3129 C   0  0  0  0  0  0  0  0  0  0  0  0
  147.7510  136.7483  157.5491 N   0  0  0  0  0  0  0  0  0  0  0  0
  148.9869  137.0907  158.2452 C   0  0  0  0  0  0  0  0  0  0  0  0
  149.1521  136.2959  159.5521 C   0  0  0  0  0  0  0  0  0  0  0  0
  148.0242  136.5212  160.3910 O   0  0  0  0  0  0  0  0  0  0  0  0
  146.7973  136.1550  159.7686 C   0  0  0  0  0  0  0  0  0  0  0  0
  146.6240  136.9444  158.4590 C   0  0  0  0  0  0  0  0  0  0  0  0
  151.6106  139.9667  156.0736 N   0  0  0  0  0  0  0  0  0  0  0  0
  151.7138  140.6476  157.2172 C   0  0  0  0  0  0  0  0  0  0  0  0
  150.9925  141.7593  157.2504 N   0  0  0  0  0  0  0  0  0  0  0  0
  150.4175  141.6941  156.0131 C   0  0  0  0  0  0  0  0  0  0  0  0
  150.7452  140.6363  155.2716 N   0  0  0  0  0  0  0  0  0  0  0  0
  153.5589  137.8674  154.1804 H   0  0  0  0  0  0  0  0  0  0  0  0
  153.8687  139.5542  154.5632 H   0  0  0  0  0  0  0  0  0  0  0  0
  152.4981  139.1217  153.5474 H   0  0  0  0  0  0  0  0  0  0  0  0
  152.8661  138.3896  156.4995 H   0  0  0  0  0  0  0  0  0  0  0  0
  149.7039  139.0600  155.3977 H   0  0  0  0  0  0  0  0  0  0  0  0
  148.2909  137.3999  154.2427 H   0  0  0  0  0  0  0  0  0  0  0  0
  148.9711  136.1632  155.2756 H   0  0  0  0  0  0  0  0  0  0  0  0
  147.6803  138.5786  156.5567 H   0  0  0  0  0  0  0  0  0  0  0  0
  146.6223  137.3663  155.8917 H   0  0  0  0  0  0  0  0  0  0  0  0
  149.8424  136.8975  157.5970 H   0  0  0  0  0  0  0  0  0  0  0  0
  149.0012  138.1583  158.4699 H   0  0  0  0  0  0  0  0  0  0  0  0
  149.2543  135.2292  159.3464 H   0  0  0  0  0  0  0  0  0  0  0  0
  150.0550  136.6098  160.0760 H   0  0  0  0  0  0  0  0  0  0  0  0
  146.7861  135.0812  159.5761 H   0  0  0  0  0  0  0  0  0  0  0  0
  145.9740  136.3666  160.4509 H   0  0  0  0  0  0  0  0  0  0  0  0
  146.5146  138.0051  158.6897 H   0  0  0  0  0  0  0  0  0  0  0  0
  145.6948  136.6291  157.9858 H   0  0  0  0  0  0  0  0  0  0  0  0
  152.3262  140.3207  158.0446 H   0  0  0  0  0  0  0  0  0  0  0  0
  149.7318  142.4457  155.6503 H   0  0  0  0  0  0  0  0  0  0  0  0
  1  2  1  0  0  0  0
  1 19  1  0  0  0  0
  1 20  1  0  0  0  0
  1 21  1  0  0  0  0
  2  3  1  0  0  0  0
  2 14  1  0  0  0  0
  2 22  1  0  0  0  0
  3  4  2  0  0  0  0
  3  5  1  0  0  0  0
  5  6  1  0  0  0  0
  5 23  1  0  0  0  0
  6  7  1  0  0  0  0
  6 24  1  0  0  0  0
  6 25  1  0  0  0  0
  7  8  1  0  0  0  0
  7 26  1  0  0  0  0
  7 27  1  0  0  0  0
  8 13  1  0  0  0  0
  8  9  1  0  0  0  0
  9 10  1  0  0  0  0
  9 28  1  0  0  0  0
  9 29  1  0  0  0  0
 10 11  1  0  0  0  0
 10 30  1  0  0  0  0
 10 31  1  0  0  0  0
 11 12  1  0  0  0  0
 12 13  1  0  0  0  0
 12 32  1  0  0  0  0
 12 33  1  0  0  0  0
 13 34  1  0  0  0  0
 13 35  1  0  0  0  0
 14 18  1  0  0  0  0
 14 15  1  0  0  0  0
 15 16  2  0  0  0  0
 15 36  1  0  0  0  0
 16 17  1  0  0  0  0
 17 18  2  0  0  0  0
 17 37  1  0  0  0  0
M  END
> <s_m_source_file>
AV-unprocessed.smi

> <i_m_source_file_index>
1123

> <i_lp_mmshare_version>
43012

> <i_f3d_flags>
0

> <s_epik_input>
bjFbY0hdbltjSF1uMVtDQEhdKFtDSDNdKUMoPU8pW05IXVtDSDJdW0NIMl1OMltDSDJdW0NIMl1PW0NIMl1bQ0gyXTI=

> <s_epik_cmdline>
J2VwaWtfcHl0aG9uJywgJy1waCcsICc3LjAnLCAnLXRuJywgJzgnLCAnLW1hJywgJzIwMCcsICctbWV0YWxfYmluZGluZycsICctaW1hZScsICc8aW5maWxlLm1hZT4nLCAnLW9tYWUnLCAnPG91dGZpbGUubWFlPic=

> <r_lp_tautomer_probability>
1

> <r_epik_Ionization_Penalty>
0.211373

> <r_epik_Ionization_Penalty_Charging>
0

> <r_epik_Ionization_Penalty_Neutral>
0.211373

> <r_epik_State_Penalty>
0.201459

> <r_epik_Charging_Adjusted_Penalty>
0.201459

> <i_epik_Tot_Q>
0

> <i_epik_Tot_abs_Q>
0

> <r_epik_Metal_State_Penalty>
0.201458

> <b_epik_Metal_Only>
0

> <s_lp_Force_Field>
OPLS_2005

> <r_lp_Energy>
26.6349

> <b_lp_Chiralities_Consistent>
1

> <s_lp_Variant>
AV-unprocessed.smi:1123-1

> <Gold.Version>
5.8.1

> <Gold.Id.Protein>
6NUR|6NUR_protein|mol2

> <Gold.PLP.Fitness>
34.1981

> <Gold.PLP.PLP>
-23.6408

> <Gold.PLP.part.hbond>
-3.7428

> <Gold.PLP.part.metal>
0.0000

> <Gold.PLP.part.buried>
-4.4766

> <Gold.PLP.part.nonpolar>
-15.0685

> <Gold.PLP.part.repulsive>
0.1774

> <Gold.PLP.ligand.clash>
0.0000

> <Gold.PLP.ligand.torsion>
0.6671

> <Gold.PLP.Chemscore.Hbond>
2.9231

> <Gold.PLP.Chemscore.CHOScore>
0.9971

> <Gold.PLP.Chemscore.Metal>
0.0000

> <Gold.Chemscore.Hbonds>
donor molecule, donor type, donor heavy atom, donor atom, acceptor molecule, acceptor atom, score
      P1  H  7989  7998       L1    18  0.91
      P1  H 10752 10764       L1     4  1.00
      L1  C    17    37       P1  8028  1.00

> <Gold.PLP.Chemscore.Internal.Correction>
0.1311

> <Gold.Rescore>
     Score         DG    S(hbond)    S(metal)    S(lipo)     H(rot)  DE(clash)    DE(int)     intcor
      8.54     -10.81       2.57        0.00      29.36       2.61       0.00       2.27       ----

> <Gold.Chemscore.Fitness>
8.5438

> <Gold.Chemscore.DG>
-10.8138

> <Gold.Chemscore.ZeroCoef>
-5.4800

> <Gold.Chemscore.Hbond>
2.5687

> <Gold.Chemscore.Metal>
0.0000

> <Gold.Chemscore.Lipo>
29.3606

> <Gold.Chemscore.Internal_Hbond>
0.0000

> <Gold.Chemscore.DEClash>
0.0044

> <Gold.Chemscore.DEInternal>
2.2657

> <Gold.Chemscore.Rot>
2.6097

> <Gold.Chemscore.Internal.Correction>
   9.000000E+99

> <Gold.Chemscore.Hbonds>
donor molecule, donor type, donor heavy atom, donor atom, acceptor molecule, acceptor atom, score
      P1  H  7989  7998       L1    18  0.55
      P1  H 10752 10764       L1     4  0.98

> <Gold.Chemscore.Hbond.Weighted>
-8.5795

> <Gold.Chemscore.Metal.Weighted>
-0.0000

> <Gold.Chemscore.Lipo.Weighted>
-3.4352

> <Gold.Chemscore.Internal_Hbond.Weighted>
0.0000

> <Gold.Chemscore.DEClash.Weighted>
0.0044

> <Gold.Chemscore.DEInternal.Weighted>
2.2657

> <Gold.Chemscore.Rot.Weighted>
6.6809

> <Gold.Chemscore.Internal.Correction.Weighted>
   9.000000E+99

> <Gold.Protein.RotatedTorsions>
[ 6907 6896 6895 6894 ] final  143.28 input  -60.11 | X-H torsion
[ 7974 7965 7964 7962 ] final -157.95 input  175.53 | X-H torsion
[ 8008 7997 7996 7995 ] final   43.47 input   59.86 | X-H torsion
[ 10167 10162 10161 10158 ] final   83.66 input  -65.29 | X-H torsion
[ 10718 10713 10712 10709 ] final -136.47 input   66.30 | X-H torsion
[ 10763 10752 10751 10750 ] final  -42.05 input  -60.55 | X-H torsion
[ 11005 11000 10999 10996 ] final  -97.36 input  -57.11 | X-H torsion

> <Gold.Protein.ActiveResidues>
 VAL166  LYS551  ARG553  GLY616  TRP617  ASP618  TYR619  PRO620  LYS621  CYS622 
 ASP623  PHE694  ASN695  SER759  ASP760  ASP761  ALA762  ILE779  LEU786  VAL792 
 PHE793  MET794  SER795  GLU796  ALA797  LYS798  CYS799  TRP800  GLU811  SER814 

> <Gold.Protein.RotatedAtoms>
  152.2083  133.4892  159.5095 H   0  0  0  0  0  0  0  0  0  0  0  0  # atno 6907 bound_to 6896
  150.6984  134.1501  159.4146 H   0  0  0  0  0  0  0  0  0  0  0  0  # atno 6908 bound_to 6896
  151.9420  135.0209  160.0587 H   0  0  0  0  0  0  0  0  0  0  0  0  # atno 6909 bound_to 6896
  144.7526  140.3897  143.6036 H   0  0  0  0  0  0  0  0  0  0  0  0  # atno 7974 bound_to 7965
  155.3033  140.3386  155.4247 H   0  0  0  0  0  0  0  0  0  0  0  0  # atno 8008 bound_to 7997
  156.1991  140.1726  156.7976 H   0  0  0  0  0  0  0  0  0  0  0  0  # atno 8009 bound_to 7997
  154.5536  140.0701  156.8691 H   0  0  0  0  0  0  0  0  0  0  0  0  # atno 8010 bound_to 7997
  139.9161  144.6242  150.8488 H   0  0  0  0  0  0  0  0  0  0  0  0  # atno 10167 bound_to 10162
  156.2774  130.7301  151.1288 H   0  0  0  0  0  0  0  0  0  0  0  0  # atno 10718 bound_to 10713
  153.9727  135.6726  153.4747 H   0  0  0  0  0  0  0  0  0  0  0  0  # atno 10763 bound_to 10752
  153.0785  135.4936  154.8451 H   0  0  0  0  0  0  0  0  0  0  0  0  # atno 10764 bound_to 10752
  154.7210  135.3117  154.9008 H   0  0  0  0  0  0  0  0  0  0  0  0  # atno 10765 bound_to 10752
  141.1381  133.8165  157.0695 H   0  0  0  0  0  0  0  0  0  0  0  0  # atno 11005 bound_to 11000
  145.6889  139.1635  143.2658 LP  0  0  0  0  0  0  0  0  0  0  0  0  # atno 17320 bound_to 7965
  146.1497  140.6943  142.9328 LP  0  0  0  0  0  0  0  0  0  0  0  0  # atno 17321 bound_to 7965
  140.7674  143.3330  151.2368 LP  0  0  0  0  0  0  0  0  0  0  0  0  # atno 17342 bound_to 10162
  139.6901  143.9706  152.2855 LP  0  0  0  0  0  0  0  0  0  0  0  0  # atno 17343 bound_to 10162
  157.7304  131.0617  150.5730 LP  0  0  0  0  0  0  0  0  0  0  0  0  # atno 17370 bound_to 10713
  156.5832  130.4310  149.5968 LP  0  0  0  0  0  0  0  0  0  0  0  0  # atno 17371 bound_to 10713
  140.0520  134.9800  157.1154 LP  0  0  0  0  0  0  0  0  0  0  0  0  # atno 17394 bound_to 11000
  140.3975  134.2118  155.7164 LP  0  0  0  0  0  0  0  0  0  0  0  0  # atno 17395 bound_to 11000

$$$$
