AV-unprocessed.smi:2393|AV-procd|sdf|9488|dock8
  -GOLD-   2272013113D 1   1.00000     0.00000
 Structure written by MMmdl.
 43 44  0  0  0  0  0  0  0  0  1 V2000
  149.7384  124.7568  150.2339 C   0  0  0  0  0  0  0  0  0  0  0  0
  148.9527  125.6179  151.2005 C   0  0  0  0  0  0  0  0  0  0  0  0
  148.5566  125.1190  152.4563 C   0  0  0  0  0  0  0  0  0  0  0  0
  147.8305  125.9713  153.3112 C   0  0  0  0  0  0  0  0  0  0  0  0
  147.3717  125.5002  154.6755 C   0  0  0  0  0  0  0  0  0  0  0  0
  147.5030  127.2392  152.9824 N   0  0  0  0  0  0  0  0  0  0  0  0
  147.8797  127.7306  151.7759 C   0  0  0  0  0  0  0  0  0  0  0  0
  147.5770  129.0452  151.3319 N   0  0  0  0  0  0  0  0  0  0  0  0
  146.4436  129.7439  151.5203 C   0  0  0  0  0  0  0  0  0  0  0  0
  145.4769  129.3671  152.1838 O   0  0  0  0  0  0  0  0  0  0  0  0
  146.4943  130.9303  150.8966 N   0  0  0  0  0  0  0  0  0  0  0  0
  145.4290  131.9290  150.9069 C   0  0  2  0  0  0  0  0  0  0  0  0
  144.9326  132.1814  149.4787 C   0  0  0  0  0  0  0  0  0  0  0  0
  143.8885  133.3065  149.4651 C   0  0  0  0  0  0  0  0  0  0  0  0
  144.4269  134.4935  150.0445 O   0  0  0  0  0  0  0  0  0  0  0  0
  144.8823  134.3890  151.3980 C   0  0  0  0  0  0  0  0  0  0  0  0
  145.5467  135.7419  151.7019 C   0  0  0  0  0  0  0  0  0  0  0  0
  143.6944  134.1859  152.3634 C   0  0  0  0  0  0  0  0  0  0  0  0
  145.9300  133.2546  151.5077 C   0  0  0  0  0  0  0  0  0  0  0  0
  148.6063  126.9402  150.8572 C   0  0  0  0  0  0  0  0  0  0  0  0
  149.8319  123.7338  150.5998 H   0  0  0  0  0  0  0  0  0  0  0  0
  150.7403  125.1642  150.0967 H   0  0  0  0  0  0  0  0  0  0  0  0
  149.2432  124.7271  149.2631 H   0  0  0  0  0  0  0  0  0  0  0  0
  148.8023  124.1106  152.7564 H   0  0  0  0  0  0  0  0  0  0  0  0
  147.5405  124.4304  154.8014 H   0  0  0  0  0  0  0  0  0  0  0  0
  146.3067  125.6930  154.8083 H   0  0  0  0  0  0  0  0  0  0  0  0
  147.9168  126.0268  155.4592 H   0  0  0  0  0  0  0  0  0  0  0  0
  148.3021  129.5004  150.7978 H   0  0  0  0  0  0  0  0  0  0  0  0
  147.3276  131.1596  150.3749 H   0  0  0  0  0  0  0  0  0  0  0  0
  144.5935  131.5508  151.4979 H   0  0  0  0  0  0  0  0  0  0  0  0
  145.7692  132.4595  148.8359 H   0  0  0  0  0  0  0  0  0  0  0  0
  144.5041  131.2706  149.0590 H   0  0  0  0  0  0  0  0  0  0  0  0
  143.5980  133.5275  148.4381 H   0  0  0  0  0  0  0  0  0  0  0  0
  142.9784  133.0008  149.9811 H   0  0  0  0  0  0  0  0  0  0  0  0
  145.9500  135.7675  152.7147 H   0  0  0  0  0  0  0  0  0  0  0  0
  144.8337  136.5618  151.6082 H   0  0  0  0  0  0  0  0  0  0  0  0
  146.3680  135.9443  151.0136 H   0  0  0  0  0  0  0  0  0  0  0  0
  144.0288  134.2049  153.4013 H   0  0  0  0  0  0  0  0  0  0  0  0
  143.1845  133.2355  152.2129 H   0  0  0  0  0  0  0  0  0  0  0  0
  142.9527  134.9762  152.2432 H   0  0  0  0  0  0  0  0  0  0  0  0
  146.2210  133.1128  152.5495 H   0  0  0  0  0  0  0  0  0  0  0  0
  146.8366  133.5544  150.9794 H   0  0  0  0  0  0  0  0  0  0  0  0
  148.8993  127.3432  149.8984 H   0  0  0  0  0  0  0  0  0  0  0  0
  1  2  1  0  0  0  0
  1 21  1  0  0  0  0
  1 22  1  0  0  0  0
  1 23  1  0  0  0  0
  2 20  1  0  0  0  0
  2  3  2  0  0  0  0
  3  4  1  0  0  0  0
  3 24  1  0  0  0  0
  4  5  1  0  0  0  0
  4  6  2  0  0  0  0
  5 25  1  0  0  0  0
  5 26  1  0  0  0  0
  5 27  1  0  0  0  0
  6  7  1  0  0  0  0
  7  8  1  0  0  0  0
  7 20  2  0  0  0  0
  8  9  1  0  0  0  0
  8 28  1  0  0  0  0
  9 10  2  0  0  0  0
  9 11  1  0  0  0  0
 11 12  1  0  0  0  0
 11 29  1  0  0  0  0
 12 19  1  0  0  0  0
 12 13  1  0  0  0  0
 12 30  1  0  0  0  0
 13 14  1  0  0  0  0
 13 31  1  0  0  0  0
 13 32  1  0  0  0  0
 14 15  1  0  0  0  0
 14 33  1  0  0  0  0
 14 34  1  0  0  0  0
 15 16  1  0  0  0  0
 16 17  1  0  0  0  0
 16 18  1  0  0  0  0
 16 19  1  0  0  0  0
 17 35  1  0  0  0  0
 17 36  1  0  0  0  0
 17 37  1  0  0  0  0
 18 38  1  0  0  0  0
 18 39  1  0  0  0  0
 18 40  1  0  0  0  0
 19 41  1  0  0  0  0
 19 42  1  0  0  0  0
 20 43  1  0  0  0  0
M  END
> <s_m_source_file>
AV-unprocessed.smi

> <i_m_source_file_index>
2393

> <i_lp_mmshare_version>
43012

> <i_f3d_flags>
0

> <s_epik_input>
W0NIM11jMVtjSF1jKFtDSDNdKW5jKFtjSF0xKVtOSF1DKD1PKVtOSF1bQ0BASF0oW0NIMl0yKVtDSDJdW0NIMl1PQzIoW0NIM10pW0NIM10=

> <s_epik_cmdline>
J2VwaWtfcHl0aG9uJywgJy1waCcsICc3LjAnLCAnLXRuJywgJzgnLCAnLW1hJywgJzIwMCcsICctbWV0YWxfYmluZGluZycsICctaW1hZScsICc8aW5maWxlLm1hZT4nLCAnLW9tYWUnLCAnPG91dGZpbGUubWFlPic=

> <r_lp_tautomer_probability>
1

> <r_epik_Ionization_Penalty>
0.000261351

> <r_epik_Ionization_Penalty_Charging>
0

> <r_epik_Ionization_Penalty_Neutral>
0.000261351

> <r_epik_State_Penalty>
-0

> <r_epik_Charging_Adjusted_Penalty>
0

> <i_epik_Tot_Q>
0

> <i_epik_Tot_abs_Q>
0

> <r_epik_Metal_State_Penalty>
-0

> <b_epik_Metal_Only>
0

> <s_lp_Force_Field>
OPLS_2005

> <r_lp_Energy>
12.7135

> <b_lp_Chiralities_Consistent>
1

> <s_lp_Variant>
AV-unprocessed.smi:2393-1

> <Gold.Version>
5.8.1

> <Gold.Id.Protein>
6NUR|6NUR_protein|mol2

> <Gold.PLP.Fitness>
40.6838

> <Gold.PLP.PLP>
-35.8002

> <Gold.PLP.part.hbond>
-1.8004

> <Gold.PLP.part.metal>
0.0000

> <Gold.PLP.part.buried>
-4.3664

> <Gold.PLP.part.nonpolar>
-31.3352

> <Gold.PLP.part.repulsive>
1.7859

> <Gold.PLP.ligand.clash>
0.0000

> <Gold.PLP.ligand.torsion>
0.2944

> <Gold.PLP.Chemscore.Hbond>
1.8240

> <Gold.PLP.Chemscore.CHOScore>
0.0000

> <Gold.PLP.Chemscore.Metal>
0.0000

> <Gold.Chemscore.Hbonds>
donor molecule, donor type, donor heavy atom, donor atom, acceptor molecule, acceptor atom, score
      L1  H     8    28       P1 10747  1.00
      L1  H    11    29       P1 10747  0.88

> <Gold.PLP.Chemscore.Internal.Correction>
0.0004

> <Gold.Rescore>
     Score         DG    S(hbond)    S(metal)    S(lipo)     H(rot)  DE(clash)    DE(int)     intcor
     15.15     -16.53       1.27        0.00      80.07       1.00       0.22       1.16       ----

> <Gold.Chemscore.Fitness>
15.1517

> <Gold.Chemscore.DG>
-16.5299

> <Gold.Chemscore.ZeroCoef>
-5.4800

> <Gold.Chemscore.Hbond>
1.2699

> <Gold.Chemscore.Metal>
0.0000

> <Gold.Chemscore.Lipo>
80.0730

> <Gold.Chemscore.Internal_Hbond>
0.0000

> <Gold.Chemscore.DEClash>
0.2201

> <Gold.Chemscore.DEInternal>
1.1582

> <Gold.Chemscore.Rot>
1.0000

> <Gold.Chemscore.Internal.Correction>
   9.000000E+99

> <Gold.Chemscore.Hbonds>
donor molecule, donor type, donor heavy atom, donor atom, acceptor molecule, acceptor atom, score
      L1  H     8    28       P1 10747  0.23
      L1  H    11    29       P1 10747  0.86

> <Gold.Chemscore.Hbond.Weighted>
-4.2414

> <Gold.Chemscore.Metal.Weighted>
-0.0000

> <Gold.Chemscore.Lipo.Weighted>
-9.3685

> <Gold.Chemscore.Internal_Hbond.Weighted>
0.0000

> <Gold.Chemscore.DEClash.Weighted>
0.2201

> <Gold.Chemscore.DEInternal.Weighted>
1.1582

> <Gold.Chemscore.Rot.Weighted>
2.5600

> <Gold.Chemscore.Internal.Correction.Weighted>
   9.000000E+99

> <Gold.Protein.RotatedTorsions>
[ 6907 6896 6895 6894 ] final   35.43 input  -60.11 | X-H torsion
[ 7974 7965 7964 7962 ] final  178.47 input  175.53 | X-H torsion
[ 8008 7997 7996 7995 ] final  -29.08 input   59.86 | X-H torsion
[ 10167 10162 10161 10158 ] final  -39.91 input  -65.29 | X-H torsion
[ 10718 10713 10712 10709 ] final  -76.08 input   66.30 | X-H torsion
[ 10763 10752 10751 10750 ] final   -3.59 input  -60.55 | X-H torsion
[ 11005 11000 10999 10996 ] final  114.94 input  -57.11 | X-H torsion

> <Gold.Protein.ActiveResidues>
 VAL166  LYS551  ARG553  GLY616  TRP617  ASP618  TYR619  PRO620  LYS621  CYS622 
 ASP623  PHE694  ASN695  SER759  ASP760  ASP761  ALA762  ILE779  LEU786  VAL792 
 PHE793  MET794  SER795  GLU796  ALA797  LYS798  CYS799  TRP800  GLU811  SER814 

> <Gold.Protein.RotatedAtoms>
  152.1160  134.9240  160.0564 H   0  0  0  0  0  0  0  0  0  0  0  0  # atno 6907 bound_to 6896
  152.0399  133.3968  159.4341 H   0  0  0  0  0  0  0  0  0  0  0  0  # atno 6908 bound_to 6896
  150.6846  134.3347  159.4886 H   0  0  0  0  0  0  0  0  0  0  0  0  # atno 6909 bound_to 6896
  144.7156  140.0402  143.6437 H   0  0  0  0  0  0  0  0  0  0  0  0  # atno 7974 bound_to 7965
  154.4305  140.1828  156.1191 H   0  0  0  0  0  0  0  0  0  0  0  0  # atno 8008 bound_to 7997
  156.0157  140.3346  155.6961 H   0  0  0  0  0  0  0  0  0  0  0  0  # atno 8009 bound_to 7997
  155.6047  140.0644  157.2714 H   0  0  0  0  0  0  0  0  0  0  0  0  # atno 8010 bound_to 7997
  140.7050  143.3185  151.2849 H   0  0  0  0  0  0  0  0  0  0  0  0  # atno 10167 bound_to 10162
  156.0186  130.4457  150.3140 H   0  0  0  0  0  0  0  0  0  0  0  0  # atno 10718 bound_to 10713
  153.3734  135.6995  153.6620 H   0  0  0  0  0  0  0  0  0  0  0  0  # atno 10763 bound_to 10752
  153.5261  135.3602  155.2655 H   0  0  0  0  0  0  0  0  0  0  0  0  # atno 10764 bound_to 10752
  154.8684  135.4169  154.3017 H   0  0  0  0  0  0  0  0  0  0  0  0  # atno 10765 bound_to 10752
  139.8995  134.9576  156.6969 H   0  0  0  0  0  0  0  0  0  0  0  0  # atno 11005 bound_to 11000
  146.0030  139.3107  143.0916 LP  0  0  0  0  0  0  0  0  0  0  0  0  # atno 17320 bound_to 7965
  145.8771  140.9385  143.0620 LP  0  0  0  0  0  0  0  0  0  0  0  0  # atno 17321 bound_to 7965
  139.6632  144.0152  152.2706 LP  0  0  0  0  0  0  0  0  0  0  0  0  # atno 17342 bound_to 10162
  139.9726  144.6483  150.7974 LP  0  0  0  0  0  0  0  0  0  0  0  0  # atno 17343 bound_to 10162
  157.1241  131.0254  151.2997 LP  0  0  0  0  0  0  0  0  0  0  0  0  # atno 17370 bound_to 10713
  157.4604  130.7650  149.7231 LP  0  0  0  0  0  0  0  0  0  0  0  0  # atno 17371 bound_to 10713
  140.7181  133.9165  155.8128 LP  0  0  0  0  0  0  0  0  0  0  0  0  # atno 17394 bound_to 11000
  141.0249  134.0838  157.4080 LP  0  0  0  0  0  0  0  0  0  0  0  0  # atno 17395 bound_to 11000

$$$$
