AV-unprocessed.smi:1111|AV-procd|sdf|4792|dock2
  -GOLD-   22720 3343D 1   1.00000     0.00000
 Structure written by MMmdl.
 32 33  0  0  0  0  0  0  0  0  1 V2000
  149.6938  141.5591  155.8695 C   0  0  0  0  0  0  0  0  0  0  0  0
  150.7462  140.6457  156.5318 C   0  0  1  0  0  0  0  0  0  0  0  0
  151.6831  141.4338  157.3415 N   0  0  0  0  0  0  0  0  0  0  0  0
  151.4068  142.3493  158.2865 C   0  0  0  0  0  0  0  0  0  0  0  0
  150.2738  142.6017  158.6938 O   0  0  0  0  0  0  0  0  0  0  0  0
  152.6042  143.1240  158.8354 C   0  0  0  0  0  0  0  0  0  0  0  0
  152.7759  142.8581  160.2517 N   0  0  0  0  0  0  0  0  0  0  0  0
  152.3367  143.6404  161.3128 C   0  0  0  0  0  0  0  0  0  0  0  0
  152.7055  142.9828  162.4645 C   0  0  0  0  0  0  0  0  0  0  0  0
  153.3694  141.8025  162.1386 N   0  0  0  0  0  0  0  0  0  0  0  0
  153.3712  141.7957  160.8121 C   0  0  0  0  0  0  0  0  0  0  0  0
  150.0564  139.6407  157.4854 C   0  0  0  0  0  0  0  0  0  0  0  0
  151.0333  138.5127  157.8459 C   0  0  0  0  0  0  0  0  0  0  0  0
  152.1212  138.3114  156.3876 S   0  0  0  0  0  0  0  0  0  0  0  0
  153.5143  138.5366  156.8020 O   0  0  0  0  0  0  0  0  0  0  0  0
  151.7365  137.1019  155.6443 O   0  0  0  0  0  0  0  0  0  0  0  0
  151.5055  139.7888  155.4930 C   0  0  0  0  0  0  0  0  0  0  0  0
  148.9400  140.9740  155.3417 H   0  0  0  0  0  0  0  0  0  0  0  0
  150.1396  142.2346  155.1396 H   0  0  0  0  0  0  0  0  0  0  0  0
  149.1749  142.1672  156.6114 H   0  0  0  0  0  0  0  0  0  0  0  0
  152.6582  141.3181  157.1057 H   0  0  0  0  0  0  0  0  0  0  0  0
  153.5147  142.8392  158.3063 H   0  0  0  0  0  0  0  0  0  0  0  0
  152.4614  144.1950  158.6855 H   0  0  0  0  0  0  0  0  0  0  0  0
  151.8080  144.5704  161.1654 H   0  0  0  0  0  0  0  0  0  0  0  0
  152.5430  143.2650  163.4942 H   0  0  0  0  0  0  0  0  0  0  0  0
  153.8118  140.9967  160.2335 H   0  0  0  0  0  0  0  0  0  0  0  0
  149.6608  140.1250  158.3792 H   0  0  0  0  0  0  0  0  0  0  0  0
  149.2017  139.1958  156.9737 H   0  0  0  0  0  0  0  0  0  0  0  0
  151.6571  138.7909  158.6956 H   0  0  0  0  0  0  0  0  0  0  0  0
  150.5310  137.5728  158.0748 H   0  0  0  0  0  0  0  0  0  0  0  0
  150.8238  139.4352  154.7189 H   0  0  0  0  0  0  0  0  0  0  0  0
  152.3322  140.2968  154.9969 H   0  0  0  0  0  0  0  0  0  0  0  0
  1  2  1  0  0  0  0
  1 18  1  0  0  0  0
  1 19  1  0  0  0  0
  1 20  1  0  0  0  0
  2 17  1  0  0  0  0
  2  3  1  0  0  0  0
  2 12  1  0  0  0  0
  3  4  1  0  0  0  0
  3 21  1  0  0  0  0
  4  5  2  0  0  0  0
  4  6  1  0  0  0  0
  6  7  1  0  0  0  0
  6 22  1  0  0  0  0
  6 23  1  0  0  0  0
  7 11  1  0  0  0  0
  7  8  1  0  0  0  0
  8  9  2  0  0  0  0
  8 24  1  0  0  0  0
  9 10  1  0  0  0  0
  9 25  1  0  0  0  0
 10 11  2  0  0  0  0
 11 26  1  0  0  0  0
 12 13  1  0  0  0  0
 12 27  1  0  0  0  0
 12 28  1  0  0  0  0
 13 14  1  0  0  0  0
 13 29  1  0  0  0  0
 13 30  1  0  0  0  0
 14 15  2  0  0  0  0
 14 16  2  0  0  0  0
 14 17  1  0  0  0  0
 17 31  1  0  0  0  0
 17 32  1  0  0  0  0
M  END
> <s_m_source_file>
AV-unprocessed.smi

> <i_m_source_file_index>
1111

> <i_lp_mmshare_version>
43012

> <i_f3d_flags>
0

> <s_epik_input>
Tz1TKD1PKShbQ0gyXTEpW0NIMl1bQ0gyXVtDQEBdMShbQ0gzXSlbTkhdQyg9TylbQ0gyXW4yW2NIXVtjSF1uW2NIXTI=

> <s_epik_cmdline>
J2VwaWtfcHl0aG9uJywgJy1waCcsICc3LjAnLCAnLXRuJywgJzgnLCAnLW1hJywgJzIwMCcsICctbWV0YWxfYmluZGluZycsICctaW1hZScsICc8aW5maWxlLm1hZT4nLCAnLW9tYWUnLCAnPG91dGZpbGUubWFlPic=

> <r_lp_tautomer_probability>
1

> <r_epik_Ionization_Penalty>
0.246342

> <r_epik_Ionization_Penalty_Charging>
0.246341

> <r_epik_Ionization_Penalty_Neutral>
5.91248e-07

> <r_epik_State_Penalty>
0.237514

> <r_epik_Charging_Adjusted_Penalty>
0.483856

> <i_epik_Tot_Q>
0

> <i_epik_Tot_abs_Q>
0

> <r_epik_Metal_State_Penalty>
0.166715

> <b_epik_Metal_Only>
0

> <s_lp_Force_Field>
OPLS_2005

> <r_lp_Energy>
5.37624

> <b_lp_Chiralities_Consistent>
1

> <s_lp_Variant>
AV-unprocessed.smi:1111-1

> <Gold.Version>
5.8.1

> <Gold.Id.Protein>
6NUR|6NUR_protein|mol2

> <Gold.PLP.Fitness>
40.6967

> <Gold.PLP.PLP>
-36.0207

> <Gold.PLP.part.hbond>
-2.3606

> <Gold.PLP.part.metal>
0.0000

> <Gold.PLP.part.buried>
-4.1043

> <Gold.PLP.part.nonpolar>
-28.8940

> <Gold.PLP.part.repulsive>
0.2192

> <Gold.PLP.ligand.clash>
0.0000

> <Gold.PLP.ligand.torsion>
0.4095

> <Gold.PLP.Chemscore.Hbond>
1.8240

> <Gold.PLP.Chemscore.CHOScore>
0.0000

> <Gold.PLP.Chemscore.Metal>
0.0000

> <Gold.Chemscore.Hbonds>
donor molecule, donor type, donor heavy atom, donor atom, acceptor molecule, acceptor atom, score
      P1  H  7997  8008       L1    15  0.78
      P1  H 10752 10765       L1    16  0.58

> <Gold.PLP.Chemscore.Internal.Correction>
0.0230

> <Gold.Rescore>
     Score         DG    S(hbond)    S(metal)    S(lipo)     H(rot)  DE(clash)    DE(int)     intcor
     13.86     -14.29       1.80        0.00      61.83       1.73       0.12       0.31       ----

> <Gold.Chemscore.Fitness>
13.8637

> <Gold.Chemscore.DG>
-14.2912

> <Gold.Chemscore.ZeroCoef>
-5.4800

> <Gold.Chemscore.Hbond>
1.8002

> <Gold.Chemscore.Metal>
0.0000

> <Gold.Chemscore.Lipo>
61.8346

> <Gold.Chemscore.Internal_Hbond>
0.0000

> <Gold.Chemscore.DEClash>
0.1207

> <Gold.Chemscore.DEInternal>
0.3068

> <Gold.Chemscore.Rot>
1.7328

> <Gold.Chemscore.Internal.Correction>
   9.000000E+99

> <Gold.Chemscore.Hbonds>
donor molecule, donor type, donor heavy atom, donor atom, acceptor molecule, acceptor atom, score
      P1  H  7997  8008       L1    15  0.76
      P1  H 10752 10765       L1    16  0.54

> <Gold.Chemscore.Hbond.Weighted>
-6.0125

> <Gold.Chemscore.Metal.Weighted>
-0.0000

> <Gold.Chemscore.Lipo.Weighted>
-7.2346

> <Gold.Chemscore.Internal_Hbond.Weighted>
0.0000

> <Gold.Chemscore.DEClash.Weighted>
0.1207

> <Gold.Chemscore.DEInternal.Weighted>
0.3068

> <Gold.Chemscore.Rot.Weighted>
4.4360

> <Gold.Chemscore.Internal.Correction.Weighted>
   9.000000E+99

> <Gold.Protein.RotatedTorsions>
[ 6907 6896 6895 6894 ] final  165.84 input  -60.11 | X-H torsion
[ 7974 7965 7964 7962 ] final   79.26 input  175.53 | X-H torsion
[ 8008 7997 7996 7995 ] final  -46.08 input   59.86 | X-H torsion
[ 10167 10162 10161 10158 ] final -154.56 input  -65.29 | X-H torsion
[ 10718 10713 10712 10709 ] final  -45.71 input   66.30 | X-H torsion
[ 10763 10752 10751 10750 ] final  177.32 input  -60.55 | X-H torsion
[ 11005 11000 10999 10996 ] final  -11.35 input  -57.11 | X-H torsion

> <Gold.Protein.ActiveResidues>
 VAL166  LYS551  ARG553  GLY616  TRP617  ASP618  TYR619  PRO620  LYS621  CYS622 
 ASP623  PHE694  ASN695  SER759  ASP760  ASP761  ALA762  ILE779  LEU786  VAL792 
 PHE793  MET794  SER795  GLU796  ALA797  LYS798  CYS799  TRP800  GLU811  SER814 

> <Gold.Protein.RotatedAtoms>
  151.8882  133.3510  159.3788 H   0  0  0  0  0  0  0  0  0  0  0  0  # atno 6907 bound_to 6896
  150.7110  134.4951  159.5543 H   0  0  0  0  0  0  0  0  0  0  0  0  # atno 6908 bound_to 6896
  152.2516  134.8127  160.0496 H   0  0  0  0  0  0  0  0  0  0  0  0  # atno 6909 bound_to 6896
  145.6665  139.2485  143.1892 H   0  0  0  0  0  0  0  0  0  0  0  0  # atno 7974 bound_to 7965
  154.4005  140.1380  156.3953 H   0  0  0  0  0  0  0  0  0  0  0  0  # atno 8008 bound_to 7997
  155.7876  140.3479  155.5311 H   0  0  0  0  0  0  0  0  0  0  0  0  # atno 8009 bound_to 7997
  155.8612  140.0957  157.1602 H   0  0  0  0  0  0  0  0  0  0  0  0  # atno 8010 bound_to 7997
  139.7003  143.9274  152.2425 H   0  0  0  0  0  0  0  0  0  0  0  0  # atno 10167 bound_to 10162
  156.2256  130.4169  149.8938 H   0  0  0  0  0  0  0  0  0  0  0  0  # atno 10718 bound_to 10713
  154.4929  135.2780  155.1482 H   0  0  0  0  0  0  0  0  0  0  0  0  # atno 10763 bound_to 10752
  154.3147  135.6222  153.5485 H   0  0  0  0  0  0  0  0  0  0  0  0  # atno 10764 bound_to 10752
  152.9890  135.5728  154.5354 H   0  0  0  0  0  0  0  0  0  0  0  0  # atno 10765 bound_to 10752
  140.7543  133.8566  155.9071 H   0  0  0  0  0  0  0  0  0  0  0  0  # atno 11005 bound_to 11000
  146.1081  140.7462  142.9516 LP  0  0  0  0  0  0  0  0  0  0  0  0  # atno 17320 bound_to 7965
  144.7071  140.3895  143.7109 LP  0  0  0  0  0  0  0  0  0  0  0  0  # atno 17321 bound_to 7965
  139.9115  144.6854  150.8558 LP  0  0  0  0  0  0  0  0  0  0  0  0  # atno 17342 bound_to 10162
  140.7708  143.3440  151.2149 LP  0  0  0  0  0  0  0  0  0  0  0  0  # atno 17343 bound_to 10162
  156.6570  130.8766  151.3541 LP  0  0  0  0  0  0  0  0  0  0  0  0  # atno 17370 bound_to 10713
  157.7109  130.9439  150.1085 LP  0  0  0  0  0  0  0  0  0  0  0  0  # atno 17371 bound_to 10713
  140.9722  134.1516  157.4567 LP  0  0  0  0  0  0  0  0  0  0  0  0  # atno 17394 bound_to 11000
  139.8782  134.9982  156.5888 LP  0  0  0  0  0  0  0  0  0  0  0  0  # atno 17395 bound_to 11000

$$$$
