AV-unprocessed.smi:438|AV-procd|sdf|2568|dock5
  -GOLD-   2262022543D 1   1.00000     0.00000
 Structure written by MMmdl.
 48 49  0  0  0  0  0  0  0  0  1 V2000
  145.3629  136.0519  151.5096 C   0  0  0  0  0  0  0  0  0  0  0  0
  145.7328  134.7971  152.2802 C   0  0  0  0  0  0  0  0  0  0  0  0
  146.4219  135.0287  153.4567 N   0  0  0  0  0  0  0  0  0  0  0  0
  146.7515  133.9522  154.2652 C   0  0  0  0  0  0  0  0  0  0  0  0
  147.5588  134.5444  155.7848 S   0  0  0  0  0  0  0  0  0  0  0  0
  147.4794  133.0899  156.8743 C   0  0  0  0  0  0  0  0  0  0  0  0
  148.4052  133.2243  158.0827 C   0  0  0  0  0  0  0  0  0  0  0  0
  149.6209  133.3214  157.9183 O   0  0  0  0  0  0  0  0  0  0  0  0
  147.8161  133.2564  159.2876 N   0  0  0  0  0  0  0  0  0  0  0  0
  148.4919  133.4893  160.5634 C   0  0  1  0  0  0  0  0  0  0  0  0
  148.0180  134.8169  161.1960 C   0  0  0  0  0  0  0  0  0  0  0  0
  146.5613  134.7401  161.6849 C   0  0  0  0  0  0  0  0  0  0  0  0
  146.3680  133.5702  162.6601 C   0  0  0  0  0  0  0  0  0  0  0  0
  146.8184  132.2401  162.0357 C   0  0  0  0  0  0  0  0  0  0  0  0
  148.2770  132.3037  161.5371 C   0  0  1  0  0  0  0  0  0  0  0  0
  148.7277  130.9571  160.9455 C   0  0  0  0  0  0  0  0  0  0  0  0
  146.4957  132.7156  153.9540 N   0  0  0  0  0  0  0  0  0  0  0  0
  145.8443  132.4133  152.7492 C   0  0  0  0  0  0  0  0  0  0  0  0
  145.6308  131.2442  152.4316 O   0  0  0  0  0  0  0  0  0  0  0  0
  145.4169  133.5382  151.8916 C   0  0  0  0  0  0  0  0  0  0  0  0
  144.6524  133.2240  150.6090 C   0  0  0  0  0  0  0  0  0  0  0  0
  143.3987  132.3788  150.8777 C   0  0  0  0  0  0  0  0  0  0  0  0
  142.6739  132.2033  149.6803 O   0  0  0  0  0  0  0  0  0  0  0  0
  144.2854  136.0938  151.3477 H   0  0  0  0  0  0  0  0  0  0  0  0
  145.8598  136.0623  150.5392 H   0  0  0  0  0  0  0  0  0  0  0  0
  145.6571  136.9552  152.0457 H   0  0  0  0  0  0  0  0  0  0  0  0
  147.7912  132.2193  156.2965 H   0  0  0  0  0  0  0  0  0  0  0  0
  146.4531  132.8980  157.1894 H   0  0  0  0  0  0  0  0  0  0  0  0
  146.8104  133.1690  159.3199 H   0  0  0  0  0  0  0  0  0  0  0  0
  149.5631  133.5680  160.3689 H   0  0  0  0  0  0  0  0  0  0  0  0
  148.6637  135.0584  162.0413 H   0  0  0  0  0  0  0  0  0  0  0  0
  148.1301  135.6397  160.4891 H   0  0  0  0  0  0  0  0  0  0  0  0
  146.2827  135.6760  162.1695 H   0  0  0  0  0  0  0  0  0  0  0  0
  145.8890  134.6249  160.8344 H   0  0  0  0  0  0  0  0  0  0  0  0
  146.9388  133.7568  163.5705 H   0  0  0  0  0  0  0  0  0  0  0  0
  145.3222  133.5058  162.9593 H   0  0  0  0  0  0  0  0  0  0  0  0
  146.7100  131.4405  162.7692 H   0  0  0  0  0  0  0  0  0  0  0  0
  146.1584  131.9845  161.2078 H   0  0  0  0  0  0  0  0  0  0  0  0
  148.9063  132.4896  162.4089 H   0  0  0  0  0  0  0  0  0  0  0  0
  148.1097  130.6609  160.0974 H   0  0  0  0  0  0  0  0  0  0  0  0
  148.6633  130.1634  161.6901 H   0  0  0  0  0  0  0  0  0  0  0  0
  149.7618  131.0043  160.6042 H   0  0  0  0  0  0  0  0  0  0  0  0
  146.6249  135.9855  153.7085 H   0  0  0  0  0  0  0  0  0  0  0  0
  145.3125  132.7077  149.9102 H   0  0  0  0  0  0  0  0  0  0  0  0
  144.3661  134.1468  150.1049 H   0  0  0  0  0  0  0  0  0  0  0  0
  143.6683  131.3985  151.2712 H   0  0  0  0  0  0  0  0  0  0  0  0
  142.7575  132.8623  151.6156 H   0  0  0  0  0  0  0  0  0  0  0  0
  142.0374  132.8983  149.6088 H   0  0  0  0  0  0  0  0  0  0  0  0
  1 24  1  0  0  0  0
  1 25  1  0  0  0  0
  1 26  1  0  0  0  0
  1  2  1  0  0  0  0
  2 20  2  0  0  0  0
  2  3  1  0  0  0  0
  3  4  1  0  0  0  0
  3 43  1  0  0  0  0
  4  5  1  0  0  0  0
  4 17  2  0  0  0  0
  5  6  1  0  0  0  0
  6  7  1  0  0  0  0
  6 27  1  0  0  0  0
  6 28  1  0  0  0  0
  7  8  2  0  0  0  0
  7  9  1  0  0  0  0
  9 10  1  0  0  0  0
  9 29  1  0  0  0  0
 10 15  1  0  0  0  0
 10 11  1  0  0  0  0
 10 30  1  0  0  0  0
 11 12  1  0  0  0  0
 11 31  1  0  0  0  0
 11 32  1  0  0  0  0
 12 13  1  0  0  0  0
 12 33  1  0  0  0  0
 12 34  1  0  0  0  0
 13 14  1  0  0  0  0
 13 35  1  0  0  0  0
 13 36  1  0  0  0  0
 14 15  1  0  0  0  0
 14 37  1  0  0  0  0
 14 38  1  0  0  0  0
 15 16  1  0  0  0  0
 15 39  1  0  0  0  0
 16 40  1  0  0  0  0
 16 41  1  0  0  0  0
 16 42  1  0  0  0  0
 17 18  1  0  0  0  0
 18 19  2  0  0  0  0
 18 20  1  0  0  0  0
 20 21  1  0  0  0  0
 21 22  1  0  0  0  0
 21 44  1  0  0  0  0
 21 45  1  0  0  0  0
 22 23  1  0  0  0  0
 22 46  1  0  0  0  0
 22 47  1  0  0  0  0
 23 48  1  0  0  0  0
M  END
> <s_m_source_file>
AV-unprocessed.smi

> <i_m_source_file_index>
438

> <i_lp_mmshare_version>
43012

> <i_f3d_flags>
0

> <s_epik_input>
W09IXVtDSDJdW0NIMl1jMWMoW09IXSluYyhuYzFbQ0gzXSlTW0NIMl1DKD1PKVtOSF1bQ0BASF0yW0NIMl1bQ0gyXVtDSDJdW0NIMl1bQ0BIXTJbQ0gzXQ==

> <s_epik_cmdline>
J2VwaWtfcHl0aG9uJywgJy1waCcsICc3LjAnLCAnLXRuJywgJzgnLCAnLW1hJywgJzIwMCcsICctbWV0YWxfYmluZGluZycsICctaW1hZScsICc8aW5maWxlLm1hZT4nLCAnLW9tYWUnLCAnPG91dGZpbGUubWFlPic=

> <r_lp_tautomer_probability>
0.273662

> <r_epik_Ionization_Penalty>
0.0875285

> <r_epik_Ionization_Penalty_Charging>
0.0875254

> <r_epik_Ionization_Penalty_Neutral>
3.01536e-06

> <r_epik_State_Penalty>
0.985796

> <r_epik_Charging_Adjusted_Penalty>
1.07332

> <i_epik_Tot_Q>
0

> <i_epik_Tot_abs_Q>
0

> <r_epik_Metal_State_Penalty>
1.58101

> <b_epik_Metal_Only>
0

> <s_lp_Force_Field>
OPLS_2005

> <r_lp_Energy>
13.0189

> <b_lp_Chiralities_Consistent>
1

> <s_lp_Variant>
AV-unprocessed.smi:438-6

> <Gold.Version>
5.8.1

> <Gold.Id.Protein>
6NUR|6NUR_protein|mol2

> <Gold.PLP.Fitness>
43.7033

> <Gold.PLP.PLP>
-36.5733

> <Gold.PLP.part.hbond>
-4.5677

> <Gold.PLP.part.metal>
0.0000

> <Gold.PLP.part.buried>
-6.8503

> <Gold.PLP.part.nonpolar>
-25.8599

> <Gold.PLP.part.repulsive>
0.3153

> <Gold.PLP.ligand.clash>
0.0000

> <Gold.PLP.ligand.torsion>
0.2910

> <Gold.PLP.Chemscore.Hbond>
2.5600

> <Gold.PLP.Chemscore.CHOScore>
0.0000

> <Gold.PLP.Chemscore.Metal>
0.0000

> <Gold.Chemscore.Hbonds>
donor molecule, donor type, donor heavy atom, donor atom, acceptor molecule, acceptor atom, score
      L1  H    23    48       P1 10186  1.00
      P1  H  6896  6907       L1     8  1.00
      P1  H 10785 10796       L1    23  0.26

> <Gold.PLP.Chemscore.Internal.Correction>
0.0320

> <Gold.Rescore>
     Score         DG    S(hbond)    S(metal)    S(lipo)     H(rot)  DE(clash)    DE(int)     intcor
     15.52     -15.90       2.51        0.00      80.22       2.86       0.00       0.38       ----

> <Gold.Chemscore.Fitness>
15.5224

> <Gold.Chemscore.DG>
-15.8993

> <Gold.Chemscore.ZeroCoef>
-5.4800

> <Gold.Chemscore.Hbond>
2.5050

> <Gold.Chemscore.Metal>
0.0000

> <Gold.Chemscore.Lipo>
80.2196

> <Gold.Chemscore.Internal_Hbond>
0.0000

> <Gold.Chemscore.DEClash>
0.0015

> <Gold.Chemscore.DEInternal>
0.3754

> <Gold.Chemscore.Rot>
2.8645

> <Gold.Chemscore.Internal.Correction>
   9.000000E+99

> <Gold.Chemscore.Hbonds>
donor molecule, donor type, donor heavy atom, donor atom, acceptor molecule, acceptor atom, score
      L1  H    23    48       P1 10186  1.00
      P1  H  6896  6907       L1     8  0.99
      P1  H 10785 10796       L1    23  0.20

> <Gold.Chemscore.Hbond.Weighted>
-8.3667

> <Gold.Chemscore.Metal.Weighted>
-0.0000

> <Gold.Chemscore.Lipo.Weighted>
-9.3857

> <Gold.Chemscore.Internal_Hbond.Weighted>
0.0000

> <Gold.Chemscore.DEClash.Weighted>
0.0015

> <Gold.Chemscore.DEInternal.Weighted>
0.3754

> <Gold.Chemscore.Rot.Weighted>
7.3331

> <Gold.Chemscore.Internal.Correction.Weighted>
   9.000000E+99

> <Gold.Protein.RotatedTorsions>
[ 6907 6896 6895 6894 ] final -114.63 input  -60.11 | X-H torsion
[ 7974 7965 7964 7962 ] final  -73.23 input  175.53 | X-H torsion
[ 8008 7997 7996 7995 ] final -170.72 input   59.86 | X-H torsion
[ 10167 10162 10161 10158 ] final    9.77 input  -65.29 | X-H torsion
[ 10718 10713 10712 10709 ] final   -0.32 input   66.30 | X-H torsion
[ 10763 10752 10751 10750 ] final   18.35 input  -60.55 | X-H torsion
[ 11005 11000 10999 10996 ] final   77.41 input  -57.11 | X-H torsion

> <Gold.Protein.ActiveResidues>
 VAL166  LYS551  ARG553  GLY616  TRP617  ASP618  TYR619  PRO620  LYS621  CYS622 
 ASP623  PHE694  ASN695  SER759  ASP760  ASP761  ALA762  ILE779  LEU786  VAL792 
 PHE793  MET794  SER795  GLU796  ALA797  LYS798  CYS799  TRP800  GLU811  SER814 

> <Gold.Protein.RotatedAtoms>
  150.7917  133.8774  159.3275 H   0  0  0  0  0  0  0  0  0  0  0  0  # atno 6907 bound_to 6896
  151.6610  135.0987  160.0189 H   0  0  0  0  0  0  0  0  0  0  0  0  # atno 6908 bound_to 6896
  152.3992  133.6753  159.6337 H   0  0  0  0  0  0  0  0  0  0  0  0  # atno 6909 bound_to 6896
  145.6549  140.9271  143.0965 H   0  0  0  0  0  0  0  0  0  0  0  0  # atno 7974 bound_to 7965
  155.9221  140.1076  157.1198 H   0  0  0  0  0  0  0  0  0  0  0  0  # atno 8008 bound_to 7997
  154.4056  140.1254  156.4758 H   0  0  0  0  0  0  0  0  0  0  0  0  # atno 8009 bound_to 7997
  155.7183  140.3470  155.5007 H   0  0  0  0  0  0  0  0  0  0  0  0  # atno 8010 bound_to 7997
  140.6235  143.8153  150.7204 H   0  0  0  0  0  0  0  0  0  0  0  0  # atno 10167 bound_to 10162
  156.8221  130.5460  149.5696 H   0  0  0  0  0  0  0  0  0  0  0  0  # atno 10718 bound_to 10713
  153.1257  135.6729  153.9261 H   0  0  0  0  0  0  0  0  0  0  0  0  # atno 10763 bound_to 10752
  153.8763  135.3063  155.3445 H   0  0  0  0  0  0  0  0  0  0  0  0  # atno 10764 bound_to 10752
  154.7662  135.4963  153.9640 H   0  0  0  0  0  0  0  0  0  0  0  0  # atno 10765 bound_to 10752
  139.9256  134.7681  156.1519 H   0  0  0  0  0  0  0  0  0  0  0  0  # atno 11005 bound_to 11000
  144.7109  139.8374  143.7415 LP  0  0  0  0  0  0  0  0  0  0  0  0  # atno 17320 bound_to 7965
  146.1173  139.4186  143.0250 LP  0  0  0  0  0  0  0  0  0  0  0  0  # atno 17321 bound_to 7965
  140.1748  143.4164  152.1975 LP  0  0  0  0  0  0  0  0  0  0  0  0  # atno 17342 bound_to 10162
  139.5459  144.7298  151.4585 LP  0  0  0  0  0  0  0  0  0  0  0  0  # atno 17343 bound_to 10162
  156.0983  130.5949  150.9850 LP  0  0  0  0  0  0  0  0  0  0  0  0  # atno 17370 bound_to 10713
  157.6451  131.0905  150.8170 LP  0  0  0  0  0  0  0  0  0  0  0  0  # atno 17371 bound_to 10713
  141.0810  133.6754  156.2336 LP  0  0  0  0  0  0  0  0  0  0  0  0  # atno 17394 bound_to 11000
  140.6347  134.5227  157.5563 LP  0  0  0  0  0  0  0  0  0  0  0  0  # atno 17395 bound_to 11000

$$$$
