AV-unprocessed.smi:1574|AV-procd|sdf|6335|dock3
  -GOLD-   22720 6543D 1   1.00000     0.00000
 Structure written by MMmdl.
 40 41  0  0  0  0  0  0  0  0  1 V2000
  151.2863  142.3116  157.3482 C   0  0  0  0  0  0  0  0  0  0  0  0
  151.2009  143.0291  158.7048 C   0  0  2  0  0  0  0  0  0  0  0  0
  150.9270  144.5338  158.5082 C   0  0  0  0  0  0  0  0  0  0  0  0
  150.8407  145.2779  159.8494 C   0  0  0  0  0  0  0  0  0  0  0  0
  152.1155  145.0677  160.6772 C   0  0  0  0  0  0  0  0  0  0  0  0
  152.3909  143.5729  160.8882 C   0  0  0  0  0  0  0  0  0  0  0  0
  152.4768  142.8102  159.5489 C   0  0  1  0  0  0  0  0  0  0  0  0
  152.5882  141.4199  159.8208 O   0  0  0  0  0  0  0  0  0  0  0  0
  153.9013  140.9884  160.1477 C   0  0  0  0  0  0  0  0  0  0  0  0
  153.8686  139.4767  160.4151 C   0  0  0  0  0  0  0  0  0  0  0  0
  153.4200  138.7415  159.2377 N   0  0  0  0  0  0  0  0  0  0  0  0
  154.2224  138.2388  158.2865 C   0  0  0  0  0  0  0  0  0  0  0  0
  155.4403  138.4129  158.2638 O   0  0  0  0  0  0  0  0  0  0  0  0
  153.5506  137.3966  157.2022 C   0  0  0  0  0  0  0  0  0  0  0  0
  152.6730  138.2098  156.3806 N   0  0  0  0  0  0  0  0  0  0  0  0
  151.3508  138.1690  156.2034 C   0  0  0  0  0  0  0  0  0  0  0  0
  150.9415  139.1003  155.3556 N   0  0  0  0  0  0  0  0  0  0  0  0
  152.1169  139.7408  155.0006 N   0  0  0  0  0  0  0  0  0  0  0  0
  153.1478  139.2157  155.6042 N   0  0  0  0  0  0  0  0  0  0  0  0
  152.1244  142.6807  156.7560 H   0  0  0  0  0  0  0  0  0  0  0  0
  150.3761  142.4622  156.7667 H   0  0  0  0  0  0  0  0  0  0  0  0
  151.4171  141.2368  157.4752 H   0  0  0  0  0  0  0  0  0  0  0  0
  150.3567  142.6058  159.2516 H   0  0  0  0  0  0  0  0  0  0  0  0
  151.7173  144.9758  157.8996 H   0  0  0  0  0  0  0  0  0  0  0  0
  149.9977  144.6746  157.9553 H   0  0  0  0  0  0  0  0  0  0  0  0
  150.6813  146.3423  159.6754 H   0  0  0  0  0  0  0  0  0  0  0  0
  149.9760  144.9225  160.4115 H   0  0  0  0  0  0  0  0  0  0  0  0
  152.9640  145.5289  160.1706 H   0  0  0  0  0  0  0  0  0  0  0  0
  152.0192  145.5669  161.6417 H   0  0  0  0  0  0  0  0  0  0  0  0
  153.3074  143.4535  161.4652 H   0  0  0  0  0  0  0  0  0  0  0  0
  151.5927  143.1438  161.4923 H   0  0  0  0  0  0  0  0  0  0  0  0
  153.3403  143.1561  158.9770 H   0  0  0  0  0  0  0  0  0  0  0  0
  154.5720  141.2131  159.3177 H   0  0  0  0  0  0  0  0  0  0  0  0
  154.2909  141.5112  161.0213 H   0  0  0  0  0  0  0  0  0  0  0  0
  154.8659  139.1252  160.6810 H   0  0  0  0  0  0  0  0  0  0  0  0
  153.2206  139.2543  161.2643 H   0  0  0  0  0  0  0  0  0  0  0  0
  152.4302  138.5523  159.1733 H   0  0  0  0  0  0  0  0  0  0  0  0
  154.3058  136.9350  156.5647 H   0  0  0  0  0  0  0  0  0  0  0  0
  152.9728  136.5893  157.6550 H   0  0  0  0  0  0  0  0  0  0  0  0
  150.6946  137.4628  156.6901 H   0  0  0  0  0  0  0  0  0  0  0  0
  1  2  1  0  0  0  0
  1 20  1  0  0  0  0
  1 21  1  0  0  0  0
  1 22  1  0  0  0  0
  2  7  1  0  0  0  0
  2  3  1  0  0  0  0
  2 23  1  0  0  0  0
  3  4  1  0  0  0  0
  3 24  1  0  0  0  0
  3 25  1  0  0  0  0
  4  5  1  0  0  0  0
  4 26  1  0  0  0  0
  4 27  1  0  0  0  0
  5  6  1  0  0  0  0
  5 28  1  0  0  0  0
  5 29  1  0  0  0  0
  6  7  1  0  0  0  0
  6 30  1  0  0  0  0
  6 31  1  0  0  0  0
  7  8  1  0  0  0  0
  7 32  1  0  0  0  0
  8  9  1  0  0  0  0
  9 10  1  0  0  0  0
  9 33  1  0  0  0  0
  9 34  1  0  0  0  0
 10 11  1  0  0  0  0
 10 35  1  0  0  0  0
 10 36  1  0  0  0  0
 11 12  1  0  0  0  0
 11 37  1  0  0  0  0
 12 13  2  0  0  0  0
 12 14  1  0  0  0  0
 14 15  1  0  0  0  0
 14 38  1  0  0  0  0
 14 39  1  0  0  0  0
 15 19  1  0  0  0  0
 15 16  1  0  0  0  0
 16 17  2  0  0  0  0
 16 40  1  0  0  0  0
 17 18  1  0  0  0  0
 18 19  2  0  0  0  0
M  END
> <s_m_source_file>
AV-unprocessed.smi

> <i_m_source_file_index>
1574

> <i_lp_mmshare_version>
43012

> <i_f3d_flags>
0

> <s_epik_input>
W0NIM11bQ0BASF0xW0NIMl1bQ0gyXVtDSDJdW0NIMl1bQ0BIXTFPW0NIMl1bQ0gyXVtOSF1DKD1PKVtDSDJdbjJbY0hdbm5uMg==

> <s_epik_cmdline>
J2VwaWtfcHl0aG9uJywgJy1waCcsICc3LjAnLCAnLXRuJywgJzgnLCAnLW1hJywgJzIwMCcsICctbWV0YWxfYmluZGluZycsICctaW1hZScsICc8aW5maWxlLm1hZT4nLCAnLW9tYWUnLCAnPG91dGZpbGUubWFlPic=

> <r_lp_tautomer_probability>
1

> <r_epik_Ionization_Penalty>
1.44269e-06

> <r_epik_Ionization_Penalty_Charging>
0

> <r_epik_Ionization_Penalty_Neutral>
1.44269e-06

> <r_epik_State_Penalty>
-0

> <r_epik_Charging_Adjusted_Penalty>
0

> <i_epik_Tot_Q>
0

> <i_epik_Tot_abs_Q>
0

> <r_epik_Metal_State_Penalty>
-0

> <b_epik_Metal_Only>
0

> <s_lp_Force_Field>
OPLS_2005

> <r_lp_Energy>
11.219

> <b_lp_Chiralities_Consistent>
1

> <s_lp_Variant>
AV-unprocessed.smi:1574-1

> <Gold.Version>
5.8.1

> <Gold.Id.Protein>
6NUR|6NUR_protein|mol2

> <Gold.PLP.Fitness>
41.9435

> <Gold.PLP.PLP>
-34.4811

> <Gold.PLP.part.hbond>
-3.0000

> <Gold.PLP.part.metal>
0.0000

> <Gold.PLP.part.buried>
-6.6598

> <Gold.PLP.part.nonpolar>
-24.9904

> <Gold.PLP.part.repulsive>
0.1351

> <Gold.PLP.ligand.clash>
0.0000

> <Gold.PLP.ligand.torsion>
0.4528

> <Gold.PLP.Chemscore.Hbond>
2.7760

> <Gold.PLP.Chemscore.CHOScore>
0.0000

> <Gold.PLP.Chemscore.Metal>
0.0000

> <Gold.Chemscore.Hbonds>
donor molecule, donor type, donor heavy atom, donor atom, acceptor molecule, acceptor atom, score
      P1  H  7989  7998       L1    18  0.83
      P1  H  7997  8008       L1    13  0.93
      P1  H  7997  8009       L1    19  1.00

> <Gold.PLP.Chemscore.Internal.Correction>
0.0400

> <Gold.Rescore>
     Score         DG    S(hbond)    S(metal)    S(lipo)     H(rot)  DE(clash)    DE(int)     intcor
     17.35     -17.91       2.59        0.00      95.82       2.90       0.05       0.51       ----

> <Gold.Chemscore.Fitness>
17.3534

> <Gold.Chemscore.DG>
-17.9132

> <Gold.Chemscore.ZeroCoef>
-5.4800

> <Gold.Chemscore.Hbond>
2.5923

> <Gold.Chemscore.Metal>
0.0000

> <Gold.Chemscore.Lipo>
95.8249

> <Gold.Chemscore.Internal_Hbond>
0.0000

> <Gold.Chemscore.DEClash>
0.0484

> <Gold.Chemscore.DEInternal>
0.5115

> <Gold.Chemscore.Rot>
2.9050

> <Gold.Chemscore.Internal.Correction>
   9.000000E+99

> <Gold.Chemscore.Hbonds>
donor molecule, donor type, donor heavy atom, donor atom, acceptor molecule, acceptor atom, score
      P1  H  7989  7998       L1    18  0.46
      P1  H  7997  8008       L1    13  0.23
      P1  H  7997  8009       L1    19  0.96

> <Gold.Chemscore.Hbond.Weighted>
-8.6584

> <Gold.Chemscore.Metal.Weighted>
-0.0000

> <Gold.Chemscore.Lipo.Weighted>
-11.2115

> <Gold.Chemscore.Internal_Hbond.Weighted>
0.0000

> <Gold.Chemscore.DEClash.Weighted>
0.0484

> <Gold.Chemscore.DEInternal.Weighted>
0.5115

> <Gold.Chemscore.Rot.Weighted>
7.4367

> <Gold.Chemscore.Internal.Correction.Weighted>
   9.000000E+99

> <Gold.Protein.RotatedTorsions>
[ 6907 6896 6895 6894 ] final  135.24 input  -60.11 | X-H torsion
[ 7974 7965 7964 7962 ] final   62.07 input  175.53 | X-H torsion
[ 8008 7997 7996 7995 ] final -143.35 input   59.86 | X-H torsion
[ 10167 10162 10161 10158 ] final   31.13 input  -65.29 | X-H torsion
[ 10718 10713 10712 10709 ] final   50.72 input   66.30 | X-H torsion
[ 10763 10752 10751 10750 ] final  -41.04 input  -60.55 | X-H torsion
[ 11005 11000 10999 10996 ] final  156.83 input  -57.11 | X-H torsion

> <Gold.Protein.ActiveResidues>
 VAL166  LYS551  ARG553  GLY616  TRP617  ASP618  TYR619  PRO620  LYS621  CYS622 
 ASP623  PHE694  ASN695  SER759  ASP760  ASP761  ALA762  ILE779  LEU786  VAL792 
 PHE793  MET794  SER795  GLU796  ALA797  LYS798  CYS799  TRP800  GLU811  SER814 

> <Gold.Protein.RotatedAtoms>
  152.3026  133.5670  159.5627 H   0  0  0  0  0  0  0  0  0  0  0  0  # atno 6907 bound_to 6896
  150.7284  134.0270  159.3729 H   0  0  0  0  0  0  0  0  0  0  0  0  # atno 6908 bound_to 6896
  151.8168  135.0664  160.0471 H   0  0  0  0  0  0  0  0  0  0  0  0  # atno 6909 bound_to 6896
  145.8775  139.3420  143.0726 H   0  0  0  0  0  0  0  0  0  0  0  0  # atno 7974 bound_to 7965
  155.5091  140.0582  157.2926 H   0  0  0  0  0  0  0  0  0  0  0  0  # atno 8008 bound_to 7997
  154.4558  140.1972  156.0332 H   0  0  0  0  0  0  0  0  0  0  0  0  # atno 8009 bound_to 7997
  156.0796  140.3249  155.7682 H   0  0  0  0  0  0  0  0  0  0  0  0  # atno 8010 bound_to 7997
  140.4616  144.0897  150.6214 H   0  0  0  0  0  0  0  0  0  0  0  0  # atno 10167 bound_to 10162
  157.4912  130.8377  149.8205 H   0  0  0  0  0  0  0  0  0  0  0  0  # atno 10718 bound_to 10713
  153.9559  135.6745  153.4744 H   0  0  0  0  0  0  0  0  0  0  0  0  # atno 10763 bound_to 10752
  153.0861  135.4898  154.8597 H   0  0  0  0  0  0  0  0  0  0  0  0  # atno 10764 bound_to 10752
  154.7299  135.3136  154.8868 H   0  0  0  0  0  0  0  0  0  0  0  0  # atno 10765 bound_to 10752
  140.1712  134.8541  157.2693 H   0  0  0  0  0  0  0  0  0  0  0  0  # atno 11005 bound_to 11000
  145.9063  140.9209  143.0477 LP  0  0  0  0  0  0  0  0  0  0  0  0  # atno 17320 bound_to 7965
  144.6726  140.1100  143.7456 LP  0  0  0  0  0  0  0  0  0  0  0  0  # atno 17321 bound_to 7965
  140.4086  143.2668  151.9860 LP  0  0  0  0  0  0  0  0  0  0  0  0  # atno 17342 bound_to 10162
  139.4807  144.5935  151.7730 LP  0  0  0  0  0  0  0  0  0  0  0  0  # atno 17343 bound_to 10162
  156.0174  130.3808  150.2066 LP  0  0  0  0  0  0  0  0  0  0  0  0  # atno 17370 bound_to 10713
  157.0255  130.9992  151.3327 LP  0  0  0  0  0  0  0  0  0  0  0  0  # atno 17371 bound_to 10713
  140.2375  134.3835  155.7495 LP  0  0  0  0  0  0  0  0  0  0  0  0  # atno 17394 bound_to 11000
  141.2217  133.7247  156.8737 LP  0  0  0  0  0  0  0  0  0  0  0  0  # atno 17395 bound_to 11000

$$$$
