AV-unprocessed.smi:1941|AV-procd|sdf|7845|dock9
  -GOLD-   22720 9593D 1   1.00000     0.00000
 Structure written by MMmdl.
 40 41  0  0  0  0  0  0  0  0  1 V2000
  151.1139  129.0502  156.3749 C   0  0  0  0  0  0  0  0  0  0  0  0
  150.2853  129.8246  155.4086 C   0  0  0  0  0  0  0  0  0  0  0  0
  150.0194  131.1267  155.5407 N   0  0  0  0  0  0  0  0  0  0  0  0
  149.2193  131.6210  154.5058 C   0  0  0  0  0  0  0  0  0  0  0  0
  148.8207  133.0656  154.4936 C   0  0  0  0  0  0  0  0  0  0  0  0
  149.9003  133.9727  155.1065 C   0  0  0  0  0  0  0  0  0  0  0  0
  149.9642  135.2622  154.4283 N   0  0  0  0  0  0  0  0  0  0  0  0
  150.7325  136.2922  154.8085 C   0  0  0  0  0  0  0  0  0  0  0  0
  151.4949  136.2627  155.7747 O   0  0  0  0  0  0  0  0  0  0  0  0
  150.5646  137.3555  154.0093 N   0  0  0  0  0  0  0  0  0  0  0  0
  151.2388  138.6455  154.1461 C   0  0  2  0  0  0  0  0  0  0  0  0
  152.7055  138.4044  154.5311 C   0  0  0  0  0  0  0  0  0  0  0  0
  150.5069  139.5173  155.1849 C   0  0  2  0  0  0  0  0  0  0  0  0
  149.1186  139.9968  154.7585 C   0  0  0  0  0  0  0  0  0  0  0  0
  148.9049  141.2495  155.5929 C   0  0  0  0  0  0  0  0  0  0  0  0
  150.3100  141.6201  156.0773 C   0  0  0  0  0  0  0  0  0  0  0  0
  151.1898  140.7449  155.3849 O   0  0  0  0  0  0  0  0  0  0  0  0
  148.8844  130.6661  153.5781 C   0  0  0  0  0  0  0  0  0  0  0  0
  149.5617  129.1103  153.9729 S   0  0  0  0  0  0  0  0  0  0  0  0
  151.2508  129.6123  157.2995 H   0  0  0  0  0  0  0  0  0  0  0  0
  152.0928  128.8429  155.9427 H   0  0  0  0  0  0  0  0  0  0  0  0
  150.6264  128.1043  156.6110 H   0  0  0  0  0  0  0  0  0  0  0  0
  148.6182  133.3848  153.4705 H   0  0  0  0  0  0  0  0  0  0  0  0
  147.8826  133.1914  155.0356 H   0  0  0  0  0  0  0  0  0  0  0  0
  149.7207  134.1178  156.1734 H   0  0  0  0  0  0  0  0  0  0  0  0
  150.8773  133.4966  155.0184 H   0  0  0  0  0  0  0  0  0  0  0  0
  149.3735  135.3811  153.6184 H   0  0  0  0  0  0  0  0  0  0  0  0
  149.9143  137.2690  153.2423 H   0  0  0  0  0  0  0  0  0  0  0  0
  151.2316  139.1762  153.1924 H   0  0  0  0  0  0  0  0  0  0  0  0
  153.2475  139.3458  154.6233 H   0  0  0  0  0  0  0  0  0  0  0  0
  153.2158  137.8064  153.7753 H   0  0  0  0  0  0  0  0  0  0  0  0
  152.7866  137.8795  155.4834 H   0  0  0  0  0  0  0  0  0  0  0  0
  150.4381  138.9932  156.1403 H   0  0  0  0  0  0  0  0  0  0  0  0
  149.1216  140.2597  153.6997 H   0  0  0  0  0  0  0  0  0  0  0  0
  148.3446  139.2451  154.9155 H   0  0  0  0  0  0  0  0  0  0  0  0
  148.4567  142.0452  154.9971 H   0  0  0  0  0  0  0  0  0  0  0  0
  148.2486  141.0539  156.4415 H   0  0  0  0  0  0  0  0  0  0  0  0
  150.5601  142.6623  155.8773 H   0  0  0  0  0  0  0  0  0  0  0  0
  150.4040  141.4482  157.1503 H   0  0  0  0  0  0  0  0  0  0  0  0
  148.2823  130.7827  152.6892 H   0  0  0  0  0  0  0  0  0  0  0  0
  1  2  1  0  0  0  0
  1 20  1  0  0  0  0
  1 21  1  0  0  0  0
  1 22  1  0  0  0  0
  2 19  1  0  0  0  0
  2  3  2  0  0  0  0
  3  4  1  0  0  0  0
  4  5  1  0  0  0  0
  4 18  2  0  0  0  0
  5  6  1  0  0  0  0
  5 23  1  0  0  0  0
  5 24  1  0  0  0  0
  6  7  1  0  0  0  0
  6 25  1  0  0  0  0
  6 26  1  0  0  0  0
  7  8  1  0  0  0  0
  7 27  1  0  0  0  0
  8  9  2  0  0  0  0
  8 10  1  0  0  0  0
 10 11  1  0  0  0  0
 10 28  1  0  0  0  0
 11 12  1  0  0  0  0
 11 13  1  0  0  0  0
 11 29  1  0  0  0  0
 12 30  1  0  0  0  0
 12 31  1  0  0  0  0
 12 32  1  0  0  0  0
 13 17  1  0  0  0  0
 13 14  1  0  0  0  0
 13 33  1  0  0  0  0
 14 15  1  0  0  0  0
 14 34  1  0  0  0  0
 14 35  1  0  0  0  0
 15 16  1  0  0  0  0
 15 36  1  0  0  0  0
 15 37  1  0  0  0  0
 16 17  1  0  0  0  0
 16 38  1  0  0  0  0
 16 39  1  0  0  0  0
 18 19  1  0  0  0  0
 18 40  1  0  0  0  0
M  END
> <s_m_source_file>
AV-unprocessed.smi

> <i_m_source_file_index>
1941

> <i_lp_mmshare_version>
43012

> <i_f3d_flags>
0

> <s_epik_input>
W0NIM11jMW5jKFtjSF1zMSlbQ0gyXVtDSDJdW05IXUMoPU8pW05IXVtDQEhdKFtDSDNdKVtDQEBIXTJbQ0gyXVtDSDJdW0NIMl1PMg==

> <s_epik_cmdline>
J2VwaWtfcHl0aG9uJywgJy1waCcsICc3LjAnLCAnLXRuJywgJzgnLCAnLW1hJywgJzIwMCcsICctbWV0YWxfYmluZGluZycsICctaW1hZScsICc8aW5maWxlLm1hZT4nLCAnLW9tYWUnLCAnPG91dGZpbGUubWFlPic=

> <r_epik_Ionization_Penalty>
0.00195486

> <r_epik_Ionization_Penalty_Charging>
0

> <r_epik_Ionization_Penalty_Neutral>
0.00195486

> <r_epik_State_Penalty>
0.00129472

> <r_epik_Charging_Adjusted_Penalty>
0.00129472

> <i_epik_Tot_Q>
0

> <i_epik_Tot_abs_Q>
0

> <r_epik_Metal_State_Penalty>
-0

> <b_epik_Metal_Only>
0

> <s_lp_Force_Field>
OPLS_2005

> <r_lp_Energy>
10.4909

> <b_lp_Chiralities_Consistent>
1

> <s_lp_Variant>
AV-unprocessed.smi:1941-1

> <Gold.Version>
5.8.1

> <Gold.Id.Protein>
6NUR|6NUR_protein|mol2

> <Gold.PLP.Fitness>
45.1342

> <Gold.PLP.PLP>
-33.6444

> <Gold.PLP.part.hbond>
-5.4432

> <Gold.PLP.part.metal>
0.0000

> <Gold.PLP.part.buried>
-2.6358

> <Gold.PLP.part.nonpolar>
-25.5120

> <Gold.PLP.part.repulsive>
0.2304

> <Gold.PLP.ligand.clash>
0.0000

> <Gold.PLP.ligand.torsion>
0.9721

> <Gold.PLP.Chemscore.Hbond>
3.5200

> <Gold.PLP.Chemscore.CHOScore>
0.9425

> <Gold.PLP.Chemscore.Metal>
0.0000

> <Gold.Chemscore.Hbonds>
donor molecule, donor type, donor heavy atom, donor atom, acceptor molecule, acceptor atom, score
      L1  H     7    27       P1  7948  1.00
      L1  H    10    28       P1  7948  1.00
      P1  H  7989  7998       L1    17  0.51
      P1  H 10752 10764       L1     9  0.90
      L1  C    18    40       P1 10747  0.97

> <Gold.PLP.Chemscore.Internal.Correction>
0.0466

> <Gold.Rescore>
     Score         DG    S(hbond)    S(metal)    S(lipo)     H(rot)  DE(clash)    DE(int)     intcor
     13.37     -16.16       2.10        0.00      68.46       1.69       0.94       1.85       ----

> <Gold.Chemscore.Fitness>
13.3672

> <Gold.Chemscore.DG>
-16.1577

> <Gold.Chemscore.ZeroCoef>
-5.4800

> <Gold.Chemscore.Hbond>
2.0958

> <Gold.Chemscore.Metal>
0.0000

> <Gold.Chemscore.Lipo>
68.4617

> <Gold.Chemscore.Internal_Hbond>
0.0000

> <Gold.Chemscore.DEClash>
0.9421

> <Gold.Chemscore.DEInternal>
1.8485

> <Gold.Chemscore.Rot>
1.6923

> <Gold.Chemscore.Internal.Correction>
   9.000000E+99

> <Gold.Chemscore.Hbonds>
donor molecule, donor type, donor heavy atom, donor atom, acceptor molecule, acceptor atom, score
      L1  H     7    27       P1  7948  0.24
      L1  H    10    28       P1  7948  0.33
      P1  H  7989  7998       L1    17  0.04
      P1  H 10752 10764       L1     9  0.18

> <Gold.Chemscore.Hbond.Weighted>
-7.0000

> <Gold.Chemscore.Metal.Weighted>
-0.0000

> <Gold.Chemscore.Lipo.Weighted>
-8.0100

> <Gold.Chemscore.Internal_Hbond.Weighted>
0.0000

> <Gold.Chemscore.DEClash.Weighted>
0.9421

> <Gold.Chemscore.DEInternal.Weighted>
1.8485

> <Gold.Chemscore.Rot.Weighted>
4.3323

> <Gold.Chemscore.Internal.Correction.Weighted>
   9.000000E+99

> <Gold.Protein.RotatedTorsions>
[ 6907 6896 6895 6894 ] final  158.83 input  -60.11 | X-H torsion
[ 7974 7965 7964 7962 ] final   35.64 input  175.53 | X-H torsion
[ 8008 7997 7996 7995 ] final   30.51 input   59.86 | X-H torsion
[ 10167 10162 10161 10158 ] final -103.45 input  -65.29 | X-H torsion
[ 10718 10713 10712 10709 ] final  -84.12 input   66.30 | X-H torsion
[ 10763 10752 10751 10750 ] final  -41.76 input  -60.55 | X-H torsion
[ 11005 11000 10999 10996 ] final  -71.42 input  -57.11 | X-H torsion

> <Gold.Protein.ActiveResidues>
 VAL166  LYS551  ARG553  GLY616  TRP617  ASP618  TYR619  PRO620  LYS621  CYS622 
 ASP623  PHE694  ASN695  SER759  ASP760  ASP761  ALA762  ILE779  LEU786  VAL792 
 PHE793  MET794  SER795  GLU796  ALA797  LYS798  CYS799  TRP800  GLU811  SER814 

> <Gold.Protein.RotatedAtoms>
  151.9945  133.3803  159.4157 H   0  0  0  0  0  0  0  0  0  0  0  0  # atno 6907 bound_to 6896
  150.6917  134.3900  159.5081 H   0  0  0  0  0  0  0  0  0  0  0  0  # atno 6908 bound_to 6896
  152.1639  134.8889  160.0590 H   0  0  0  0  0  0  0  0  0  0  0  0  # atno 6909 bound_to 6896
  146.1268  139.6117  142.9253 H   0  0  0  0  0  0  0  0  0  0  0  0  # atno 7974 bound_to 7965
  155.0915  140.3220  155.4572 H   0  0  0  0  0  0  0  0  0  0  0  0  # atno 8008 bound_to 7997
  156.2741  140.2077  156.5989 H   0  0  0  0  0  0  0  0  0  0  0  0  # atno 8009 bound_to 7997
  154.6899  140.0517  157.0340 H   0  0  0  0  0  0  0  0  0  0  0  0  # atno 8010 bound_to 7997
  140.2199  143.3684  152.0979 H   0  0  0  0  0  0  0  0  0  0  0  0  # atno 10167 bound_to 10162
  156.0010  130.4687  150.4361 H   0  0  0  0  0  0  0  0  0  0  0  0  # atno 10718 bound_to 10713
  153.9679  135.6732  153.4746 H   0  0  0  0  0  0  0  0  0  0  0  0  # atno 10763 bound_to 10752
  153.0807  135.4925  154.8493 H   0  0  0  0  0  0  0  0  0  0  0  0  # atno 10764 bound_to 10752
  154.7236  135.3122  154.8968 H   0  0  0  0  0  0  0  0  0  0  0  0  # atno 10765 bound_to 10752
  141.1592  133.6817  156.6903 H   0  0  0  0  0  0  0  0  0  0  0  0  # atno 11005 bound_to 11000
  145.5347  141.0425  143.2363 LP  0  0  0  0  0  0  0  0  0  0  0  0  # atno 17320 bound_to 7965
  144.7650  139.6866  143.7218 LP  0  0  0  0  0  0  0  0  0  0  0  0  # atno 17321 bound_to 7965
  139.5148  144.6953  151.5646 LP  0  0  0  0  0  0  0  0  0  0  0  0  # atno 17342 bound_to 10162
  140.6263  143.9163  150.6567 LP  0  0  0  0  0  0  0  0  0  0  0  0  # atno 17343 bound_to 10162
  157.2406  131.0524  151.2439 LP  0  0  0  0  0  0  0  0  0  0  0  0  # atno 17370 bound_to 10713
  157.3624  130.7138  149.6510 LP  0  0  0  0  0  0  0  0  0  0  0  0  # atno 17371 bound_to 10713
  140.3035  134.8144  157.4118 LP  0  0  0  0  0  0  0  0  0  0  0  0  # atno 17394 bound_to 11000
  140.1241  134.5181  155.8159 LP  0  0  0  0  0  0  0  0  0  0  0  0  # atno 17395 bound_to 11000

$$$$
