AV-unprocessed.smi:2477|AV-procd|sdf|9762|dock2
  -GOLD-   2272013403D 1   1.00000     0.00000
 Structure written by MMmdl.
 51 53  0  0  0  0  0  0  0  0  1 V2000
  152.7795  142.5689  161.7771 C   0  0  0  0  0  0  0  0  0  0  0  0
  152.2216  143.4142  160.7183 N   0  0  0  0  0  0  0  0  0  0  0  0
  152.1443  144.7957  160.9620 C   0  0  0  0  0  0  0  0  0  0  0  0
  151.6506  145.6441  160.0494 C   0  0  0  0  0  0  0  0  0  0  0  0
  151.1932  145.1078  158.7901 C   0  0  0  0  0  0  0  0  0  0  0  0
  151.2504  143.7758  158.5372 C   0  0  0  0  0  0  0  0  0  0  0  0
  150.8360  143.1683  157.3390 N   0  0  0  0  0  0  0  0  0  0  0  0
  149.7257  142.4540  157.0804 C   0  0  0  0  0  0  0  0  0  0  0  0
  148.8326  142.1911  157.8851 O   0  0  0  0  0  0  0  0  0  0  0  0
  149.7273  142.0171  155.8126 N   0  0  0  0  0  0  0  0  0  0  0  0
  148.7214  141.1419  155.2151 C   0  0  1  0  0  0  0  0  0  0  0  0
  147.9331  141.9363  154.1557 C   0  0  0  0  0  0  0  0  0  0  0  0
  146.8996  141.0549  153.4371 C   0  0  0  0  0  0  0  0  0  0  0  0
  147.5627  139.8184  152.8127 C   0  0  0  0  0  0  0  0  0  0  0  0
  148.3408  139.0196  153.8685 C   0  0  0  0  0  0  0  0  0  0  0  0
  149.3853  139.8953  154.5829 C   0  0  2  0  0  0  0  0  0  0  0  0
  149.9748  139.0952  155.6019 O   0  0  0  0  0  0  0  0  0  0  0  0
  150.6229  137.9149  155.1404 C   0  0  0  0  0  0  0  0  0  0  0  0
  151.5362  137.3453  156.2295 C   0  0  0  0  0  0  0  0  0  0  0  0
  152.7858  138.2290  156.1892 C   0  0  0  0  0  0  0  0  0  0  0  0
  152.8747  138.7755  154.7556 C   0  0  0  0  0  0  0  0  0  0  0  0
  151.6015  138.3126  154.0347 C   0  0  0  0  0  0  0  0  0  0  0  0
  151.7972  142.8500  159.5484 C   0  0  0  0  0  0  0  0  0  0  0  0
  151.8733  141.6327  159.3633 O   0  0  0  0  0  0  0  0  0  0  0  0
  153.1107  143.1417  162.6438 H   0  0  0  0  0  0  0  0  0  0  0  0
  153.6422  142.0114  161.4096 H   0  0  0  0  0  0  0  0  0  0  0  0
  152.0345  141.8522  162.1255 H   0  0  0  0  0  0  0  0  0  0  0  0
  152.5068  145.1193  161.9267 H   0  0  0  0  0  0  0  0  0  0  0  0
  151.5964  146.7037  160.2513 H   0  0  0  0  0  0  0  0  0  0  0  0
  150.8233  145.8124  158.0636 H   0  0  0  0  0  0  0  0  0  0  0  0
  151.5001  143.2467  156.5824 H   0  0  0  0  0  0  0  0  0  0  0  0
  150.5036  142.2798  155.2232 H   0  0  0  0  0  0  0  0  0  0  0  0
  148.0144  140.8143  155.9802 H   0  0  0  0  0  0  0  0  0  0  0  0
  147.4291  142.7831  154.6230 H   0  0  0  0  0  0  0  0  0  0  0  0
  148.6211  142.3554  153.4195 H   0  0  0  0  0  0  0  0  0  0  0  0
  146.1324  140.7404  154.1458 H   0  0  0  0  0  0  0  0  0  0  0  0
  146.3901  141.6329  152.6656 H   0  0  0  0  0  0  0  0  0  0  0  0
  146.8058  139.1847  152.3497 H   0  0  0  0  0  0  0  0  0  0  0  0
  148.2391  140.1274  152.0148 H   0  0  0  0  0  0  0  0  0  0  0  0
  147.6427  138.6112  154.6007 H   0  0  0  0  0  0  0  0  0  0  0  0
  148.8300  138.1652  153.4000 H   0  0  0  0  0  0  0  0  0  0  0  0
  150.1257  140.2128  153.8454 H   0  0  0  0  0  0  0  0  0  0  0  0
  149.8982  137.1854  154.7758 H   0  0  0  0  0  0  0  0  0  0  0  0
  151.0724  137.3176  157.2157 H   0  0  0  0  0  0  0  0  0  0  0  0
  151.8100  136.3220  155.9693 H   0  0  0  0  0  0  0  0  0  0  0  0
  152.6699  139.0582  156.8882 H   0  0  0  0  0  0  0  0  0  0  0  0
  153.6816  137.6795  156.4797 H   0  0  0  0  0  0  0  0  0  0  0  0
  152.9281  139.8648  154.7756 H   0  0  0  0  0  0  0  0  0  0  0  0
  153.7657  138.4141  154.2412 H   0  0  0  0  0  0  0  0  0  0  0  0
  151.8311  137.4355  153.4284 H   0  0  0  0  0  0  0  0  0  0  0  0
  151.1949  139.0717  153.3654 H   0  0  0  0  0  0  0  0  0  0  0  0
  1  2  1  0  0  0  0
  1 25  1  0  0  0  0
  1 26  1  0  0  0  0
  1 27  1  0  0  0  0
  2 23  1  0  0  0  0
  2  3  1  0  0  0  0
  3  4  2  0  0  0  0
  3 28  1  0  0  0  0
  4  5  1  0  0  0  0
  4 29  1  0  0  0  0
  5  6  2  0  0  0  0
  5 30  1  0  0  0  0
  6  7  1  0  0  0  0
  6 23  1  0  0  0  0
  7  8  1  0  0  0  0
  7 31  1  0  0  0  0
  8  9  2  0  0  0  0
  8 10  1  0  0  0  0
 10 11  1  0  0  0  0
 10 32  1  0  0  0  0
 11 16  1  0  0  0  0
 11 12  1  0  0  0  0
 11 33  1  0  0  0  0
 12 13  1  0  0  0  0
 12 34  1  0  0  0  0
 12 35  1  0  0  0  0
 13 14  1  0  0  0  0
 13 36  1  0  0  0  0
 13 37  1  0  0  0  0
 14 15  1  0  0  0  0
 14 38  1  0  0  0  0
 14 39  1  0  0  0  0
 15 16  1  0  0  0  0
 15 40  1  0  0  0  0
 15 41  1  0  0  0  0
 16 17  1  0  0  0  0
 16 42  1  0  0  0  0
 17 18  1  0  0  0  0
 18 22  1  0  0  0  0
 18 19  1  0  0  0  0
 18 43  1  0  0  0  0
 19 20  1  0  0  0  0
 19 44  1  0  0  0  0
 19 45  1  0  0  0  0
 20 21  1  0  0  0  0
 20 46  1  0  0  0  0
 20 47  1  0  0  0  0
 21 22  1  0  0  0  0
 21 48  1  0  0  0  0
 21 49  1  0  0  0  0
 22 50  1  0  0  0  0
 22 51  1  0  0  0  0
 23 24  2  0  0  0  0
M  END
> <s_m_source_file>
AV-unprocessed.smi

> <i_m_source_file_index>
2477

> <i_lp_mmshare_version>
43012

> <i_f3d_flags>
0

> <s_epik_input>
W0NIM11uMVtjSF1bY0hdW2NIXWMoYzE9TylbTkhdQyg9TylbTkhdW0NAQEhdMltDSDJdW0NIMl1bQ0gyXVtDSDJdW0NASF0yT1tDSF0zW0NIMl1bQ0gyXVtDSDJdW0NIMl0z

> <s_epik_cmdline>
J2VwaWtfcHl0aG9uJywgJy1waCcsICc3LjAnLCAnLXRuJywgJzgnLCAnLW1hJywgJzIwMCcsICctbWV0YWxfYmluZGluZycsICctaW1hZScsICc8aW5maWxlLm1hZT4nLCAnLW9tYWUnLCAnPG91dGZpbGUubWFlPic=

> <r_lp_tautomer_probability>
1

> <r_epik_Ionization_Penalty>
2.40753e-05

> <r_epik_Ionization_Penalty_Charging>
4.84018e-06

> <r_epik_Ionization_Penalty_Neutral>
1.92352e-05

> <r_epik_State_Penalty>
-0

> <r_epik_Charging_Adjusted_Penalty>
4.84018e-06

> <i_epik_Tot_Q>
0

> <i_epik_Tot_abs_Q>
0

> <r_epik_Metal_State_Penalty>
-0

> <b_epik_Metal_Only>
0

> <s_lp_Force_Field>
OPLS_2005

> <r_lp_Energy>
41.4138

> <b_lp_Chiralities_Consistent>
1

> <s_lp_Variant>
AV-unprocessed.smi:2477-4

> <Gold.Version>
5.8.1

> <Gold.Id.Protein>
6NUR|6NUR_protein|mol2

> <Gold.PLP.Fitness>
47.4448

> <Gold.PLP.PLP>
-49.0013

> <Gold.PLP.part.hbond>
-1.8758

> <Gold.PLP.part.metal>
0.0000

> <Gold.PLP.part.buried>
-1.7074

> <Gold.PLP.part.nonpolar>
-45.9627

> <Gold.PLP.part.repulsive>
0.3025

> <Gold.PLP.ligand.clash>
0.0000

> <Gold.PLP.ligand.torsion>
0.8262

> <Gold.PLP.Chemscore.Hbond>
0.0000

> <Gold.PLP.Chemscore.CHOScore>
0.0000

> <Gold.PLP.Chemscore.Metal>
0.0000

> <Gold.PLP.Chemscore.Internal.Correction>
0.0959

> <Gold.Rescore>
     Score         DG    S(hbond)    S(metal)    S(lipo)     H(rot)  DE(clash)    DE(int)     intcor
     15.28     -16.54       0.00        0.00     124.19       1.36       0.47       0.79       ----

> <Gold.Chemscore.Fitness>
15.2768

> <Gold.Chemscore.DG>
-16.5373

> <Gold.Chemscore.ZeroCoef>
-5.4800

> <Gold.Chemscore.Hbond>
0.0000

> <Gold.Chemscore.Metal>
0.0000

> <Gold.Chemscore.Lipo>
124.1852

> <Gold.Chemscore.Internal_Hbond>
0.0000

> <Gold.Chemscore.DEClash>
0.4746

> <Gold.Chemscore.DEInternal>
0.7859

> <Gold.Chemscore.Rot>
1.3564

> <Gold.Chemscore.Internal.Correction>
   9.000000E+99

> <Gold.Chemscore.Hbond.Weighted>
-0.0000

> <Gold.Chemscore.Metal.Weighted>
-0.0000

> <Gold.Chemscore.Lipo.Weighted>
-14.5297

> <Gold.Chemscore.Internal_Hbond.Weighted>
0.0000

> <Gold.Chemscore.DEClash.Weighted>
0.4746

> <Gold.Chemscore.DEInternal.Weighted>
0.7859

> <Gold.Chemscore.Rot.Weighted>
3.4724

> <Gold.Chemscore.Internal.Correction.Weighted>
   9.000000E+99

> <Gold.Protein.RotatedTorsions>
[ 6907 6896 6895 6894 ] final   59.18 input  -60.11 | X-H torsion
[ 7974 7965 7964 7962 ] final -119.71 input  175.53 | X-H torsion
[ 8008 7997 7996 7995 ] final  108.86 input   59.86 | X-H torsion
[ 10167 10162 10161 10158 ] final -106.99 input  -65.29 | X-H torsion
[ 10718 10713 10712 10709 ] final  155.07 input   66.30 | X-H torsion
[ 10763 10752 10751 10750 ] final -157.76 input  -60.55 | X-H torsion
[ 11005 11000 10999 10996 ] final   50.56 input  -57.11 | X-H torsion

> <Gold.Protein.ActiveResidues>
 VAL166  LYS551  ARG553  GLY616  TRP617  ASP618  TYR619  PRO620  LYS621  CYS622 
 ASP623  PHE694  ASN695  SER759  ASP760  ASP761  ALA762  ILE779  LEU786  VAL792 
 PHE793  MET794  SER795  GLU796  ALA797  LYS798  CYS799  TRP800  GLU811  SER814 

> <Gold.Protein.RotatedAtoms>
  152.3892  134.6469  160.0113 H   0  0  0  0  0  0  0  0  0  0  0  0  # atno 6907 bound_to 6896
  151.6708  133.3308  159.3204 H   0  0  0  0  0  0  0  0  0  0  0  0  # atno 6908 bound_to 6896
  150.7811  134.6801  159.6484 H   0  0  0  0  0  0  0  0  0  0  0  0  # atno 6909 bound_to 6896
  145.0594  140.8279  143.4161 H   0  0  0  0  0  0  0  0  0  0  0  0  # atno 7974 bound_to 7965
  156.1935  140.3068  155.9380 H   0  0  0  0  0  0  0  0  0  0  0  0  # atno 8008 bound_to 7997
  155.3119  140.0451  157.3052 H   0  0  0  0  0  0  0  0  0  0  0  0  # atno 8009 bound_to 7997
  154.5481  140.2283  155.8539 H   0  0  0  0  0  0  0  0  0  0  0  0  # atno 8010 bound_to 7997
  140.1817  143.3961  152.1276 H   0  0  0  0  0  0  0  0  0  0  0  0  # atno 10167 bound_to 10162
  157.2232  131.0723  151.1899 H   0  0  0  0  0  0  0  0  0  0  0  0  # atno 10718 bound_to 10713
  154.7611  135.3118  154.8377 H   0  0  0  0  0  0  0  0  0  0  0  0  # atno 10763 bound_to 10752
  153.9137  135.6803  153.4754 H   0  0  0  0  0  0  0  0  0  0  0  0  # atno 10764 bound_to 10752
  153.1212  135.4822  154.9129 H   0  0  0  0  0  0  0  0  0  0  0  0  # atno 10765 bound_to 10752
  140.1007  134.5085  155.8765 H   0  0  0  0  0  0  0  0  0  0  0  0  # atno 11005 bound_to 11000
  145.1427  139.2562  143.5482 LP  0  0  0  0  0  0  0  0  0  0  0  0  # atno 17320 bound_to 7965
  146.3523  140.1109  142.8604 LP  0  0  0  0  0  0  0  0  0  0  0  0  # atno 17321 bound_to 7965
  139.5293  144.7140  151.5114 LP  0  0  0  0  0  0  0  0  0  0  0  0  # atno 17342 bound_to 10162
  140.6515  143.8687  150.6790 LP  0  0  0  0  0  0  0  0  0  0  0  0  # atno 17343 bound_to 10162
  157.3554  130.7104  149.6467 LP  0  0  0  0  0  0  0  0  0  0  0  0  # atno 17370 bound_to 10713
  155.9680  130.4240  150.4590 LP  0  0  0  0  0  0  0  0  0  0  0  0  # atno 17371 bound_to 10713
  141.2105  133.6695  156.6511 LP  0  0  0  0  0  0  0  0  0  0  0  0  # atno 17394 bound_to 11000
  140.3224  134.7996  157.4263 LP  0  0  0  0  0  0  0  0  0  0  0  0  # atno 17395 bound_to 11000

$$$$
