AV-unprocessed.smi:374|AV-procd|sdf|2452|dock6
  -GOLD-   2262022393D 1   1.00000     0.00000
 Structure written by MMmdl.
 37 38  0  0  0  0  0  0  0  0  1 V2000
  151.9193  137.8372  154.9646 C   0  0  0  0  0  0  0  0  0  0  0  0
  151.3257  139.1546  155.5044 C   0  0  1  0  0  0  0  0  0  0  0  0
  151.7248  139.4200  156.9637 C   0  0  0  0  0  0  0  0  0  0  0  0
  152.6413  138.7851  157.4867 O   0  0  0  0  0  0  0  0  0  0  0  0
  151.0236  140.3659  157.6098 N   0  0  0  0  0  0  0  0  0  0  0  0
  151.2444  140.7928  158.9886 C   0  0  0  0  0  0  0  0  0  0  0  0
  151.4961  142.3110  159.1075 C   0  0  0  0  0  0  0  0  0  0  0  0
  152.5334  142.7680  158.0606 C   0  0  0  0  0  0  0  0  0  0  0  0
  152.8069  144.2784  158.1413 C   0  0  0  0  0  0  0  0  0  0  0  0
  153.2540  144.6873  159.5522 C   0  0  0  0  0  0  0  0  0  0  0  0
  152.2231  144.2505  160.6028 C   0  0  0  0  0  0  0  0  0  0  0  0
  151.9471  142.7402  160.5223 C   0  0  0  0  0  0  0  0  0  0  0  0
  151.6717  140.3026  154.6749 N   0  0  0  0  0  0  0  0  0  0  0  0
  152.2238  140.3450  153.4604 C   0  0  0  0  0  0  0  0  0  0  0  0
  152.3555  141.5694  152.9699 N   0  0  0  0  0  0  0  0  0  0  0  0
  151.8130  142.2861  153.9985 C   0  0  0  0  0  0  0  0  0  0  0  0
  151.3781  141.5760  155.0392 N   0  0  0  0  0  0  0  0  0  0  0  0
  151.5970  136.9871  155.5668 H   0  0  0  0  0  0  0  0  0  0  0  0
  153.0101  137.8460  154.9660 H   0  0  0  0  0  0  0  0  0  0  0  0
  151.5919  137.6540  153.9408 H   0  0  0  0  0  0  0  0  0  0  0  0
  150.2393  139.0539  155.4702 H   0  0  0  0  0  0  0  0  0  0  0  0
  150.2852  140.8336  157.1045 H   0  0  0  0  0  0  0  0  0  0  0  0
  150.4129  140.4942  159.6295 H   0  0  0  0  0  0  0  0  0  0  0  0
  152.1152  140.2496  159.3568 H   0  0  0  0  0  0  0  0  0  0  0  0
  150.5570  142.8214  158.8871 H   0  0  0  0  0  0  0  0  0  0  0  0
  153.4673  142.2238  158.2077 H   0  0  0  0  0  0  0  0  0  0  0  0
  152.1863  142.5166  157.0577 H   0  0  0  0  0  0  0  0  0  0  0  0
  153.5715  144.5563  157.4152 H   0  0  0  0  0  0  0  0  0  0  0  0
  151.9059  144.8292  157.8681 H   0  0  0  0  0  0  0  0  0  0  0  0
  154.2203  144.2340  159.7768 H   0  0  0  0  0  0  0  0  0  0  0  0
  153.3997  145.7670  159.5989 H   0  0  0  0  0  0  0  0  0  0  0  0
  152.5767  144.5103  161.6010 H   0  0  0  0  0  0  0  0  0  0  0  0
  151.2928  144.7995  160.4516 H   0  0  0  0  0  0  0  0  0  0  0  0
  151.1862  142.4848  161.2596 H   0  0  0  0  0  0  0  0  0  0  0  0
  152.8459  142.1896  160.8038 H   0  0  0  0  0  0  0  0  0  0  0  0
  152.5317  139.4610  152.9214 H   0  0  0  0  0  0  0  0  0  0  0  0
  151.7301  143.3630  153.9767 H   0  0  0  0  0  0  0  0  0  0  0  0
  1  2  1  0  0  0  0
  1 18  1  0  0  0  0
  1 19  1  0  0  0  0
  1 20  1  0  0  0  0
  2  3  1  0  0  0  0
  2 13  1  0  0  0  0
  2 21  1  0  0  0  0
  3  4  2  0  0  0  0
  3  5  1  0  0  0  0
  5  6  1  0  0  0  0
  5 22  1  0  0  0  0
  6  7  1  0  0  0  0
  6 23  1  0  0  0  0
  6 24  1  0  0  0  0
  7 12  1  0  0  0  0
  7  8  1  0  0  0  0
  7 25  1  0  0  0  0
  8  9  1  0  0  0  0
  8 26  1  0  0  0  0
  8 27  1  0  0  0  0
  9 10  1  0  0  0  0
  9 28  1  0  0  0  0
  9 29  1  0  0  0  0
 10 11  1  0  0  0  0
 10 30  1  0  0  0  0
 10 31  1  0  0  0  0
 11 12  1  0  0  0  0
 11 32  1  0  0  0  0
 11 33  1  0  0  0  0
 12 34  1  0  0  0  0
 12 35  1  0  0  0  0
 13 17  1  0  0  0  0
 13 14  1  0  0  0  0
 14 15  2  0  0  0  0
 14 36  1  0  0  0  0
 15 16  1  0  0  0  0
 16 17  2  0  0  0  0
 16 37  1  0  0  0  0
M  END
> <s_m_source_file>
AV-unprocessed.smi

> <i_m_source_file_index>
374

> <i_lp_mmshare_version>
43012

> <i_f3d_flags>
0

> <s_epik_input>
bjFbY0hdbltjSF1uMVtDQEhdKFtDSDNdKUMoPU8pW05IXVtDSDJdW0NIXTJbQ0gyXVtDSDJdW0NIMl1bQ0gyXVtDSDJdMg==

> <s_epik_cmdline>
J2VwaWtfcHl0aG9uJywgJy1waCcsICc3LjAnLCAnLXRuJywgJzgnLCAnLW1hJywgJzIwMCcsICctbWV0YWxfYmluZGluZycsICctaW1hZScsICc8aW5maWxlLm1hZT4nLCAnLW9tYWUnLCAnPG91dGZpbGUubWFlPic=

> <r_lp_tautomer_probability>
1

> <r_epik_Ionization_Penalty>
1.24899e-05

> <r_epik_Ionization_Penalty_Charging>
0

> <r_epik_Ionization_Penalty_Neutral>
1.24899e-05

> <r_epik_State_Penalty>
-0

> <r_epik_Charging_Adjusted_Penalty>
0

> <i_epik_Tot_Q>
0

> <i_epik_Tot_abs_Q>
0

> <r_epik_Metal_State_Penalty>
-0

> <b_epik_Metal_Only>
0

> <s_lp_Force_Field>
OPLS_2005

> <r_lp_Energy>
16.3067

> <b_lp_Chiralities_Consistent>
1

> <s_lp_Variant>
AV-unprocessed.smi:374-2

> <Gold.Version>
5.8.1

> <Gold.Id.Protein>
6NUR|6NUR_protein|mol2

> <Gold.PLP.Fitness>
43.4741

> <Gold.PLP.PLP>
-34.2746

> <Gold.PLP.part.hbond>
-1.9044

> <Gold.PLP.part.metal>
0.0000

> <Gold.PLP.part.buried>
0.4707

> <Gold.PLP.part.nonpolar>
-33.0143

> <Gold.PLP.part.repulsive>
0.6357

> <Gold.PLP.ligand.clash>
0.0000

> <Gold.PLP.ligand.torsion>
0.5974

> <Gold.PLP.Chemscore.Hbond>
1.6989

> <Gold.PLP.Chemscore.CHOScore>
1.7330

> <Gold.PLP.Chemscore.Metal>
0.0000

> <Gold.PLP.Chemscore.Internal.Correction>
0.0986

> <Gold.Rescore>
     Score         DG    S(hbond)    S(metal)    S(lipo)     H(rot)  DE(clash)    DE(int)     intcor
     11.40     -13.68       1.00        0.00      88.48       2.14       0.45       1.84       ----

> <Gold.Chemscore.Fitness>
11.3959

> <Gold.Chemscore.DG>
-13.6822

> <Gold.Chemscore.ZeroCoef>
-5.4800

> <Gold.Chemscore.Hbond>
0.9952

> <Gold.Chemscore.Metal>
0.0000

> <Gold.Chemscore.Lipo>
88.4810

> <Gold.Chemscore.Internal_Hbond>
0.0000

> <Gold.Chemscore.DEClash>
0.4507

> <Gold.Chemscore.DEInternal>
1.8355

> <Gold.Chemscore.Rot>
2.1383

> <Gold.Chemscore.Internal.Correction>
   9.000000E+99

> <Gold.Chemscore.Hbond.Weighted>
-3.3240

> <Gold.Chemscore.Metal.Weighted>
-0.0000

> <Gold.Chemscore.Lipo.Weighted>
-10.3523

> <Gold.Chemscore.Internal_Hbond.Weighted>
0.0000

> <Gold.Chemscore.DEClash.Weighted>
0.4507

> <Gold.Chemscore.DEInternal.Weighted>
1.8355

> <Gold.Chemscore.Rot.Weighted>
5.4741

> <Gold.Chemscore.Internal.Correction.Weighted>
   9.000000E+99

> <Gold.Protein.RotatedTorsions>
[ 6907 6896 6895 6894 ] final -142.70 input  -60.11 | X-H torsion
[ 7974 7965 7964 7962 ] final   12.88 input  175.53 | X-H torsion
[ 8008 7997 7996 7995 ] final -146.21 input   59.86 | X-H torsion
[ 10167 10162 10161 10158 ] final   23.78 input  -65.29 | X-H torsion
[ 10718 10713 10712 10709 ] final   31.67 input   66.30 | X-H torsion
[ 10763 10752 10751 10750 ] final   -5.92 input  -60.55 | X-H torsion
[ 11005 11000 10999 10996 ] final  176.14 input  -57.11 | X-H torsion

> <Gold.Protein.ActiveResidues>
 VAL166  LYS551  ARG553  GLY616  TRP617  ASP618  TYR619  PRO620  LYS621  CYS622 
 ASP623  PHE694  ASN695  SER759  ASP760  ASP761  ALA762  ILE779  LEU786  VAL792 
 PHE793  MET794  SER795  GLU796  ALA797  LYS798  CYS799  TRP800  GLU811  SER814 

> <Gold.Protein.RotatedAtoms>
  151.0906  133.5319  159.2614 H   0  0  0  0  0  0  0  0  0  0  0  0  # atno 6907 bound_to 6896
  151.2187  135.0509  159.8951 H   0  0  0  0  0  0  0  0  0  0  0  0  # atno 6908 bound_to 6896
  152.5434  134.0712  159.8248 H   0  0  0  0  0  0  0  0  0  0  0  0  # atno 6909 bound_to 6896
  146.2342  139.9271  142.8501 H   0  0  0  0  0  0  0  0  0  0  0  0  # atno 7974 bound_to 7965
  155.5558  140.0621  157.2840 H   0  0  0  0  0  0  0  0  0  0  0  0  # atno 8008 bound_to 7997
  154.4406  140.1894  156.0777 H   0  0  0  0  0  0  0  0  0  0  0  0  # atno 8009 bound_to 7997
  156.0483  140.3287  155.7325 H   0  0  0  0  0  0  0  0  0  0  0  0  # atno 8010 bound_to 7997
  140.5241  143.9952  150.6432 H   0  0  0  0  0  0  0  0  0  0  0  0  # atno 10167 bound_to 10162
  157.2754  130.7229  149.6527 H   0  0  0  0  0  0  0  0  0  0  0  0  # atno 10718 bound_to 10713
  153.4052  135.7006  153.6398 H   0  0  0  0  0  0  0  0  0  0  0  0  # atno 10763 bound_to 10752
  153.4915  135.3672  155.2494 H   0  0  0  0  0  0  0  0  0  0  0  0  # atno 10764 bound_to 10752
  154.8713  135.4090  154.3394 H   0  0  0  0  0  0  0  0  0  0  0  0  # atno 10765 bound_to 10752
  140.3699  134.7039  157.4385 H   0  0  0  0  0  0  0  0  0  0  0  0  # atno 11005 bound_to 11000
  145.2080  140.9883  143.4117 LP  0  0  0  0  0  0  0  0  0  0  0  0  # atno 17320 bound_to 7965
  144.9716  139.3874  143.6306 LP  0  0  0  0  0  0  0  0  0  0  0  0  # atno 17321 bound_to 7965
  140.3309  143.3078  152.0688 LP  0  0  0  0  0  0  0  0  0  0  0  0  # atno 17342 bound_to 10162
  139.4933  144.6509  151.6676 LP  0  0  0  0  0  0  0  0  0  0  0  0  # atno 17343 bound_to 10162
  155.9663  130.4354  150.5092 LP  0  0  0  0  0  0  0  0  0  0  0  0  # atno 17370 bound_to 10713
  157.3025  131.0648  151.2058 LP  0  0  0  0  0  0  0  0  0  0  0  0  # atno 17371 bound_to 10713
  140.0560  134.6063  155.8804 LP  0  0  0  0  0  0  0  0  0  0  0  0  # atno 17394 bound_to 11000
  141.1958  133.6588  156.5660 LP  0  0  0  0  0  0  0  0  0  0  0  0  # atno 17395 bound_to 11000

$$$$
