AV-unprocessed.smi:663|AV-procd|sdf|3250|dock1
  -GOLD-   22720 0203D 1   1.00000     0.00000
 Structure written by MMmdl.
 29 30  0  0  0  0  0  0  0  0  2 V2000
  151.3553  137.1688  154.1304 N   0  0  0  0  0  0  0  0  0  0  0  0
  151.1721  138.3045  154.8083 C   0  0  0  0  0  0  0  0  0  0  0  0
  150.7219  139.3189  154.2798 O   0  0  0  0  0  0  0  0  0  0  0  0
  151.5597  138.3054  156.2918 C   0  0  0  0  0  0  0  0  0  0  0  0
  150.3743  138.5766  157.2474 C   0  0  1  0  0  0  0  0  0  0  0  0
  150.1352  137.4126  158.1039 N   0  0  0  0  0  0  0  0  0  0  0  0
  149.1381  137.2468  158.9862 C   0  0  0  0  0  0  0  0  0  0  0  0
  148.3003  138.1363  159.1510 O   0  0  0  0  0  0  0  0  0  0  0  0
  149.1675  136.0503  159.6162 N   0  5  0  0  0  0  0  0  0  0  0  0
  148.4076  135.8483  160.7050 C   0  0  0  0  0  0  0  0  0  0  0  0
  148.0832  136.8391  161.5515 N   0  0  0  0  0  0  0  0  0  0  0  0
  147.2917  136.4147  162.6103 N   0  0  0  0  0  0  0  0  0  0  0  0
  147.0445  135.1070  162.5386 C   0  0  0  0  0  0  0  0  0  0  0  0
  147.7621  134.2735  161.1761 S   0  0  0  0  0  0  0  0  0  0  0  0
  150.6231  139.8339  158.0601 C   0  0  0  0  0  0  0  0  0  0  0  0
  151.2526  141.0550  157.4340 C   0  0  0  0  0  0  0  0  0  0  0  0
  152.0227  140.2439  158.4522 C   0  0  0  0  0  0  0  0  0  0  0  0
  151.0875  137.1181  153.1585 H   0  0  0  0  0  0  0  0  0  0  0  0
  151.7347  136.3584  154.5978 H   0  0  0  0  0  0  0  0  0  0  0  0
  152.0405  137.3612  156.5530 H   0  0  0  0  0  0  0  0  0  0  0  0
  152.3186  139.0772  156.4243 H   0  0  0  0  0  0  0  0  0  0  0  0
  149.4884  138.7716  156.6398 H   0  0  0  0  0  0  0  0  0  0  0  0
  150.7910  136.6504  158.0154 H   0  0  0  0  0  0  0  0  0  0  0  0
  146.4395  134.6293  163.2946 H   0  0  0  0  0  0  0  0  0  0  0  0
  149.8531  140.0287  158.8045 H   0  0  0  0  0  0  0  0  0  0  0  0
  151.5658  140.9857  156.3939 H   0  0  0  0  0  0  0  0  0  0  0  0
  150.8763  142.0279  157.7437 H   0  0  0  0  0  0  0  0  0  0  0  0
  152.1600  140.6756  159.4414 H   0  0  0  0  0  0  0  0  0  0  0  0
  152.8498  139.6374  158.0884 H   0  0  0  0  0  0  0  0  0  0  0  0
  1  2  1  0  0  0  0
  1 18  1  0  0  0  0
  1 19  1  0  0  0  0
  2  3  2  0  0  0  0
  2  4  1  0  0  0  0
  4  5  1  0  0  0  0
  4 20  1  0  0  0  0
  4 21  1  0  0  0  0
  5  6  1  0  0  0  0
  5 15  1  0  0  0  0
  5 22  1  0  0  0  0
  6  7  1  0  0  0  0
  6 23  1  0  0  0  0
  7  8  2  0  0  0  0
  7  9  1  0  0  0  0
  9 10  1  0  0  0  0
 10 14  1  0  0  0  0
 10 11  2  0  0  0  0
 11 12  1  0  0  0  0
 12 13  2  0  0  0  0
 13 14  1  0  0  0  0
 13 24  1  0  0  0  0
 15 17  1  0  0  0  0
 15 16  1  0  0  0  0
 15 25  1  0  0  0  0
 16 17  1  0  0  0  0
 16 26  1  0  0  0  0
 16 27  1  0  0  0  0
 17 28  1  0  0  0  0
 17 29  1  0  0  0  0
M  CHG  1   9  -1
M  END
> <s_m_source_file>
AV-unprocessed.smi

> <i_m_source_file_index>
663

> <i_lp_mmshare_version>
43012

> <i_f3d_flags>
0

> <s_epik_input>
W05IMl1DKD1PKVtDSDJdW0NAQEhdKFtDSF0xW0NIMl1bQ0gyXTEpW05IXUMoPU8pW05IXWMybm5bY0hdczI=

> <s_epik_cmdline>
J2VwaWtfcHl0aG9uJywgJy1waCcsICc3LjAnLCAnLXRuJywgJzgnLCAnLW1hJywgJzIwMCcsICctbWV0YWxfYmluZGluZycsICctaW1hZScsICc8aW5maWxlLm1hZT4nLCAnLW9tYWUnLCAnPG91dGZpbGUubWFlPic=

> <r_lp_tautomer_probability>
1

> <r_epik_Ionization_Penalty>
4.41895

> <r_epik_Ionization_Penalty_Charging>
4.37725

> <r_epik_Ionization_Penalty_Neutral>
0.0416999

> <r_epik_State_Penalty>
4.37688

> <r_epik_Charging_Adjusted_Penalty>
8.75413

> <i_epik_Tot_Q>
-1

> <i_epik_Tot_abs_Q>
1

> <r_epik_Metal_State_Penalty>
0.761195

> <b_epik_Metal_Only>
1

> <s_lp_Force_Field>
OPLS_2005

> <r_lp_Energy>
7.27665

> <b_lp_Chiralities_Consistent>
1

> <s_lp_Variant>
AV-unprocessed.smi:663-4

> <Gold.Version>
5.8.1

> <Gold.Id.Protein>
6NUR|6NUR_protein|mol2

> <Gold.PLP.Fitness>
39.0284

> <Gold.PLP.PLP>
-26.0309

> <Gold.PLP.part.hbond>
-5.2430

> <Gold.PLP.part.metal>
0.0000

> <Gold.PLP.part.buried>
-6.5363

> <Gold.PLP.part.nonpolar>
-15.5412

> <Gold.PLP.part.repulsive>
0.3774

> <Gold.PLP.ligand.clash>
0.0000

> <Gold.PLP.ligand.torsion>
1.5308

> <Gold.PLP.Chemscore.Hbond>
4.9615

> <Gold.PLP.Chemscore.CHOScore>
0.0000

> <Gold.PLP.Chemscore.Metal>
0.0000

> <Gold.Chemscore.Hbonds>
donor molecule, donor type, donor heavy atom, donor atom, acceptor molecule, acceptor atom, score
      L1  H     1    18       P1  7949  0.90
      P1  H  6896  6909       L1     9  1.95
      P1  H  6931  6943       L1    11  1.00
      P1  H  6934  6947       L1     8  0.09
      P1  H  7989  7998       L1     3  1.00

> <Gold.PLP.Chemscore.Internal.Correction>
1.1747

> <Gold.Rescore>
     Score         DG    S(hbond)    S(metal)    S(lipo)     H(rot)  DE(clash)    DE(int)     intcor
     11.65     -14.74       3.27        0.00      40.08       2.49       0.06       3.02       ----

> <Gold.Chemscore.Fitness>
11.6549

> <Gold.Chemscore.DG>
-14.7362

> <Gold.Chemscore.ZeroCoef>
-5.4800

> <Gold.Chemscore.Hbond>
3.2729

> <Gold.Chemscore.Metal>
0.0000

> <Gold.Chemscore.Lipo>
40.0814

> <Gold.Chemscore.Internal_Hbond>
0.0000

> <Gold.Chemscore.DEClash>
0.0605

> <Gold.Chemscore.DEInternal>
3.0209

> <Gold.Chemscore.Rot>
2.4863

> <Gold.Chemscore.Internal.Correction>
   9.000000E+99

> <Gold.Chemscore.Hbonds>
donor molecule, donor type, donor heavy atom, donor atom, acceptor molecule, acceptor atom, score
      L1  H     1    18       P1  7949  0.33
      P1  H  6896  6909       L1     9  0.64
      P1  H  6931  6943       L1    11  0.88
      P1  H  6934  6947       L1     8  0.10
      P1  H  7989  7998       L1     3  0.99

> <Gold.Chemscore.Hbond.Weighted>
-10.9316

> <Gold.Chemscore.Metal.Weighted>
-0.0000

> <Gold.Chemscore.Lipo.Weighted>
-4.6895

> <Gold.Chemscore.Internal_Hbond.Weighted>
0.0000

> <Gold.Chemscore.DEClash.Weighted>
0.0605

> <Gold.Chemscore.DEInternal.Weighted>
3.0209

> <Gold.Chemscore.Rot.Weighted>
6.3648

> <Gold.Chemscore.Internal.Correction.Weighted>
   9.000000E+99

> <Gold.Protein.RotatedTorsions>
[ 6907 6896 6895 6894 ] final   69.22 input  -60.11 | X-H torsion
[ 7974 7965 7964 7962 ] final   85.76 input  175.53 | X-H torsion
[ 8008 7997 7996 7995 ] final  149.65 input   59.86 | X-H torsion
[ 10167 10162 10161 10158 ] final  127.15 input  -65.29 | X-H torsion
[ 10718 10713 10712 10709 ] final -129.78 input   66.30 | X-H torsion
[ 10763 10752 10751 10750 ] final   60.83 input  -60.55 | X-H torsion
[ 11005 11000 10999 10996 ] final   22.03 input  -57.11 | X-H torsion

> <Gold.Protein.ActiveResidues>
 VAL166  LYS551  ARG553  GLY616  TRP617  ASP618  TYR619  PRO620  LYS621  CYS622 
 ASP623  PHE694  ASN695  SER759  ASP760  ASP761  ALA762  ILE779  LEU786  VAL792 
 PHE793  MET794  SER795  GLU796  ALA797  LYS798  CYS799  TRP800  GLU811  SER814 

> <Gold.Protein.RotatedAtoms>
  152.4672  134.5047  159.9735 H   0  0  0  0  0  0  0  0  0  0  0  0  # atno 6907 bound_to 6896
  151.5082  133.3484  159.2888 H   0  0  0  0  0  0  0  0  0  0  0  0  # atno 6908 bound_to 6896
  150.8662  134.8055  159.7183 H   0  0  0  0  0  0  0  0  0  0  0  0  # atno 6909 bound_to 6896
  145.5812  139.2325  143.2351 H   0  0  0  0  0  0  0  0  0  0  0  0  # atno 7974 bound_to 7965
  156.2747  140.2096  156.5891 H   0  0  0  0  0  0  0  0  0  0  0  0  # atno 8008 bound_to 7997
  154.6997  140.0522  157.0469 H   0  0  0  0  0  0  0  0  0  0  0  0  # atno 8009 bound_to 7997
  155.0752  140.3181  155.4621 H   0  0  0  0  0  0  0  0  0  0  0  0  # atno 8010 bound_to 7997
  139.5593  144.6871  151.4089 H   0  0  0  0  0  0  0  0  0  0  0  0  # atno 10167 bound_to 10162
  156.2080  130.6900  151.0616 H   0  0  0  0  0  0  0  0  0  0  0  0  # atno 10718 bound_to 10713
  152.9932  135.5522  154.5936 H   0  0  0  0  0  0  0  0  0  0  0  0  # atno 10763 bound_to 10752
  154.5292  135.2812  155.1197 H   0  0  0  0  0  0  0  0  0  0  0  0  # atno 10764 bound_to 10752
  154.2519  135.6397  153.5296 H   0  0  0  0  0  0  0  0  0  0  0  0  # atno 10765 bound_to 10752
  140.3850  134.1880  155.7663 H   0  0  0  0  0  0  0  0  0  0  0  0  # atno 11005 bound_to 11000
  146.1714  140.6639  142.9231 LP  0  0  0  0  0  0  0  0  0  0  0  0  # atno 17320 bound_to 7965
  144.7393  140.4897  143.6881 LP  0  0  0  0  0  0  0  0  0  0  0  0  # atno 17321 bound_to 7965
  140.6871  143.7949  150.7201 LP  0  0  0  0  0  0  0  0  0  0  0  0  # atno 17342 bound_to 10162
  140.1420  143.4433  152.2188 LP  0  0  0  0  0  0  0  0  0  0  0  0  # atno 17343 bound_to 10162
  157.7023  131.0771  150.6782 LP  0  0  0  0  0  0  0  0  0  0  0  0  # atno 17370 bound_to 10713
  156.6840  130.4575  149.5619 LP  0  0  0  0  0  0  0  0  0  0  0  0  # atno 17371 bound_to 10713
  141.1910  133.8204  157.0895 LP  0  0  0  0  0  0  0  0  0  0  0  0  # atno 17394 bound_to 11000
  140.0449  134.9835  157.1031 LP  0  0  0  0  0  0  0  0  0  0  0  0  # atno 17395 bound_to 11000

$$$$
