AV-unprocessed.smi:1743|AV-procd|sdf|7023|dock10
  -GOLD-   22720 8243D 1   1.00000     0.00000
 Structure written by MMmdl.
 38 39  0  0  0  0  0  0  0  0  1 V2000
  153.4218  131.3103  157.7207 C   0  0  0  0  0  0  0  0  0  0  0  0
  152.3692  132.2578  157.5769 O   0  0  0  0  0  0  0  0  0  0  0  0
  151.5189  132.1333  156.4973 C   0  0  0  0  0  0  0  0  0  0  0  0
  151.5099  130.9189  155.7825 C   0  0  0  0  0  0  0  0  0  0  0  0
  150.6470  130.7844  154.6781 C   0  0  0  0  0  0  0  0  0  0  0  0
  149.8220  131.8764  154.3180 C   0  0  0  0  0  0  0  0  0  0  0  0
  148.8972  131.8569  153.2393 N   0  0  0  0  0  0  0  0  0  0  0  0
  147.6674  132.3966  153.1839 C   0  0  0  0  0  0  0  0  0  0  0  0
  147.1068  132.9813  154.1107 O   0  0  0  0  0  0  0  0  0  0  0  0
  147.1076  132.1973  151.9817 N   0  0  0  0  0  0  0  0  0  0  0  0
  145.7740  132.6324  151.5748 C   0  0  2  0  0  0  0  0  0  0  0  0
  145.0786  131.5116  150.7799 C   0  0  0  0  0  0  0  0  0  0  0  0
  143.6981  131.9558  150.2639 C   0  0  0  0  0  0  0  0  0  0  0  0
  143.7709  133.2594  149.4463 C   0  0  2  0  0  0  0  0  0  0  0  0
  144.4148  133.0209  148.2104 O   0  0  0  0  0  0  0  0  0  0  0  0
  144.5046  134.3723  150.2186 C   0  0  0  0  0  0  0  0  0  0  0  0
  145.8818  133.9163  150.7321 C   0  0  0  0  0  0  0  0  0  0  0  0
  149.8943  133.0420  155.1085 C   0  0  0  0  0  0  0  0  0  0  0  0
  150.7206  133.1785  156.1668 N   0  0  0  0  0  0  0  0  0  0  0  0
  153.9997  131.5453  158.6143 H   0  0  0  0  0  0  0  0  0  0  0  0
  154.1035  131.3377  156.8693 H   0  0  0  0  0  0  0  0  0  0  0  0
  153.0330  130.2974  157.8348 H   0  0  0  0  0  0  0  0  0  0  0  0
  152.1514  130.1021  156.0786 H   0  0  0  0  0  0  0  0  0  0  0  0
  150.6246  129.8480  154.1430 H   0  0  0  0  0  0  0  0  0  0  0  0
  149.1859  131.3253  152.4312 H   0  0  0  0  0  0  0  0  0  0  0  0
  147.6467  131.6987  151.2891 H   0  0  0  0  0  0  0  0  0  0  0  0
  145.1651  132.8576  152.4523 H   0  0  0  0  0  0  0  0  0  0  0  0
  145.7024  131.2139  149.9358 H   0  0  0  0  0  0  0  0  0  0  0  0
  144.9665  130.6255  151.4056 H   0  0  0  0  0  0  0  0  0  0  0  0
  143.2468  131.1608  149.6690 H   0  0  0  0  0  0  0  0  0  0  0  0
  143.0361  132.1092  151.1170 H   0  0  0  0  0  0  0  0  0  0  0  0
  142.7582  133.5925  149.2164 H   0  0  0  0  0  0  0  0  0  0  0  0
  145.1437  133.6170  148.1319 H   0  0  0  0  0  0  0  0  0  0  0  0
  144.6120  135.2598  149.5940 H   0  0  0  0  0  0  0  0  0  0  0  0
  143.8941  134.6737  151.0707 H   0  0  0  0  0  0  0  0  0  0  0  0
  146.3318  134.7134  151.3253 H   0  0  0  0  0  0  0  0  0  0  0  0
  146.5493  133.7495  149.8855 H   0  0  0  0  0  0  0  0  0  0  0  0
  149.2729  133.8965  154.8834 H   0  0  0  0  0  0  0  0  0  0  0  0
  1  2  1  0  0  0  0
  1 20  1  0  0  0  0
  1 21  1  0  0  0  0
  1 22  1  0  0  0  0
  2  3  1  0  0  0  0
  3 19  1  0  0  0  0
  3  4  2  0  0  0  0
  4  5  1  0  0  0  0
  4 23  1  0  0  0  0
  5  6  2  0  0  0  0
  5 24  1  0  0  0  0
  6  7  1  0  0  0  0
  6 18  1  0  0  0  0
  7  8  1  0  0  0  0
  7 25  1  0  0  0  0
  8  9  2  0  0  0  0
  8 10  1  0  0  0  0
 10 11  1  0  0  0  0
 10 26  1  0  0  0  0
 11 17  1  0  0  0  0
 11 12  1  0  0  0  0
 11 27  1  0  0  0  0
 12 13  1  0  0  0  0
 12 28  1  0  0  0  0
 12 29  1  0  0  0  0
 13 14  1  0  0  0  0
 13 30  1  0  0  0  0
 13 31  1  0  0  0  0
 14 15  1  0  0  0  0
 14 16  1  0  0  0  0
 14 32  1  0  0  0  0
 15 33  1  0  0  0  0
 16 17  1  0  0  0  0
 16 34  1  0  0  0  0
 16 35  1  0  0  0  0
 17 36  1  0  0  0  0
 17 37  1  0  0  0  0
 18 19  2  0  0  0  0
 18 38  1  0  0  0  0
M  END
> <s_m_source_file>
AV-unprocessed.smi

> <i_m_source_file_index>
1743

> <i_lp_mmshare_version>
43012

> <i_f3d_flags>
0

> <s_epik_input>
W0NIM11PYzFbY0hdW2NIXWMoW2NIXW4xKVtOSF1DKD1PKVtOSF1bQ0BASF0yW0NIMl1bQ0gyXVtDQEBIXShbT0hdKVtDSDJdW0NIMl0y

> <s_epik_cmdline>
J2VwaWtfcHl0aG9uJywgJy1waCcsICc3LjAnLCAnLXRuJywgJzgnLCAnLW1hJywgJzIwMCcsICctbWV0YWxfYmluZGluZycsICctaW1hZScsICc8aW5maWxlLm1hZT4nLCAnLW9tYWUnLCAnPG91dGZpbGUubWFlPic=

> <r_lp_tautomer_probability>
1

> <r_epik_Ionization_Penalty>
9.95686e-05

> <r_epik_Ionization_Penalty_Charging>
0

> <r_epik_Ionization_Penalty_Neutral>
9.95686e-05

> <r_epik_State_Penalty>
-0

> <r_epik_Charging_Adjusted_Penalty>
0

> <i_epik_Tot_Q>
0

> <i_epik_Tot_abs_Q>
0

> <r_epik_Metal_State_Penalty>
-0

> <b_epik_Metal_Only>
0

> <s_lp_Force_Field>
OPLS_2005

> <r_lp_Energy>
13.581

> <b_lp_Chiralities_Consistent>
1

> <s_lp_Variant>
AV-unprocessed.smi:1743-2

> <Gold.Version>
5.8.1

> <Gold.Id.Protein>
6NUR|6NUR_protein|mol2

> <Gold.PLP.Fitness>
42.6328

> <Gold.PLP.PLP>
-33.3329

> <Gold.PLP.part.hbond>
-4.7086

> <Gold.PLP.part.metal>
0.0000

> <Gold.PLP.part.buried>
-1.5012

> <Gold.PLP.part.nonpolar>
-26.5939

> <Gold.PLP.part.repulsive>
0.0682

> <Gold.PLP.ligand.clash>
0.0000

> <Gold.PLP.ligand.torsion>
0.7291

> <Gold.PLP.Chemscore.Hbond>
3.5850

> <Gold.PLP.Chemscore.CHOScore>
0.0000

> <Gold.PLP.Chemscore.Metal>
0.0000

> <Gold.Chemscore.Hbonds>
donor molecule, donor type, donor heavy atom, donor atom, acceptor molecule, acceptor atom, score
      L1  H     7    25       P1 10747  0.62
      L1  H    10    26       P1 10747  1.00
      L1  H    15    33       P1  7921  1.00
      P1  H  6896  6908       L1     2  0.86

> <Gold.PLP.Chemscore.Internal.Correction>
0.0030

> <Gold.Rescore>
     Score         DG    S(hbond)    S(metal)    S(lipo)     H(rot)  DE(clash)    DE(int)     intcor
     17.59     -19.88       3.02        0.00      75.70       1.77       0.40       1.89       ----

> <Gold.Chemscore.Fitness>
17.5909

> <Gold.Chemscore.DG>
-19.8804

> <Gold.Chemscore.ZeroCoef>
-5.4800

> <Gold.Chemscore.Hbond>
3.0173

> <Gold.Chemscore.Metal>
0.0000

> <Gold.Chemscore.Lipo>
75.7039

> <Gold.Chemscore.Internal_Hbond>
0.0000

> <Gold.Chemscore.DEClash>
0.4020

> <Gold.Chemscore.DEInternal>
1.8874

> <Gold.Chemscore.Rot>
1.7714

> <Gold.Chemscore.Internal.Correction>
   9.000000E+99

> <Gold.Chemscore.Hbonds>
donor molecule, donor type, donor heavy atom, donor atom, acceptor molecule, acceptor atom, score
      L1  H     7    25       P1 10747  0.24
      L1  H    10    26       P1 10747  1.00
      L1  H    15    33       P1  7921  0.64
      P1  H  6896  6908       L1     2  0.78

> <Gold.Chemscore.Hbond.Weighted>
-10.0777

> <Gold.Chemscore.Metal.Weighted>
-0.0000

> <Gold.Chemscore.Lipo.Weighted>
-8.8574

> <Gold.Chemscore.Internal_Hbond.Weighted>
0.0000

> <Gold.Chemscore.DEClash.Weighted>
0.4020

> <Gold.Chemscore.DEInternal.Weighted>
1.8874

> <Gold.Chemscore.Rot.Weighted>
4.5347

> <Gold.Chemscore.Internal.Correction.Weighted>
   9.000000E+99

> <Gold.Protein.RotatedTorsions>
[ 6907 6896 6895 6894 ] final   53.60 input  -60.11 | X-H torsion
[ 7974 7965 7964 7962 ] final  104.31 input  175.53 | X-H torsion
[ 8008 7997 7996 7995 ] final   80.89 input   59.86 | X-H torsion
[ 10167 10162 10161 10158 ] final  154.51 input  -65.29 | X-H torsion
[ 10718 10713 10712 10709 ] final  -75.34 input   66.30 | X-H torsion
[ 10763 10752 10751 10750 ] final  157.30 input  -60.55 | X-H torsion
[ 11005 11000 10999 10996 ] final  -92.33 input  -57.11 | X-H torsion

> <Gold.Protein.ActiveResidues>
 VAL166  LYS551  ARG553  GLY616  TRP617  ASP618  TYR619  PRO620  LYS621  CYS622 
 ASP623  PHE694  ASN695  SER759  ASP760  ASP761  ALA762  ILE779  LEU786  VAL792 
 PHE793  MET794  SER795  GLU796  ALA797  LYS798  CYS799  TRP800  GLU811  SER814 

> <Gold.Protein.RotatedAtoms>
  152.3353  134.7206  160.0278 H   0  0  0  0  0  0  0  0  0  0  0  0  # atno 6907 bound_to 6896
  151.7609  133.3328  159.3425 H   0  0  0  0  0  0  0  0  0  0  0  0  # atno 6908 bound_to 6896
  150.7447  134.6039  159.6095 H   0  0  0  0  0  0  0  0  0  0  0  0  # atno 6909 bound_to 6896
  145.3345  139.2478  143.3643 H   0  0  0  0  0  0  0  0  0  0  0  0  # atno 7974 bound_to 7965
  155.8896  140.3439  155.5947 H   0  0  0  0  0  0  0  0  0  0  0  0  # atno 8008 bound_to 7997
  155.7626  140.0834  157.2167 H   0  0  0  0  0  0  0  0  0  0  0  0  # atno 8009 bound_to 7997
  154.4032  140.1533  156.2837 H   0  0  0  0  0  0  0  0  0  0  0  0  # atno 8010 bound_to 7997
  139.4823  144.5180  151.7920 H   0  0  0  0  0  0  0  0  0  0  0  0  # atno 10167 bound_to 10162
  156.0211  130.4438  150.3029 H   0  0  0  0  0  0  0  0  0  0  0  0  # atno 10718 bound_to 10713
  154.1981  135.2791  155.3000 H   0  0  0  0  0  0  0  0  0  0  0  0  # atno 10763 bound_to 10752
  154.5876  135.5570  153.7249 H   0  0  0  0  0  0  0  0  0  0  0  0  # atno 10764 bound_to 10752
  153.0095  135.6360  154.2120 H   0  0  0  0  0  0  0  0  0  0  0  0  # atno 10765 bound_to 10752
  141.1524  133.7814  157.0005 H   0  0  0  0  0  0  0  0  0  0  0  0  # atno 11005 bound_to 11000
  146.3032  140.3929  142.8696 LP  0  0  0  0  0  0  0  0  0  0  0  0  # atno 17320 bound_to 7965
  144.8838  140.7436  143.5969 LP  0  0  0  0  0  0  0  0  0  0  0  0  # atno 17321 bound_to 7965
  140.4691  144.1612  150.5915 LP  0  0  0  0  0  0  0  0  0  0  0  0  # atno 17342 bound_to 10162
  140.4402  143.2530  151.9483 LP  0  0  0  0  0  0  0  0  0  0  0  0  # atno 17343 bound_to 10162
  157.1131  131.0227  151.3040 LP  0  0  0  0  0  0  0  0  0  0  0  0  # atno 17370 bound_to 10713
  157.4688  130.7696  149.7304 LP  0  0  0  0  0  0  0  0  0  0  0  0  # atno 17371 bound_to 10713
  140.0943  134.9573  157.1825 LP  0  0  0  0  0  0  0  0  0  0  0  0  # atno 17394 bound_to 11000
  140.3403  134.2711  155.7213 LP  0  0  0  0  0  0  0  0  0  0  0  0  # atno 17395 bound_to 11000

$$$$
