AV-unprocessed.smi:648|AV-procd|sdf|3177|dock2
  -GOLD-   22720 0103D 1   1.00000     0.00000
 Structure written by MMmdl.
 45 46  0  0  0  0  0  0  0  0  1 V2000
  142.0094  135.2097  153.2037 C   0  0  0  0  0  0  0  0  0  0  0  0
  143.5177  135.1854  152.9156 C   0  0  1  0  0  0  0  0  0  0  0  0
  143.8766  134.0557  151.9340 C   0  0  0  0  0  0  0  0  0  0  0  0
  145.3859  133.9785  151.6109 C   0  0  0  0  0  0  0  0  0  0  0  0
  146.1791  133.4123  152.8112 C   0  0  0  0  0  0  0  0  0  0  0  0
  145.5847  132.9948  150.4393 C   0  0  0  0  0  0  0  0  0  0  0  0
  145.9064  135.3767  151.1692 C   0  0  0  0  0  0  0  0  0  0  0  0
  145.5234  136.5911  152.0662 C   0  0  2  0  0  0  0  0  0  0  0  0
  145.8865  137.8796  151.2673 C   0  0  0  0  0  0  0  0  0  0  0  0
  147.2748  138.1460  151.2085 O   0  0  0  0  0  0  0  0  0  0  0  0
  146.3560  136.5300  153.2843 N   0  0  0  0  0  0  0  0  0  0  0  0
  146.3382  137.6686  154.2045 C   0  0  0  0  0  0  0  0  0  0  0  0
  147.7519  138.2397  154.3740 C   0  0  0  0  0  0  0  0  0  0  0  0
  147.7507  139.6885  154.3538 N   0  0  0  0  0  0  0  0  0  0  0  0
  146.7528  140.5523  154.1607 C   0  0  0  0  0  0  0  0  0  0  0  0
  147.1268  141.8232  154.2172 N   0  0  0  0  0  0  0  0  0  0  0  0
  148.4602  141.6575  154.4655 C   0  0  0  0  0  0  0  0  0  0  0  0
  148.8853  140.3975  154.5599 N   0  0  0  0  0  0  0  0  0  0  0  0
  144.0000  136.5421  152.3715 C   0  0  0  0  0  0  0  0  0  0  0  0
  141.4339  135.3938  152.2959 H   0  0  0  0  0  0  0  0  0  0  0  0
  141.7593  135.9924  153.9204 H   0  0  0  0  0  0  0  0  0  0  0  0
  141.6746  134.2609  153.6238 H   0  0  0  0  0  0  0  0  0  0  0  0
  144.0167  135.0001  153.8665 H   0  0  0  0  0  0  0  0  0  0  0  0
  143.5344  133.0988  152.3307 H   0  0  0  0  0  0  0  0  0  0  0  0
  143.3177  134.2118  151.0098 H   0  0  0  0  0  0  0  0  0  0  0  0
  147.2490  133.3911  152.6015 H   0  0  0  0  0  0  0  0  0  0  0  0
  145.8733  132.3904  153.0369 H   0  0  0  0  0  0  0  0  0  0  0  0
  146.0388  133.9858  153.7250 H   0  0  0  0  0  0  0  0  0  0  0  0
  146.6376  132.9082  150.1679 H   0  0  0  0  0  0  0  0  0  0  0  0
  145.0432  133.3144  149.5479 H   0  0  0  0  0  0  0  0  0  0  0  0
  145.2285  131.9958  150.6929 H   0  0  0  0  0  0  0  0  0  0  0  0
  146.9884  135.3417  151.0301 H   0  0  0  0  0  0  0  0  0  0  0  0
  145.5004  135.5596  150.1731 H   0  0  0  0  0  0  0  0  0  0  0  0
  145.4822  137.8417  150.2546 H   0  0  0  0  0  0  0  0  0  0  0  0
  145.4429  138.7581  151.7367 H   0  0  0  0  0  0  0  0  0  0  0  0
  147.7231  137.5302  151.7679 H   0  0  0  0  0  0  0  0  0  0  0  0
  147.3152  136.3236  153.0251 H   0  0  0  0  0  0  0  0  0  0  0  0
  145.6841  138.4556  153.8319 H   0  0  0  0  0  0  0  0  0  0  0  0
  145.9589  137.3686  155.1808 H   0  0  0  0  0  0  0  0  0  0  0  0
  148.1833  137.9082  155.3196 H   0  0  0  0  0  0  0  0  0  0  0  0
  148.4096  137.8817  153.5807 H   0  0  0  0  0  0  0  0  0  0  0  0
  145.7336  140.2465  153.9752 H   0  0  0  0  0  0  0  0  0  0  0  0
  149.1377  142.4908  154.5813 H   0  0  0  0  0  0  0  0  0  0  0  0
  143.4563  136.7493  151.4483 H   0  0  0  0  0  0  0  0  0  0  0  0
  143.7060  137.3364  153.0571 H   0  0  0  0  0  0  0  0  0  0  0  0
  1  2  1  0  0  0  0
  1 20  1  0  0  0  0
  1 21  1  0  0  0  0
  1 22  1  0  0  0  0
  2 19  1  0  0  0  0
  2  3  1  0  0  0  0
  2 23  1  0  0  0  0
  3  4  1  0  0  0  0
  3 24  1  0  0  0  0
  3 25  1  0  0  0  0
  4  5  1  0  0  0  0
  4  6  1  0  0  0  0
  4  7  1  0  0  0  0
  5 26  1  0  0  0  0
  5 27  1  0  0  0  0
  5 28  1  0  0  0  0
  6 29  1  0  0  0  0
  6 30  1  0  0  0  0
  6 31  1  0  0  0  0
  7  8  1  0  0  0  0
  7 32  1  0  0  0  0
  7 33  1  0  0  0  0
  8  9  1  0  0  0  0
  8 11  1  0  0  0  0
  8 19  1  0  0  0  0
  9 10  1  0  0  0  0
  9 34  1  0  0  0  0
  9 35  1  0  0  0  0
 10 36  1  0  0  0  0
 11 12  1  0  0  0  0
 11 37  1  0  0  0  0
 12 13  1  0  0  0  0
 12 38  1  0  0  0  0
 12 39  1  0  0  0  0
 13 14  1  0  0  0  0
 13 40  1  0  0  0  0
 13 41  1  0  0  0  0
 14 18  1  0  0  0  0
 14 15  1  0  0  0  0
 15 16  2  0  0  0  0
 15 42  1  0  0  0  0
 16 17  1  0  0  0  0
 17 18  2  0  0  0  0
 17 43  1  0  0  0  0
 19 44  1  0  0  0  0
 19 45  1  0  0  0  0
M  END
> <s_m_source_file>
AV-unprocessed.smi

> <i_m_source_file_index>
648

> <i_lp_mmshare_version>
43012

> <i_f3d_flags>
0

> <s_epik_input>
W0NIM11DMShbQ0gzXSlbQ0gyXVtDQEBIXShbQ0gzXSlbQ0gyXVtDQF0oW0NIMl0xKShbQ0gyXVtPSF0pW05IXVtDSDJdW0NIMl1uMltjSF1uW2NIXW4y

> <s_epik_cmdline>
J2VwaWtfcHl0aG9uJywgJy1waCcsICc3LjAnLCAnLXRuJywgJzgnLCAnLW1hJywgJzIwMCcsICctbWV0YWxfYmluZGluZycsICctaW1hZScsICc8aW5maWxlLm1hZT4nLCAnLW9tYWUnLCAnPG91dGZpbGUubWFlPic=

> <r_lp_tautomer_probability>
1

> <r_epik_Ionization_Penalty>
2.45849

> <r_epik_Ionization_Penalty_Charging>
0

> <r_epik_Ionization_Penalty_Neutral>
2.45849

> <r_epik_State_Penalty>
2.62037

> <r_epik_Charging_Adjusted_Penalty>
2.62037

> <i_epik_Tot_Q>
0

> <i_epik_Tot_abs_Q>
0

> <r_epik_Metal_State_Penalty>
2.62024

> <b_epik_Metal_Only>
0

> <s_lp_Force_Field>
OPLS_2005

> <r_lp_Energy>
32.8017

> <b_lp_Chiralities_Consistent>
1

> <s_lp_Variant>
AV-unprocessed.smi:648-8

> <Gold.Version>
5.8.1

> <Gold.Id.Protein>
6NUR|6NUR_protein|mol2

> <Gold.PLP.Fitness>
43.9273

> <Gold.PLP.PLP>
-31.4280

> <Gold.PLP.part.hbond>
-4.0000

> <Gold.PLP.part.metal>
0.0000

> <Gold.PLP.part.buried>
-2.1677

> <Gold.PLP.part.nonpolar>
-25.7579

> <Gold.PLP.part.repulsive>
0.2702

> <Gold.PLP.ligand.clash>
0.0000

> <Gold.PLP.ligand.torsion>
0.9072

> <Gold.PLP.Chemscore.Hbond>
2.7620

> <Gold.PLP.Chemscore.CHOScore>
2.0000

> <Gold.PLP.Chemscore.Metal>
0.0000

> <Gold.Chemscore.Hbonds>
donor molecule, donor type, donor heavy atom, donor atom, acceptor molecule, acceptor atom, score
      L1  H    10    36       P1  7948  0.88
      L1  H    11    37       P1  7948  1.00
      P1  H  7954  7966       L1    10  0.80
      L1  C    15    42       P1 10175  0.95
      L1  C    17    43       P1  8028  1.00

> <Gold.PLP.Chemscore.Internal.Correction>
0.0277

> <Gold.Rescore>
     Score         DG    S(hbond)    S(metal)    S(lipo)     H(rot)  DE(clash)    DE(int)     intcor
     10.25     -12.59       2.33        0.00      62.35       3.12       1.49       0.84       ----

> <Gold.Chemscore.Fitness>
10.2528

> <Gold.Chemscore.DG>
-12.5873

> <Gold.Chemscore.ZeroCoef>
-5.4800

> <Gold.Chemscore.Hbond>
2.3337

> <Gold.Chemscore.Metal>
0.0000

> <Gold.Chemscore.Lipo>
62.3548

> <Gold.Chemscore.Internal_Hbond>
0.0000

> <Gold.Chemscore.DEClash>
1.4920

> <Gold.Chemscore.DEInternal>
0.8425

> <Gold.Chemscore.Rot>
3.1183

> <Gold.Chemscore.Internal.Correction>
   9.000000E+99

> <Gold.Chemscore.Hbonds>
donor molecule, donor type, donor heavy atom, donor atom, acceptor molecule, acceptor atom, score
      L1  H    10    36       P1  7948  0.87
      L1  H    11    37       P1  7948  0.94
      P1  H  7954  7966       L1    10  0.12

> <Gold.Chemscore.Hbond.Weighted>
-7.7947

> <Gold.Chemscore.Metal.Weighted>
-0.0000

> <Gold.Chemscore.Lipo.Weighted>
-7.2955

> <Gold.Chemscore.Internal_Hbond.Weighted>
0.0000

> <Gold.Chemscore.DEClash.Weighted>
1.4920

> <Gold.Chemscore.DEInternal.Weighted>
0.8425

> <Gold.Chemscore.Rot.Weighted>
7.9829

> <Gold.Chemscore.Internal.Correction.Weighted>
   9.000000E+99

> <Gold.Protein.RotatedTorsions>
[ 6907 6896 6895 6894 ] final -110.73 input  -60.11 | X-H torsion
[ 7974 7965 7964 7962 ] final -134.58 input  175.53 | X-H torsion
[ 8008 7997 7996 7995 ] final -122.57 input   59.86 | X-H torsion
[ 10167 10162 10161 10158 ] final -133.43 input  -65.29 | X-H torsion
[ 10718 10713 10712 10709 ] final  -76.66 input   66.30 | X-H torsion
[ 10763 10752 10751 10750 ] final  -31.74 input  -60.55 | X-H torsion
[ 11005 11000 10999 10996 ] final   69.65 input  -57.11 | X-H torsion

> <Gold.Protein.ActiveResidues>
 VAL166  LYS551  ARG553  GLY616  TRP617  ASP618  TYR619  PRO620  LYS621  CYS622 
 ASP623  PHE694  ASN695  SER759  ASP760  ASP761  ALA762  ILE779  LEU786  VAL792 
 PHE793  MET794  SER795  GLU796  ALA797  LYS798  CYS799  TRP800  GLU811  SER814 

> <Gold.Protein.RotatedAtoms>
  150.7643  133.9339  159.3435 H   0  0  0  0  0  0  0  0  0  0  0  0  # atno 6907 bound_to 6896
  151.7241  135.0886  160.0298 H   0  0  0  0  0  0  0  0  0  0  0  0  # atno 6908 bound_to 6896
  152.3631  133.6285  159.6066 H   0  0  0  0  0  0  0  0  0  0  0  0  # atno 6909 bound_to 6896
  144.9090  140.6870  143.5037 H   0  0  0  0  0  0  0  0  0  0  0  0  # atno 7974 bound_to 7965
  155.1664  140.0407  157.2853 H   0  0  0  0  0  0  0  0  0  0  0  0  # atno 8008 bound_to 7997
  154.6300  140.2522  155.7418 H   0  0  0  0  0  0  0  0  0  0  0  0  # atno 8009 bound_to 7997
  156.2479  140.2877  156.0647 H   0  0  0  0  0  0  0  0  0  0  0  0  # atno 8010 bound_to 7997
  139.8983  143.6638  152.2599 H   0  0  0  0  0  0  0  0  0  0  0  0  # atno 10167 bound_to 10162
  156.0168  130.4471  150.3228 H   0  0  0  0  0  0  0  0  0  0  0  0  # atno 10718 bound_to 10713
  153.8024  135.6889  153.4853 H   0  0  0  0  0  0  0  0  0  0  0  0  # atno 10763 bound_to 10752
  153.1680  135.4554  154.9862 H   0  0  0  0  0  0  0  0  0  0  0  0  # atno 10764 bound_to 10752
  154.8001  135.3334  154.7511 H   0  0  0  0  0  0  0  0  0  0  0  0  # atno 10765 bound_to 10752
  139.9642  134.7010  156.0582 H   0  0  0  0  0  0  0  0  0  0  0  0  # atno 11005 bound_to 11000
  145.3487  139.1712  143.4446 LP  0  0  0  0  0  0  0  0  0  0  0  0  # atno 17320 bound_to 7965
  146.3148  140.3536  142.8658 LP  0  0  0  0  0  0  0  0  0  0  0  0  # atno 17321 bound_to 7965
  139.7048  144.7630  151.1212 LP  0  0  0  0  0  0  0  0  0  0  0  0  # atno 17342 bound_to 10162
  140.7712  143.5410  150.9313 LP  0  0  0  0  0  0  0  0  0  0  0  0  # atno 17343 bound_to 10162
  157.1327  131.0276  151.2962 LP  0  0  0  0  0  0  0  0  0  0  0  0  # atno 17370 bound_to 10713
  157.4537  130.7613  149.7174 LP  0  0  0  0  0  0  0  0  0  0  0  0  # atno 17371 bound_to 10713
  141.1320  133.6584  156.3491 LP  0  0  0  0  0  0  0  0  0  0  0  0  # atno 17394 bound_to 11000
  140.5434  134.6098  157.5386 LP  0  0  0  0  0  0  0  0  0  0  0  0  # atno 17395 bound_to 11000

$$$$
