AV-unprocessed.smi:77|AV-procd|sdf|774|dock4
  -GOLD-   2262017123D 1   1.00000     0.00000
 Structure written by MMmdl.
 57 61  0  0  0  0  0  0  0  0  1 V2000
  151.6067  140.9822  157.5523 O   0  0  0  0  0  0  0  0  0  0  0  0
  150.7629  141.7854  157.1512 C   0  0  0  0  0  0  0  0  0  0  0  0
  149.4757  141.3061  156.4671 C   0  0  0  0  0  0  0  0  0  0  0  0
  149.6978  140.7958  155.1079 N   0  0  0  0  0  0  0  0  0  0  0  0
  150.3171  139.5872  154.9845 C   0  0  0  0  0  0  0  0  0  0  0  0
  151.6651  139.5497  154.8009 N   0  0  0  0  0  0  0  0  0  0  0  0
  152.3055  138.3853  154.6710 C   0  0  0  0  0  0  0  0  0  0  0  0
  151.8016  137.1515  154.6892 N   0  0  0  0  0  0  0  0  0  0  0  0
  150.4513  137.1725  154.8727 C   0  0  0  0  0  0  0  0  0  0  0  0
  149.6384  138.3322  155.0341 C   0  0  0  0  0  0  0  0  0  0  0  0
  148.3151  137.9475  155.2213 N   0  0  0  0  0  0  0  0  0  0  0  0
  148.3426  136.6450  155.1660 C   0  0  0  0  0  0  0  0  0  0  0  0
  149.5822  136.0960  154.9316 N   0  0  0  0  0  0  0  0  0  0  0  0
  149.8936  134.6804  154.8270 C   0  0  0  0  0  0  0  0  0  0  0  0
  148.6714  133.7244  154.9305 C   0  0  1  0  0  0  0  0  0  0  0  0
  147.8298  133.8392  153.6361 C   0  0  0  0  0  0  0  0  0  0  0  0
  146.6029  133.1488  153.7557 O   0  0  0  0  0  0  0  0  0  0  0  0
  149.0571  132.2416  155.2171 C   0  0  1  0  0  0  0  0  0  0  0  0
  149.4549  131.4030  154.0103 C   0  0  0  0  0  0  0  0  0  0  0  0
  150.2250  130.2446  154.6333 C   0  0  0  0  0  0  0  0  0  0  0  0
  150.8213  130.7645  155.8130 O   0  0  0  0  0  0  0  0  0  0  0  0
  150.3218  132.0710  156.0707 C   0  0  0  0  0  0  0  0  0  0  0  0
  148.7156  141.1749  154.0924 C   0  0  0  0  0  0  0  0  0  0  0  0
  147.5263  142.0196  154.4935 C   0  0  0  0  0  0  0  0  0  0  0  0
  147.3337  140.5641  154.1413 C   0  0  0  0  0  0  0  0  0  0  0  0
  150.8907  143.1136  157.2813 N   0  0  0  0  0  0  0  0  0  0  0  0
  151.9930  143.7851  157.8899 C   0  0  0  0  0  0  0  0  0  0  0  0
  152.4745  143.2706  159.2293 C   0  0  0  0  0  0  0  0  0  0  0  0
  151.7258  144.5724  159.1545 C   0  0  0  0  0  0  0  0  0  0  0  0
  148.9893  140.5609  157.0983 H   0  0  0  0  0  0  0  0  0  0  0  0
  148.7822  142.1474  156.4210 H   0  0  0  0  0  0  0  0  0  0  0  0
  153.3740  138.4522  154.5306 H   0  0  0  0  0  0  0  0  0  0  0  0
  147.4502  136.0474  155.2814 H   0  0  0  0  0  0  0  0  0  0  0  0
  150.4037  134.5465  153.8729 H   0  0  0  0  0  0  0  0  0  0  0  0
  150.6231  134.4279  155.5974 H   0  0  0  0  0  0  0  0  0  0  0  0
  148.0353  134.0602  155.7500 H   0  0  0  0  0  0  0  0  0  0  0  0
  147.6342  134.8838  153.3912 H   0  0  0  0  0  0  0  0  0  0  0  0
  148.3449  133.4025  152.7819 H   0  0  0  0  0  0  0  0  0  0  0  0
  145.8967  133.7667  153.6434 H   0  0  0  0  0  0  0  0  0  0  0  0
  148.2291  131.7455  155.7261 H   0  0  0  0  0  0  0  0  0  0  0  0
  148.6092  131.0393  153.4298 H   0  0  0  0  0  0  0  0  0  0  0  0
  150.1077  131.9724  153.3472 H   0  0  0  0  0  0  0  0  0  0  0  0
  149.5433  129.4417  154.9156 H   0  0  0  0  0  0  0  0  0  0  0  0
  150.9730  129.8318  153.9561 H   0  0  0  0  0  0  0  0  0  0  0  0
  151.0862  132.7907  155.7740 H   0  0  0  0  0  0  0  0  0  0  0  0
  150.1308  132.2012  157.1362 H   0  0  0  0  0  0  0  0  0  0  0  0
  149.1167  141.3580  153.0969 H   0  0  0  0  0  0  0  0  0  0  0  0
  147.4307  142.2980  155.5412 H   0  0  0  0  0  0  0  0  0  0  0  0
  147.1774  142.7626  153.7797 H   0  0  0  0  0  0  0  0  0  0  0  0
  146.8521  140.3367  153.1926 H   0  0  0  0  0  0  0  0  0  0  0  0
  147.0995  139.8831  154.9566 H   0  0  0  0  0  0  0  0  0  0  0  0
  150.1468  143.6953  156.9240 H   0  0  0  0  0  0  0  0  0  0  0  0
  152.7611  144.1861  157.2300 H   0  0  0  0  0  0  0  0  0  0  0  0
  151.9562  142.4181  159.6643 H   0  0  0  0  0  0  0  0  0  0  0  0
  153.5429  143.3172  159.4304 H   0  0  0  0  0  0  0  0  0  0  0  0
  152.2940  145.4882  159.3036 H   0  0  0  0  0  0  0  0  0  0  0  0
  150.7075  144.5890  159.5383 H   0  0  0  0  0  0  0  0  0  0  0  0
  1  2  2  0  0  0  0
  2  3  1  0  0  0  0
  2 26  1  0  0  0  0
  3  4  1  0  0  0  0
  3 30  1  0  0  0  0
  3 31  1  0  0  0  0
  4  5  1  0  0  0  0
  4 23  1  0  0  0  0
  5 10  1  0  0  0  0
  5  6  2  0  0  0  0
  6  7  1  0  0  0  0
  7  8  2  0  0  0  0
  7 32  1  0  0  0  0
  8  9  1  0  0  0  0
  9 13  1  0  0  0  0
  9 10  2  0  0  0  0
 10 11  1  0  0  0  0
 11 12  2  0  0  0  0
 12 13  1  0  0  0  0
 12 33  1  0  0  0  0
 13 14  1  0  0  0  0
 14 15  1  0  0  0  0
 14 34  1  0  0  0  0
 14 35  1  0  0  0  0
 15 16  1  0  0  0  0
 15 18  1  0  0  0  0
 15 36  1  0  0  0  0
 16 17  1  0  0  0  0
 16 37  1  0  0  0  0
 16 38  1  0  0  0  0
 17 39  1  0  0  0  0
 18 22  1  0  0  0  0
 18 19  1  0  0  0  0
 18 40  1  0  0  0  0
 19 20  1  0  0  0  0
 19 41  1  0  0  0  0
 19 42  1  0  0  0  0
 20 21  1  0  0  0  0
 20 43  1  0  0  0  0
 20 44  1  0  0  0  0
 21 22  1  0  0  0  0
 22 45  1  0  0  0  0
 22 46  1  0  0  0  0
 23 25  1  0  0  0  0
 23 24  1  0  0  0  0
 23 47  1  0  0  0  0
 24 25  1  0  0  0  0
 24 48  1  0  0  0  0
 24 49  1  0  0  0  0
 25 50  1  0  0  0  0
 25 51  1  0  0  0  0
 26 27  1  0  0  0  0
 26 52  1  0  0  0  0
 27 29  1  0  0  0  0
 27 28  1  0  0  0  0
 27 53  1  0  0  0  0
 28 29  1  0  0  0  0
 28 54  1  0  0  0  0
 28 55  1  0  0  0  0
 29 56  1  0  0  0  0
 29 57  1  0  0  0  0
M  END
> <s_m_source_file>
AV-unprocessed.smi

> <i_m_source_file_index>
77

> <i_lp_mmshare_version>
43012

> <i_f3d_flags>
0

> <s_epik_input>
W0NIMl0xW0NIMl1bQ0hdMVtOSF1DKD1PKVtDSDJdTihbQ0hdMltDSDJdW0NIMl0yKWMobltjSF1uMyljKGMzNCluW2NIXW40W0NIMl1bQ0BIXShbQ0gyXVtPSF0pW0NAQEhdNVtDSDJdW0NIMl1PW0NIMl01

> <s_epik_cmdline>
J2VwaWtfcHl0aG9uJywgJy1waCcsICc3LjAnLCAnLXRuJywgJzgnLCAnLW1hJywgJzIwMCcsICctbWV0YWxfYmluZGluZycsICctaW1hZScsICc8aW5maWxlLm1hZT4nLCAnLW9tYWUnLCAnPG91dGZpbGUubWFlPic=

> <r_lp_tautomer_probability>
1

> <r_epik_Ionization_Penalty>
0.000703847

> <r_epik_Ionization_Penalty_Charging>
0

> <r_epik_Ionization_Penalty_Neutral>
0.000703847

> <r_epik_State_Penalty>
0.00034025

> <r_epik_Charging_Adjusted_Penalty>
0.00034025

> <i_epik_Tot_Q>
0

> <i_epik_Tot_abs_Q>
0

> <r_epik_Metal_State_Penalty>
-0

> <b_epik_Metal_Only>
0

> <s_lp_Force_Field>
OPLS_2005

> <r_lp_Energy>
54.3031

> <b_lp_Chiralities_Consistent>
1

> <s_lp_Variant>
AV-unprocessed.smi:77-4

> <Gold.Version>
5.8.1

> <Gold.Id.Protein>
6NUR|6NUR_protein|mol2

> <Gold.PLP.Fitness>
61.0609

> <Gold.PLP.PLP>
-56.4782

> <Gold.PLP.part.hbond>
-3.0000

> <Gold.PLP.part.metal>
0.0000

> <Gold.PLP.part.buried>
-7.0613

> <Gold.PLP.part.nonpolar>
-47.2958

> <Gold.PLP.part.repulsive>
0.2714

> <Gold.PLP.ligand.clash>
0.0000

> <Gold.PLP.ligand.torsion>
2.7634

> <Gold.PLP.Chemscore.Hbond>
2.8223

> <Gold.PLP.Chemscore.CHOScore>
0.0000

> <Gold.PLP.Chemscore.Metal>
0.0000

> <Gold.Chemscore.Hbonds>
donor molecule, donor type, donor heavy atom, donor atom, acceptor molecule, acceptor atom, score
      L1  H    26    52       P1  8028  0.96
      P1  H  7989  7998       L1     6  0.70
      P1  H 10752 10765       L1     8  0.94

> <Gold.PLP.Chemscore.Internal.Correction>
1.6427

> <Gold.Rescore>
     Score         DG    S(hbond)    S(metal)    S(lipo)     H(rot)  DE(clash)    DE(int)     intcor
     13.22     -16.78       2.61        0.00      97.85       3.47       0.05       3.50       ----

> <Gold.Chemscore.Fitness>
13.2238

> <Gold.Chemscore.DG>
-16.7798

> <Gold.Chemscore.ZeroCoef>
-5.4800

> <Gold.Chemscore.Hbond>
2.6147

> <Gold.Chemscore.Metal>
0.0000

> <Gold.Chemscore.Lipo>
97.8514

> <Gold.Chemscore.Internal_Hbond>
0.0000

> <Gold.Chemscore.DEClash>
0.0519

> <Gold.Chemscore.DEInternal>
3.5040

> <Gold.Chemscore.Rot>
3.4695

> <Gold.Chemscore.Internal.Correction>
   9.000000E+99

> <Gold.Chemscore.Hbonds>
donor molecule, donor type, donor heavy atom, donor atom, acceptor molecule, acceptor atom, score
      L1  H    26    52       P1  8028  0.91
      P1  H  7989  7998       L1     6  0.07
      P1  H 10752 10765       L1     8  0.88

> <Gold.Chemscore.Hbond.Weighted>
-8.7332

> <Gold.Chemscore.Metal.Weighted>
-0.0000

> <Gold.Chemscore.Lipo.Weighted>
-11.4486

> <Gold.Chemscore.Internal_Hbond.Weighted>
0.0000

> <Gold.Chemscore.DEClash.Weighted>
0.0519

> <Gold.Chemscore.DEInternal.Weighted>
3.5040

> <Gold.Chemscore.Rot.Weighted>
8.8820

> <Gold.Chemscore.Internal.Correction.Weighted>
   9.000000E+99

> <Gold.Protein.RotatedTorsions>
[ 6907 6896 6895 6894 ] final  -28.86 input  -60.11 | X-H torsion
[ 7974 7965 7964 7962 ] final -100.43 input  175.53 | X-H torsion
[ 8008 7997 7996 7995 ] final -178.48 input   59.86 | X-H torsion
[ 10167 10162 10161 10158 ] final  150.39 input  -65.29 | X-H torsion
[ 10718 10713 10712 10709 ] final  115.52 input   66.30 | X-H torsion
[ 10763 10752 10751 10750 ] final  155.77 input  -60.55 | X-H torsion
[ 11005 11000 10999 10996 ] final   47.82 input  -57.11 | X-H torsion

> <Gold.Protein.ActiveResidues>
 VAL166  LYS551  ARG553  GLY616  TRP617  ASP618  TYR619  PRO620  LYS621  CYS622 
 ASP623  PHE694  ASN695  SER759  ASP760  ASP761  ALA762  ILE779  LEU786  VAL792 
 PHE793  MET794  SER795  GLU796  ALA797  LYS798  CYS799  TRP800  GLU811  SER814 

> <Gold.Protein.RotatedAtoms>
  151.1271  135.0110  159.8564 H   0  0  0  0  0  0  0  0  0  0  0  0  # atno 6907 bound_to 6896
  152.5450  134.1654  159.8585 H   0  0  0  0  0  0  0  0  0  0  0  0  # atno 6908 bound_to 6896
  151.1718  133.4735  159.2627 H   0  0  0  0  0  0  0  0  0  0  0  0  # atno 6909 bound_to 6896
  145.2947  140.9362  143.2858 H   0  0  0  0  0  0  0  0  0  0  0  0  # atno 7974 bound_to 7965
  156.0193  140.1257  157.0373 H   0  0  0  0  0  0  0  0  0  0  0  0  # atno 8008 bound_to 7997
  154.4305  140.1072  156.6011 H   0  0  0  0  0  0  0  0  0  0  0  0  # atno 8009 bound_to 7997
  155.5967  140.3470  155.4584 H   0  0  0  0  0  0  0  0  0  0  0  0  # atno 8010 bound_to 7997
  139.4850  144.5526  151.7374 H   0  0  0  0  0  0  0  0  0  0  0  0  # atno 10167 bound_to 10162
  157.6217  131.1013  150.7341 H   0  0  0  0  0  0  0  0  0  0  0  0  # atno 10718 bound_to 10713
  154.1736  135.2803  155.3073 H   0  0  0  0  0  0  0  0  0  0  0  0  # atno 10763 bound_to 10752
  154.6056  135.5515  153.7423 H   0  0  0  0  0  0  0  0  0  0  0  0  # atno 10764 bound_to 10752
  153.0157  135.6402  154.1876 H   0  0  0  0  0  0  0  0  0  0  0  0  # atno 10765 bound_to 10752
  140.1245  134.4786  155.8571 H   0  0  0  0  0  0  0  0  0  0  0  0  # atno 11005 bound_to 11000
  144.9143  139.4489  143.6571 LP  0  0  0  0  0  0  0  0  0  0  0  0  # atno 17320 bound_to 7965
  146.3173  139.7969  142.8973 LP  0  0  0  0  0  0  0  0  0  0  0  0  # atno 17321 bound_to 7965
  140.5082  144.1065  150.5988 LP  0  0  0  0  0  0  0  0  0  0  0  0  # atno 17342 bound_to 10162
  140.3982  143.2717  151.9980 LP  0  0  0  0  0  0  0  0  0  0  0  0  # atno 17343 bound_to 10162
  156.7697  130.4825  149.5420 LP  0  0  0  0  0  0  0  0  0  0  0  0  # atno 17370 bound_to 10713
  156.1366  130.6215  151.0409 LP  0  0  0  0  0  0  0  0  0  0  0  0  # atno 17371 bound_to 10713
  141.2158  133.6772  156.6951 LP  0  0  0  0  0  0  0  0  0  0  0  0  # atno 17394 bound_to 11000
  140.2922  134.8231  157.4026 LP  0  0  0  0  0  0  0  0  0  0  0  0  # atno 17395 bound_to 11000

$$$$
