AV-unprocessed.smi:1554|AV-procd|sdf|6259|dock1
  -GOLD-   22720 6443D 1   1.00000     0.00000
 Structure written by MMmdl.
 49 51  0  0  0  0  0  0  0  0  3 V2000
  152.8597  141.7725  160.4623 C   0  0  0  0  0  0  0  0  0  0  0  0
  152.2233  141.3390  159.1526 C   0  0  0  0  0  0  0  0  0  0  0  0
  151.4458  142.2774  158.4375 C   0  0  0  0  0  0  0  0  0  0  0  0
  150.8775  141.8514  157.2429 C   0  0  0  0  0  0  0  0  0  0  0  0
  150.0729  142.5269  156.3237 N   0  3  0  0  0  0  0  0  0  0  0  0
  149.7568  141.6915  155.2961 C   0  0  0  0  0  0  0  0  0  0  0  0
  150.3488  140.4911  155.5443 N   0  0  0  0  0  0  0  0  0  0  0  0
  150.3238  139.2534  154.7506 C   0  0  0  0  0  0  0  0  0  0  0  0
  148.8941  138.8003  154.3941 C   0  0  1  0  0  0  0  0  0  0  0  0
  148.8444  138.4098  153.0350 O   0  0  0  0  0  0  0  0  0  0  0  0
  148.4340  137.6166  155.2681 C   0  0  0  0  0  0  0  0  0  0  0  0
  149.1032  136.3413  154.8936 N   0  3  2  0  0  0  0  0  0  0  0  0
  148.4106  135.1146  155.3650 C   0  0  0  0  0  0  0  0  0  0  0  0
  148.6912  134.8419  156.8558 C   0  0  0  0  0  0  0  0  0  0  0  0
  150.0942  134.7958  157.0848 O   0  0  0  0  0  0  0  0  0  0  0  0
  150.7413  136.0197  156.7540 C   0  0  1  0  0  0  0  0  0  0  0  0
  152.2227  135.8932  157.1268 C   0  0  0  0  0  0  0  0  0  0  0  0
  150.5428  136.2950  155.2491 C   0  0  0  0  0  0  0  0  0  0  0  0
  151.0586  140.5438  156.7511 C   0  0  0  0  0  0  0  0  0  0  0  0
  151.8233  139.6074  157.4439 C   0  0  0  0  0  0  0  0  0  0  0  0
  152.4097  140.0210  158.6618 C   0  0  0  0  0  0  0  0  0  0  0  0
  153.2479  139.0201  159.4390 C   0  0  0  0  0  0  0  0  0  0  0  0
  152.5874  142.7968  160.7192 H   0  0  0  0  0  0  0  0  0  0  0  0
  153.9468  141.7243  160.3925 H   0  0  0  0  0  0  0  0  0  0  0  0
  152.5354  141.1280  161.2797 H   0  0  0  0  0  0  0  0  0  0  0  0
  151.3008  143.2833  158.8039 H   0  0  0  0  0  0  0  0  0  0  0  0
  149.1467  141.9384  154.4390 H   0  0  0  0  0  0  0  0  0  0  0  0
  150.9365  139.3816  153.8582 H   0  0  0  0  0  0  0  0  0  0  0  0
  150.8156  138.4846  155.3479 H   0  0  0  0  0  0  0  0  0  0  0  0
  148.2232  139.6489  154.5243 H   0  0  0  0  0  0  0  0  0  0  0  0
  148.9043  139.1823  152.4938 H   0  0  0  0  0  0  0  0  0  0  0  0
  148.6501  137.8553  156.3105 H   0  0  0  0  0  0  0  0  0  0  0  0
  147.3519  137.4991  155.2074 H   0  0  0  0  0  0  0  0  0  0  0  0
  147.3383  135.1703  155.1816 H   0  0  0  0  0  0  0  0  0  0  0  0
  148.7761  134.2732  154.7751 H   0  0  0  0  0  0  0  0  0  0  0  0
  148.2315  135.5970  157.4945 H   0  0  0  0  0  0  0  0  0  0  0  0
  148.2588  133.8839  157.1455 H   0  0  0  0  0  0  0  0  0  0  0  0
  150.3068  136.8286  157.3438 H   0  0  0  0  0  0  0  0  0  0  0  0
  152.7643  136.8119  156.8995 H   0  0  0  0  0  0  0  0  0  0  0  0
  152.7007  135.0790  156.5815 H   0  0  0  0  0  0  0  0  0  0  0  0
  152.3408  135.6942  158.1922 H   0  0  0  0  0  0  0  0  0  0  0  0
  151.0098  135.4976  154.6692 H   0  0  0  0  0  0  0  0  0  0  0  0
  151.0404  137.2187  154.9508 H   0  0  0  0  0  0  0  0  0  0  0  0
  151.9699  138.6042  157.0732 H   0  0  0  0  0  0  0  0  0  0  0  0
  153.3261  138.0692  158.9109 H   0  0  0  0  0  0  0  0  0  0  0  0
  152.8020  138.8240  160.4145 H   0  0  0  0  0  0  0  0  0  0  0  0
  154.2585  139.4001  159.5899 H   0  0  0  0  0  0  0  0  0  0  0  0
  149.0707  136.3213  153.8837 H   0  0  0  0  0  0  0  0  0  0  0  0
  149.7606  143.4874  156.3909 H   0  0  0  0  0  0  0  0  0  0  0  0
  1  2  1  0  0  0  0
  1 23  1  0  0  0  0
  1 24  1  0  0  0  0
  1 25  1  0  0  0  0
  2 21  1  0  0  0  0
  2  3  2  0  0  0  0
  3  4  1  0  0  0  0
  3 26  1  0  0  0  0
  4 19  2  0  0  0  0
  4  5  1  0  0  0  0
  5  6  2  0  0  0  0
  5 49  1  0  0  0  0
  6  7  1  0  0  0  0
  6 27  1  0  0  0  0
  7  8  1  0  0  0  0
  7 19  1  0  0  0  0
  8  9  1  0  0  0  0
  8 28  1  0  0  0  0
  8 29  1  0  0  0  0
  9 10  1  0  0  0  0
  9 11  1  0  0  0  0
  9 30  1  0  0  0  0
 10 31  1  0  0  0  0
 11 12  1  0  0  0  0
 11 32  1  0  0  0  0
 11 33  1  0  0  0  0
 12 18  1  0  0  0  0
 12 13  1  0  0  0  0
 12 48  1  0  0  0  0
 13 14  1  0  0  0  0
 13 34  1  0  0  0  0
 13 35  1  0  0  0  0
 14 15  1  0  0  0  0
 14 36  1  0  0  0  0
 14 37  1  0  0  0  0
 15 16  1  0  0  0  0
 16 17  1  0  0  0  0
 16 18  1  0  0  0  0
 16 38  1  0  0  0  0
 17 39  1  0  0  0  0
 17 40  1  0  0  0  0
 17 41  1  0  0  0  0
 18 42  1  0  0  0  0
 18 43  1  0  0  0  0
 19 20  1  0  0  0  0
 20 21  2  0  0  0  0
 20 44  1  0  0  0  0
 21 22  1  0  0  0  0
 22 45  1  0  0  0  0
 22 46  1  0  0  0  0
 22 47  1  0  0  0  0
M  CHG  1   5   1
M  CHG  1  12   1
M  END
> <s_m_source_file>
AV-unprocessed.smi

> <i_m_source_file_index>
1554

> <i_lp_mmshare_version>
43012

> <i_f3d_flags>
0

> <s_epik_input>
W0NIM11jKFtjSF0xKWMoW0NIM10pW2NIXWMoYzEyKW4oW2NIXW4yKVtDSDJdW0NASF0oW09IXSlbQ0gyXU4zW0NIMl1bQ0gyXU9bQ0BASF0oW0NIM10pW0NIMl0z

> <s_epik_cmdline>
J2VwaWtfcHl0aG9uJywgJy1waCcsICc3LjAnLCAnLXRuJywgJzgnLCAnLW1hJywgJzIwMCcsICctbWV0YWxfYmluZGluZycsICctaW1hZScsICc8aW5maWxlLm1hZT4nLCAnLW9tYWUnLCAnPG91dGZpbGUubWFlPic=

> <r_epik_Ionization_Penalty>
1.8848

> <r_epik_Ionization_Penalty_Charging>
1.88479

> <r_epik_Ionization_Penalty_Neutral>
1.42224e-05

> <r_epik_State_Penalty>
1.94551

> <r_epik_Charging_Adjusted_Penalty>
3.8303

> <i_epik_Tot_Q>
2

> <i_epik_Tot_abs_Q>
2

> <r_epik_Metal_State_Penalty>
5.95849

> <b_epik_Metal_Only>
0

> <s_lp_Force_Field>
OPLS_2005

> <r_lp_Energy>
32.9811

> <b_lp_Chiralities_Consistent>
1

> <s_lp_Variant>
AV-unprocessed.smi:1554-20

> <Gold.Version>
5.8.1

> <Gold.Id.Protein>
6NUR|6NUR_protein|mol2

> <Gold.PLP.Fitness>
49.4253

> <Gold.PLP.PLP>
-35.7112

> <Gold.PLP.part.hbond>
-4.1211

> <Gold.PLP.part.metal>
0.0000

> <Gold.PLP.part.buried>
-2.9842

> <Gold.PLP.part.nonpolar>
-28.5546

> <Gold.PLP.part.repulsive>
0.1214

> <Gold.PLP.ligand.clash>
0.0000

> <Gold.PLP.ligand.torsion>
0.8716

> <Gold.PLP.Chemscore.Hbond>
5.0811

> <Gold.PLP.Chemscore.CHOScore>
0.0000

> <Gold.PLP.Chemscore.Metal>
0.0000

> <Gold.Chemscore.Hbonds>
donor molecule, donor type, donor heavy atom, donor atom, acceptor molecule, acceptor atom, score
      L1  H     5    49       P1  8028  1.86
      L1  H    10    31       P1  7957  0.99
      L1  H    12    48       P1  7948  2.00
      P1  H  6896  6907       L1    15  0.01

> <Gold.PLP.Chemscore.Internal.Correction>
0.2140

> <Gold.Rescore>
     Score         DG    S(hbond)    S(metal)    S(lipo)     H(rot)  DE(clash)    DE(int)     intcor
     19.46     -20.45       2.95        0.00      89.92       2.11       0.07       0.93       ----

> <Gold.Chemscore.Fitness>
19.4592

> <Gold.Chemscore.DG>
-20.4498

> <Gold.Chemscore.ZeroCoef>
-5.4800

> <Gold.Chemscore.Hbond>
2.9512

> <Gold.Chemscore.Metal>
0.0000

> <Gold.Chemscore.Lipo>
89.9151

> <Gold.Chemscore.Internal_Hbond>
0.0000

> <Gold.Chemscore.DEClash>
0.0650

> <Gold.Chemscore.DEInternal>
0.9255

> <Gold.Chemscore.Rot>
2.1122

> <Gold.Chemscore.Internal.Correction>
   9.000000E+99

> <Gold.Chemscore.Hbonds>
donor molecule, donor type, donor heavy atom, donor atom, acceptor molecule, acceptor atom, score
      L1  H     5    49       P1  8028  0.91
      L1  H    10    31       P1  7957  0.94
      L1  H    12    48       P1  7948  0.94
      P1  H  6896  6907       L1    15  0.04

> <Gold.Chemscore.Hbond.Weighted>
-9.8570

> <Gold.Chemscore.Metal.Weighted>
-0.0000

> <Gold.Chemscore.Lipo.Weighted>
-10.5201

> <Gold.Chemscore.Internal_Hbond.Weighted>
0.0000

> <Gold.Chemscore.DEClash.Weighted>
0.0650

> <Gold.Chemscore.DEInternal.Weighted>
0.9255

> <Gold.Chemscore.Rot.Weighted>
5.4073

> <Gold.Chemscore.Internal.Correction.Weighted>
   9.000000E+99

> <Gold.Protein.RotatedTorsions>
[ 6907 6896 6895 6894 ] final  -99.75 input  -60.11 | X-H torsion
[ 7974 7965 7964 7962 ] final  -26.35 input  175.53 | X-H torsion
[ 8008 7997 7996 7995 ] final  140.96 input   59.86 | X-H torsion
[ 10167 10162 10161 10158 ] final -159.42 input  -65.29 | X-H torsion
[ 10718 10713 10712 10709 ] final   43.37 input   66.30 | X-H torsion
[ 10763 10752 10751 10750 ] final -162.83 input  -60.55 | X-H torsion
[ 11005 11000 10999 10996 ] final  -53.42 input  -57.11 | X-H torsion

> <Gold.Protein.ActiveResidues>
 VAL166  LYS551  ARG553  GLY616  TRP617  ASP618  TYR619  PRO620  LYS621  CYS622 
 ASP623  PHE694  ASN695  SER759  ASP760  ASP761  ALA762  ILE779  LEU786  VAL792 
 PHE793  MET794  SER795  GLU796  ALA797  LYS798  CYS799  TRP800  GLU811  SER814 

> <Gold.Protein.RotatedAtoms>
  150.7091  134.0993  159.3959 H   0  0  0  0  0  0  0  0  0  0  0  0  # atno 6907 bound_to 6896
  151.8979  135.0388  160.0513 H   0  0  0  0  0  0  0  0  0  0  0  0  # atno 6908 bound_to 6896
  152.2438  133.5122  159.5322 H   0  0  0  0  0  0  0  0  0  0  0  0  # atno 6909 bound_to 6896
  146.1431  140.5008  142.8643 H   0  0  0  0  0  0  0  0  0  0  0  0  # atno 7974 bound_to 7965
  156.2972  140.2328  156.4486 H   0  0  0  0  0  0  0  0  0  0  0  0  # atno 8008 bound_to 7997
  154.8121  140.0442  157.1371 H   0  0  0  0  0  0  0  0  0  0  0  0  # atno 8009 bound_to 7997
  154.9411  140.3029  155.5124 H   0  0  0  0  0  0  0  0  0  0  0  0  # atno 8010 bound_to 7997
  139.6617  143.9902  152.2229 H   0  0  0  0  0  0  0  0  0  0  0  0  # atno 10167 bound_to 10162
  157.4152  130.7937  149.7466 H   0  0  0  0  0  0  0  0  0  0  0  0  # atno 10718 bound_to 10713
  154.7178  135.3019  154.9095 H   0  0  0  0  0  0  0  0  0  0  0  0  # atno 10763 bound_to 10752
  153.9976  135.6711  153.4761 H   0  0  0  0  0  0  0  0  0  0  0  0  # atno 10764 bound_to 10752
  153.0808  135.5010  154.8416 H   0  0  0  0  0  0  0  0  0  0  0  0  # atno 10765 bound_to 10752
  141.0975  133.6622  156.4169 H   0  0  0  0  0  0  0  0  0  0  0  0  # atno 11005 bound_to 11000
  144.7815  140.5850  143.6602 LP  0  0  0  0  0  0  0  0  0  0  0  0  # atno 17320 bound_to 7965
  145.5000  139.1484  143.3662 LP  0  0  0  0  0  0  0  0  0  0  0  0  # atno 17321 bound_to 7965
  139.9642  144.6537  150.8050 LP  0  0  0  0  0  0  0  0  0  0  0  0  # atno 17342 bound_to 10162
  140.7582  143.3103  151.2861 LP  0  0  0  0  0  0  0  0  0  0  0  0  # atno 17343 bound_to 10162
  155.9863  130.3976  150.3220 LP  0  0  0  0  0  0  0  0  0  0  0  0  # atno 17370 bound_to 10713
  157.1362  131.0285  151.2948 LP  0  0  0  0  0  0  0  0  0  0  0  0  # atno 17371 bound_to 10713
  140.5105  134.6400  157.5282 LP  0  0  0  0  0  0  0  0  0  0  0  0  # atno 17394 bound_to 11000
  139.9816  134.7129  155.9850 LP  0  0  0  0  0  0  0  0  0  0  0  0  # atno 17395 bound_to 11000

$$$$
