AV-unprocessed.smi:3316|AV-procd|sdf|12760|dock4
  -GOLD-   2272019 93D 1   1.00000     0.00000
 Structure written by MMmdl.
 41 43  0  0  0  0  0  0  0  0  2 V2000
  148.3550  140.5065  154.0660 C   0  0  0  0  0  0  0  0  0  0  0  0
  149.5998  140.8375  154.9037 C   0  0  1  0  0  0  0  0  0  0  0  0
  149.2277  141.1713  156.3617 C   0  0  0  0  0  0  0  0  0  0  0  0
  149.9577  142.3616  156.8428 N   0  3  0  0  0  0  0  0  0  0  0  0
  149.8128  142.6215  158.2874 C   0  0  0  0  0  0  0  0  0  0  0  0
  150.3900  144.0004  158.6585 C   0  0  1  0  0  0  0  0  0  0  0  0
  150.2099  144.3774  160.1609 C   0  0  0  0  0  0  0  0  0  0  0  0
  151.6469  144.7380  160.6041 C   0  0  1  0  0  0  0  0  0  0  0  0
  152.4658  143.4649  160.5917 C   0  0  0  0  0  0  0  0  0  0  0  0
  152.6347  143.1145  159.3158 C   0  0  0  0  0  0  0  0  0  0  0  0
  151.9244  144.1493  158.4661 C   0  0  2  0  0  0  0  0  0  0  0  0
  152.1632  145.3988  159.3219 C   0  0  0  0  0  0  0  0  0  0  0  0
  150.6334  139.7199  154.8223 C   0  0  0  0  0  0  0  0  0  0  0  0
  151.8417  139.8070  155.5460 C   0  0  0  0  0  0  0  0  0  0  0  0
  152.7620  138.7435  155.4545 C   0  0  0  0  0  0  0  0  0  0  0  0
  152.5456  137.6384  154.7100 N   0  0  0  0  0  0  0  0  0  0  0  0
  151.3899  137.5601  154.0171 C   0  0  0  0  0  0  0  0  0  0  0  0
  150.4045  138.5673  154.0395 C   0  0  0  0  0  0  0  0  0  0  0  0
  148.6222  140.3217  153.0251 H   0  0  0  0  0  0  0  0  0  0  0  0
  147.6413  141.3307  154.0800 H   0  0  0  0  0  0  0  0  0  0  0  0
  147.8420  139.6199  154.4400 H   0  0  0  0  0  0  0  0  0  0  0  0
  150.0459  141.7327  154.4673 H   0  0  0  0  0  0  0  0  0  0  0  0
  148.1565  141.3592  156.4439 H   0  0  0  0  0  0  0  0  0  0  0  0
  149.4506  140.3235  157.0112 H   0  0  0  0  0  0  0  0  0  0  0  0
  150.9395  142.2235  156.6491 H   0  0  0  0  0  0  0  0  0  0  0  0
  148.7546  142.5797  158.5481 H   0  0  0  0  0  0  0  0  0  0  0  0
  150.3067  141.8308  158.8533 H   0  0  0  0  0  0  0  0  0  0  0  0
  149.8881  144.7566  158.0517 H   0  0  0  0  0  0  0  0  0  0  0  0
  149.5414  145.2330  160.2654 H   0  0  0  0  0  0  0  0  0  0  0  0
  149.7982  143.5616  160.7573 H   0  0  0  0  0  0  0  0  0  0  0  0
  151.7397  145.3342  161.5122 H   0  0  0  0  0  0  0  0  0  0  0  0
  152.8080  142.9424  161.4730 H   0  0  0  0  0  0  0  0  0  0  0  0
  153.1426  142.2427  158.9301 H   0  0  0  0  0  0  0  0  0  0  0  0
  152.2790  144.2189  157.4373 H   0  0  0  0  0  0  0  0  0  0  0  0
  151.5839  146.2701  159.0092 H   0  0  0  0  0  0  0  0  0  0  0  0
  153.2167  145.6803  159.3817 H   0  0  0  0  0  0  0  0  0  0  0  0
  152.0660  140.6670  156.1600 H   0  0  0  0  0  0  0  0  0  0  0  0
  153.6955  138.7808  155.9960 H   0  0  0  0  0  0  0  0  0  0  0  0
  151.2440  136.6665  153.4285 H   0  0  0  0  0  0  0  0  0  0  0  0
  149.4966  138.4514  153.4663 H   0  0  0  0  0  0  0  0  0  0  0  0
  149.6401  143.1720  156.3305 H   0  0  0  0  0  0  0  0  0  0  0  0
  1  2  1  0  0  0  0
  1 19  1  0  0  0  0
  1 20  1  0  0  0  0
  1 21  1  0  0  0  0
  2  3  1  0  0  0  0
  2 13  1  0  0  0  0
  2 22  1  0  0  0  0
  3  4  1  0  0  0  0
  3 23  1  0  0  0  0
  3 24  1  0  0  0  0
  4  5  1  0  0  0  0
  4 25  1  0  0  0  0
  4 41  1  0  0  0  0
  5  6  1  0  0  0  0
  5 26  1  0  0  0  0
  5 27  1  0  0  0  0
  6 11  1  0  0  0  0
  6  7  1  0  0  0  0
  6 28  1  0  0  0  0
  7  8  1  0  0  0  0
  7 29  1  0  0  0  0
  7 30  1  0  0  0  0
  8 12  1  0  0  0  0
  8  9  1  0  0  0  0
  8 31  1  0  0  0  0
  9 10  2  0  0  0  0
  9 32  1  0  0  0  0
 10 11  1  0  0  0  0
 10 33  1  0  0  0  0
 11 12  1  0  0  0  0
 11 34  1  0  0  0  0
 12 35  1  0  0  0  0
 12 36  1  0  0  0  0
 13 18  1  0  0  0  0
 13 14  2  0  0  0  0
 14 15  1  0  0  0  0
 14 37  1  0  0  0  0
 15 16  2  0  0  0  0
 15 38  1  0  0  0  0
 16 17  1  0  0  0  0
 17 18  2  0  0  0  0
 17 39  1  0  0  0  0
 18 40  1  0  0  0  0
M  CHG  1   4   1
M  END
> <s_m_source_file>
AV-unprocessed.smi

> <i_m_source_file_index>
3316

> <i_lp_mmshare_version>
43012

> <i_f3d_flags>
0

> <s_epik_input>
W2NIXTFbY0hdbltjSF1bY0hdYzFbQ0BIXShbQ0gzXSlbQ0gyXVtOSF1bQ0gyXVtDQEhdKFtDSDJdW0NASF0yMylbQ0BIXShbQ0gyXTMpW0NIXT1bQ0hdMg==

> <s_epik_cmdline>
J2VwaWtfcHl0aG9uJywgJy1waCcsICc3LjAnLCAnLXRuJywgJzgnLCAnLW1hJywgJzIwMCcsICctbWV0YWxfYmluZGluZycsICctaW1hZScsICc8aW5maWxlLm1hZT4nLCAnLW9tYWUnLCAnPG91dGZpbGUubWFlPic=

> <r_lp_tautomer_probability>
1

> <r_epik_Ionization_Penalty>
0.00280406

> <r_epik_Ionization_Penalty_Charging>
0.000446589

> <r_epik_Ionization_Penalty_Neutral>
0.00235747

> <r_epik_State_Penalty>
-0

> <r_epik_Charging_Adjusted_Penalty>
0.000446589

> <i_epik_Tot_Q>
1

> <i_epik_Tot_abs_Q>
1

> <r_epik_Metal_State_Penalty>
-0

> <b_epik_Metal_Only>
0

> <s_lp_Force_Field>
OPLS_2005

> <r_lp_Energy>
65.5471

> <b_lp_Chiralities_Consistent>
1

> <s_lp_Variant>
AV-unprocessed.smi:3316-8

> <Gold.Version>
5.8.1

> <Gold.Id.Protein>
6NUR|6NUR_protein|mol2

> <Gold.PLP.Fitness>
56.7923

> <Gold.PLP.PLP>
-47.2838

> <Gold.PLP.part.hbond>
-2.0000

> <Gold.PLP.part.metal>
0.0000

> <Gold.PLP.part.buried>
-3.6299

> <Gold.PLP.part.nonpolar>
-43.6667

> <Gold.PLP.part.repulsive>
0.1042

> <Gold.PLP.ligand.clash>
0.0000

> <Gold.PLP.ligand.torsion>
0.6891

> <Gold.PLP.Chemscore.Hbond>
2.5995

> <Gold.PLP.Chemscore.CHOScore>
1.0000

> <Gold.PLP.Chemscore.Metal>
0.0000

> <Gold.Chemscore.Hbonds>
donor molecule, donor type, donor heavy atom, donor atom, acceptor molecule, acceptor atom, score
      L1  H     4    41       P1  8028  2.00
      P1  H 10752 10763       L1    16  0.34
      L1  C    17    39       P1  7949  1.00

> <Gold.PLP.Chemscore.Internal.Correction>
0.0882

> <Gold.Rescore>
     Score         DG    S(hbond)    S(metal)    S(lipo)     H(rot)  DE(clash)    DE(int)     intcor
     21.02     -22.03       1.00        0.00     142.79       1.36       0.49       0.51       ----

> <Gold.Chemscore.Fitness>
21.0224

> <Gold.Chemscore.DG>
-22.0275

> <Gold.Chemscore.ZeroCoef>
-5.4800

> <Gold.Chemscore.Hbond>
0.9978

> <Gold.Chemscore.Metal>
0.0000

> <Gold.Chemscore.Lipo>
142.7918

> <Gold.Chemscore.Internal_Hbond>
0.0000

> <Gold.Chemscore.DEClash>
0.4923

> <Gold.Chemscore.DEInternal>
0.5128

> <Gold.Chemscore.Rot>
1.3640

> <Gold.Chemscore.Internal.Correction>
   9.000000E+99

> <Gold.Chemscore.Hbonds>
donor molecule, donor type, donor heavy atom, donor atom, acceptor molecule, acceptor atom, score
      L1  H     4    41       P1  8028  1.00
      P1  H 10752 10763       L1    16  0.03

> <Gold.Chemscore.Hbond.Weighted>
-3.3327

> <Gold.Chemscore.Metal.Weighted>
-0.0000

> <Gold.Chemscore.Lipo.Weighted>
-16.7066

> <Gold.Chemscore.Internal_Hbond.Weighted>
0.0000

> <Gold.Chemscore.DEClash.Weighted>
0.4923

> <Gold.Chemscore.DEInternal.Weighted>
0.5128

> <Gold.Chemscore.Rot.Weighted>
3.4919

> <Gold.Chemscore.Internal.Correction.Weighted>
   9.000000E+99

> <Gold.Protein.RotatedTorsions>
[ 6907 6896 6895 6894 ] final  -85.93 input  -60.11 | X-H torsion
[ 7974 7965 7964 7962 ] final  151.70 input  175.53 | X-H torsion
[ 8008 7997 7996 7995 ] final   51.58 input   59.86 | X-H torsion
[ 10167 10162 10161 10158 ] final  -28.80 input  -65.29 | X-H torsion
[ 10718 10713 10712 10709 ] final  -63.83 input   66.30 | X-H torsion
[ 10763 10752 10751 10750 ] final   51.65 input  -60.55 | X-H torsion
[ 11005 11000 10999 10996 ] final   73.20 input  -57.11 | X-H torsion

> <Gold.Protein.ActiveResidues>
 VAL166  LYS551  ARG553  GLY616  TRP617  ASP618  TYR619  PRO620  LYS621  CYS622 
 ASP623  PHE694  ASN695  SER759  ASP760  ASP761  ALA762  ILE779  LEU786  VAL792 
 PHE793  MET794  SER795  GLU796  ALA797  LYS798  CYS799  TRP800  GLU811  SER814 

> <Gold.Protein.RotatedAtoms>
  150.6868  134.3128  159.4753 H   0  0  0  0  0  0  0  0  0  0  0  0  # atno 6907 bound_to 6896
  152.1012  134.9337  160.0578 H   0  0  0  0  0  0  0  0  0  0  0  0  # atno 6908 bound_to 6896
  152.0616  133.4030  159.4457 H   0  0  0  0  0  0  0  0  0  0  0  0  # atno 6909 bound_to 6896
  144.8274  139.6572  143.6074 H   0  0  0  0  0  0  0  0  0  0  0  0  # atno 7974 bound_to 7965
  155.4376  140.3453  155.4286 H   0  0  0  0  0  0  0  0  0  0  0  0  # atno 8008 bound_to 7997
  156.1298  140.1511  156.9112 H   0  0  0  0  0  0  0  0  0  0  0  0  # atno 8009 bound_to 7997
  154.4886  140.0848  156.7523 H   0  0  0  0  0  0  0  0  0  0  0  0  # atno 8010 bound_to 7997
  140.7266  143.3980  151.1313 H   0  0  0  0  0  0  0  0  0  0  0  0  # atno 10167 bound_to 10162
  156.0766  130.4225  150.1334 H   0  0  0  0  0  0  0  0  0  0  0  0  # atno 10718 bound_to 10713
  152.9786  135.5839  154.4450 H   0  0  0  0  0  0  0  0  0  0  0  0  # atno 10763 bound_to 10752
  154.4046  135.2769  155.2077 H   0  0  0  0  0  0  0  0  0  0  0  0  # atno 10764 bound_to 10752
  154.3893  135.6129  153.5888 H   0  0  0  0  0  0  0  0  0  0  0  0  # atno 10765 bound_to 10752
  139.9452  134.7326  156.0998 H   0  0  0  0  0  0  0  0  0  0  0  0  # atno 11005 bound_to 11000
  146.2579  139.6343  142.9382 LP  0  0  0  0  0  0  0  0  0  0  0  0  # atno 17320 bound_to 7965
  145.4970  141.0438  143.2561 LP  0  0  0  0  0  0  0  0  0  0  0  0  # atno 17321 bound_to 7965
  139.7596  143.8656  152.3097 LP  0  0  0  0  0  0  0  0  0  0  0  0  # atno 17342 bound_to 10162
  139.8537  144.7152  150.9183 LP  0  0  0  0  0  0  0  0  0  0  0  0  # atno 17343 bound_to 10162
  156.9374  130.9733  151.3522 LP  0  0  0  0  0  0  0  0  0  0  0  0  # atno 17370 bound_to 10713
  157.5864  130.8413  149.8596 LP  0  0  0  0  0  0  0  0  0  0  0  0  # atno 17371 bound_to 10713
  141.1100  133.6646  156.2955 LP  0  0  0  0  0  0  0  0  0  0  0  0  # atno 17394 bound_to 11000
  140.5853  134.5705  157.5488 LP  0  0  0  0  0  0  0  0  0  0  0  0  # atno 17395 bound_to 11000

$$$$
