AV-unprocessed.smi:657|AV-procd|sdf|3225|dock9
  -GOLD-   22720 0163D 1   1.00000     0.00000
 Structure written by MMmdl.
 46 47  0  0  0  0  0  0  0  0  1 V2000
  142.0561  135.0533  153.4265 C   0  0  0  0  0  0  0  0  0  0  0  0
  143.5554  135.3823  153.3004 C   0  0  0  0  0  0  0  0  0  0  0  0
  143.7874  136.6957  152.5255 C   0  0  0  0  0  0  0  0  0  0  0  0
  144.3188  134.2344  152.7603 N   0  0  0  0  0  0  0  0  0  0  0  0
  143.8946  133.8338  151.4076 C   0  0  0  0  0  0  0  0  0  0  0  0
  144.5009  132.4752  151.0181 C   0  0  0  0  0  0  0  0  0  0  0  0
  146.0289  132.5268  151.0571 C   0  0  0  0  0  0  0  0  0  0  0  0
  146.4786  133.0054  152.4392 C   0  0  0  0  0  0  0  0  0  0  0  0
  145.8134  134.3517  152.8108 C   0  0  2  0  0  0  0  0  0  0  0  0
  146.3794  134.8400  154.1585 C   0  0  0  0  0  0  0  0  0  0  0  0
  145.8178  134.5441  155.2140 O   0  0  0  0  0  0  0  0  0  0  0  0
  147.4785  135.6084  154.1024 N   0  0  0  0  0  0  0  0  0  0  0  0
  148.1575  136.1882  155.2544 C   0  0  0  0  0  0  0  0  0  0  0  0
  149.6620  136.3607  154.9939 C   0  0  0  0  0  0  0  0  0  0  0  0
  150.0578  137.8104  155.0053 C   0  0  0  0  0  0  0  0  0  0  0  0
  149.9510  138.7535  153.9436 C   0  0  0  0  0  0  0  0  0  0  0  0
  150.3944  139.9549  154.2761 N   0  0  0  0  0  0  0  0  0  0  0  0
  150.7974  139.8216  155.5564 N   0  0  0  0  0  0  0  0  0  0  0  0
  151.3495  140.9635  156.2531 C   0  0  0  0  0  0  0  0  0  0  0  0
  150.6064  138.5388  156.0228 C   0  0  0  0  0  0  0  0  0  0  0  0
  141.5500  135.8095  154.0273 H   0  0  0  0  0  0  0  0  0  0  0  0
  141.9019  134.0918  153.9175 H   0  0  0  0  0  0  0  0  0  0  0  0
  141.5481  135.0285  152.4630 H   0  0  0  0  0  0  0  0  0  0  0  0
  143.8666  135.5542  154.3294 H   0  0  0  0  0  0  0  0  0  0  0  0
  143.2781  137.5237  153.0190 H   0  0  0  0  0  0  0  0  0  0  0  0
  143.4005  136.6447  151.5078 H   0  0  0  0  0  0  0  0  0  0  0  0
  144.8435  136.9579  152.4714 H   0  0  0  0  0  0  0  0  0  0  0  0
  142.8127  133.7383  151.3437 H   0  0  0  0  0  0  0  0  0  0  0  0
  144.1865  134.5886  150.6764 H   0  0  0  0  0  0  0  0  0  0  0  0
  144.1379  131.7015  151.6963 H   0  0  0  0  0  0  0  0  0  0  0  0
  144.1667  132.1922  150.0196 H   0  0  0  0  0  0  0  0  0  0  0  0
  146.4488  131.5445  150.8393 H   0  0  0  0  0  0  0  0  0  0  0  0
  146.3984  133.2068  150.2886 H   0  0  0  0  0  0  0  0  0  0  0  0
  146.2264  132.2439  153.1793 H   0  0  0  0  0  0  0  0  0  0  0  0
  147.5655  133.1002  152.4516 H   0  0  0  0  0  0  0  0  0  0  0  0
  146.1186  135.0796  152.0563 H   0  0  0  0  0  0  0  0  0  0  0  0
  147.8678  135.8116  153.1933 H   0  0  0  0  0  0  0  0  0  0  0  0
  147.7021  137.1576  155.4595 H   0  0  0  0  0  0  0  0  0  0  0  0
  147.9889  135.5729  156.1399 H   0  0  0  0  0  0  0  0  0  0  0  0
  150.2276  135.8083  155.7452 H   0  0  0  0  0  0  0  0  0  0  0  0
  149.9164  135.9038  154.0369 H   0  0  0  0  0  0  0  0  0  0  0  0
  149.5671  138.5999  152.9457 H   0  0  0  0  0  0  0  0  0  0  0  0
  151.6252  140.6839  157.2702 H   0  0  0  0  0  0  0  0  0  0  0  0
  150.6101  141.7640  156.2937 H   0  0  0  0  0  0  0  0  0  0  0  0
  152.2374  141.3210  155.7308 H   0  0  0  0  0  0  0  0  0  0  0  0
  150.8749  138.2519  157.0289 H   0  0  0  0  0  0  0  0  0  0  0  0
  1  2  1  0  0  0  0
  1 21  1  0  0  0  0
  1 22  1  0  0  0  0
  1 23  1  0  0  0  0
  2  3  1  0  0  0  0
  2  4  1  0  0  0  0
  2 24  1  0  0  0  0
  3 25  1  0  0  0  0
  3 26  1  0  0  0  0
  3 27  1  0  0  0  0
  4  9  1  0  0  0  0
  4  5  1  0  0  0  0
  5  6  1  0  0  0  0
  5 28  1  0  0  0  0
  5 29  1  0  0  0  0
  6  7  1  0  0  0  0
  6 30  1  0  0  0  0
  6 31  1  0  0  0  0
  7  8  1  0  0  0  0
  7 32  1  0  0  0  0
  7 33  1  0  0  0  0
  8  9  1  0  0  0  0
  8 34  1  0  0  0  0
  8 35  1  0  0  0  0
  9 10  1  0  0  0  0
  9 36  1  0  0  0  0
 10 11  2  0  0  0  0
 10 12  1  0  0  0  0
 12 13  1  0  0  0  0
 12 37  1  0  0  0  0
 13 14  1  0  0  0  0
 13 38  1  0  0  0  0
 13 39  1  0  0  0  0
 14 15  1  0  0  0  0
 14 40  1  0  0  0  0
 14 41  1  0  0  0  0
 15 20  2  0  0  0  0
 15 16  1  0  0  0  0
 16 17  2  0  0  0  0
 16 42  1  0  0  0  0
 17 18  1  0  0  0  0
 18 19  1  0  0  0  0
 18 20  1  0  0  0  0
 19 43  1  0  0  0  0
 19 44  1  0  0  0  0
 19 45  1  0  0  0  0
 20 46  1  0  0  0  0
M  END
> <s_m_source_file>
AV-unprocessed.smi

> <i_m_source_file_index>
657

> <i_lp_mmshare_version>
43012

> <i_f3d_flags>
0

> <s_epik_input>
W0NIM11bQ0hdKFtDSDNdKU4xW0NIMl1bQ0gyXVtDSDJdW0NIMl1bQ0BIXTFDKD1PKVtOSF1bQ0gyXVtDSDJdYzJbY0hdbm4oW0NIM10pW2NIXTI=

> <s_epik_cmdline>
J2VwaWtfcHl0aG9uJywgJy1waCcsICc3LjAnLCAnLXRuJywgJzgnLCAnLW1hJywgJzIwMCcsICctbWV0YWxfYmluZGluZycsICctaW1hZScsICc8aW5maWxlLm1hZT4nLCAnLW9tYWUnLCAnPG91dGZpbGUubWFlPic=

> <r_lp_tautomer_probability>
1

> <r_epik_Ionization_Penalty>
1.91154

> <r_epik_Ionization_Penalty_Charging>
0

> <r_epik_Ionization_Penalty_Neutral>
1.91154

> <r_epik_State_Penalty>
2.0331

> <r_epik_Charging_Adjusted_Penalty>
2.0331

> <i_epik_Tot_Q>
0

> <i_epik_Tot_abs_Q>
0

> <r_epik_Metal_State_Penalty>
2.04973

> <b_epik_Metal_Only>
0

> <s_lp_Force_Field>
OPLS_2005

> <r_lp_Energy>
15.3254

> <b_lp_Chiralities_Consistent>
1

> <s_lp_Variant>
AV-unprocessed.smi:657-6

> <Gold.Version>
5.8.1

> <Gold.Id.Protein>
6NUR|6NUR_protein|mol2

> <Gold.PLP.Fitness>
38.8441

> <Gold.PLP.PLP>
-30.0160

> <Gold.PLP.part.hbond>
-2.0000

> <Gold.PLP.part.metal>
0.0000

> <Gold.PLP.part.buried>
-6.0901

> <Gold.PLP.part.nonpolar>
-23.6012

> <Gold.PLP.part.repulsive>
0.2640

> <Gold.PLP.ligand.clash>
0.0000

> <Gold.PLP.ligand.torsion>
1.6476

> <Gold.PLP.Chemscore.Hbond>
2.0000

> <Gold.PLP.Chemscore.CHOScore>
2.0000

> <Gold.PLP.Chemscore.Metal>
0.0000

> <Gold.Chemscore.Hbonds>
donor molecule, donor type, donor heavy atom, donor atom, acceptor molecule, acceptor atom, score
      L1  H    12    37       P1  7948  1.00
      P1  H  7989  7998       L1    17  1.00
      L1  C    16    42       P1  7948  0.69
      L1  C    16    42       P1  7957  0.99

> <Gold.PLP.Chemscore.Internal.Correction>
0.1234

> <Gold.Rescore>
     Score         DG    S(hbond)    S(metal)    S(lipo)     H(rot)  DE(clash)    DE(int)     intcor
     15.30     -16.79       1.98        0.00      74.53       1.57       0.00       1.49       ----

> <Gold.Chemscore.Fitness>
15.2960

> <Gold.Chemscore.DG>
-16.7891

> <Gold.Chemscore.ZeroCoef>
-5.4800

> <Gold.Chemscore.Hbond>
1.9813

> <Gold.Chemscore.Metal>
0.0000

> <Gold.Chemscore.Lipo>
74.5284

> <Gold.Chemscore.Internal_Hbond>
0.0000

> <Gold.Chemscore.DEClash>
0.0004

> <Gold.Chemscore.DEInternal>
1.4927

> <Gold.Chemscore.Rot>
1.5736

> <Gold.Chemscore.Internal.Correction>
   9.000000E+99

> <Gold.Chemscore.Hbonds>
donor molecule, donor type, donor heavy atom, donor atom, acceptor molecule, acceptor atom, score
      L1  H    12    37       P1  7948  1.00
      P1  H  7989  7998       L1    17  0.55

> <Gold.Chemscore.Hbond.Weighted>
-6.6177

> <Gold.Chemscore.Metal.Weighted>
-0.0000

> <Gold.Chemscore.Lipo.Weighted>
-8.7198

> <Gold.Chemscore.Internal_Hbond.Weighted>
0.0000

> <Gold.Chemscore.DEClash.Weighted>
0.0004

> <Gold.Chemscore.DEInternal.Weighted>
1.4927

> <Gold.Chemscore.Rot.Weighted>
4.0284

> <Gold.Chemscore.Internal.Correction.Weighted>
   9.000000E+99

> <Gold.Protein.RotatedTorsions>
[ 6907 6896 6895 6894 ] final -142.48 input  -60.11 | X-H torsion
[ 7974 7965 7964 7962 ] final    1.44 input  175.53 | X-H torsion
[ 8008 7997 7996 7995 ] final   20.65 input   59.86 | X-H torsion
[ 10167 10162 10161 10158 ] final   -3.61 input  -65.29 | X-H torsion
[ 10718 10713 10712 10709 ] final  101.88 input   66.30 | X-H torsion
[ 10763 10752 10751 10750 ] final  138.18 input  -60.55 | X-H torsion
[ 11005 11000 10999 10996 ] final   -9.40 input  -57.11 | X-H torsion

> <Gold.Protein.ActiveResidues>
 VAL166  LYS551  ARG553  GLY616  TRP617  ASP618  TYR619  PRO620  LYS621  CYS622 
 ASP623  PHE694  ASN695  SER759  ASP760  ASP761  ALA762  ILE779  LEU786  VAL792 
 PHE793  MET794  SER795  GLU796  ALA797  LYS798  CYS799  TRP800  GLU811  SER814 

> <Gold.Protein.RotatedAtoms>
  151.0876  133.5341  159.2616 H   0  0  0  0  0  0  0  0  0  0  0  0  # atno 6907 bound_to 6896
  151.2221  135.0522  159.8963 H   0  0  0  0  0  0  0  0  0  0  0  0  # atno 6908 bound_to 6896
  152.5430  134.0677  159.8233 H   0  0  0  0  0  0  0  0  0  0  0  0  # atno 6909 bound_to 6896
  146.2440  140.0987  142.8348 H   0  0  0  0  0  0  0  0  0  0  0  0  # atno 7974 bound_to 7965
  154.9388  140.3050  155.5131 H   0  0  0  0  0  0  0  0  0  0  0  0  # atno 8008 bound_to 7997
  156.2997  140.2340  156.4393 H   0  0  0  0  0  0  0  0  0  0  0  0  # atno 8009 bound_to 7997
  154.8165  140.0425  157.1369 H   0  0  0  0  0  0  0  0  0  0  0  0  # atno 8010 bound_to 7997
  140.6897  143.6520  150.8342 H   0  0  0  0  0  0  0  0  0  0  0  0  # atno 10167 bound_to 10162
  157.6817  131.0738  150.5319 H   0  0  0  0  0  0  0  0  0  0  0  0  # atno 10718 bound_to 10713
  153.8853  135.3039  155.3446 H   0  0  0  0  0  0  0  0  0  0  0  0  # atno 10763 bound_to 10752
  154.7742  135.4870  153.9713 H   0  0  0  0  0  0  0  0  0  0  0  0  # atno 10764 bound_to 10752
  153.1328  135.6807  153.9248 H   0  0  0  0  0  0  0  0  0  0  0  0  # atno 10765 bound_to 10752
  140.7338  133.8727  155.8913 H   0  0  0  0  0  0  0  0  0  0  0  0  # atno 11005 bound_to 11000
  145.0588  140.9072  143.4951 LP  0  0  0  0  0  0  0  0  0  0  0  0  # atno 17320 bound_to 7965
  145.1098  139.2765  143.5643 LP  0  0  0  0  0  0  0  0  0  0  0  0  # atno 17321 bound_to 7965
  140.0231  143.5521  152.2792 LP  0  0  0  0  0  0  0  0  0  0  0  0  # atno 17342 bound_to 10162
  139.6287  144.7641  151.2583 LP  0  0  0  0  0  0  0  0  0  0  0  0  # atno 17343 bound_to 10162
  156.5629  130.4260  149.6054 LP  0  0  0  0  0  0  0  0  0  0  0  0  # atno 17370 bound_to 10713
  156.2806  130.7068  151.1891 LP  0  0  0  0  0  0  0  0  0  0  0  0  # atno 17371 bound_to 10713
  140.9898  134.1294  157.4419 LP  0  0  0  0  0  0  0  0  0  0  0  0  # atno 17394 bound_to 11000
  139.8820  135.0037  156.6201 LP  0  0  0  0  0  0  0  0  0  0  0  0  # atno 17395 bound_to 11000

$$$$
