AV-unprocessed.smi:2032|AV-procd|sdf|8253|dock7
  -GOLD-   2272010523D 1   1.00000     0.00000
 Structure written by MMmdl.
 42 43  0  0  0  0  0  0  0  0  3 V2000
  145.8960  131.7685  150.0523 C   0  0  0  0  0  0  0  0  0  0  0  0
  146.1550  133.1122  150.7430 C   0  0  2  0  0  0  0  0  0  0  0  0
  146.8600  132.9345  152.1008 C   0  0  0  0  0  0  0  0  0  0  0  0
  147.0122  134.2411  152.7950 N   0  3  2  0  0  0  0  0  0  0  0  0
  147.7684  134.2181  154.0884 C   0  0  1  0  0  0  0  0  0  0  0  0
  147.1037  133.3545  155.1878 C   0  0  0  0  0  0  0  0  0  0  0  0
  149.2230  133.7421  153.8361 C   0  0  0  0  0  0  0  0  0  0  0  0
  150.2231  134.7165  154.2605 N   0  0  0  0  0  0  0  0  0  0  0  0
  150.5610  134.9844  155.5296 C   0  0  0  0  0  0  0  0  0  0  0  0
  149.9922  134.3978  156.4535 O   0  0  0  0  0  0  0  0  0  0  0  0
  151.5412  135.9076  155.6468 N   0  5  0  0  0  0  0  0  0  0  0  0
  151.3168  137.1765  155.2688 C   0  0  0  0  0  0  0  0  0  0  0  0
  150.3332  137.5262  154.4320 N   0  0  0  0  0  0  0  0  0  0  0  0
  150.2872  138.8971  154.1720 C   0  0  0  0  0  0  0  0  0  0  0  0
  151.2639  139.6065  154.8193 C   0  0  0  0  0  0  0  0  0  0  0  0
  152.2773  138.5674  155.7799 S   0  0  0  0  0  0  0  0  0  0  0  0
  145.6774  134.8831  152.9336 C   0  0  0  0  0  0  0  0  0  0  0  0
  144.9726  135.0256  151.5722 C   0  0  1  0  0  0  0  0  0  0  0  0
  145.5889  136.1105  150.6705 C   0  0  0  0  0  0  0  0  0  0  0  0
  144.8990  133.7559  150.9279 O   0  0  0  0  0  0  0  0  0  0  0  0
  146.8285  131.2341  149.8701 H   0  0  0  0  0  0  0  0  0  0  0  0
  145.4035  131.9132  149.0903 H   0  0  0  0  0  0  0  0  0  0  0  0
  145.2564  131.1280  150.6604 H   0  0  0  0  0  0  0  0  0  0  0  0
  146.7814  133.7131  150.0833 H   0  0  0  0  0  0  0  0  0  0  0  0
  146.3006  132.2459  152.7366 H   0  0  0  0  0  0  0  0  0  0  0  0
  147.8324  132.4840  151.9041 H   0  0  0  0  0  0  0  0  0  0  0  0
  147.7900  135.2397  154.4712 H   0  0  0  0  0  0  0  0  0  0  0  0
  147.6913  133.3518  156.1059 H   0  0  0  0  0  0  0  0  0  0  0  0
  146.9927  132.3175  154.8695 H   0  0  0  0  0  0  0  0  0  0  0  0
  146.1221  133.7361  155.4689 H   0  0  0  0  0  0  0  0  0  0  0  0
  149.4066  132.8178  154.3847 H   0  0  0  0  0  0  0  0  0  0  0  0
  149.4013  133.5074  152.7872 H   0  0  0  0  0  0  0  0  0  0  0  0
  150.7090  135.2231  153.5346 H   0  0  0  0  0  0  0  0  0  0  0  0
  149.5251  139.2822  153.5111 H   0  0  0  0  0  0  0  0  0  0  0  0
  151.4499  140.6695  154.7891 H   0  0  0  0  0  0  0  0  0  0  0  0
  145.0605  134.2743  153.5970 H   0  0  0  0  0  0  0  0  0  0  0  0
  145.7519  135.8637  153.4012 H   0  0  0  0  0  0  0  0  0  0  0  0
  143.9413  135.3244  151.7631 H   0  0  0  0  0  0  0  0  0  0  0  0
  145.5035  137.0925  151.1363 H   0  0  0  0  0  0  0  0  0  0  0  0
  145.0748  136.1564  149.7103 H   0  0  0  0  0  0  0  0  0  0  0  0
  146.6473  135.9374  150.4763 H   0  0  0  0  0  0  0  0  0  0  0  0
  147.5540  134.8207  152.1701 H   0  0  0  0  0  0  0  0  0  0  0  0
  1  2  1  0  0  0  0
  1 21  1  0  0  0  0
  1 22  1  0  0  0  0
  1 23  1  0  0  0  0
  2 20  1  0  0  0  0
  2  3  1  0  0  0  0
  2 24  1  0  0  0  0
  3  4  1  0  0  0  0
  3 25  1  0  0  0  0
  3 26  1  0  0  0  0
  4  5  1  0  0  0  0
  4 17  1  0  0  0  0
  4 42  1  0  0  0  0
  5  6  1  0  0  0  0
  5  7  1  0  0  0  0
  5 27  1  0  0  0  0
  6 28  1  0  0  0  0
  6 29  1  0  0  0  0
  6 30  1  0  0  0  0
  7  8  1  0  0  0  0
  7 31  1  0  0  0  0
  7 32  1  0  0  0  0
  8  9  1  0  0  0  0
  8 33  1  0  0  0  0
  9 10  2  0  0  0  0
  9 11  1  0  0  0  0
 11 12  1  0  0  0  0
 12 16  1  0  0  0  0
 12 13  2  0  0  0  0
 13 14  1  0  0  0  0
 14 15  2  0  0  0  0
 14 34  1  0  0  0  0
 15 16  1  0  0  0  0
 15 35  1  0  0  0  0
 17 18  1  0  0  0  0
 17 36  1  0  0  0  0
 17 37  1  0  0  0  0
 18 19  1  0  0  0  0
 18 20  1  0  0  0  0
 18 38  1  0  0  0  0
 19 39  1  0  0  0  0
 19 40  1  0  0  0  0
 19 41  1  0  0  0  0
M  CHG  1   4   1
M  CHG  1  11  -1
M  END
> <s_m_source_file>
AV-unprocessed.smi

> <i_m_source_file_index>
2032

> <i_lp_mmshare_version>
43012

> <i_f3d_flags>
0

> <s_epik_input>
W0NIM11bQ0BASF0xW0NIMl1OKFtDSDJdW0NASF0oTzEpW0NIM10pW0NASF0oW0NIM10pW0NIMl1bTkhdQyg9TylbTkhdYzJuW2NIXVtjSF1zMg==

> <s_epik_cmdline>
J2VwaWtfcHl0aG9uJywgJy1waCcsICc3LjAnLCAnLXRuJywgJzgnLCAnLW1hJywgJzIwMCcsICctbWV0YWxfYmluZGluZycsICctaW1hZScsICc8aW5maWxlLm1hZT4nLCAnLW9tYWUnLCAnPG91dGZpbGUubWFlPic=

> <r_lp_tautomer_probability>
0.999

> <r_epik_Ionization_Penalty>
6.71699

> <r_epik_Ionization_Penalty_Charging>
5.88592

> <r_epik_Ionization_Penalty_Neutral>
0.831074

> <r_epik_State_Penalty>
6.08365

> <r_epik_Charging_Adjusted_Penalty>
11.9696

> <i_epik_Tot_Q>
0

> <i_epik_Tot_abs_Q>
2

> <r_epik_Metal_State_Penalty>
2.0947

> <b_epik_Metal_Only>
1

> <s_lp_Force_Field>
OPLS_2005

> <r_lp_Energy>
13.0518

> <b_lp_Chiralities_Consistent>
1

> <s_lp_Variant>
AV-unprocessed.smi:2032-23

> <Gold.Version>
5.8.1

> <Gold.Id.Protein>
6NUR|6NUR_protein|mol2

> <Gold.PLP.Fitness>
43.0885

> <Gold.PLP.PLP>
-30.5134

> <Gold.PLP.part.hbond>
-3.3575

> <Gold.PLP.part.metal>
0.0000

> <Gold.PLP.part.buried>
1.4407

> <Gold.PLP.part.nonpolar>
-28.7266

> <Gold.PLP.part.repulsive>
0.4773

> <Gold.PLP.ligand.clash>
0.0000

> <Gold.PLP.ligand.torsion>
1.5545

> <Gold.PLP.Chemscore.Hbond>
4.2080

> <Gold.PLP.Chemscore.CHOScore>
1.0000

> <Gold.PLP.Chemscore.Metal>
0.0000

> <Gold.Chemscore.Hbonds>
donor molecule, donor type, donor heavy atom, donor atom, acceptor molecule, acceptor atom, score
      L1  H     4    42       P1  7948  2.00
      L1  H     8    33       P1  7949  0.20
      P1  H 10752 10764       L1    11  2.00
      L1  C    14    34       P1  7957  1.00

> <Gold.PLP.Chemscore.Internal.Correction>
0.0600

> <Gold.Rescore>
     Score         DG    S(hbond)    S(metal)    S(lipo)     H(rot)  DE(clash)    DE(int)     intcor
     11.44     -14.45       1.48        0.00      69.07       1.58       0.07       2.94       ----

> <Gold.Chemscore.Fitness>
11.4374

> <Gold.Chemscore.DG>
-14.4471

> <Gold.Chemscore.ZeroCoef>
-5.4800

> <Gold.Chemscore.Hbond>
1.4755

> <Gold.Chemscore.Metal>
0.0000

> <Gold.Chemscore.Lipo>
69.0718

> <Gold.Chemscore.Internal_Hbond>
0.0000

> <Gold.Chemscore.DEClash>
0.0699

> <Gold.Chemscore.DEInternal>
2.9398

> <Gold.Chemscore.Rot>
1.5791

> <Gold.Chemscore.Internal.Correction>
   9.000000E+99

> <Gold.Chemscore.Hbonds>
donor molecule, donor type, donor heavy atom, donor atom, acceptor molecule, acceptor atom, score
      L1  H     4    42       P1  7948  0.81
      P1  H 10752 10764       L1    11  0.26

> <Gold.Chemscore.Hbond.Weighted>
-4.9282

> <Gold.Chemscore.Metal.Weighted>
-0.0000

> <Gold.Chemscore.Lipo.Weighted>
-8.0814

> <Gold.Chemscore.Internal_Hbond.Weighted>
0.0000

> <Gold.Chemscore.DEClash.Weighted>
0.0699

> <Gold.Chemscore.DEInternal.Weighted>
2.9398

> <Gold.Chemscore.Rot.Weighted>
4.0425

> <Gold.Chemscore.Internal.Correction.Weighted>
   9.000000E+99

> <Gold.Protein.RotatedTorsions>
[ 6907 6896 6895 6894 ] final  -20.95 input  -60.11 | X-H torsion
[ 7974 7965 7964 7962 ] final -154.49 input  175.53 | X-H torsion
[ 8008 7997 7996 7995 ] final -152.07 input   59.86 | X-H torsion
[ 10167 10162 10161 10158 ] final -178.91 input  -65.29 | X-H torsion
[ 10718 10713 10712 10709 ] final   61.16 input   66.30 | X-H torsion
[ 10763 10752 10751 10750 ] final  -50.59 input  -60.55 | X-H torsion
[ 11005 11000 10999 10996 ] final  132.53 input  -57.11 | X-H torsion

> <Gold.Protein.ActiveResidues>
 VAL166  LYS551  ARG553  GLY616  TRP617  ASP618  TYR619  PRO620  LYS621  CYS622 
 ASP623  PHE694  ASN695  SER759  ASP760  ASP761  ALA762  ILE779  LEU786  VAL792 
 PHE793  MET794  SER795  GLU796  ALA797  LYS798  CYS799  TRP800  GLU811  SER814 

> <Gold.Protein.RotatedAtoms>
  151.2406  135.0587  159.9023 H   0  0  0  0  0  0  0  0  0  0  0  0  # atno 6907 bound_to 6896
  152.5393  134.0438  159.8090 H   0  0  0  0  0  0  0  0  0  0  0  0  # atno 6908 bound_to 6896
  151.0631  133.5478  159.2664 H   0  0  0  0  0  0  0  0  0  0  0  0  # atno 6909 bound_to 6896
  144.7687  140.4381  143.5923 H   0  0  0  0  0  0  0  0  0  0  0  0  # atno 7974 bound_to 7965
  155.6494  140.0710  157.2592 H   0  0  0  0  0  0  0  0  0  0  0  0  # atno 8008 bound_to 7997
  154.4166  140.1736  156.1708 H   0  0  0  0  0  0  0  0  0  0  0  0  # atno 8009 bound_to 7997
  155.9789  140.3355  155.6648 H   0  0  0  0  0  0  0  0  0  0  0  0  # atno 8010 bound_to 7997
  139.5410  144.2362  152.0895 H   0  0  0  0  0  0  0  0  0  0  0  0  # atno 10167 bound_to 10162
  157.5807  130.8979  149.9426 H   0  0  0  0  0  0  0  0  0  0  0  0  # atno 10718 bound_to 10713
  154.1128  135.6546  153.4888 H   0  0  0  0  0  0  0  0  0  0  0  0  # atno 10763 bound_to 10752
  153.0251  135.5251  154.7175 H   0  0  0  0  0  0  0  0  0  0  0  0  # atno 10764 bound_to 10752
  154.6360  135.2982  155.0130 H   0  0  0  0  0  0  0  0  0  0  0  0  # atno 10765 bound_to 10752
  139.9796  134.9552  156.9596 H   0  0  0  0  0  0  0  0  0  0  0  0  # atno 11005 bound_to 11000
  145.6391  139.1547  143.2926 LP  0  0  0  0  0  0  0  0  0  0  0  0  # atno 17320 bound_to 7965
  146.1816  140.6489  142.9187 LP  0  0  0  0  0  0  0  0  0  0  0  0  # atno 17321 bound_to 7965
  140.1841  144.4816  150.6513 LP  0  0  0  0  0  0  0  0  0  0  0  0  # atno 17342 bound_to 10162
  140.6640  143.2261  151.5787 LP  0  0  0  0  0  0  0  0  0  0  0  0  # atno 17343 bound_to 10162
  156.0853  130.3668  150.0500 LP  0  0  0  0  0  0  0  0  0  0  0  0  # atno 17370 bound_to 10713
  156.8639  130.9501  151.3615 LP  0  0  0  0  0  0  0  0  0  0  0  0  # atno 17371 bound_to 10713
  140.5124  134.0989  155.7273 LP  0  0  0  0  0  0  0  0  0  0  0  0  # atno 17394 bound_to 11000
  141.1469  133.9038  157.2192 LP  0  0  0  0  0  0  0  0  0  0  0  0  # atno 17395 bound_to 11000

$$$$
