AV-unprocessed.smi:72|AV-procd|sdf|676|dock2
  -GOLD-   2262016583D 1   1.00000     0.00000
 Structure written by MMmdl.
 29 30  0  0  0  0  0  0  0  0  1 V2000
  153.3384  138.7548  156.6732 N   0  0  0  0  0  0  0  0  0  0  0  0
  152.3203  139.2571  156.0707 C   0  0  0  0  0  0  0  0  0  0  0  0
  151.7796  138.7882  154.8643 N   0  0  0  0  0  0  0  0  0  0  0  0
  150.7359  139.3837  154.3753 C   0  0  0  0  0  0  0  0  0  0  0  0
  150.0964  140.5092  155.0459 N   0  0  0  0  0  0  0  0  0  0  0  0
  148.8796  141.2235  154.4796 C   0  0  1  0  0  0  0  0  0  0  0  0
  148.4708  140.6041  153.2933 O   0  0  0  0  0  0  0  0  0  0  0  0
  147.3874  139.7179  153.5591 C   0  0  2  0  0  0  0  0  0  0  0  0
  146.6373  139.3486  152.2677 C   0  0  0  0  0  0  0  0  0  0  0  0
  147.4220  138.4671  151.4933 O   0  0  0  0  0  0  0  0  0  0  0  0
  146.5833  140.5072  154.5963 C   0  0  2  0  0  0  0  0  0  0  0  0
  145.7708  141.4790  153.9577 O   0  0  0  0  0  0  0  0  0  0  0  0
  147.6837  141.1325  155.4537 C   0  0  2  0  0  0  0  0  0  0  0  0
  147.3021  142.3831  155.9960 O   0  0  0  0  0  0  0  0  0  0  0  0
  150.6568  141.0168  156.2446 C   0  0  0  0  0  0  0  0  0  0  0  0
  150.1859  141.9910  156.8316 O   0  0  0  0  0  0  0  0  0  0  0  0
  151.7422  140.3615  156.7093 N   0  0  0  0  0  0  0  0  0  0  0  0
  149.2156  142.2398  154.2650 H   0  0  0  0  0  0  0  0  0  0  0  0
  147.7650  138.8138  154.0407 H   0  0  0  0  0  0  0  0  0  0  0  0
  145.9354  139.8581  155.1863 H   0  0  0  0  0  0  0  0  0  0  0  0
  147.9305  140.4497  156.2684 H   0  0  0  0  0  0  0  0  0  0  0  0
  153.7020  137.9661  156.1588 H   0  0  0  0  0  0  0  0  0  0  0  0
  150.2826  139.0733  153.4340 H   0  0  0  0  0  0  0  0  0  0  0  0
  145.7071  138.8332  152.5085 H   0  0  0  0  0  0  0  0  0  0  0  0
  146.3799  140.2342  151.6860 H   0  0  0  0  0  0  0  0  0  0  0  0
  147.6804  137.7399  152.0389 H   0  0  0  0  0  0  0  0  0  0  0  0
  145.1235  141.0272  153.4379 H   0  0  0  0  0  0  0  0  0  0  0  0
  147.8482  143.0531  155.6124 H   0  0  0  0  0  0  0  0  0  0  0  0
  152.1565  140.6974  157.5664 H   0  0  0  0  0  0  0  0  0  0  0  0
  1  2  2  0  0  0  0
  1 22  1  0  0  0  0
  2 17  1  0  0  0  0
  2  3  1  0  0  0  0
  3  4  2  0  0  0  0
  4  5  1  0  0  0  0
  4 23  1  0  0  0  0
  5  6  1  0  0  0  0
  5 15  1  0  0  0  0
  6 18  1  0  0  0  0
  6 13  1  0  0  0  0
  6  7  1  0  0  0  0
  7  8  1  0  0  0  0
  8 19  1  0  0  0  0
  8  9  1  0  0  0  0
  8 11  1  0  0  0  0
  9 10  1  0  0  0  0
  9 24  1  0  0  0  0
  9 25  1  0  0  0  0
 10 26  1  0  0  0  0
 11 20  1  0  0  0  0
 11 12  1  0  0  0  0
 11 13  1  0  0  0  0
 12 27  1  0  0  0  0
 13 21  1  0  0  0  0
 13 14  1  0  0  0  0
 14 28  1  0  0  0  0
 15 16  2  0  0  0  0
 15 17  1  0  0  0  0
 17 29  1  0  0  0  0
M  END
> <s_m_source_file>
AV-unprocessed.smi

> <i_m_source_file_index>
72

> <i_lp_mmshare_version>
43012

> <i_f3d_flags>
0

> <s_epik_input>
W05IMl1jMW5bY0hdbihjKD1PKW4xKVtDQEBIXTJPW0NASF0oW0NIMl1bT0hdKVtDQEBIXShbT0hdKVtDQEhdMltPSF0=

> <s_epik_cmdline>
J2VwaWtfcHl0aG9uJywgJy1waCcsICc3LjAnLCAnLXRuJywgJzgnLCAnLW1hJywgJzIwMCcsICctbWV0YWxfYmluZGluZycsICctaW1hZScsICc8aW5maWxlLm1hZT4nLCAnLW9tYWUnLCAnPG91dGZpbGUubWFlPic=

> <r_lp_tautomer_probability>
7.17554e-07

> <r_epik_Ionization_Penalty>
0.0066451

> <r_epik_Ionization_Penalty_Charging>
0.00663793

> <r_epik_Ionization_Penalty_Neutral>
7.17052e-06

> <r_epik_State_Penalty>
0.419231

> <r_epik_Charging_Adjusted_Penalty>
0.425868

> <i_epik_Tot_Q>
0

> <i_epik_Tot_abs_Q>
0

> <r_epik_Metal_State_Penalty>
1.44144

> <b_epik_Metal_Only>
0

> <s_epik_Chemistry_Notes>
This compound contains an acetal/aminal-like group ( X-CH(R)-Y where X, Y are N, S, or O) that may be acid/base labile, releasing an aldehyde.

> <s_lp_Force_Field>
OPLS_2005

> <r_lp_Energy>
42.8821

> <b_lp_Chiralities_Consistent>
1

> <s_lp_Variant>
AV-unprocessed.smi:72-14

> <Gold.Version>
5.8.1

> <Gold.Id.Protein>
6NUR|6NUR_protein|mol2

> <Gold.PLP.Fitness>
39.9492

> <Gold.PLP.PLP>
-23.3755

> <Gold.PLP.part.hbond>
-6.0000

> <Gold.PLP.part.metal>
0.0000

> <Gold.PLP.part.buried>
-0.7380

> <Gold.PLP.part.nonpolar>
-20.5302

> <Gold.PLP.part.repulsive>
4.4365

> <Gold.PLP.ligand.clash>
0.0000

> <Gold.PLP.ligand.torsion>
0.0670

> <Gold.PLP.Chemscore.Hbond>
4.6060

> <Gold.PLP.Chemscore.CHOScore>
0.9559

> <Gold.PLP.Chemscore.Metal>
0.0000

> <Gold.Chemscore.Hbonds>
donor molecule, donor type, donor heavy atom, donor atom, acceptor molecule, acceptor atom, score
      L1  H    10    26       P1  7948  0.67
      L1  H    12    27       P1 10175  1.00
      L1  H    14    28       P1  8028  1.00
      P1  H  7954  7966       L1    10  0.90
      P1  H  7997  8008       L1     1  1.00
      L1  C     4    23       P1  7957  0.95

> <Gold.PLP.Chemscore.Internal.Correction>
0.0222

> <Gold.Rescore>
     Score         DG    S(hbond)    S(metal)    S(lipo)     H(rot)  DE(clash)    DE(int)     intcor
      5.40      -7.63       2.96        0.00      22.58       4.06       2.02       0.20       ----

> <Gold.Chemscore.Fitness>
5.4025

> <Gold.Chemscore.DG>
-7.6262

> <Gold.Chemscore.ZeroCoef>
-5.4800

> <Gold.Chemscore.Hbond>
2.9636

> <Gold.Chemscore.Metal>
0.0000

> <Gold.Chemscore.Lipo>
22.5767

> <Gold.Chemscore.Internal_Hbond>
0.0000

> <Gold.Chemscore.DEClash>
2.0204

> <Gold.Chemscore.DEInternal>
0.2033

> <Gold.Chemscore.Rot>
4.0600

> <Gold.Chemscore.Internal.Correction>
   9.000000E+99

> <Gold.Chemscore.Hbonds>
donor molecule, donor type, donor heavy atom, donor atom, acceptor molecule, acceptor atom, score
      L1  H    10    26       P1  7948  0.67
      L1  H    12    27       P1 10175  0.55
      L1  H    14    28       P1  8028  0.58
      P1  H  7954  7966       L1    10  0.17
      P1  H  7997  8008       L1     1  0.19

> <Gold.Chemscore.Hbond.Weighted>
-9.8984

> <Gold.Chemscore.Metal.Weighted>
-0.0000

> <Gold.Chemscore.Lipo.Weighted>
-2.6415

> <Gold.Chemscore.Internal_Hbond.Weighted>
0.0000

> <Gold.Chemscore.DEClash.Weighted>
2.0204

> <Gold.Chemscore.DEInternal.Weighted>
0.2033

> <Gold.Chemscore.Rot.Weighted>
10.3936

> <Gold.Chemscore.Internal.Correction.Weighted>
   9.000000E+99

> <Gold.Protein.RotatedTorsions>
[ 6907 6896 6895 6894 ] final   45.18 input  -60.11 | X-H torsion
[ 7974 7965 7964 7962 ] final -145.45 input  175.53 | X-H torsion
[ 8008 7997 7996 7995 ] final  -57.45 input   59.86 | X-H torsion
[ 10167 10162 10161 10158 ] final  -40.13 input  -65.29 | X-H torsion
[ 10718 10713 10712 10709 ] final  -60.82 input   66.30 | X-H torsion
[ 10763 10752 10751 10750 ] final -106.76 input  -60.55 | X-H torsion
[ 11005 11000 10999 10996 ] final  -67.15 input  -57.11 | X-H torsion

> <Gold.Protein.ActiveResidues>
 VAL166  LYS551  ARG553  GLY616  TRP617  ASP618  TYR619  PRO620  LYS621  CYS622 
 ASP623  PHE694  ASN695  SER759  ASP760  ASP761  ALA762  ILE779  LEU786  VAL792 
 PHE793  MET794  SER795  GLU796  ALA797  LYS798  CYS799  TRP800  GLU811  SER814 

> <Gold.Protein.RotatedAtoms>
  152.2414  134.8224  160.0459 H   0  0  0  0  0  0  0  0  0  0  0  0  # atno 6907 bound_to 6896
  151.8938  133.3517  159.3815 H   0  0  0  0  0  0  0  0  0  0  0  0  # atno 6908 bound_to 6896
  150.7055  134.4824  159.5520 H   0  0  0  0  0  0  0  0  0  0  0  0  # atno 6909 bound_to 6896
  144.8227  140.5582  143.5568 H   0  0  0  0  0  0  0  0  0  0  0  0  # atno 7974 bound_to 7965
  154.4269  140.1106  156.5800 H   0  0  0  0  0  0  0  0  0  0  0  0  # atno 8008 bound_to 7997
  155.6123  140.3494  155.4607 H   0  0  0  0  0  0  0  0  0  0  0  0  # atno 8009 bound_to 7997
  156.0090  140.1215  157.0462 H   0  0  0  0  0  0  0  0  0  0  0  0  # atno 8010 bound_to 7997
  140.7044  143.3172  151.2880 H   0  0  0  0  0  0  0  0  0  0  0  0  # atno 10167 bound_to 10162
  156.0964  130.4192  150.0908 H   0  0  0  0  0  0  0  0  0  0  0  0  # atno 10718 bound_to 10713
  154.8032  135.4700  154.0328 H   0  0  0  0  0  0  0  0  0  0  0  0  # atno 10763 bound_to 10752
  153.1817  135.6841  153.8476 H   0  0  0  0  0  0  0  0  0  0  0  0  # atno 10764 bound_to 10752
  153.8024  135.3228  155.3369 H   0  0  0  0  0  0  0  0  0  0  0  0  # atno 10765 bound_to 10752
  141.1501  133.6713  156.6249 H   0  0  0  0  0  0  0  0  0  0  0  0  # atno 11005 bound_to 11000
  145.5070  139.1481  143.3626 LP  0  0  0  0  0  0  0  0  0  0  0  0  # atno 17320 bound_to 7965
  146.2532  140.5210  142.8884 LP  0  0  0  0  0  0  0  0  0  0  0  0  # atno 17321 bound_to 7965
  139.6615  144.0181  152.2695 LP  0  0  0  0  0  0  0  0  0  0  0  0  # atno 17342 bound_to 10162
  139.9750  144.6467  150.7953 LP  0  0  0  0  0  0  0  0  0  0  0  0  # atno 17343 bound_to 10162
  156.8905  130.9587  151.3589 LP  0  0  0  0  0  0  0  0  0  0  0  0  # atno 17370 bound_to 10713
  157.6126  130.8594  149.8975 LP  0  0  0  0  0  0  0  0  0  0  0  0  # atno 17371 bound_to 10713
  140.3511  134.7767  157.4468 LP  0  0  0  0  0  0  0  0  0  0  0  0  # atno 17394 bound_to 11000
  140.0860  134.5666  155.8492 LP  0  0  0  0  0  0  0  0  0  0  0  0  # atno 17395 bound_to 11000

$$$$
