AV-unprocessed.smi:3068|AV-procd|sdf|11704|dock2
  -GOLD-   2272017103D 1   1.00000     0.00000
 Structure written by MMmdl.
 40 42  0  0  0  0  0  0  0  0  2 V2000
  151.9345  136.8496  154.4197 N   0  0  0  0  0  0  0  0  0  0  0  0
  151.5730  137.9066  154.7219 C   0  0  0  0  0  0  0  0  0  0  0  0
  151.1164  139.2369  155.1035 C   0  0  0  0  0  0  0  0  0  0  0  0
  151.8666  139.8996  156.0139 N   0  0  0  0  0  0  0  0  0  0  0  0
  151.4514  141.1313  156.3787 C   0  0  0  0  0  0  0  0  0  0  0  0
  150.2859  141.7073  155.8368 C   0  0  0  0  0  0  0  0  0  0  0  0
  149.5312  141.0539  154.9276 N   0  0  0  0  0  0  0  0  0  0  0  0
  149.9374  139.8150  154.5531 C   0  0  0  0  0  0  0  0  0  0  0  0
  149.1590  139.1228  153.6086 N   0  0  0  0  0  0  0  0  0  0  0  0
  148.6305  137.7970  153.8969 C   0  0  0  0  0  0  0  0  0  0  0  0
  147.1277  137.8490  154.2362 C   0  0  2  0  0  0  0  0  0  0  0  0
  146.4882  136.4533  154.3613 C   0  0  0  0  0  0  0  0  0  0  0  0
  146.3603  135.7968  153.0388 N   0  3  1  0  0  0  0  0  0  0  0  0
  145.7795  134.4339  153.1441 C   0  0  0  0  0  0  0  0  0  0  0  0
  145.7370  133.7400  151.7735 C   0  0  0  0  0  0  0  0  0  0  0  0
  144.9633  134.5889  150.7572 C   0  0  0  0  0  0  0  0  0  0  0  0
  145.5680  135.9971  150.6842 C   0  0  0  0  0  0  0  0  0  0  0  0
  145.6231  136.6593  152.0758 C   0  0  2  0  0  0  0  0  0  0  0  0
  146.2816  138.0499  152.0000 C   0  0  0  0  0  0  0  0  0  0  0  0
  146.3815  138.6253  153.2983 O   0  0  0  0  0  0  0  0  0  0  0  0
  152.0508  141.6585  157.1060 H   0  0  0  0  0  0  0  0  0  0  0  0
  149.9583  142.6926  156.1335 H   0  0  0  0  0  0  0  0  0  0  0  0
  149.0556  139.4959  152.6753 H   0  0  0  0  0  0  0  0  0  0  0  0
  148.8194  137.1290  153.0566 H   0  0  0  0  0  0  0  0  0  0  0  0
  149.1792  137.3894  154.7469 H   0  0  0  0  0  0  0  0  0  0  0  0
  147.0267  138.3453  155.2022 H   0  0  0  0  0  0  0  0  0  0  0  0
  147.0796  135.8286  155.0319 H   0  0  0  0  0  0  0  0  0  0  0  0
  145.4976  136.5458  154.8093 H   0  0  0  0  0  0  0  0  0  0  0  0
  146.3741  133.8363  153.8361 H   0  0  0  0  0  0  0  0  0  0  0  0
  144.7735  134.4964  153.5628 H   0  0  0  0  0  0  0  0  0  0  0  0
  146.7533  133.5709  151.4148 H   0  0  0  0  0  0  0  0  0  0  0  0
  145.2735  132.7575  151.8674 H   0  0  0  0  0  0  0  0  0  0  0  0
  144.9876  134.1165  149.7747 H   0  0  0  0  0  0  0  0  0  0  0  0
  143.9140  134.6512  151.0487 H   0  0  0  0  0  0  0  0  0  0  0  0
  146.5728  135.9375  150.2631 H   0  0  0  0  0  0  0  0  0  0  0  0
  144.9830  136.6124  149.9999 H   0  0  0  0  0  0  0  0  0  0  0  0
  144.6032  136.7820  152.4454 H   0  0  0  0  0  0  0  0  0  0  0  0
  147.2628  137.9985  151.5276 H   0  0  0  0  0  0  0  0  0  0  0  0
  145.6794  138.7135  151.3788 H   0  0  0  0  0  0  0  0  0  0  0  0
  147.2962  135.6875  152.6746 H   0  0  0  0  0  0  0  0  0  0  0  0
  1  2  3  0  0  0  0
  2  3  1  0  0  0  0
  3  8  1  0  0  0  0
  3  4  2  0  0  0  0
  4  5  1  0  0  0  0
  5  6  2  0  0  0  0
  5 21  1  0  0  0  0
  6  7  1  0  0  0  0
  6 22  1  0  0  0  0
  7  8  2  0  0  0  0
  8  9  1  0  0  0  0
  9 10  1  0  0  0  0
  9 23  1  0  0  0  0
 10 11  1  0  0  0  0
 10 24  1  0  0  0  0
 10 25  1  0  0  0  0
 11 20  1  0  0  0  0
 11 12  1  0  0  0  0
 11 26  1  0  0  0  0
 12 13  1  0  0  0  0
 12 27  1  0  0  0  0
 12 28  1  0  0  0  0
 13 18  1  0  0  0  0
 13 14  1  0  0  0  0
 13 40  1  0  0  0  0
 14 15  1  0  0  0  0
 14 29  1  0  0  0  0
 14 30  1  0  0  0  0
 15 16  1  0  0  0  0
 15 31  1  0  0  0  0
 15 32  1  0  0  0  0
 16 17  1  0  0  0  0
 16 33  1  0  0  0  0
 16 34  1  0  0  0  0
 17 18  1  0  0  0  0
 17 35  1  0  0  0  0
 17 36  1  0  0  0  0
 18 19  1  0  0  0  0
 18 37  1  0  0  0  0
 19 20  1  0  0  0  0
 19 38  1  0  0  0  0
 19 39  1  0  0  0  0
M  CHG  1  13   1
M  END
> <s_m_source_file>
AV-unprocessed.smi

> <i_m_source_file_index>
3068

> <i_lp_mmshare_version>
43012

> <i_f3d_flags>
0

> <s_epik_input>
TiNDYzFuW2NIXVtjSF1uYzFbTkhdW0NIMl1bQ0BIXShbQ0gyXTIpT1tDSDJdW0NAQEhdKE4yMylbQ0gyXVtDSDJdW0NIMl1bQ0gyXTM=

> <s_epik_cmdline>
J2VwaWtfcHl0aG9uJywgJy1waCcsICc3LjAnLCAnLXRuJywgJzgnLCAnLW1hJywgJzIwMCcsICctbWV0YWxfYmluZGluZycsICctaW1hZScsICc8aW5maWxlLm1hZT4nLCAnLW9tYWUnLCAnPG91dGZpbGUubWFlPic=

> <r_epik_Ionization_Penalty>
0.0804321

> <r_epik_Ionization_Penalty_Charging>
0.0803403

> <r_epik_Ionization_Penalty_Neutral>
9.17277e-05

> <r_epik_State_Penalty>
0.0711481

> <r_epik_Charging_Adjusted_Penalty>
0.151488

> <i_epik_Tot_Q>
1

> <i_epik_Tot_abs_Q>
1

> <r_epik_Metal_State_Penalty>
0.0711481

> <b_epik_Metal_Only>
0

> <s_lp_Force_Field>
OPLS_2005

> <r_lp_Energy>
40.024

> <b_lp_Chiralities_Consistent>
1

> <s_lp_Variant>
AV-unprocessed.smi:3068-7

> <Gold.Version>
5.8.1

> <Gold.Id.Protein>
6NUR|6NUR_protein|mol2

> <Gold.PLP.Fitness>
43.3527

> <Gold.PLP.PLP>
-29.6843

> <Gold.PLP.part.hbond>
-3.0000

> <Gold.PLP.part.metal>
0.0000

> <Gold.PLP.part.buried>
-1.0419

> <Gold.PLP.part.nonpolar>
-27.1982

> <Gold.PLP.part.repulsive>
0.6002

> <Gold.PLP.ligand.clash>
0.0000

> <Gold.PLP.ligand.torsion>
0.6717

> <Gold.PLP.Chemscore.Hbond>
4.0000

> <Gold.PLP.Chemscore.CHOScore>
1.0000

> <Gold.PLP.Chemscore.Metal>
0.0000

> <Gold.Chemscore.Hbonds>
donor molecule, donor type, donor heavy atom, donor atom, acceptor molecule, acceptor atom, score
      L1  H     9    23       P1  7957  1.00
      L1  H    13    40       P1  7948  2.00
      P1  H 10752 10765       L1     1  1.00
      L1  C     6    22       P1  8028  1.00

> <Gold.PLP.Chemscore.Internal.Correction>
0.0117

> <Gold.Rescore>
     Score         DG    S(hbond)    S(metal)    S(lipo)     H(rot)  DE(clash)    DE(int)     intcor
     17.27     -19.50       2.94        0.00      64.82       1.32       1.51       0.72       ----

> <Gold.Chemscore.Fitness>
17.2711

> <Gold.Chemscore.DG>
-19.5013

> <Gold.Chemscore.ZeroCoef>
-5.4800

> <Gold.Chemscore.Hbond>
2.9384

> <Gold.Chemscore.Metal>
0.0000

> <Gold.Chemscore.Lipo>
64.8241

> <Gold.Chemscore.Internal_Hbond>
0.0000

> <Gold.Chemscore.DEClash>
1.5063

> <Gold.Chemscore.DEInternal>
0.7239

> <Gold.Chemscore.Rot>
1.3193

> <Gold.Chemscore.Internal.Correction>
   9.000000E+99

> <Gold.Chemscore.Hbonds>
donor molecule, donor type, donor heavy atom, donor atom, acceptor molecule, acceptor atom, score
      L1  H     9    23       P1  7957  0.98
      L1  H    13    40       P1  7948  0.99
      P1  H 10752 10765       L1     1  0.95

> <Gold.Chemscore.Hbond.Weighted>
-9.8142

> <Gold.Chemscore.Metal.Weighted>
-0.0000

> <Gold.Chemscore.Lipo.Weighted>
-7.5844

> <Gold.Chemscore.Internal_Hbond.Weighted>
0.0000

> <Gold.Chemscore.DEClash.Weighted>
1.5063

> <Gold.Chemscore.DEInternal.Weighted>
0.7239

> <Gold.Chemscore.Rot.Weighted>
3.3774

> <Gold.Chemscore.Internal.Correction.Weighted>
   9.000000E+99

> <Gold.Protein.RotatedTorsions>
[ 6907 6896 6895 6894 ] final -133.27 input  -60.11 | X-H torsion
[ 7974 7965 7964 7962 ] final  -69.65 input  175.53 | X-H torsion
[ 8008 7997 7996 7995 ] final  151.03 input   59.86 | X-H torsion
[ 10167 10162 10161 10158 ] final  -72.44 input  -65.29 | X-H torsion
[ 10718 10713 10712 10709 ] final  -24.13 input   66.30 | X-H torsion
[ 10763 10752 10751 10750 ] final  159.83 input  -60.55 | X-H torsion
[ 11005 11000 10999 10996 ] final    1.18 input  -57.11 | X-H torsion

> <Gold.Protein.ActiveResidues>
 VAL166  LYS551  ARG553  GLY616  TRP617  ASP618  TYR619  PRO620  LYS621  CYS622 
 ASP623  PHE694  ASN695  SER759  ASP760  ASP761  ALA762  ILE779  LEU786  VAL792 
 PHE793  MET794  SER795  GLU796  ALA797  LYS798  CYS799  TRP800  GLU811  SER814 

> <Gold.Protein.RotatedAtoms>
  150.9720  133.6334  159.2736 H   0  0  0  0  0  0  0  0  0  0  0  0  # atno 6907 bound_to 6896
  151.3619  135.0904  159.9447 H   0  0  0  0  0  0  0  0  0  0  0  0  # atno 6908 bound_to 6896
  152.5186  133.9292  159.7627 H   0  0  0  0  0  0  0  0  0  0  0  0  # atno 6909 bound_to 6896
  145.7011  140.9116  143.0730 H   0  0  0  0  0  0  0  0  0  0  0  0  # atno 7974 bound_to 7965
  156.2691  140.2059  156.6110 H   0  0  0  0  0  0  0  0  0  0  0  0  # atno 8008 bound_to 7997
  154.6831  140.0538  157.0310 H   0  0  0  0  0  0  0  0  0  0  0  0  # atno 8009 bound_to 7997
  155.0972  140.3202  155.4560 H   0  0  0  0  0  0  0  0  0  0  0  0  # atno 8010 bound_to 7997
  140.5192  143.2334  151.7460 H   0  0  0  0  0  0  0  0  0  0  0  0  # atno 10167 bound_to 10162
  156.4817  130.4546  149.6807 H   0  0  0  0  0  0  0  0  0  0  0  0  # atno 10718 bound_to 10713
  154.2380  135.2776  155.2865 H   0  0  0  0  0  0  0  0  0  0  0  0  # atno 10763 bound_to 10752
  154.5569  135.5658  153.6975 H   0  0  0  0  0  0  0  0  0  0  0  0  # atno 10764 bound_to 10752
  153.0006  135.6288  154.2523 H   0  0  0  0  0  0  0  0  0  0  0  0  # atno 10765 bound_to 10752
  140.6183  133.9685  155.8212 H   0  0  0  0  0  0  0  0  0  0  0  0  # atno 11005 bound_to 11000
  144.6968  139.8949  143.7455 LP  0  0  0  0  0  0  0  0  0  0  0  0  # atno 17320 bound_to 7965
  146.0797  139.3785  143.0472 LP  0  0  0  0  0  0  0  0  0  0  0  0  # atno 17321 bound_to 7965
  139.4918  144.4280  151.9904 LP  0  0  0  0  0  0  0  0  0  0  0  0  # atno 17342 bound_to 10162
  140.3376  144.3242  150.5974 LP  0  0  0  0  0  0  0  0  0  0  0  0  # atno 17343 bound_to 10162
  156.3515  130.7434  151.2394 LP  0  0  0  0  0  0  0  0  0  0  0  0  # atno 17370 bound_to 10713
  157.7482  131.0376  150.4462 LP  0  0  0  0  0  0  0  0  0  0  0  0  # atno 17371 bound_to 10713
  141.0760  134.0134  157.3456 LP  0  0  0  0  0  0  0  0  0  0  0  0  # atno 17394 bound_to 11000
  139.9164  135.0197  156.7896 LP  0  0  0  0  0  0  0  0  0  0  0  0  # atno 17395 bound_to 11000

$$$$
