AV-unprocessed.smi:1375|AV-procd|sdf|5589|dock6
  -GOLD-   22720 5193D 1   1.00000     0.00000
 Structure written by MMmdl.
 36 37  0  0  0  0  0  0  0  0  1 V2000
  152.3575  138.7440  155.5887 C   0  0  0  0  0  0  0  0  0  0  0  0
  151.1795  139.6147  155.3146 C   0  0  0  0  0  0  0  0  0  0  0  0
  150.1538  139.2496  154.5411 N   0  0  0  0  0  0  0  0  0  0  0  0
  149.1745  140.2431  154.4411 C   0  0  0  0  0  0  0  0  0  0  0  0
  147.9469  140.0051  153.6153 C   0  0  0  0  0  0  0  0  0  0  0  0
  147.1026  138.8379  154.1533 C   0  0  0  0  0  0  0  0  0  0  0  0
  146.9996  137.7560  153.1813 N   0  0  0  0  0  0  0  0  0  0  0  0
  145.8999  137.0150  152.9636 C   0  0  0  0  0  0  0  0  0  0  0  0
  144.8455  137.1709  153.5769 O   0  0  0  0  0  0  0  0  0  0  0  0
  146.0320  136.0813  152.0047 N   0  0  0  0  0  0  0  0  0  0  0  0
  145.0283  135.1234  151.5348 C   0  0  0  0  0  0  0  0  0  0  0  0
  144.6578  134.0940  152.6244 C   0  0  0  0  0  0  0  0  0  0  0  0
  144.7656  132.7179  151.9654 C   0  0  0  0  0  0  0  0  0  0  0  0
  145.8305  132.8991  150.8890 C   0  0  0  0  0  0  0  0  0  0  0  0
  145.5791  134.3076  150.3505 C   0  0  0  0  0  0  0  0  0  0  0  0
  149.4754  141.3733  155.1595 C   0  0  0  0  0  0  0  0  0  0  0  0
  151.0022  141.2311  155.9860 S   0  0  0  0  0  0  0  0  0  0  0  0
  152.3435  137.8638  154.9451 H   0  0  0  0  0  0  0  0  0  0  0  0
  152.3446  138.4176  156.6287 H   0  0  0  0  0  0  0  0  0  0  0  0
  153.2796  139.2956  155.4052 H   0  0  0  0  0  0  0  0  0  0  0  0
  147.3427  140.9128  153.5868 H   0  0  0  0  0  0  0  0  0  0  0  0
  148.2292  139.8035  152.5811 H   0  0  0  0  0  0  0  0  0  0  0  0
  147.5575  138.4351  155.0586 H   0  0  0  0  0  0  0  0  0  0  0  0
  146.1064  139.1840  154.4339 H   0  0  0  0  0  0  0  0  0  0  0  0
  147.8211  137.5593  152.6281 H   0  0  0  0  0  0  0  0  0  0  0  0
  146.9273  136.0397  151.5395 H   0  0  0  0  0  0  0  0  0  0  0  0
  144.1393  135.6606  151.1995 H   0  0  0  0  0  0  0  0  0  0  0  0
  145.3626  134.1438  153.4560 H   0  0  0  0  0  0  0  0  0  0  0  0
  143.6636  134.2707  153.0360 H   0  0  0  0  0  0  0  0  0  0  0  0
  145.0159  131.9303  152.6767 H   0  0  0  0  0  0  0  0  0  0  0  0
  143.8143  132.4568  151.4997 H   0  0  0  0  0  0  0  0  0  0  0  0
  146.8223  132.8488  151.3402 H   0  0  0  0  0  0  0  0  0  0  0  0
  145.7778  132.1363  150.1117 H   0  0  0  0  0  0  0  0  0  0  0  0
  144.8227  134.2598  149.5661 H   0  0  0  0  0  0  0  0  0  0  0  0
  146.4748  134.7411  149.9030 H   0  0  0  0  0  0  0  0  0  0  0  0
  148.8919  142.2772  155.2535 H   0  0  0  0  0  0  0  0  0  0  0  0
  1  2  1  0  0  0  0
  1 18  1  0  0  0  0
  1 19  1  0  0  0  0
  1 20  1  0  0  0  0
  2 17  1  0  0  0  0
  2  3  2  0  0  0  0
  3  4  1  0  0  0  0
  4  5  1  0  0  0  0
  4 16  2  0  0  0  0
  5  6  1  0  0  0  0
  5 21  1  0  0  0  0
  5 22  1  0  0  0  0
  6  7  1  0  0  0  0
  6 23  1  0  0  0  0
  6 24  1  0  0  0  0
  7  8  1  0  0  0  0
  7 25  1  0  0  0  0
  8  9  2  0  0  0  0
  8 10  1  0  0  0  0
 10 11  1  0  0  0  0
 10 26  1  0  0  0  0
 11 15  1  0  0  0  0
 11 12  1  0  0  0  0
 11 27  1  0  0  0  0
 12 13  1  0  0  0  0
 12 28  1  0  0  0  0
 12 29  1  0  0  0  0
 13 14  1  0  0  0  0
 13 30  1  0  0  0  0
 13 31  1  0  0  0  0
 14 15  1  0  0  0  0
 14 32  1  0  0  0  0
 14 33  1  0  0  0  0
 15 34  1  0  0  0  0
 15 35  1  0  0  0  0
 16 17  1  0  0  0  0
 16 36  1  0  0  0  0
M  END
> <s_m_source_file>
AV-unprocessed.smi

> <i_m_source_file_index>
1375

> <i_lp_mmshare_version>
43012

> <i_f3d_flags>
0

> <s_epik_input>
W0NIM11jMW5jKFtjSF1zMSlbQ0gyXVtDSDJdW05IXUMoPU8pW05IXVtDSF0yW0NIMl1bQ0gyXVtDSDJdW0NIMl0y

> <s_epik_cmdline>
J2VwaWtfcHl0aG9uJywgJy1waCcsICc3LjAnLCAnLXRuJywgJzgnLCAnLW1hJywgJzIwMCcsICctbWV0YWxfYmluZGluZycsICctaW1hZScsICc8aW5maWxlLm1hZT4nLCAnLW9tYWUnLCAnPG91dGZpbGUubWFlPic=

> <r_epik_Ionization_Penalty>
0.00202185

> <r_epik_Ionization_Penalty_Charging>
0

> <r_epik_Ionization_Penalty_Neutral>
0.00202185

> <r_epik_State_Penalty>
0.00133629

> <r_epik_Charging_Adjusted_Penalty>
0.00133629

> <i_epik_Tot_Q>
0

> <i_epik_Tot_abs_Q>
0

> <r_epik_Metal_State_Penalty>
-0

> <b_epik_Metal_Only>
0

> <s_lp_Force_Field>
OPLS_2005

> <r_lp_Energy>
21.3593

> <b_lp_Chiralities_Consistent>
1

> <s_lp_Variant>
AV-unprocessed.smi:1375-1

> <Gold.Version>
5.8.1

> <Gold.Id.Protein>
6NUR|6NUR_protein|mol2

> <Gold.PLP.Fitness>
34.9507

> <Gold.PLP.PLP>
-27.5908

> <Gold.PLP.part.hbond>
-2.0000

> <Gold.PLP.part.metal>
0.0000

> <Gold.PLP.part.buried>
0.6585

> <Gold.PLP.part.nonpolar>
-25.3223

> <Gold.PLP.part.repulsive>
0.3351

> <Gold.PLP.ligand.clash>
0.0000

> <Gold.PLP.ligand.torsion>
0.5671

> <Gold.PLP.Chemscore.Hbond>
1.8240

> <Gold.PLP.Chemscore.CHOScore>
1.0000

> <Gold.PLP.Chemscore.Metal>
0.0000

> <Gold.Chemscore.Hbonds>
donor molecule, donor type, donor heavy atom, donor atom, acceptor molecule, acceptor atom, score
      L1  H     7    25       P1  7948  0.96
      L1  H    10    26       P1  7948  0.90
      L1  C    16    36       P1  8028  1.00

> <Gold.PLP.Chemscore.Internal.Correction>
0.0221

> <Gold.Rescore>
     Score         DG    S(hbond)    S(metal)    S(lipo)     H(rot)  DE(clash)    DE(int)     intcor
     15.24     -15.80       1.92        0.00      66.42       1.51       0.02       0.54       ----

> <Gold.Chemscore.Fitness>
15.2388

> <Gold.Chemscore.DG>
-15.7996

> <Gold.Chemscore.ZeroCoef>
-5.4800

> <Gold.Chemscore.Hbond>
1.9172

> <Gold.Chemscore.Metal>
0.0000

> <Gold.Chemscore.Lipo>
66.4238

> <Gold.Chemscore.Internal_Hbond>
0.0000

> <Gold.Chemscore.DEClash>
0.0243

> <Gold.Chemscore.DEInternal>
0.5365

> <Gold.Chemscore.Rot>
1.5060

> <Gold.Chemscore.Internal.Correction>
   9.000000E+99

> <Gold.Chemscore.Hbonds>
donor molecule, donor type, donor heavy atom, donor atom, acceptor molecule, acceptor atom, score
      L1  H     7    25       P1  7948  0.92
      L1  H    10    26       P1  7948  0.81

> <Gold.Chemscore.Hbond.Weighted>
-6.4033

> <Gold.Chemscore.Metal.Weighted>
-0.0000

> <Gold.Chemscore.Lipo.Weighted>
-7.7716

> <Gold.Chemscore.Internal_Hbond.Weighted>
0.0000

> <Gold.Chemscore.DEClash.Weighted>
0.0243

> <Gold.Chemscore.DEInternal.Weighted>
0.5365

> <Gold.Chemscore.Rot.Weighted>
3.8553

> <Gold.Chemscore.Internal.Correction.Weighted>
   9.000000E+99

> <Gold.Protein.RotatedTorsions>
[ 6907 6896 6895 6894 ] final  -23.76 input  -60.11 | X-H torsion
[ 7974 7965 7964 7962 ] final  -88.32 input  175.53 | X-H torsion
[ 8008 7997 7996 7995 ] final  -71.33 input   59.86 | X-H torsion
[ 10167 10162 10161 10158 ] final   96.66 input  -65.29 | X-H torsion
[ 10718 10713 10712 10709 ] final   28.05 input   66.30 | X-H torsion
[ 10763 10752 10751 10750 ] final   -5.76 input  -60.55 | X-H torsion
[ 11005 11000 10999 10996 ] final -173.27 input  -57.11 | X-H torsion

> <Gold.Protein.ActiveResidues>
 VAL166  LYS551  ARG553  GLY616  TRP617  ASP618  TYR619  PRO620  LYS621  CYS622 
 ASP623  PHE694  ASN695  SER759  ASP760  ASP761  ALA762  ILE779  LEU786  VAL792 
 PHE793  MET794  SER795  GLU796  ALA797  LYS798  CYS799  TRP800  GLU811  SER814 

> <Gold.Protein.RotatedAtoms>
  151.1993  135.0435  159.8865 H   0  0  0  0  0  0  0  0  0  0  0  0  # atno 6907 bound_to 6896
  152.5434  134.0868  159.8270 H   0  0  0  0  0  0  0  0  0  0  0  0  # atno 6908 bound_to 6896
  151.1007  133.5198  159.2642 H   0  0  0  0  0  0  0  0  0  0  0  0  # atno 6909 bound_to 6896
  145.4547  140.9561  143.2003 H   0  0  0  0  0  0  0  0  0  0  0  0  # atno 7974 bound_to 7965
  154.5080  140.0817  156.7932 H   0  0  0  0  0  0  0  0  0  0  0  0  # atno 8008 bound_to 7997
  155.3850  140.3429  155.4230 H   0  0  0  0  0  0  0  0  0  0  0  0  # atno 8009 bound_to 7997
  156.1538  140.1567  156.8713 H   0  0  0  0  0  0  0  0  0  0  0  0  # atno 8010 bound_to 7997
  139.7873  144.6865  150.9940 H   0  0  0  0  0  0  0  0  0  0  0  0  # atno 10167 bound_to 10162
  157.2283  130.7011  149.6301 H   0  0  0  0  0  0  0  0  0  0  0  0  # atno 10718 bound_to 10713
  153.4030  135.7005  153.6412 H   0  0  0  0  0  0  0  0  0  0  0  0  # atno 10763 bound_to 10752
  153.4938  135.3667  155.2505 H   0  0  0  0  0  0  0  0  0  0  0  0  # atno 10764 bound_to 10752
  154.8712  135.4095  154.3369 H   0  0  0  0  0  0  0  0  0  0  0  0  # atno 10765 bound_to 10752
  140.4877  134.6015  157.4943 H   0  0  0  0  0  0  0  0  0  0  0  0  # atno 11005 bound_to 11000
  144.8040  139.6087  143.7059 LP  0  0  0  0  0  0  0  0  0  0  0  0  # atno 17320 bound_to 7965
  146.2485  139.6148  142.9443 LP  0  0  0  0  0  0  0  0  0  0  0  0  # atno 17321 bound_to 7965
  140.7820  143.4418  151.0540 LP  0  0  0  0  0  0  0  0  0  0  0  0  # atno 17342 bound_to 10162
  139.8096  143.7969  152.3170 LP  0  0  0  0  0  0  0  0  0  0  0  0  # atno 17343 bound_to 10162
  155.9677  130.4497  150.5669 LP  0  0  0  0  0  0  0  0  0  0  0  0  # atno 17370 bound_to 10713
  157.3505  131.0732  151.1717 LP  0  0  0  0  0  0  0  0  0  0  0  0  # atno 17371 bound_to 10713
  139.9788  134.7171  155.9898 LP  0  0  0  0  0  0  0  0  0  0  0  0  # atno 17394 bound_to 11000
  141.1500  133.6550  156.3984 LP  0  0  0  0  0  0  0  0  0  0  0  0  # atno 17395 bound_to 11000

$$$$
