AV-unprocessed.smi:2061|AV-procd|sdf|8378|dock6
  -GOLD-   2272011 53D 1   1.00000     0.00000
 Structure written by MMmdl.
 44 45  0  0  0  0  0  0  0  0  2 V2000
  145.0468  133.8576  162.2959 C   0  0  0  0  0  0  0  0  0  0  0  0
  146.0439  134.6512  161.5230 C   0  0  0  0  0  0  0  0  0  0  0  0
  146.2460  135.9938  161.3725 C   0  0  0  0  0  0  0  0  0  0  0  0
  147.3699  136.0580  160.5039 C   0  0  0  0  0  0  0  0  0  0  0  0
  147.9485  137.1772  160.0419 N   0  5  0  0  0  0  0  0  0  0  0  0
  149.0054  137.1022  159.2005 C   0  0  0  0  0  0  0  0  0  0  0  0
  149.7729  136.1453  159.0733 O   0  0  0  0  0  0  0  0  0  0  0  0
  149.1870  138.2077  158.4634 N   0  0  0  0  0  0  0  0  0  0  0  0
  150.2537  138.4221  157.4880 C   0  0  0  0  0  0  0  0  0  0  0  0
  150.2721  139.8620  156.8954 C   0  0  2  0  0  0  0  0  0  0  0  0
  151.1650  139.8682  155.6279 C   0  0  0  0  0  0  0  0  0  0  0  0
  150.6668  140.8986  157.8789 N   0  0  0  0  0  0  0  0  0  0  0  0
  151.8587  140.5195  158.6433 C   0  0  0  0  0  0  0  0  0  0  0  0
  152.2697  141.5800  159.6804 C   0  0  1  0  0  0  0  0  0  0  0  0
  153.5645  141.2016  160.4074 C   0  0  0  0  0  0  0  0  0  0  0  0
  152.4802  142.8279  159.0286 O   0  0  0  0  0  0  0  0  0  0  0  0
  151.3763  143.2879  158.2526 C   0  0  2  0  0  0  0  0  0  0  0  0
  150.2320  143.8134  159.1365 C   0  0  0  0  0  0  0  0  0  0  0  0
  150.9281  142.2010  157.2549 C   0  0  0  0  0  0  0  0  0  0  0  0
  147.8002  134.8601  160.1450 N   0  0  0  0  0  0  0  0  0  0  0  0
  146.9584  133.9523  160.7985 O   0  0  0  0  0  0  0  0  0  0  0  0
  144.0738  133.8801  161.8050 H   0  0  0  0  0  0  0  0  0  0  0  0
  144.9283  134.2606  163.3018 H   0  0  0  0  0  0  0  0  0  0  0  0
  145.3572  132.8163  162.3848 H   0  0  0  0  0  0  0  0  0  0  0  0
  145.6834  136.8020  161.8148 H   0  0  0  0  0  0  0  0  0  0  0  0
  148.5347  138.9659  158.5987 H   0  0  0  0  0  0  0  0  0  0  0  0
  151.1871  138.1712  157.9895 H   0  0  0  0  0  0  0  0  0  0  0  0
  150.1299  137.6931  156.6868 H   0  0  0  0  0  0  0  0  0  0  0  0
  149.2559  140.0860  156.5671 H   0  0  0  0  0  0  0  0  0  0  0  0
  150.9080  139.0696  154.9329 H   0  0  0  0  0  0  0  0  0  0  0  0
  152.2176  139.7497  155.8868 H   0  0  0  0  0  0  0  0  0  0  0  0
  151.0595  140.7855  155.0509 H   0  0  0  0  0  0  0  0  0  0  0  0
  151.6847  139.5955  159.1909 H   0  0  0  0  0  0  0  0  0  0  0  0
  152.6890  140.3313  157.9607 H   0  0  0  0  0  0  0  0  0  0  0  0
  151.4797  141.6864  160.4244 H   0  0  0  0  0  0  0  0  0  0  0  0
  153.4553  140.2559  160.9387 H   0  0  0  0  0  0  0  0  0  0  0  0
  153.8370  141.9633  161.1384 H   0  0  0  0  0  0  0  0  0  0  0  0
  154.3948  141.0991  159.7080 H   0  0  0  0  0  0  0  0  0  0  0  0
  151.7440  144.1369  157.6758 H   0  0  0  0  0  0  0  0  0  0  0  0
  149.4513  144.2700  158.5278 H   0  0  0  0  0  0  0  0  0  0  0  0
  150.5943  144.5712  159.8316 H   0  0  0  0  0  0  0  0  0  0  0  0
  149.7652  143.0195  159.7190 H   0  0  0  0  0  0  0  0  0  0  0  0
  151.6962  142.0858  156.4885 H   0  0  0  0  0  0  0  0  0  0  0  0
  150.0405  142.5782  156.7519 H   0  0  0  0  0  0  0  0  0  0  0  0
  1  2  1  0  0  0  0
  1 22  1  0  0  0  0
  1 23  1  0  0  0  0
  1 24  1  0  0  0  0
  2 21  1  0  0  0  0
  2  3  2  0  0  0  0
  3  4  1  0  0  0  0
  3 25  1  0  0  0  0
  4  5  1  0  0  0  0
  4 20  2  0  0  0  0
  5  6  1  0  0  0  0
  6  7  2  0  0  0  0
  6  8  1  0  0  0  0
  8  9  1  0  0  0  0
  8 26  1  0  0  0  0
  9 10  1  0  0  0  0
  9 27  1  0  0  0  0
  9 28  1  0  0  0  0
 10 11  1  0  0  0  0
 10 12  1  0  0  0  0
 10 29  1  0  0  0  0
 11 30  1  0  0  0  0
 11 31  1  0  0  0  0
 11 32  1  0  0  0  0
 12 19  1  0  0  0  0
 12 13  1  0  0  0  0
 13 14  1  0  0  0  0
 13 33  1  0  0  0  0
 13 34  1  0  0  0  0
 14 15  1  0  0  0  0
 14 16  1  0  0  0  0
 14 35  1  0  0  0  0
 15 36  1  0  0  0  0
 15 37  1  0  0  0  0
 15 38  1  0  0  0  0
 16 17  1  0  0  0  0
 17 18  1  0  0  0  0
 17 19  1  0  0  0  0
 17 39  1  0  0  0  0
 18 40  1  0  0  0  0
 18 41  1  0  0  0  0
 18 42  1  0  0  0  0
 19 43  1  0  0  0  0
 19 44  1  0  0  0  0
 20 21  1  0  0  0  0
M  CHG  1   5  -1
M  END
> <s_m_source_file>
AV-unprocessed.smi

> <i_m_source_file_index>
2061

> <i_lp_mmshare_version>
43012

> <i_f3d_flags>
0

> <s_epik_input>
W0NIM11jMVtjSF1jKG5vMSlbTkhdQyg9TylbTkhdW0NIMl1bQ0BIXShbQ0gzXSlOMltDSDJdW0NAQEhdKFtDSDNdKU9bQ0BASF0oW0NIM10pW0NIMl0y

> <s_epik_cmdline>
J2VwaWtfcHl0aG9uJywgJy1waCcsICc3LjAnLCAnLXRuJywgJzgnLCAnLW1hJywgJzIwMCcsICctbWV0YWxfYmluZGluZycsICctaW1hZScsICc8aW5maWxlLm1hZT4nLCAnLW9tYWUnLCAnPG91dGZpbGUubWFlPic=

> <r_epik_Ionization_Penalty>
6.88367

> <r_epik_Ionization_Penalty_Charging>
6.57198

> <r_epik_Ionization_Penalty_Neutral>
0.311681

> <r_epik_State_Penalty>
6.77619

> <r_epik_Charging_Adjusted_Penalty>
13.3482

> <i_epik_Tot_Q>
-1

> <i_epik_Tot_abs_Q>
1

> <r_epik_Metal_State_Penalty>
2.70524

> <b_epik_Metal_Only>
1

> <s_lp_Force_Field>
OPLS_2005

> <r_lp_Energy>
23.679

> <b_lp_Chiralities_Consistent>
1

> <s_lp_Variant>
AV-unprocessed.smi:2061-19

> <Gold.Version>
5.8.1

> <Gold.Id.Protein>
6NUR|6NUR_protein|mol2

> <Gold.PLP.Fitness>
44.7133

> <Gold.PLP.PLP>
-34.6999

> <Gold.PLP.part.hbond>
-3.0000

> <Gold.PLP.part.metal>
0.0000

> <Gold.PLP.part.buried>
-5.4098

> <Gold.PLP.part.nonpolar>
-28.4005

> <Gold.PLP.part.repulsive>
0.2121

> <Gold.PLP.ligand.clash>
0.0000

> <Gold.PLP.ligand.torsion>
0.3989

> <Gold.PLP.Chemscore.Hbond>
3.5920

> <Gold.PLP.Chemscore.CHOScore>
0.0000

> <Gold.PLP.Chemscore.Metal>
0.0000

> <Gold.Chemscore.Hbonds>
donor molecule, donor type, donor heavy atom, donor atom, acceptor molecule, acceptor atom, score
      P1  H  6896  6908       L1     7  1.00
      P1  H  6931  6943       L1     5  0.09
      P1  H  6934  6947       L1     5  0.95

> <Gold.PLP.Chemscore.Internal.Correction>
0.0352

> <Gold.Rescore>
     Score         DG    S(hbond)    S(metal)    S(lipo)     H(rot)  DE(clash)    DE(int)     intcor
     15.62     -17.53       1.64        0.00      89.34       1.52       0.00       1.91       ----

> <Gold.Chemscore.Fitness>
15.6157

> <Gold.Chemscore.DG>
-17.5268

> <Gold.Chemscore.ZeroCoef>
-5.4800

> <Gold.Chemscore.Hbond>
1.6414

> <Gold.Chemscore.Metal>
0.0000

> <Gold.Chemscore.Lipo>
89.3441

> <Gold.Chemscore.Internal_Hbond>
0.0000

> <Gold.Chemscore.DEClash>
0.0021

> <Gold.Chemscore.DEInternal>
1.9090

> <Gold.Chemscore.Rot>
1.5190

> <Gold.Chemscore.Internal.Correction>
   9.000000E+99

> <Gold.Chemscore.Hbonds>
donor molecule, donor type, donor heavy atom, donor atom, acceptor molecule, acceptor atom, score
      P1  H  6896  6908       L1     7  1.00
      P1  H  6931  6943       L1     5  0.01
      P1  H  6934  6947       L1     5  0.43

> <Gold.Chemscore.Hbond.Weighted>
-5.4821

> <Gold.Chemscore.Metal.Weighted>
-0.0000

> <Gold.Chemscore.Lipo.Weighted>
-10.4533

> <Gold.Chemscore.Internal_Hbond.Weighted>
0.0000

> <Gold.Chemscore.DEClash.Weighted>
0.0021

> <Gold.Chemscore.DEInternal.Weighted>
1.9090

> <Gold.Chemscore.Rot.Weighted>
3.8886

> <Gold.Chemscore.Internal.Correction.Weighted>
   9.000000E+99

> <Gold.Protein.RotatedTorsions>
[ 6907 6896 6895 6894 ] final -178.16 input  -60.11 | X-H torsion
[ 7974 7965 7964 7962 ] final  116.75 input  175.53 | X-H torsion
[ 8008 7997 7996 7995 ] final   96.62 input   59.86 | X-H torsion
[ 10167 10162 10161 10158 ] final   99.90 input  -65.29 | X-H torsion
[ 10718 10713 10712 10709 ] final   60.83 input   66.30 | X-H torsion
[ 10763 10752 10751 10750 ] final    7.90 input  -60.55 | X-H torsion
[ 11005 11000 10999 10996 ] final  139.39 input  -57.11 | X-H torsion

> <Gold.Protein.ActiveResidues>
 VAL166  LYS551  ARG553  GLY616  TRP617  ASP618  TYR619  PRO620  LYS621  CYS622 
 ASP623  PHE694  ASN695  SER759  ASP760  ASP761  ALA762  ILE779  LEU786  VAL792 
 PHE793  MET794  SER795  GLU796  ALA797  LYS798  CYS799  TRP800  GLU811  SER814 

> <Gold.Protein.RotatedAtoms>
  151.6327  133.3331  159.3112 H   0  0  0  0  0  0  0  0  0  0  0  0  # atno 6907 bound_to 6896
  150.8048  134.7170  159.6645 H   0  0  0  0  0  0  0  0  0  0  0  0  # atno 6908 bound_to 6896
  152.4143  134.6074  160.0068 H   0  0  0  0  0  0  0  0  0  0  0  0  # atno 6909 bound_to 6896
  145.1758  139.3076  143.4444 H   0  0  0  0  0  0  0  0  0  0  0  0  # atno 7974 bound_to 7965
  156.0815  140.3270  155.7700 H   0  0  0  0  0  0  0  0  0  0  0  0  # atno 8008 bound_to 7997
  155.5144  140.0580  157.2935 H   0  0  0  0  0  0  0  0  0  0  0  0  # atno 8009 bound_to 7997
  154.4585  140.1955  156.0328 H   0  0  0  0  0  0  0  0  0  0  0  0  # atno 8010 bound_to 7997
  139.7575  144.6965  151.0340 H   0  0  0  0  0  0  0  0  0  0  0  0  # atno 10167 bound_to 10162
  157.5782  130.8960  149.9384 H   0  0  0  0  0  0  0  0  0  0  0  0  # atno 10718 bound_to 10713
  153.2311  135.6892  153.7889 H   0  0  0  0  0  0  0  0  0  0  0  0  # atno 10763 bound_to 10752
  153.7053  135.3291  155.3235 H   0  0  0  0  0  0  0  0  0  0  0  0  # atno 10764 bound_to 10752
  154.8314  135.4577  154.1196 H   0  0  0  0  0  0  0  0  0  0  0  0  # atno 10765 bound_to 10752
  140.0251  134.9378  157.0552 H   0  0  0  0  0  0  0  0  0  0  0  0  # atno 11005 bound_to 11000
  146.3461  140.1920  142.8589 LP  0  0  0  0  0  0  0  0  0  0  0  0  # atno 17320 bound_to 7965
  145.0186  140.8775  143.5180 LP  0  0  0  0  0  0  0  0  0  0  0  0  # atno 17321 bound_to 7965
  140.7804  143.4735  151.0114 LP  0  0  0  0  0  0  0  0  0  0  0  0  # atno 17342 bound_to 10162
  139.8422  143.7549  152.3180 LP  0  0  0  0  0  0  0  0  0  0  0  0  # atno 17343 bound_to 10162
  156.0827  130.3671  150.0548 LP  0  0  0  0  0  0  0  0  0  0  0  0  # atno 17370 bound_to 10713
  156.8691  130.9518  151.3611 LP  0  0  0  0  0  0  0  0  0  0  0  0  # atno 17371 bound_to 10713
  140.4320  134.1770  155.7168 LP  0  0  0  0  0  0  0  0  0  0  0  0  # atno 17394 bound_to 11000
  141.1798  133.8438  157.1298 LP  0  0  0  0  0  0  0  0  0  0  0  0  # atno 17395 bound_to 11000

$$$$
