AV-unprocessed.smi:2671|AV-procd|sdf|10350|dock3
  -GOLD-   2272014373D 1   1.00000     0.00000
 Structure written by MMmdl.
 29 30  0  0  0  0  0  0  0  0  1 V2000
  153.5020  138.2828  155.8772 O   0  0  0  0  0  0  0  0  0  0  0  0
  152.5910  138.8035  156.5173 C   0  0  0  0  0  0  0  0  0  0  0  0
  151.2225  138.8407  155.9884 C   0  0  0  0  0  0  0  0  0  0  0  0
  150.2417  139.4115  156.7159 C   0  0  0  0  0  0  0  0  0  0  0  0
  148.8019  139.5114  156.2382 C   0  0  0  0  0  0  0  0  0  0  0  0
  148.7393  140.1959  155.0963 F   0  0  0  0  0  0  0  0  0  0  0  0
  148.3070  138.2936  156.0194 F   0  0  0  0  0  0  0  0  0  0  0  0
  148.0255  140.1227  157.1353 F   0  0  0  0  0  0  0  0  0  0  0  0
  150.5240  139.9725  157.9497 N   0  0  0  0  0  0  0  0  0  0  0  0
  151.8285  139.9278  158.4314 C   0  0  0  0  0  0  0  0  0  0  0  0
  151.9995  140.7125  160.0737 S   0  0  0  0  0  0  0  0  0  0  0  0
  153.5499  141.6599  159.9622 C   0  0  0  0  0  0  0  0  0  0  0  0
  153.2940  143.1702  160.0454 C   0  0  2  0  0  0  0  0  0  0  0  0
  152.3264  143.5715  161.1572 C   0  0  0  0  0  0  0  0  0  0  0  0
  151.8101  144.8960  160.6443 C   0  0  0  0  0  0  0  0  0  0  0  0
  151.6960  144.6250  159.1469 C   0  0  0  0  0  0  0  0  0  0  0  0
  152.6922  143.6506  158.8455 O   0  0  0  0  0  0  0  0  0  0  0  0
  152.8140  139.3840  157.7767 N   0  0  0  0  0  0  0  0  0  0  0  0
  149.7637  140.4040  158.4549 H   0  0  0  0  0  0  0  0  0  0  0  0
  151.0053  138.4126  155.0207 H   0  0  0  0  0  0  0  0  0  0  0  0
  154.0377  141.4265  159.0153 H   0  0  0  0  0  0  0  0  0  0  0  0
  154.2217  141.3539  160.7649 H   0  0  0  0  0  0  0  0  0  0  0  0
  154.2354  143.7039  160.1855 H   0  0  0  0  0  0  0  0  0  0  0  0
  151.5059  142.8565  161.2324 H   0  0  0  0  0  0  0  0  0  0  0  0
  152.8062  143.6469  162.1334 H   0  0  0  0  0  0  0  0  0  0  0  0
  150.8646  145.1949  161.0975 H   0  0  0  0  0  0  0  0  0  0  0  0
  152.5438  145.6816  160.8304 H   0  0  0  0  0  0  0  0  0  0  0  0
  150.7186  144.2033  158.9098 H   0  0  0  0  0  0  0  0  0  0  0  0
  151.8289  145.5280  158.5507 H   0  0  0  0  0  0  0  0  0  0  0  0
  1  2  2  0  0  0  0
  2 18  1  0  0  0  0
  2  3  1  0  0  0  0
  3 20  1  0  0  0  0
  3  4  2  0  0  0  0
  4  5  1  0  0  0  0
  4  9  1  0  0  0  0
  5  6  1  0  0  0  0
  5  7  1  0  0  0  0
  5  8  1  0  0  0  0
  9 10  1  0  0  0  0
  9 19  1  0  0  0  0
 10 11  1  0  0  0  0
 10 18  2  0  0  0  0
 11 12  1  0  0  0  0
 12 13  1  0  0  0  0
 12 21  1  0  0  0  0
 12 22  1  0  0  0  0
 13 17  1  0  0  0  0
 13 14  1  0  0  0  0
 13 23  1  0  0  0  0
 14 15  1  0  0  0  0
 14 24  1  0  0  0  0
 14 25  1  0  0  0  0
 15 16  1  0  0  0  0
 15 26  1  0  0  0  0
 15 27  1  0  0  0  0
 16 17  1  0  0  0  0
 16 28  1  0  0  0  0
 16 29  1  0  0  0  0
M  END
> <s_m_source_file>
AV-unprocessed.smi

> <i_m_source_file_index>
2671

> <i_lp_mmshare_version>
43012

> <i_f3d_flags>
0

> <s_epik_input>
W09IXWMxW2NIXWMoQyhGKShGKUYpbmMobjEpU1tDSDJdW0NAQEhdMltDSDJdW0NIMl1bQ0gyXU8y

> <s_epik_cmdline>
J2VwaWtfcHl0aG9uJywgJy1waCcsICc3LjAnLCAnLXRuJywgJzgnLCAnLW1hJywgJzIwMCcsICctbWV0YWxfYmluZGluZycsICctaW1hZScsICc8aW5maWxlLm1hZT4nLCAnLW9tYWUnLCAnPG91dGZpbGUubWFlPic=

> <r_lp_tautomer_probability>
0.273662

> <r_epik_Ionization_Penalty>
1.33793

> <r_epik_Ionization_Penalty_Charging>
1.33793

> <r_epik_Ionization_Penalty_Neutral>
8.2996e-08

> <r_epik_State_Penalty>
1.59174

> <r_epik_Charging_Adjusted_Penalty>
2.92967

> <i_epik_Tot_Q>
0

> <i_epik_Tot_abs_Q>
0

> <r_epik_Metal_State_Penalty>
2.31522

> <b_epik_Metal_Only>
0

> <s_lp_Force_Field>
OPLS_2005

> <r_lp_Energy>
28.2074

> <b_lp_Chiralities_Consistent>
1

> <s_lp_Variant>
AV-unprocessed.smi:2671-5

> <Gold.Version>
5.8.1

> <Gold.Id.Protein>
6NUR|6NUR_protein|mol2

> <Gold.PLP.Fitness>
40.4651

> <Gold.PLP.PLP>
-38.8442

> <Gold.PLP.part.hbond>
-2.0000

> <Gold.PLP.part.metal>
0.0000

> <Gold.PLP.part.buried>
-2.9935

> <Gold.PLP.part.nonpolar>
-34.3117

> <Gold.PLP.part.repulsive>
0.0258

> <Gold.PLP.ligand.clash>
0.0000

> <Gold.PLP.ligand.torsion>
0.7021

> <Gold.PLP.Chemscore.Hbond>
1.0000

> <Gold.PLP.Chemscore.CHOScore>
0.0000

> <Gold.PLP.Chemscore.Metal>
0.0000

> <Gold.Chemscore.Hbonds>
donor molecule, donor type, donor heavy atom, donor atom, acceptor molecule, acceptor atom, score
      P1  H  7997  8009       L1    18  0.10

> <Gold.PLP.Chemscore.Internal.Correction>
0.0250

> <Gold.Rescore>
     Score         DG    S(hbond)    S(metal)    S(lipo)     H(rot)  DE(clash)    DE(int)     intcor
     10.84     -11.58       0.14        0.00      85.21       1.69       0.06       0.68       ----

> <Gold.Chemscore.Fitness>
10.8399

> <Gold.Chemscore.DG>
-11.5785

> <Gold.Chemscore.ZeroCoef>
-5.4800

> <Gold.Chemscore.Hbond>
0.1383

> <Gold.Chemscore.Metal>
0.0000

> <Gold.Chemscore.Lipo>
85.2058

> <Gold.Chemscore.Internal_Hbond>
0.0000

> <Gold.Chemscore.DEClash>
0.0616

> <Gold.Chemscore.DEInternal>
0.6770

> <Gold.Chemscore.Rot>
1.6924

> <Gold.Chemscore.Internal.Correction>
   9.000000E+99

> <Gold.Chemscore.Hbond.Weighted>
-0.4618

> <Gold.Chemscore.Metal.Weighted>
-0.0000

> <Gold.Chemscore.Lipo.Weighted>
-9.9691

> <Gold.Chemscore.Internal_Hbond.Weighted>
0.0000

> <Gold.Chemscore.DEClash.Weighted>
0.0616

> <Gold.Chemscore.DEInternal.Weighted>
0.6770

> <Gold.Chemscore.Rot.Weighted>
4.3324

> <Gold.Chemscore.Internal.Correction.Weighted>
   9.000000E+99

> <Gold.Protein.RotatedTorsions>
[ 6907 6896 6895 6894 ] final -138.50 input  -60.11 | X-H torsion
[ 7974 7965 7964 7962 ] final  132.67 input  175.53 | X-H torsion
[ 8008 7997 7996 7995 ] final  167.35 input   59.86 | X-H torsion
[ 10167 10162 10161 10158 ] final   71.69 input  -65.29 | X-H torsion
[ 10718 10713 10712 10709 ] final -137.13 input   66.30 | X-H torsion
[ 10763 10752 10751 10750 ] final   15.37 input  -60.55 | X-H torsion
[ 11005 11000 10999 10996 ] final   70.82 input  -57.11 | X-H torsion

> <Gold.Protein.ActiveResidues>
 VAL166  LYS551  ARG553  GLY616  TRP617  ASP618  TYR619  PRO620  LYS621  CYS622 
 ASP623  PHE694  ASN695  SER759  ASP760  ASP761  ALA762  ILE779  LEU786  VAL792 
 PHE793  MET794  SER795  GLU796  ALA797  LYS798  CYS799  TRP800  GLU811  SER814 

> <Gold.Protein.RotatedAtoms>
  151.0358  133.5749  159.2655 H   0  0  0  0  0  0  0  0  0  0  0  0  # atno 6907 bound_to 6896
  151.2814  135.0714  159.9180 H   0  0  0  0  0  0  0  0  0  0  0  0  # atno 6908 bound_to 6896
  152.5354  134.0072  159.7976 H   0  0  0  0  0  0  0  0  0  0  0  0  # atno 6909 bound_to 6896
  144.9944  139.4374  143.5323 H   0  0  0  0  0  0  0  0  0  0  0  0  # atno 7974 bound_to 7965
  156.1641  140.1619  156.8561 H   0  0  0  0  0  0  0  0  0  0  0  0  # atno 8008 bound_to 7997
  154.5190  140.0782  156.8171 H   0  0  0  0  0  0  0  0  0  0  0  0  # atno 8009 bound_to 7997
  155.3647  140.3397  155.4244 H   0  0  0  0  0  0  0  0  0  0  0  0  # atno 8010 bound_to 7997
  140.0434  144.5371  150.7417 H   0  0  0  0  0  0  0  0  0  0  0  0  # atno 10167 bound_to 10162
  156.2847  130.7341  151.1349 H   0  0  0  0  0  0  0  0  0  0  0  0  # atno 10718 bound_to 10713
  153.1532  135.6782  153.8851 H   0  0  0  0  0  0  0  0  0  0  0  0  # atno 10763 bound_to 10752
  153.8270  135.3122  155.3416 H   0  0  0  0  0  0  0  0  0  0  0  0  # atno 10764 bound_to 10752
  154.7878  135.4852  154.0071 H   0  0  0  0  0  0  0  0  0  0  0  0  # atno 10765 bound_to 10752
  139.9577  134.7115  156.0716 H   0  0  0  0  0  0  0  0  0  0  0  0  # atno 11005 bound_to 11000
  146.3438  139.9295  142.8755 LP  0  0  0  0  0  0  0  0  0  0  0  0  # atno 17320 bound_to 7965
  145.2240  140.9946  143.4029 LP  0  0  0  0  0  0  0  0  0  0  0  0  # atno 17321 bound_to 7965
  140.7250  143.2626  151.4152 LP  0  0  0  0  0  0  0  0  0  0  0  0  # atno 17342 bound_to 10162
  139.5999  144.1318  152.2186 LP  0  0  0  0  0  0  0  0  0  0  0  0  # atno 17343 bound_to 10162
  157.7325  131.0599  150.5625 LP  0  0  0  0  0  0  0  0  0  0  0  0  # atno 17370 bound_to 10713
  156.5734  130.4286  149.6009 LP  0  0  0  0  0  0  0  0  0  0  0  0  # atno 17371 bound_to 10713
  141.1250  133.6602  156.3314 LP  0  0  0  0  0  0  0  0  0  0  0  0  # atno 17394 bound_to 11000
  140.5571  134.5970  157.5424 LP  0  0  0  0  0  0  0  0  0  0  0  0  # atno 17395 bound_to 11000

$$$$
