AV-unprocessed.smi:218|AV-procd|sdf|1666|dock3
  -GOLD-   2262020 73D 1   1.00000     0.00000
 Structure written by MMmdl.
 54 57  0  0  0  0  0  0  0  0  1 V2000
  153.0182  142.5646  159.7920 C   0  0  0  0  0  0  0  0  0  0  0  0
  153.0838  141.0795  160.1678 C   0  0  0  0  0  0  0  0  0  0  0  0
  154.0976  140.8361  161.2989 C   0  0  0  0  0  0  0  0  0  0  0  0
  153.4732  140.3696  158.9901 O   0  0  0  0  0  0  0  0  0  0  0  0
  152.5864  140.2259  157.9401 C   0  0  0  0  0  0  0  0  0  0  0  0
  151.2610  140.6727  158.1194 C   0  0  0  0  0  0  0  0  0  0  0  0
  150.3395  140.5182  157.0629 C   0  0  0  0  0  0  0  0  0  0  0  0
  148.8956  140.9642  157.2151 C   0  0  0  0  0  0  0  0  0  0  0  0
  147.9004  139.9955  156.7682 N   0  0  0  0  0  0  0  0  0  0  0  0
  147.5078  139.9497  155.4758 C   0  0  0  0  0  0  0  0  0  0  0  0
  147.7972  140.9616  154.6164 N   0  0  0  0  0  0  0  0  0  0  0  0
  147.4110  140.8849  153.3397 C   0  0  0  0  0  0  0  0  0  0  0  0
  146.7477  139.9024  152.7268 N   0  0  0  0  0  0  0  0  0  0  0  0
  146.4561  138.8816  153.5838 C   0  0  0  0  0  0  0  0  0  0  0  0
  146.7976  138.8325  154.9644 C   0  0  0  0  0  0  0  0  0  0  0  0
  146.3427  137.6436  155.5197 N   0  0  0  0  0  0  0  0  0  0  0  0
  145.7723  137.0261  154.5201 C   0  0  0  0  0  0  0  0  0  0  0  0
  145.7960  137.6985  153.3183 N   0  0  0  0  0  0  0  0  0  0  0  0
  145.2341  137.2442  152.0104 C   0  0  2  0  0  0  0  0  0  0  0  0
  144.5048  136.0794  152.2307 O   0  0  0  0  0  0  0  0  0  0  0  0
  144.6361  135.2335  151.0979 C   0  0  2  0  0  0  0  0  0  0  0  0
  144.2571  133.7836  151.4464 C   0  0  0  0  0  0  0  0  0  0  0  0
  143.6523  133.1618  150.3330 O   0  0  0  0  0  0  0  0  0  0  0  0
  146.0925  135.4548  150.6593 C   0  0  2  0  0  0  0  0  0  0  0  0
  146.9853  134.6125  151.3642 O   0  0  0  0  0  0  0  0  0  0  0  0
  146.3544  136.9189  151.0064 C   0  0  1  0  0  0  0  0  0  0  0  0
  146.2332  137.7068  149.8387 O   0  0  0  0  0  0  0  0  0  0  0  0
  150.7818  139.9226  155.8650 C   0  0  0  0  0  0  0  0  0  0  0  0
  152.1259  139.5123  155.7771 C   0  0  0  0  0  0  0  0  0  0  0  0
  153.0115  139.6530  156.7863 N   0  0  0  0  0  0  0  0  0  0  0  0
  144.5745  138.0515  151.6879 H   0  0  0  0  0  0  0  0  0  0  0  0
  143.9838  135.6133  150.3087 H   0  0  0  0  0  0  0  0  0  0  0  0
  146.2210  135.2461  149.5960 H   0  0  0  0  0  0  0  0  0  0  0  0
  147.3419  137.0751  151.4447 H   0  0  0  0  0  0  0  0  0  0  0  0
  152.7181  143.1732  160.6455 H   0  0  0  0  0  0  0  0  0  0  0  0
  152.2938  142.7329  158.9948 H   0  0  0  0  0  0  0  0  0  0  0  0
  153.9858  142.9286  159.4450 H   0  0  0  0  0  0  0  0  0  0  0  0
  152.0845  140.7859  160.4928 H   0  0  0  0  0  0  0  0  0  0  0  0
  153.8283  141.4014  162.1914 H   0  0  0  0  0  0  0  0  0  0  0  0
  155.1005  141.1428  160.9998 H   0  0  0  0  0  0  0  0  0  0  0  0
  154.1450  139.7849  161.5812 H   0  0  0  0  0  0  0  0  0  0  0  0
  150.9583  141.1204  159.0545 H   0  0  0  0  0  0  0  0  0  0  0  0
  148.6970  141.2362  158.2527 H   0  0  0  0  0  0  0  0  0  0  0  0
  148.7619  141.8754  156.6323 H   0  0  0  0  0  0  0  0  0  0  0  0
  147.5147  139.3957  157.4833 H   0  0  0  0  0  0  0  0  0  0  0  0
  147.6739  141.7295  152.7200 H   0  0  0  0  0  0  0  0  0  0  0  0
  145.3157  136.0536  154.6330 H   0  0  0  0  0  0  0  0  0  0  0  0
  145.1512  133.2101  151.6928 H   0  0  0  0  0  0  0  0  0  0  0  0
  143.5924  133.7415  152.3101 H   0  0  0  0  0  0  0  0  0  0  0  0
  142.9554  133.7200  150.0223 H   0  0  0  0  0  0  0  0  0  0  0  0
  147.8263  135.0396  151.4160 H   0  0  0  0  0  0  0  0  0  0  0  0
  145.3910  138.1352  149.8522 H   0  0  0  0  0  0  0  0  0  0  0  0
  150.1104  139.7841  155.0305 H   0  0  0  0  0  0  0  0  0  0  0  0
  152.4991  139.0538  154.8732 H   0  0  0  0  0  0  0  0  0  0  0  0
  1  2  1  0  0  0  0
  1 35  1  0  0  0  0
  1 36  1  0  0  0  0
  1 37  1  0  0  0  0
  2  3  1  0  0  0  0
  2  4  1  0  0  0  0
  2 38  1  0  0  0  0
  3 39  1  0  0  0  0
  3 40  1  0  0  0  0
  3 41  1  0  0  0  0
  4  5  1  0  0  0  0
  5 30  1  0  0  0  0
  5  6  2  0  0  0  0
  6  7  1  0  0  0  0
  6 42  1  0  0  0  0
  7  8  1  0  0  0  0
  7 28  2  0  0  0  0
  8  9  1  0  0  0  0
  8 43  1  0  0  0  0
  8 44  1  0  0  0  0
  9 10  1  0  0  0  0
  9 45  1  0  0  0  0
 10 15  1  0  0  0  0
 10 11  2  0  0  0  0
 11 12  1  0  0  0  0
 12 13  2  0  0  0  0
 12 46  1  0  0  0  0
 13 14  1  0  0  0  0
 14 18  1  0  0  0  0
 14 15  2  0  0  0  0
 15 16  1  0  0  0  0
 16 17  2  0  0  0  0
 17 18  1  0  0  0  0
 17 47  1  0  0  0  0
 18 19  1  0  0  0  0
 19 31  1  0  0  0  0
 19 26  1  0  0  0  0
 19 20  1  0  0  0  0
 20 21  1  0  0  0  0
 21 32  1  0  0  0  0
 21 22  1  0  0  0  0
 21 24  1  0  0  0  0
 22 23  1  0  0  0  0
 22 48  1  0  0  0  0
 22 49  1  0  0  0  0
 23 50  1  0  0  0  0
 24 33  1  0  0  0  0
 24 25  1  0  0  0  0
 24 26  1  0  0  0  0
 25 51  1  0  0  0  0
 26 34  1  0  0  0  0
 26 27  1  0  0  0  0
 27 52  1  0  0  0  0
 28 29  1  0  0  0  0
 28 53  1  0  0  0  0
 29 30  2  0  0  0  0
 29 54  1  0  0  0  0
M  END
> <s_m_source_file>
AV-unprocessed.smi

> <i_m_source_file_index>
218

> <i_lp_mmshare_version>
43012

> <i_f3d_flags>
0

> <s_epik_input>
W0NIM11bQ0hdKFtDSDNdKU9jMVtjSF1jKFtjSF1bY0hdbjEpW0NIMl1bTkhdYyhuW2NIXW4yKWMoYzIzKW5bY0hdbjNbQ0BASF00T1tDQEhdKFtDSDJdW09IXSlbQ0BASF0oW09IXSlbQ0BIXTRbT0hd

> <s_epik_cmdline>
J2VwaWtfcHl0aG9uJywgJy1waCcsICc3LjAnLCAnLXRuJywgJzgnLCAnLW1hJywgJzIwMCcsICctbWV0YWxfYmluZGluZycsICctaW1hZScsICc8aW5maWxlLm1hZT4nLCAnLW9tYWUnLCAnPG91dGZpbGUubWFlPic=

> <r_lp_tautomer_probability>
1

> <r_epik_Ionization_Penalty>
0.00457014

> <r_epik_Ionization_Penalty_Charging>
0

> <r_epik_Ionization_Penalty_Neutral>
0.00457014

> <r_epik_State_Penalty>
-0

> <r_epik_Charging_Adjusted_Penalty>
0

> <i_epik_Tot_Q>
0

> <i_epik_Tot_abs_Q>
0

> <r_epik_Metal_State_Penalty>
-0

> <b_epik_Metal_Only>
0

> <s_epik_Chemistry_Notes>
This compound contains an acetal/aminal-like group ( X-CH(R)-Y where X, Y are N, S, or O) that may be acid/base labile, releasing an aldehyde.

> <s_lp_Force_Field>
OPLS_2005

> <r_lp_Energy>
40.0122

> <b_lp_Chiralities_Consistent>
1

> <s_lp_Variant>
AV-unprocessed.smi:218-5

> <Gold.Version>
5.8.1

> <Gold.Id.Protein>
6NUR|6NUR_protein|mol2

> <Gold.PLP.Fitness>
53.4979

> <Gold.PLP.PLP>
-41.0627

> <Gold.PLP.part.hbond>
-5.2848

> <Gold.PLP.part.metal>
0.0000

> <Gold.PLP.part.buried>
-2.5903

> <Gold.PLP.part.nonpolar>
-33.5979

> <Gold.PLP.part.repulsive>
0.5528

> <Gold.PLP.ligand.clash>
0.0000

> <Gold.PLP.ligand.torsion>
1.1123

> <Gold.PLP.Chemscore.Hbond>
4.6880

> <Gold.PLP.Chemscore.CHOScore>
0.1312

> <Gold.PLP.Chemscore.Metal>
0.0000

> <Gold.Chemscore.Hbonds>
donor molecule, donor type, donor heavy atom, donor atom, acceptor molecule, acceptor atom, score
      L1  H    23    50       P1 10186  0.76
      L1  H    25    51       P1  7948  0.95
      L1  H    27    52       P1 10171  1.00
      P1  H  7954  7966       L1    27  0.21
      P1  H  7997  8008       L1    30  0.83

> <Gold.PLP.Chemscore.Internal.Correction>
0.2023

> <Gold.Rescore>
     Score         DG    S(hbond)    S(metal)    S(lipo)     H(rot)  DE(clash)    DE(int)     intcor
     12.18     -14.70       3.82        0.00      76.94       4.90       1.33       1.18       ----

> <Gold.Chemscore.Fitness>
12.1850

> <Gold.Chemscore.DG>
-14.7008

> <Gold.Chemscore.ZeroCoef>
-5.4800

> <Gold.Chemscore.Hbond>
3.8234

> <Gold.Chemscore.Metal>
0.0000

> <Gold.Chemscore.Lipo>
76.9417

> <Gold.Chemscore.Internal_Hbond>
0.0000

> <Gold.Chemscore.DEClash>
1.3323

> <Gold.Chemscore.DEInternal>
1.1835

> <Gold.Chemscore.Rot>
4.9029

> <Gold.Chemscore.Internal.Correction>
   9.000000E+99

> <Gold.Chemscore.Hbonds>
donor molecule, donor type, donor heavy atom, donor atom, acceptor molecule, acceptor atom, score
      L1  H    23    50       P1 10186  0.76
      L1  H    25    51       P1  7948  0.21
      L1  H    27    52       P1 10171  0.96
      P1  H  7954  7966       L1    27  0.01
      P1  H  7997  8008       L1    30  0.63

> <Gold.Chemscore.Hbond.Weighted>
-12.7701

> <Gold.Chemscore.Metal.Weighted>
-0.0000

> <Gold.Chemscore.Lipo.Weighted>
-9.0022

> <Gold.Chemscore.Internal_Hbond.Weighted>
0.0000

> <Gold.Chemscore.DEClash.Weighted>
1.3323

> <Gold.Chemscore.DEInternal.Weighted>
1.1835

> <Gold.Chemscore.Rot.Weighted>
12.5515

> <Gold.Chemscore.Internal.Correction.Weighted>
   9.000000E+99

> <Gold.Protein.RotatedTorsions>
[ 6907 6896 6895 6894 ] final  -82.74 input  -60.11 | X-H torsion
[ 7974 7965 7964 7962 ] final  142.08 input  175.53 | X-H torsion
[ 8008 7997 7996 7995 ] final  -43.59 input   59.86 | X-H torsion
[ 10167 10162 10161 10158 ] final -125.62 input  -65.29 | X-H torsion
[ 10718 10713 10712 10709 ] final -144.27 input   66.30 | X-H torsion
[ 10763 10752 10751 10750 ] final   84.19 input  -60.55 | X-H torsion
[ 11005 11000 10999 10996 ] final  126.71 input  -57.11 | X-H torsion

> <Gold.Protein.ActiveResidues>
 VAL166  LYS551  ARG553  GLY616  TRP617  ASP618  TYR619  PRO620  LYS621  CYS622 
 ASP623  PHE694  ASN695  SER759  ASP760  ASP761  ALA762  ILE779  LEU786  VAL792 
 PHE793  MET794  SER795  GLU796  ALA797  LYS798  CYS799  TRP800  GLU811  SER814 

> <Gold.Protein.RotatedAtoms>
  150.6893  134.3618  159.4953 H   0  0  0  0  0  0  0  0  0  0  0  0  # atno 6907 bound_to 6896
  152.1446  134.9033  160.0561 H   0  0  0  0  0  0  0  0  0  0  0  0  # atno 6908 bound_to 6896
  152.0154  133.3843  159.4273 H   0  0  0  0  0  0  0  0  0  0  0  0  # atno 6909 bound_to 6896
  144.9039  139.5385  143.5741 H   0  0  0  0  0  0  0  0  0  0  0  0  # atno 7974 bound_to 7965
  154.3997  140.1444  156.3543 H   0  0  0  0  0  0  0  0  0  0  0  0  # atno 8008 bound_to 7997
  155.8240  140.3468  155.5510 H   0  0  0  0  0  0  0  0  0  0  0  0  # atno 8009 bound_to 7997
  155.8258  140.0905  157.1812 H   0  0  0  0  0  0  0  0  0  0  0  0  # atno 8010 bound_to 7997
  139.9802  143.5751  152.2381 H   0  0  0  0  0  0  0  0  0  0  0  0  # atno 10167 bound_to 10162
  156.3681  130.7773  151.1950 H   0  0  0  0  0  0  0  0  0  0  0  0  # atno 10718 bound_to 10713
  153.1359  135.4663  154.9421 H   0  0  0  0  0  0  0  0  0  0  0  0  # atno 10763 bound_to 10752
  154.7705  135.3157  154.8201 H   0  0  0  0  0  0  0  0  0  0  0  0  # atno 10764 bound_to 10752
  153.8734  135.6901  153.4826 H   0  0  0  0  0  0  0  0  0  0  0  0  # atno 10765 bound_to 10752
  139.9470  134.9628  156.8747 H   0  0  0  0  0  0  0  0  0  0  0  0  # atno 11005 bound_to 11000
  146.3123  139.7791  142.9010 LP  0  0  0  0  0  0  0  0  0  0  0  0  # atno 17320 bound_to 7965
  145.3569  141.0318  143.3307 LP  0  0  0  0  0  0  0  0  0  0  0  0  # atno 17321 bound_to 7965
  139.6415  144.7655  151.2329 LP  0  0  0  0  0  0  0  0  0  0  0  0  # atno 17342 bound_to 10162
  140.7492  143.6309  150.8424 LP  0  0  0  0  0  0  0  0  0  0  0  0  # atno 17343 bound_to 10162
  157.7481  131.0380  150.4483 LP  0  0  0  0  0  0  0  0  0  0  0  0  # atno 17370 bound_to 10713
  156.4705  130.4052  149.6521 LP  0  0  0  0  0  0  0  0  0  0  0  0  # atno 17371 bound_to 10713
  140.5811  134.0351  155.7464 LP  0  0  0  0  0  0  0  0  0  0  0  0  # atno 17394 bound_to 11000
  141.1123  133.9597  157.2887 LP  0  0  0  0  0  0  0  0  0  0  0  0  # atno 17395 bound_to 11000

$$$$
