AV-unprocessed.smi:637|AV-procd|sdf|3141|dock10
  -GOLD-   22720 0 63D 1   1.00000     0.00000
 Structure written by MMmdl.
 38 40  0  0  0  0  0  0  0  0  1 V2000
  152.0691  144.1114  161.1565 C   0  0  0  0  0  0  0  0  0  0  0  0
  152.6263  142.7789  160.7867 C   0  0  0  0  0  0  0  0  0  0  0  0
  153.6504  142.0980  161.3991 C   0  0  0  0  0  0  0  0  0  0  0  0
  153.9409  140.8416  160.7887 C   0  0  0  0  0  0  0  0  0  0  0  0
  153.1217  140.5939  159.7130 C   0  0  0  0  0  0  0  0  0  0  0  0
  153.2429  139.3726  158.9332 C   0  0  0  0  0  0  0  0  0  0  0  0
  153.6489  138.1200  159.5475 C   0  0  0  0  0  0  0  0  0  0  0  0
  153.7383  137.0096  158.7842 C   0  0  0  0  0  0  0  0  0  0  0  0
  153.4392  137.0323  157.3539 C   0  0  0  0  0  0  0  0  0  0  0  0
  153.5105  136.0370  156.6333 O   0  0  0  0  0  0  0  0  0  0  0  0
  153.0741  138.2629  156.8883 N   0  0  0  0  0  0  0  0  0  0  0  0
  152.7341  138.4759  155.4764 C   0  0  0  0  0  0  0  0  0  0  0  0
  151.3780  137.8443  155.0937 C   0  0  2  0  0  0  0  0  0  0  0  0
  151.5476  137.0787  153.9162 O   0  0  0  0  0  0  0  0  0  0  0  0
  150.3151  138.9171  154.9099 C   0  0  0  0  0  0  0  0  0  0  0  0
  150.5693  140.2395  155.3329 C   0  0  0  0  0  0  0  0  0  0  0  0
  149.5951  141.2414  155.1558 C   0  0  0  0  0  0  0  0  0  0  0  0
  148.3625  140.9273  154.5518 C   0  0  0  0  0  0  0  0  0  0  0  0
  148.1044  139.6108  154.1243 C   0  0  0  0  0  0  0  0  0  0  0  0
  146.9207  139.3080  153.5412 F   0  0  0  0  0  0  0  0  0  0  0  0
  149.0780  138.6089  154.3012 C   0  0  0  0  0  0  0  0  0  0  0  0
  152.9780  139.4026  157.6661 N   0  0  0  0  0  0  0  0  0  0  0  0
  151.9821  141.8821  159.4331 S   0  0  0  0  0  0  0  0  0  0  0  0
  152.6298  144.5583  161.9777 H   0  0  0  0  0  0  0  0  0  0  0  0
  151.0283  144.0220  161.4683 H   0  0  0  0  0  0  0  0  0  0  0  0
  152.1111  144.7964  160.3095 H   0  0  0  0  0  0  0  0  0  0  0  0
  154.1988  142.4566  162.2578 H   0  0  0  0  0  0  0  0  0  0  0  0
  154.7231  140.1964  161.1626 H   0  0  0  0  0  0  0  0  0  0  0  0
  153.8767  138.0748  160.6018 H   0  0  0  0  0  0  0  0  0  0  0  0
  154.0395  136.0785  159.2415 H   0  0  0  0  0  0  0  0  0  0  0  0
  152.6985  139.5520  155.2947 H   0  0  0  0  0  0  0  0  0  0  0  0
  153.5252  138.1063  154.8205 H   0  0  0  0  0  0  0  0  0  0  0  0
  151.0434  137.1653  155.8790 H   0  0  0  0  0  0  0  0  0  0  0  0
  150.9118  137.3657  153.2788 H   0  0  0  0  0  0  0  0  0  0  0  0
  151.5139  140.4914  155.7925 H   0  0  0  0  0  0  0  0  0  0  0  0
  149.7940  142.2516  155.4822 H   0  0  0  0  0  0  0  0  0  0  0  0
  147.6164  141.6960  154.4146 H   0  0  0  0  0  0  0  0  0  0  0  0
  148.8731  137.6030  153.9650 H   0  0  0  0  0  0  0  0  0  0  0  0
  1  2  1  0  0  0  0
  1 24  1  0  0  0  0
  1 25  1  0  0  0  0
  1 26  1  0  0  0  0
  2 23  1  0  0  0  0
  2  3  2  0  0  0  0
  3  4  1  0  0  0  0
  3 27  1  0  0  0  0
  4  5  2  0  0  0  0
  4 28  1  0  0  0  0
  5  6  1  0  0  0  0
  5 23  1  0  0  0  0
  6 22  2  0  0  0  0
  6  7  1  0  0  0  0
  7  8  2  0  0  0  0
  7 29  1  0  0  0  0
  8  9  1  0  0  0  0
  8 30  1  0  0  0  0
  9 10  2  0  0  0  0
  9 11  1  0  0  0  0
 11 12  1  0  0  0  0
 11 22  1  0  0  0  0
 12 13  1  0  0  0  0
 12 31  1  0  0  0  0
 12 32  1  0  0  0  0
 13 14  1  0  0  0  0
 13 15  1  0  0  0  0
 13 33  1  0  0  0  0
 14 34  1  0  0  0  0
 15 21  1  0  0  0  0
 15 16  2  0  0  0  0
 16 17  1  0  0  0  0
 16 35  1  0  0  0  0
 17 18  2  0  0  0  0
 17 36  1  0  0  0  0
 18 19  1  0  0  0  0
 18 37  1  0  0  0  0
 19 20  1  0  0  0  0
 19 21  2  0  0  0  0
 21 38  1  0  0  0  0
M  END
> <s_m_source_file>
AV-unprocessed.smi

> <i_m_source_file_index>
637

> <i_lp_mmshare_version>
43012

> <i_f3d_flags>
0

> <s_epik_input>
W0NIM11jMVtjSF1bY0hdYyhzMSktYzJbY0hdW2NIXWMoPU8pbihuMilbQ0gyXVtDQEhdKFtPSF0pYzNbY0hdW2NIXVtjSF1jKEYpW2NIXTM=

> <s_epik_cmdline>
J2VwaWtfcHl0aG9uJywgJy1waCcsICc3LjAnLCAnLXRuJywgJzgnLCAnLW1hJywgJzIwMCcsICctbWV0YWxfYmluZGluZycsICctaW1hZScsICc8aW5maWxlLm1hZT4nLCAnLW9tYWUnLCAnPG91dGZpbGUubWFlPic=

> <r_lp_tautomer_probability>
1

> <r_epik_Ionization_Penalty>
2.26963e-07

> <r_epik_Ionization_Penalty_Charging>
5.89185e-08

> <r_epik_Ionization_Penalty_Neutral>
1.68044e-07

> <r_epik_State_Penalty>
-0

> <r_epik_Charging_Adjusted_Penalty>
5.89185e-08

> <i_epik_Tot_Q>
0

> <i_epik_Tot_abs_Q>
0

> <r_epik_Metal_State_Penalty>
-0

> <b_epik_Metal_Only>
0

> <s_lp_Force_Field>
OPLS_2005

> <r_lp_Energy>
28.2523

> <b_lp_Chiralities_Consistent>
1

> <s_lp_Variant>
AV-unprocessed.smi:637-1

> <Gold.Version>
5.8.1

> <Gold.Id.Protein>
6NUR|6NUR_protein|mol2

> <Gold.PLP.Fitness>
54.5665

> <Gold.PLP.PLP>
-49.3151

> <Gold.PLP.part.hbond>
-4.0000

> <Gold.PLP.part.metal>
0.0000

> <Gold.PLP.part.buried>
-2.9195

> <Gold.PLP.part.nonpolar>
-42.2805

> <Gold.PLP.part.repulsive>
0.0000

> <Gold.PLP.ligand.clash>
0.0000

> <Gold.PLP.ligand.torsion>
1.5358

> <Gold.PLP.Chemscore.Hbond>
2.7702

> <Gold.PLP.Chemscore.CHOScore>
0.0000

> <Gold.PLP.Chemscore.Metal>
0.0000

> <Gold.Chemscore.Hbonds>
donor molecule, donor type, donor heavy atom, donor atom, acceptor molecule, acceptor atom, score
      L1  H    14    34       P1  7949  0.05
      P1  H  7997  8009       L1    22  0.57
      P1  H 10752 10764       L1    14  0.99
      P1  H 10752 10765       L1    10  0.84

> <Gold.PLP.Chemscore.Internal.Correction>
0.0125

> <Gold.Rescore>
     Score         DG    S(hbond)    S(metal)    S(lipo)     H(rot)  DE(clash)    DE(int)     intcor
     21.68     -23.11       2.10        0.00     130.58       1.82       0.09       1.34       ----

> <Gold.Chemscore.Fitness>
21.6803

> <Gold.Chemscore.DG>
-23.1107

> <Gold.Chemscore.ZeroCoef>
-5.4800

> <Gold.Chemscore.Hbond>
2.1012

> <Gold.Chemscore.Metal>
0.0000

> <Gold.Chemscore.Lipo>
130.5762

> <Gold.Chemscore.Internal_Hbond>
0.0000

> <Gold.Chemscore.DEClash>
0.0886

> <Gold.Chemscore.DEInternal>
1.3418

> <Gold.Chemscore.Rot>
1.8222

> <Gold.Chemscore.Internal.Correction>
   9.000000E+99

> <Gold.Chemscore.Hbonds>
donor molecule, donor type, donor heavy atom, donor atom, acceptor molecule, acceptor atom, score
      L1  H    14    34       P1  7949  0.01
      P1  H  7997  8009       L1    22  0.01
      P1  H 10752 10764       L1    14  0.84
      P1  H 10752 10765       L1    10  0.81

> <Gold.Chemscore.Hbond.Weighted>
-7.0181

> <Gold.Chemscore.Metal.Weighted>
-0.0000

> <Gold.Chemscore.Lipo.Weighted>
-15.2774

> <Gold.Chemscore.Internal_Hbond.Weighted>
0.0000

> <Gold.Chemscore.DEClash.Weighted>
0.0886

> <Gold.Chemscore.DEInternal.Weighted>
1.3418

> <Gold.Chemscore.Rot.Weighted>
4.6649

> <Gold.Chemscore.Internal.Correction.Weighted>
   9.000000E+99

> <Gold.Protein.RotatedTorsions>
[ 6907 6896 6895 6894 ] final -146.13 input  -60.11 | X-H torsion
[ 7974 7965 7964 7962 ] final   83.52 input  175.53 | X-H torsion
[ 8008 7997 7996 7995 ] final  152.74 input   59.86 | X-H torsion
[ 10167 10162 10161 10158 ] final   72.25 input  -65.29 | X-H torsion
[ 10718 10713 10712 10709 ] final   36.60 input   66.30 | X-H torsion
[ 10763 10752 10751 10750 ] final  -99.07 input  -60.55 | X-H torsion
[ 11005 11000 10999 10996 ] final  131.48 input  -57.11 | X-H torsion

> <Gold.Protein.ActiveResidues>
 VAL166  LYS551  ARG553  GLY616  TRP617  ASP618  TYR619  PRO620  LYS621  CYS622 
 ASP623  PHE694  ASN695  SER759  ASP760  ASP761  ALA762  ILE779  LEU786  VAL792 
 PHE793  MET794  SER795  GLU796  ALA797  LYS798  CYS799  TRP800  GLU811  SER814 

> <Gold.Protein.RotatedAtoms>
  151.1373  133.4995  159.2597 H   0  0  0  0  0  0  0  0  0  0  0  0  # atno 6907 bound_to 6896
  151.1692  135.0309  159.8754 H   0  0  0  0  0  0  0  0  0  0  0  0  # atno 6908 bound_to 6896
  152.5461  134.1239  159.8463 H   0  0  0  0  0  0  0  0  0  0  0  0  # atno 6909 bound_to 6896
  145.6109  139.2368  143.2193 H   0  0  0  0  0  0  0  0  0  0  0  0  # atno 7974 bound_to 7965
  156.2615  140.2012  156.6381 H   0  0  0  0  0  0  0  0  0  0  0  0  # atno 8008 bound_to 7997
  154.6630  140.0558  157.0108 H   0  0  0  0  0  0  0  0  0  0  0  0  # atno 8009 bound_to 7997
  155.1248  140.3228  155.4491 H   0  0  0  0  0  0  0  0  0  0  0  0  # atno 8010 bound_to 7997
  140.0373  144.5418  150.7461 H   0  0  0  0  0  0  0  0  0  0  0  0  # atno 10167 bound_to 10162
  157.3369  130.7527  149.6885 H   0  0  0  0  0  0  0  0  0  0  0  0  # atno 10718 bound_to 10713
  154.7468  135.4986  153.9218 H   0  0  0  0  0  0  0  0  0  0  0  0  # atno 10763 bound_to 10752
  153.1100  135.6707  153.9525 H   0  0  0  0  0  0  0  0  0  0  0  0  # atno 10764 bound_to 10752
  153.9287  135.3080  155.3425 H   0  0  0  0  0  0  0  0  0  0  0  0  # atno 10765 bound_to 10752
  139.9733  134.9571  156.9445 H   0  0  0  0  0  0  0  0  0  0  0  0  # atno 11005 bound_to 11000
  146.1505  140.6932  142.9324 LP  0  0  0  0  0  0  0  0  0  0  0  0  # atno 17320 bound_to 7965
  144.7270  140.4556  143.6965 LP  0  0  0  0  0  0  0  0  0  0  0  0  # atno 17321 bound_to 7965
  140.7276  143.2653  151.4067 LP  0  0  0  0  0  0  0  0  0  0  0  0  # atno 17342 bound_to 10162
  139.6037  144.1242  152.2225 LP  0  0  0  0  0  0  0  0  0  0  0  0  # atno 17343 bound_to 10162
  155.9702  130.4179  150.4301 LP  0  0  0  0  0  0  0  0  0  0  0  0  # atno 17370 bound_to 10713
  157.2342  131.0511  151.2474 LP  0  0  0  0  0  0  0  0  0  0  0  0  # atno 17371 bound_to 10713
  140.5248  134.0872  155.7301 LP  0  0  0  0  0  0  0  0  0  0  0  0  # atno 17394 bound_to 11000
  141.1411  133.9136  157.2323 LP  0  0  0  0  0  0  0  0  0  0  0  0  # atno 17395 bound_to 11000

$$$$
