AV-unprocessed.smi:3300|AV-procd|sdf|12650|dock5
  -GOLD-   2272018583D 1   1.00000     0.00000
 Structure written by MMmdl.
 36 37  0  0  0  0  0  0  0  0  1 V2000
  152.9306  142.7729  162.0675 C   0  0  0  0  0  0  0  0  0  0  0  0
  153.5125  142.1640  160.7866 C   0  0  0  0  0  0  0  0  0  0  0  0
  152.6638  142.4702  159.5667 C   0  0  0  0  0  0  0  0  0  0  0  0
  152.3646  143.7700  159.3467 N   0  0  0  0  0  0  0  0  0  0  0  0
  151.6280  144.0436  158.2675 C   0  0  0  0  0  0  0  0  0  0  0  0
  151.1553  143.1657  157.3796 N   0  0  0  0  0  0  0  0  0  0  0  0
  151.4393  141.8563  157.5884 C   0  0  0  0  0  0  0  0  0  0  0  0
  150.9786  140.8992  156.6646 N   0  0  0  0  0  0  0  0  0  0  0  0
  152.1106  140.3683  155.9117 C   0  0  0  0  0  0  0  0  0  0  0  0
  151.6661  139.2132  155.0057 C   0  0  0  0  0  0  0  0  0  0  0  0
  150.6309  139.6741  154.1498 O   0  0  0  0  0  0  0  0  0  0  0  0
  149.4849  140.0838  154.8862 C   0  0  0  0  0  0  0  0  0  0  0  0
  149.8266  141.2656  155.8268 C   0  0  1  0  0  0  0  0  0  0  0  0
  148.5893  141.6656  156.6731 C   0  0  0  0  0  0  0  0  0  0  0  0
  147.2512  141.4962  155.9361 C   0  0  0  0  0  0  0  0  0  0  0  0
  147.0842  142.5423  155.0036 O   0  0  0  0  0  0  0  0  0  0  0  0
  152.2210  141.4520  158.6944 C   0  0  0  0  0  0  0  0  0  0  0  0
  152.5300  140.1493  158.9073 F   0  0  0  0  0  0  0  0  0  0  0  0
  153.5556  142.5356  162.9285 H   0  0  0  0  0  0  0  0  0  0  0  0
  151.9293  142.3901  162.2675 H   0  0  0  0  0  0  0  0  0  0  0  0
  152.8660  143.8587  161.9915 H   0  0  0  0  0  0  0  0  0  0  0  0
  154.5264  142.5332  160.6293 H   0  0  0  0  0  0  0  0  0  0  0  0
  153.5968  141.0822  160.8984 H   0  0  0  0  0  0  0  0  0  0  0  0
  151.3923  145.0828  158.0929 H   0  0  0  0  0  0  0  0  0  0  0  0
  152.5488  141.1648  155.3082 H   0  0  0  0  0  0  0  0  0  0  0  0
  152.8875  140.0183  156.5929 H   0  0  0  0  0  0  0  0  0  0  0  0
  152.5029  138.8677  154.3984 H   0  0  0  0  0  0  0  0  0  0  0  0
  151.3234  138.3605  155.5944 H   0  0  0  0  0  0  0  0  0  0  0  0
  148.7197  140.3712  154.1661 H   0  0  0  0  0  0  0  0  0  0  0  0
  149.0868  139.2378  155.4493 H   0  0  0  0  0  0  0  0  0  0  0  0
  150.1201  142.1152  155.2084 H   0  0  0  0  0  0  0  0  0  0  0  0
  148.5757  141.0875  157.5985 H   0  0  0  0  0  0  0  0  0  0  0  0
  148.6583  142.7094  156.9785 H   0  0  0  0  0  0  0  0  0  0  0  0
  147.2230  140.5435  155.4067 H   0  0  0  0  0  0  0  0  0  0  0  0
  146.4094  141.5150  156.6273 H   0  0  0  0  0  0  0  0  0  0  0  0
  147.7661  143.1817  155.1432 H   0  0  0  0  0  0  0  0  0  0  0  0
  1  2  1  0  0  0  0
  1 19  1  0  0  0  0
  1 20  1  0  0  0  0
  1 21  1  0  0  0  0
  2  3  1  0  0  0  0
  2 22  1  0  0  0  0
  2 23  1  0  0  0  0
  3 17  1  0  0  0  0
  3  4  2  0  0  0  0
  4  5  1  0  0  0  0
  5  6  2  0  0  0  0
  5 24  1  0  0  0  0
  6  7  1  0  0  0  0
  7  8  1  0  0  0  0
  7 17  2  0  0  0  0
  8 13  1  0  0  0  0
  8  9  1  0  0  0  0
  9 10  1  0  0  0  0
  9 25  1  0  0  0  0
  9 26  1  0  0  0  0
 10 11  1  0  0  0  0
 10 27  1  0  0  0  0
 10 28  1  0  0  0  0
 11 12  1  0  0  0  0
 12 13  1  0  0  0  0
 12 29  1  0  0  0  0
 12 30  1  0  0  0  0
 13 14  1  0  0  0  0
 13 31  1  0  0  0  0
 14 15  1  0  0  0  0
 14 32  1  0  0  0  0
 14 33  1  0  0  0  0
 15 16  1  0  0  0  0
 15 34  1  0  0  0  0
 15 35  1  0  0  0  0
 16 36  1  0  0  0  0
 17 18  1  0  0  0  0
M  END
> <s_m_source_file>
AV-unprocessed.smi

> <i_m_source_file_index>
3300

> <i_lp_mmshare_version>
43012

> <i_f3d_flags>
0

> <s_epik_input>
W0NIM11bQ0gyXWMxbltjSF1uYyhjMUYpTjJbQ0gyXVtDSDJdT1tDSDJdW0NASF0yW0NIMl1bQ0gyXVtPSF0=

> <s_epik_cmdline>
J2VwaWtfcHl0aG9uJywgJy1waCcsICc3LjAnLCAnLXRuJywgJzgnLCAnLW1hJywgJzIwMCcsICctbWV0YWxfYmluZGluZycsICctaW1hZScsICc8aW5maWxlLm1hZT4nLCAnLW9tYWUnLCAnPG91dGZpbGUubWFlPic=

> <r_lp_tautomer_probability>
1

> <r_epik_Ionization_Penalty>
2.51351e-05

> <r_epik_Ionization_Penalty_Charging>
0

> <r_epik_Ionization_Penalty_Neutral>
2.51351e-05

> <r_epik_State_Penalty>
-0

> <r_epik_Charging_Adjusted_Penalty>
0

> <i_epik_Tot_Q>
0

> <i_epik_Tot_abs_Q>
0

> <r_epik_Metal_State_Penalty>
-0

> <b_epik_Metal_Only>
0

> <s_lp_Force_Field>
OPLS_2005

> <r_lp_Energy>
16.6738

> <b_lp_Chiralities_Consistent>
1

> <s_lp_Variant>
AV-unprocessed.smi:3300-1

> <Gold.Version>
5.8.1

> <Gold.Id.Protein>
6NUR|6NUR_protein|mol2

> <Gold.PLP.Fitness>
42.6960

> <Gold.PLP.PLP>
-38.1077

> <Gold.PLP.part.hbond>
-2.0000

> <Gold.PLP.part.metal>
0.0000

> <Gold.PLP.part.buried>
-3.8142

> <Gold.PLP.part.nonpolar>
-31.2297

> <Gold.PLP.part.repulsive>
0.3182

> <Gold.PLP.ligand.clash>
0.0000

> <Gold.PLP.ligand.torsion>
0.7838

> <Gold.PLP.Chemscore.Hbond>
2.0000

> <Gold.PLP.Chemscore.CHOScore>
0.0000

> <Gold.PLP.Chemscore.Metal>
0.0000

> <Gold.Chemscore.Hbonds>
donor molecule, donor type, donor heavy atom, donor atom, acceptor molecule, acceptor atom, score
      L1  H    16    36       P1  8028  1.00
      P1  H  7989  7998       L1    11  0.60

> <Gold.PLP.Chemscore.Internal.Correction>
0.1560

> <Gold.Rescore>
     Score         DG    S(hbond)    S(metal)    S(lipo)     H(rot)  DE(clash)    DE(int)     intcor
     11.68     -13.03       1.38        0.00      76.31       2.35       0.28       1.07       ----

> <Gold.Chemscore.Fitness>
11.6772

> <Gold.Chemscore.DG>
-13.0265

> <Gold.Chemscore.ZeroCoef>
-5.4800

> <Gold.Chemscore.Hbond>
1.3842

> <Gold.Chemscore.Metal>
0.0000

> <Gold.Chemscore.Lipo>
76.3119

> <Gold.Chemscore.Internal_Hbond>
0.0000

> <Gold.Chemscore.DEClash>
0.2835

> <Gold.Chemscore.DEInternal>
1.0658

> <Gold.Chemscore.Rot>
2.3458

> <Gold.Chemscore.Internal.Correction>
   9.000000E+99

> <Gold.Chemscore.Hbonds>
donor molecule, donor type, donor heavy atom, donor atom, acceptor molecule, acceptor atom, score
      L1  H    16    36       P1  8028  0.60
      P1  H  7989  7998       L1    11  0.04

> <Gold.Chemscore.Hbond.Weighted>
-4.6232

> <Gold.Chemscore.Metal.Weighted>
-0.0000

> <Gold.Chemscore.Lipo.Weighted>
-8.9285

> <Gold.Chemscore.Internal_Hbond.Weighted>
0.0000

> <Gold.Chemscore.DEClash.Weighted>
0.2835

> <Gold.Chemscore.DEInternal.Weighted>
1.0658

> <Gold.Chemscore.Rot.Weighted>
6.0051

> <Gold.Chemscore.Internal.Correction.Weighted>
   9.000000E+99

> <Gold.Protein.RotatedTorsions>
[ 6907 6896 6895 6894 ] final  178.95 input  -60.11 | X-H torsion
[ 7974 7965 7964 7962 ] final   45.54 input  175.53 | X-H torsion
[ 8008 7997 7996 7995 ] final   53.46 input   59.86 | X-H torsion
[ 10167 10162 10161 10158 ] final  133.50 input  -65.29 | X-H torsion
[ 10718 10713 10712 10709 ] final  -66.26 input   66.30 | X-H torsion
[ 10763 10752 10751 10750 ] final   19.73 input  -60.55 | X-H torsion
[ 11005 11000 10999 10996 ] final  127.22 input  -57.11 | X-H torsion

> <Gold.Protein.ActiveResidues>
 VAL166  LYS551  ARG553  GLY616  TRP617  ASP618  TYR619  PRO620  LYS621  CYS622 
 ASP623  PHE694  ASN695  SER759  ASP760  ASP761  ALA762  ILE779  LEU786  VAL792 
 PHE793  MET794  SER795  GLU796  ALA797  LYS798  CYS799  TRP800  GLU811  SER814 

> <Gold.Protein.RotatedAtoms>
  151.6795  133.3312  159.3215 H   0  0  0  0  0  0  0  0  0  0  0  0  # atno 6907 bound_to 6896
  150.7829  134.6793  159.6444 H   0  0  0  0  0  0  0  0  0  0  0  0  # atno 6908 bound_to 6896
  152.3892  134.6472  160.0166 H   0  0  0  0  0  0  0  0  0  0  0  0  # atno 6909 bound_to 6896
  146.0471  139.4953  142.9742 H   0  0  0  0  0  0  0  0  0  0  0  0  # atno 7974 bound_to 7965
  155.4686  140.3464  155.4322 H   0  0  0  0  0  0  0  0  0  0  0  0  # atno 8008 bound_to 7997
  156.1115  140.1462  156.9361 H   0  0  0  0  0  0  0  0  0  0  0  0  # atno 8009 bound_to 7997
  154.4760  140.0885  156.7240 H   0  0  0  0  0  0  0  0  0  0  0  0  # atno 8010 bound_to 7997
  139.5294  144.6612  151.5005 H   0  0  0  0  0  0  0  0  0  0  0  0  # atno 10167 bound_to 10162
  156.0623  130.4259  150.1682 H   0  0  0  0  0  0  0  0  0  0  0  0  # atno 10718 bound_to 10713
  153.1137  135.6703  153.9455 H   0  0  0  0  0  0  0  0  0  0  0  0  # atno 10763 bound_to 10752
  153.8991  135.3038  155.3449 H   0  0  0  0  0  0  0  0  0  0  0  0  # atno 10764 bound_to 10752
  154.7555  135.5014  153.9444 H   0  0  0  0  0  0  0  0  0  0  0  0  # atno 10765 bound_to 10752
  139.9496  134.9624  156.8823 H   0  0  0  0  0  0  0  0  0  0  0  0  # atno 11005 bound_to 11000
  145.6788  141.0197  143.1618 LP  0  0  0  0  0  0  0  0  0  0  0  0  # atno 17320 bound_to 7965
  144.7103  139.8397  143.7416 LP  0  0  0  0  0  0  0  0  0  0  0  0  # atno 17321 bound_to 7965
  140.6462  143.8790  150.6739 LP  0  0  0  0  0  0  0  0  0  0  0  0  # atno 17342 bound_to 10162
  140.2140  143.3861  152.1695 LP  0  0  0  0  0  0  0  0  0  0  0  0  # atno 17343 bound_to 10162
  156.9748  130.9846  151.3450 LP  0  0  0  0  0  0  0  0  0  0  0  0  # atno 17370 bound_to 10713
  157.5640  130.8265  149.8303 LP  0  0  0  0  0  0  0  0  0  0  0  0  # atno 17371 bound_to 10713
  140.5750  134.0407  155.7444 LP  0  0  0  0  0  0  0  0  0  0  0  0  # atno 17394 bound_to 11000
  141.1156  133.9546  157.2829 LP  0  0  0  0  0  0  0  0  0  0  0  0  # atno 17395 bound_to 11000

$$$$
