AV-unprocessed.smi:767|AV-procd|sdf|3668|dock3
  -GOLD-   22720 1 73D 1   1.00000     0.00000
 Structure written by MMmdl.
 48 50  0  0  0  0  0  0  0  0  2 V2000
  150.8546  142.0101  156.7464 C   0  0  0  0  0  0  0  0  0  0  0  0
  149.8708  141.3467  155.8062 C   0  0  0  0  0  0  0  0  0  0  0  0
  150.0098  140.0032  155.3969 C   0  0  0  0  0  0  0  0  0  0  0  0
  149.0596  139.4514  154.5129 C   0  0  0  0  0  0  0  0  0  0  0  0
  147.9901  140.2530  154.0558 C   0  0  0  0  0  0  0  0  0  0  0  0
  146.9748  139.7043  153.0679 C   0  0  0  0  0  0  0  0  0  0  0  0
  146.1254  138.5478  153.6327 C   0  0  0  0  0  0  0  0  0  0  0  0
  146.5753  137.2395  153.1614 N   0  0  0  0  0  0  0  0  0  0  0  0
  145.9234  136.0820  153.3446 C   0  0  0  0  0  0  0  0  0  0  0  0
  144.8569  135.9776  153.9514 O   0  0  0  0  0  0  0  0  0  0  0  0
  146.5605  135.0538  152.7703 N   0  0  0  0  0  0  0  0  0  0  0  0
  146.0566  133.6849  152.7594 C   0  0  1  0  0  0  0  0  0  0  0  0
  146.1013  133.0492  151.3615 C   0  0  2  0  0  0  0  0  0  0  0  0
  144.8191  132.6947  150.6593 C   0  0  0  0  0  0  0  0  0  0  0  0
  144.6268  131.2197  151.0235 C   0  0  0  0  0  0  0  0  0  0  0  0
  145.4061  131.0331  152.2030 O   0  0  0  0  0  0  0  0  0  0  0  0
  146.6049  131.7894  152.0497 C   0  0  2  0  0  0  0  0  0  0  0  0
  147.0599  132.6197  153.2689 C   0  0  0  0  0  0  0  0  0  0  0  0
  148.5506  132.9878  153.2602 C   0  0  0  0  0  0  0  0  0  0  0  0
  146.7632  132.0152  154.6421 C   0  0  0  0  0  0  0  0  0  0  0  0
  147.8971  141.5869  154.5077 C   0  0  0  0  0  0  0  0  0  0  0  0
  148.8289  142.0791  155.3528 N   0  3  0  0  0  0  0  0  0  0  0  0
  151.7889  141.4498  156.7922 H   0  0  0  0  0  0  0  0  0  0  0  0
  150.4378  142.0647  157.7524 H   0  0  0  0  0  0  0  0  0  0  0  0
  151.0840  143.0228  156.4127 H   0  0  0  0  0  0  0  0  0  0  0  0
  150.8360  139.4033  155.7492 H   0  0  0  0  0  0  0  0  0  0  0  0
  149.1612  138.4288  154.1800 H   0  0  0  0  0  0  0  0  0  0  0  0
  146.3202  140.5129  152.7399 H   0  0  0  0  0  0  0  0  0  0  0  0
  147.5053  139.3658  152.1771 H   0  0  0  0  0  0  0  0  0  0  0  0
  146.1856  138.5512  154.7212 H   0  0  0  0  0  0  0  0  0  0  0  0
  145.0722  138.6986  153.3893 H   0  0  0  0  0  0  0  0  0  0  0  0
  147.4457  137.2167  152.6502 H   0  0  0  0  0  0  0  0  0  0  0  0
  147.4339  135.2281  152.2948 H   0  0  0  0  0  0  0  0  0  0  0  0
  145.0712  133.5768  153.2193 H   0  0  0  0  0  0  0  0  0  0  0  0
  146.8669  133.4904  150.7205 H   0  0  0  0  0  0  0  0  0  0  0  0
  143.9909  133.2987  151.0315 H   0  0  0  0  0  0  0  0  0  0  0  0
  144.8785  132.8359  149.5798 H   0  0  0  0  0  0  0  0  0  0  0  0
  143.5808  130.9604  151.1884 H   0  0  0  0  0  0  0  0  0  0  0  0
  145.0187  130.5761  150.2346 H   0  0  0  0  0  0  0  0  0  0  0  0
  147.3887  131.2638  151.5020 H   0  0  0  0  0  0  0  0  0  0  0  0
  149.1776  132.1097  153.4178 H   0  0  0  0  0  0  0  0  0  0  0  0
  148.7938  133.7065  154.0435 H   0  0  0  0  0  0  0  0  0  0  0  0
  148.8538  133.4284  152.3101 H   0  0  0  0  0  0  0  0  0  0  0  0
  147.3426  131.1074  154.8132 H   0  0  0  0  0  0  0  0  0  0  0  0
  145.7107  131.7508  154.7466 H   0  0  0  0  0  0  0  0  0  0  0  0
  146.9976  132.7143  155.4454 H   0  0  0  0  0  0  0  0  0  0  0  0
  147.1220  142.2761  154.2062 H   0  0  0  0  0  0  0  0  0  0  0  0
  148.7462  143.0494  155.6568 H   0  0  0  0  0  0  0  0  0  0  0  0
  1  2  1  0  0  0  0
  1 23  1  0  0  0  0
  1 24  1  0  0  0  0
  1 25  1  0  0  0  0
  2 22  1  0  0  0  0
  2  3  2  0  0  0  0
  3  4  1  0  0  0  0
  3 26  1  0  0  0  0
  4  5  2  0  0  0  0
  4 27  1  0  0  0  0
  5  6  1  0  0  0  0
  5 21  1  0  0  0  0
  6  7  1  0  0  0  0
  6 28  1  0  0  0  0
  6 29  1  0  0  0  0
  7  8  1  0  0  0  0
  7 30  1  0  0  0  0
  7 31  1  0  0  0  0
  8  9  1  0  0  0  0
  8 32  1  0  0  0  0
  9 10  2  0  0  0  0
  9 11  1  0  0  0  0
 11 12  1  0  0  0  0
 11 33  1  0  0  0  0
 12 18  1  0  0  0  0
 12 13  1  0  0  0  0
 12 34  1  0  0  0  0
 13 17  1  0  0  0  0
 13 14  1  0  0  0  0
 13 35  1  0  0  0  0
 14 15  1  0  0  0  0
 14 36  1  0  0  0  0
 14 37  1  0  0  0  0
 15 16  1  0  0  0  0
 15 38  1  0  0  0  0
 15 39  1  0  0  0  0
 16 17  1  0  0  0  0
 17 18  1  0  0  0  0
 17 40  1  0  0  0  0
 18 19  1  0  0  0  0
 18 20  1  0  0  0  0
 19 41  1  0  0  0  0
 19 42  1  0  0  0  0
 19 43  1  0  0  0  0
 20 44  1  0  0  0  0
 20 45  1  0  0  0  0
 20 46  1  0  0  0  0
 21 22  2  0  0  0  0
 21 47  1  0  0  0  0
 22 48  1  0  0  0  0
M  CHG  1  22   1
M  END
> <s_m_source_file>
AV-unprocessed.smi

> <i_m_source_file_index>
767

> <i_lp_mmshare_version>
43012

> <i_f3d_flags>
0

> <s_epik_input>
W0NIM11jMVtjSF1bY0hdYyhbY0hdbjEpW0NIMl1bQ0gyXVtOSF1DKD1PKVtOSF1bQ0BIXTJDKFtDSDNdKShbQ0gzXSlbQ0BIXShbQ0BASF0yMylPW0NIMl1bQ0gyXTM=

> <s_epik_cmdline>
J2VwaWtfcHl0aG9uJywgJy1waCcsICc3LjAnLCAnLXRuJywgJzgnLCAnLW1hJywgJzIwMCcsICctbWV0YWxfYmluZGluZycsICctaW1hZScsICc8aW5maWxlLm1hZT4nLCAnLW9tYWUnLCAnPG91dGZpbGUubWFlPic=

> <r_epik_Ionization_Penalty>
1.41853

> <r_epik_Ionization_Penalty_Charging>
1.41848

> <r_epik_Ionization_Penalty_Neutral>
5.17407e-05

> <r_epik_State_Penalty>
1.50205

> <r_epik_Charging_Adjusted_Penalty>
2.92053

> <i_epik_Tot_Q>
1

> <i_epik_Tot_abs_Q>
1

> <r_epik_Metal_State_Penalty>
1.5544

> <b_epik_Metal_Only>
0

> <s_lp_Force_Field>
OPLS_2005

> <r_lp_Energy>
39.2779

> <b_lp_Chiralities_Consistent>
1

> <s_lp_Variant>
AV-unprocessed.smi:767-12

> <Gold.Version>
5.8.1

> <Gold.Id.Protein>
6NUR|6NUR_protein|mol2

> <Gold.PLP.Fitness>
49.1321

> <Gold.PLP.PLP>
-37.8422

> <Gold.PLP.part.hbond>
-3.0000

> <Gold.PLP.part.metal>
0.0000

> <Gold.PLP.part.buried>
-2.8434

> <Gold.PLP.part.nonpolar>
-32.9301

> <Gold.PLP.part.repulsive>
0.4406

> <Gold.PLP.ligand.clash>
0.0000

> <Gold.PLP.ligand.torsion>
0.4459

> <Gold.PLP.Chemscore.Hbond>
4.0000

> <Gold.PLP.Chemscore.CHOScore>
0.0000

> <Gold.PLP.Chemscore.Metal>
0.0000

> <Gold.Chemscore.Hbonds>
donor molecule, donor type, donor heavy atom, donor atom, acceptor molecule, acceptor atom, score
      L1  H     8    32       P1  7948  1.00
      L1  H    11    33       P1  7948  1.00
      L1  H    22    48       P1  8028  2.00

> <Gold.PLP.Chemscore.Internal.Correction>
0.1817

> <Gold.Rescore>
     Score         DG    S(hbond)    S(metal)    S(lipo)     H(rot)  DE(clash)    DE(int)     intcor
     22.02     -23.12       2.91        0.00     101.18       1.52       0.62       0.47       ----

> <Gold.Chemscore.Fitness>
22.0238

> <Gold.Chemscore.DG>
-23.1212

> <Gold.Chemscore.ZeroCoef>
-5.4800

> <Gold.Chemscore.Hbond>
2.9051

> <Gold.Chemscore.Metal>
0.0000

> <Gold.Chemscore.Lipo>
101.1763

> <Gold.Chemscore.Internal_Hbond>
0.0000

> <Gold.Chemscore.DEClash>
0.6241

> <Gold.Chemscore.DEInternal>
0.4733

> <Gold.Chemscore.Rot>
1.5233

> <Gold.Chemscore.Internal.Correction>
   9.000000E+99

> <Gold.Chemscore.Hbonds>
donor molecule, donor type, donor heavy atom, donor atom, acceptor molecule, acceptor atom, score
      L1  H     8    32       P1  7948  0.95
      L1  H    11    33       P1  7948  0.98
      L1  H    22    48       P1  8028  0.99

> <Gold.Chemscore.Hbond.Weighted>
-9.7031

> <Gold.Chemscore.Metal.Weighted>
-0.0000

> <Gold.Chemscore.Lipo.Weighted>
-11.8376

> <Gold.Chemscore.Internal_Hbond.Weighted>
0.0000

> <Gold.Chemscore.DEClash.Weighted>
0.6241

> <Gold.Chemscore.DEInternal.Weighted>
0.4733

> <Gold.Chemscore.Rot.Weighted>
3.8995

> <Gold.Chemscore.Internal.Correction.Weighted>
   9.000000E+99

> <Gold.Protein.RotatedTorsions>
[ 6907 6896 6895 6894 ] final  -11.32 input  -60.11 | X-H torsion
[ 7974 7965 7964 7962 ] final  117.78 input  175.53 | X-H torsion
[ 8008 7997 7996 7995 ] final   17.14 input   59.86 | X-H torsion
[ 10167 10162 10161 10158 ] final -116.89 input  -65.29 | X-H torsion
[ 10718 10713 10712 10709 ] final    6.57 input   66.30 | X-H torsion
[ 10763 10752 10751 10750 ] final   -9.17 input  -60.55 | X-H torsion
[ 11005 11000 10999 10996 ] final  -59.23 input  -57.11 | X-H torsion

> <Gold.Protein.ActiveResidues>
 VAL166  LYS551  ARG553  GLY616  TRP617  ASP618  TYR619  PRO620  LYS621  CYS622 
 ASP623  PHE694  ASN695  SER759  ASP760  ASP761  ALA762  ILE779  LEU786  VAL792 
 PHE793  MET794  SER795  GLU796  ALA797  LYS798  CYS799  TRP800  GLU811  SER814 

> <Gold.Protein.RotatedAtoms>
  151.3881  135.0951  159.9517 H   0  0  0  0  0  0  0  0  0  0  0  0  # atno 6907 bound_to 6896
  152.5088  133.9006  159.7449 H   0  0  0  0  0  0  0  0  0  0  0  0  # atno 6908 bound_to 6896
  150.9454  133.6553  159.2811 H   0  0  0  0  0  0  0  0  0  0  0  0  # atno 6909 bound_to 6896
  145.1632  139.3143  143.4506 H   0  0  0  0  0  0  0  0  0  0  0  0  # atno 7974 bound_to 7965
  154.8871  140.2981  155.5392 H   0  0  0  0  0  0  0  0  0  0  0  0  # atno 8008 bound_to 7997
  156.3021  140.2431  156.3815 H   0  0  0  0  0  0  0  0  0  0  0  0  # atno 8009 bound_to 7997
  154.8657  140.0403  157.1682 H   0  0  0  0  0  0  0  0  0  0  0  0  # atno 8010 bound_to 7997
  140.0743  143.4848  152.1962 H   0  0  0  0  0  0  0  0  0  0  0  0  # atno 10167 bound_to 10162
  156.9241  130.5801  149.5648 H   0  0  0  0  0  0  0  0  0  0  0  0  # atno 10718 bound_to 10713
  153.4509  135.7015  153.6109 H   0  0  0  0  0  0  0  0  0  0  0  0  # atno 10763 bound_to 10752
  153.4445  135.3772  155.2248 H   0  0  0  0  0  0  0  0  0  0  0  0  # atno 10764 bound_to 10752
  154.8728  135.3982  154.3921 H   0  0  0  0  0  0  0  0  0  0  0  0  # atno 10765 bound_to 10752
  141.1240  133.6615  156.5040 H   0  0  0  0  0  0  0  0  0  0  0  0  # atno 11005 bound_to 11000
  146.3479  140.1750  142.8589 LP  0  0  0  0  0  0  0  0  0  0  0  0  # atno 17320 bound_to 7965
  145.0309  140.8870  143.5110 LP  0  0  0  0  0  0  0  0  0  0  0  0  # atno 17321 bound_to 7965
  139.5817  144.7513  151.3622 LP  0  0  0  0  0  0  0  0  0  0  0  0  # atno 17342 bound_to 10162
  140.7110  143.7390  150.7567 LP  0  0  0  0  0  0  0  0  0  0  0  0  # atno 17343 bound_to 10162
  156.0477  130.5551  150.8919 LP  0  0  0  0  0  0  0  0  0  0  0  0  # atno 17370 bound_to 10713
  157.5889  131.0945  150.9151 LP  0  0  0  0  0  0  0  0  0  0  0  0  # atno 17371 bound_to 10713
  140.4423  134.7004  157.4998 LP  0  0  0  0  0  0  0  0  0  0  0  0  # atno 17394 bound_to 11000
  140.0221  134.6532  155.9225 LP  0  0  0  0  0  0  0  0  0  0  0  0  # atno 17395 bound_to 11000

$$$$
