AV-unprocessed.smi:157|AV-procd|sdf|1313|dock5
  -GOLD-   2262019 03D 1   1.00000     0.00000
 Structure written by MMmdl.
 36 38  0  0  0  0  0  0  0  0  2 V2000
  151.8973  136.9417  153.7469 O   0  0  0  0  0  0  0  0  0  0  0  0
  150.8692  137.4759  154.5533 C   0  0  0  0  0  0  0  0  0  0  0  0
  151.4290  138.6103  155.4240 C   0  0  1  0  0  0  0  0  0  0  0  0
  150.5258  138.8948  156.4877 O   0  0  0  0  0  0  0  0  0  0  0  0
  151.2123  139.4929  157.5474 C   0  0  2  0  0  0  0  0  0  0  0  0
  150.9069  140.9593  157.5561 N   0  0  0  0  0  0  0  0  0  0  0  0
  149.9589  141.5989  156.8369 C   0  0  0  0  0  0  0  0  0  0  0  0
  149.9050  142.9037  157.0439 N   0  3  0  0  0  0  0  0  0  0  0  0
  150.8827  143.1933  157.9719 C   0  0  0  0  0  0  0  0  0  0  0  0
  151.4874  141.9728  158.2831 C   0  0  0  0  0  0  0  0  0  0  0  0
  152.5363  141.6897  159.1713 N   0  0  0  0  0  0  0  0  0  0  0  0
  152.9148  142.5135  160.0937 C   0  0  0  0  0  0  0  0  0  0  0  0
  152.4778  143.8037  160.3430 N   0  0  0  0  0  0  0  0  0  0  0  0
  152.3382  144.8050  159.3004 C   0  0  0  0  0  0  0  0  0  0  0  0
  151.1006  144.6068  158.4148 C   0  0  2  0  0  0  0  0  0  0  0  0
  149.9781  145.1443  159.0836 O   0  0  0  0  0  0  0  0  0  0  0  0
  152.7098  139.2707  157.2993 C   0  0  0  0  0  0  0  0  0  0  0  0
  152.6995  138.2369  156.1887 C   0  0  2  0  0  0  0  0  0  0  0  0
  153.8592  138.3426  155.3887 O   0  0  0  0  0  0  0  0  0  0  0  0
  151.6049  139.5127  154.8345 H   0  0  0  0  0  0  0  0  0  0  0  0
  150.8527  139.1186  158.5065 H   0  0  0  0  0  0  0  0  0  0  0  0
  151.2348  145.2154  157.5199 H   0  0  0  0  0  0  0  0  0  0  0  0
  152.6168  137.2326  156.6071 H   0  0  0  0  0  0  0  0  0  0  0  0
  151.5775  136.8711  152.8602 H   0  0  0  0  0  0  0  0  0  0  0  0
  150.0392  137.8195  153.9351 H   0  0  0  0  0  0  0  0  0  0  0  0
  150.4932  136.6692  155.1830 H   0  0  0  0  0  0  0  0  0  0  0  0
  149.3023  141.0900  156.1539 H   0  0  0  0  0  0  0  0  0  0  0  0
  153.6889  142.2009  160.7960 H   0  0  0  0  0  0  0  0  0  0  0  0
  152.7033  144.2265  161.2323 H   0  0  0  0  0  0  0  0  0  0  0  0
  152.3420  145.8010  159.7447 H   0  0  0  0  0  0  0  0  0  0  0  0
  153.2313  144.7499  158.6760 H   0  0  0  0  0  0  0  0  0  0  0  0
  149.3819  145.4968  158.4411 H   0  0  0  0  0  0  0  0  0  0  0  0
  153.1744  140.2014  156.9670 H   0  0  0  0  0  0  0  0  0  0  0  0
  153.2119  138.9292  158.2049 H   0  0  0  0  0  0  0  0  0  0  0  0
  154.4293  137.6150  155.5858 H   0  0  0  0  0  0  0  0  0  0  0  0
  149.2709  143.5564  156.6008 H   0  0  0  0  0  0  0  0  0  0  0  0
  1  2  1  0  0  0  0
  1 24  1  0  0  0  0
  2  3  1  0  0  0  0
  2 25  1  0  0  0  0
  2 26  1  0  0  0  0
  3 20  1  0  0  0  0
  3 18  1  0  0  0  0
  3  4  1  0  0  0  0
  4  5  1  0  0  0  0
  5 21  1  0  0  0  0
  5  6  1  0  0  0  0
  5 17  1  0  0  0  0
  6 10  1  0  0  0  0
  6  7  1  0  0  0  0
  7  8  2  0  0  0  0
  7 27  1  0  0  0  0
  8  9  1  0  0  0  0
  8 36  1  0  0  0  0
  9 15  1  0  0  0  0
  9 10  2  0  0  0  0
 10 11  1  0  0  0  0
 11 12  2  0  0  0  0
 12 13  1  0  0  0  0
 12 28  1  0  0  0  0
 13 14  1  0  0  0  0
 13 29  1  0  0  0  0
 14 15  1  0  0  0  0
 14 30  1  0  0  0  0
 14 31  1  0  0  0  0
 15 22  1  0  0  0  0
 15 16  1  0  0  0  0
 16 32  1  0  0  0  0
 17 18  1  0  0  0  0
 17 33  1  0  0  0  0
 17 34  1  0  0  0  0
 18 23  1  0  0  0  0
 18 19  1  0  0  0  0
 19 35  1  0  0  0  0
M  CHG  1   8   1
M  END
> <s_m_source_file>
AV-unprocessed.smi

> <i_m_source_file_index>
157

> <i_lp_mmshare_version>
43012

> <i_f3d_flags>
0

> <s_epik_input>
W09IXVtDSDJdW0NASF0xT1tDQEhdKFtDSDJdW0NAQEhdMVtPSF0pbihbY0hdbjIpYyhjMjMpTj1bQ0hdW05IXVtDSDJdW0NASF0zW09IXQ==

> <s_epik_cmdline>
J2VwaWtfcHl0aG9uJywgJy1waCcsICc3LjAnLCAnLXRuJywgJzgnLCAnLW1hJywgJzIwMCcsICctbWV0YWxfYmluZGluZycsICctaW1hZScsICc8aW5maWxlLm1hZT4nLCAnLW9tYWUnLCAnPG91dGZpbGUubWFlPic=

> <r_epik_Ionization_Penalty>
1.68594

> <r_epik_Ionization_Penalty_Charging>
0

> <r_epik_Ionization_Penalty_Neutral>
1.68594

> <r_epik_State_Penalty>
1.79006

> <r_epik_Charging_Adjusted_Penalty>
1.79006

> <i_epik_Tot_Q>
1

> <i_epik_Tot_abs_Q>
1

> <r_epik_Metal_State_Penalty>
5.85324

> <b_epik_Metal_Only>
0

> <s_epik_Chemistry_Notes>
This compound has an imine and may undergo hydrolysis. This compound contains an acetal/aminal-like group ( X-CH(R)-Y where X, Y are N, S, or O) that may be acid/base labile, releasing an aldehyde.

> <s_lp_Force_Field>
OPLS_2005

> <r_lp_Energy>
52.2724

> <b_lp_Chiralities_Consistent>
1

> <s_lp_Variant>
AV-unprocessed.smi:157-23

> <Gold.Version>
5.8.1

> <Gold.Id.Protein>
6NUR|6NUR_protein|mol2

> <Gold.PLP.Fitness>
51.9794

> <Gold.PLP.PLP>
-35.5761

> <Gold.PLP.part.hbond>
-5.0877

> <Gold.PLP.part.metal>
0.0000

> <Gold.PLP.part.buried>
-6.2006

> <Gold.PLP.part.nonpolar>
-25.5212

> <Gold.PLP.part.repulsive>
0.0447

> <Gold.PLP.ligand.clash>
0.0000

> <Gold.PLP.ligand.torsion>
0.2446

> <Gold.PLP.Chemscore.Hbond>
5.6240

> <Gold.PLP.Chemscore.CHOScore>
0.0000

> <Gold.PLP.Chemscore.Metal>
0.0000

> <Gold.Chemscore.Hbonds>
donor molecule, donor type, donor heavy atom, donor atom, acceptor molecule, acceptor atom, score
      L1  H     1    24       P1  7949  1.00
      L1  H     8    36       P1  8028  2.00
      L1  H    16    32       P1  8029  1.00
      P1  H  7997  8009       L1    19  0.61
      P1  H 10752 10763       L1     1  1.00

> <Gold.PLP.Chemscore.Internal.Correction>
0.0205

> <Gold.Rescore>
     Score         DG    S(hbond)    S(metal)    S(lipo)     H(rot)  DE(clash)    DE(int)     intcor
     15.85     -16.04       3.96        0.00      57.54       3.67       0.09       0.10       ----

> <Gold.Chemscore.Fitness>
15.8515

> <Gold.Chemscore.DG>
-16.0431

> <Gold.Chemscore.ZeroCoef>
-5.4800

> <Gold.Chemscore.Hbond>
3.9566

> <Gold.Chemscore.Metal>
0.0000

> <Gold.Chemscore.Lipo>
57.5449

> <Gold.Chemscore.Internal_Hbond>
0.0000

> <Gold.Chemscore.DEClash>
0.0901

> <Gold.Chemscore.DEInternal>
0.1015

> <Gold.Chemscore.Rot>
3.6659

> <Gold.Chemscore.Internal.Correction>
   9.000000E+99

> <Gold.Chemscore.Hbonds>
donor molecule, donor type, donor heavy atom, donor atom, acceptor molecule, acceptor atom, score
      L1  H     1    24       P1  7949  0.93
      L1  H     8    36       P1  8028  0.92
      L1  H    16    32       P1  8029  0.88
      P1  H  7997  8009       L1    19  0.13
      P1  H 10752 10763       L1     1  0.60

> <Gold.Chemscore.Hbond.Weighted>
-13.2152

> <Gold.Chemscore.Metal.Weighted>
-0.0000

> <Gold.Chemscore.Lipo.Weighted>
-6.7328

> <Gold.Chemscore.Internal_Hbond.Weighted>
0.0000

> <Gold.Chemscore.DEClash.Weighted>
0.0901

> <Gold.Chemscore.DEInternal.Weighted>
0.1015

> <Gold.Chemscore.Rot.Weighted>
9.3848

> <Gold.Chemscore.Internal.Correction.Weighted>
   9.000000E+99

> <Gold.Protein.RotatedTorsions>
[ 6907 6896 6895 6894 ] final  153.85 input  -60.11 | X-H torsion
[ 7974 7965 7964 7962 ] final  111.70 input  175.53 | X-H torsion
[ 8008 7997 7996 7995 ] final -138.89 input   59.86 | X-H torsion
[ 10167 10162 10161 10158 ] final -112.44 input  -65.29 | X-H torsion
[ 10718 10713 10712 10709 ] final -178.91 input   66.30 | X-H torsion
[ 10763 10752 10751 10750 ] final   21.56 input  -60.55 | X-H torsion
[ 11005 11000 10999 10996 ] final  -90.40 input  -57.11 | X-H torsion

> <Gold.Protein.ActiveResidues>
 VAL166  LYS551  ARG553  GLY616  TRP617  ASP618  TYR619  PRO620  LYS621  CYS622 
 ASP623  PHE694  ASN695  SER759  ASP760  ASP761  ALA762  ILE779  LEU786  VAL792 
 PHE793  MET794  SER795  GLU796  ALA797  LYS798  CYS799  TRP800  GLU811  SER814 

> <Gold.Protein.RotatedAtoms>
  152.0669  133.4088  159.4441 H   0  0  0  0  0  0  0  0  0  0  0  0  # atno 6907 bound_to 6896
  150.6864  134.3136  159.4766 H   0  0  0  0  0  0  0  0  0  0  0  0  # atno 6908 bound_to 6896
  152.0964  134.9372  160.0621 H   0  0  0  0  0  0  0  0  0  0  0  0  # atno 6909 bound_to 6896
  145.2389  139.2787  143.4128 H   0  0  0  0  0  0  0  0  0  0  0  0  # atno 7974 bound_to 7965
  155.4358  140.0528  157.3014 H   0  0  0  0  0  0  0  0  0  0  0  0  # atno 8008 bound_to 7997
  154.4840  140.2093  155.9656 H   0  0  0  0  0  0  0  0  0  0  0  0  # atno 8009 bound_to 7997
  156.1247  140.3182  155.8264 H   0  0  0  0  0  0  0  0  0  0  0  0  # atno 8010 bound_to 7997
  140.1227  143.4429  152.1680 H   0  0  0  0  0  0  0  0  0  0  0  0  # atno 10167 bound_to 10162
  156.8512  130.9720  151.3092 H   0  0  0  0  0  0  0  0  0  0  0  0  # atno 10718 bound_to 10713
  153.0985  135.6666  153.9717 H   0  0  0  0  0  0  0  0  0  0  0  0  # atno 10763 bound_to 10752
  153.9294  135.3005  155.3447 H   0  0  0  0  0  0  0  0  0  0  0  0  # atno 10764 bound_to 10752
  154.7405  135.5082  153.9189 H   0  0  0  0  0  0  0  0  0  0  0  0  # atno 10765 bound_to 10752
  141.1566  133.7690  156.9732 H   0  0  0  0  0  0  0  0  0  0  0  0  # atno 11005 bound_to 11000
  146.3334  140.2746  142.8607 LP  0  0  0  0  0  0  0  0  0  0  0  0  # atno 17320 bound_to 7965
  144.9607  140.8272  143.5515 LP  0  0  0  0  0  0  0  0  0  0  0  0  # atno 17321 bound_to 7965
  139.5560  144.7373  151.4293 LP  0  0  0  0  0  0  0  0  0  0  0  0  # atno 17342 bound_to 10162
  140.6863  143.7967  150.7190 LP  0  0  0  0  0  0  0  0  0  0  0  0  # atno 17343 bound_to 10162
  157.6302  130.8723  149.9260 LP  0  0  0  0  0  0  0  0  0  0  0  0  # atno 17370 bound_to 10713
  156.0827  130.3671  150.0549 LP  0  0  0  0  0  0  0  0  0  0  0  0  # atno 17371 bound_to 10713
  140.1115  134.9474  157.2072 LP  0  0  0  0  0  0  0  0  0  0  0  0  # atno 17394 bound_to 11000
  140.3188  134.2940  155.7250 LP  0  0  0  0  0  0  0  0  0  0  0  0  # atno 17395 bound_to 11000

$$$$
