AV-unprocessed.smi:2352|AV-procd|sdf|9378|dock1
  -GOLD-   2272013 03D 1   1.00000     0.00000
 Structure written by MMmdl.
 37 38  0  0  0  0  0  0  0  0  1 V2000
  153.4101  143.4683  163.7066 C   0  0  0  0  0  0  0  0  0  0  0  0
  153.1400  143.0883  162.2614 C   0  0  0  0  0  0  0  0  0  0  0  0
  152.3466  143.9850  161.5399 N   0  0  0  0  0  0  0  0  0  0  0  0
  152.0614  143.7422  160.3026 C   0  0  0  0  0  0  0  0  0  0  0  0
  152.5282  142.5892  159.6503 N   0  0  0  0  0  0  0  0  0  0  0  0
  152.1303  142.4304  158.2410 C   0  0  0  0  0  0  0  0  0  0  0  0
  151.5094  141.0441  157.9593 C   0  0  2  0  0  0  0  0  0  0  0  0
  152.4978  140.2140  157.3812 O   0  0  0  0  0  0  0  0  0  0  0  0
  150.2912  141.1665  157.0558 C   0  0  0  0  0  0  0  0  0  0  0  0
  148.9955  140.8986  157.5487 C   0  0  0  0  0  0  0  0  0  0  0  0
  147.8755  141.0092  156.7021 C   0  0  0  0  0  0  0  0  0  0  0  0
  148.0359  141.3896  155.3520 C   0  0  0  0  0  0  0  0  0  0  0  0
  146.8297  141.5024  154.4309 C   0  0  0  0  0  0  0  0  0  0  0  0
  146.6027  142.7758  154.1068 F   0  0  0  0  0  0  0  0  0  0  0  0
  147.0630  140.8107  153.3163 F   0  0  0  0  0  0  0  0  0  0  0  0
  145.7317  141.0192  155.0135 F   0  0  0  0  0  0  0  0  0  0  0  0
  149.3330  141.6445  154.8574 C   0  0  0  0  0  0  0  0  0  0  0  0
  150.4534  141.5341  155.7037 C   0  0  0  0  0  0  0  0  0  0  0  0
  153.3156  141.6679  160.2774 C   0  0  0  0  0  0  0  0  0  0  0  0
  153.7323  140.6670  159.6907 O   0  0  0  0  0  0  0  0  0  0  0  0
  153.6281  141.9553  161.6867 C   0  0  0  0  0  0  0  0  0  0  0  0
  154.4967  140.9427  162.4224 C   0  0  0  0  0  0  0  0  0  0  0  0
  153.0309  142.7002  164.3812 H   0  0  0  0  0  0  0  0  0  0  0  0
  152.9256  144.4102  163.9671 H   0  0  0  0  0  0  0  0  0  0  0  0
  154.4805  143.5856  163.8774 H   0  0  0  0  0  0  0  0  0  0  0  0
  151.4508  144.4119  159.6943 H   0  0  0  0  0  0  0  0  0  0  0  0
  151.3953  143.2047  158.0122 H   0  0  0  0  0  0  0  0  0  0  0  0
  152.9530  142.6297  157.5506 H   0  0  0  0  0  0  0  0  0  0  0  0
  151.1927  140.5756  158.8921 H   0  0  0  0  0  0  0  0  0  0  0  0
  152.0675  139.4833  156.9637 H   0  0  0  0  0  0  0  0  0  0  0  0
  148.8554  140.6036  158.5785 H   0  0  0  0  0  0  0  0  0  0  0  0
  146.8923  140.7968  157.0956 H   0  0  0  0  0  0  0  0  0  0  0  0
  149.4745  141.9237  153.8237 H   0  0  0  0  0  0  0  0  0  0  0  0
  151.4393  141.7305  155.3081 H   0  0  0  0  0  0  0  0  0  0  0  0
  155.4671  140.8538  161.9329 H   0  0  0  0  0  0  0  0  0  0  0  0
  154.0213  139.9612  162.4121 H   0  0  0  0  0  0  0  0  0  0  0  0
  154.6773  141.2076  163.4628 H   0  0  0  0  0  0  0  0  0  0  0  0
  1  2  1  0  0  0  0
  1 23  1  0  0  0  0
  1 24  1  0  0  0  0
  1 25  1  0  0  0  0
  2 21  2  0  0  0  0
  2  3  1  0  0  0  0
  3  4  2  0  0  0  0
  4  5  1  0  0  0  0
  4 26  1  0  0  0  0
  5  6  1  0  0  0  0
  5 19  1  0  0  0  0
  6  7  1  0  0  0  0
  6 27  1  0  0  0  0
  6 28  1  0  0  0  0
  7  8  1  0  0  0  0
  7  9  1  0  0  0  0
  7 29  1  0  0  0  0
  8 30  1  0  0  0  0
  9 18  1  0  0  0  0
  9 10  2  0  0  0  0
 10 11  1  0  0  0  0
 10 31  1  0  0  0  0
 11 12  2  0  0  0  0
 11 32  1  0  0  0  0
 12 13  1  0  0  0  0
 12 17  1  0  0  0  0
 13 14  1  0  0  0  0
 13 15  1  0  0  0  0
 13 16  1  0  0  0  0
 17 18  2  0  0  0  0
 17 33  1  0  0  0  0
 18 34  1  0  0  0  0
 19 20  2  0  0  0  0
 19 21  1  0  0  0  0
 21 22  1  0  0  0  0
 22 35  1  0  0  0  0
 22 36  1  0  0  0  0
 22 37  1  0  0  0  0
M  END
> <s_m_source_file>
AV-unprocessed.smi

> <i_m_source_file_index>
2352

> <i_lp_mmshare_version>
43012

> <i_f3d_flags>
0

> <s_epik_input>
W0NIM11jMW5bY0hdbihjKD1PKWMxW0NIM10pW0NIMl1bQ0BIXShbT0hdKWMyW2NIXVtjSF1jKEMoRikoRilGKVtjSF1bY0hdMg==

> <s_epik_cmdline>
J2VwaWtfcHl0aG9uJywgJy1waCcsICc3LjAnLCAnLXRuJywgJzgnLCAnLW1hJywgJzIwMCcsICctbWV0YWxfYmluZGluZycsICctaW1hZScsICc8aW5maWxlLm1hZT4nLCAnLW9tYWUnLCAnPG91dGZpbGUubWFlPic=

> <r_lp_tautomer_probability>
1

> <r_epik_Ionization_Penalty>
5.07001e-05

> <r_epik_Ionization_Penalty_Charging>
7.56727e-08

> <r_epik_Ionization_Penalty_Neutral>
5.06244e-05

> <r_epik_State_Penalty>
-0

> <r_epik_Charging_Adjusted_Penalty>
7.56727e-08

> <i_epik_Tot_Q>
0

> <i_epik_Tot_abs_Q>
0

> <r_epik_Metal_State_Penalty>
-0

> <b_epik_Metal_Only>
0

> <s_lp_Force_Field>
OPLS_2005

> <r_lp_Energy>
21.4473

> <b_lp_Chiralities_Consistent>
1

> <s_lp_Variant>
AV-unprocessed.smi:2352-1

> <Gold.Version>
5.8.1

> <Gold.Id.Protein>
6NUR|6NUR_protein|mol2

> <Gold.PLP.Fitness>
50.1900

> <Gold.PLP.PLP>
-48.9657

> <Gold.PLP.part.hbond>
-1.0000

> <Gold.PLP.part.metal>
0.0000

> <Gold.PLP.part.buried>
-4.9645

> <Gold.PLP.part.nonpolar>
-42.1231

> <Gold.PLP.part.repulsive>
0.1475

> <Gold.PLP.ligand.clash>
0.7637

> <Gold.PLP.ligand.torsion>
1.0424

> <Gold.PLP.Chemscore.Hbond>
1.0000

> <Gold.PLP.Chemscore.CHOScore>
0.0000

> <Gold.PLP.Chemscore.Metal>
0.0000

> <Gold.Chemscore.Hbonds>
donor molecule, donor type, donor heavy atom, donor atom, acceptor molecule, acceptor atom, score
      P1  H  7997  8010       L1     8  1.00

> <Gold.PLP.Chemscore.Internal.Correction>
1.0728

> <Gold.Rescore>
     Score         DG    S(hbond)    S(metal)    S(lipo)     H(rot)  DE(clash)    DE(int)     intcor
     10.27     -14.03       0.93        0.00      93.09       2.13       0.04       3.72       ----

> <Gold.Chemscore.Fitness>
10.2698

> <Gold.Chemscore.DG>
-14.0259

> <Gold.Chemscore.ZeroCoef>
-5.4800

> <Gold.Chemscore.Hbond>
0.9338

> <Gold.Chemscore.Metal>
0.0000

> <Gold.Chemscore.Lipo>
93.0942

> <Gold.Chemscore.Internal_Hbond>
0.0000

> <Gold.Chemscore.DEClash>
0.0410

> <Gold.Chemscore.DEInternal>
3.7151

> <Gold.Chemscore.Rot>
2.1347

> <Gold.Chemscore.Internal.Correction>
   9.000000E+99

> <Gold.Chemscore.Hbonds>
donor molecule, donor type, donor heavy atom, donor atom, acceptor molecule, acceptor atom, score
      P1  H  7997  8010       L1     8  0.40

> <Gold.Chemscore.Hbond.Weighted>
-3.1188

> <Gold.Chemscore.Metal.Weighted>
-0.0000

> <Gold.Chemscore.Lipo.Weighted>
-10.8920

> <Gold.Chemscore.Internal_Hbond.Weighted>
0.0000

> <Gold.Chemscore.DEClash.Weighted>
0.0410

> <Gold.Chemscore.DEInternal.Weighted>
3.7151

> <Gold.Chemscore.Rot.Weighted>
5.4649

> <Gold.Chemscore.Internal.Correction.Weighted>
   9.000000E+99

> <Gold.Protein.RotatedTorsions>
[ 6907 6896 6895 6894 ] final  -22.94 input  -60.11 | X-H torsion
[ 7974 7965 7964 7962 ] final -134.20 input  175.53 | X-H torsion
[ 8008 7997 7996 7995 ] final   55.89 input   59.86 | X-H torsion
[ 10167 10162 10161 10158 ] final  -33.85 input  -65.29 | X-H torsion
[ 10718 10713 10712 10709 ] final  -99.51 input   66.30 | X-H torsion
[ 10763 10752 10751 10750 ] final   -5.20 input  -60.55 | X-H torsion
[ 11005 11000 10999 10996 ] final   97.82 input  -57.11 | X-H torsion

> <Gold.Protein.ActiveResidues>
 VAL166  LYS551  ARG553  GLY616  TRP617  ASP618  TYR619  PRO620  LYS621  CYS622 
 ASP623  PHE694  ASN695  SER759  ASP760  ASP761  ALA762  ILE779  LEU786  VAL792 
 PHE793  MET794  SER795  GLU796  ALA797  LYS798  CYS799  TRP800  GLU811  SER814 

> <Gold.Protein.RotatedAtoms>
  151.2113  135.0482  159.8911 H   0  0  0  0  0  0  0  0  0  0  0  0  # atno 6907 bound_to 6896
  152.5424  134.0742  159.8217 H   0  0  0  0  0  0  0  0  0  0  0  0  # atno 6908 bound_to 6896
  151.0896  133.5279  159.2647 H   0  0  0  0  0  0  0  0  0  0  0  0  # atno 6909 bound_to 6896
  144.9124  140.6912  143.5016 H   0  0  0  0  0  0  0  0  0  0  0  0  # atno 7974 bound_to 7965
  155.5084  140.3476  155.4384 H   0  0  0  0  0  0  0  0  0  0  0  0  # atno 8008 bound_to 7997
  156.0866  140.1400  156.9673 H   0  0  0  0  0  0  0  0  0  0  0  0  # atno 8009 bound_to 7997
  154.4610  140.0935  156.6869 H   0  0  0  0  0  0  0  0  0  0  0  0  # atno 8010 bound_to 7997
  140.7197  143.3590  151.2001 H   0  0  0  0  0  0  0  0  0  0  0  0  # atno 10167 bound_to 10162
  156.0136  130.5286  150.6681 H   0  0  0  0  0  0  0  0  0  0  0  0  # atno 10718 bound_to 10713
  153.3953  135.7003  153.6465 H   0  0  0  0  0  0  0  0  0  0  0  0  # atno 10763 bound_to 10752
  153.5020  135.3650  155.2545 H   0  0  0  0  0  0  0  0  0  0  0  0  # atno 10764 bound_to 10752
  154.8706  135.4114  154.3278 H   0  0  0  0  0  0  0  0  0  0  0  0  # atno 10765 bound_to 10752
  139.8774  134.9019  156.4364 H   0  0  0  0  0  0  0  0  0  0  0  0  # atno 11005 bound_to 11000
  145.3432  139.1726  143.4474 LP  0  0  0  0  0  0  0  0  0  0  0  0  # atno 17320 bound_to 7965
  146.3165  140.3475  142.8653 LP  0  0  0  0  0  0  0  0  0  0  0  0  # atno 17321 bound_to 7965
  139.7138  143.9334  152.2958 LP  0  0  0  0  0  0  0  0  0  0  0  0  # atno 17342 bound_to 10162
  139.9068  144.6880  150.8606 LP  0  0  0  0  0  0  0  0  0  0  0  0  # atno 17343 bound_to 10162
  157.4409  131.0861  151.0944 LP  0  0  0  0  0  0  0  0  0  0  0  0  # atno 17370 bound_to 10713
  157.1489  130.6175  149.5576 LP  0  0  0  0  0  0  0  0  0  0  0  0  # atno 17371 bound_to 10713
  140.9030  133.7766  155.9702 LP  0  0  0  0  0  0  0  0  0  0  0  0  # atno 17394 bound_to 11000
  140.8630  134.2818  157.5226 LP  0  0  0  0  0  0  0  0  0  0  0  0  # atno 17395 bound_to 11000

$$$$
