AV-unprocessed.smi:36|AV-procd|sdf|285|dock3
  -GOLD-   2262016 63D 1   1.00000     0.00000
 Structure written by MMmdl.
 64 67  0  0  0  0  0  0  0  0  1 V2000
  153.5945  127.4333  168.4449 C   0  0  0  0  0  0  0  0  0  0  0  0
  152.9974  128.7746  167.9880 C   0  0  0  0  0  0  0  0  0  0  0  0
  151.5742  128.5565  167.4474 C   0  0  0  0  0  0  0  0  0  0  0  0
  152.9576  129.7579  169.1698 C   0  0  0  0  0  0  0  0  0  0  0  0
  154.0835  129.5147  166.6011 Si  0  0  0  0  0  0  0  0  0  0  0  0
  155.8287  129.9145  167.2396 C   0  0  0  0  0  0  0  0  0  0  0  0
  154.2050  128.3280  165.1214 C   0  0  0  0  0  0  0  0  0  0  0  0
  153.3480  130.9471  166.0760 O   0  0  0  0  0  0  0  0  0  0  0  0
  153.8652  131.7824  165.0592 C   0  0  0  0  0  0  0  0  0  0  0  0
  155.2609  132.2960  165.4632 C   0  0  2  0  0  0  0  0  0  0  0  0
  155.1858  133.7236  165.5381 O   0  0  0  0  0  0  0  0  0  0  0  0
  156.1565  134.2904  164.7176 C   0  0  2  0  0  0  0  0  0  0  0  0
  155.6404  135.5788  164.1678 N   0  0  0  0  0  0  0  0  0  0  0  0
  155.2071  136.6805  164.8716 C   0  0  0  0  0  0  0  0  0  0  0  0
  154.7895  137.6818  164.1442 N   0  0  0  0  0  0  0  0  0  0  0  0
  154.9387  137.2338  162.8380 C   0  0  0  0  0  0  0  0  0  0  0  0
  154.6726  137.8062  161.5664 C   0  0  0  0  0  0  0  0  0  0  0  0
  154.1582  139.0556  161.4769 N   0  0  0  0  0  0  0  0  0  0  0  0
  154.1624  139.9492  160.3316 C   0  0  0  0  0  0  0  0  0  0  0  0
  154.6217  139.6143  159.2394 O   0  0  0  0  0  0  0  0  0  0  0  0
  153.4979  141.2803  160.5323 C   0  0  0  0  0  0  0  0  0  0  0  0
  152.8843  141.9359  159.4411 C   0  0  0  0  0  0  0  0  0  0  0  0
  152.2700  143.1911  159.6170 C   0  0  0  0  0  0  0  0  0  0  0  0
  152.2715  143.8058  160.8831 C   0  0  0  0  0  0  0  0  0  0  0  0
  152.8911  143.1658  161.9729 C   0  0  0  0  0  0  0  0  0  0  0  0
  153.5052  141.9100  161.7986 C   0  0  0  0  0  0  0  0  0  0  0  0
  154.9511  137.0516  160.4707 N   0  0  0  0  0  0  0  0  0  0  0  0
  155.4526  135.8208  160.6113 C   0  0  0  0  0  0  0  0  0  0  0  0
  155.7482  135.1640  161.7346 N   0  0  0  0  0  0  0  0  0  0  0  0
  155.4730  135.9147  162.8397 C   0  0  0  0  0  0  0  0  0  0  0  0
  156.4292  133.2737  163.6206 C   0  0  0  0  0  0  0  0  0  0  0  0
  156.3847  132.0051  164.4445 C   0  0  2  0  0  0  0  0  0  0  0  0
  156.1812  130.8637  163.6352 O   0  0  0  0  0  0  0  0  0  0  0  0
  152.9929  126.9807  169.2339 H   0  0  0  0  0  0  0  0  0  0  0  0
  154.6045  127.5610  168.8354 H   0  0  0  0  0  0  0  0  0  0  0  0
  153.6473  126.7199  167.6221 H   0  0  0  0  0  0  0  0  0  0  0  0
  151.5686  127.8571  166.6110 H   0  0  0  0  0  0  0  0  0  0  0  0
  151.1362  129.4919  167.0971 H   0  0  0  0  0  0  0  0  0  0  0  0
  150.9150  128.1523  168.2164 H   0  0  0  0  0  0  0  0  0  0  0  0
  152.3317  129.3800  169.9791 H   0  0  0  0  0  0  0  0  0  0  0  0
  152.5566  130.7259  168.8670 H   0  0  0  0  0  0  0  0  0  0  0  0
  153.9534  129.9291  169.5790 H   0  0  0  0  0  0  0  0  0  0  0  0
  156.3406  129.0193  167.5920 H   0  0  0  0  0  0  0  0  0  0  0  0
  155.8007  130.6205  168.0690 H   0  0  0  0  0  0  0  0  0  0  0  0
  156.4484  130.3544  166.4587 H   0  0  0  0  0  0  0  0  0  0  0  0
  154.6639  127.3809  165.4039 H   0  0  0  0  0  0  0  0  0  0  0  0
  154.8067  128.7506  164.3171 H   0  0  0  0  0  0  0  0  0  0  0  0
  153.2231  128.1030  164.7060 H   0  0  0  0  0  0  0  0  0  0  0  0
  153.9176  131.2129  164.1310 H   0  0  0  0  0  0  0  0  0  0  0  0
  153.1770  132.6092  164.8854 H   0  0  0  0  0  0  0  0  0  0  0  0
  155.5383  131.8919  166.4365 H   0  0  0  0  0  0  0  0  0  0  0  0
  157.0439  134.5483  165.2978 H   0  0  0  0  0  0  0  0  0  0  0  0
  155.2103  136.7187  165.9513 H   0  0  0  0  0  0  0  0  0  0  0  0
  153.7220  139.4142  162.3138 H   0  0  0  0  0  0  0  0  0  0  0  0
  152.8753  141.4780  158.4624 H   0  0  0  0  0  0  0  0  0  0  0  0
  151.7986  143.6829  158.7788 H   0  0  0  0  0  0  0  0  0  0  0  0
  151.8010  144.7686  161.0172 H   0  0  0  0  0  0  0  0  0  0  0  0
  152.8983  143.6396  162.9433 H   0  0  0  0  0  0  0  0  0  0  0  0
  153.9828  141.4404  162.6462 H   0  0  0  0  0  0  0  0  0  0  0  0
  155.6432  135.2856  159.6926 H   0  0  0  0  0  0  0  0  0  0  0  0
  155.6284  133.2952  162.8800 H   0  0  0  0  0  0  0  0  0  0  0  0
  157.3867  133.4571  163.1326 H   0  0  0  0  0  0  0  0  0  0  0  0
  157.3314  131.8920  164.9752 H   0  0  0  0  0  0  0  0  0  0  0  0
  156.8860  130.8100  163.0078 H   0  0  0  0  0  0  0  0  0  0  0  0
  1  2  1  0  0  0  0
  1 34  1  0  0  0  0
  1 35  1  0  0  0  0
  1 36  1  0  0  0  0
  2  3  1  0  0  0  0
  2  4  1  0  0  0  0
  2  5  1  0  0  0  0
  3 37  1  0  0  0  0
  3 38  1  0  0  0  0
  3 39  1  0  0  0  0
  4 40  1  0  0  0  0
  4 41  1  0  0  0  0
  4 42  1  0  0  0  0
  5  6  1  0  0  0  0
  5  7  1  0  0  0  0
  5  8  1  0  0  0  0
  6 43  1  0  0  0  0
  6 44  1  0  0  0  0
  6 45  1  0  0  0  0
  7 46  1  0  0  0  0
  7 47  1  0  0  0  0
  7 48  1  0  0  0  0
  8  9  1  0  0  0  0
  9 10  1  0  0  0  0
  9 49  1  0  0  0  0
  9 50  1  0  0  0  0
 10 32  1  0  0  0  0
 10 11  1  0  0  0  0
 10 51  1  0  0  0  0
 11 12  1  0  0  0  0
 12 13  1  0  0  0  0
 12 31  1  0  0  0  0
 12 52  1  0  0  0  0
 13 30  1  0  0  0  0
 13 14  1  0  0  0  0
 14 15  2  0  0  0  0
 14 53  1  0  0  0  0
 15 16  1  0  0  0  0
 16 30  2  0  0  0  0
 16 17  1  0  0  0  0
 17 18  1  0  0  0  0
 17 27  2  0  0  0  0
 18 19  1  0  0  0  0
 18 54  1  0  0  0  0
 19 20  2  0  0  0  0
 19 21  1  0  0  0  0
 21 26  1  0  0  0  0
 21 22  2  0  0  0  0
 22 23  1  0  0  0  0
 22 55  1  0  0  0  0
 23 24  2  0  0  0  0
 23 56  1  0  0  0  0
 24 25  1  0  0  0  0
 24 57  1  0  0  0  0
 25 26  2  0  0  0  0
 25 58  1  0  0  0  0
 26 59  1  0  0  0  0
 27 28  1  0  0  0  0
 28 29  2  0  0  0  0
 28 60  1  0  0  0  0
 29 30  1  0  0  0  0
 31 32  1  0  0  0  0
 31 61  1  0  0  0  0
 31 62  1  0  0  0  0
 32 33  1  0  0  0  0
 32 63  1  0  0  0  0
 33 64  1  0  0  0  0
M  END
> <s_m_source_file>
AV-unprocessed.smi

> <i_m_source_file_index>
36

> <i_lp_mmshare_version>
43012

> <i_f3d_flags>
0

> <s_epik_input>
W0NIM11DKFtDSDNdKShbQ0gzXSlbU2ldKFtDSDNdKShbQ0gzXSlPW0NIMl1bQ0BASF0xT1tDQEhdKFtDSDJdW0NASF0xW09IXSluKFtjSF1uMiljKGMyMyluW2NIXW5jM1tOSF1DKD1PKWM0W2NIXVtjSF1bY0hdW2NIXVtjSF00

> <s_epik_cmdline>
J2VwaWtfcHl0aG9uJywgJy1waCcsICc3LjAnLCAnLXRuJywgJzgnLCAnLW1hJywgJzIwMCcsICctbWV0YWxfYmluZGluZycsICctaW1hZScsICc8aW5maWxlLm1hZT4nLCAnLW9tYWUnLCAnPG91dGZpbGUubWFlPic=

> <r_lp_tautomer_probability>
1

> <r_epik_Ionization_Penalty>
0.00150433

> <r_epik_Ionization_Penalty_Charging>
0

> <r_epik_Ionization_Penalty_Neutral>
0.00150433

> <r_epik_State_Penalty>
0.00724046

> <r_epik_Charging_Adjusted_Penalty>
0.00724046

> <i_epik_Tot_Q>
0

> <i_epik_Tot_abs_Q>
0

> <r_epik_Metal_State_Penalty>
0.323355

> <b_epik_Metal_Only>
0

> <s_epik_Chemistry_Notes>
This compound contains an acetal/aminal-like group ( X-CH(R)-Y where X, Y are N, S, or O) that may be acid/base labile, releasing an aldehyde.

> <s_lp_Force_Field>
OPLS_2005

> <r_lp_Energy>
39.4689

> <b_lp_Chiralities_Consistent>
1

> <s_lp_Variant>
AV-unprocessed.smi:36-7

> <Gold.Version>
5.8.1

> <Gold.Id.Protein>
6NUR|6NUR_protein|mol2

> <Gold.PLP.Fitness>
58.5457

> <Gold.PLP.PLP>
-57.7985

> <Gold.PLP.part.hbond>
-1.0000

> <Gold.PLP.part.metal>
0.0000

> <Gold.PLP.part.buried>
-6.3501

> <Gold.PLP.part.nonpolar>
-50.8666

> <Gold.PLP.part.repulsive>
0.2920

> <Gold.PLP.ligand.clash>
0.0000

> <Gold.PLP.ligand.torsion>
1.2137

> <Gold.PLP.Chemscore.Hbond>
1.0000

> <Gold.PLP.Chemscore.CHOScore>
0.0000

> <Gold.PLP.Chemscore.Metal>
0.0000

> <Gold.Chemscore.Hbonds>
donor molecule, donor type, donor heavy atom, donor atom, acceptor molecule, acceptor atom, score
      P1  H  7997  8010       L1    20  1.00

> <Gold.PLP.Chemscore.Internal.Correction>
0.1747

> <Gold.Rescore>
     Score         DG    S(hbond)    S(metal)    S(lipo)     H(rot)  DE(clash)    DE(int)     intcor
     13.52     -17.80       1.00        0.00     135.95       2.70       0.04       4.24       ----

> <Gold.Chemscore.Fitness>
13.5244

> <Gold.Chemscore.DG>
-17.8037

> <Gold.Chemscore.ZeroCoef>
-5.4800

> <Gold.Chemscore.Hbond>
1.0000

> <Gold.Chemscore.Metal>
0.0000

> <Gold.Chemscore.Lipo>
135.9502

> <Gold.Chemscore.Internal_Hbond>
0.0000

> <Gold.Chemscore.DEClash>
0.0355

> <Gold.Chemscore.DEInternal>
4.2438

> <Gold.Chemscore.Rot>
2.7041

> <Gold.Chemscore.Internal.Correction>
   9.000000E+99

> <Gold.Chemscore.Hbonds>
donor molecule, donor type, donor heavy atom, donor atom, acceptor molecule, acceptor atom, score
      P1  H  7997  8010       L1    20  0.95

> <Gold.Chemscore.Hbond.Weighted>
-3.3400

> <Gold.Chemscore.Metal.Weighted>
-0.0000

> <Gold.Chemscore.Lipo.Weighted>
-15.9062

> <Gold.Chemscore.Internal_Hbond.Weighted>
0.0000

> <Gold.Chemscore.DEClash.Weighted>
0.0355

> <Gold.Chemscore.DEInternal.Weighted>
4.2438

> <Gold.Chemscore.Rot.Weighted>
6.9225

> <Gold.Chemscore.Internal.Correction.Weighted>
   9.000000E+99

> <Gold.Protein.RotatedTorsions>
[ 6907 6896 6895 6894 ] final   28.54 input  -60.11 | X-H torsion
[ 7974 7965 7964 7962 ] final  -64.00 input  175.53 | X-H torsion
[ 8008 7997 7996 7995 ] final   -5.70 input   59.86 | X-H torsion
[ 10167 10162 10161 10158 ] final -138.96 input  -65.29 | X-H torsion
[ 10718 10713 10712 10709 ] final -170.44 input   66.30 | X-H torsion
[ 10763 10752 10751 10750 ] final   22.83 input  -60.55 | X-H torsion
[ 11005 11000 10999 10996 ] final  168.28 input  -57.11 | X-H torsion

> <Gold.Protein.ActiveResidues>
 VAL166  LYS551  ARG553  GLY616  TRP617  ASP618  TYR619  PRO620  LYS621  CYS622 
 ASP623  PHE694  ASN695  SER759  ASP760  ASP761  ALA762  ILE779  LEU786  VAL792 
 PHE793  MET794  SER795  GLU796  ALA797  LYS798  CYS799  TRP800  GLU811  SER814 

> <Gold.Protein.RotatedAtoms>
  152.0184  134.9837  160.0569 H   0  0  0  0  0  0  0  0  0  0  0  0  # atno 6907 bound_to 6896
  152.1361  133.4431  159.4752 H   0  0  0  0  0  0  0  0  0  0  0  0  # atno 6908 bound_to 6896
  150.6860  134.2280  159.4466 H   0  0  0  0  0  0  0  0  0  0  0  0  # atno 6909 bound_to 6896
  145.7721  140.8807  143.0375 H   0  0  0  0  0  0  0  0  0  0  0  0  # atno 7974 bound_to 7965
  154.6012  140.2451  155.7790 H   0  0  0  0  0  0  0  0  0  0  0  0  # atno 8008 bound_to 7997
  156.2312  140.2966  156.0145 H   0  0  0  0  0  0  0  0  0  0  0  0  # atno 8009 bound_to 7997
  155.2208  140.0400  157.2938 H   0  0  0  0  0  0  0  0  0  0  0  0  # atno 8010 bound_to 7997
  139.8426  143.7302  152.2662 H   0  0  0  0  0  0  0  0  0  0  0  0  # atno 10167 bound_to 10162
  156.7262  130.9289  151.3101 H   0  0  0  0  0  0  0  0  0  0  0  0  # atno 10718 bound_to 10713
  153.0885  135.6640  153.9901 H   0  0  0  0  0  0  0  0  0  0  0  0  # atno 10763 bound_to 10752
  153.9504  135.2984  155.3440 H   0  0  0  0  0  0  0  0  0  0  0  0  # atno 10764 bound_to 10752
  154.7296  135.5128  153.9015 H   0  0  0  0  0  0  0  0  0  0  0  0  # atno 10765 bound_to 10752
  140.2856  134.7715  157.3795 H   0  0  0  0  0  0  0  0  0  0  0  0  # atno 11005 bound_to 11000
  144.6811  139.9869  143.7484 LP  0  0  0  0  0  0  0  0  0  0  0  0  # atno 17320 bound_to 7965
  146.0160  139.3210  143.0842 LP  0  0  0  0  0  0  0  0  0  0  0  0  # atno 17321 bound_to 7965
  139.7544  144.7525  151.0458 LP  0  0  0  0  0  0  0  0  0  0  0  0  # atno 17342 bound_to 10162
  140.7796  143.4823  151.0002 LP  0  0  0  0  0  0  0  0  0  0  0  0  # atno 17343 bound_to 10162
  157.6878  130.9203  150.0432 LP  0  0  0  0  0  0  0  0  0  0  0  0  # atno 17370 bound_to 10713
  156.1560  130.3643  149.9368 LP  0  0  0  0  0  0  0  0  0  0  0  0  # atno 17371 bound_to 10713
  140.1242  134.5179  155.8158 LP  0  0  0  0  0  0  0  0  0  0  0  0  # atno 17394 bound_to 11000
  141.2155  133.6767  156.6922 LP  0  0  0  0  0  0  0  0  0  0  0  0  # atno 17395 bound_to 11000

$$$$
