AV-unprocessed.smi:1726|AV-procd|sdf|6964|dock5
  -GOLD-   22720 8173D 1   1.00000     0.00000
 Structure written by MMmdl.
 42 43  0  0  0  0  0  0  0  0  3 V2000
  144.6831  137.0323  155.5530 C   0  0  0  0  0  0  0  0  0  0  0  0
  144.0194  138.1232  154.7000 C   0  0  0  0  0  0  0  0  0  0  0  0
  144.9773  138.7991  153.7884 N   0  3  2  0  0  0  0  0  0  0  0  0
  145.6260  137.8436  152.8531 C   0  0  0  0  0  0  0  0  0  0  0  0
  146.5116  138.5758  151.8312 C   0  0  0  0  0  0  0  0  0  0  0  0
  147.5613  139.4450  152.5349 C   0  0  0  0  0  0  0  0  0  0  0  0
  146.8723  140.4092  153.5125 C   0  0  2  0  0  0  0  0  0  0  0  0
  147.8742  141.1970  154.2240 N   0  0  0  0  0  0  0  0  0  0  0  0
  148.6531  140.7390  155.2148 C   0  0  0  0  0  0  0  0  0  0  0  0
  148.5998  139.5809  155.6294 O   0  0  0  0  0  0  0  0  0  0  0  0
  149.4882  141.6985  155.6514 N   0  0  0  0  0  0  0  0  0  0  0  0
  150.4460  141.6442  156.6781 C   0  0  0  0  0  0  0  0  0  0  0  0
  150.6566  142.6276  157.5964 C   0  0  0  0  0  0  0  0  0  0  0  0
  151.6754  142.5211  158.6332 C   0  0  0  0  0  0  0  0  0  0  0  0
  151.9870  143.6264  159.6266 C   0  0  0  0  0  0  0  0  0  0  0  0
  152.4876  144.6974  159.0099 F   0  0  0  0  0  0  0  0  0  0  0  0
  150.8917  143.9969  160.2899 F   0  0  0  0  0  0  0  0  0  0  0  0
  152.8855  143.1999  160.5127 F   0  0  0  0  0  0  0  0  0  0  0  0
  152.3961  141.3462  158.5416 C   0  0  0  0  0  0  0  0  0  0  0  0
  152.2485  140.3235  157.6711 N   0  5  0  0  0  0  0  0  0  0  0  0
  151.2853  140.4286  156.7126 C   0  0  0  0  0  0  0  0  0  0  0  0
  151.1012  139.5374  155.8827 O   0  0  0  0  0  0  0  0  0  0  0  0
  145.9831  139.6288  154.5041 C   0  0  0  0  0  0  0  0  0  0  0  0
  143.9771  136.6367  156.2835 H   0  0  0  0  0  0  0  0  0  0  0  0
  145.5384  137.4271  156.1024 H   0  0  0  0  0  0  0  0  0  0  0  0
  145.0266  136.1912  154.9515 H   0  0  0  0  0  0  0  0  0  0  0  0
  143.1847  137.7126  154.1300 H   0  0  0  0  0  0  0  0  0  0  0  0
  143.5939  138.8614  155.3811 H   0  0  0  0  0  0  0  0  0  0  0  0
  146.2204  137.1253  153.4201 H   0  0  0  0  0  0  0  0  0  0  0  0
  144.8640  137.2737  152.3198 H   0  0  0  0  0  0  0  0  0  0  0  0
  147.0031  137.8537  151.1787 H   0  0  0  0  0  0  0  0  0  0  0  0
  145.8897  139.2002  151.1881 H   0  0  0  0  0  0  0  0  0  0  0  0
  148.2658  138.8071  153.0707 H   0  0  0  0  0  0  0  0  0  0  0  0
  148.1406  140.0011  151.7967 H   0  0  0  0  0  0  0  0  0  0  0  0
  146.2430  141.0874  152.9322 H   0  0  0  0  0  0  0  0  0  0  0  0
  147.9845  142.1603  153.9418 H   0  0  0  0  0  0  0  0  0  0  0  0
  149.4632  142.5785  155.1567 H   0  0  0  0  0  0  0  0  0  0  0  0
  150.0791  143.5369  157.5746 H   0  0  0  0  0  0  0  0  0  0  0  0
  153.2173  141.2089  159.2769 H   0  0  0  0  0  0  0  0  0  0  0  0
  145.4783  140.3346  155.1628 H   0  0  0  0  0  0  0  0  0  0  0  0
  146.5964  138.9883  155.1404 H   0  0  0  0  0  0  0  0  0  0  0  0
  144.4323  139.4283  153.2161 H   0  0  0  0  0  0  0  0  0  0  0  0
  1  2  1  0  0  0  0
  1 24  1  0  0  0  0
  1 25  1  0  0  0  0
  1 26  1  0  0  0  0
  2  3  1  0  0  0  0
  2 27  1  0  0  0  0
  2 28  1  0  0  0  0
  3 23  1  0  0  0  0
  3  4  1  0  0  0  0
  3 42  1  0  0  0  0
  4  5  1  0  0  0  0
  4 29  1  0  0  0  0
  4 30  1  0  0  0  0
  5  6  1  0  0  0  0
  5 31  1  0  0  0  0
  5 32  1  0  0  0  0
  6  7  1  0  0  0  0
  6 33  1  0  0  0  0
  6 34  1  0  0  0  0
  7  8  1  0  0  0  0
  7 23  1  0  0  0  0
  7 35  1  0  0  0  0
  8  9  1  0  0  0  0
  8 36  1  0  0  0  0
  9 10  2  0  0  0  0
  9 11  1  0  0  0  0
 11 12  1  0  0  0  0
 11 37  1  0  0  0  0
 12 21  1  0  0  0  0
 12 13  2  0  0  0  0
 13 14  1  0  0  0  0
 13 38  1  0  0  0  0
 14 15  1  0  0  0  0
 14 19  2  0  0  0  0
 15 16  1  0  0  0  0
 15 17  1  0  0  0  0
 15 18  1  0  0  0  0
 19 20  1  0  0  0  0
 19 39  1  0  0  0  0
 20 21  1  0  0  0  0
 21 22  2  0  0  0  0
 23 40  1  0  0  0  0
 23 41  1  0  0  0  0
M  CHG  1   3   1
M  CHG  1  20  -1
M  END
> <s_m_source_file>
AV-unprocessed.smi

> <i_m_source_file_index>
1726

> <i_lp_mmshare_version>
43012

> <i_f3d_flags>
0

> <s_epik_input>
W0NIM11bQ0gyXU4xW0NIMl1bQ0gyXVtDSDJdW0NASF0oW0NIMl0xKVtOSF1DKD1PKVtOSF1jMltjSF1jKEMoRikoRilGKVtjSF1bbkhdYzI9Tw==

> <s_epik_cmdline>
J2VwaWtfcHl0aG9uJywgJy1waCcsICc3LjAnLCAnLXRuJywgJzgnLCAnLW1hJywgJzIwMCcsICctbWV0YWxfYmluZGluZycsICctaW1hZScsICc8aW5maWxlLm1hZT4nLCAnLW9tYWUnLCAnPG91dGZpbGUubWFlPic=

> <r_lp_tautomer_probability>
1

> <r_epik_Ionization_Penalty>
3.01007

> <r_epik_Ionization_Penalty_Charging>
0.14897

> <r_epik_Ionization_Penalty_Neutral>
2.8611

> <r_epik_State_Penalty>
2.85632

> <r_epik_Charging_Adjusted_Penalty>
3.00529

> <i_epik_Tot_Q>
0

> <i_epik_Tot_abs_Q>
2

> <r_epik_Metal_State_Penalty>
0.443826

> <b_epik_Metal_Only>
1

> <s_lp_Force_Field>
OPLS_2005

> <r_lp_Energy>
27.5552

> <b_lp_Chiralities_Consistent>
1

> <s_lp_Variant>
AV-unprocessed.smi:1726-8

> <Gold.Version>
5.8.1

> <Gold.Id.Protein>
6NUR|6NUR_protein|mol2

> <Gold.PLP.Fitness>
46.8295

> <Gold.PLP.PLP>
-34.4737

> <Gold.PLP.part.hbond>
-3.0667

> <Gold.PLP.part.metal>
0.0000

> <Gold.PLP.part.buried>
1.4311

> <Gold.PLP.part.nonpolar>
-33.3210

> <Gold.PLP.part.repulsive>
0.3050

> <Gold.PLP.ligand.clash>
0.0085

> <Gold.PLP.ligand.torsion>
0.7143

> <Gold.PLP.Chemscore.Hbond>
4.5735

> <Gold.PLP.Chemscore.CHOScore>
0.0000

> <Gold.PLP.Chemscore.Metal>
0.0000

> <Gold.Chemscore.Hbonds>
donor molecule, donor type, donor heavy atom, donor atom, acceptor molecule, acceptor atom, score
      L1  H     3    42       P1 10175  1.76
      L1  H    11    37       P1  8028  0.30
      P1  H  7997  8008       L1    20  0.32

> <Gold.PLP.Chemscore.Internal.Correction>
0.0724

> <Gold.Rescore>
     Score         DG    S(hbond)    S(metal)    S(lipo)     H(rot)  DE(clash)    DE(int)     intcor
     14.32     -22.44       3.42        0.00      75.42       1.28       3.57       4.54       ----

> <Gold.Chemscore.Fitness>
14.3231

> <Gold.Chemscore.DG>
-22.4388

> <Gold.Chemscore.ZeroCoef>
-5.4800

> <Gold.Chemscore.Hbond>
3.4164

> <Gold.Chemscore.Metal>
0.0000

> <Gold.Chemscore.Lipo>
75.4185

> <Gold.Chemscore.Internal_Hbond>
0.0000

> <Gold.Chemscore.DEClash>
3.5749

> <Gold.Chemscore.DEInternal>
4.5408

> <Gold.Chemscore.Rot>
1.2796

> <Gold.Chemscore.Internal.Correction>
   9.000000E+99

> <Gold.Chemscore.Hbonds>
donor molecule, donor type, donor heavy atom, donor atom, acceptor molecule, acceptor atom, score
      L1  H     3    42       P1 10175  0.86
      L1  H    11    37       P1  8028  0.31
      P1  H  7997  8008       L1    20  0.06

> <Gold.Chemscore.Hbond.Weighted>
-11.4107

> <Gold.Chemscore.Metal.Weighted>
-0.0000

> <Gold.Chemscore.Lipo.Weighted>
-8.8240

> <Gold.Chemscore.Internal_Hbond.Weighted>
0.0000

> <Gold.Chemscore.DEClash.Weighted>
3.5749

> <Gold.Chemscore.DEInternal.Weighted>
4.5408

> <Gold.Chemscore.Rot.Weighted>
3.2759

> <Gold.Chemscore.Internal.Correction.Weighted>
   9.000000E+99

> <Gold.Protein.RotatedTorsions>
[ 6907 6896 6895 6894 ] final -131.69 input  -60.11 | X-H torsion
[ 7974 7965 7964 7962 ] final   97.49 input  175.53 | X-H torsion
[ 8008 7997 7996 7995 ] final  -63.27 input   59.86 | X-H torsion
[ 10167 10162 10161 10158 ] final   73.29 input  -65.29 | X-H torsion
[ 10718 10713 10712 10709 ] final  -45.27 input   66.30 | X-H torsion
[ 10763 10752 10751 10750 ] final  124.83 input  -60.55 | X-H torsion
[ 11005 11000 10999 10996 ] final  -73.71 input  -57.11 | X-H torsion

> <Gold.Protein.ActiveResidues>
 VAL166  LYS551  ARG553  GLY616  TRP617  ASP618  TYR619  PRO620  LYS621  CYS622 
 ASP623  PHE694  ASN695  SER759  ASP760  ASP761  ALA762  ILE779  LEU786  VAL792 
 PHE793  MET794  SER795  GLU796  ALA797  LYS798  CYS799  TRP800  GLU811  SER814 

> <Gold.Protein.RotatedAtoms>
  150.9538  133.6519  159.2766 H   0  0  0  0  0  0  0  0  0  0  0  0  # atno 6907 bound_to 6896
  151.3866  135.0948  159.9522 H   0  0  0  0  0  0  0  0  0  0  0  0  # atno 6908 bound_to 6896
  152.5121  133.9062  159.7520 H   0  0  0  0  0  0  0  0  0  0  0  0  # atno 6909 bound_to 6896
  145.4248  139.2317  143.3176 H   0  0  0  0  0  0  0  0  0  0  0  0  # atno 7974 bound_to 7965
  154.4545  140.0978  156.6716 H   0  0  0  0  0  0  0  0  0  0  0  0  # atno 8008 bound_to 7997
  155.5181  140.3478  155.4383 H   0  0  0  0  0  0  0  0  0  0  0  0  # atno 8009 bound_to 7997
  156.0749  140.1358  156.9772 H   0  0  0  0  0  0  0  0  0  0  0  0  # atno 8010 bound_to 7997
  140.0261  144.5502  150.7543 H   0  0  0  0  0  0  0  0  0  0  0  0  # atno 10167 bound_to 10162
  156.2300  130.4172  149.8886 H   0  0  0  0  0  0  0  0  0  0  0  0  # atno 10718 bound_to 10713
  153.6676  135.3336  155.3144 H   0  0  0  0  0  0  0  0  0  0  0  0  # atno 10763 bound_to 10752
  154.8499  135.4378  154.1739 H   0  0  0  0  0  0  0  0  0  0  0  0  # atno 10764 bound_to 10752
  153.2722  135.7001  153.7545 H   0  0  0  0  0  0  0  0  0  0  0  0  # atno 10765 bound_to 10752
  141.1626  133.6887  156.7253 H   0  0  0  0  0  0  0  0  0  0  0  0  # atno 11005 bound_to 11000
  146.2638  140.4978  142.8842 LP  0  0  0  0  0  0  0  0  0  0  0  0  # atno 17320 bound_to 7965
  144.8221  140.6567  143.6346 LP  0  0  0  0  0  0  0  0  0  0  0  0  # atno 17321 bound_to 7965
  140.7322  143.2703  151.3911 LP  0  0  0  0  0  0  0  0  0  0  0  0  # atno 17342 bound_to 10162
  139.6107  144.1104  152.2296 LP  0  0  0  0  0  0  0  0  0  0  0  0  # atno 17343 bound_to 10162
  156.6503  130.8741  151.3530 LP  0  0  0  0  0  0  0  0  0  0  0  0  # atno 17370 bound_to 10713
  157.7129  130.9461  150.1151 LP  0  0  0  0  0  0  0  0  0  0  0  0  # atno 17371 bound_to 10713
  140.2785  134.8335  157.3912 LP  0  0  0  0  0  0  0  0  0  0  0  0  # atno 17394 bound_to 11000
  140.1455  134.4917  155.7999 LP  0  0  0  0  0  0  0  0  0  0  0  0  # atno 17395 bound_to 11000

$$$$
