AV-unprocessed.smi:1576|AV-procd|sdf|6347|dock4
  -GOLD-   22720 6563D 1   1.00000     0.00000
 Structure written by MMmdl.
 45 47  0  0  0  0  0  0  0  0  3 V2000
  148.2278  136.9843  158.0867 O   0  0  0  0  0  0  0  0  0  0  0  0
  149.1938  136.2383  158.2833 C   0  0  0  0  0  0  0  0  0  0  0  0
  150.4219  136.7517  158.4749 N   0  0  0  0  0  0  0  0  0  0  0  0
  150.8343  138.1109  158.4621 C   0  0  0  0  0  0  0  0  0  0  0  0
  150.0492  139.0303  157.7345 C   0  0  0  0  0  0  0  0  0  0  0  0
  150.4136  140.3920  157.7067 C   0  0  0  0  0  0  0  0  0  0  0  0
  151.5566  140.8169  158.4218 C   0  0  0  0  0  0  0  0  0  0  0  0
  151.9982  142.1461  158.4490 N   0  0  0  0  0  0  0  0  0  0  0  0
  151.2534  143.0078  157.5342 C   0  0  0  0  0  0  0  0  0  0  0  0
  151.8873  144.4077  157.4612 C   0  0  0  0  0  0  0  0  0  0  0  0
  152.0250  145.0222  158.8634 C   0  0  0  0  0  0  0  0  0  0  0  0
  152.7893  144.0638  159.7910 C   0  0  0  0  0  0  0  0  0  0  0  0
  152.1342  142.6715  159.8052 C   0  0  0  0  0  0  0  0  0  0  0  0
  152.2712  139.9108  159.1234 N   0  3  0  0  0  0  0  0  0  0  0  0
  151.9573  138.5978  159.1740 C   0  0  0  0  0  0  0  0  0  0  0  0
  149.1899  134.8803  158.3626 N   0  5  0  0  0  0  0  0  0  0  0  0
  148.9234  133.9726  157.2400 C   0  0  2  0  0  0  0  0  0  0  0  0
  148.4665  132.5948  157.7746 C   0  0  0  0  0  0  0  0  0  0  0  0
  149.6912  131.7834  158.2168 C   0  0  0  0  0  0  0  0  0  0  0  0
  151.0178  132.2356  157.0404 S   0  0  0  0  0  0  0  0  0  0  0  0
  152.2386  132.5724  157.7893 O   0  0  0  0  0  0  0  0  0  0  0  0
  151.0531  131.2480  155.9503 O   0  0  0  0  0  0  0  0  0  0  0  0
  150.2143  133.7694  156.4226 C   0  0  0  0  0  0  0  0  0  0  0  0
  151.1329  136.0805  158.7257 H   0  0  0  0  0  0  0  0  0  0  0  0
  149.1769  138.6947  157.1927 H   0  0  0  0  0  0  0  0  0  0  0  0
  149.8203  141.0964  157.1423 H   0  0  0  0  0  0  0  0  0  0  0  0
  151.2337  142.5584  156.5405 H   0  0  0  0  0  0  0  0  0  0  0  0
  150.2185  143.0892  157.8690 H   0  0  0  0  0  0  0  0  0  0  0  0
  152.8708  144.3393  156.9942 H   0  0  0  0  0  0  0  0  0  0  0  0
  151.2864  145.0572  156.8242 H   0  0  0  0  0  0  0  0  0  0  0  0
  152.5388  145.9822  158.8059 H   0  0  0  0  0  0  0  0  0  0  0  0
  151.0350  145.2213  159.2757 H   0  0  0  0  0  0  0  0  0  0  0  0
  153.8232  143.9773  159.4543 H   0  0  0  0  0  0  0  0  0  0  0  0
  152.8258  144.4701  160.8022 H   0  0  0  0  0  0  0  0  0  0  0  0
  151.1512  142.7310  160.2745 H   0  0  0  0  0  0  0  0  0  0  0  0
  152.7344  141.9866  160.4060 H   0  0  0  0  0  0  0  0  0  0  0  0
  152.6092  137.9953  159.7890 H   0  0  0  0  0  0  0  0  0  0  0  0
  148.1538  134.3792  156.5822 H   0  0  0  0  0  0  0  0  0  0  0  0
  147.7281  132.6778  158.5732 H   0  0  0  0  0  0  0  0  0  0  0  0
  147.9779  132.0584  156.9605 H   0  0  0  0  0  0  0  0  0  0  0  0
  150.0119  132.0696  159.2198 H   0  0  0  0  0  0  0  0  0  0  0  0
  149.5210  130.7072  158.2000 H   0  0  0  0  0  0  0  0  0  0  0  0
  149.9752  133.6125  155.3709 H   0  0  0  0  0  0  0  0  0  0  0  0
  150.9087  134.6079  156.4862 H   0  0  0  0  0  0  0  0  0  0  0  0
  153.0886  140.2328  159.6421 H   0  0  0  0  0  0  0  0  0  0  0  0
  1  2  2  0  0  0  0
  2  3  1  0  0  0  0
  2 16  1  0  0  0  0
  3  4  1  0  0  0  0
  3 24  1  0  0  0  0
  4 15  1  0  0  0  0
  4  5  2  0  0  0  0
  5  6  1  0  0  0  0
  5 25  1  0  0  0  0
  6  7  2  0  0  0  0
  6 26  1  0  0  0  0
  7  8  1  0  0  0  0
  7 14  1  0  0  0  0
  8 13  1  0  0  0  0
  8  9  1  0  0  0  0
  9 10  1  0  0  0  0
  9 27  1  0  0  0  0
  9 28  1  0  0  0  0
 10 11  1  0  0  0  0
 10 29  1  0  0  0  0
 10 30  1  0  0  0  0
 11 12  1  0  0  0  0
 11 31  1  0  0  0  0
 11 32  1  0  0  0  0
 12 13  1  0  0  0  0
 12 33  1  0  0  0  0
 12 34  1  0  0  0  0
 13 35  1  0  0  0  0
 13 36  1  0  0  0  0
 14 15  2  0  0  0  0
 14 45  1  0  0  0  0
 15 37  1  0  0  0  0
 16 17  1  0  0  0  0
 17 23  1  0  0  0  0
 17 18  1  0  0  0  0
 17 38  1  0  0  0  0
 18 19  1  0  0  0  0
 18 39  1  0  0  0  0
 18 40  1  0  0  0  0
 19 20  1  0  0  0  0
 19 41  1  0  0  0  0
 19 42  1  0  0  0  0
 20 21  2  0  0  0  0
 20 22  2  0  0  0  0
 20 23  1  0  0  0  0
 23 43  1  0  0  0  0
 23 44  1  0  0  0  0
M  CHG  1  14   1
M  CHG  1  16  -1
M  END
> <s_m_source_file>
AV-unprocessed.smi

> <i_m_source_file_index>
1576

> <i_lp_mmshare_version>
43012

> <i_f3d_flags>
0

> <s_epik_input>
Tz1TMSg9TylbQ0gyXVtDSDJdW0NASF0oW0NIMl0xKVtOSF1DKD1PKVtOSF1jMltjSF1bY0hdYyhuW2NIXTIpTjNbQ0gyXVtDSDJdW0NIMl1bQ0gyXVtDSDJdMw==

> <s_epik_cmdline>
J2VwaWtfcHl0aG9uJywgJy1waCcsICc3LjAnLCAnLXRuJywgJzgnLCAnLW1hJywgJzIwMCcsICctbWV0YWxfYmluZGluZycsICctaW1hZScsICc8aW5maWxlLm1hZT4nLCAnLW9tYWUnLCAnPG91dGZpbGUubWFlPic=

> <r_lp_tautomer_probability>
0.999994

> <r_epik_Ionization_Penalty>
8.26491

> <r_epik_Ionization_Penalty_Charging>
8.26491

> <r_epik_Ionization_Penalty_Neutral>
3.15169e-06

> <r_epik_State_Penalty>
7.8977

> <r_epik_Charging_Adjusted_Penalty>
16.1626

> <i_epik_Tot_Q>
0

> <i_epik_Tot_abs_Q>
2

> <r_epik_Metal_State_Penalty>
3.88896

> <b_epik_Metal_Only>
1

> <s_lp_Force_Field>
OPLS_2005

> <r_lp_Energy>
29.9243

> <b_lp_Chiralities_Consistent>
1

> <s_lp_Variant>
AV-unprocessed.smi:1576-5

> <Gold.Version>
5.8.1

> <Gold.Id.Protein>
6NUR|6NUR_protein|mol2

> <Gold.PLP.Fitness>
41.0234

> <Gold.PLP.PLP>
-34.2879

> <Gold.PLP.part.hbond>
-2.0000

> <Gold.PLP.part.metal>
0.0000

> <Gold.PLP.part.buried>
-6.4445

> <Gold.PLP.part.nonpolar>
-26.2813

> <Gold.PLP.part.repulsive>
0.2541

> <Gold.PLP.ligand.clash>
0.0000

> <Gold.PLP.ligand.torsion>
1.1706

> <Gold.PLP.Chemscore.Hbond>
2.9760

> <Gold.PLP.Chemscore.CHOScore>
0.0000

> <Gold.PLP.Chemscore.Metal>
0.0000

> <Gold.Chemscore.Hbonds>
donor molecule, donor type, donor heavy atom, donor atom, acceptor molecule, acceptor atom, score
      P1  H  6896  6907       L1    16  2.00
      P1  H  6896  6909       L1    21  0.99

> <Gold.PLP.Chemscore.Internal.Correction>
0.1487

> <Gold.Rescore>
     Score         DG    S(hbond)    S(metal)    S(lipo)     H(rot)  DE(clash)    DE(int)     intcor
     15.11     -17.77       1.54        0.00      88.30       1.24       0.03       2.64       ----

> <Gold.Chemscore.Fitness>
15.1084

> <Gold.Chemscore.DG>
-17.7734

> <Gold.Chemscore.ZeroCoef>
-5.4800

> <Gold.Chemscore.Hbond>
1.5355

> <Gold.Chemscore.Metal>
0.0000

> <Gold.Chemscore.Lipo>
88.2954

> <Gold.Chemscore.Internal_Hbond>
0.0000

> <Gold.Chemscore.DEClash>
0.0259

> <Gold.Chemscore.DEInternal>
2.6391

> <Gold.Chemscore.Rot>
1.2366

> <Gold.Chemscore.Internal.Correction>
   9.000000E+99

> <Gold.Chemscore.Hbonds>
donor molecule, donor type, donor heavy atom, donor atom, acceptor molecule, acceptor atom, score
      P1  H  6896  6907       L1    16  0.51
      P1  H  6896  6909       L1    21  0.88

> <Gold.Chemscore.Hbond.Weighted>
-5.1286

> <Gold.Chemscore.Metal.Weighted>
-0.0000

> <Gold.Chemscore.Lipo.Weighted>
-10.3306

> <Gold.Chemscore.Internal_Hbond.Weighted>
0.0000

> <Gold.Chemscore.DEClash.Weighted>
0.0259

> <Gold.Chemscore.DEInternal.Weighted>
2.6391

> <Gold.Chemscore.Rot.Weighted>
3.1657

> <Gold.Chemscore.Internal.Correction.Weighted>
   9.000000E+99

> <Gold.Protein.RotatedTorsions>
[ 6907 6896 6895 6894 ] final  -79.87 input  -60.11 | X-H torsion
[ 7974 7965 7964 7962 ] final  -60.13 input  175.53 | X-H torsion
[ 8008 7997 7996 7995 ] final   93.88 input   59.86 | X-H torsion
[ 10167 10162 10161 10158 ] final  108.91 input  -65.29 | X-H torsion
[ 10718 10713 10712 10709 ] final  -23.70 input   66.30 | X-H torsion
[ 10763 10752 10751 10750 ] final  127.48 input  -60.55 | X-H torsion
[ 11005 11000 10999 10996 ] final  168.12 input  -57.11 | X-H torsion

> <Gold.Protein.ActiveResidues>
 VAL166  LYS551  ARG553  GLY616  TRP617  ASP618  TYR619  PRO620  LYS621  CYS622 
 ASP623  PHE694  ASN695  SER759  ASP760  ASP761  ALA762  ILE779  LEU786  VAL792 
 PHE793  MET794  SER795  GLU796  ALA797  LYS798  CYS799  TRP800  GLU811  SER814 

> <Gold.Protein.RotatedAtoms>
  150.6941  134.4056  159.5138 H   0  0  0  0  0  0  0  0  0  0  0  0  # atno 6907 bound_to 6896
  152.1823  134.8741  160.0534 H   0  0  0  0  0  0  0  0  0  0  0  0  # atno 6908 bound_to 6896
  151.9727  133.3696  159.4114 H   0  0  0  0  0  0  0  0  0  0  0  0  # atno 6909 bound_to 6896
  145.8192  140.8551  143.0141 H   0  0  0  0  0  0  0  0  0  0  0  0  # atno 7974 bound_to 7965
  156.0517  140.3307  155.7359 H   0  0  0  0  0  0  0  0  0  0  0  0  # atno 8008 bound_to 7997
  155.5590  140.0617  157.2850 H   0  0  0  0  0  0  0  0  0  0  0  0  # atno 8009 bound_to 7997
  154.4439  140.1880  156.0752 H   0  0  0  0  0  0  0  0  0  0  0  0  # atno 8010 bound_to 7997
  139.6808  144.7118  151.1518 H   0  0  0  0  0  0  0  0  0  0  0  0  # atno 10167 bound_to 10162
  156.4875  130.4559  149.6775 H   0  0  0  0  0  0  0  0  0  0  0  0  # atno 10718 bound_to 10713
  153.7101  135.3270  155.3244 H   0  0  0  0  0  0  0  0  0  0  0  0  # atno 10763 bound_to 10752
  154.8387  135.4475  154.1323 H   0  0  0  0  0  0  0  0  0  0  0  0  # atno 10764 bound_to 10752
  153.2414  135.6971  153.7858 H   0  0  0  0  0  0  0  0  0  0  0  0  # atno 10765 bound_to 10752
  140.2839  134.7728  157.3781 H   0  0  0  0  0  0  0  0  0  0  0  0  # atno 11005 bound_to 11000
  144.6749  140.0509  143.7479 LP  0  0  0  0  0  0  0  0  0  0  0  0  # atno 17320 bound_to 7965
  145.9693  139.2858  143.1108 LP  0  0  0  0  0  0  0  0  0  0  0  0  # atno 17321 bound_to 7965
  140.7651  143.5701  150.9004 LP  0  0  0  0  0  0  0  0  0  0  0  0  # atno 17342 bound_to 10162
  139.9373  143.6423  152.3062 LP  0  0  0  0  0  0  0  0  0  0  0  0  # atno 17343 bound_to 10162
  156.3459  130.7407  151.2359 LP  0  0  0  0  0  0  0  0  0  0  0  0  # atno 17370 bound_to 10713
  157.7477  131.0390  150.4532 LP  0  0  0  0  0  0  0  0  0  0  0  0  # atno 17371 bound_to 10713
  140.1258  134.5160  155.8146 LP  0  0  0  0  0  0  0  0  0  0  0  0  # atno 17394 bound_to 11000
  141.2158  133.6772  156.6949 LP  0  0  0  0  0  0  0  0  0  0  0  0  # atno 17395 bound_to 11000

$$$$
