AV-unprocessed.smi:281|AV-procd|sdf|2110|dock10
  -GOLD-   2262021403D 1   1.00000     0.00000
 Structure written by MMmdl.
 55 59  0  0  0  0  0  0  0  0  1 V2000
  153.2161  141.2976  161.5356 C   0  0  0  0  0  0  0  0  0  0  0  0
  153.2828  142.0455  160.2004 C   0  0  1  0  0  0  0  0  0  0  0  0
  153.1201  141.1006  159.0015 C   0  0  0  0  0  0  0  0  0  0  0  0
  153.1047  141.8677  157.7603 N   0  0  0  0  0  0  0  0  0  0  0  0
  153.2176  141.1801  156.5936 C   0  0  0  0  0  0  0  0  0  0  0  0
  153.1075  141.8354  155.4061 N   0  0  0  0  0  0  0  0  0  0  0  0
  153.2264  141.1727  154.2522 C   0  0  0  0  0  0  0  0  0  0  0  0
  153.4495  139.8727  154.0566 N   0  0  0  0  0  0  0  0  0  0  0  0
  153.5506  139.2050  155.2411 C   0  0  0  0  0  0  0  0  0  0  0  0
  153.4518  139.7758  156.5422 C   0  0  0  0  0  0  0  0  0  0  0  0
  153.6037  138.7824  157.5022 N   0  0  0  0  0  0  0  0  0  0  0  0
  153.7910  137.6921  156.8110 C   0  0  0  0  0  0  0  0  0  0  0  0
  153.7633  137.8522  155.4445 N   0  0  0  0  0  0  0  0  0  0  0  0
  153.9357  136.8154  154.4381 C   0  0  0  0  0  0  0  0  0  0  0  0
  152.8638  135.7016  154.5033 C   0  0  1  0  0  0  0  0  0  0  0  0
  151.5854  136.2723  154.2832 O   0  0  0  0  0  0  0  0  0  0  0  0
  153.0862  134.6087  153.4655 C   0  0  0  0  0  0  0  0  0  0  0  0
  152.4756  133.3836  154.1317 C   0  0  0  0  0  0  0  0  0  0  0  0
  152.8680  133.5325  155.4856 O   0  0  0  0  0  0  0  0  0  0  0  0
  152.8260  134.9144  155.8299 C   0  0  0  0  0  0  0  0  0  0  0  0
  152.0892  142.9163  157.7527 C   0  0  0  0  0  0  0  0  0  0  0  0
  152.1853  143.8263  159.0057 C   0  0  2  0  0  0  0  0  0  0  0  0
  150.9311  144.6856  159.1338 C   0  0  0  0  0  0  0  0  0  0  0  0
  151.4285  145.9368  159.8371 C   0  0  0  0  0  0  0  0  0  0  0  0
  152.6715  146.1532  159.1983 O   0  0  0  0  0  0  0  0  0  0  0  0
  153.3206  144.8948  159.0513 C   0  0  2  0  0  0  0  0  0  0  0  0
  154.2592  144.9771  157.8395 C   0  0  0  0  0  0  0  0  0  0  0  0
  152.2312  143.0102  160.1813 O   0  0  0  0  0  0  0  0  0  0  0  0
  154.0056  140.5493  161.6066 H   0  0  0  0  0  0  0  0  0  0  0  0
  152.2594  140.7883  161.6553 H   0  0  0  0  0  0  0  0  0  0  0  0
  153.3345  141.9856  162.3731 H   0  0  0  0  0  0  0  0  0  0  0  0
  154.2507  142.5434  160.1360 H   0  0  0  0  0  0  0  0  0  0  0  0
  153.9417  140.3829  158.9875 H   0  0  0  0  0  0  0  0  0  0  0  0
  152.1915  140.5346  159.0920 H   0  0  0  0  0  0  0  0  0  0  0  0
  153.1280  141.7695  153.3574 H   0  0  0  0  0  0  0  0  0  0  0  0
  153.9519  136.7351  157.2854 H   0  0  0  0  0  0  0  0  0  0  0  0
  153.9262  137.2880  153.4549 H   0  0  0  0  0  0  0  0  0  0  0  0
  154.9313  136.3867  154.5599 H   0  0  0  0  0  0  0  0  0  0  0  0
  151.4779  136.4203  153.3560 H   0  0  0  0  0  0  0  0  0  0  0  0
  152.6488  134.8316  152.4913 H   0  0  0  0  0  0  0  0  0  0  0  0
  154.1539  134.4380  153.3188 H   0  0  0  0  0  0  0  0  0  0  0  0
  151.3868  133.3997  154.0606 H   0  0  0  0  0  0  0  0  0  0  0  0
  152.8364  132.4463  153.7079 H   0  0  0  0  0  0  0  0  0  0  0  0
  153.6875  135.1271  156.4619 H   0  0  0  0  0  0  0  0  0  0  0  0
  151.9305  135.1302  156.4147 H   0  0  0  0  0  0  0  0  0  0  0  0
  152.1317  143.5179  156.8460 H   0  0  0  0  0  0  0  0  0  0  0  0
  151.1146  142.4256  157.7407 H   0  0  0  0  0  0  0  0  0  0  0  0
  150.5578  144.9621  158.1465 H   0  0  0  0  0  0  0  0  0  0  0  0
  150.1197  144.1902  159.6680 H   0  0  0  0  0  0  0  0  0  0  0  0
  150.7575  146.7872  159.7154 H   0  0  0  0  0  0  0  0  0  0  0  0
  151.5807  145.7587  160.9028 H   0  0  0  0  0  0  0  0  0  0  0  0
  153.9233  144.7570  159.9495 H   0  0  0  0  0  0  0  0  0  0  0  0
  154.8055  144.0455  157.6932 H   0  0  0  0  0  0  0  0  0  0  0  0
  154.9977  145.7666  157.9794 H   0  0  0  0  0  0  0  0  0  0  0  0
  153.7112  145.2035  156.9253 H   0  0  0  0  0  0  0  0  0  0  0  0
  1  2  1  0  0  0  0
  1 29  1  0  0  0  0
  1 30  1  0  0  0  0
  1 31  1  0  0  0  0
  2 28  1  0  0  0  0
  2  3  1  0  0  0  0
  2 32  1  0  0  0  0
  3  4  1  0  0  0  0
  3 33  1  0  0  0  0
  3 34  1  0  0  0  0
  4  5  1  0  0  0  0
  4 21  1  0  0  0  0
  5 10  1  0  0  0  0
  5  6  2  0  0  0  0
  6  7  1  0  0  0  0
  7  8  2  0  0  0  0
  7 35  1  0  0  0  0
  8  9  1  0  0  0  0
  9 13  1  0  0  0  0
  9 10  2  0  0  0  0
 10 11  1  0  0  0  0
 11 12  2  0  0  0  0
 12 13  1  0  0  0  0
 12 36  1  0  0  0  0
 13 14  1  0  0  0  0
 14 15  1  0  0  0  0
 14 37  1  0  0  0  0
 14 38  1  0  0  0  0
 15 20  1  0  0  0  0
 15 16  1  0  0  0  0
 15 17  1  0  0  0  0
 16 39  1  0  0  0  0
 17 18  1  0  0  0  0
 17 40  1  0  0  0  0
 17 41  1  0  0  0  0
 18 19  1  0  0  0  0
 18 42  1  0  0  0  0
 18 43  1  0  0  0  0
 19 20  1  0  0  0  0
 20 44  1  0  0  0  0
 20 45  1  0  0  0  0
 21 22  1  0  0  0  0
 21 46  1  0  0  0  0
 21 47  1  0  0  0  0
 22 26  1  0  0  0  0
 22 23  1  0  0  0  0
 22 28  1  0  0  0  0
 23 24  1  0  0  0  0
 23 48  1  0  0  0  0
 23 49  1  0  0  0  0
 24 25  1  0  0  0  0
 24 50  1  0  0  0  0
 24 51  1  0  0  0  0
 25 26  1  0  0  0  0
 26 27  1  0  0  0  0
 26 52  1  0  0  0  0
 27 53  1  0  0  0  0
 27 54  1  0  0  0  0
 27 55  1  0  0  0  0
M  END
> <s_m_source_file>
AV-unprocessed.smi

> <i_m_source_file_index>
281

> <i_lp_mmshare_version>
43012

> <i_f3d_flags>
0

> <s_epik_input>
W0NIM11bQ0BASF0xT1tDSDJdW0NIMl1bQ0BAXTEyW0NIMl1OKFtDSDJdW0NASF0oTzIpW0NIM10pYyhuW2NIXW4zKWMoYzM0KW5bY0hdbjRbQ0gyXVtDQEBdNShbT0hdKVtDSDJdW0NIMl1PW0NIMl01

> <s_epik_cmdline>
J2VwaWtfcHl0aG9uJywgJy1waCcsICc3LjAnLCAnLXRuJywgJzgnLCAnLW1hJywgJzIwMCcsICctbWV0YWxfYmluZGluZycsICctaW1hZScsICc8aW5maWxlLm1hZT4nLCAnLW9tYWUnLCAnPG91dGZpbGUubWFlPic=

> <r_lp_tautomer_probability>
1

> <r_epik_Ionization_Penalty>
0.00571331

> <r_epik_Ionization_Penalty_Charging>
0

> <r_epik_Ionization_Penalty_Neutral>
0.00571331

> <r_epik_State_Penalty>
0.00399586

> <r_epik_Charging_Adjusted_Penalty>
0.00399586

> <i_epik_Tot_Q>
0

> <i_epik_Tot_abs_Q>
0

> <r_epik_Metal_State_Penalty>
-0

> <b_epik_Metal_Only>
0

> <s_lp_Force_Field>
OPLS_2005

> <r_lp_Energy>
52.955

> <b_lp_Chiralities_Consistent>
1

> <s_lp_Variant>
AV-unprocessed.smi:281-10

> <Gold.Version>
5.8.1

> <Gold.Id.Protein>
6NUR|6NUR_protein|mol2

> <Gold.PLP.Fitness>
46.6747

> <Gold.PLP.PLP>
-47.0698

> <Gold.PLP.part.hbond>
-1.0000

> <Gold.PLP.part.metal>
0.0000

> <Gold.PLP.part.buried>
-5.5765

> <Gold.PLP.part.nonpolar>
-41.2543

> <Gold.PLP.part.repulsive>
0.3238

> <Gold.PLP.ligand.clash>
0.0000

> <Gold.PLP.ligand.torsion>
0.3273

> <Gold.PLP.Chemscore.Hbond>
0.0000

> <Gold.PLP.Chemscore.CHOScore>
0.0000

> <Gold.PLP.Chemscore.Metal>
0.0000

> <Gold.Chemscore.Hbonds>
donor molecule, donor type, donor heavy atom, donor atom, acceptor molecule, acceptor atom, score
      L1  H    16    39       P1  7949  1.00

> <Gold.PLP.Chemscore.Internal.Correction>
0.2596

> <Gold.Rescore>
     Score         DG    S(hbond)    S(metal)    S(lipo)     H(rot)  DE(clash)    DE(int)     intcor
     10.76     -15.68       0.01        0.00     132.73       2.09       2.94       1.98       ----

> <Gold.Chemscore.Fitness>
10.7606

> <Gold.Chemscore.DG>
-15.6848

> <Gold.Chemscore.ZeroCoef>
-5.4800

> <Gold.Chemscore.Hbond>
0.0097

> <Gold.Chemscore.Metal>
0.0000

> <Gold.Chemscore.Lipo>
132.7341

> <Gold.Chemscore.Internal_Hbond>
0.0000

> <Gold.Chemscore.DEClash>
2.9398

> <Gold.Chemscore.DEInternal>
1.9844

> <Gold.Chemscore.Rot>
2.0927

> <Gold.Chemscore.Internal.Correction>
   9.000000E+99

> <Gold.Chemscore.Hbonds>
donor molecule, donor type, donor heavy atom, donor atom, acceptor molecule, acceptor atom, score
      L1  H    16    39       P1  7949  0.84

> <Gold.Chemscore.Hbond.Weighted>
-0.0323

> <Gold.Chemscore.Metal.Weighted>
-0.0000

> <Gold.Chemscore.Lipo.Weighted>
-15.5299

> <Gold.Chemscore.Internal_Hbond.Weighted>
0.0000

> <Gold.Chemscore.DEClash.Weighted>
2.9398

> <Gold.Chemscore.DEInternal.Weighted>
1.9844

> <Gold.Chemscore.Rot.Weighted>
5.3573

> <Gold.Chemscore.Internal.Correction.Weighted>
   9.000000E+99

> <Gold.Protein.RotatedTorsions>
[ 6907 6896 6895 6894 ] final -131.59 input  -60.11 | X-H torsion
[ 7974 7965 7964 7962 ] final -171.12 input  175.53 | X-H torsion
[ 8008 7997 7996 7995 ] final   34.74 input   59.86 | X-H torsion
[ 10167 10162 10161 10158 ] final  125.79 input  -65.29 | X-H torsion
[ 10718 10713 10712 10709 ] final -139.75 input   66.30 | X-H torsion
[ 10763 10752 10751 10750 ] final    3.58 input  -60.55 | X-H torsion
[ 11005 11000 10999 10996 ] final -146.70 input  -57.11 | X-H torsion

> <Gold.Protein.ActiveResidues>
 VAL166  LYS551  ARG553  GLY616  TRP617  ASP618  TYR619  PRO620  LYS621  CYS622 
 ASP623  PHE694  ASN695  SER759  ASP760  ASP761  ALA762  ILE779  LEU786  VAL792 
 PHE793  MET794  SER795  GLU796  ALA797  LYS798  CYS799  TRP800  GLU811  SER814 

> <Gold.Protein.RotatedAtoms>
  150.9527  133.6531  159.2768 H   0  0  0  0  0  0  0  0  0  0  0  0  # atno 6907 bound_to 6896
  151.3881  135.0950  159.9527 H   0  0  0  0  0  0  0  0  0  0  0  0  # atno 6908 bound_to 6896
  152.5116  133.9048  159.7513 H   0  0  0  0  0  0  0  0  0  0  0  0  # atno 6909 bound_to 6896
  144.7161  140.1970  143.6342 H   0  0  0  0  0  0  0  0  0  0  0  0  # atno 7974 bound_to 7965
  155.1597  140.3282  155.4414 H   0  0  0  0  0  0  0  0  0  0  0  0  # atno 8008 bound_to 7997
  156.2547  140.1962  156.6655 H   0  0  0  0  0  0  0  0  0  0  0  0  # atno 8009 bound_to 7997
  154.6414  140.0570  156.9836 H   0  0  0  0  0  0  0  0  0  0  0  0  # atno 8010 bound_to 7997
  139.5666  144.6915  151.3893 H   0  0  0  0  0  0  0  0  0  0  0  0  # atno 10167 bound_to 10162
  156.3143  130.7499  151.1582 H   0  0  0  0  0  0  0  0  0  0  0  0  # atno 10718 bound_to 10713
  153.2816  135.6941  153.7380 H   0  0  0  0  0  0  0  0  0  0  0  0  # atno 10763 bound_to 10752
  153.6365  135.3401  155.3059 H   0  0  0  0  0  0  0  0  0  0  0  0  # atno 10764 bound_to 10752
  154.8497  135.4421  154.1871 H   0  0  0  0  0  0  0  0  0  0  0  0  # atno 10765 bound_to 10752
  140.7793  134.3098  157.5050 H   0  0  0  0  0  0  0  0  0  0  0  0  # atno 11005 bound_to 11000
  145.8715  139.2274  143.1658 LP  0  0  0  0  0  0  0  0  0  0  0  0  # atno 17320 bound_to 7965
  146.0080  140.8461  142.9985 LP  0  0  0  0  0  0  0  0  0  0  0  0  # atno 17321 bound_to 7965
  140.6950  143.7771  150.7312 LP  0  0  0  0  0  0  0  0  0  0  0  0  # atno 17342 bound_to 10162
  140.1264  143.4565  152.2281 LP  0  0  0  0  0  0  0  0  0  0  0  0  # atno 17343 bound_to 10162
  157.7398  131.0525  150.5208 LP  0  0  0  0  0  0  0  0  0  0  0  0  # atno 17370 bound_to 10713
  156.5351  130.4194  149.6182 LP  0  0  0  0  0  0  0  0  0  0  0  0  # atno 17371 bound_to 10713
  139.8745  134.9308  156.3513 LP  0  0  0  0  0  0  0  0  0  0  0  0  # atno 17394 bound_to 11000
  140.9498  133.7458  156.0257 LP  0  0  0  0  0  0  0  0  0  0  0  0  # atno 17395 bound_to 11000

$$$$
