AV-unprocessed.smi:861|AV-procd|sdf|3968|dock3
  -GOLD-   22720 1443D 1   1.00000     0.00000
 Structure written by MMmdl.
 44 45  0  0  0  0  0  0  0  0  2 V2000
  153.1783  142.9950  159.1820 C   0  0  0  0  0  0  0  0  0  0  0  0
  152.2562  143.8854  158.3322 C   0  0  0  0  0  0  0  0  0  0  0  0
  151.9940  145.2195  159.0476 C   0  0  0  0  0  0  0  0  0  0  0  0
  150.9267  143.1884  157.9785 C   0  0  0  0  0  0  0  0  0  0  0  0
  151.0050  142.2867  156.7304 C   0  0  0  0  0  0  0  0  0  0  0  0
  149.6637  141.8861  156.2270 N   0  3  1  0  0  0  0  0  0  0  0  0
  149.7102  141.1668  154.9309 C   0  0  0  0  0  0  0  0  0  0  0  0
  150.1296  139.6985  155.1247 C   0  0  0  0  0  0  0  0  0  0  0  0
  149.2416  139.0685  156.0400 O   0  0  0  0  0  0  0  0  0  0  0  0
  149.2687  139.6655  157.3324 C   0  0  2  0  0  0  0  0  0  0  0  0
  148.3468  138.8313  158.2401 C   0  0  0  0  0  0  0  0  0  0  0  0
  148.9231  137.5385  158.5947 N   0  0  0  0  0  0  0  0  0  0  0  0
  148.3247  136.6804  159.5290 C   0  0  0  0  0  0  0  0  0  0  0  0
  148.2897  135.2989  159.2548 C   0  0  0  0  0  0  0  0  0  0  0  0
  147.6941  134.4578  160.2104 C   0  0  0  0  0  0  0  0  0  0  0  0
  147.1784  135.0631  161.3708 C   0  0  0  0  0  0  0  0  0  0  0  0
  147.2377  136.3970  161.5830 N   0  0  0  0  0  0  0  0  0  0  0  0
  147.8020  137.1956  160.6702 N   0  0  0  0  0  0  0  0  0  0  0  0
  148.8247  141.1409  157.2001 C   0  0  0  0  0  0  0  0  0  0  0  0
  152.6918  142.6896  160.1088 H   0  0  0  0  0  0  0  0  0  0  0  0
  154.0944  143.5234  159.4477 H   0  0  0  0  0  0  0  0  0  0  0  0
  153.4750  142.0934  158.6467 H   0  0  0  0  0  0  0  0  0  0  0  0
  152.7779  144.1155  157.4022 H   0  0  0  0  0  0  0  0  0  0  0  0
  151.4694  145.0667  159.9914 H   0  0  0  0  0  0  0  0  0  0  0  0
  151.3866  145.8850  158.4336 H   0  0  0  0  0  0  0  0  0  0  0  0
  152.9273  145.7391  159.2673 H   0  0  0  0  0  0  0  0  0  0  0  0
  150.5917  142.6172  158.8440 H   0  0  0  0  0  0  0  0  0  0  0  0
  150.1659  143.9509  157.8053 H   0  0  0  0  0  0  0  0  0  0  0  0
  151.5164  142.8445  155.9450 H   0  0  0  0  0  0  0  0  0  0  0  0
  151.6136  141.4046  156.9256 H   0  0  0  0  0  0  0  0  0  0  0  0
  148.7157  141.1998  154.4845 H   0  0  0  0  0  0  0  0  0  0  0  0
  150.3763  141.6726  154.2308 H   0  0  0  0  0  0  0  0  0  0  0  0
  150.0839  139.1693  154.1728 H   0  0  0  0  0  0  0  0  0  0  0  0
  151.1583  139.6211  155.4797 H   0  0  0  0  0  0  0  0  0  0  0  0
  150.2857  139.6031  157.7228 H   0  0  0  0  0  0  0  0  0  0  0  0
  148.0509  139.3992  159.1225 H   0  0  0  0  0  0  0  0  0  0  0  0
  147.4224  138.6204  157.7019 H   0  0  0  0  0  0  0  0  0  0  0  0
  149.7949  137.2667  158.1636 H   0  0  0  0  0  0  0  0  0  0  0  0
  148.7055  134.8940  158.3437 H   0  0  0  0  0  0  0  0  0  0  0  0
  147.6351  133.3900  160.0604 H   0  0  0  0  0  0  0  0  0  0  0  0
  146.7108  134.4689  162.1417 H   0  0  0  0  0  0  0  0  0  0  0  0
  148.8262  141.6380  158.1677 H   0  0  0  0  0  0  0  0  0  0  0  0
  147.7925  141.1749  156.8486 H   0  0  0  0  0  0  0  0  0  0  0  0
  149.1831  142.7554  156.0427 H   0  0  0  0  0  0  0  0  0  0  0  0
  1  2  1  0  0  0  0
  1 20  1  0  0  0  0
  1 21  1  0  0  0  0
  1 22  1  0  0  0  0
  2  3  1  0  0  0  0
  2  4  1  0  0  0  0
  2 23  1  0  0  0  0
  3 24  1  0  0  0  0
  3 25  1  0  0  0  0
  3 26  1  0  0  0  0
  4  5  1  0  0  0  0
  4 27  1  0  0  0  0
  4 28  1  0  0  0  0
  5  6  1  0  0  0  0
  5 29  1  0  0  0  0
  5 30  1  0  0  0  0
  6 19  1  0  0  0  0
  6  7  1  0  0  0  0
  6 44  1  0  0  0  0
  7  8  1  0  0  0  0
  7 31  1  0  0  0  0
  7 32  1  0  0  0  0
  8  9  1  0  0  0  0
  8 33  1  0  0  0  0
  8 34  1  0  0  0  0
  9 10  1  0  0  0  0
 10 11  1  0  0  0  0
 10 19  1  0  0  0  0
 10 35  1  0  0  0  0
 11 12  1  0  0  0  0
 11 36  1  0  0  0  0
 11 37  1  0  0  0  0
 12 13  1  0  0  0  0
 12 38  1  0  0  0  0
 13 18  1  0  0  0  0
 13 14  2  0  0  0  0
 14 15  1  0  0  0  0
 14 39  1  0  0  0  0
 15 16  2  0  0  0  0
 15 40  1  0  0  0  0
 16 17  1  0  0  0  0
 16 41  1  0  0  0  0
 17 18  2  0  0  0  0
 19 42  1  0  0  0  0
 19 43  1  0  0  0  0
M  CHG  1   6   1
M  END
> <s_m_source_file>
AV-unprocessed.smi

> <i_m_source_file_index>
861

> <i_lp_mmshare_version>
43012

> <i_f3d_flags>
0

> <s_epik_input>
W0NIM11bQ0hdKFtDSDNdKVtDSDJdW0NIMl1OMVtDSDJdW0NIMl1PW0NASF0oW0NIMl0xKVtDSDJdW05IXWMyW2NIXVtjSF1bY0hdbm4y

> <s_epik_cmdline>
J2VwaWtfcHl0aG9uJywgJy1waCcsICc3LjAnLCAnLXRuJywgJzgnLCAnLW1hJywgJzIwMCcsICctbWV0YWxfYmluZGluZycsICctaW1hZScsICc8aW5maWxlLm1hZT4nLCAnLW9tYWUnLCAnPG91dGZpbGUubWFlPic=

> <r_lp_tautomer_probability>
0.999978

> <r_epik_Ionization_Penalty>
0.114704

> <r_epik_Ionization_Penalty_Charging>
0.0953451

> <r_epik_Ionization_Penalty_Neutral>
0.0193593

> <r_epik_State_Penalty>
0.104983

> <r_epik_Charging_Adjusted_Penalty>
0.200328

> <i_epik_Tot_Q>
1

> <i_epik_Tot_abs_Q>
1

> <r_epik_Metal_State_Penalty>
0.100113

> <b_epik_Metal_Only>
0

> <s_lp_Force_Field>
OPLS_2005

> <r_lp_Energy>
26.2812

> <b_lp_Chiralities_Consistent>
1

> <s_lp_Variant>
AV-unprocessed.smi:861-3

> <Gold.Version>
5.8.1

> <Gold.Id.Protein>
6NUR|6NUR_protein|mol2

> <Gold.PLP.Fitness>
43.6203

> <Gold.PLP.PLP>
-34.0538

> <Gold.PLP.part.hbond>
-3.0000

> <Gold.PLP.part.metal>
0.0000

> <Gold.PLP.part.buried>
-3.0013

> <Gold.PLP.part.nonpolar>
-28.8557

> <Gold.PLP.part.repulsive>
0.2319

> <Gold.PLP.ligand.clash>
0.0000

> <Gold.PLP.ligand.torsion>
0.8088

> <Gold.PLP.Chemscore.Hbond>
3.6800

> <Gold.PLP.Chemscore.CHOScore>
0.0000

> <Gold.PLP.Chemscore.Metal>
0.0000

> <Gold.Chemscore.Hbonds>
donor molecule, donor type, donor heavy atom, donor atom, acceptor molecule, acceptor atom, score
      L1  H     6    44       P1  8028  2.00
      P1  H  6931  6943       L1    18  0.75
      P1  H  6934  6947       L1    18  0.86

> <Gold.PLP.Chemscore.Internal.Correction>
0.1442

> <Gold.Rescore>
     Score         DG    S(hbond)    S(metal)    S(lipo)     H(rot)  DE(clash)    DE(int)     intcor
     17.72     -18.51       1.94        0.00      93.58       1.71       0.01       0.77       ----

> <Gold.Chemscore.Fitness>
17.7213

> <Gold.Chemscore.DG>
-18.5093

> <Gold.Chemscore.ZeroCoef>
-5.4800

> <Gold.Chemscore.Hbond>
1.9354

> <Gold.Chemscore.Metal>
0.0000

> <Gold.Chemscore.Lipo>
93.5838

> <Gold.Chemscore.Internal_Hbond>
0.0000

> <Gold.Chemscore.DEClash>
0.0149

> <Gold.Chemscore.DEInternal>
0.7731

> <Gold.Chemscore.Rot>
1.7127

> <Gold.Chemscore.Internal.Correction>
   9.000000E+99

> <Gold.Chemscore.Hbonds>
donor molecule, donor type, donor heavy atom, donor atom, acceptor molecule, acceptor atom, score
      L1  H     6    44       P1  8028  0.94
      P1  H  6931  6943       L1    18  0.15
      P1  H  6934  6947       L1    18  0.63

> <Gold.Chemscore.Hbond.Weighted>
-6.4644

> <Gold.Chemscore.Metal.Weighted>
-0.0000

> <Gold.Chemscore.Lipo.Weighted>
-10.9493

> <Gold.Chemscore.Internal_Hbond.Weighted>
0.0000

> <Gold.Chemscore.DEClash.Weighted>
0.0149

> <Gold.Chemscore.DEInternal.Weighted>
0.7731

> <Gold.Chemscore.Rot.Weighted>
4.3844

> <Gold.Chemscore.Internal.Correction.Weighted>
   9.000000E+99

> <Gold.Protein.RotatedTorsions>
[ 6907 6896 6895 6894 ] final -161.26 input  -60.11 | X-H torsion
[ 7974 7965 7964 7962 ] final  -94.94 input  175.53 | X-H torsion
[ 8008 7997 7996 7995 ] final  120.26 input   59.86 | X-H torsion
[ 10167 10162 10161 10158 ] final -155.00 input  -65.29 | X-H torsion
[ 10718 10713 10712 10709 ] final -113.80 input   66.30 | X-H torsion
[ 10763 10752 10751 10750 ] final   49.28 input  -60.55 | X-H torsion
[ 11005 11000 10999 10996 ] final  -59.56 input  -57.11 | X-H torsion

> <Gold.Protein.ActiveResidues>
 VAL166  LYS551  ARG553  GLY616  TRP617  ASP618  TYR619  PRO620  LYS621  CYS622 
 ASP623  PHE694  ASN695  SER759  ASP760  ASP761  ALA762  ILE779  LEU786  VAL792 
 PHE793  MET794  SER795  GLU796  ALA797  LYS798  CYS799  TRP800  GLU811  SER814 

> <Gold.Protein.RotatedAtoms>
  151.3619  133.3886  159.2690 H   0  0  0  0  0  0  0  0  0  0  0  0  # atno 6907 bound_to 6896
  150.9719  134.9091  159.7803 H   0  0  0  0  0  0  0  0  0  0  0  0  # atno 6908 bound_to 6896
  152.5187  134.3581  159.9327 H   0  0  0  0  0  0  0  0  0  0  0  0  # atno 6909 bound_to 6896
  145.3666  140.9499  143.2470 H   0  0  0  0  0  0  0  0  0  0  0  0  # atno 7974 bound_to 7965
  156.2634  140.2834  156.1122 H   0  0  0  0  0  0  0  0  0  0  0  0  # atno 8008 bound_to 7997
  155.1246  140.0393  157.2776 H   0  0  0  0  0  0  0  0  0  0  0  0  # atno 8009 bound_to 7997
  154.6645  140.2574  155.7079 H   0  0  0  0  0  0  0  0  0  0  0  0  # atno 8010 bound_to 7997
  139.6967  143.9331  152.2410 H   0  0  0  0  0  0  0  0  0  0  0  0  # atno 10167 bound_to 10162
  156.0789  130.5992  150.8690 H   0  0  0  0  0  0  0  0  0  0  0  0  # atno 10718 bound_to 10713
  152.9787  135.5917  154.4064 H   0  0  0  0  0  0  0  0  0  0  0  0  # atno 10763 bound_to 10752
  154.3704  135.2767  155.2272 H   0  0  0  0  0  0  0  0  0  0  0  0  # atno 10764 bound_to 10752
  154.4230  135.6054  153.6076 H   0  0  0  0  0  0  0  0  0  0  0  0  # atno 10765 bound_to 10752
  141.1253  133.6617  156.5091 H   0  0  0  0  0  0  0  0  0  0  0  0  # atno 11005 bound_to 11000
  144.8607  139.5182  143.6813 LP  0  0  0  0  0  0  0  0  0  0  0  0  # atno 17320 bound_to 7965
  146.2904  139.7122  142.9165 LP  0  0  0  0  0  0  0  0  0  0  0  0  # atno 17321 bound_to 7965
  139.9162  144.6827  150.8510 LP  0  0  0  0  0  0  0  0  0  0  0  0  # atno 17342 bound_to 10162
  140.7698  143.3408  151.2213 LP  0  0  0  0  0  0  0  0  0  0  0  0  # atno 17343 bound_to 10162
  157.5897  131.0945  150.9138 LP  0  0  0  0  0  0  0  0  0  0  0  0  # atno 17370 bound_to 10713
  156.9317  130.5352  149.5279 LP  0  0  0  0  0  0  0  0  0  0  0  0  # atno 17371 bound_to 10713
  140.4384  134.7038  157.4979 LP  0  0  0  0  0  0  0  0  0  0  0  0  # atno 17394 bound_to 11000
  140.0246  134.6496  155.9191 LP  0  0  0  0  0  0  0  0  0  0  0  0  # atno 17395 bound_to 11000

$$$$
