AV-unprocessed.smi:2624|AV-procd|sdf|10233|dock3
  -GOLD-   2272014243D 1   1.00000     0.00000
 Structure written by MMmdl.
 39 40  0  0  0  0  0  0  0  0  1 V2000
  148.9541  132.4377  153.9958 C   0  0  0  0  0  0  0  0  0  0  0  0
  149.6805  133.6507  153.9031 O   0  0  0  0  0  0  0  0  0  0  0  0
  149.5447  134.4546  155.0623 C   0  0  0  0  0  0  0  0  0  0  0  0
  150.8924  135.1288  155.3586 C   0  0  0  0  0  0  0  0  0  0  0  0
  150.7453  136.2229  156.3278 N   0  0  0  0  0  0  0  0  0  0  0  0
  151.2712  137.4759  155.9582 C   0  0  0  0  0  0  0  0  0  0  0  0
  151.1893  138.5529  156.7615 C   0  0  0  0  0  0  0  0  0  0  0  0
  151.7534  139.8557  156.3341 C   0  0  0  0  0  0  0  0  0  0  0  0
  152.3933  139.9584  155.2866 O   0  0  0  0  0  0  0  0  0  0  0  0
  151.5478  141.0435  157.2136 C   0  0  0  0  0  0  0  0  0  0  0  0
  152.3668  141.1669  158.3589 C   0  0  0  0  0  0  0  0  0  0  0  0
  152.2162  142.2562  159.2402 C   0  0  0  0  0  0  0  0  0  0  0  0
  153.0951  142.3619  160.4692 C   0  0  0  0  0  0  0  0  0  0  0  0
  151.2422  143.2385  158.9766 C   0  0  0  0  0  0  0  0  0  0  0  0
  150.4319  143.1357  157.8311 C   0  0  0  0  0  0  0  0  0  0  0  0
  150.5805  142.0497  156.9452 C   0  0  0  0  0  0  0  0  0  0  0  0
  149.7941  142.0192  155.8268 O   0  0  0  0  0  0  0  0  0  0  0  0
  150.5490  138.3845  158.0513 C   0  0  0  0  0  0  0  0  0  0  0  0
  150.0518  137.1857  158.4144 C   0  0  0  0  0  0  0  0  0  0  0  0
  149.4210  136.9978  159.6788 C   0  0  0  0  0  0  0  0  0  0  0  0
  148.9106  136.8199  160.7023 N   0  0  0  0  0  0  0  0  0  0  0  0
  150.1366  136.0118  157.5343 C   0  0  0  0  0  0  0  0  0  0  0  0
  149.6950  134.9071  157.8553 O   0  0  0  0  0  0  0  0  0  0  0  0
  149.0942  131.8560  153.0849 H   0  0  0  0  0  0  0  0  0  0  0  0
  147.8861  132.6257  154.1136 H   0  0  0  0  0  0  0  0  0  0  0  0
  149.2987  131.8344  154.8365 H   0  0  0  0  0  0  0  0  0  0  0  0
  148.7699  135.2065  154.9035 H   0  0  0  0  0  0  0  0  0  0  0  0
  149.2387  133.8382  155.9094 H   0  0  0  0  0  0  0  0  0  0  0  0
  151.5960  134.3846  155.7346 H   0  0  0  0  0  0  0  0  0  0  0  0
  151.3378  135.4935  154.4313 H   0  0  0  0  0  0  0  0  0  0  0  0
  151.7373  137.4987  154.9827 H   0  0  0  0  0  0  0  0  0  0  0  0
  153.1125  140.4144  158.5742 H   0  0  0  0  0  0  0  0  0  0  0  0
  153.1029  143.3789  160.8624 H   0  0  0  0  0  0  0  0  0  0  0  0
  154.1224  142.0841  160.2311 H   0  0  0  0  0  0  0  0  0  0  0  0
  152.7304  141.6948  161.2505 H   0  0  0  0  0  0  0  0  0  0  0  0
  151.1173  144.0764  159.6468 H   0  0  0  0  0  0  0  0  0  0  0  0
  149.6970  143.9018  157.6299 H   0  0  0  0  0  0  0  0  0  0  0  0
  149.5327  142.8789  155.5340 H   0  0  0  0  0  0  0  0  0  0  0  0
  150.4705  139.2163  158.7365 H   0  0  0  0  0  0  0  0  0  0  0  0
  1  2  1  0  0  0  0
  1 24  1  0  0  0  0
  1 25  1  0  0  0  0
  1 26  1  0  0  0  0
  2  3  1  0  0  0  0
  3  4  1  0  0  0  0
  3 27  1  0  0  0  0
  3 28  1  0  0  0  0
  4  5  1  0  0  0  0
  4 29  1  0  0  0  0
  4 30  1  0  0  0  0
  5 22  1  0  0  0  0
  5  6  1  0  0  0  0
  6  7  2  0  0  0  0
  6 31  1  0  0  0  0
  7  8  1  0  0  0  0
  7 18  1  0  0  0  0
  8  9  2  0  0  0  0
  8 10  1  0  0  0  0
 10 16  1  0  0  0  0
 10 11  2  0  0  0  0
 11 12  1  0  0  0  0
 11 32  1  0  0  0  0
 12 13  1  0  0  0  0
 12 14  2  0  0  0  0
 13 33  1  0  0  0  0
 13 34  1  0  0  0  0
 13 35  1  0  0  0  0
 14 15  1  0  0  0  0
 14 36  1  0  0  0  0
 15 16  2  0  0  0  0
 15 37  1  0  0  0  0
 16 17  1  0  0  0  0
 17 38  1  0  0  0  0
 18 19  2  0  0  0  0
 18 39  1  0  0  0  0
 19 20  1  0  0  0  0
 19 22  1  0  0  0  0
 20 21  3  0  0  0  0
 22 23  2  0  0  0  0
M  END
> <s_m_source_file>
AV-unprocessed.smi

> <i_m_source_file_index>
2624

> <i_lp_mmshare_version>
43012

> <i_f3d_flags>
0

> <s_epik_input>
W0NIM11PW0NIMl1bQ0gyXW4xW2NIXWMoW2NIXWMoQyNOKWMxPU8pQyg9TyljMltjSF1jKFtDSDNdKVtjSF1bY0hdYzJbT0hd

> <s_epik_cmdline>
J2VwaWtfcHl0aG9uJywgJy1waCcsICc3LjAnLCAnLXRuJywgJzgnLCAnLW1hJywgJzIwMCcsICctbWV0YWxfYmluZGluZycsICctaW1hZScsICc8aW5maWxlLm1hZT4nLCAnLW9tYWUnLCAnPG91dGZpbGUubWFlPic=

> <r_epik_Ionization_Penalty>
0.124493

> <r_epik_Ionization_Penalty_Charging>
5.62591e-11

> <r_epik_Ionization_Penalty_Neutral>
0.124493

> <r_epik_State_Penalty>
0.113971

> <r_epik_Charging_Adjusted_Penalty>
0.113971

> <i_epik_Tot_Q>
0

> <i_epik_Tot_abs_Q>
0

> <r_epik_Metal_State_Penalty>
0.113971

> <b_epik_Metal_Only>
0

> <s_lp_Force_Field>
OPLS_2005

> <r_lp_Energy>
23.5595

> <b_lp_Chiralities_Consistent>
1

> <s_lp_Variant>
AV-unprocessed.smi:2624-1

> <Gold.Version>
5.8.1

> <Gold.Id.Protein>
6NUR|6NUR_protein|mol2

> <Gold.PLP.Fitness>
49.0816

> <Gold.PLP.PLP>
-38.5334

> <Gold.PLP.part.hbond>
-4.9854

> <Gold.PLP.part.metal>
0.0000

> <Gold.PLP.part.buried>
-4.8124

> <Gold.PLP.part.nonpolar>
-29.1984

> <Gold.PLP.part.repulsive>
0.2226

> <Gold.PLP.ligand.clash>
0.0000

> <Gold.PLP.ligand.torsion>
1.8111

> <Gold.PLP.Chemscore.Hbond>
4.1486

> <Gold.PLP.Chemscore.CHOScore>
0.0000

> <Gold.PLP.Chemscore.Metal>
0.0000

> <Gold.Chemscore.Hbonds>
donor molecule, donor type, donor heavy atom, donor atom, acceptor molecule, acceptor atom, score
      L1  H    17    38       P1  8028  1.00
      P1  H  6896  6908       L1    23  1.00
      P1  H  6931  6943       L1    21  0.86
      P1  H  7989  7998       L1     9  0.50
      P1  H  7997  8009       L1     9  0.73

> <Gold.PLP.Chemscore.Internal.Correction>
1.7246

> <Gold.Rescore>
     Score         DG    S(hbond)    S(metal)    S(lipo)     H(rot)  DE(clash)    DE(int)     intcor
     18.62     -22.11       3.27        0.00      91.19       1.94       0.33       3.16       ----

> <Gold.Chemscore.Fitness>
18.6193

> <Gold.Chemscore.DG>
-22.1084

> <Gold.Chemscore.ZeroCoef>
-5.4800

> <Gold.Chemscore.Hbond>
3.2716

> <Gold.Chemscore.Metal>
0.0000

> <Gold.Chemscore.Lipo>
91.1923

> <Gold.Chemscore.Internal_Hbond>
0.0000

> <Gold.Chemscore.DEClash>
0.3325

> <Gold.Chemscore.DEInternal>
3.1567

> <Gold.Chemscore.Rot>
1.9407

> <Gold.Chemscore.Internal.Correction>
   9.000000E+99

> <Gold.Chemscore.Hbonds>
donor molecule, donor type, donor heavy atom, donor atom, acceptor molecule, acceptor atom, score
      L1  H    17    38       P1  8028  0.98
      P1  H  6896  6908       L1    23  0.67
      P1  H  6931  6943       L1    21  0.75
      P1  H  7989  7998       L1     9  0.50
      P1  H  7997  8009       L1     9  0.22

> <Gold.Chemscore.Hbond.Weighted>
-10.9272

> <Gold.Chemscore.Metal.Weighted>
-0.0000

> <Gold.Chemscore.Lipo.Weighted>
-10.6695

> <Gold.Chemscore.Internal_Hbond.Weighted>
0.0000

> <Gold.Chemscore.DEClash.Weighted>
0.3325

> <Gold.Chemscore.DEInternal.Weighted>
3.1567

> <Gold.Chemscore.Rot.Weighted>
4.9682

> <Gold.Chemscore.Internal.Correction.Weighted>
   9.000000E+99

> <Gold.Protein.RotatedTorsions>
[ 6907 6896 6895 6894 ] final  150.09 input  -60.11 | X-H torsion
[ 7974 7965 7964 7962 ] final  174.66 input  175.53 | X-H torsion
[ 8008 7997 7996 7995 ] final -146.03 input   59.86 | X-H torsion
[ 10167 10162 10161 10158 ] final   71.24 input  -65.29 | X-H torsion
[ 10718 10713 10712 10709 ] final   53.30 input   66.30 | X-H torsion
[ 10763 10752 10751 10750 ] final -174.47 input  -60.55 | X-H torsion
[ 11005 11000 10999 10996 ] final  -44.25 input  -57.11 | X-H torsion

> <Gold.Protein.ActiveResidues>
 VAL166  LYS551  ARG553  GLY616  TRP617  ASP618  TYR619  PRO620  LYS621  CYS622 
 ASP623  PHE694  ASN695  SER759  ASP760  ASP761  ALA762  ILE779  LEU786  VAL792 
 PHE793  MET794  SER795  GLU796  ALA797  LYS798  CYS799  TRP800  GLU811  SER814 

> <Gold.Protein.RotatedAtoms>
  152.1192  133.4343  159.4666 H   0  0  0  0  0  0  0  0  0  0  0  0  # atno 6907 bound_to 6896
  150.6871  134.2556  159.4537 H   0  0  0  0  0  0  0  0  0  0  0  0  # atno 6908 bound_to 6896
  152.0431  134.9699  160.0624 H   0  0  0  0  0  0  0  0  0  0  0  0  # atno 6909 bound_to 6896
  144.7217  139.9830  143.6439 H   0  0  0  0  0  0  0  0  0  0  0  0  # atno 7974 bound_to 7965
  155.5528  140.0618  157.2846 H   0  0  0  0  0  0  0  0  0  0  0  0  # atno 8008 bound_to 7997
  154.4415  140.1899  156.0748 H   0  0  0  0  0  0  0  0  0  0  0  0  # atno 8009 bound_to 7997
  156.0504  140.3285  155.7348 H   0  0  0  0  0  0  0  0  0  0  0  0  # atno 8010 bound_to 7997
  140.0483  144.5333  150.7382 H   0  0  0  0  0  0  0  0  0  0  0  0  # atno 10167 bound_to 10162
  157.5154  130.8529  149.8489 H   0  0  0  0  0  0  0  0  0  0  0  0  # atno 10718 bound_to 10713
  154.5959  135.2849  155.0587 H   0  0  0  0  0  0  0  0  0  0  0  0  # atno 10763 bound_to 10752
  154.1870  135.6447  153.5053 H   0  0  0  0  0  0  0  0  0  0  0  0  # atno 10764 bound_to 10752
  153.0138  135.5437  154.6660 H   0  0  0  0  0  0  0  0  0  0  0  0  # atno 10765 bound_to 10752
  141.0438  133.6769  156.2847 H   0  0  0  0  0  0  0  0  0  0  0  0  # atno 11005 bound_to 11000
  146.0472  139.3477  143.0661 LP  0  0  0  0  0  0  0  0  0  0  0  0  # atno 17320 bound_to 7965
  145.8260  140.9655  143.0874 LP  0  0  0  0  0  0  0  0  0  0  0  0  # atno 17321 bound_to 7965
  140.7229  143.2606  151.4220 LP  0  0  0  0  0  0  0  0  0  0  0  0  # atno 17342 bound_to 10162
  139.5969  144.1377  152.2154 LP  0  0  0  0  0  0  0  0  0  0  0  0  # atno 17343 bound_to 10162
  156.0317  130.3763  150.1670 LP  0  0  0  0  0  0  0  0  0  0  0  0  # atno 17370 bound_to 10713
  156.9859  130.9878  151.3426 LP  0  0  0  0  0  0  0  0  0  0  0  0  # atno 17371 bound_to 10713
  140.6185  134.5386  157.5544 LP  0  0  0  0  0  0  0  0  0  0  0  0  # atno 17394 bound_to 11000
  139.9296  134.7989  156.0969 LP  0  0  0  0  0  0  0  0  0  0  0  0  # atno 17395 bound_to 11000

$$$$
