AV-unprocessed.smi:1313|AV-procd|sdf|5452|dock8
  -GOLD-   22720 5 23D 1   1.00000     0.00000
 Structure written by MMmdl.
 36 37  0  0  0  0  0  0  0  0  2 V2000
  149.4428  135.5488  155.9834 C   0  0  0  0  0  0  0  0  0  0  0  0
  149.5467  137.0587  156.0083 C   0  0  0  0  0  0  0  0  0  0  0  0
  148.5711  137.7461  156.4663 N   0  0  0  0  0  0  0  0  0  0  0  0
  148.6639  139.1480  156.4916 C   0  0  0  0  0  0  0  0  0  0  0  0
  147.4574  139.8801  157.0539 C   0  0  0  0  0  0  0  0  0  0  0  0
  149.7787  139.7902  156.0375 C   0  0  0  0  0  0  0  0  0  0  0  0
  149.9288  141.3111  156.0422 C   0  0  0  0  0  0  0  0  0  0  0  0
  151.0372  141.8537  156.9457 C   0  0  0  0  0  0  0  0  0  0  0  0
  151.7601  141.0769  157.5692 O   0  0  0  0  0  0  0  0  0  0  0  0
  151.1576  143.1886  157.0126 N   0  0  0  0  0  0  0  0  0  0  0  0
  152.1244  143.9046  157.8398 C   0  0  0  0  0  0  0  0  0  0  0  0
  152.2471  143.2501  159.2289 C   0  0  0  0  0  0  0  0  0  0  0  0
  152.1912  144.3960  160.2402 C   0  0  0  0  0  0  0  0  0  0  0  0
  151.3091  145.4438  159.5693 C   0  0  0  0  0  0  0  0  0  0  0  0
  151.6911  145.3635  158.0903 C   0  0  0  0  0  0  0  0  0  0  0  0
  150.8825  138.9605  155.5209 C   0  0  0  0  0  0  0  0  0  0  0  0
  151.9156  139.4861  155.1082 O   0  0  0  0  0  0  0  0  0  0  0  0
  150.7123  137.6075  155.5235 N   0  5  0  0  0  0  0  0  0  0  0  0
  148.5264  135.2088  156.4677 H   0  0  0  0  0  0  0  0  0  0  0  0
  150.2899  135.1018  156.5050 H   0  0  0  0  0  0  0  0  0  0  0  0
  149.4407  135.1885  154.9544 H   0  0  0  0  0  0  0  0  0  0  0  0
  147.0601  140.5883  156.3268 H   0  0  0  0  0  0  0  0  0  0  0  0
  147.7285  140.4233  157.9593 H   0  0  0  0  0  0  0  0  0  0  0  0
  146.6585  139.1832  157.3097 H   0  0  0  0  0  0  0  0  0  0  0  0
  150.0994  141.6874  155.0333 H   0  0  0  0  0  0  0  0  0  0  0  0
  148.9756  141.7517  156.3362 H   0  0  0  0  0  0  0  0  0  0  0  0
  150.5204  143.7489  156.4654 H   0  0  0  0  0  0  0  0  0  0  0  0
  153.1000  143.8954  157.3498 H   0  0  0  0  0  0  0  0  0  0  0  0
  151.4074  142.5775  159.4124 H   0  0  0  0  0  0  0  0  0  0  0  0
  153.1588  142.6604  159.3287 H   0  0  0  0  0  0  0  0  0  0  0  0
  151.8082  144.0817  161.2115 H   0  0  0  0  0  0  0  0  0  0  0  0
  153.1923  144.8023  160.3916 H   0  0  0  0  0  0  0  0  0  0  0  0
  150.2596  145.1734  159.6941 H   0  0  0  0  0  0  0  0  0  0  0  0
  151.4493  146.4417  159.9861 H   0  0  0  0  0  0  0  0  0  0  0  0
  152.5378  146.0246  157.9010 H   0  0  0  0  0  0  0  0  0  0  0  0
  150.8785  145.6943  157.4419 H   0  0  0  0  0  0  0  0  0  0  0  0
  1  2  1  0  0  0  0
  1 19  1  0  0  0  0
  1 20  1  0  0  0  0
  1 21  1  0  0  0  0
  2 18  1  0  0  0  0
  2  3  2  0  0  0  0
  3  4  1  0  0  0  0
  4  5  1  0  0  0  0
  4  6  2  0  0  0  0
  5 22  1  0  0  0  0
  5 23  1  0  0  0  0
  5 24  1  0  0  0  0
  6  7  1  0  0  0  0
  6 16  1  0  0  0  0
  7  8  1  0  0  0  0
  7 25  1  0  0  0  0
  7 26  1  0  0  0  0
  8  9  2  0  0  0  0
  8 10  1  0  0  0  0
 10 11  1  0  0  0  0
 10 27  1  0  0  0  0
 11 15  1  0  0  0  0
 11 12  1  0  0  0  0
 11 28  1  0  0  0  0
 12 13  1  0  0  0  0
 12 29  1  0  0  0  0
 12 30  1  0  0  0  0
 13 14  1  0  0  0  0
 13 31  1  0  0  0  0
 13 32  1  0  0  0  0
 14 15  1  0  0  0  0
 14 33  1  0  0  0  0
 14 34  1  0  0  0  0
 15 35  1  0  0  0  0
 15 36  1  0  0  0  0
 16 17  2  0  0  0  0
 16 18  1  0  0  0  0
M  CHG  1  18  -1
M  END
> <s_m_source_file>
AV-unprocessed.smi

> <i_m_source_file_index>
1313

> <i_lp_mmshare_version>
43012

> <i_f3d_flags>
0

> <s_epik_input>
W0NIM11jMW5jKFtDSDNdKWMoYyg9TylbbkhdMSlbQ0gyXUMoPU8pW05IXVtDSF0yW0NIMl1bQ0gyXVtDSDJdW0NIMl0y

> <s_epik_cmdline>
J2VwaWtfcHl0aG9uJywgJy1waCcsICc3LjAnLCAnLXRuJywgJzgnLCAnLW1hJywgJzIwMCcsICctbWV0YWxfYmluZGluZycsICctaW1hZScsICc8aW5maWxlLm1hZT4nLCAnLW9tYWUnLCAnPG91dGZpbGUubWFlPic=

> <r_lp_tautomer_probability>
0.839158

> <r_epik_Ionization_Penalty>
6.62586

> <r_epik_Ionization_Penalty_Charging>
7.38068e-08

> <r_epik_Ionization_Penalty_Neutral>
6.62586

> <r_epik_State_Penalty>
4.443

> <r_epik_Charging_Adjusted_Penalty>
4.443

> <i_epik_Tot_Q>
-1

> <i_epik_Tot_abs_Q>
1

> <r_epik_Metal_State_Penalty>
0.804085

> <b_epik_Metal_Only>
1

> <s_lp_Force_Field>
OPLS_2005

> <r_lp_Energy>
23.3314

> <b_lp_Chiralities_Consistent>
1

> <s_lp_Variant>
AV-unprocessed.smi:1313-3

> <Gold.Version>
5.8.1

> <Gold.Id.Protein>
6NUR|6NUR_protein|mol2

> <Gold.PLP.Fitness>
38.5464

> <Gold.PLP.PLP>
-33.6220

> <Gold.PLP.part.hbond>
-1.7285

> <Gold.PLP.part.metal>
0.0000

> <Gold.PLP.part.buried>
-4.6295

> <Gold.PLP.part.nonpolar>
-26.7670

> <Gold.PLP.part.repulsive>
0.2358

> <Gold.PLP.ligand.clash>
0.0000

> <Gold.PLP.ligand.torsion>
0.2982

> <Gold.PLP.Chemscore.Hbond>
1.8393

> <Gold.PLP.Chemscore.CHOScore>
0.0000

> <Gold.PLP.Chemscore.Metal>
0.0000

> <Gold.Chemscore.Hbonds>
donor molecule, donor type, donor heavy atom, donor atom, acceptor molecule, acceptor atom, score
      L1  H    10    27       P1  8028  0.94
      P1  H  7989  7998       L1    17  0.73

> <Gold.PLP.Chemscore.Internal.Correction>
0.0031

> <Gold.Rescore>
     Score         DG    S(hbond)    S(metal)    S(lipo)     H(rot)  DE(clash)    DE(int)     intcor
     15.00     -16.91       1.86        0.00      76.96       1.48       0.01       1.90       ----

> <Gold.Chemscore.Fitness>
15.0040

> <Gold.Chemscore.DG>
-16.9125

> <Gold.Chemscore.ZeroCoef>
-5.4800

> <Gold.Chemscore.Hbond>
1.8595

> <Gold.Chemscore.Metal>
0.0000

> <Gold.Chemscore.Lipo>
76.9608

> <Gold.Chemscore.Internal_Hbond>
0.0000

> <Gold.Chemscore.DEClash>
0.0089

> <Gold.Chemscore.DEInternal>
1.8996

> <Gold.Chemscore.Rot>
1.4776

> <Gold.Chemscore.Internal.Correction>
   9.000000E+99

> <Gold.Chemscore.Hbonds>
donor molecule, donor type, donor heavy atom, donor atom, acceptor molecule, acceptor atom, score
      L1  H    10    27       P1  8028  0.90
      P1  H  7989  7998       L1    17  0.65

> <Gold.Chemscore.Hbond.Weighted>
-6.2108

> <Gold.Chemscore.Metal.Weighted>
-0.0000

> <Gold.Chemscore.Lipo.Weighted>
-9.0044

> <Gold.Chemscore.Internal_Hbond.Weighted>
0.0000

> <Gold.Chemscore.DEClash.Weighted>
0.0089

> <Gold.Chemscore.DEInternal.Weighted>
1.8996

> <Gold.Chemscore.Rot.Weighted>
3.7827

> <Gold.Chemscore.Internal.Correction.Weighted>
   9.000000E+99

> <Gold.Protein.RotatedTorsions>
[ 6907 6896 6895 6894 ] final  176.48 input  -60.11 | X-H torsion
[ 7974 7965 7964 7962 ] final -153.53 input  175.53 | X-H torsion
[ 8008 7997 7996 7995 ] final   13.96 input   59.86 | X-H torsion
[ 10167 10162 10161 10158 ] final  -15.09 input  -65.29 | X-H torsion
[ 10718 10713 10712 10709 ] final  -41.90 input   66.30 | X-H torsion
[ 10763 10752 10751 10750 ] final  -49.51 input  -60.55 | X-H torsion
[ 11005 11000 10999 10996 ] final -106.35 input  -57.11 | X-H torsion

> <Gold.Protein.ActiveResidues>
 VAL166  LYS551  ARG553  GLY616  TRP617  ASP618  TYR619  PRO620  LYS621  CYS622 
 ASP623  PHE694  ASN695  SER759  ASP760  ASP761  ALA762  ILE779  LEU786  VAL792 
 PHE793  MET794  SER795  GLU796  ALA797  LYS798  CYS799  TRP800  GLU811  SER814 

> <Gold.Protein.RotatedAtoms>
  151.7195  133.3314  159.3311 H   0  0  0  0  0  0  0  0  0  0  0  0  # atno 6907 bound_to 6896
  150.7659  134.6461  159.6272 H   0  0  0  0  0  0  0  0  0  0  0  0  # atno 6908 bound_to 6896
  152.3661  134.6804  160.0243 H   0  0  0  0  0  0  0  0  0  0  0  0  # atno 6909 bound_to 6896
  144.7736  140.4513  143.5889 H   0  0  0  0  0  0  0  0  0  0  0  0  # atno 7974 bound_to 7965
  154.8417  140.2916  155.5655 H   0  0  0  0  0  0  0  0  0  0  0  0  # atno 8008 bound_to 7997
  156.3012  140.2512  156.3292 H   0  0  0  0  0  0  0  0  0  0  0  0  # atno 8009 bound_to 7997
  154.9118  140.0388  157.1939 H   0  0  0  0  0  0  0  0  0  0  0  0  # atno 8010 bound_to 7997
  140.7212  143.5253  150.9584 H   0  0  0  0  0  0  0  0  0  0  0  0  # atno 10167 bound_to 10162
  156.2654  130.4201  149.8496 H   0  0  0  0  0  0  0  0  0  0  0  0  # atno 10718 bound_to 10713
  154.0953  135.6571  153.4859 H   0  0  0  0  0  0  0  0  0  0  0  0  # atno 10763 bound_to 10752
  153.0307  135.5212  154.7340 H   0  0  0  0  0  0  0  0  0  0  0  0  # atno 10764 bound_to 10752
  154.6476  135.2997  154.9996 H   0  0  0  0  0  0  0  0  0  0  0  0  # atno 10765 bound_to 10752
  141.1009  133.8886  157.1845 H   0  0  0  0  0  0  0  0  0  0  0  0  # atno 11005 bound_to 11000
  145.6252  139.1529  143.3000 LP  0  0  0  0  0  0  0  0  0  0  0  0  # atno 17320 bound_to 7965
  146.1900  140.6359  142.9150 LP  0  0  0  0  0  0  0  0  0  0  0  0  # atno 17321 bound_to 7965
  139.8972  143.6880  152.3137 LP  0  0  0  0  0  0  0  0  0  0  0  0  # atno 17342 bound_to 10162
  139.7217  144.7601  151.0945 LP  0  0  0  0  0  0  0  0  0  0  0  0  # atno 17343 bound_to 10162
  156.5996  130.8541  151.3428 LP  0  0  0  0  0  0  0  0  0  0  0  0  # atno 17370 bound_to 10713
  157.7265  130.9631  150.1660 LP  0  0  0  0  0  0  0  0  0  0  0  0  # atno 17371 bound_to 10713
  139.9860  135.0082  156.9864 LP  0  0  0  0  0  0  0  0  0  0  0  0  # atno 17394 bound_to 11000
  140.5025  134.1083  155.7253 LP  0  0  0  0  0  0  0  0  0  0  0  0  # atno 17395 bound_to 11000

$$$$
