AV-unprocessed.smi:1971|AV-procd|sdf|7965|dock7
  -GOLD-   2272010133D 1   1.00000     0.00000
 Structure written by MMmdl.
 44 45  0  0  0  0  0  0  0  0  2 V2000
  150.6139  141.2790  155.8855 C   0  0  0  0  0  0  0  0  0  0  0  0
  149.7892  139.9907  156.0194 C   0  0  0  0  0  0  0  0  0  0  0  0
  149.4302  139.4314  154.7138 N   0  0  0  0  0  0  0  0  0  0  0  0
  150.5335  138.7881  153.9909 C   0  0  0  0  0  0  0  0  0  0  0  0
  150.9756  137.4666  154.6539 C   0  0  0  0  0  0  0  0  0  0  0  0
  149.8259  136.5352  154.7579 N   0  3  0  0  0  0  0  0  0  0  0  0
  150.1935  135.1633  155.2159 C   0  0  1  0  0  0  0  0  0  0  0  0
  150.7740  135.1249  156.6431 C   0  0  0  0  0  0  0  0  0  0  0  0
  149.0232  134.1635  155.0555 C   0  0  0  0  0  0  0  0  0  0  0  0
  148.3372  134.2676  153.7691 N   0  0  0  0  0  0  0  0  0  0  0  0
  147.2804  133.5315  153.3959 C   0  0  0  0  0  0  0  0  0  0  0  0
  146.7864  132.6521  154.1014 O   0  0  0  0  0  0  0  0  0  0  0  0
  146.8521  133.8785  152.1697 N   0  0  0  0  0  0  0  0  0  0  0  0
  145.7728  133.3279  151.4297 C   0  0  0  0  0  0  0  0  0  0  0  0
  145.1000  133.9827  150.4762 N   0  0  0  0  0  0  0  0  0  0  0  0
  144.0893  133.1978  149.9150 C   0  0  0  0  0  0  0  0  0  0  0  0
  144.0051  131.9403  150.4590 C   0  0  0  0  0  0  0  0  0  0  0  0
  145.1984  131.6901  151.7052 S   0  0  0  0  0  0  0  0  0  0  0  0
  148.7014  137.1741  155.4869 C   0  0  0  0  0  0  0  0  0  0  0  0
  148.3050  138.4959  154.7969 C   0  0  0  0  0  0  0  0  0  0  0  0
  150.7584  141.7410  156.8622 H   0  0  0  0  0  0  0  0  0  0  0  0
  150.1098  142.0073  155.2494 H   0  0  0  0  0  0  0  0  0  0  0  0
  151.6036  141.0918  155.4698 H   0  0  0  0  0  0  0  0  0  0  0  0
  150.3192  139.2671  156.6374 H   0  0  0  0  0  0  0  0  0  0  0  0
  148.8700  140.2362  156.5532 H   0  0  0  0  0  0  0  0  0  0  0  0
  150.2021  138.5851  152.9716 H   0  0  0  0  0  0  0  0  0  0  0  0
  151.3797  139.4676  153.8977 H   0  0  0  0  0  0  0  0  0  0  0  0
  151.7568  137.0110  154.0442 H   0  0  0  0  0  0  0  0  0  0  0  0
  151.4143  137.6495  155.6345 H   0  0  0  0  0  0  0  0  0  0  0  0
  150.9844  134.8189  154.5485 H   0  0  0  0  0  0  0  0  0  0  0  0
  151.1307  134.1230  156.8837 H   0  0  0  0  0  0  0  0  0  0  0  0
  150.0289  135.3882  157.3937 H   0  0  0  0  0  0  0  0  0  0  0  0
  151.6204  135.8019  156.7570 H   0  0  0  0  0  0  0  0  0  0  0  0
  149.3807  133.1417  155.1939 H   0  0  0  0  0  0  0  0  0  0  0  0
  148.2796  134.3279  155.8355 H   0  0  0  0  0  0  0  0  0  0  0  0
  148.6719  134.9749  153.1307 H   0  0  0  0  0  0  0  0  0  0  0  0
  147.3518  134.6265  151.7117 H   0  0  0  0  0  0  0  0  0  0  0  0
  143.4751  133.6148  149.1306 H   0  0  0  0  0  0  0  0  0  0  0  0
  143.3163  131.1491  150.2026 H   0  0  0  0  0  0  0  0  0  0  0  0
  147.8394  136.5075  155.4937 H   0  0  0  0  0  0  0  0  0  0  0  0
  148.9675  137.3526  156.5288 H   0  0  0  0  0  0  0  0  0  0  0  0
  147.4733  138.9654  155.3237 H   0  0  0  0  0  0  0  0  0  0  0  0
  147.9483  138.2883  153.7871 H   0  0  0  0  0  0  0  0  0  0  0  0
  149.5033  136.4144  153.8085 H   0  0  0  0  0  0  0  0  0  0  0  0
  1  2  1  0  0  0  0
  1 21  1  0  0  0  0
  1 22  1  0  0  0  0
  1 23  1  0  0  0  0
  2  3  1  0  0  0  0
  2 24  1  0  0  0  0
  2 25  1  0  0  0  0
  3 20  1  0  0  0  0
  3  4  1  0  0  0  0
  4  5  1  0  0  0  0
  4 26  1  0  0  0  0
  4 27  1  0  0  0  0
  5  6  1  0  0  0  0
  5 28  1  0  0  0  0
  5 29  1  0  0  0  0
  6  7  1  0  0  0  0
  6 19  1  0  0  0  0
  6 44  1  0  0  0  0
  7  8  1  0  0  0  0
  7  9  1  0  0  0  0
  7 30  1  0  0  0  0
  8 31  1  0  0  0  0
  8 32  1  0  0  0  0
  8 33  1  0  0  0  0
  9 10  1  0  0  0  0
  9 34  1  0  0  0  0
  9 35  1  0  0  0  0
 10 11  1  0  0  0  0
 10 36  1  0  0  0  0
 11 12  2  0  0  0  0
 11 13  1  0  0  0  0
 13 14  1  0  0  0  0
 13 37  1  0  0  0  0
 14 18  1  0  0  0  0
 14 15  2  0  0  0  0
 15 16  1  0  0  0  0
 16 17  2  0  0  0  0
 16 38  1  0  0  0  0
 17 18  1  0  0  0  0
 17 39  1  0  0  0  0
 19 20  1  0  0  0  0
 19 40  1  0  0  0  0
 19 41  1  0  0  0  0
 20 42  1  0  0  0  0
 20 43  1  0  0  0  0
M  CHG  1   6   1
M  END
> <s_m_source_file>
AV-unprocessed.smi

> <i_m_source_file_index>
1971

> <i_lp_mmshare_version>
43012

> <i_f3d_flags>
0

> <s_epik_input>
W0NIM11bQ0gyXU4xW0NIMl1bQ0gyXU4oW0NIMl1bQ0gyXTEpW0NASF0oW0NIM10pW0NIMl1bTkhdQyg9TylbTkhdYzJuW2NIXVtjSF1zMg==

> <s_epik_cmdline>
J2VwaWtfcHl0aG9uJywgJy1waCcsICc3LjAnLCAnLXRuJywgJzgnLCAnLW1hJywgJzIwMCcsICctbWV0YWxfYmluZGluZycsICctaW1hZScsICc8aW5maWxlLm1hZT4nLCAnLW9tYWUnLCAnPG91dGZpbGUubWFlPic=

> <r_epik_Ionization_Penalty>
0.150098

> <r_epik_Ionization_Penalty_Charging>
0.148467

> <r_epik_Ionization_Penalty_Neutral>
0.00163072

> <r_epik_State_Penalty>
0.974087

> <r_epik_Charging_Adjusted_Penalty>
1.12255

> <i_epik_Tot_Q>
1

> <i_epik_Tot_abs_Q>
1

> <r_epik_Metal_State_Penalty>
1.00741

> <b_epik_Metal_Only>
0

> <s_lp_Force_Field>
OPLS_2005

> <r_lp_Energy>
24.0056

> <b_lp_Chiralities_Consistent>
1

> <s_lp_Variant>
AV-unprocessed.smi:1971-4

> <Gold.Version>
5.8.1

> <Gold.Id.Protein>
6NUR|6NUR_protein|mol2

> <Gold.PLP.Fitness>
45.6108

> <Gold.PLP.PLP>
-31.0321

> <Gold.PLP.part.hbond>
-2.8514

> <Gold.PLP.part.metal>
0.0000

> <Gold.PLP.part.buried>
-5.1395

> <Gold.PLP.part.nonpolar>
-23.9369

> <Gold.PLP.part.repulsive>
0.4220

> <Gold.PLP.ligand.clash>
0.0000

> <Gold.PLP.ligand.torsion>
0.3787

> <Gold.PLP.Chemscore.Hbond>
3.5730

> <Gold.PLP.Chemscore.CHOScore>
1.4970

> <Gold.PLP.Chemscore.Metal>
0.0000

> <Gold.Chemscore.Hbonds>
donor molecule, donor type, donor heavy atom, donor atom, acceptor molecule, acceptor atom, score
      L1  H     6    44       P1  7948  2.00
      L1  H    10    36       P1  7948  1.00
      L1  H    13    37       P1  7948  0.50
      L1  C    16    38       P1 10186  0.66
      L1  C    17    39       P1 10952  0.58

> <Gold.PLP.Chemscore.Internal.Correction>
0.1261

> <Gold.Rescore>
     Score         DG    S(hbond)    S(metal)    S(lipo)     H(rot)  DE(clash)    DE(int)     intcor
     15.70     -17.11       2.29        0.00      73.12       1.79       0.08       1.33       ----

> <Gold.Chemscore.Fitness>
15.7021

> <Gold.Chemscore.DG>
-17.1073

> <Gold.Chemscore.ZeroCoef>
-5.4800

> <Gold.Chemscore.Hbond>
2.2945

> <Gold.Chemscore.Metal>
0.0000

> <Gold.Chemscore.Lipo>
73.1242

> <Gold.Chemscore.Internal_Hbond>
0.0000

> <Gold.Chemscore.DEClash>
0.0801

> <Gold.Chemscore.DEInternal>
1.3251

> <Gold.Chemscore.Rot>
1.7937

> <Gold.Chemscore.Internal.Correction>
   9.000000E+99

> <Gold.Chemscore.Hbonds>
donor molecule, donor type, donor heavy atom, donor atom, acceptor molecule, acceptor atom, score
      L1  H     6    44       P1  7948  0.71
      L1  H    10    36       P1  7948  0.50
      L1  H    13    37       P1  7948  0.26

> <Gold.Chemscore.Hbond.Weighted>
-7.6637

> <Gold.Chemscore.Metal.Weighted>
-0.0000

> <Gold.Chemscore.Lipo.Weighted>
-8.5555

> <Gold.Chemscore.Internal_Hbond.Weighted>
0.0000

> <Gold.Chemscore.DEClash.Weighted>
0.0801

> <Gold.Chemscore.DEInternal.Weighted>
1.3251

> <Gold.Chemscore.Rot.Weighted>
4.5919

> <Gold.Chemscore.Internal.Correction.Weighted>
   9.000000E+99

> <Gold.Protein.RotatedTorsions>
[ 6907 6896 6895 6894 ] final  153.17 input  -60.11 | X-H torsion
[ 7974 7965 7964 7962 ] final  171.20 input  175.53 | X-H torsion
[ 8008 7997 7996 7995 ] final  -74.31 input   59.86 | X-H torsion
[ 10167 10162 10161 10158 ] final  -40.57 input  -65.29 | X-H torsion
[ 10718 10713 10712 10709 ] final  -49.77 input   66.30 | X-H torsion
[ 10763 10752 10751 10750 ] final   41.84 input  -60.55 | X-H torsion
[ 11005 11000 10999 10996 ] final   22.00 input  -57.11 | X-H torsion

> <Gold.Protein.ActiveResidues>
 VAL166  LYS551  ARG553  GLY616  TRP617  ASP618  TYR619  PRO620  LYS621  CYS622 
 ASP623  PHE694  ASN695  SER759  ASP760  ASP761  ALA762  ILE779  LEU786  VAL792 
 PHE793  MET794  SER795  GLU796  ALA797  LYS798  CYS799  TRP800  GLU811  SER814 

> <Gold.Protein.RotatedAtoms>
  152.0765  133.4131  159.4481 H   0  0  0  0  0  0  0  0  0  0  0  0  # atno 6907 bound_to 6896
  150.6862  134.3032  159.4724 H   0  0  0  0  0  0  0  0  0  0  0  0  # atno 6908 bound_to 6896
  152.0869  134.9433  160.0623 H   0  0  0  0  0  0  0  0  0  0  0  0  # atno 6909 bound_to 6896
  144.7301  139.9314  143.6425 H   0  0  0  0  0  0  0  0  0  0  0  0  # atno 7974 bound_to 7965
  154.5320  140.0763  156.8362 H   0  0  0  0  0  0  0  0  0  0  0  0  # atno 8008 bound_to 7997
  155.3355  140.3404  155.4221 H   0  0  0  0  0  0  0  0  0  0  0  0  # atno 8009 bound_to 7997
  156.1791  140.1646  156.8295 H   0  0  0  0  0  0  0  0  0  0  0  0  # atno 8010 bound_to 7997
  140.7030  143.3145  151.2943 H   0  0  0  0  0  0  0  0  0  0  0  0  # atno 10167 bound_to 10162
  156.1862  130.4151  149.9436 H   0  0  0  0  0  0  0  0  0  0  0  0  # atno 10718 bound_to 10713
  152.9898  135.6150  154.2852 H   0  0  0  0  0  0  0  0  0  0  0  0  # atno 10763 bound_to 10752
  154.2580  135.2783  155.2791 H   0  0  0  0  0  0  0  0  0  0  0  0  # atno 10764 bound_to 10752
  154.5230  135.5809  153.6754 H   0  0  0  0  0  0  0  0  0  0  0  0  # atno 10765 bound_to 10752
  140.3854  134.1876  155.7663 H   0  0  0  0  0  0  0  0  0  0  0  0  # atno 11005 bound_to 11000
  146.0854  139.3842  143.0438 LP  0  0  0  0  0  0  0  0  0  0  0  0  # atno 17320 bound_to 7965
  145.7784  140.9867  143.1112 LP  0  0  0  0  0  0  0  0  0  0  0  0  # atno 17321 bound_to 7965
  139.6579  144.0242  152.2672 LP  0  0  0  0  0  0  0  0  0  0  0  0  # atno 17342 bound_to 10162
  139.9800  144.6435  150.7910 LP  0  0  0  0  0  0  0  0  0  0  0  0  # atno 17343 bound_to 10162
  156.7191  130.9000  151.3616 LP  0  0  0  0  0  0  0  0  0  0  0  0  # atno 17370 bound_to 10713
  157.6900  130.9224  150.0489 LP  0  0  0  0  0  0  0  0  0  0  0  0  # atno 17371 bound_to 10713
  141.1909  133.8206  157.0899 LP  0  0  0  0  0  0  0  0  0  0  0  0  # atno 17394 bound_to 11000
  140.0447  134.9836  157.1026 LP  0  0  0  0  0  0  0  0  0  0  0  0  # atno 17395 bound_to 11000

$$$$
