AV-unprocessed.smi:2740|AV-procd|sdf|10554|dock6
  -GOLD-   2272015 03D 1   1.00000     0.00000
 Structure written by MMmdl.
 31 32  0  0  0  0  0  0  0  0  1 V2000
  153.3314  142.5396  161.7952 C   0  0  0  0  0  0  0  0  0  0  0  0
  152.5057  142.9672  160.6296 C   0  0  0  0  0  0  0  0  0  0  0  0
  152.0680  144.2354  160.3330 C   0  0  0  0  0  0  0  0  0  0  0  0
  151.3086  144.3130  159.1632 N   0  0  0  0  0  0  0  0  0  0  0  0
  151.1703  143.1196  158.5755 C   0  0  0  0  0  0  0  0  0  0  0  0
  150.4459  142.8964  157.3752 N   0  0  0  0  0  0  0  0  0  0  0  0
  149.9878  141.7309  156.8854 C   0  0  0  0  0  0  0  0  0  0  0  0
  150.1147  140.6320  157.4262 O   0  0  0  0  0  0  0  0  0  0  0  0
  149.3615  141.9092  155.7136 N   0  0  0  0  0  0  0  0  0  0  0  0
  148.7469  140.8478  154.9246 C   0  0  0  0  0  0  0  0  0  0  0  0
  149.7925  139.8439  154.4121 C   0  0  2  0  0  0  0  0  0  0  0  0
  149.6317  138.4410  154.9911 C   0  0  0  0  0  0  0  0  0  0  0  0
  151.0221  137.8773  154.8050 C   0  0  0  0  0  0  0  0  0  0  0  0
  151.9000  139.0925  155.0957 C   0  0  0  0  0  0  0  0  0  0  0  0
  151.1050  140.2396  154.8015 O   0  0  0  0  0  0  0  0  0  0  0  0
  151.9755  141.8139  159.4313 S   0  0  0  0  0  0  0  0  0  0  0  0
  153.2532  143.2558  162.6136 H   0  0  0  0  0  0  0  0  0  0  0  0
  154.3819  142.4603  161.5151 H   0  0  0  0  0  0  0  0  0  0  0  0
  153.0060  141.5683  162.1682 H   0  0  0  0  0  0  0  0  0  0  0  0
  152.2495  145.1382  160.8972 H   0  0  0  0  0  0  0  0  0  0  0  0
  150.2611  143.7193  156.8208 H   0  0  0  0  0  0  0  0  0  0  0  0
  149.2970  142.8459  155.3429 H   0  0  0  0  0  0  0  0  0  0  0  0
  148.0104  140.3378  155.5463 H   0  0  0  0  0  0  0  0  0  0  0  0
  148.1980  141.2812  154.0870 H   0  0  0  0  0  0  0  0  0  0  0  0
  149.7653  139.7810  153.3229 H   0  0  0  0  0  0  0  0  0  0  0  0
  149.3854  138.4865  156.0530 H   0  0  0  0  0  0  0  0  0  0  0  0
  148.8619  137.8581  154.4847 H   0  0  0  0  0  0  0  0  0  0  0  0
  151.2352  137.0308  155.4582 H   0  0  0  0  0  0  0  0  0  0  0  0
  151.1576  137.5550  153.7717 H   0  0  0  0  0  0  0  0  0  0  0  0
  152.1746  139.1237  156.1505 H   0  0  0  0  0  0  0  0  0  0  0  0
  152.8176  139.0856  154.5071 H   0  0  0  0  0  0  0  0  0  0  0  0
  1  2  1  0  0  0  0
  1 17  1  0  0  0  0
  1 18  1  0  0  0  0
  1 19  1  0  0  0  0
  2 16  1  0  0  0  0
  2  3  2  0  0  0  0
  3  4  1  0  0  0  0
  3 20  1  0  0  0  0
  4  5  2  0  0  0  0
  5  6  1  0  0  0  0
  5 16  1  0  0  0  0
  6  7  1  0  0  0  0
  6 21  1  0  0  0  0
  7  8  2  0  0  0  0
  7  9  1  0  0  0  0
  9 10  1  0  0  0  0
  9 22  1  0  0  0  0
 10 11  1  0  0  0  0
 10 23  1  0  0  0  0
 10 24  1  0  0  0  0
 11 15  1  0  0  0  0
 11 12  1  0  0  0  0
 11 25  1  0  0  0  0
 12 13  1  0  0  0  0
 12 26  1  0  0  0  0
 12 27  1  0  0  0  0
 13 14  1  0  0  0  0
 13 28  1  0  0  0  0
 13 29  1  0  0  0  0
 14 15  1  0  0  0  0
 14 30  1  0  0  0  0
 14 31  1  0  0  0  0
M  END
> <s_m_source_file>
AV-unprocessed.smi

> <i_m_source_file_index>
2740

> <i_lp_mmshare_version>
43012

> <i_f3d_flags>
0

> <s_epik_input>
W0NIM11jMVtjSF1uYyhzMSlbTkhdQyg9TylbTkhdW0NIMl1bQ0BASF0yW0NIMl1bQ0gyXVtDSDJdTzI=

> <s_epik_cmdline>
J2VwaWtfcHl0aG9uJywgJy1waCcsICc3LjAnLCAnLXRuJywgJzgnLCAnLW1hJywgJzIwMCcsICctbWV0YWxfYmluZGluZycsICctaW1hZScsICc8aW5maWxlLm1hZT4nLCAnLW9tYWUnLCAnPG91dGZpbGUubWFlPic=

> <r_lp_tautomer_probability>
0.999

> <r_epik_Ionization_Penalty>
0.000387528

> <r_epik_Ionization_Penalty_Charging>
0

> <r_epik_Ionization_Penalty_Neutral>
0.000387528

> <r_epik_State_Penalty>
0.000177984

> <r_epik_Charging_Adjusted_Penalty>
0.000177984

> <i_epik_Tot_Q>
0

> <i_epik_Tot_abs_Q>
0

> <r_epik_Metal_State_Penalty>
0.00626158

> <b_epik_Metal_Only>
0

> <s_lp_Force_Field>
OPLS_2005

> <r_lp_Energy>
15.1526

> <b_lp_Chiralities_Consistent>
1

> <s_lp_Variant>
AV-unprocessed.smi:2740-1

> <Gold.Version>
5.8.1

> <Gold.Id.Protein>
6NUR|6NUR_protein|mol2

> <Gold.PLP.Fitness>
41.2643

> <Gold.PLP.PLP>
-33.9986

> <Gold.PLP.part.hbond>
-2.9153

> <Gold.PLP.part.metal>
0.0000

> <Gold.PLP.part.buried>
-4.8599

> <Gold.PLP.part.nonpolar>
-26.8604

> <Gold.PLP.part.repulsive>
0.3183

> <Gold.PLP.ligand.clash>
0.0000

> <Gold.PLP.ligand.torsion>
0.8197

> <Gold.PLP.Chemscore.Hbond>
2.9675

> <Gold.PLP.Chemscore.CHOScore>
0.0000

> <Gold.PLP.Chemscore.Metal>
0.0000

> <Gold.Chemscore.Hbonds>
donor molecule, donor type, donor heavy atom, donor atom, acceptor molecule, acceptor atom, score
      L1  H     6    21       P1  8028  0.91
      L1  H     9    22       P1  8028  0.98
      P1  H  7989  7998       L1    15  1.00

> <Gold.PLP.Chemscore.Internal.Correction>
0.0026

> <Gold.Rescore>
     Score         DG    S(hbond)    S(metal)    S(lipo)     H(rot)  DE(clash)    DE(int)     intcor
     14.05     -18.70       2.27        0.00      75.98       1.27       0.00       4.64       ----

> <Gold.Chemscore.Fitness>
14.0532

> <Gold.Chemscore.DG>
-18.6978

> <Gold.Chemscore.ZeroCoef>
-5.4800

> <Gold.Chemscore.Hbond>
2.2677

> <Gold.Chemscore.Metal>
0.0000

> <Gold.Chemscore.Lipo>
75.9750

> <Gold.Chemscore.Internal_Hbond>
0.0000

> <Gold.Chemscore.DEClash>
0.0000

> <Gold.Chemscore.DEInternal>
4.6446

> <Gold.Chemscore.Rot>
1.2678

> <Gold.Chemscore.Internal.Correction>
   9.000000E+99

> <Gold.Chemscore.Hbonds>
donor molecule, donor type, donor heavy atom, donor atom, acceptor molecule, acceptor atom, score
      L1  H     6    21       P1  8028  0.83
      L1  H     9    22       P1  8028  0.93
      P1  H  7989  7998       L1    15  0.21

> <Gold.Chemscore.Hbond.Weighted>
-7.5742

> <Gold.Chemscore.Metal.Weighted>
-0.0000

> <Gold.Chemscore.Lipo.Weighted>
-8.8891

> <Gold.Chemscore.Internal_Hbond.Weighted>
0.0000

> <Gold.Chemscore.DEClash.Weighted>
0.0000

> <Gold.Chemscore.DEInternal.Weighted>
4.6446

> <Gold.Chemscore.Rot.Weighted>
3.2455

> <Gold.Chemscore.Internal.Correction.Weighted>
   9.000000E+99

> <Gold.Protein.RotatedTorsions>
[ 6907 6896 6895 6894 ] final  -93.26 input  -60.11 | X-H torsion
[ 7974 7965 7964 7962 ] final   56.03 input  175.53 | X-H torsion
[ 8008 7997 7996 7995 ] final  -32.93 input   59.86 | X-H torsion
[ 10167 10162 10161 10158 ] final   38.61 input  -65.29 | X-H torsion
[ 10718 10713 10712 10709 ] final   -0.08 input   66.30 | X-H torsion
[ 10763 10752 10751 10750 ] final -167.85 input  -60.55 | X-H torsion
[ 11005 11000 10999 10996 ] final   42.30 input  -57.11 | X-H torsion

> <Gold.Protein.ActiveResidues>
 VAL166  LYS551  ARG553  GLY616  TRP617  ASP618  TYR619  PRO620  LYS621  CYS622 
 ASP623  PHE694  ASN695  SER759  ASP760  ASP761  ALA762  ILE779  LEU786  VAL792 
 PHE793  MET794  SER795  GLU796  ALA797  LYS798  CYS799  TRP800  GLU811  SER814 

> <Gold.Protein.RotatedAtoms>
  150.6919  134.1995  159.4316 H   0  0  0  0  0  0  0  0  0  0  0  0  # atno 6907 bound_to 6896
  151.9962  134.9950  160.0572 H   0  0  0  0  0  0  0  0  0  0  0  0  # atno 6908 bound_to 6896
  152.1621  133.4554  159.4903 H   0  0  0  0  0  0  0  0  0  0  0  0  # atno 6909 bound_to 6896
  145.9441  139.3914  143.0346 H   0  0  0  0  0  0  0  0  0  0  0  0  # atno 7974 bound_to 7965
  154.4164  140.1724  156.1806 H   0  0  0  0  0  0  0  0  0  0  0  0  # atno 8008 bound_to 7997
  155.9685  140.3387  155.6531 H   0  0  0  0  0  0  0  0  0  0  0  0  # atno 8009 bound_to 7997
  155.6656  140.0706  157.2529 H   0  0  0  0  0  0  0  0  0  0  0  0  # atno 8010 bound_to 7997
  140.3920  144.1840  150.6131 H   0  0  0  0  0  0  0  0  0  0  0  0  # atno 10167 bound_to 10162
  156.8257  130.5471  149.5692 H   0  0  0  0  0  0  0  0  0  0  0  0  # atno 10718 bound_to 10713
  154.6690  135.2936  154.9767 H   0  0  0  0  0  0  0  0  0  0  0  0  # atno 10763 bound_to 10752
  154.0801  135.6606  153.4840 H   0  0  0  0  0  0  0  0  0  0  0  0  # atno 10764 bound_to 10752
  153.0475  135.5195  154.7677 H   0  0  0  0  0  0  0  0  0  0  0  0  # atno 10765 bound_to 10752
  140.1752  134.4172  155.8233 H   0  0  0  0  0  0  0  0  0  0  0  0  # atno 11005 bound_to 11000
  145.8260  140.9655  143.0874 LP  0  0  0  0  0  0  0  0  0  0  0  0  # atno 17320 bound_to 7965
  144.6784  140.0102  143.7484 LP  0  0  0  0  0  0  0  0  0  0  0  0  # atno 17321 bound_to 7965
  140.4830  143.2373  151.8928 LP  0  0  0  0  0  0  0  0  0  0  0  0  # atno 17342 bound_to 10162
  139.4788  144.5249  151.8749 LP  0  0  0  0  0  0  0  0  0  0  0  0  # atno 17343 bound_to 10162
  156.0963  130.5935  150.9819 LP  0  0  0  0  0  0  0  0  0  0  0  0  # atno 17370 bound_to 10713
  157.6433  131.0907  150.8205 LP  0  0  0  0  0  0  0  0  0  0  0  0  # atno 17371 bound_to 10713
  141.2220  133.6974  156.7834 LP  0  0  0  0  0  0  0  0  0  0  0  0  # atno 17394 bound_to 11000
  140.2331  134.8671  157.3497 LP  0  0  0  0  0  0  0  0  0  0  0  0  # atno 17395 bound_to 11000

$$$$
