AV-unprocessed.smi:1381|AV-procd|sdf|5610|dock5
  -GOLD-   22720 5223D 1   1.00000     0.00000
 Structure written by MMmdl.
 41 42  0  0  0  0  0  0  0  0  2 V2000
  153.3979  142.5994  162.2696 C   0  0  0  0  0  0  0  0  0  0  0  0
  153.6190  141.6501  161.1426 C   0  0  0  0  0  0  0  0  0  0  0  0
  152.8200  141.2128  160.1246 C   0  0  0  0  0  0  0  0  0  0  0  0
  153.6643  140.3204  159.4092 C   0  0  0  0  0  0  0  0  0  0  0  0
  153.3229  139.6186  158.3176 N   0  5  0  0  0  0  0  0  0  0  0  0
  152.0239  139.5164  157.9524 C   0  0  0  0  0  0  0  0  0  0  0  0
  151.2143  138.6790  158.3579 O   0  0  0  0  0  0  0  0  0  0  0  0
  151.6414  140.4380  157.0568 N   0  0  0  0  0  0  0  0  0  0  0  0
  150.3114  140.5605  156.4708 C   0  0  0  0  0  0  0  0  0  0  0  0
  150.3591  140.3998  154.9395 C   0  0  0  0  0  0  0  0  0  0  0  0
  149.0582  140.4395  154.2732 N   0  0  0  0  0  0  0  0  0  0  0  0
  148.3925  141.7140  154.5085 C   0  0  0  0  0  0  0  0  0  0  0  0
  147.0403  141.8002  153.7788 C   0  0  2  0  0  0  0  0  0  0  0  0
  146.3021  143.1072  154.0860 C   0  0  0  0  0  0  0  0  0  0  0  0
  146.2119  140.7140  154.1891 O   0  0  0  0  0  0  0  0  0  0  0  0
  146.7883  139.4163  154.0310 C   0  0  1  0  0  0  0  0  0  0  0  0
  146.8065  138.9765  152.5572 C   0  0  0  0  0  0  0  0  0  0  0  0
  148.1755  139.3572  154.7025 C   0  0  0  0  0  0  0  0  0  0  0  0
  154.8642  140.2125  159.9551 N   0  0  0  0  0  0  0  0  0  0  0  0
  154.8452  141.0673  161.0640 O   0  0  0  0  0  0  0  0  0  0  0  0
  153.3426  142.0651  163.2179 H   0  0  0  0  0  0  0  0  0  0  0  0
  152.4668  143.1506  162.1366 H   0  0  0  0  0  0  0  0  0  0  0  0
  154.2118  143.3218  162.3333 H   0  0  0  0  0  0  0  0  0  0  0  0
  151.7963  141.4884  159.9211 H   0  0  0  0  0  0  0  0  0  0  0  0
  152.3362  141.1050  156.7541 H   0  0  0  0  0  0  0  0  0  0  0  0
  149.6367  139.8260  156.9136 H   0  0  0  0  0  0  0  0  0  0  0  0
  149.9291  141.5423  156.7469 H   0  0  0  0  0  0  0  0  0  0  0  0
  151.0157  141.1598  154.5129 H   0  0  0  0  0  0  0  0  0  0  0  0
  150.8316  139.4416  154.7198 H   0  0  0  0  0  0  0  0  0  0  0  0
  148.2409  141.8590  155.5795 H   0  0  0  0  0  0  0  0  0  0  0  0
  149.0325  142.5307  154.1721 H   0  0  0  0  0  0  0  0  0  0  0  0
  147.2038  141.7451  152.7022 H   0  0  0  0  0  0  0  0  0  0  0  0
  146.8913  143.9715  153.7790 H   0  0  0  0  0  0  0  0  0  0  0  0
  146.0962  143.2035  155.1523 H   0  0  0  0  0  0  0  0  0  0  0  0
  145.3495  143.1499  153.5576 H   0  0  0  0  0  0  0  0  0  0  0  0
  146.1320  138.7243  154.5593 H   0  0  0  0  0  0  0  0  0  0  0  0
  147.1447  137.9441  152.4664 H   0  0  0  0  0  0  0  0  0  0  0  0
  147.4743  139.5913  151.9543 H   0  0  0  0  0  0  0  0  0  0  0  0
  145.8097  139.0376  152.1204 H   0  0  0  0  0  0  0  0  0  0  0  0
  148.6271  138.3884  154.4922 H   0  0  0  0  0  0  0  0  0  0  0  0
  148.0443  139.4068  155.7847 H   0  0  0  0  0  0  0  0  0  0  0  0
  1  2  1  0  0  0  0
  1 21  1  0  0  0  0
  1 22  1  0  0  0  0
  1 23  1  0  0  0  0
  2 20  1  0  0  0  0
  2  3  2  0  0  0  0
  3  4  1  0  0  0  0
  3 24  1  0  0  0  0
  4  5  1  0  0  0  0
  4 19  2  0  0  0  0
  5  6  1  0  0  0  0
  6  7  2  0  0  0  0
  6  8  1  0  0  0  0
  8  9  1  0  0  0  0
  8 25  1  0  0  0  0
  9 10  1  0  0  0  0
  9 26  1  0  0  0  0
  9 27  1  0  0  0  0
 10 11  1  0  0  0  0
 10 28  1  0  0  0  0
 10 29  1  0  0  0  0
 11 18  1  0  0  0  0
 11 12  1  0  0  0  0
 12 13  1  0  0  0  0
 12 30  1  0  0  0  0
 12 31  1  0  0  0  0
 13 14  1  0  0  0  0
 13 15  1  0  0  0  0
 13 32  1  0  0  0  0
 14 33  1  0  0  0  0
 14 34  1  0  0  0  0
 14 35  1  0  0  0  0
 15 16  1  0  0  0  0
 16 17  1  0  0  0  0
 16 18  1  0  0  0  0
 16 36  1  0  0  0  0
 17 37  1  0  0  0  0
 17 38  1  0  0  0  0
 17 39  1  0  0  0  0
 18 40  1  0  0  0  0
 18 41  1  0  0  0  0
 19 20  1  0  0  0  0
M  CHG  1   5  -1
M  END
> <s_m_source_file>
AV-unprocessed.smi

> <i_m_source_file_index>
1381

> <i_lp_mmshare_version>
43012

> <i_f3d_flags>
0

> <s_epik_input>
W0NIM11jMVtjSF1jKG5vMSlbTkhdQyg9TylbTkhdW0NIMl1bQ0gyXU4yW0NIMl1bQ0BASF0oW0NIM10pT1tDQEBIXShbQ0gzXSlbQ0gyXTI=

> <s_epik_cmdline>
J2VwaWtfcHl0aG9uJywgJy1waCcsICc3LjAnLCAnLXRuJywgJzgnLCAnLW1hJywgJzIwMCcsICctbWV0YWxfYmluZGluZycsICctaW1hZScsICc8aW5maWxlLm1hZT4nLCAnLW9tYWUnLCAnPG91dGZpbGUubWFlPic=

> <r_epik_Ionization_Penalty>
6.88366

> <r_epik_Ionization_Penalty_Charging>
6.57198

> <r_epik_Ionization_Penalty_Neutral>
0.311678

> <r_epik_State_Penalty>
6.77619

> <r_epik_Charging_Adjusted_Penalty>
13.3482

> <i_epik_Tot_Q>
-1

> <i_epik_Tot_abs_Q>
1

> <r_epik_Metal_State_Penalty>
2.70524

> <b_epik_Metal_Only>
1

> <s_lp_Force_Field>
OPLS_2005

> <r_lp_Energy>
15.7401

> <b_lp_Chiralities_Consistent>
1

> <s_lp_Variant>
AV-unprocessed.smi:1381-9

> <Gold.Version>
5.8.1

> <Gold.Id.Protein>
6NUR|6NUR_protein|mol2

> <Gold.PLP.Fitness>
40.0480

> <Gold.PLP.PLP>
-35.5862

> <Gold.PLP.part.hbond>
-2.0000

> <Gold.PLP.part.metal>
0.0000

> <Gold.PLP.part.buried>
-3.9488

> <Gold.PLP.part.nonpolar>
-29.4036

> <Gold.PLP.part.repulsive>
0.8301

> <Gold.PLP.ligand.clash>
0.0000

> <Gold.PLP.ligand.torsion>
0.7923

> <Gold.PLP.Chemscore.Hbond>
2.0000

> <Gold.PLP.Chemscore.CHOScore>
0.0000

> <Gold.PLP.Chemscore.Metal>
0.0000

> <Gold.Chemscore.Hbonds>
donor molecule, donor type, donor heavy atom, donor atom, acceptor molecule, acceptor atom, score
      P1  H  7997  8008       L1     5  2.00

> <Gold.PLP.Chemscore.Internal.Correction>
0.0465

> <Gold.Rescore>
     Score         DG    S(hbond)    S(metal)    S(lipo)     H(rot)  DE(clash)    DE(int)     intcor
     11.58     -13.60       0.84        0.00      79.22       1.54       1.25       0.77       ----

> <Gold.Chemscore.Fitness>
11.5798

> <Gold.Chemscore.DG>
-13.6002

> <Gold.Chemscore.ZeroCoef>
-5.4800

> <Gold.Chemscore.Hbond>
0.8373

> <Gold.Chemscore.Metal>
0.0000

> <Gold.Chemscore.Lipo>
79.2151

> <Gold.Chemscore.Internal_Hbond>
0.0000

> <Gold.Chemscore.DEClash>
1.2465

> <Gold.Chemscore.DEInternal>
0.7739

> <Gold.Chemscore.Rot>
1.5409

> <Gold.Chemscore.Internal.Correction>
   9.000000E+99

> <Gold.Chemscore.Hbonds>
donor molecule, donor type, donor heavy atom, donor atom, acceptor molecule, acceptor atom, score
      P1  H  7997  8008       L1     5  0.62

> <Gold.Chemscore.Hbond.Weighted>
-2.7967

> <Gold.Chemscore.Metal.Weighted>
-0.0000

> <Gold.Chemscore.Lipo.Weighted>
-9.2682

> <Gold.Chemscore.Internal_Hbond.Weighted>
0.0000

> <Gold.Chemscore.DEClash.Weighted>
1.2465

> <Gold.Chemscore.DEInternal.Weighted>
0.7739

> <Gold.Chemscore.Rot.Weighted>
3.9446

> <Gold.Chemscore.Internal.Correction.Weighted>
   9.000000E+99

> <Gold.Protein.RotatedTorsions>
[ 6907 6896 6895 6894 ] final  104.06 input  -60.11 | X-H torsion
[ 7974 7965 7964 7962 ] final -149.09 input  175.53 | X-H torsion
[ 8008 7997 7996 7995 ] final  -73.23 input   59.86 | X-H torsion
[ 10167 10162 10161 10158 ] final  -91.38 input  -65.29 | X-H torsion
[ 10718 10713 10712 10709 ] final  143.74 input   66.30 | X-H torsion
[ 10763 10752 10751 10750 ] final   56.06 input  -60.55 | X-H torsion
[ 11005 11000 10999 10996 ] final   -0.62 input  -57.11 | X-H torsion

> <Gold.Protein.ActiveResidues>
 VAL166  LYS551  ARG553  GLY616  TRP617  ASP618  TYR619  PRO620  LYS621  CYS622 
 ASP623  PHE694  ASN695  SER759  ASP760  ASP761  ALA762  ILE779  LEU786  VAL792 
 PHE793  MET794  SER795  GLU796  ALA797  LYS798  CYS799  TRP800  GLU811  SER814 

> <Gold.Protein.RotatedAtoms>
  152.5276  133.9733  159.7771 H   0  0  0  0  0  0  0  0  0  0  0  0  # atno 6907 bound_to 6896
  151.0000  133.6057  159.2703 H   0  0  0  0  0  0  0  0  0  0  0  0  # atno 6908 bound_to 6896
  151.3169  135.0815  159.9345 H   0  0  0  0  0  0  0  0  0  0  0  0  # atno 6909 bound_to 6896
  144.7988  140.5110  143.5721 H   0  0  0  0  0  0  0  0  0  0  0  0  # atno 7974 bound_to 7965
  154.5230  140.0783  156.8207 H   0  0  0  0  0  0  0  0  0  0  0  0  # atno 8008 bound_to 7997
  155.3535  140.3414  155.4221 H   0  0  0  0  0  0  0  0  0  0  0  0  # atno 8009 bound_to 7997
  156.1701  140.1617  156.8448 H   0  0  0  0  0  0  0  0  0  0  0  0  # atno 8010 bound_to 7997
  140.3454  143.2919  151.9787 H   0  0  0  0  0  0  0  0  0  0  0  0  # atno 10167 bound_to 10162
  157.3653  131.0971  151.0878 H   0  0  0  0  0  0  0  0  0  0  0  0  # atno 10718 bound_to 10713
  152.9826  135.5689  154.5167 H   0  0  0  0  0  0  0  0  0  0  0  0  # atno 10763 bound_to 10752
  154.4662  135.2783  155.1678 H   0  0  0  0  0  0  0  0  0  0  0  0  # atno 10764 bound_to 10752
  154.3246  135.6262  153.5576 H   0  0  0  0  0  0  0  0  0  0  0  0  # atno 10765 bound_to 10752
  140.6383  133.9513  155.8312 H   0  0  0  0  0  0  0  0  0  0  0  0  # atno 11005 bound_to 11000
  145.5604  139.1479  143.3344 LP  0  0  0  0  0  0  0  0  0  0  0  0  # atno 17320 bound_to 7965
  146.2264  140.5740  142.8994 LP  0  0  0  0  0  0  0  0  0  0  0  0  # atno 17321 bound_to 7965
  139.4834  144.6121  151.7414 LP  0  0  0  0  0  0  0  0  0  0  0  0  # atno 17342 bound_to 10162
  140.5269  144.0791  150.6040 LP  0  0  0  0  0  0  0  0  0  0  0  0  # atno 17343 bound_to 10162
  157.2002  130.6391  149.5736 LP  0  0  0  0  0  0  0  0  0  0  0  0  # atno 17370 bound_to 10713
  155.9745  130.4693  150.6391 LP  0  0  0  0  0  0  0  0  0  0  0  0  # atno 17371 bound_to 10713
  141.0626  134.0324  157.3638 LP  0  0  0  0  0  0  0  0  0  0  0  0  # atno 17394 bound_to 11000
  139.9090  135.0186  156.7610 LP  0  0  0  0  0  0  0  0  0  0  0  0  # atno 17395 bound_to 11000

$$$$
