AV-unprocessed.smi:2281|AV-procd|sdf|9193|dock3
  -GOLD-   2272012413D 1   1.00000     0.00000
 Structure written by MMmdl.
 40 41  0  0  0  0  0  0  0  0  1 V2000
  152.1408  144.2416  160.9475 C   0  0  0  0  0  0  0  0  0  0  0  0
  151.9349  143.2840  159.7872 C   0  0  0  0  0  0  0  0  0  0  0  0
  150.9610  143.6607  158.8586 N   0  0  0  0  0  0  0  0  0  0  0  0
  150.7101  142.9007  157.8434 C   0  0  0  0  0  0  0  0  0  0  0  0
  151.3867  141.6859  157.6418 N   0  0  0  0  0  0  0  0  0  0  0  0
  151.0057  140.9244  156.4344 C   0  0  0  0  0  0  0  0  0  0  0  0
  149.6522  140.1545  156.5320 C   0  0  1  0  0  0  0  0  0  0  0  0
  149.7323  138.6555  156.1672 C   0  0  0  0  0  0  0  0  0  0  0  0
  149.2777  140.1814  157.8987 O   0  0  0  0  0  0  0  0  0  0  0  0
  148.6084  140.8557  155.6494 C   0  0  0  0  0  0  0  0  0  0  0  0
  148.7507  140.9342  154.2428 C   0  0  0  0  0  0  0  0  0  0  0  0
  147.7743  141.5775  153.4592 C   0  0  0  0  0  0  0  0  0  0  0  0
  146.6433  142.1504  154.0683 C   0  0  0  0  0  0  0  0  0  0  0  0
  146.4828  142.0862  155.4677 C   0  0  0  0  0  0  0  0  0  0  0  0
  145.2513  142.6948  156.1225 C   0  0  0  0  0  0  0  0  0  0  0  0
  145.3965  142.7763  157.4455 F   0  0  0  0  0  0  0  0  0  0  0  0
  145.0283  143.9223  155.6517 F   0  0  0  0  0  0  0  0  0  0  0  0
  144.1916  141.9329  155.8540 F   0  0  0  0  0  0  0  0  0  0  0  0
  147.4636  141.4346  156.2465 C   0  0  0  0  0  0  0  0  0  0  0  0
  152.3717  141.2585  158.4864 C   0  0  0  0  0  0  0  0  0  0  0  0
  152.9829  140.2064  158.2907 O   0  0  0  0  0  0  0  0  0  0  0  0
  152.6414  142.1303  159.6412 C   0  0  0  0  0  0  0  0  0  0  0  0
  153.7118  141.6674  160.6219 C   0  0  0  0  0  0  0  0  0  0  0  0
  151.9532  143.7384  161.8964 H   0  0  0  0  0  0  0  0  0  0  0  0
  151.4652  145.0954  160.8831 H   0  0  0  0  0  0  0  0  0  0  0  0
  153.1620  144.6234  160.9504 H   0  0  0  0  0  0  0  0  0  0  0  0
  149.9633  143.1517  157.0881 H   0  0  0  0  0  0  0  0  0  0  0  0
  150.9997  141.5719  155.5546 H   0  0  0  0  0  0  0  0  0  0  0  0
  151.8077  140.2180  156.2154 H   0  0  0  0  0  0  0  0  0  0  0  0
  150.0878  138.5004  155.1489 H   0  0  0  0  0  0  0  0  0  0  0  0
  148.7526  138.1823  156.2442 H   0  0  0  0  0  0  0  0  0  0  0  0
  150.4022  138.1089  156.8317 H   0  0  0  0  0  0  0  0  0  0  0  0
  149.3850  141.0623  158.2229 H   0  0  0  0  0  0  0  0  0  0  0  0
  149.6038  140.5028  153.7411 H   0  0  0  0  0  0  0  0  0  0  0  0
  147.8927  141.6295  152.3869 H   0  0  0  0  0  0  0  0  0  0  0  0
  145.8974  142.6362  153.4564 H   0  0  0  0  0  0  0  0  0  0  0  0
  147.3324  141.3712  157.3166 H   0  0  0  0  0  0  0  0  0  0  0  0
  153.4222  140.7171  161.0716 H   0  0  0  0  0  0  0  0  0  0  0  0
  153.8880  142.3743  161.4310 H   0  0  0  0  0  0  0  0  0  0  0  0
  154.6601  141.5216  160.1036 H   0  0  0  0  0  0  0  0  0  0  0  0
  1  2  1  0  0  0  0
  1 24  1  0  0  0  0
  1 25  1  0  0  0  0
  1 26  1  0  0  0  0
  2 22  2  0  0  0  0
  2  3  1  0  0  0  0
  3  4  2  0  0  0  0
  4  5  1  0  0  0  0
  4 27  1  0  0  0  0
  5  6  1  0  0  0  0
  5 20  1  0  0  0  0
  6  7  1  0  0  0  0
  6 28  1  0  0  0  0
  6 29  1  0  0  0  0
  7  8  1  0  0  0  0
  7  9  1  0  0  0  0
  7 10  1  0  0  0  0
  8 30  1  0  0  0  0
  8 31  1  0  0  0  0
  8 32  1  0  0  0  0
  9 33  1  0  0  0  0
 10 19  1  0  0  0  0
 10 11  2  0  0  0  0
 11 12  1  0  0  0  0
 11 34  1  0  0  0  0
 12 13  2  0  0  0  0
 12 35  1  0  0  0  0
 13 14  1  0  0  0  0
 13 36  1  0  0  0  0
 14 15  1  0  0  0  0
 14 19  2  0  0  0  0
 15 16  1  0  0  0  0
 15 17  1  0  0  0  0
 15 18  1  0  0  0  0
 19 37  1  0  0  0  0
 20 21  2  0  0  0  0
 20 22  1  0  0  0  0
 22 23  1  0  0  0  0
 23 38  1  0  0  0  0
 23 39  1  0  0  0  0
 23 40  1  0  0  0  0
M  END
> <s_m_source_file>
AV-unprocessed.smi

> <i_m_source_file_index>
2281

> <i_lp_mmshare_version>
43012

> <i_f3d_flags>
0

> <s_epik_input>
W0NIM11jMW5bY0hdbihjKD1PKWMxW0NIM10pW0NIMl1bQ0BAXShbQ0gzXSkoW09IXSljMltjSF1bY0hdW2NIXWMoQyhGKShGKUYpW2NIXTI=

> <s_epik_cmdline>
J2VwaWtfcHl0aG9uJywgJy1waCcsICc3LjAnLCAnLXRuJywgJzgnLCAnLW1hJywgJzIwMCcsICctbWV0YWxfYmluZGluZycsICctaW1hZScsICc8aW5maWxlLm1hZT4nLCAnLW9tYWUnLCAnPG91dGZpbGUubWFlPic=

> <r_lp_tautomer_probability>
1

> <r_epik_Ionization_Penalty>
5.68222e-05

> <r_epik_Ionization_Penalty_Charging>
9.07816e-08

> <r_epik_Ionization_Penalty_Neutral>
5.67314e-05

> <r_epik_State_Penalty>
-0

> <r_epik_Charging_Adjusted_Penalty>
9.07816e-08

> <i_epik_Tot_Q>
0

> <i_epik_Tot_abs_Q>
0

> <r_epik_Metal_State_Penalty>
-0

> <b_epik_Metal_Only>
0

> <s_lp_Force_Field>
OPLS_2005

> <r_lp_Energy>
23.727

> <b_lp_Chiralities_Consistent>
1

> <s_lp_Variant>
AV-unprocessed.smi:2281-1

> <Gold.Version>
5.8.1

> <Gold.Id.Protein>
6NUR|6NUR_protein|mol2

> <Gold.PLP.Fitness>
44.5712

> <Gold.PLP.PLP>
-41.2868

> <Gold.PLP.part.hbond>
-1.0000

> <Gold.PLP.part.metal>
0.0000

> <Gold.PLP.part.buried>
-5.9348

> <Gold.PLP.part.nonpolar>
-33.7263

> <Gold.PLP.part.repulsive>
0.0943

> <Gold.PLP.ligand.clash>
0.3402

> <Gold.PLP.ligand.torsion>
1.7033

> <Gold.PLP.Chemscore.Hbond>
0.9760

> <Gold.PLP.Chemscore.CHOScore>
1.0000

> <Gold.PLP.Chemscore.Metal>
0.0000

> <Gold.Chemscore.Hbonds>
donor molecule, donor type, donor heavy atom, donor atom, acceptor molecule, acceptor atom, score
      P1  H  7997  8009       L1    21  0.92
      L1  C     4    27       P1  8028  1.00

> <Gold.PLP.Chemscore.Internal.Correction>
1.1032

> <Gold.Rescore>
     Score         DG    S(hbond)    S(metal)    S(lipo)     H(rot)  DE(clash)    DE(int)     intcor
     12.45     -13.98       0.92        0.00      92.08       2.09       0.05       1.47       ----

> <Gold.Chemscore.Fitness>
12.4533

> <Gold.Chemscore.DG>
-13.9761

> <Gold.Chemscore.ZeroCoef>
-5.4800

> <Gold.Chemscore.Hbond>
0.9171

> <Gold.Chemscore.Metal>
0.0000

> <Gold.Chemscore.Lipo>
92.0771

> <Gold.Chemscore.Internal_Hbond>
0.0000

> <Gold.Chemscore.DEClash>
0.0518

> <Gold.Chemscore.DEInternal>
1.4709

> <Gold.Chemscore.Rot>
2.0860

> <Gold.Chemscore.Internal.Correction>
   9.000000E+99

> <Gold.Chemscore.Hbonds>
donor molecule, donor type, donor heavy atom, donor atom, acceptor molecule, acceptor atom, score
      P1  H  7997  8009       L1    21  0.82

> <Gold.Chemscore.Hbond.Weighted>
-3.0632

> <Gold.Chemscore.Metal.Weighted>
-0.0000

> <Gold.Chemscore.Lipo.Weighted>
-10.7730

> <Gold.Chemscore.Internal_Hbond.Weighted>
0.0000

> <Gold.Chemscore.DEClash.Weighted>
0.0518

> <Gold.Chemscore.DEInternal.Weighted>
1.4709

> <Gold.Chemscore.Rot.Weighted>
5.3402

> <Gold.Chemscore.Internal.Correction.Weighted>
   9.000000E+99

> <Gold.Protein.RotatedTorsions>
[ 6907 6896 6895 6894 ] final   -4.57 input  -60.11 | X-H torsion
[ 7974 7965 7964 7962 ] final  130.09 input  175.53 | X-H torsion
[ 8008 7997 7996 7995 ] final  162.61 input   59.86 | X-H torsion
[ 10167 10162 10161 10158 ] final -105.87 input  -65.29 | X-H torsion
[ 10718 10713 10712 10709 ] final -167.27 input   66.30 | X-H torsion
[ 10763 10752 10751 10750 ] final  -43.32 input  -60.55 | X-H torsion
[ 11005 11000 10999 10996 ] final  -87.80 input  -57.11 | X-H torsion

> <Gold.Protein.ActiveResidues>
 VAL166  LYS551  ARG553  GLY616  TRP617  ASP618  TYR619  PRO620  LYS621  CYS622 
 ASP623  PHE694  ASN695  SER759  ASP760  ASP761  ALA762  ILE779  LEU786  VAL792 
 PHE793  MET794  SER795  GLU796  ALA797  LYS798  CYS799  TRP800  GLU811  SER814 

> <Gold.Protein.RotatedAtoms>
  151.4956  135.1059  159.9814 H   0  0  0  0  0  0  0  0  0  0  0  0  # atno 6907 bound_to 6896
  152.4723  133.8054  159.6985 H   0  0  0  0  0  0  0  0  0  0  0  0  # atno 6908 bound_to 6896
  150.8739  133.7403  159.2978 H   0  0  0  0  0  0  0  0  0  0  0  0  # atno 6909 bound_to 6896
  145.0216  139.4127  143.5194 H   0  0  0  0  0  0  0  0  0  0  0  0  # atno 7974 bound_to 7965
  156.2018  140.1745  156.7883 H   0  0  0  0  0  0  0  0  0  0  0  0  # atno 8008 bound_to 7997
  154.5602  140.0701  156.8838 H   0  0  0  0  0  0  0  0  0  0  0  0  # atno 8009 bound_to 7997
  155.2862  140.3352  155.4257 H   0  0  0  0  0  0  0  0  0  0  0  0  # atno 8010 bound_to 7997
  140.1939  143.3870  152.1184 H   0  0  0  0  0  0  0  0  0  0  0  0  # atno 10167 bound_to 10162
  156.6799  130.9118  151.3055 H   0  0  0  0  0  0  0  0  0  0  0  0  # atno 10718 bound_to 10713
  153.9936  135.6702  153.4755 H   0  0  0  0  0  0  0  0  0  0  0  0  # atno 10763 bound_to 10752
  153.0694  135.4983  154.8267 H   0  0  0  0  0  0  0  0  0  0  0  0  # atno 10764 bound_to 10752
  154.7094  135.3094  154.9182 H   0  0  0  0  0  0  0  0  0  0  0  0  # atno 10765 bound_to 10752
  141.1611  133.7532  156.9358 H   0  0  0  0  0  0  0  0  0  0  0  0  # atno 11005 bound_to 11000
  146.3486  139.9717  142.8705 LP  0  0  0  0  0  0  0  0  0  0  0  0  # atno 17320 bound_to 7965
  145.1888  140.9802  143.4223 LP  0  0  0  0  0  0  0  0  0  0  0  0  # atno 17321 bound_to 7965
  139.5244  144.7084  151.5284 LP  0  0  0  0  0  0  0  0  0  0  0  0  # atno 17342 bound_to 10162
  140.6437  143.8838  150.6716 LP  0  0  0  0  0  0  0  0  0  0  0  0  # atno 17343 bound_to 10162
  157.7047  130.9372  150.0894 LP  0  0  0  0  0  0  0  0  0  0  0  0  # atno 17370 bound_to 10713
  156.1875  130.3653  149.8953 LP  0  0  0  0  0  0  0  0  0  0  0  0  # atno 17371 bound_to 10713
  140.1355  134.9328  157.2395 LP  0  0  0  0  0  0  0  0  0  0  0  0  # atno 17394 bound_to 11000
  140.2901  134.3251  155.7318 LP  0  0  0  0  0  0  0  0  0  0  0  0  # atno 17395 bound_to 11000

$$$$
