AV-unprocessed.smi:278|AV-procd|sdf|2093|dock7
  -GOLD-   2262021373D 1   1.00000     0.00000
 Structure written by MMmdl.
 50 54  0  0  0  0  0  0  0  0  1 V2000
  152.2651  143.3311  161.3721 O   0  0  0  0  0  0  0  0  0  0  0  0
  151.3961  143.4991  160.1977 S   0  0  0  0  0  0  0  0  0  0  0  0
  149.9331  143.4121  160.3269 O   0  0  0  0  0  0  0  0  0  0  0  0
  151.8295  145.0709  159.3563 C   0  0  0  0  0  0  0  0  0  0  0  0
  152.6786  144.6863  158.1376 C   0  0  0  0  0  0  0  0  0  0  0  0
  152.2633  143.2845  157.6549 C   0  0  2  0  0  0  0  0  0  0  0  0
  150.9331  143.2565  156.8948 C   0  0  0  0  0  0  0  0  0  0  0  0
  150.3756  141.9366  157.1534 N   0  0  0  0  0  0  0  0  0  0  0  0
  149.1313  141.5986  156.7246 C   0  0  0  0  0  0  0  0  0  0  0  0
  148.0552  142.1231  157.3696 N   0  0  0  0  0  0  0  0  0  0  0  0
  146.8140  141.8219  156.9784 C   0  0  0  0  0  0  0  0  0  0  0  0
  146.4241  141.0339  155.9759 N   0  0  0  0  0  0  0  0  0  0  0  0
  147.4953  140.5112  155.3144 C   0  0  0  0  0  0  0  0  0  0  0  0
  148.8696  140.7373  155.6172 C   0  0  0  0  0  0  0  0  0  0  0  0
  149.6654  140.0414  154.7124 N   0  0  0  0  0  0  0  0  0  0  0  0
  148.8147  139.4365  153.9298 C   0  0  0  0  0  0  0  0  0  0  0  0
  147.4902  139.6677  154.2175 N   0  0  0  0  0  0  0  0  0  0  0  0
  146.3427  139.1336  153.5045 C   0  0  0  0  0  0  0  0  0  0  0  0
  146.7517  138.2741  152.2918 C   0  0  2  0  0  0  0  0  0  0  0  0
  147.2431  139.1135  151.2638 O   0  0  0  0  0  0  0  0  0  0  0  0
  145.5812  137.4150  151.7704 C   0  0  1  0  0  0  0  0  0  0  0  0
  145.8100  136.6276  150.4759 C   0  0  0  0  0  0  0  0  0  0  0  0
  144.7821  135.5276  150.6177 C   0  0  0  0  0  0  0  0  0  0  0  0
  144.8507  135.2271  152.1132 C   0  0  0  0  0  0  0  0  0  0  0  0
  145.1702  136.4629  152.7478 O   0  0  0  0  0  0  0  0  0  0  0  0
  150.9249  141.3832  158.3837 C   0  0  0  0  0  0  0  0  0  0  0  0
  151.9916  142.3804  158.8588 C   0  0  2  0  0  0  0  0  0  0  0  0
  153.0386  142.8438  157.0264 H   0  0  0  0  0  0  0  0  0  0  0  0
  152.8961  141.8840  159.2116 H   0  0  0  0  0  0  0  0  0  0  0  0
  150.9020  145.5521  159.0460 H   0  0  0  0  0  0  0  0  0  0  0  0
  152.3507  145.7357  160.0455 H   0  0  0  0  0  0  0  0  0  0  0  0
  152.6056  145.4302  157.3436 H   0  0  0  0  0  0  0  0  0  0  0  0
  153.7256  144.6508  158.4408 H   0  0  0  0  0  0  0  0  0  0  0  0
  150.2467  144.0167  157.2702 H   0  0  0  0  0  0  0  0  0  0  0  0
  151.0808  143.4273  155.8278 H   0  0  0  0  0  0  0  0  0  0  0  0
  146.0195  142.2794  157.5495 H   0  0  0  0  0  0  0  0  0  0  0  0
  149.1319  138.8068  153.1113 H   0  0  0  0  0  0  0  0  0  0  0  0
  145.7548  138.5407  154.2061 H   0  0  0  0  0  0  0  0  0  0  0  0
  145.7072  139.9624  153.1897 H   0  0  0  0  0  0  0  0  0  0  0  0
  147.5613  137.6098  152.5966 H   0  0  0  0  0  0  0  0  0  0  0  0
  147.9596  139.6223  151.6119 H   0  0  0  0  0  0  0  0  0  0  0  0
  144.7156  138.0629  151.6219 H   0  0  0  0  0  0  0  0  0  0  0  0
  145.6686  137.2325  149.5798 H   0  0  0  0  0  0  0  0  0  0  0  0
  146.8077  136.1896  150.4372 H   0  0  0  0  0  0  0  0  0  0  0  0
  143.7925  135.9030  150.3538 H   0  0  0  0  0  0  0  0  0  0  0  0
  144.9955  134.6569  149.9970 H   0  0  0  0  0  0  0  0  0  0  0  0
  143.9201  134.8096  152.4983 H   0  0  0  0  0  0  0  0  0  0  0  0
  145.6515  134.5161  152.3201 H   0  0  0  0  0  0  0  0  0  0  0  0
  150.1595  141.2112  159.1405 H   0  0  0  0  0  0  0  0  0  0  0  0
  151.3867  140.4227  158.1533 H   0  0  0  0  0  0  0  0  0  0  0  0
  1  2  2  0  0  0  0
  2 27  1  0  0  0  0
  2  3  2  0  0  0  0
  2  4  1  0  0  0  0
  4  5  1  0  0  0  0
  4 30  1  0  0  0  0
  4 31  1  0  0  0  0
  5  6  1  0  0  0  0
  5 32  1  0  0  0  0
  5 33  1  0  0  0  0
  6 28  1  0  0  0  0
  6 27  1  0  0  0  0
  6  7  1  0  0  0  0
  7  8  1  0  0  0  0
  7 34  1  0  0  0  0
  7 35  1  0  0  0  0
  8  9  1  0  0  0  0
  8 26  1  0  0  0  0
  9 14  1  0  0  0  0
  9 10  2  0  0  0  0
 10 11  1  0  0  0  0
 11 12  2  0  0  0  0
 11 36  1  0  0  0  0
 12 13  1  0  0  0  0
 13 17  1  0  0  0  0
 13 14  2  0  0  0  0
 14 15  1  0  0  0  0
 15 16  2  0  0  0  0
 16 17  1  0  0  0  0
 16 37  1  0  0  0  0
 17 18  1  0  0  0  0
 18 19  1  0  0  0  0
 18 38  1  0  0  0  0
 18 39  1  0  0  0  0
 19 20  1  0  0  0  0
 19 21  1  0  0  0  0
 19 40  1  0  0  0  0
 20 41  1  0  0  0  0
 21 25  1  0  0  0  0
 21 22  1  0  0  0  0
 21 42  1  0  0  0  0
 22 23  1  0  0  0  0
 22 43  1  0  0  0  0
 22 44  1  0  0  0  0
 23 24  1  0  0  0  0
 23 45  1  0  0  0  0
 23 46  1  0  0  0  0
 24 25  1  0  0  0  0
 24 47  1  0  0  0  0
 24 48  1  0  0  0  0
 26 27  1  0  0  0  0
 26 49  1  0  0  0  0
 26 50  1  0  0  0  0
 27 29  1  0  0  0  0
M  END
> <s_m_source_file>
AV-unprocessed.smi

> <i_m_source_file_index>
278

> <i_lp_mmshare_version>
43012

> <i_f3d_flags>
0

> <s_epik_input>
W0NIMl0xW0NIMl1TKD1PKSg9TylbQ0BASF0oW0NAQEhdMTIpW0NIMl1OKFtDSDJdMiljKG5bY0hdbjMpYyhjMzQpbltjSF1uNFtDSDJdW0NASF0oW09IXSlbQ0BASF01W0NIMl1bQ0gyXVtDSDJdTzU=

> <s_epik_cmdline>
J2VwaWtfcHl0aG9uJywgJy1waCcsICc3LjAnLCAnLXRuJywgJzgnLCAnLW1hJywgJzIwMCcsICctbWV0YWxfYmluZGluZycsICctaW1hZScsICc8aW5maWxlLm1hZT4nLCAnLW9tYWUnLCAnPG91dGZpbGUubWFlPic=

> <r_lp_tautomer_probability>
1

> <r_epik_Ionization_Penalty>
0.000636766

> <r_epik_Ionization_Penalty_Charging>
0

> <r_epik_Ionization_Penalty_Neutral>
0.000636766

> <r_epik_State_Penalty>
0.000329976

> <r_epik_Charging_Adjusted_Penalty>
0.000329976

> <i_epik_Tot_Q>
0

> <i_epik_Tot_abs_Q>
0

> <r_epik_Metal_State_Penalty>
-0

> <b_epik_Metal_Only>
0

> <s_lp_Force_Field>
OPLS_2005

> <r_lp_Energy>
51.4583

> <b_lp_Chiralities_Consistent>
1

> <s_lp_Variant>
AV-unprocessed.smi:278-7

> <Gold.Version>
5.8.1

> <Gold.Id.Protein>
6NUR|6NUR_protein|mol2

> <Gold.PLP.Fitness>
44.3523

> <Gold.PLP.PLP>
-39.1454

> <Gold.PLP.part.hbond>
-4.0000

> <Gold.PLP.part.metal>
0.0000

> <Gold.PLP.part.buried>
-0.1793

> <Gold.PLP.part.nonpolar>
-34.8626

> <Gold.PLP.part.repulsive>
1.1840

> <Gold.PLP.ligand.clash>
0.0000

> <Gold.PLP.ligand.torsion>
1.5309

> <Gold.PLP.Chemscore.Hbond>
1.8229

> <Gold.PLP.Chemscore.CHOScore>
0.8515

> <Gold.PLP.Chemscore.Metal>
0.0000

> <Gold.Chemscore.Hbonds>
donor molecule, donor type, donor heavy atom, donor atom, acceptor molecule, acceptor atom, score
      L1  H    20    41       P1  7957  0.72
      P1  H  6933  6944       L1     3  0.03
      P1  H  7954  7966       L1    20  0.74
      L1  C    16    37       P1  7948  0.24
      L1  C    16    37       P1  7957  0.67

> <Gold.PLP.Chemscore.Internal.Correction>
0.2455

> <Gold.Rescore>
     Score         DG    S(hbond)    S(metal)    S(lipo)     H(rot)  DE(clash)    DE(int)     intcor
     11.47     -16.28       1.49        0.00      96.38       2.13       3.05       1.76       ----

> <Gold.Chemscore.Fitness>
11.4711

> <Gold.Chemscore.DG>
-16.2795

> <Gold.Chemscore.ZeroCoef>
-5.4800

> <Gold.Chemscore.Hbond>
1.4934

> <Gold.Chemscore.Metal>
0.0000

> <Gold.Chemscore.Lipo>
96.3766

> <Gold.Chemscore.Internal_Hbond>
0.0000

> <Gold.Chemscore.DEClash>
3.0465

> <Gold.Chemscore.DEInternal>
1.7618

> <Gold.Chemscore.Rot>
2.1346

> <Gold.Chemscore.Internal.Correction>
   9.000000E+99

> <Gold.Chemscore.Hbonds>
donor molecule, donor type, donor heavy atom, donor atom, acceptor molecule, acceptor atom, score
      L1  H    20    41       P1  7957  0.72
      P1  H  6933  6944       L1     3  0.06
      P1  H  7954  7966       L1    20  0.15
      P1  H  7989  7998       L1    15  0.04

> <Gold.Chemscore.Hbond.Weighted>
-4.9880

> <Gold.Chemscore.Metal.Weighted>
-0.0000

> <Gold.Chemscore.Lipo.Weighted>
-11.2761

> <Gold.Chemscore.Internal_Hbond.Weighted>
0.0000

> <Gold.Chemscore.DEClash.Weighted>
3.0465

> <Gold.Chemscore.DEInternal.Weighted>
1.7618

> <Gold.Chemscore.Rot.Weighted>
5.4646

> <Gold.Chemscore.Internal.Correction.Weighted>
   9.000000E+99

> <Gold.Protein.RotatedTorsions>
[ 6907 6896 6895 6894 ] final  -53.46 input  -60.11 | X-H torsion
[ 7974 7965 7964 7962 ] final -123.15 input  175.53 | X-H torsion
[ 8008 7997 7996 7995 ] final  -96.67 input   59.86 | X-H torsion
[ 10167 10162 10161 10158 ] final   57.21 input  -65.29 | X-H torsion
[ 10718 10713 10712 10709 ] final    8.73 input   66.30 | X-H torsion
[ 10763 10752 10751 10750 ] final -153.62 input  -60.55 | X-H torsion
[ 11005 11000 10999 10996 ] final  -64.25 input  -57.11 | X-H torsion

> <Gold.Protein.ActiveResidues>
 VAL166  LYS551  ARG553  GLY616  TRP617  ASP618  TYR619  PRO620  LYS621  CYS622 
 ASP623  PHE694  ASN695  SER759  ASP760  ASP761  ALA762  ILE779  LEU786  VAL792 
 PHE793  MET794  SER795  GLU796  ALA797  LYS798  CYS799  TRP800  GLU811  SER814 

> <Gold.Protein.RotatedAtoms>
  150.8425  134.7722  159.6943 H   0  0  0  0  0  0  0  0  0  0  0  0  # atno 6907 bound_to 6896
  152.4509  134.5391  159.9843 H   0  0  0  0  0  0  0  0  0  0  0  0  # atno 6908 bound_to 6896
  151.5528  133.3377  159.2992 H   0  0  0  0  0  0  0  0  0  0  0  0  # atno 6909 bound_to 6896
  145.0218  140.7994  143.4376 H   0  0  0  0  0  0  0  0  0  0  0  0  # atno 7974 bound_to 7965
  154.7775  140.0469  157.1101 H   0  0  0  0  0  0  0  0  0  0  0  0  # atno 8008 bound_to 7997
  154.9745  140.3093  155.4954 H   0  0  0  0  0  0  0  0  0  0  0  0  # atno 8009 bound_to 7997
  156.2931  140.2247  156.4840 H   0  0  0  0  0  0  0  0  0  0  0  0  # atno 8010 bound_to 7997
  140.2005  144.3993  150.6531 H   0  0  0  0  0  0  0  0  0  0  0  0  # atno 10167 bound_to 10162
  156.9559  130.5914  149.5659 H   0  0  0  0  0  0  0  0  0  0  0  0  # atno 10718 bound_to 10713
  154.7915  135.3208  154.7766 H   0  0  0  0  0  0  0  0  0  0  0  0  # atno 10763 bound_to 10752
  153.8454  135.6867  153.4802 H   0  0  0  0  0  0  0  0  0  0  0  0  # atno 10764 bound_to 10752
  153.1587  135.4669  154.9682 H   0  0  0  0  0  0  0  0  0  0  0  0  # atno 10765 bound_to 10752
  141.1419  133.6663  156.5804 H   0  0  0  0  0  0  0  0  0  0  0  0  # atno 11005 bound_to 11000
  145.1886  139.2313  143.5255 LP  0  0  0  0  0  0  0  0  0  0  0  0  # atno 17320 bound_to 7965
  146.3486  140.1676  142.8590 LP  0  0  0  0  0  0  0  0  0  0  0  0  # atno 17321 bound_to 7965
  140.6394  143.2200  151.6324 LP  0  0  0  0  0  0  0  0  0  0  0  0  # atno 17342 bound_to 10162
  139.5219  144.3178  152.0937 LP  0  0  0  0  0  0  0  0  0  0  0  0  # atno 17343 bound_to 10162
  156.0343  130.5431  150.8613 LP  0  0  0  0  0  0  0  0  0  0  0  0  # atno 17370 bound_to 10713
  157.5690  131.0946  150.9446 LP  0  0  0  0  0  0  0  0  0  0  0  0  # atno 17371 bound_to 10713
  140.3842  134.7497  157.4680 LP  0  0  0  0  0  0  0  0  0  0  0  0  # atno 17394 bound_to 11000
  140.0615  134.5990  155.8744 LP  0  0  0  0  0  0  0  0  0  0  0  0  # atno 17395 bound_to 11000

$$$$
