AV-unprocessed.smi:3335|AV-procd|sdf|12844|dock5
  -GOLD-   2272019233D 1   1.00000     0.00000
 Structure written by MMmdl.
 47 48  0  0  0  0  0  0  0  0  2 V2000
  153.3789  143.2791  163.1557 C   0  0  0  0  0  0  0  0  0  0  0  0
  152.9802  142.9450  161.7470 C   0  0  0  0  0  0  0  0  0  0  0  0
  153.7353  142.2363  160.7703 C   0  0  0  0  0  0  0  0  0  0  0  0
  153.0950  142.1073  159.6203 N   0  0  0  0  0  0  0  0  0  0  0  0
  151.9098  142.7263  159.8191 N   0  0  0  0  0  0  0  0  0  0  0  0
  150.9247  142.7869  158.7468 C   0  0  1  0  0  0  0  0  0  0  0  0
  150.3983  144.2275  158.5974 C   0  0  0  0  0  0  0  0  0  0  0  0
  151.4729  142.2132  157.4130 C   0  0  1  0  0  0  0  0  0  0  0  0
  151.9283  140.7441  157.5362 C   0  0  0  0  0  0  0  0  0  0  0  0
  150.4410  142.3346  156.3546 N   0  3  0  0  0  0  0  0  0  0  0  0
  149.4820  141.2090  156.2445 C   0  0  1  0  0  0  0  0  0  0  0  0
  148.1314  141.7410  155.7399 C   0  0  0  0  0  0  0  0  0  0  0  0
  150.0049  140.1157  155.2904 C   0  0  0  0  0  0  0  0  0  0  0  0
  150.2140  140.4074  154.1117 O   0  0  0  0  0  0  0  0  0  0  0  0
  150.2070  138.8664  155.7621 N   0  0  0  0  0  0  0  0  0  0  0  0
  149.9785  138.4084  157.1327 C   0  0  0  0  0  0  0  0  0  0  0  0
  150.1005  136.8853  157.0874 C   0  0  0  0  0  0  0  0  0  0  0  0
  151.0062  136.6209  155.8934 C   0  0  0  0  0  0  0  0  0  0  0  0
  150.6979  137.7680  154.9309 C   0  0  0  0  0  0  0  0  0  0  0  0
  151.8172  143.2428  161.0948 C   0  0  0  0  0  0  0  0  0  0  0  0
  154.4619  143.3379  163.2659 H   0  0  0  0  0  0  0  0  0  0  0  0
  153.0241  142.5284  163.8620 H   0  0  0  0  0  0  0  0  0  0  0  0
  152.9722  144.2390  163.4743 H   0  0  0  0  0  0  0  0  0  0  0  0
  154.7248  141.8137  160.8634 H   0  0  0  0  0  0  0  0  0  0  0  0
  150.0865  142.1627  159.0611 H   0  0  0  0  0  0  0  0  0  0  0  0
  149.5610  144.2797  157.9015 H   0  0  0  0  0  0  0  0  0  0  0  0
  151.1738  144.9015  158.2315 H   0  0  0  0  0  0  0  0  0  0  0  0
  150.0466  144.6157  159.5539 H   0  0  0  0  0  0  0  0  0  0  0  0
  152.3394  142.8119  157.1275 H   0  0  0  0  0  0  0  0  0  0  0  0
  152.7413  140.6302  158.2532 H   0  0  0  0  0  0  0  0  0  0  0  0
  152.2949  140.3526  156.5876 H   0  0  0  0  0  0  0  0  0  0  0  0
  151.1078  140.1040  157.8620 H   0  0  0  0  0  0  0  0  0  0  0  0
  149.9283  143.1893  156.5156 H   0  0  0  0  0  0  0  0  0  0  0  0
  149.3324  140.8005  157.2426 H   0  0  0  0  0  0  0  0  0  0  0  0
  147.3906  140.9449  155.6583 H   0  0  0  0  0  0  0  0  0  0  0  0
  148.2255  142.2060  154.7575 H   0  0  0  0  0  0  0  0  0  0  0  0
  147.7280  142.4898  156.4221 H   0  0  0  0  0  0  0  0  0  0  0  0
  150.7476  138.8301  157.7812 H   0  0  0  0  0  0  0  0  0  0  0  0
  149.0035  138.7080  157.5184 H   0  0  0  0  0  0  0  0  0  0  0  0
  150.4882  136.4634  158.0150 H   0  0  0  0  0  0  0  0  0  0  0  0
  149.1192  136.4451  156.9049 H   0  0  0  0  0  0  0  0  0  0  0  0
  152.0494  136.6765  156.2076 H   0  0  0  0  0  0  0  0  0  0  0  0
  150.8438  135.6391  155.4476 H   0  0  0  0  0  0  0  0  0  0  0  0
  149.9153  137.4775  154.2285 H   0  0  0  0  0  0  0  0  0  0  0  0
  151.5816  138.0497  154.3563 H   0  0  0  0  0  0  0  0  0  0  0  0
  150.9390  143.7737  161.4321 H   0  0  0  0  0  0  0  0  0  0  0  0
  150.9115  142.4071  155.4633 H   0  0  0  0  0  0  0  0  0  0  0  0
  1  2  1  0  0  0  0
  1 21  1  0  0  0  0
  1 22  1  0  0  0  0
  1 23  1  0  0  0  0
  2 20  2  0  0  0  0
  2  3  1  0  0  0  0
  3  4  2  0  0  0  0
  3 24  1  0  0  0  0
  4  5  1  0  0  0  0
  5  6  1  0  0  0  0
  5 20  1  0  0  0  0
  6  7  1  0  0  0  0
  6  8  1  0  0  0  0
  6 25  1  0  0  0  0
  7 26  1  0  0  0  0
  7 27  1  0  0  0  0
  7 28  1  0  0  0  0
  8  9  1  0  0  0  0
  8 10  1  0  0  0  0
  8 29  1  0  0  0  0
  9 30  1  0  0  0  0
  9 31  1  0  0  0  0
  9 32  1  0  0  0  0
 10 11  1  0  0  0  0
 10 33  1  0  0  0  0
 10 47  1  0  0  0  0
 11 12  1  0  0  0  0
 11 13  1  0  0  0  0
 11 34  1  0  0  0  0
 12 35  1  0  0  0  0
 12 36  1  0  0  0  0
 12 37  1  0  0  0  0
 13 14  2  0  0  0  0
 13 15  1  0  0  0  0
 15 19  1  0  0  0  0
 15 16  1  0  0  0  0
 16 17  1  0  0  0  0
 16 38  1  0  0  0  0
 16 39  1  0  0  0  0
 17 18  1  0  0  0  0
 17 40  1  0  0  0  0
 17 41  1  0  0  0  0
 18 19  1  0  0  0  0
 18 42  1  0  0  0  0
 18 43  1  0  0  0  0
 19 44  1  0  0  0  0
 19 45  1  0  0  0  0
 20 46  1  0  0  0  0
M  CHG  1  10   1
M  END
> <s_m_source_file>
AV-unprocessed.smi

> <i_m_source_file_index>
3335

> <i_lp_mmshare_version>
43012

> <i_f3d_flags>
0

> <s_epik_input>
W0NIM11jMVtjSF1ubihbY0hdMSlbQ0BIXShbQ0gzXSlbQ0BIXShbQ0gzXSlbTkhdW0NASF0oW0NIM10pQyg9TylOMltDSDJdW0NIMl1bQ0gyXVtDSDJdMg==

> <s_epik_cmdline>
J2VwaWtfcHl0aG9uJywgJy1waCcsICc3LjAnLCAnLXRuJywgJzgnLCAnLW1hJywgJzIwMCcsICctbWV0YWxfYmluZGluZycsICctaW1hZScsICc8aW5maWxlLm1hZT4nLCAnLW9tYWUnLCAnPG91dGZpbGUubWFlPic=

> <r_lp_tautomer_probability>
1

> <r_epik_Ionization_Penalty>
0.14175

> <r_epik_Ionization_Penalty_Charging>
0.141731

> <r_epik_Ionization_Penalty_Neutral>
1.91261e-05

> <r_epik_State_Penalty>
0.131043

> <r_epik_Charging_Adjusted_Penalty>
0.272773

> <i_epik_Tot_Q>
1

> <i_epik_Tot_abs_Q>
1

> <r_epik_Metal_State_Penalty>
0.131408

> <b_epik_Metal_Only>
0

> <s_lp_Force_Field>
OPLS_2005

> <r_lp_Energy>
36.0865

> <b_lp_Chiralities_Consistent>
1

> <s_lp_Variant>
AV-unprocessed.smi:3335-8

> <Gold.Version>
5.8.1

> <Gold.Id.Protein>
6NUR|6NUR_protein|mol2

> <Gold.PLP.Fitness>
41.6989

> <Gold.PLP.PLP>
-35.2428

> <Gold.PLP.part.hbond>
-1.9436

> <Gold.PLP.part.metal>
0.0000

> <Gold.PLP.part.buried>
-4.8803

> <Gold.PLP.part.nonpolar>
-27.9997

> <Gold.PLP.part.repulsive>
0.9236

> <Gold.PLP.ligand.clash>
0.0000

> <Gold.PLP.ligand.torsion>
0.8386

> <Gold.PLP.Chemscore.Hbond>
2.6878

> <Gold.PLP.Chemscore.CHOScore>
0.0000

> <Gold.PLP.Chemscore.Metal>
0.0000

> <Gold.Chemscore.Hbonds>
donor molecule, donor type, donor heavy atom, donor atom, acceptor molecule, acceptor atom, score
      L1  H    10    33       P1  8028  1.81
      P1  H  7989  7998       L1    14  0.86

> <Gold.PLP.Chemscore.Internal.Correction>
0.0700

> <Gold.Rescore>
     Score         DG    S(hbond)    S(metal)    S(lipo)     H(rot)  DE(clash)    DE(int)     intcor
     15.46     -18.09       1.42        0.00     104.01       1.68       0.17       2.46       ----

> <Gold.Chemscore.Fitness>
15.4582

> <Gold.Chemscore.DG>
-18.0863

> <Gold.Chemscore.ZeroCoef>
-5.4800

> <Gold.Chemscore.Hbond>
1.4168

> <Gold.Chemscore.Metal>
0.0000

> <Gold.Chemscore.Lipo>
104.0117

> <Gold.Chemscore.Internal_Hbond>
0.0000

> <Gold.Chemscore.DEClash>
0.1665

> <Gold.Chemscore.DEInternal>
2.4617

> <Gold.Chemscore.Rot>
1.6778

> <Gold.Chemscore.Internal.Correction>
   9.000000E+99

> <Gold.Chemscore.Hbonds>
donor molecule, donor type, donor heavy atom, donor atom, acceptor molecule, acceptor atom, score
      L1  H    10    33       P1  8028  0.83
      P1  H  7989  7998       L1    14  0.84

> <Gold.Chemscore.Hbond.Weighted>
-4.7321

> <Gold.Chemscore.Metal.Weighted>
-0.0000

> <Gold.Chemscore.Lipo.Weighted>
-12.1694

> <Gold.Chemscore.Internal_Hbond.Weighted>
0.0000

> <Gold.Chemscore.DEClash.Weighted>
0.1665

> <Gold.Chemscore.DEInternal.Weighted>
2.4617

> <Gold.Chemscore.Rot.Weighted>
4.2952

> <Gold.Chemscore.Internal.Correction.Weighted>
   9.000000E+99

> <Gold.Protein.RotatedTorsions>
[ 6907 6896 6895 6894 ] final  121.97 input  -60.11 | X-H torsion
[ 7974 7965 7964 7962 ] final  -98.74 input  175.53 | X-H torsion
[ 8008 7997 7996 7995 ] final  159.46 input   59.86 | X-H torsion
[ 10167 10162 10161 10158 ] final -160.77 input  -65.29 | X-H torsion
[ 10718 10713 10712 10709 ] final  -39.97 input   66.30 | X-H torsion
[ 10763 10752 10751 10750 ] final  -52.84 input  -60.55 | X-H torsion
[ 11005 11000 10999 10996 ] final   71.07 input  -57.11 | X-H torsion

> <Gold.Protein.ActiveResidues>
 VAL166  LYS551  ARG553  GLY616  TRP617  ASP618  TYR619  PRO620  LYS621  CYS622 
 ASP623  PHE694  ASN695  SER759  ASP760  ASP761  ALA762  ILE779  LEU786  VAL792 
 PHE793  MET794  SER795  GLU796  ALA797  LYS798  CYS799  TRP800  GLU811  SER814 

> <Gold.Protein.RotatedAtoms>
  152.4280  133.7229  159.6543 H   0  0  0  0  0  0  0  0  0  0  0  0  # atno 6907 bound_to 6896
  150.8158  133.8330  159.3167 H   0  0  0  0  0  0  0  0  0  0  0  0  # atno 6908 bound_to 6896
  151.6026  135.1048  160.0115 H   0  0  0  0  0  0  0  0  0  0  0  0  # atno 6909 bound_to 6896
  145.3167  140.9412  143.2739 H   0  0  0  0  0  0  0  0  0  0  0  0  # atno 7974 bound_to 7965
  156.2237  140.1830  156.7415 H   0  0  0  0  0  0  0  0  0  0  0  0  # atno 8008 bound_to 7997
  154.5906  140.0651  156.9262 H   0  0  0  0  0  0  0  0  0  0  0  0  # atno 8009 bound_to 7997
  155.2343  140.3317  155.4302 H   0  0  0  0  0  0  0  0  0  0  0  0  # atno 8010 bound_to 7997
  139.6514  144.0077  152.2164 H   0  0  0  0  0  0  0  0  0  0  0  0  # atno 10167 bound_to 10162
  156.2865  130.4223  149.8282 H   0  0  0  0  0  0  0  0  0  0  0  0  # atno 10718 bound_to 10713
  154.1492  135.6493  153.4959 H   0  0  0  0  0  0  0  0  0  0  0  0  # atno 10763 bound_to 10752
  153.0143  135.5334  154.6825 H   0  0  0  0  0  0  0  0  0  0  0  0  # atno 10764 bound_to 10752
  154.6108  135.2953  155.0405 H   0  0  0  0  0  0  0  0  0  0  0  0  # atno 10765 bound_to 10752
  139.9563  134.7138  156.0745 H   0  0  0  0  0  0  0  0  0  0  0  0  # atno 11005 bound_to 11000
  144.8972  139.4696  143.6649 LP  0  0  0  0  0  0  0  0  0  0  0  0  # atno 17320 bound_to 7965
  146.3098  139.7705  142.9028 LP  0  0  0  0  0  0  0  0  0  0  0  0  # atno 17321 bound_to 7965
  139.9792  144.6440  150.7917 LP  0  0  0  0  0  0  0  0  0  0  0  0  # atno 17342 bound_to 10162
  140.7539  143.3018  151.3062 LP  0  0  0  0  0  0  0  0  0  0  0  0  # atno 17343 bound_to 10162
  156.5710  130.8425  151.3356 LP  0  0  0  0  0  0  0  0  0  0  0  0  # atno 17370 bound_to 10713
  157.7330  130.9724  150.1956 LP  0  0  0  0  0  0  0  0  0  0  0  0  # atno 17371 bound_to 10713
  141.1235  133.6606  156.3276 LP  0  0  0  0  0  0  0  0  0  0  0  0  # atno 17394 bound_to 11000
  140.5601  134.5942  157.5431 LP  0  0  0  0  0  0  0  0  0  0  0  0  # atno 17395 bound_to 11000

$$$$
