AV-unprocessed.smi:1891|AV-procd|sdf|7666|dock6
  -GOLD-   22720 9403D 1   1.00000     0.00000
 Structure written by MMmdl.
 36 38  0  0  0  0  0  0  0  0  1 V2000
  151.6237  136.2515  154.8898 O   0  0  0  0  0  0  0  0  0  0  0  0
  151.8110  137.6039  155.2552 C   0  0  0  0  0  0  0  0  0  0  0  0
  150.6811  138.5096  154.8535 C   0  0  0  0  0  0  0  0  0  0  0  0
  149.5939  138.0736  154.2126 N   0  0  0  0  0  0  0  0  0  0  0  0
  148.8453  139.2231  154.0585 C   0  0  0  0  0  0  0  0  0  0  0  0
  147.5853  139.4246  153.4514 C   0  0  0  0  0  0  0  0  0  0  0  0
  147.0085  140.7110  153.4143 C   0  0  0  0  0  0  0  0  0  0  0  0
  147.6809  141.8113  153.9845 C   0  0  0  0  0  0  0  0  0  0  0  0
  148.9376  141.6320  154.5940 C   0  0  0  0  0  0  0  0  0  0  0  0
  149.5100  140.3462  154.6253 C   0  0  0  0  0  0  0  0  0  0  0  0
  150.7057  139.8397  155.1253 N   0  0  0  0  0  0  0  0  0  0  0  0
  151.7453  140.6107  155.7952 C   0  0  0  0  0  0  0  0  0  0  0  0
  151.8098  140.3201  157.3090 C   0  0  1  0  0  0  0  0  0  0  0  0
  152.9078  139.4623  157.5487 O   0  0  0  0  0  0  0  0  0  0  0  0
  151.8687  141.5924  158.1476 C   0  0  0  0  0  0  0  0  0  0  0  0
  151.1894  142.7587  157.7283 C   0  0  0  0  0  0  0  0  0  0  0  0
  151.2258  143.9260  158.5149 C   0  0  0  0  0  0  0  0  0  0  0  0
  151.9403  143.9362  159.7275 C   0  0  0  0  0  0  0  0  0  0  0  0
  151.9741  145.0583  160.4847 F   0  0  0  0  0  0  0  0  0  0  0  0
  152.6179  142.7784  160.1531 C   0  0  0  0  0  0  0  0  0  0  0  0
  152.5836  141.6098  159.3678 C   0  0  0  0  0  0  0  0  0  0  0  0
  153.2337  140.5022  159.7989 F   0  0  0  0  0  0  0  0  0  0  0  0
  150.7758  135.9713  155.1979 H   0  0  0  0  0  0  0  0  0  0  0  0
  151.9417  137.6564  156.3361 H   0  0  0  0  0  0  0  0  0  0  0  0
  152.7344  137.9526  154.7952 H   0  0  0  0  0  0  0  0  0  0  0  0
  147.0623  138.5878  153.0127 H   0  0  0  0  0  0  0  0  0  0  0  0
  146.0457  140.8540  152.9463 H   0  0  0  0  0  0  0  0  0  0  0  0
  147.2319  142.7933  153.9523 H   0  0  0  0  0  0  0  0  0  0  0  0
  149.4565  142.4731  155.0292 H   0  0  0  0  0  0  0  0  0  0  0  0
  152.6962  140.3496  155.3282 H   0  0  0  0  0  0  0  0  0  0  0  0
  151.6013  141.6751  155.6107 H   0  0  0  0  0  0  0  0  0  0  0  0
  150.9261  139.7524  157.6014 H   0  0  0  0  0  0  0  0  0  0  0  0
  152.5809  138.6385  157.8758 H   0  0  0  0  0  0  0  0  0  0  0  0
  150.6289  142.7622  156.8052 H   0  0  0  0  0  0  0  0  0  0  0  0
  150.7026  144.8130  158.1891 H   0  0  0  0  0  0  0  0  0  0  0  0
  153.1626  142.7847  161.0855 H   0  0  0  0  0  0  0  0  0  0  0  0
  1  2  1  0  0  0  0
  1 23  1  0  0  0  0
  2  3  1  0  0  0  0
  2 24  1  0  0  0  0
  2 25  1  0  0  0  0
  3 11  1  0  0  0  0
  3  4  2  0  0  0  0
  4  5  1  0  0  0  0
  5 10  2  0  0  0  0
  5  6  1  0  0  0  0
  6  7  2  0  0  0  0
  6 26  1  0  0  0  0
  7  8  1  0  0  0  0
  7 27  1  0  0  0  0
  8  9  2  0  0  0  0
  8 28  1  0  0  0  0
  9 10  1  0  0  0  0
  9 29  1  0  0  0  0
 10 11  1  0  0  0  0
 11 12  1  0  0  0  0
 12 13  1  0  0  0  0
 12 30  1  0  0  0  0
 12 31  1  0  0  0  0
 13 14  1  0  0  0  0
 13 15  1  0  0  0  0
 13 32  1  0  0  0  0
 14 33  1  0  0  0  0
 15 21  1  0  0  0  0
 15 16  2  0  0  0  0
 16 17  1  0  0  0  0
 16 34  1  0  0  0  0
 17 18  2  0  0  0  0
 17 35  1  0  0  0  0
 18 19  1  0  0  0  0
 18 20  1  0  0  0  0
 20 21  2  0  0  0  0
 20 36  1  0  0  0  0
 21 22  1  0  0  0  0
M  END
> <s_m_source_file>
AV-unprocessed.smi

> <i_m_source_file_index>
1891

> <i_lp_mmshare_version>
43012

> <i_f3d_flags>
0

> <s_epik_input>
W2NIXTFbY0hdW2NIXVtjSF1jKGMxMiluKGMobjIpW0NIMl1bT0hdKVtDSDJdW0NASF0oW09IXSljM1tjSF1bY0hdYyhGKVtjSF1jM0Y=

> <s_epik_cmdline>
J2VwaWtfcHl0aG9uJywgJy1waCcsICc3LjAnLCAnLXRuJywgJzgnLCAnLW1hJywgJzIwMCcsICctbWV0YWxfYmluZGluZycsICctaW1hZScsICc8aW5maWxlLm1hZT4nLCAnLW9tYWUnLCAnPG91dGZpbGUubWFlPic=

> <r_epik_Ionization_Penalty>
0.0634724

> <r_epik_Ionization_Penalty_Charging>
0

> <r_epik_Ionization_Penalty_Neutral>
0.0634724

> <r_epik_State_Penalty>
0.0551572

> <r_epik_Charging_Adjusted_Penalty>
0.0551572

> <i_epik_Tot_Q>
0

> <i_epik_Tot_abs_Q>
0

> <r_epik_Metal_State_Penalty>
5.78034e-05

> <b_epik_Metal_Only>
0

> <s_lp_Force_Field>
OPLS_2005

> <r_lp_Energy>
13.0815

> <b_lp_Chiralities_Consistent>
1

> <s_lp_Variant>
AV-unprocessed.smi:1891-2

> <Gold.Version>
5.8.1

> <Gold.Id.Protein>
6NUR|6NUR_protein|mol2

> <Gold.PLP.Fitness>
55.4393

> <Gold.PLP.PLP>
-52.3647

> <Gold.PLP.part.hbond>
-2.0000

> <Gold.PLP.part.metal>
0.0000

> <Gold.PLP.part.buried>
-2.6137

> <Gold.PLP.part.nonpolar>
-47.3415

> <Gold.PLP.part.repulsive>
0.2160

> <Gold.PLP.ligand.clash>
0.0000

> <Gold.PLP.ligand.torsion>
1.4724

> <Gold.PLP.Chemscore.Hbond>
2.0000

> <Gold.PLP.Chemscore.CHOScore>
0.0000

> <Gold.PLP.Chemscore.Metal>
0.0000

> <Gold.Chemscore.Hbonds>
donor molecule, donor type, donor heavy atom, donor atom, acceptor molecule, acceptor atom, score
      P1  H  7997  8009       L1    14  1.00
      P1  H 10752 10765       L1     1  0.91

> <Gold.PLP.Chemscore.Internal.Correction>
0.0194

> <Gold.Rescore>
     Score         DG    S(hbond)    S(metal)    S(lipo)     H(rot)  DE(clash)    DE(int)     intcor
     15.83     -19.12       1.97        0.00     123.25       2.88       0.09       3.19       ----

> <Gold.Chemscore.Fitness>
15.8320

> <Gold.Chemscore.DG>
-19.1161

> <Gold.Chemscore.ZeroCoef>
-5.4800

> <Gold.Chemscore.Hbond>
1.9702

> <Gold.Chemscore.Metal>
0.0000

> <Gold.Chemscore.Lipo>
123.2492

> <Gold.Chemscore.Internal_Hbond>
0.0000

> <Gold.Chemscore.DEClash>
0.0914

> <Gold.Chemscore.DEInternal>
3.1926

> <Gold.Chemscore.Rot>
2.8767

> <Gold.Chemscore.Internal.Correction>
   9.000000E+99

> <Gold.Chemscore.Hbonds>
donor molecule, donor type, donor heavy atom, donor atom, acceptor molecule, acceptor atom, score
      P1  H  7997  8009       L1    14  0.78
      P1  H 10752 10765       L1     1  0.69

> <Gold.Chemscore.Hbond.Weighted>
-6.5803

> <Gold.Chemscore.Metal.Weighted>
-0.0000

> <Gold.Chemscore.Lipo.Weighted>
-14.4202

> <Gold.Chemscore.Internal_Hbond.Weighted>
0.0000

> <Gold.Chemscore.DEClash.Weighted>
0.0914

> <Gold.Chemscore.DEInternal.Weighted>
3.1926

> <Gold.Chemscore.Rot.Weighted>
7.3644

> <Gold.Chemscore.Internal.Correction.Weighted>
   9.000000E+99

> <Gold.Protein.RotatedTorsions>
[ 6907 6896 6895 6894 ] final -124.58 input  -60.11 | X-H torsion
[ 7974 7965 7964 7962 ] final   87.75 input  175.53 | X-H torsion
[ 8008 7997 7996 7995 ] final  177.53 input   59.86 | X-H torsion
[ 10167 10162 10161 10158 ] final   69.37 input  -65.29 | X-H torsion
[ 10718 10713 10712 10709 ] final  -96.83 input   66.30 | X-H torsion
[ 10763 10752 10751 10750 ] final -178.95 input  -60.55 | X-H torsion
[ 11005 11000 10999 10996 ] final  -31.69 input  -57.11 | X-H torsion

> <Gold.Protein.ActiveResidues>
 VAL166  LYS551  ARG553  GLY616  TRP617  ASP618  TYR619  PRO620  LYS621  CYS622 
 ASP623  PHE694  ASN695  SER759  ASP760  ASP761  ALA762  ILE779  LEU786  VAL792 
 PHE793  MET794  SER795  GLU796  ALA797  LYS798  CYS799  TRP800  GLU811  SER814 

> <Gold.Protein.RotatedAtoms>
  150.8782  133.7409  159.2939 H   0  0  0  0  0  0  0  0  0  0  0  0  # atno 6907 bound_to 6896
  151.4999  135.1060  159.9835 H   0  0  0  0  0  0  0  0  0  0  0  0  # atno 6908 bound_to 6896
  152.4742  133.8053  159.7030 H   0  0  0  0  0  0  0  0  0  0  0  0  # atno 6909 bound_to 6896
  145.5548  139.2298  143.2492 H   0  0  0  0  0  0  0  0  0  0  0  0  # atno 7974 bound_to 7965
  156.0646  140.1356  156.9900 H   0  0  0  0  0  0  0  0  0  0  0  0  # atno 8008 bound_to 7997
  154.4499  140.0984  156.6639 H   0  0  0  0  0  0  0  0  0  0  0  0  # atno 8009 bound_to 7997
  155.5323  140.3459  155.4431 H   0  0  0  0  0  0  0  0  0  0  0  0  # atno 8010 bound_to 7997
  140.0685  144.5173  150.7244 H   0  0  0  0  0  0  0  0  0  0  0  0  # atno 10167 bound_to 10162
  156.0070  130.5168  150.6285 H   0  0  0  0  0  0  0  0  0  0  0  0  # atno 10718 bound_to 10713
  154.5413  135.2806  155.1093 H   0  0  0  0  0  0  0  0  0  0  0  0  # atno 10763 bound_to 10752
  154.2574  135.6328  153.5266 H   0  0  0  0  0  0  0  0  0  0  0  0  # atno 10764 bound_to 10752
  152.9979  135.5597  154.5953 H   0  0  0  0  0  0  0  0  0  0  0  0  # atno 10765 bound_to 10752
  140.9490  133.7232  156.1190 H   0  0  0  0  0  0  0  0  0  0  0  0  # atno 11005 bound_to 11000
  146.1892  140.6372  142.9153 LP  0  0  0  0  0  0  0  0  0  0  0  0  # atno 17320 bound_to 7965
  144.7511  140.5194  143.6801 LP  0  0  0  0  0  0  0  0  0  0  0  0  # atno 17321 bound_to 7965
  140.7137  143.2526  151.4501 LP  0  0  0  0  0  0  0  0  0  0  0  0  # atno 17342 bound_to 10162
  139.5850  144.1624  152.2017 LP  0  0  0  0  0  0  0  0  0  0  0  0  # atno 17343 bound_to 10162
  157.4087  131.0820  151.1241 LP  0  0  0  0  0  0  0  0  0  0  0  0  # atno 17370 bound_to 10713
  157.1879  130.6339  149.5694 LP  0  0  0  0  0  0  0  0  0  0  0  0  # atno 17371 bound_to 10713
  140.7629  134.3919  157.5522 LP  0  0  0  0  0  0  0  0  0  0  0  0  # atno 17394 bound_to 11000
  139.8842  134.8973  156.2720 LP  0  0  0  0  0  0  0  0  0  0  0  0  # atno 17395 bound_to 11000

$$$$
