AV-unprocessed.smi:2583|AV-procd|sdf|10136|dock4
  -GOLD-   2272014153D 1   1.00000     0.00000
 Structure written by MMmdl.
 55 57  0  0  0  0  0  0  0  0  3 V2000
  153.5538  142.3682  161.2459 C   0  0  0  0  0  0  0  0  0  0  0  0
  152.5111  143.1750  160.5007 C   0  0  0  0  0  0  0  0  0  0  0  0
  152.0770  144.4266  160.9841 C   0  0  0  0  0  0  0  0  0  0  0  0
  151.1414  145.1758  160.3640 N   0  0  0  0  0  0  0  0  0  0  0  0
  150.6044  144.6970  159.2222 C   0  0  0  0  0  0  0  0  0  0  0  0
  150.9727  143.4664  158.6389 C   0  0  0  0  0  0  0  0  0  0  0  0
  150.3131  143.0728  157.4438 N   0  0  0  0  0  0  0  0  0  0  0  0
  150.4943  141.9572  156.7168 C   0  0  0  0  0  0  0  0  0  0  0  0
  151.3218  141.0785  156.9564 O   0  0  0  0  0  0  0  0  0  0  0  0
  149.6614  141.9271  155.6662 N   0  0  0  0  0  0  0  0  0  0  0  0
  149.5919  140.8693  154.6613 C   0  0  2  0  0  0  0  0  0  0  0  0
  148.2503  140.9459  153.9083 C   0  0  0  0  0  0  0  0  0  0  0  0
  148.0677  139.7375  152.9689 C   0  0  0  0  0  0  0  0  0  0  0  0
  148.1728  138.4428  153.7024 N   0  3  2  0  0  0  0  0  0  0  0  0
  147.0155  138.1215  154.6080 C   0  0  2  0  0  0  0  0  0  0  0  0
  147.1750  136.7452  155.3033 C   0  0  0  0  0  0  0  0  0  0  0  0
  145.9590  136.3787  156.1710 C   0  0  0  0  0  0  0  0  0  0  0  0
  144.7104  136.3929  155.3752 N   0  3  1  0  0  0  0  0  0  0  0  0
  143.5411  135.9267  156.1514 C   0  0  0  0  0  0  0  0  0  0  0  0
  144.4841  137.7169  154.7521 C   0  0  0  0  0  0  0  0  0  0  0  0
  145.6642  138.1148  153.8494 C   0  0  0  0  0  0  0  0  0  0  0  0
  149.5223  138.3514  154.3306 C   0  0  0  0  0  0  0  0  0  0  0  0
  149.7636  139.4952  155.3348 C   0  0  0  0  0  0  0  0  0  0  0  0
  151.9463  142.6845  159.3062 C   0  0  0  0  0  0  0  0  0  0  0  0
  153.9159  142.9021  162.1249 H   0  0  0  0  0  0  0  0  0  0  0  0
  154.4057  142.1606  160.5981 H   0  0  0  0  0  0  0  0  0  0  0  0
  153.1319  141.4178  161.5737 H   0  0  0  0  0  0  0  0  0  0  0  0
  152.4840  144.8369  161.8965 H   0  0  0  0  0  0  0  0  0  0  0  0
  149.8562  145.3214  158.7558 H   0  0  0  0  0  0  0  0  0  0  0  0
  149.6580  143.7449  157.0723 H   0  0  0  0  0  0  0  0  0  0  0  0
  149.0233  142.7014  155.5544 H   0  0  0  0  0  0  0  0  0  0  0  0
  150.3943  140.9828  153.9301 H   0  0  0  0  0  0  0  0  0  0  0  0
  147.4215  140.9970  154.6149 H   0  0  0  0  0  0  0  0  0  0  0  0
  148.2077  141.8687  153.3280 H   0  0  0  0  0  0  0  0  0  0  0  0
  147.1417  139.8185  152.4041 H   0  0  0  0  0  0  0  0  0  0  0  0
  148.8516  139.7604  152.2105 H   0  0  0  0  0  0  0  0  0  0  0  0
  146.9577  138.8815  155.3872 H   0  0  0  0  0  0  0  0  0  0  0  0
  147.3364  135.9678  154.5549 H   0  0  0  0  0  0  0  0  0  0  0  0
  148.0436  136.7353  155.9597 H   0  0  0  0  0  0  0  0  0  0  0  0
  146.1058  135.3873  156.6020 H   0  0  0  0  0  0  0  0  0  0  0  0
  145.8696  137.0764  157.0056 H   0  0  0  0  0  0  0  0  0  0  0  0
  143.3367  136.5919  156.9915 H   0  0  0  0  0  0  0  0  0  0  0  0
  143.7141  134.9239  156.5433 H   0  0  0  0  0  0  0  0  0  0  0  0
  142.6517  135.8878  155.5215 H   0  0  0  0  0  0  0  0  0  0  0  0
  143.5674  137.6901  154.1613 H   0  0  0  0  0  0  0  0  0  0  0  0
  144.3369  138.4678  155.5305 H   0  0  0  0  0  0  0  0  0  0  0  0
  145.4341  139.0994  153.4462 H   0  0  0  0  0  0  0  0  0  0  0  0
  145.7193  137.4325  152.9999 H   0  0  0  0  0  0  0  0  0  0  0  0
  149.6997  137.3817  154.7905 H   0  0  0  0  0  0  0  0  0  0  0  0
  150.2696  138.4156  153.5382 H   0  0  0  0  0  0  0  0  0  0  0  0
  150.7697  139.4123  155.7477 H   0  0  0  0  0  0  0  0  0  0  0  0
  149.0818  139.3991  156.1805 H   0  0  0  0  0  0  0  0  0  0  0  0
  152.2555  141.7192  158.9365 H   0  0  0  0  0  0  0  0  0  0  0  0
  148.1578  137.7258  152.9906 H   0  0  0  0  0  0  0  0  0  0  0  0
  144.8344  135.7310  154.6222 H   0  0  0  0  0  0  0  0  0  0  0  0
  1  2  1  0  0  0  0
  1 25  1  0  0  0  0
  1 26  1  0  0  0  0
  1 27  1  0  0  0  0
  2 24  1  0  0  0  0
  2  3  2  0  0  0  0
  3  4  1  0  0  0  0
  3 28  1  0  0  0  0
  4  5  2  0  0  0  0
  5  6  1  0  0  0  0
  5 29  1  0  0  0  0
  6  7  1  0  0  0  0
  6 24  2  0  0  0  0
  7  8  1  0  0  0  0
  7 30  1  0  0  0  0
  8  9  2  0  0  0  0
  8 10  1  0  0  0  0
 10 11  1  0  0  0  0
 10 31  1  0  0  0  0
 11 23  1  0  0  0  0
 11 12  1  0  0  0  0
 11 32  1  0  0  0  0
 12 13  1  0  0  0  0
 12 33  1  0  0  0  0
 12 34  1  0  0  0  0
 13 14  1  0  0  0  0
 13 35  1  0  0  0  0
 13 36  1  0  0  0  0
 14 15  1  0  0  0  0
 14 22  1  0  0  0  0
 14 54  1  0  0  0  0
 15 21  1  0  0  0  0
 15 16  1  0  0  0  0
 15 37  1  0  0  0  0
 16 17  1  0  0  0  0
 16 38  1  0  0  0  0
 16 39  1  0  0  0  0
 17 18  1  0  0  0  0
 17 40  1  0  0  0  0
 17 41  1  0  0  0  0
 18 19  1  0  0  0  0
 18 20  1  0  0  0  0
 18 55  1  0  0  0  0
 19 42  1  0  0  0  0
 19 43  1  0  0  0  0
 19 44  1  0  0  0  0
 20 21  1  0  0  0  0
 20 45  1  0  0  0  0
 20 46  1  0  0  0  0
 21 47  1  0  0  0  0
 21 48  1  0  0  0  0
 22 23  1  0  0  0  0
 22 49  1  0  0  0  0
 22 50  1  0  0  0  0
 23 51  1  0  0  0  0
 23 52  1  0  0  0  0
 24 53  1  0  0  0  0
M  CHG  1  14   1
M  CHG  1  18   1
M  END
> <s_m_source_file>
AV-unprocessed.smi

> <i_m_source_file_index>
2583

> <i_lp_mmshare_version>
43012

> <i_f3d_flags>
0

> <s_epik_input>
W0NIM11jMVtjSF1uW2NIXWMoW2NIXTEpW05IXUMoPU8pW05IXVtDSF0yW0NIMl1bQ0gyXU4oW0NIMl1bQ0gyXTIpW0NIXTNbQ0gyXVtDSDJdTihbQ0gzXSlbQ0gyXVtDSDJdMw==

> <s_epik_cmdline>
J2VwaWtfcHl0aG9uJywgJy1waCcsICc3LjAnLCAnLXRuJywgJzgnLCAnLW1hJywgJzIwMCcsICctbWV0YWxfYmluZGluZycsICctaW1hZScsICc8aW5maWxlLm1hZT4nLCAnLW9tYWUnLCAnPG91dGZpbGUubWFlPic=

> <r_epik_Ionization_Penalty>
0.188357

> <r_epik_Ionization_Penalty_Charging>
0.180787

> <r_epik_Ionization_Penalty_Neutral>
0.00756971

> <r_epik_State_Penalty>
0.157948

> <r_epik_Charging_Adjusted_Penalty>
0.338735

> <i_epik_Tot_Q>
2

> <i_epik_Tot_abs_Q>
2

> <r_epik_Metal_State_Penalty>
0.153874

> <b_epik_Metal_Only>
0

> <s_lp_Force_Field>
OPLS_2005

> <r_lp_Energy>
45.5267

> <b_lp_Chiralities_Consistent>
1

> <s_lp_Variant>
AV-unprocessed.smi:2583-2

> <Gold.Version>
5.8.1

> <Gold.Id.Protein>
6NUR|6NUR_protein|mol2

> <Gold.PLP.Fitness>
48.8690

> <Gold.PLP.PLP>
-34.7311

> <Gold.PLP.part.hbond>
-3.0562

> <Gold.PLP.part.metal>
0.0000

> <Gold.PLP.part.buried>
-0.3691

> <Gold.PLP.part.nonpolar>
-32.6309

> <Gold.PLP.part.repulsive>
0.3935

> <Gold.PLP.ligand.clash>
0.0000

> <Gold.PLP.ligand.torsion>
0.2963

> <Gold.PLP.Chemscore.Hbond>
3.8960

> <Gold.PLP.Chemscore.CHOScore>
1.0000

> <Gold.PLP.Chemscore.Metal>
0.0000

> <Gold.Chemscore.Hbonds>
donor molecule, donor type, donor heavy atom, donor atom, acceptor molecule, acceptor atom, score
      L1  H     7    30       P1  8028  1.00
      L1  H    10    31       P1  8028  0.88
      L1  H    14    54       P1  7948  2.00
      L1  C     5    29       P1  8029  1.00

> <Gold.PLP.Chemscore.Internal.Correction>
0.0425

> <Gold.Rescore>
     Score         DG    S(hbond)    S(metal)    S(lipo)     H(rot)  DE(clash)    DE(int)     intcor
     19.22     -24.18       2.77        0.00     107.13       1.21       1.89       3.07       ----

> <Gold.Chemscore.Fitness>
19.2234

> <Gold.Chemscore.DG>
-24.1783

> <Gold.Chemscore.ZeroCoef>
-5.4800

> <Gold.Chemscore.Hbond>
2.7722

> <Gold.Chemscore.Metal>
0.0000

> <Gold.Chemscore.Lipo>
107.1334

> <Gold.Chemscore.Internal_Hbond>
0.0000

> <Gold.Chemscore.DEClash>
1.8867

> <Gold.Chemscore.DEInternal>
3.0682

> <Gold.Chemscore.Rot>
1.2092

> <Gold.Chemscore.Internal.Correction>
   9.000000E+99

> <Gold.Chemscore.Hbonds>
donor molecule, donor type, donor heavy atom, donor atom, acceptor molecule, acceptor atom, score
      L1  H     7    30       P1  8028  0.85
      L1  H    10    31       P1  8028  0.82
      L1  H    14    54       P1  7948  0.92

> <Gold.Chemscore.Hbond.Weighted>
-9.2592

> <Gold.Chemscore.Metal.Weighted>
-0.0000

> <Gold.Chemscore.Lipo.Weighted>
-12.5346

> <Gold.Chemscore.Internal_Hbond.Weighted>
0.0000

> <Gold.Chemscore.DEClash.Weighted>
1.8867

> <Gold.Chemscore.DEInternal.Weighted>
3.0682

> <Gold.Chemscore.Rot.Weighted>
3.0955

> <Gold.Chemscore.Internal.Correction.Weighted>
   9.000000E+99

> <Gold.Protein.RotatedTorsions>
[ 6907 6896 6895 6894 ] final  148.81 input  -60.11 | X-H torsion
[ 7974 7965 7964 7962 ] final  -42.23 input  175.53 | X-H torsion
[ 8008 7997 7996 7995 ] final  110.09 input   59.86 | X-H torsion
[ 10167 10162 10161 10158 ] final   16.13 input  -65.29 | X-H torsion
[ 10718 10713 10712 10709 ] final   15.38 input   66.30 | X-H torsion
[ 10763 10752 10751 10750 ] final   36.74 input  -60.55 | X-H torsion
[ 11005 11000 10999 10996 ] final   89.16 input  -57.11 | X-H torsion

> <Gold.Protein.ActiveResidues>
 VAL166  LYS551  ARG553  GLY616  TRP617  ASP618  TYR619  PRO620  LYS621  CYS622 
 ASP623  PHE694  ASN695  SER759  ASP760  ASP761  ALA762  ILE779  LEU786  VAL792 
 PHE793  MET794  SER795  GLU796  ALA797  LYS798  CYS799  TRP800  GLU811  SER814 

> <Gold.Protein.RotatedAtoms>
  152.1364  133.4438  159.4745 H   0  0  0  0  0  0  0  0  0  0  0  0  # atno 6907 bound_to 6896
  150.6882  134.2358  159.4462 H   0  0  0  0  0  0  0  0  0  0  0  0  # atno 6908 bound_to 6896
  152.0246  134.9803  160.0622 H   0  0  0  0  0  0  0  0  0  0  0  0  # atno 6909 bound_to 6896
  146.0136  140.6935  142.9212 H   0  0  0  0  0  0  0  0  0  0  0  0  # atno 7974 bound_to 7965
  156.2028  140.3045  155.9562 H   0  0  0  0  0  0  0  0  0  0  0  0  # atno 8008 bound_to 7997
  155.2914  140.0442  157.3040 H   0  0  0  0  0  0  0  0  0  0  0  0  # atno 8009 bound_to 7997
  154.5593  140.2315  155.8370 H   0  0  0  0  0  0  0  0  0  0  0  0  # atno 8010 bound_to 7997
  140.5819  143.8964  150.6797 H   0  0  0  0  0  0  0  0  0  0  0  0  # atno 10167 bound_to 10162
  157.0527  130.6276  149.5771 H   0  0  0  0  0  0  0  0  0  0  0  0  # atno 10718 bound_to 10713
  153.0065  135.6297  154.2033 H   0  0  0  0  0  0  0  0  0  0  0  0  # atno 10763 bound_to 10752
  154.1776  135.2815  155.3063 H   0  0  0  0  0  0  0  0  0  0  0  0  # atno 10764 bound_to 10752
  154.5859  135.5633  153.7291 H   0  0  0  0  0  0  0  0  0  0  0  0  # atno 10765 bound_to 10752
  139.8881  134.8534  156.3103 H   0  0  0  0  0  0  0  0  0  0  0  0  # atno 11005 bound_to 11000
  144.6962  140.3441  143.7194 LP  0  0  0  0  0  0  0  0  0  0  0  0  # atno 17320 bound_to 7965
  145.7304  139.1734  143.2434 LP  0  0  0  0  0  0  0  0  0  0  0  0  # atno 17321 bound_to 7965
  140.2466  143.3624  152.1442 LP  0  0  0  0  0  0  0  0  0  0  0  0  # atno 17342 bound_to 10162
  139.5175  144.6992  151.5542 LP  0  0  0  0  0  0  0  0  0  0  0  0  # atno 17343 bound_to 10162
  156.0002  130.5080  150.7636 LP  0  0  0  0  0  0  0  0  0  0  0  0  # atno 17370 bound_to 10713
  157.5017  131.0919  151.0306 LP  0  0  0  0  0  0  0  0  0  0  0  0  # atno 17371 bound_to 10713
  140.9855  133.7241  156.0735 LP  0  0  0  0  0  0  0  0  0  0  0  0  # atno 17394 bound_to 11000
  140.7694  134.3850  157.5510 LP  0  0  0  0  0  0  0  0  0  0  0  0  # atno 17395 bound_to 11000

$$$$
