AV-unprocessed.smi:148|AV-procd|sdf|1202|dock7
  -GOLD-   2262018363D 1   1.00000     0.00000
 Structure written by MMmdl.
 63 67  0  0  0  0  0  0  0  0  1 V2000
  146.7033  134.4195  151.5049 O   0  0  0  0  0  0  0  0  0  0  0  0
  145.6144  134.5040  152.4003 C   0  0  0  0  0  0  0  0  0  0  0  0
  145.3355  133.1398  153.0746 C   0  0  2  0  0  0  0  0  0  0  0  0
  146.5384  132.6730  153.9352 C   0  0  0  0  0  0  0  0  0  0  0  0
  146.4472  133.1255  155.3120 N   0  0  0  0  0  0  0  0  0  0  0  0
  145.3186  133.5862  155.9509 C   0  0  0  0  0  0  0  0  0  0  0  0
  145.4910  133.9449  157.1938 N   0  0  0  0  0  0  0  0  0  0  0  0
  146.8408  133.7119  157.4293 C   0  0  0  0  0  0  0  0  0  0  0  0
  147.7016  133.8879  158.5497 C   0  0  0  0  0  0  0  0  0  0  0  0
  147.3197  134.3904  159.7458 N   0  0  0  0  0  0  0  0  0  0  0  0
  147.8220  135.7559  159.8953 C   0  0  0  0  0  0  0  0  0  0  0  0
  147.2114  136.4459  161.1215 C   0  0  0  0  0  0  0  0  0  0  0  0
  147.4596  135.6075  162.3790 C   0  0  0  0  0  0  0  0  0  0  0  0
  146.9057  134.1900  162.1815 C   0  0  0  0  0  0  0  0  0  0  0  0
  147.4957  133.5113  160.9172 C   0  0  1  0  0  0  0  0  0  0  0  0
  146.9531  132.0663  160.6794 C   0  0  2  0  0  0  0  0  0  0  0  0
  145.4231  131.9253  160.5542 C   0  0  0  0  0  0  0  0  0  0  0  0
  145.0709  130.5267  161.0874 C   0  0  0  0  0  0  0  0  0  0  0  0
  146.4018  129.8508  161.4301 C   0  0  0  0  0  0  0  0  0  0  0  0
  147.3491  131.0128  161.7246 C   0  0  1  0  0  0  0  0  0  0  0  0
  148.7009  130.6214  161.6020 O   0  0  0  0  0  0  0  0  0  0  0  0
  149.0013  133.5260  158.4174 N   0  0  0  0  0  0  0  0  0  0  0  0
  149.4438  133.0400  157.2538 C   0  0  0  0  0  0  0  0  0  0  0  0
  148.7658  132.8350  156.1221 N   0  0  0  0  0  0  0  0  0  0  0  0
  147.4546  133.1856  156.2588 C   0  0  0  0  0  0  0  0  0  0  0  0
  144.8604  132.0733  152.0493 C   0  0  2  0  0  0  0  0  0  0  0  0
  145.9356  131.5486  151.0952 C   0  0  0  0  0  0  0  0  0  0  0  0
  145.3115  131.6997  149.7086 C   0  0  0  0  0  0  0  0  0  0  0  0
  143.9159  131.6974  149.9606 O   0  0  0  0  0  0  0  0  0  0  0  0
  143.7133  132.4911  151.1179 C   0  0  0  0  0  0  0  0  0  0  0  0
  147.4726  134.7605  151.9350 H   0  0  0  0  0  0  0  0  0  0  0  0
  145.8155  135.2739  153.1453 H   0  0  0  0  0  0  0  0  0  0  0  0
  144.7545  134.8412  151.8223 H   0  0  0  0  0  0  0  0  0  0  0  0
  144.5021  133.2946  153.7619 H   0  0  0  0  0  0  0  0  0  0  0  0
  146.6152  131.5869  153.9545 H   0  0  0  0  0  0  0  0  0  0  0  0
  147.4773  133.0372  153.5199 H   0  0  0  0  0  0  0  0  0  0  0  0
  144.3586  133.6539  155.4598 H   0  0  0  0  0  0  0  0  0  0  0  0
  148.9087  135.7330  159.9898 H   0  0  0  0  0  0  0  0  0  0  0  0
  147.5938  136.3384  159.0013 H   0  0  0  0  0  0  0  0  0  0  0  0
  147.6395  137.4411  161.2425 H   0  0  0  0  0  0  0  0  0  0  0  0
  146.1394  136.5819  160.9727 H   0  0  0  0  0  0  0  0  0  0  0  0
  148.5292  135.5608  162.5874 H   0  0  0  0  0  0  0  0  0  0  0  0
  146.9915  136.0779  163.2443 H   0  0  0  0  0  0  0  0  0  0  0  0
  147.1323  133.6111  163.0752 H   0  0  0  0  0  0  0  0  0  0  0  0
  145.8199  134.2470  162.1157 H   0  0  0  0  0  0  0  0  0  0  0  0
  148.5689  133.4254  161.0888 H   0  0  0  0  0  0  0  0  0  0  0  0
  147.3654  131.6965  159.7392 H   0  0  0  0  0  0  0  0  0  0  0  0
  144.8906  132.6795  161.1313 H   0  0  0  0  0  0  0  0  0  0  0  0
  145.1093  132.0430  159.5166 H   0  0  0  0  0  0  0  0  0  0  0  0
  144.4628  130.6227  161.9875 H   0  0  0  0  0  0  0  0  0  0  0  0
  144.4966  129.9436  160.3666 H   0  0  0  0  0  0  0  0  0  0  0  0
  146.3170  129.1538  162.2642 H   0  0  0  0  0  0  0  0  0  0  0  0
  146.7553  129.2893  160.5635 H   0  0  0  0  0  0  0  0  0  0  0  0
  147.1628  131.3621  162.7390 H   0  0  0  0  0  0  0  0  0  0  0  0
  148.9640  130.1944  162.4031 H   0  0  0  0  0  0  0  0  0  0  0  0
  150.4921  132.7819  157.2243 H   0  0  0  0  0  0  0  0  0  0  0  0
  144.5118  131.2016  152.6048 H   0  0  0  0  0  0  0  0  0  0  0  0
  146.8902  132.0687  151.1667 H   0  0  0  0  0  0  0  0  0  0  0  0
  146.1304  130.4961  151.3055 H   0  0  0  0  0  0  0  0  0  0  0  0
  145.5961  132.6524  149.2588 H   0  0  0  0  0  0  0  0  0  0  0  0
  145.5996  130.8989  149.0274 H   0  0  0  0  0  0  0  0  0  0  0  0
  142.7320  132.3097  151.5571 H   0  0  0  0  0  0  0  0  0  0  0  0
  143.7650  133.5408  150.8311 H   0  0  0  0  0  0  0  0  0  0  0  0
  1  2  1  0  0  0  0
  1 31  1  0  0  0  0
  2  3  1  0  0  0  0
  2 32  1  0  0  0  0
  2 33  1  0  0  0  0
  3  4  1  0  0  0  0
  3 26  1  0  0  0  0
  3 34  1  0  0  0  0
  4  5  1  0  0  0  0
  4 35  1  0  0  0  0
  4 36  1  0  0  0  0
  5 25  1  0  0  0  0
  5  6  1  0  0  0  0
  6  7  2  0  0  0  0
  6 37  1  0  0  0  0
  7  8  1  0  0  0  0
  8 25  2  0  0  0  0
  8  9  1  0  0  0  0
  9 10  1  0  0  0  0
  9 22  2  0  0  0  0
 10 15  1  0  0  0  0
 10 11  1  0  0  0  0
 11 12  1  0  0  0  0
 11 38  1  0  0  0  0
 11 39  1  0  0  0  0
 12 13  1  0  0  0  0
 12 40  1  0  0  0  0
 12 41  1  0  0  0  0
 13 14  1  0  0  0  0
 13 42  1  0  0  0  0
 13 43  1  0  0  0  0
 14 15  1  0  0  0  0
 14 44  1  0  0  0  0
 14 45  1  0  0  0  0
 15 16  1  0  0  0  0
 15 46  1  0  0  0  0
 16 20  1  0  0  0  0
 16 17  1  0  0  0  0
 16 47  1  0  0  0  0
 17 18  1  0  0  0  0
 17 48  1  0  0  0  0
 17 49  1  0  0  0  0
 18 19  1  0  0  0  0
 18 50  1  0  0  0  0
 18 51  1  0  0  0  0
 19 20  1  0  0  0  0
 19 52  1  0  0  0  0
 19 53  1  0  0  0  0
 20 21  1  0  0  0  0
 20 54  1  0  0  0  0
 21 55  1  0  0  0  0
 22 23  1  0  0  0  0
 23 24  2  0  0  0  0
 23 56  1  0  0  0  0
 24 25  1  0  0  0  0
 26 30  1  0  0  0  0
 26 27  1  0  0  0  0
 26 57  1  0  0  0  0
 27 28  1  0  0  0  0
 27 58  1  0  0  0  0
 27 59  1  0  0  0  0
 28 29  1  0  0  0  0
 28 60  1  0  0  0  0
 28 61  1  0  0  0  0
 29 30  1  0  0  0  0
 30 62  1  0  0  0  0
 30 63  1  0  0  0  0
M  END
> <s_m_source_file>
AV-unprocessed.smi

> <i_m_source_file_index>
148

> <i_lp_mmshare_version>
43012

> <i_f3d_flags>
0

> <s_epik_input>
W0NIMl0xT1tDSDJdW0NIMl1bQ0BIXTFbQ0BIXShbQ0gyXVtPSF0pW0NIMl1uKFtjSF1uMiljKGMyMyluW2NIXW5jM040W0NIMl1bQ0gyXVtDSDJdW0NIMl1bQ0BIXTRbQ0BASF01W0NIMl1bQ0gyXVtDSDJdW0NASF01W09IXQ==

> <s_epik_cmdline>
J2VwaWtfcHl0aG9uJywgJy1waCcsICc3LjAnLCAnLXRuJywgJzgnLCAnLW1hJywgJzIwMCcsICctbWV0YWxfYmluZGluZycsICctaW1hZScsICc8aW5maWxlLm1hZT4nLCAnLW9tYWUnLCAnPG91dGZpbGUubWFlPic=

> <r_lp_tautomer_probability>
1

> <r_epik_Ionization_Penalty>
0.00556303

> <r_epik_Ionization_Penalty_Charging>
0

> <r_epik_Ionization_Penalty_Neutral>
0.00556303

> <r_epik_State_Penalty>
0.00401767

> <r_epik_Charging_Adjusted_Penalty>
0.00401767

> <i_epik_Tot_Q>
0

> <i_epik_Tot_abs_Q>
0

> <r_epik_Metal_State_Penalty>
-0

> <b_epik_Metal_Only>
0

> <s_lp_Force_Field>
OPLS_2005

> <r_lp_Energy>
68.457

> <b_lp_Chiralities_Consistent>
1

> <s_lp_Variant>
AV-unprocessed.smi:148-1

> <Gold.Version>
5.8.1

> <Gold.Id.Protein>
6NUR|6NUR_protein|mol2

> <Gold.PLP.Fitness>
47.0193

> <Gold.PLP.PLP>
-38.1491

> <Gold.PLP.part.hbond>
-3.0000

> <Gold.PLP.part.metal>
0.0000

> <Gold.PLP.part.buried>
-6.8073

> <Gold.PLP.part.nonpolar>
-29.8323

> <Gold.PLP.part.repulsive>
0.2085

> <Gold.PLP.ligand.clash>
0.0031

> <Gold.PLP.ligand.torsion>
1.0101

> <Gold.PLP.Chemscore.Hbond>
2.5070

> <Gold.PLP.Chemscore.CHOScore>
0.9912

> <Gold.PLP.Chemscore.Metal>
0.0000

> <Gold.Chemscore.Hbonds>
donor molecule, donor type, donor heavy atom, donor atom, acceptor molecule, acceptor atom, score
      L1  H     1    31       P1  7948  0.86
      P1  H  6896  6908       L1    22  0.90
      P1  H 10785 10796       L1    29  0.65
      L1  C     6    37       P1 10957  0.78

> <Gold.PLP.Chemscore.Internal.Correction>
0.3991

> <Gold.Rescore>
     Score         DG    S(hbond)    S(metal)    S(lipo)     H(rot)  DE(clash)    DE(int)     intcor
     15.10     -16.29       2.28        0.00      99.93       3.32       0.07       1.13       ----

> <Gold.Chemscore.Fitness>
15.0967

> <Gold.Chemscore.DG>
-16.2924

> <Gold.Chemscore.ZeroCoef>
-5.4800

> <Gold.Chemscore.Hbond>
2.2817

> <Gold.Chemscore.Metal>
0.0000

> <Gold.Chemscore.Lipo>
99.9265

> <Gold.Chemscore.Internal_Hbond>
0.0000

> <Gold.Chemscore.DEClash>
0.0673

> <Gold.Chemscore.DEInternal>
1.1284

> <Gold.Chemscore.Rot>
3.3203

> <Gold.Chemscore.Internal.Correction>
   9.000000E+99

> <Gold.Chemscore.Hbonds>
donor molecule, donor type, donor heavy atom, donor atom, acceptor molecule, acceptor atom, score
      L1  H     1    31       P1  7948  0.59
      P1  H  6896  6908       L1    22  0.50
      P1  H 10785 10796       L1    29  0.25

> <Gold.Chemscore.Hbond.Weighted>
-7.6210

> <Gold.Chemscore.Metal.Weighted>
-0.0000

> <Gold.Chemscore.Lipo.Weighted>
-11.6914

> <Gold.Chemscore.Internal_Hbond.Weighted>
0.0000

> <Gold.Chemscore.DEClash.Weighted>
0.0673

> <Gold.Chemscore.DEInternal.Weighted>
1.1284

> <Gold.Chemscore.Rot.Weighted>
8.5000

> <Gold.Chemscore.Internal.Correction.Weighted>
   9.000000E+99

> <Gold.Protein.RotatedTorsions>
[ 6907 6896 6895 6894 ] final  152.13 input  -60.11 | X-H torsion
[ 7974 7965 7964 7962 ] final    1.62 input  175.53 | X-H torsion
[ 8008 7997 7996 7995 ] final   -5.37 input   59.86 | X-H torsion
[ 10167 10162 10161 10158 ] final  145.94 input  -65.29 | X-H torsion
[ 10718 10713 10712 10709 ] final  -48.53 input   66.30 | X-H torsion
[ 10763 10752 10751 10750 ] final  -16.64 input  -60.55 | X-H torsion
[ 11005 11000 10999 10996 ] final  166.47 input  -57.11 | X-H torsion

> <Gold.Protein.ActiveResidues>
 VAL166  LYS551  ARG553  GLY616  TRP617  ASP618  TYR619  PRO620  LYS621  CYS622 
 ASP623  PHE694  ASN695  SER759  ASP760  ASP761  ALA762  ILE779  LEU786  VAL792 
 PHE793  MET794  SER795  GLU796  ALA797  LYS798  CYS799  TRP800  GLU811  SER814 

> <Gold.Protein.RotatedAtoms>
  152.0910  133.4200  159.4543 H   0  0  0  0  0  0  0  0  0  0  0  0  # atno 6907 bound_to 6896
  150.6862  134.2872  159.4661 H   0  0  0  0  0  0  0  0  0  0  0  0  # atno 6908 bound_to 6896
  152.0723  134.9525  160.0625 H   0  0  0  0  0  0  0  0  0  0  0  0  # atno 6909 bound_to 6896
  146.2441  140.0959  142.8350 H   0  0  0  0  0  0  0  0  0  0  0  0  # atno 7974 bound_to 7965
  154.6046  140.2460  155.7748 H   0  0  0  0  0  0  0  0  0  0  0  0  # atno 8008 bound_to 7997
  156.2332  140.2959  156.0196 H   0  0  0  0  0  0  0  0  0  0  0  0  # atno 8009 bound_to 7997
  155.2154  140.0398  157.2930 H   0  0  0  0  0  0  0  0  0  0  0  0  # atno 8010 bound_to 7997
  139.4916  144.5865  151.6767 H   0  0  0  0  0  0  0  0  0  0  0  0  # atno 10167 bound_to 10162
  156.1979  130.4155  149.9281 H   0  0  0  0  0  0  0  0  0  0  0  0  # atno 10718 bound_to 10713
  153.5616  135.7009  153.5544 H   0  0  0  0  0  0  0  0  0  0  0  0  # atno 10763 bound_to 10752
  153.3424  135.4017  155.1582 H   0  0  0  0  0  0  0  0  0  0  0  0  # atno 10764 bound_to 10752
  154.8647  135.3745  154.5134 H   0  0  0  0  0  0  0  0  0  0  0  0  # atno 10765 bound_to 10752
  140.2668  134.7858  157.3640 H   0  0  0  0  0  0  0  0  0  0  0  0  # atno 11005 bound_to 11000
  145.0610  140.9087  143.4939 LP  0  0  0  0  0  0  0  0  0  0  0  0  # atno 17320 bound_to 7965
  145.1075  139.2780  143.5654 LP  0  0  0  0  0  0  0  0  0  0  0  0  # atno 17321 bound_to 7965
  140.5483  144.0467  150.6116 LP  0  0  0  0  0  0  0  0  0  0  0  0  # atno 17342 bound_to 10162
  140.3513  143.2961  152.0484 LP  0  0  0  0  0  0  0  0  0  0  0  0  # atno 17343 bound_to 10162
  156.7000  130.8929  151.3598 LP  0  0  0  0  0  0  0  0  0  0  0  0  # atno 17370 bound_to 10713
  157.6968  130.9291  150.0669 LP  0  0  0  0  0  0  0  0  0  0  0  0  # atno 17371 bound_to 10713
  140.1411  134.4970  155.8031 LP  0  0  0  0  0  0  0  0  0  0  0  0  # atno 17394 bound_to 11000
  141.2183  133.6826  156.7212 LP  0  0  0  0  0  0  0  0  0  0  0  0  # atno 17395 bound_to 11000

$$$$
