AV-unprocessed.smi:155|AV-procd|sdf|1281|dock3
  -GOLD-   2262018553D 1   1.00000     0.00000
 Structure written by MMmdl.
 64 67  0  0  0  0  0  0  0  0  3 V2000
  145.7361  138.0765  154.1140 C   0  0  0  0  0  0  0  0  0  0  0  0
  145.8206  139.3607  153.3796 N   0  3  0  0  0  0  0  0  0  0  0  0
  146.1402  139.1417  151.9509 C   0  0  0  0  0  0  0  0  0  0  0  0
  146.7365  140.3437  154.0146 C   0  0  0  0  0  0  0  0  0  0  0  0
  148.2147  140.1182  153.6273 C   0  0  0  0  0  0  0  0  0  0  0  0
  149.1369  140.1711  154.7945 N   0  3  2  0  0  0  0  0  0  0  0  0
  149.1818  141.5147  155.4336 C   0  0  0  0  0  0  0  0  0  0  0  0
  149.1597  141.3895  156.9673 C   0  0  0  0  0  0  0  0  0  0  0  0
  150.4805  140.8822  157.5706 C   0  0  0  0  0  0  0  0  0  0  0  0
  150.9107  139.6099  156.9952 N   0  0  0  0  0  0  0  0  0  0  0  0
  150.4124  138.4126  157.4319 C   0  0  0  0  0  0  0  0  0  0  0  0
  149.6600  138.4172  158.5661 N   0  0  0  0  0  0  0  0  0  0  0  0
  149.1433  137.2898  159.0598 C   0  0  0  0  0  0  0  0  0  0  0  0
  149.2542  136.0495  158.5886 N   0  0  0  0  0  0  0  0  0  0  0  0
  150.0017  136.0225  157.4503 C   0  0  0  0  0  0  0  0  0  0  0  0
  150.6135  137.1400  156.8067 C   0  0  0  0  0  0  0  0  0  0  0  0
  151.2950  136.6926  155.6781 N   0  0  0  0  0  0  0  0  0  0  0  0
  151.0939  135.4045  155.6530 C   0  0  0  0  0  0  0  0  0  0  0  0
  150.3246  134.9189  156.6821 N   0  0  0  0  0  0  0  0  0  0  0  0
  149.9408  133.5360  156.9043 C   0  0  0  0  0  0  0  0  0  0  0  0
  150.9336  132.5431  156.2639 C   0  0  1  0  0  0  0  0  0  0  0  0
  151.8864  132.1093  157.2147 O   0  0  0  0  0  0  0  0  0  0  0  0
  150.2723  131.3066  155.6206 C   0  0  2  0  0  0  0  0  0  0  0  0
  151.2231  130.4507  154.7833 C   0  0  0  0  0  0  0  0  0  0  0  0
  150.2531  129.7015  153.8984 C   0  0  0  0  0  0  0  0  0  0  0  0
  149.1984  130.7669  153.6109 C   0  0  0  0  0  0  0  0  0  0  0  0
  149.2342  131.6706  154.7132 O   0  0  0  0  0  0  0  0  0  0  0  0
  151.5063  139.6988  155.6586 C   0  0  0  0  0  0  0  0  0  0  0  0
  150.4842  139.6011  154.5025 C   0  0  0  0  0  0  0  0  0  0  0  0
  146.7080  137.5826  154.1510 H   0  0  0  0  0  0  0  0  0  0  0  0
  145.0340  137.4012  153.6239 H   0  0  0  0  0  0  0  0  0  0  0  0
  145.3861  138.2167  155.1358 H   0  0  0  0  0  0  0  0  0  0  0  0
  147.1358  138.7109  151.8345 H   0  0  0  0  0  0  0  0  0  0  0  0
  146.1051  140.0794  151.3950 H   0  0  0  0  0  0  0  0  0  0  0  0
  145.4192  138.4634  151.4928 H   0  0  0  0  0  0  0  0  0  0  0  0
  146.4182  141.3564  153.7606 H   0  0  0  0  0  0  0  0  0  0  0  0
  146.6406  140.2518  155.0967 H   0  0  0  0  0  0  0  0  0  0  0  0
  148.3350  139.1698  153.1015 H   0  0  0  0  0  0  0  0  0  0  0  0
  148.5105  140.8994  152.9281 H   0  0  0  0  0  0  0  0  0  0  0  0
  150.0437  142.0877  155.0882 H   0  0  0  0  0  0  0  0  0  0  0  0
  148.3081  142.1010  155.1473 H   0  0  0  0  0  0  0  0  0  0  0  0
  148.9452  142.3684  157.3976 H   0  0  0  0  0  0  0  0  0  0  0  0
  148.3327  140.7457  157.2682 H   0  0  0  0  0  0  0  0  0  0  0  0
  151.2578  141.6227  157.3798 H   0  0  0  0  0  0  0  0  0  0  0  0
  150.4267  140.8260  158.6561 H   0  0  0  0  0  0  0  0  0  0  0  0
  148.5589  137.3969  159.9619 H   0  0  0  0  0  0  0  0  0  0  0  0
  151.5007  134.7707  154.8778 H   0  0  0  0  0  0  0  0  0  0  0  0
  149.8691  133.3677  157.9796 H   0  0  0  0  0  0  0  0  0  0  0  0
  148.9387  133.3938  156.4996 H   0  0  0  0  0  0  0  0  0  0  0  0
  151.5019  133.0612  155.4903 H   0  0  0  0  0  0  0  0  0  0  0  0
  151.6255  131.2590  157.5336 H   0  0  0  0  0  0  0  0  0  0  0  0
  149.8395  130.6668  156.3920 H   0  0  0  0  0  0  0  0  0  0  0  0
  151.8793  131.0712  154.1725 H   0  0  0  0  0  0  0  0  0  0  0  0
  151.8444  129.7907  155.3894 H   0  0  0  0  0  0  0  0  0  0  0  0
  150.7140  129.3012  152.9950 H   0  0  0  0  0  0  0  0  0  0  0  0
  149.8084  128.8730  154.4514 H   0  0  0  0  0  0  0  0  0  0  0  0
  149.4474  131.3191  152.7043 H   0  0  0  0  0  0  0  0  0  0  0  0
  148.2045  130.3374  153.4833 H   0  0  0  0  0  0  0  0  0  0  0  0
  152.0202  140.6576  155.5820 H   0  0  0  0  0  0  0  0  0  0  0  0
  152.2946  138.9552  155.5356 H   0  0  0  0  0  0  0  0  0  0  0  0
  150.3637  138.5448  154.2664 H   0  0  0  0  0  0  0  0  0  0  0  0
  150.9034  140.0689  153.6105 H   0  0  0  0  0  0  0  0  0  0  0  0
  144.8972  139.7703  153.3950 H   0  0  0  0  0  0  0  0  0  0  0  0
  148.7228  139.5694  155.4924 H   0  0  0  0  0  0  0  0  0  0  0  0
  1  2  1  0  0  0  0
  1 30  1  0  0  0  0
  1 31  1  0  0  0  0
  1 32  1  0  0  0  0
  2  3  1  0  0  0  0
  2  4  1  0  0  0  0
  2 63  1  0  0  0  0
  3 33  1  0  0  0  0
  3 34  1  0  0  0  0
  3 35  1  0  0  0  0
  4  5  1  0  0  0  0
  4 36  1  0  0  0  0
  4 37  1  0  0  0  0
  5  6  1  0  0  0  0
  5 38  1  0  0  0  0
  5 39  1  0  0  0  0
  6 29  1  0  0  0  0
  6  7  1  0  0  0  0
  6 64  1  0  0  0  0
  7  8  1  0  0  0  0
  7 40  1  0  0  0  0
  7 41  1  0  0  0  0
  8  9  1  0  0  0  0
  8 42  1  0  0  0  0
  8 43  1  0  0  0  0
  9 10  1  0  0  0  0
  9 44  1  0  0  0  0
  9 45  1  0  0  0  0
 10 11  1  0  0  0  0
 10 28  1  0  0  0  0
 11 16  1  0  0  0  0
 11 12  2  0  0  0  0
 12 13  1  0  0  0  0
 13 14  2  0  0  0  0
 13 46  1  0  0  0  0
 14 15  1  0  0  0  0
 15 19  1  0  0  0  0
 15 16  2  0  0  0  0
 16 17  1  0  0  0  0
 17 18  2  0  0  0  0
 18 19  1  0  0  0  0
 18 47  1  0  0  0  0
 19 20  1  0  0  0  0
 20 21  1  0  0  0  0
 20 48  1  0  0  0  0
 20 49  1  0  0  0  0
 21 22  1  0  0  0  0
 21 23  1  0  0  0  0
 21 50  1  0  0  0  0
 22 51  1  0  0  0  0
 23 27  1  0  0  0  0
 23 24  1  0  0  0  0
 23 52  1  0  0  0  0
 24 25  1  0  0  0  0
 24 53  1  0  0  0  0
 24 54  1  0  0  0  0
 25 26  1  0  0  0  0
 25 55  1  0  0  0  0
 25 56  1  0  0  0  0
 26 27  1  0  0  0  0
 26 57  1  0  0  0  0
 26 58  1  0  0  0  0
 28 29  1  0  0  0  0
 28 59  1  0  0  0  0
 28 60  1  0  0  0  0
 29 61  1  0  0  0  0
 29 62  1  0  0  0  0
M  CHG  1   2   1
M  CHG  1   6   1
M  END
> <s_m_source_file>
AV-unprocessed.smi

> <i_m_source_file_index>
155

> <i_lp_mmshare_version>
43012

> <i_f3d_flags>
0

> <s_epik_input>
W0NIM11OKFtDSDNdKVtDSDJdW0NIMl1OMVtDSDJdW0NIMl1bQ0gyXU4oW0NIMl1bQ0gyXTEpYyhuW2NIXW4yKWMoYzIzKW5bY0hdbjNbQ0gyXVtDQEhdKFtPSF0pW0NAQEhdNFtDSDJdW0NIMl1bQ0gyXU80

> <s_epik_cmdline>
J2VwaWtfcHl0aG9uJywgJy1waCcsICc3LjAnLCAnLXRuJywgJzgnLCAnLW1hJywgJzIwMCcsICctbWV0YWxfYmluZGluZycsICctaW1hZScsICc8aW5maWxlLm1hZT4nLCAnLW9tYWUnLCAnPG91dGZpbGUubWFlPic=

> <r_lp_tautomer_probability>
1

> <r_epik_Ionization_Penalty>
3.0333

> <r_epik_Ionization_Penalty_Charging>
3.03317

> <r_epik_Ionization_Penalty_Neutral>
0.000131872

> <r_epik_State_Penalty>
1.99939

> <r_epik_Charging_Adjusted_Penalty>
5.03256

> <i_epik_Tot_Q>
2

> <i_epik_Tot_abs_Q>
2

> <r_epik_Metal_State_Penalty>
2.00021

> <b_epik_Metal_Only>
0

> <s_lp_Force_Field>
OPLS_2005

> <r_lp_Energy>
62.4537

> <b_lp_Chiralities_Consistent>
1

> <s_lp_Variant>
AV-unprocessed.smi:155-15

> <Gold.Version>
5.8.1

> <Gold.Id.Protein>
6NUR|6NUR_protein|mol2

> <Gold.PLP.Fitness>
42.6972

> <Gold.PLP.PLP>
-36.2776

> <Gold.PLP.part.hbond>
-2.5882

> <Gold.PLP.part.metal>
0.0000

> <Gold.PLP.part.buried>
4.4765

> <Gold.PLP.part.nonpolar>
-37.7894

> <Gold.PLP.part.repulsive>
0.2067

> <Gold.PLP.ligand.clash>
0.0000

> <Gold.PLP.ligand.torsion>
1.5487

> <Gold.PLP.Chemscore.Hbond>
3.0000

> <Gold.PLP.Chemscore.CHOScore>
0.0000

> <Gold.PLP.Chemscore.Metal>
0.0000

> <Gold.Chemscore.Hbonds>
donor molecule, donor type, donor heavy atom, donor atom, acceptor molecule, acceptor atom, score
      L1  H     2    63       P1 10175  1.82
      P1  H  6896  6907       L1    22  0.10
      P1  H  6896  6908       L1    14  0.24

> <Gold.PLP.Chemscore.Internal.Correction>
0.5170

> <Gold.Rescore>
     Score         DG    S(hbond)    S(metal)    S(lipo)     H(rot)  DE(clash)    DE(int)     intcor
     11.17     -15.98       1.94        0.00      94.57       2.75       2.45       2.36       ----

> <Gold.Chemscore.Fitness>
11.1650

> <Gold.Chemscore.DG>
-15.9779

> <Gold.Chemscore.ZeroCoef>
-5.4800

> <Gold.Chemscore.Hbond>
1.9376

> <Gold.Chemscore.Metal>
0.0000

> <Gold.Chemscore.Lipo>
94.5679

> <Gold.Chemscore.Internal_Hbond>
0.0000

> <Gold.Chemscore.DEClash>
2.4503

> <Gold.Chemscore.DEInternal>
2.3625

> <Gold.Chemscore.Rot>
2.7493

> <Gold.Chemscore.Internal.Correction>
   9.000000E+99

> <Gold.Chemscore.Hbonds>
donor molecule, donor type, donor heavy atom, donor atom, acceptor molecule, acceptor atom, score
      L1  H     2    63       P1 10175  0.89
      P1  H  6896  6907       L1    22  0.02
      P1  H  6896  6908       L1    14  0.01

> <Gold.Chemscore.Hbond.Weighted>
-6.4717

> <Gold.Chemscore.Metal.Weighted>
-0.0000

> <Gold.Chemscore.Lipo.Weighted>
-11.0644

> <Gold.Chemscore.Internal_Hbond.Weighted>
0.0000

> <Gold.Chemscore.DEClash.Weighted>
2.4503

> <Gold.Chemscore.DEInternal.Weighted>
2.3625

> <Gold.Chemscore.Rot.Weighted>
7.0383

> <Gold.Chemscore.Internal.Correction.Weighted>
   9.000000E+99

> <Gold.Protein.RotatedTorsions>
[ 6907 6896 6895 6894 ] final  175.71 input  -60.11 | X-H torsion
[ 7974 7965 7964 7962 ] final  -23.26 input  175.53 | X-H torsion
[ 8008 7997 7996 7995 ] final -179.17 input   59.86 | X-H torsion
[ 10167 10162 10161 10158 ] final  -84.87 input  -65.29 | X-H torsion
[ 10718 10713 10712 10709 ] final   67.92 input   66.30 | X-H torsion
[ 10763 10752 10751 10750 ] final -162.71 input  -60.55 | X-H torsion
[ 11005 11000 10999 10996 ] final  -16.10 input  -57.11 | X-H torsion

> <Gold.Protein.ActiveResidues>
 VAL166  LYS551  ARG553  GLY616  TRP617  ASP618  TYR619  PRO620  LYS621  CYS622 
 ASP623  PHE694  ASN695  SER759  ASP760  ASP761  ALA762  ILE779  LEU786  VAL792 
 PHE793  MET794  SER795  GLU796  ALA797  LYS798  CYS799  TRP800  GLU811  SER814 

> <Gold.Protein.RotatedAtoms>
  151.7318  133.3318  159.3342 H   0  0  0  0  0  0  0  0  0  0  0  0  # atno 6907 bound_to 6896
  150.7609  134.6356  159.6219 H   0  0  0  0  0  0  0  0  0  0  0  0  # atno 6908 bound_to 6896
  152.3587  134.6906  160.0266 H   0  0  0  0  0  0  0  0  0  0  0  0  # atno 6909 bound_to 6896
  146.1627  140.4592  142.8565 H   0  0  0  0  0  0  0  0  0  0  0  0  # atno 7974 bound_to 7965
  156.0274  140.1274  157.0294 H   0  0  0  0  0  0  0  0  0  0  0  0  # atno 8008 bound_to 7997
  154.4336  140.1056  156.6121 H   0  0  0  0  0  0  0  0  0  0  0  0  # atno 8009 bound_to 7997
  155.5856  140.3468  155.4554 H   0  0  0  0  0  0  0  0  0  0  0  0  # atno 8010 bound_to 7997
  140.4091  143.2630  151.9041 H   0  0  0  0  0  0  0  0  0  0  0  0  # atno 10167 bound_to 10162
  157.6259  130.9346  150.0307 H   0  0  0  0  0  0  0  0  0  0  0  0  # atno 10718 bound_to 10713
  154.7189  135.3021  154.9078 H   0  0  0  0  0  0  0  0  0  0  0  0  # atno 10763 bound_to 10752
  153.9956  135.6713  153.4760 H   0  0  0  0  0  0  0  0  0  0  0  0  # atno 10764 bound_to 10752
  153.0817  135.5005  154.8433 H   0  0  0  0  0  0  0  0  0  0  0  0  # atno 10765 bound_to 10752
  140.8033  133.8197  155.9491 H   0  0  0  0  0  0  0  0  0  0  0  0  # atno 11005 bound_to 11000
  144.8049  140.6280  143.6454 LP  0  0  0  0  0  0  0  0  0  0  0  0  # atno 17320 bound_to 7965
  145.4548  139.1519  143.3899 LP  0  0  0  0  0  0  0  0  0  0  0  0  # atno 17321 bound_to 7965
  139.4783  144.5555  151.8320 LP  0  0  0  0  0  0  0  0  0  0  0  0  # atno 17342 bound_to 10162
  140.4657  144.1659  150.5911 LP  0  0  0  0  0  0  0  0  0  0  0  0  # atno 17343 bound_to 10162
  156.1431  130.3642  149.9552 LP  0  0  0  0  0  0  0  0  0  0  0  0  # atno 17370 bound_to 10713
  156.7589  130.9143  151.3640 LP  0  0  0  0  0  0  0  0  0  0  0  0  # atno 17371 bound_to 10713
  140.9272  134.2067  157.4888 LP  0  0  0  0  0  0  0  0  0  0  0  0  # atno 17394 bound_to 11000
  139.8720  134.9817  156.5128 LP  0  0  0  0  0  0  0  0  0  0  0  0  # atno 17395 bound_to 11000

$$$$
