AV-unprocessed.smi:224|AV-procd|sdf|1711|dock7
  -GOLD-   2262020183D 1   1.00000     0.00000
 Structure written by MMmdl.
 56 59  0  0  0  0  0  0  0  0  2 V2000
  145.5607  132.2556  149.0734 C   0  0  0  0  0  0  0  0  0  0  0  0
  144.0556  132.1924  149.3732 C   0  0  2  0  0  0  0  0  0  0  0  0
  143.3969  133.1049  148.5204 O   0  0  0  0  0  0  0  0  0  0  0  0
  143.7187  132.5582  150.8328 C   0  0  0  0  0  0  0  0  0  0  0  0
  143.5923  134.0300  151.0359 N   0  3  2  0  0  0  0  0  0  0  0  0
  144.8282  134.7376  150.5925 C   0  0  0  0  0  0  0  0  0  0  0  0
  144.7342  136.2620  150.7759 C   0  0  0  0  0  0  0  0  0  0  0  0
  144.3424  136.6047  152.1383 N   0  0  0  0  0  0  0  0  0  0  0  0
  145.2970  136.7389  153.0989 C   0  0  0  0  0  0  0  0  0  0  0  0
  145.3801  135.8248  154.1024 N   0  0  0  0  0  0  0  0  0  0  0  0
  146.2956  135.9554  155.0665 C   0  0  0  0  0  0  0  0  0  0  0  0
  147.2151  136.9090  155.2181 N   0  0  0  0  0  0  0  0  0  0  0  0
  147.1507  137.8227  154.2084 C   0  0  0  0  0  0  0  0  0  0  0  0
  146.2368  137.8099  153.1164 C   0  0  0  0  0  0  0  0  0  0  0  0
  146.4923  138.8894  152.2782 N   0  0  0  0  0  0  0  0  0  0  0  0
  147.4861  139.5123  152.8500 C   0  0  0  0  0  0  0  0  0  0  0  0
  147.9349  138.9474  154.0220 N   0  0  0  0  0  0  0  0  0  0  0  0
  149.0107  139.4352  154.8705 C   0  0  0  0  0  0  0  0  0  0  0  0
  150.2967  138.5809  154.7778 C   0  0  2  0  0  0  0  0  0  0  0  0
  150.5310  138.2402  153.4221 O   0  0  0  0  0  0  0  0  0  0  0  0
  150.2503  137.2940  155.5981 C   0  0  0  0  0  0  0  0  0  0  0  0
  151.6992  137.1110  156.0276 C   0  0  0  0  0  0  0  0  0  0  0  0
  152.1032  138.4389  156.3126 O   0  0  0  0  0  0  0  0  0  0  0  0
  151.5465  139.2997  155.3246 C   0  0  0  0  0  0  0  0  0  0  0  0
  143.0958  135.9706  152.5473 C   0  0  0  0  0  0  0  0  0  0  0  0
  143.1607  134.4319  152.4140 C   0  0  1  0  0  0  0  0  0  0  0  0
  141.7789  133.8641  152.8006 C   0  0  0  0  0  0  0  0  0  0  0  0
  146.1148  131.5382  149.6792 H   0  0  0  0  0  0  0  0  0  0  0  0
  145.9673  133.2467  149.2787 H   0  0  0  0  0  0  0  0  0  0  0  0
  145.7628  132.0230  148.0273 H   0  0  0  0  0  0  0  0  0  0  0  0
  143.6786  131.2009  149.1252 H   0  0  0  0  0  0  0  0  0  0  0  0
  142.5396  133.2896  148.8731 H   0  0  0  0  0  0  0  0  0  0  0  0
  142.8061  132.0301  151.0964 H   0  0  0  0  0  0  0  0  0  0  0  0
  144.4800  132.1676  151.5104 H   0  0  0  0  0  0  0  0  0  0  0  0
  145.6797  134.3509  151.1534 H   0  0  0  0  0  0  0  0  0  0  0  0
  145.0312  134.5273  149.5434 H   0  0  0  0  0  0  0  0  0  0  0  0
  145.6750  136.7441  150.5065 H   0  0  0  0  0  0  0  0  0  0  0  0
  143.9836  136.6663  150.0959 H   0  0  0  0  0  0  0  0  0  0  0  0
  146.2888  135.1880  155.8265 H   0  0  0  0  0  0  0  0  0  0  0  0
  147.9174  140.4105  152.4326 H   0  0  0  0  0  0  0  0  0  0  0  0
  149.2239  140.4702  154.5993 H   0  0  0  0  0  0  0  0  0  0  0  0
  148.6475  139.4579  155.8989 H   0  0  0  0  0  0  0  0  0  0  0  0
  149.8796  137.6100  153.1541 H   0  0  0  0  0  0  0  0  0  0  0  0
  149.6388  137.4364  156.4898 H   0  0  0  0  0  0  0  0  0  0  0  0
  149.8500  136.4372  155.0543 H   0  0  0  0  0  0  0  0  0  0  0  0
  151.8042  136.4615  156.8966 H   0  0  0  0  0  0  0  0  0  0  0  0
  152.3039  136.7061  155.2146 H   0  0  0  0  0  0  0  0  0  0  0  0
  152.2875  139.4848  154.5451 H   0  0  0  0  0  0  0  0  0  0  0  0
  151.3079  140.2609  155.7811 H   0  0  0  0  0  0  0  0  0  0  0  0
  142.8241  136.2384  153.5668 H   0  0  0  0  0  0  0  0  0  0  0  0
  142.2985  136.3621  151.9141 H   0  0  0  0  0  0  0  0  0  0  0  0
  143.9021  134.0574  153.1221 H   0  0  0  0  0  0  0  0  0  0  0  0
  141.4236  134.3125  153.7292 H   0  0  0  0  0  0  0  0  0  0  0  0
  141.7929  132.7898  152.9766 H   0  0  0  0  0  0  0  0  0  0  0  0
  141.0341  134.0739  152.0321 H   0  0  0  0  0  0  0  0  0  0  0  0
  142.8497  134.3385  150.4248 H   0  0  0  0  0  0  0  0  0  0  0  0
  1  2  1  0  0  0  0
  1 28  1  0  0  0  0
  1 29  1  0  0  0  0
  1 30  1  0  0  0  0
  2  3  1  0  0  0  0
  2  4  1  0  0  0  0
  2 31  1  0  0  0  0
  3 32  1  0  0  0  0
  4  5  1  0  0  0  0
  4 33  1  0  0  0  0
  4 34  1  0  0  0  0
  5 26  1  0  0  0  0
  5  6  1  0  0  0  0
  5 56  1  0  0  0  0
  6  7  1  0  0  0  0
  6 35  1  0  0  0  0
  6 36  1  0  0  0  0
  7  8  1  0  0  0  0
  7 37  1  0  0  0  0
  7 38  1  0  0  0  0
  8  9  1  0  0  0  0
  8 25  1  0  0  0  0
  9 14  1  0  0  0  0
  9 10  2  0  0  0  0
 10 11  1  0  0  0  0
 11 12  2  0  0  0  0
 11 39  1  0  0  0  0
 12 13  1  0  0  0  0
 13 17  1  0  0  0  0
 13 14  2  0  0  0  0
 14 15  1  0  0  0  0
 15 16  2  0  0  0  0
 16 17  1  0  0  0  0
 16 40  1  0  0  0  0
 17 18  1  0  0  0  0
 18 19  1  0  0  0  0
 18 41  1  0  0  0  0
 18 42  1  0  0  0  0
 19 24  1  0  0  0  0
 19 20  1  0  0  0  0
 19 21  1  0  0  0  0
 20 43  1  0  0  0  0
 21 22  1  0  0  0  0
 21 44  1  0  0  0  0
 21 45  1  0  0  0  0
 22 23  1  0  0  0  0
 22 46  1  0  0  0  0
 22 47  1  0  0  0  0
 23 24  1  0  0  0  0
 24 48  1  0  0  0  0
 24 49  1  0  0  0  0
 25 26  1  0  0  0  0
 25 50  1  0  0  0  0
 25 51  1  0  0  0  0
 26 27  1  0  0  0  0
 26 52  1  0  0  0  0
 27 53  1  0  0  0  0
 27 54  1  0  0  0  0
 27 55  1  0  0  0  0
M  CHG  1   5   1
M  END
> <s_m_source_file>
AV-unprocessed.smi

> <i_m_source_file_index>
224

> <i_lp_mmshare_version>
43012

> <i_f3d_flags>
0

> <s_epik_input>
W0NIM11bQ0BIXShbT0hdKVtDSDJdTjFbQ0gyXVtDSDJdTihbQ0gyXVtDQEhdMVtDSDNdKWMobltjSF1uMiljKGMyMyluW2NIXW4zW0NIMl1bQ0BAXTQoW09IXSlbQ0gyXVtDSDJdT1tDSDJdNA==

> <s_epik_cmdline>
J2VwaWtfcHl0aG9uJywgJy1waCcsICc3LjAnLCAnLXRuJywgJzgnLCAnLW1hJywgJzIwMCcsICctbWV0YWxfYmluZGluZycsICctaW1hZScsICc8aW5maWxlLm1hZT4nLCAnLW9tYWUnLCAnPG91dGZpbGUubWFlPic=

> <r_lp_tautomer_probability>
1

> <r_epik_Ionization_Penalty>
0.00516958

> <r_epik_Ionization_Penalty_Charging>
0.00509693

> <r_epik_Ionization_Penalty_Neutral>
7.26542e-05

> <r_epik_State_Penalty>
-0

> <r_epik_Charging_Adjusted_Penalty>
0.00509693

> <i_epik_Tot_Q>
1

> <i_epik_Tot_abs_Q>
1

> <r_epik_Metal_State_Penalty>
-0

> <b_epik_Metal_Only>
0

> <s_lp_Force_Field>
OPLS_2005

> <r_lp_Energy>
47.9311

> <b_lp_Chiralities_Consistent>
1

> <s_lp_Variant>
AV-unprocessed.smi:224-5

> <Gold.Version>
5.8.1

> <Gold.Id.Protein>
6NUR|6NUR_protein|mol2

> <Gold.PLP.Fitness>
50.1916

> <Gold.PLP.PLP>
-37.4646

> <Gold.PLP.part.hbond>
-4.7191

> <Gold.PLP.part.metal>
0.0000

> <Gold.PLP.part.buried>
0.5554

> <Gold.PLP.part.nonpolar>
-35.2204

> <Gold.PLP.part.repulsive>
0.7978

> <Gold.PLP.ligand.clash>
0.0000

> <Gold.PLP.ligand.torsion>
1.1287

> <Gold.PLP.Chemscore.Hbond>
3.9920

> <Gold.PLP.Chemscore.CHOScore>
0.7834

> <Gold.PLP.Chemscore.Metal>
0.0000

> <Gold.Chemscore.Hbonds>
donor molecule, donor type, donor heavy atom, donor atom, acceptor molecule, acceptor atom, score
      L1  H     3    32       P1 10186  1.00
      L1  H     5    56       P1 10186  1.98
      L1  H    20    43       P1  7948  0.93
      L1  C    16    40       P1  7957  0.68

> <Gold.PLP.Chemscore.Internal.Correction>
0.6581

> <Gold.Rescore>
     Score         DG    S(hbond)    S(metal)    S(lipo)     H(rot)  DE(clash)    DE(int)     intcor
     11.18     -16.18       2.48        0.00      94.17       3.36       2.63       2.37       ----

> <Gold.Chemscore.Fitness>
11.1845

> <Gold.Chemscore.DG>
-16.1823

> <Gold.Chemscore.ZeroCoef>
-5.4800

> <Gold.Chemscore.Hbond>
2.4818

> <Gold.Chemscore.Metal>
0.0000

> <Gold.Chemscore.Lipo>
94.1687

> <Gold.Chemscore.Internal_Hbond>
0.0000

> <Gold.Chemscore.DEClash>
2.6268

> <Gold.Chemscore.DEInternal>
2.3711

> <Gold.Chemscore.Rot>
3.3611

> <Gold.Chemscore.Internal.Correction>
   9.000000E+99

> <Gold.Chemscore.Hbonds>
donor molecule, donor type, donor heavy atom, donor atom, acceptor molecule, acceptor atom, score
      L1  H     3    32       P1 10186  0.94
      L1  H     5    56       P1 10186  0.64
      L1  H    20    43       P1  7948  0.39

> <Gold.Chemscore.Hbond.Weighted>
-8.2891

> <Gold.Chemscore.Metal.Weighted>
-0.0000

> <Gold.Chemscore.Lipo.Weighted>
-11.0177

> <Gold.Chemscore.Internal_Hbond.Weighted>
0.0000

> <Gold.Chemscore.DEClash.Weighted>
2.6268

> <Gold.Chemscore.DEInternal.Weighted>
2.3711

> <Gold.Chemscore.Rot.Weighted>
8.6045

> <Gold.Chemscore.Internal.Correction.Weighted>
   9.000000E+99

> <Gold.Protein.RotatedTorsions>
[ 6907 6896 6895 6894 ] final   34.47 input  -60.11 | X-H torsion
[ 7974 7965 7964 7962 ] final  151.91 input  175.53 | X-H torsion
[ 8008 7997 7996 7995 ] final  -41.55 input   59.86 | X-H torsion
[ 10167 10162 10161 10158 ] final  -29.10 input  -65.29 | X-H torsion
[ 10718 10713 10712 10709 ] final -166.44 input   66.30 | X-H torsion
[ 10763 10752 10751 10750 ] final  140.63 input  -60.55 | X-H torsion
[ 11005 11000 10999 10996 ] final  -99.31 input  -57.11 | X-H torsion

> <Gold.Protein.ActiveResidues>
 VAL166  LYS551  ARG553  GLY616  TRP617  ASP618  TYR619  PRO620  LYS621  CYS622 
 ASP623  PHE694  ASN695  SER759  ASP760  ASP761  ALA762  ILE779  LEU786  VAL792 
 PHE793  MET794  SER795  GLU796  ALA797  LYS798  CYS799  TRP800  GLU811  SER814 

> <Gold.Protein.RotatedAtoms>
  152.1028  134.9330  160.0568 H   0  0  0  0  0  0  0  0  0  0  0  0  # atno 6907 bound_to 6896
  152.0538  133.4026  159.4396 H   0  0  0  0  0  0  0  0  0  0  0  0  # atno 6908 bound_to 6896
  150.6840  134.3199  159.4825 H   0  0  0  0  0  0  0  0  0  0  0  0  # atno 6909 bound_to 6896
  144.8259  139.6599  143.6080 H   0  0  0  0  0  0  0  0  0  0  0  0  # atno 7974 bound_to 7965
  154.4003  140.1496  156.3209 H   0  0  0  0  0  0  0  0  0  0  0  0  # atno 8008 bound_to 7997
  155.8530  140.3457  155.5684 H   0  0  0  0  0  0  0  0  0  0  0  0  # atno 8009 bound_to 7997
  155.7963  140.0864  157.1972 H   0  0  0  0  0  0  0  0  0  0  0  0  # atno 8010 bound_to 7997
  140.7264  143.3956  151.1353 H   0  0  0  0  0  0  0  0  0  0  0  0  # atno 10167 bound_to 10162
  156.6679  130.9072  151.3039 H   0  0  0  0  0  0  0  0  0  0  0  0  # atno 10718 bound_to 10713
  153.9260  135.2995  155.3447 H   0  0  0  0  0  0  0  0  0  0  0  0  # atno 10763 bound_to 10752
  154.7551  135.4961  153.9363 H   0  0  0  0  0  0  0  0  0  0  0  0  # atno 10764 bound_to 10752
  153.1117  135.6760  153.9593 H   0  0  0  0  0  0  0  0  0  0  0  0  # atno 10765 bound_to 10752
  141.1313  133.8311  157.0955 H   0  0  0  0  0  0  0  0  0  0  0  0  # atno 11005 bound_to 11000
  146.2564  139.6312  142.9392 LP  0  0  0  0  0  0  0  0  0  0  0  0  # atno 17320 bound_to 7965
  145.5001  141.0437  143.2545 LP  0  0  0  0  0  0  0  0  0  0  0  0  # atno 17321 bound_to 7965
  139.7568  143.8695  152.3090 LP  0  0  0  0  0  0  0  0  0  0  0  0  # atno 17342 bound_to 10162
  139.8568  144.7137  150.9148 LP  0  0  0  0  0  0  0  0  0  0  0  0  # atno 17343 bound_to 10162
  157.7087  130.9415  150.1016 LP  0  0  0  0  0  0  0  0  0  0  0  0  # atno 17370 bound_to 10713
  156.1961  130.3657  149.8848 LP  0  0  0  0  0  0  0  0  0  0  0  0  # atno 17371 bound_to 10713
  140.0366  134.9875  157.0882 LP  0  0  0  0  0  0  0  0  0  0  0  0  # atno 17394 bound_to 11000
  140.4201  134.1890  155.7164 LP  0  0  0  0  0  0  0  0  0  0  0  0  # atno 17395 bound_to 11000

$$$$
