AV-unprocessed.smi:1254|AV-procd|sdf|5273|dock6
  -GOLD-   22720 4393D 1   1.00000     0.00000
 Structure written by MMmdl.
 45 46  0  0  0  0  0  0  0  0  1 V2000
  149.9291  141.2014  156.6178 C   0  0  0  0  0  0  0  0  0  0  0  0
  150.0921  139.9099  155.8924 C   0  0  0  0  0  0  0  0  0  0  0  0
  149.3245  138.7821  155.8183 C   0  0  0  0  0  0  0  0  0  0  0  0
  150.0768  137.9402  154.9479 C   0  0  0  0  0  0  0  0  0  0  0  0
  149.7198  136.6337  154.5252 N   0  0  0  0  0  0  0  0  0  0  0  0
  149.8600  135.4740  155.1888 C   0  0  0  0  0  0  0  0  0  0  0  0
  150.3648  135.3479  156.3044 O   0  0  0  0  0  0  0  0  0  0  0  0
  149.3771  134.4468  154.4749 N   0  0  0  0  0  0  0  0  0  0  0  0
  149.3895  133.0499  154.8970 C   0  0  0  0  0  0  0  0  0  0  0  0
  148.7973  132.1285  153.8177 C   0  0  2  0  0  0  0  0  0  0  0  0
  147.5100  132.7170  153.2078 C   0  0  0  0  0  0  0  0  0  0  0  0
  146.9074  131.8262  152.2213 N   0  0  0  0  0  0  0  0  0  0  0  0
  145.6964  132.4211  151.6535 C   0  0  0  0  0  0  0  0  0  0  0  0
  145.1011  131.6866  150.4293 C   0  0  0  0  0  0  0  0  0  0  0  0
  146.0619  131.7437  149.2312 C   0  0  0  0  0  0  0  0  0  0  0  0
  143.7318  132.2619  150.0285 C   0  0  0  0  0  0  0  0  0  0  0  0
  146.6640  130.5267  152.8421 C   0  0  0  0  0  0  0  0  0  0  0  0
  147.9404  129.9410  153.4685 C   0  0  0  0  0  0  0  0  0  0  0  0
  148.4812  130.8677  154.4033 O   0  0  0  0  0  0  0  0  0  0  0  0
  151.1950  138.5072  154.5336 N   0  0  0  0  0  0  0  0  0  0  0  0
  151.2137  139.7706  155.1357 O   0  0  0  0  0  0  0  0  0  0  0  0
  148.9344  141.2781  157.0569 H   0  0  0  0  0  0  0  0  0  0  0  0
  150.0650  142.0455  155.9414 H   0  0  0  0  0  0  0  0  0  0  0  0
  150.6616  141.2881  157.4203 H   0  0  0  0  0  0  0  0  0  0  0  0
  148.3807  138.6066  156.3118 H   0  0  0  0  0  0  0  0  0  0  0  0
  149.3009  136.5773  153.6087 H   0  0  0  0  0  0  0  0  0  0  0  0
  148.9826  134.6423  153.5665 H   0  0  0  0  0  0  0  0  0  0  0  0
  150.3965  132.7281  155.1678 H   0  0  0  0  0  0  0  0  0  0  0  0
  148.7914  132.9786  155.8058 H   0  0  0  0  0  0  0  0  0  0  0  0
  149.5371  131.9821  153.0282 H   0  0  0  0  0  0  0  0  0  0  0  0
  146.7934  132.9214  154.0051 H   0  0  0  0  0  0  0  0  0  0  0  0
  147.7396  133.6766  152.7432 H   0  0  0  0  0  0  0  0  0  0  0  0
  144.9369  132.5361  152.4285 H   0  0  0  0  0  0  0  0  0  0  0  0
  145.9417  133.4388  151.3465 H   0  0  0  0  0  0  0  0  0  0  0  0
  144.9715  130.6322  150.6779 H   0  0  0  0  0  0  0  0  0  0  0  0
  146.2490  132.7723  148.9211 H   0  0  0  0  0  0  0  0  0  0  0  0
  145.6554  131.2064  148.3738 H   0  0  0  0  0  0  0  0  0  0  0  0
  147.0222  131.2884  149.4755 H   0  0  0  0  0  0  0  0  0  0  0  0
  143.8142  133.3084  149.7330 H   0  0  0  0  0  0  0  0  0  0  0  0
  143.0138  132.2082  150.8458 H   0  0  0  0  0  0  0  0  0  0  0  0
  143.3075  131.7135  149.1870 H   0  0  0  0  0  0  0  0  0  0  0  0
  145.8949  130.6209  153.6102 H   0  0  0  0  0  0  0  0  0  0  0  0
  146.2875  129.8210  152.1025 H   0  0  0  0  0  0  0  0  0  0  0  0
  147.7164  129.0060  153.9821 H   0  0  0  0  0  0  0  0  0  0  0  0
  148.6805  129.7153  152.6992 H   0  0  0  0  0  0  0  0  0  0  0  0
  1  2  1  0  0  0  0
  1 22  1  0  0  0  0
  1 23  1  0  0  0  0
  1 24  1  0  0  0  0
  2 21  1  0  0  0  0
  2  3  2  0  0  0  0
  3  4  1  0  0  0  0
  3 25  1  0  0  0  0
  4  5  1  0  0  0  0
  4 20  2  0  0  0  0
  5  6  1  0  0  0  0
  5 26  1  0  0  0  0
  6  7  2  0  0  0  0
  6  8  1  0  0  0  0
  8  9  1  0  0  0  0
  8 27  1  0  0  0  0
  9 10  1  0  0  0  0
  9 28  1  0  0  0  0
  9 29  1  0  0  0  0
 10 19  1  0  0  0  0
 10 11  1  0  0  0  0
 10 30  1  0  0  0  0
 11 12  1  0  0  0  0
 11 31  1  0  0  0  0
 11 32  1  0  0  0  0
 12 13  1  0  0  0  0
 12 17  1  0  0  0  0
 13 14  1  0  0  0  0
 13 33  1  0  0  0  0
 13 34  1  0  0  0  0
 14 15  1  0  0  0  0
 14 16  1  0  0  0  0
 14 35  1  0  0  0  0
 15 36  1  0  0  0  0
 15 37  1  0  0  0  0
 15 38  1  0  0  0  0
 16 39  1  0  0  0  0
 16 40  1  0  0  0  0
 16 41  1  0  0  0  0
 17 18  1  0  0  0  0
 17 42  1  0  0  0  0
 17 43  1  0  0  0  0
 18 19  1  0  0  0  0
 18 44  1  0  0  0  0
 18 45  1  0  0  0  0
 20 21  1  0  0  0  0
M  END
> <s_m_source_file>
AV-unprocessed.smi

> <i_m_source_file_index>
1254

> <i_lp_mmshare_version>
43012

> <i_f3d_flags>
0

> <s_epik_input>
W0NIM11jMVtjSF1jKG5vMSlbTkhdQyg9TylbTkhdW0NIMl1bQ0BASF0yW0NIMl1OKFtDSDJdW0NIMl1PMilbQ0gyXVtDSF0oW0NIM10pW0NIM10=

> <s_epik_cmdline>
J2VwaWtfcHl0aG9uJywgJy1waCcsICc3LjAnLCAnLXRuJywgJzgnLCAnLW1hJywgJzIwMCcsICctbWV0YWxfYmluZGluZycsICctaW1hZScsICc8aW5maWxlLm1hZT4nLCAnLW9tYWUnLCAnPG91dGZpbGUubWFlPic=

> <r_epik_Ionization_Penalty>
1.11086

> <r_epik_Ionization_Penalty_Charging>
0

> <r_epik_Ionization_Penalty_Neutral>
1.11086

> <r_epik_State_Penalty>
1.16881

> <r_epik_Charging_Adjusted_Penalty>
1.16881

> <i_epik_Tot_Q>
0

> <i_epik_Tot_abs_Q>
0

> <r_epik_Metal_State_Penalty>
1.1835

> <b_epik_Metal_Only>
0

> <s_lp_Force_Field>
OPLS_2005

> <r_lp_Energy>
24.7903

> <b_lp_Chiralities_Consistent>
1

> <s_lp_Variant>
AV-unprocessed.smi:1254-5

> <Gold.Version>
5.8.1

> <Gold.Id.Protein>
6NUR|6NUR_protein|mol2

> <Gold.PLP.Fitness>
42.5109

> <Gold.PLP.PLP>
-37.7117

> <Gold.PLP.part.hbond>
-3.8100

> <Gold.PLP.part.metal>
0.0000

> <Gold.PLP.part.buried>
-5.3919

> <Gold.PLP.part.nonpolar>
-31.4284

> <Gold.PLP.part.repulsive>
1.4114

> <Gold.PLP.ligand.clash>
0.0000

> <Gold.PLP.ligand.torsion>
0.9212

> <Gold.PLP.Chemscore.Hbond>
2.1800

> <Gold.PLP.Chemscore.CHOScore>
0.0000

> <Gold.PLP.Chemscore.Metal>
0.0000

> <Gold.Chemscore.Hbonds>
donor molecule, donor type, donor heavy atom, donor atom, acceptor molecule, acceptor atom, score
      L1  H     5    26       P1  7948  1.00
      L1  H     8    27       P1  7948  0.28
      P1  H  7989  7998       L1    21  0.90

> <Gold.PLP.Chemscore.Internal.Correction>
0.1017

> <Gold.Rescore>
     Score         DG    S(hbond)    S(metal)    S(lipo)     H(rot)  DE(clash)    DE(int)     intcor
     13.23     -14.37       1.29        0.00      76.05       1.69       0.11       1.03       ----

> <Gold.Chemscore.Fitness>
13.2294

> <Gold.Chemscore.DG>
-14.3671

> <Gold.Chemscore.ZeroCoef>
-5.4800

> <Gold.Chemscore.Hbond>
1.2921

> <Gold.Chemscore.Metal>
0.0000

> <Gold.Chemscore.Lipo>
76.0499

> <Gold.Chemscore.Internal_Hbond>
0.0000

> <Gold.Chemscore.DEClash>
0.1056

> <Gold.Chemscore.DEInternal>
1.0321

> <Gold.Chemscore.Rot>
1.6900

> <Gold.Chemscore.Internal.Correction>
   9.000000E+99

> <Gold.Chemscore.Hbonds>
donor molecule, donor type, donor heavy atom, donor atom, acceptor molecule, acceptor atom, score
      L1  H     5    26       P1  7948  0.93
      L1  H     8    27       P1  7948  0.05
      P1  H  7989  7998       L1    21  0.17

> <Gold.Chemscore.Hbond.Weighted>
-4.3158

> <Gold.Chemscore.Metal.Weighted>
-0.0000

> <Gold.Chemscore.Lipo.Weighted>
-8.8978

> <Gold.Chemscore.Internal_Hbond.Weighted>
0.0000

> <Gold.Chemscore.DEClash.Weighted>
0.1056

> <Gold.Chemscore.DEInternal.Weighted>
1.0321

> <Gold.Chemscore.Rot.Weighted>
4.3265

> <Gold.Chemscore.Internal.Correction.Weighted>
   9.000000E+99

> <Gold.Protein.RotatedTorsions>
[ 6907 6896 6895 6894 ] final  -89.02 input  -60.11 | X-H torsion
[ 7974 7965 7964 7962 ] final   69.79 input  175.53 | X-H torsion
[ 8008 7997 7996 7995 ] final  -18.62 input   59.86 | X-H torsion
[ 10167 10162 10161 10158 ] final   13.90 input  -65.29 | X-H torsion
[ 10718 10713 10712 10709 ] final  140.08 input   66.30 | X-H torsion
[ 10763 10752 10751 10750 ] final  177.01 input  -60.55 | X-H torsion
[ 11005 11000 10999 10996 ] final  -79.08 input  -57.11 | X-H torsion

> <Gold.Protein.ActiveResidues>
 VAL166  LYS551  ARG553  GLY616  TRP617  ASP618  TYR619  PRO620  LYS621  CYS622 
 ASP623  PHE694  ASN695  SER759  ASP760  ASP761  ALA762  ILE779  LEU786  VAL792 
 PHE793  MET794  SER795  GLU796  ALA797  LYS798  CYS799  TRP800  GLU811  SER814 

> <Gold.Protein.RotatedAtoms>
  150.6871  134.2652  159.4565 H   0  0  0  0  0  0  0  0  0  0  0  0  # atno 6907 bound_to 6896
  152.0579  134.9610  160.0584 H   0  0  0  0  0  0  0  0  0  0  0  0  # atno 6908 bound_to 6896
  152.1049  133.4235  159.4641 H   0  0  0  0  0  0  0  0  0  0  0  0  # atno 6909 bound_to 6896
  145.7861  139.2911  143.1237 H   0  0  0  0  0  0  0  0  0  0  0  0  # atno 7974 bound_to 7965
  154.4893  140.2111  155.9584 H   0  0  0  0  0  0  0  0  0  0  0  0  # atno 8008 bound_to 7997
  156.1282  140.3201  155.8278 H   0  0  0  0  0  0  0  0  0  0  0  0  # atno 8009 bound_to 7997
  155.4344  140.0505  157.3006 H   0  0  0  0  0  0  0  0  0  0  0  0  # atno 8010 bound_to 7997
  140.5971  143.8679  150.6929 H   0  0  0  0  0  0  0  0  0  0  0  0  # atno 10167 bound_to 10162
  157.4072  131.1024  151.0491 H   0  0  0  0  0  0  0  0  0  0  0  0  # atno 10718 bound_to 10713
  154.4888  135.2778  155.1513 H   0  0  0  0  0  0  0  0  0  0  0  0  # atno 10763 bound_to 10752
  154.3193  135.6213  153.5504 H   0  0  0  0  0  0  0  0  0  0  0  0  # atno 10764 bound_to 10752
  152.9885  135.5739  154.5304 H   0  0  0  0  0  0  0  0  0  0  0  0  # atno 10765 bound_to 10752
  141.1666  133.7090  156.8069 H   0  0  0  0  0  0  0  0  0  0  0  0  # atno 11005 bound_to 11000
  146.0024  140.8508  143.0012 LP  0  0  0  0  0  0  0  0  0  0  0  0  # atno 17320 bound_to 7965
  144.6789  140.2372  143.7348 LP  0  0  0  0  0  0  0  0  0  0  0  0  # atno 17321 bound_to 7965
  140.2216  143.3805  152.1638 LP  0  0  0  0  0  0  0  0  0  0  0  0  # atno 17342 bound_to 10162
  139.5266  144.7109  151.5208 LP  0  0  0  0  0  0  0  0  0  0  0  0  # atno 17343 bound_to 10162
  157.1469  130.6167  149.5571 LP  0  0  0  0  0  0  0  0  0  0  0  0  # atno 17370 bound_to 10713
  155.9840  130.4862  150.6961 LP  0  0  0  0  0  0  0  0  0  0  0  0  # atno 17371 bound_to 10713
  140.2216  134.8753  157.3383 LP  0  0  0  0  0  0  0  0  0  0  0  0  # atno 17394 bound_to 11000
  140.1982  134.4287  155.7677 LP  0  0  0  0  0  0  0  0  0  0  0  0  # atno 17395 bound_to 11000

$$$$
