AV-unprocessed.smi:487|AV-procd|sdf|2700|dock1
  -GOLD-   2262023133D 1   1.00000     0.00000
 Structure written by MMmdl.
 40 41  0  0  0  0  0  0  0  0  2 V2000
  149.3269  141.9564  156.9767 O   0  0  0  0  0  0  0  0  0  0  0  0
  150.3828  141.8927  156.3474 C   0  0  0  0  0  0  0  0  0  0  0  0
  150.3563  141.3949  154.8917 C   0  0  0  0  0  0  0  0  0  0  0  0
  150.5411  139.9409  154.7292 N   0  0  0  0  0  0  0  0  0  0  0  0
  149.3898  139.1577  154.5340 C   0  0  0  0  0  0  0  0  0  0  0  0
  149.4563  137.8210  154.3852 C   0  0  0  0  0  0  0  0  0  0  0  0
  150.7674  137.1859  154.4303 C   0  0  0  0  0  0  0  0  0  0  0  0
  150.8475  135.9665  154.2955 O   0  0  0  0  0  0  0  0  0  0  0  0
  151.8547  137.9883  154.6241 N   0  5  0  0  0  0  0  0  0  0  0  0
  151.7719  139.3464  154.7762 C   0  0  0  0  0  0  0  0  0  0  0  0
  152.7646  140.0505  154.9615 O   0  0  0  0  0  0  0  0  0  0  0  0
  151.5699  142.2336  156.8781 N   0  0  0  0  0  0  0  0  0  0  0  0
  151.7982  142.7362  158.2303 C   0  0  0  0  0  0  0  0  0  0  0  0
  152.4218  144.1496  158.1561 C   0  0  0  0  0  0  0  0  0  0  0  0
  151.6384  145.2435  158.9072 C   0  0  0  0  0  0  0  0  0  0  0  0
  151.1081  144.9045  160.3162 C   0  0  0  0  0  0  0  0  0  0  0  0
  152.1318  144.3408  161.3172 C   0  0  0  0  0  0  0  0  0  0  0  0
  152.2373  142.8006  161.3596 C   0  0  0  0  0  0  0  0  0  0  0  0
  153.2391  142.1855  160.3670 C   0  0  0  0  0  0  0  0  0  0  0  0
  152.6641  141.7223  159.0124 C   0  0  0  0  0  0  0  0  0  0  0  0
  149.4071  141.6998  154.4494 H   0  0  0  0  0  0  0  0  0  0  0  0
  151.1159  141.9379  154.3268 H   0  0  0  0  0  0  0  0  0  0  0  0
  148.4586  139.7047  154.5191 H   0  0  0  0  0  0  0  0  0  0  0  0
  148.5619  137.2336  154.2386 H   0  0  0  0  0  0  0  0  0  0  0  0
  152.3821  142.1548  156.2826 H   0  0  0  0  0  0  0  0  0  0  0  0
  150.8233  142.7980  158.7118 H   0  0  0  0  0  0  0  0  0  0  0  0
  153.4506  144.1355  158.5115 H   0  0  0  0  0  0  0  0  0  0  0  0
  152.5107  144.4692  157.1164 H   0  0  0  0  0  0  0  0  0  0  0  0
  152.2685  146.1314  158.9696 H   0  0  0  0  0  0  0  0  0  0  0  0
  150.7852  145.5360  158.2940 H   0  0  0  0  0  0  0  0  0  0  0  0
  150.7146  145.8328  160.7318 H   0  0  0  0  0  0  0  0  0  0  0  0
  150.2411  144.2468  160.2591 H   0  0  0  0  0  0  0  0  0  0  0  0
  153.1097  144.8032  161.1782 H   0  0  0  0  0  0  0  0  0  0  0  0
  151.8062  144.6577  162.3087 H   0  0  0  0  0  0  0  0  0  0  0  0
  152.5866  142.5397  162.3595 H   0  0  0  0  0  0  0  0  0  0  0  0
  151.2572  142.3306  161.2697 H   0  0  0  0  0  0  0  0  0  0  0  0
  154.0808  142.8618  160.2200 H   0  0  0  0  0  0  0  0  0  0  0  0
  153.6783  141.3053  160.8379 H   0  0  0  0  0  0  0  0  0  0  0  0
  152.0739  140.8200  159.1774 H   0  0  0  0  0  0  0  0  0  0  0  0
  153.5028  141.4113  158.3876 H   0  0  0  0  0  0  0  0  0  0  0  0
  1  2  2  0  0  0  0
  2  3  1  0  0  0  0
  2 12  1  0  0  0  0
  3  4  1  0  0  0  0
  3 21  1  0  0  0  0
  3 22  1  0  0  0  0
  4 10  1  0  0  0  0
  4  5  1  0  0  0  0
  5  6  2  0  0  0  0
  5 23  1  0  0  0  0
  6  7  1  0  0  0  0
  6 24  1  0  0  0  0
  7  8  2  0  0  0  0
  7  9  1  0  0  0  0
  9 10  1  0  0  0  0
 10 11  2  0  0  0  0
 12 13  1  0  0  0  0
 12 25  1  0  0  0  0
 13 20  1  0  0  0  0
 13 14  1  0  0  0  0
 13 26  1  0  0  0  0
 14 15  1  0  0  0  0
 14 27  1  0  0  0  0
 14 28  1  0  0  0  0
 15 16  1  0  0  0  0
 15 29  1  0  0  0  0
 15 30  1  0  0  0  0
 16 17  1  0  0  0  0
 16 31  1  0  0  0  0
 16 32  1  0  0  0  0
 17 18  1  0  0  0  0
 17 33  1  0  0  0  0
 17 34  1  0  0  0  0
 18 19  1  0  0  0  0
 18 35  1  0  0  0  0
 18 36  1  0  0  0  0
 19 20  1  0  0  0  0
 19 37  1  0  0  0  0
 19 38  1  0  0  0  0
 20 39  1  0  0  0  0
 20 40  1  0  0  0  0
M  CHG  1   9  -1
M  END
> <s_m_source_file>
AV-unprocessed.smi

> <i_m_source_file_index>
487

> <i_lp_mmshare_version>
43012

> <i_f3d_flags>
0

> <s_epik_input>
Tz1jMVtuSF1jKD1PKVtjSF1bY0hdbjFbQ0gyXUMoPU8pW05IXVtDSF0yW0NIMl1bQ0gyXVtDSDJdW0NIMl1bQ0gyXVtDSDJdW0NIMl0y

> <s_epik_cmdline>
J2VwaWtfcHl0aG9uJywgJy1waCcsICc3LjAnLCAnLXRuJywgJzgnLCAnLW1hJywgJzIwMCcsICctbWV0YWxfYmluZGluZycsICctaW1hZScsICc8aW5maWxlLm1hZT4nLCAnLW9tYWUnLCAnPG91dGZpbGUubWFlPic=

> <r_lp_tautomer_probability>
0.999537

> <r_epik_Ionization_Penalty>
3.09244

> <r_epik_Ionization_Penalty_Charging>
2.84692e-08

> <r_epik_Ionization_Penalty_Neutral>
3.09244

> <r_epik_State_Penalty>
3.09149

> <r_epik_Charging_Adjusted_Penalty>
3.09149

> <i_epik_Tot_Q>
-1

> <i_epik_Tot_abs_Q>
1

> <r_epik_Metal_State_Penalty>
0.461034

> <b_epik_Metal_Only>
1

> <s_lp_Force_Field>
OPLS_2005

> <r_lp_Energy>
30.2877

> <b_lp_Chiralities_Consistent>
1

> <s_lp_Variant>
AV-unprocessed.smi:487-2

> <Gold.Version>
5.8.1

> <Gold.Id.Protein>
6NUR|6NUR_protein|mol2

> <Gold.PLP.Fitness>
49.8616

> <Gold.PLP.PLP>
-44.8397

> <Gold.PLP.part.hbond>
-3.0642

> <Gold.PLP.part.metal>
0.0000

> <Gold.PLP.part.buried>
-4.3906

> <Gold.PLP.part.nonpolar>
-37.9496

> <Gold.PLP.part.repulsive>
0.4273

> <Gold.PLP.ligand.clash>
0.0000

> <Gold.PLP.ligand.torsion>
0.6693

> <Gold.PLP.Chemscore.Hbond>
2.1159

> <Gold.PLP.Chemscore.CHOScore>
0.0000

> <Gold.PLP.Chemscore.Metal>
0.0000

> <Gold.Chemscore.Hbonds>
donor molecule, donor type, donor heavy atom, donor atom, acceptor molecule, acceptor atom, score
      P1  H  7997  8010       L1    11  1.00
      P1  H 10752 10764       L1     8  0.83

> <Gold.PLP.Chemscore.Internal.Correction>
0.0127

> <Gold.Rescore>
     Score         DG    S(hbond)    S(metal)    S(lipo)     H(rot)  DE(clash)    DE(int)     intcor
     18.93     -19.58       1.72        0.00     107.26       1.64       0.09       0.56       ----

> <Gold.Chemscore.Fitness>
18.9269

> <Gold.Chemscore.DG>
-19.5767

> <Gold.Chemscore.ZeroCoef>
-5.4800

> <Gold.Chemscore.Hbond>
1.7231

> <Gold.Chemscore.Metal>
0.0000

> <Gold.Chemscore.Lipo>
107.2618

> <Gold.Chemscore.Internal_Hbond>
0.0000

> <Gold.Chemscore.DEClash>
0.0917

> <Gold.Chemscore.DEInternal>
0.5582

> <Gold.Chemscore.Rot>
1.6438

> <Gold.Chemscore.Internal.Correction>
   9.000000E+99

> <Gold.Chemscore.Hbonds>
donor molecule, donor type, donor heavy atom, donor atom, acceptor molecule, acceptor atom, score
      P1  H  7997  8010       L1    11  0.97
      P1  H 10752 10764       L1     8  0.33

> <Gold.Chemscore.Hbond.Weighted>
-5.7551

> <Gold.Chemscore.Metal.Weighted>
-0.0000

> <Gold.Chemscore.Lipo.Weighted>
-12.5496

> <Gold.Chemscore.Internal_Hbond.Weighted>
0.0000

> <Gold.Chemscore.DEClash.Weighted>
0.0917

> <Gold.Chemscore.DEInternal.Weighted>
0.5582

> <Gold.Chemscore.Rot.Weighted>
4.2080

> <Gold.Chemscore.Internal.Correction.Weighted>
   9.000000E+99

> <Gold.Protein.RotatedTorsions>
[ 6907 6896 6895 6894 ] final  128.27 input  -60.11 | X-H torsion
[ 7974 7965 7964 7962 ] final -171.10 input  175.53 | X-H torsion
[ 8008 7997 7996 7995 ] final   90.10 input   59.86 | X-H torsion
[ 10167 10162 10161 10158 ] final -132.91 input  -65.29 | X-H torsion
[ 10718 10713 10712 10709 ] final   19.99 input   66.30 | X-H torsion
[ 10763 10752 10751 10750 ] final  -71.08 input  -60.55 | X-H torsion
[ 11005 11000 10999 10996 ] final  -11.67 input  -57.11 | X-H torsion

> <Gold.Protein.ActiveResidues>
 VAL166  LYS551  ARG553  GLY616  TRP617  ASP618  TYR619  PRO620  LYS621  CYS622 
 ASP623  PHE694  ASN695  SER759  ASP760  ASP761  ALA762  ILE779  LEU786  VAL792 
 PHE793  MET794  SER795  GLU796  ALA797  LYS798  CYS799  TRP800  GLU811  SER814 

> <Gold.Protein.RotatedAtoms>
  152.3735  133.6450  159.6104 H   0  0  0  0  0  0  0  0  0  0  0  0  # atno 6907 bound_to 6896
  150.7686  133.9232  159.3413 H   0  0  0  0  0  0  0  0  0  0  0  0  # atno 6908 bound_to 6896
  151.7050  135.0924  160.0309 H   0  0  0  0  0  0  0  0  0  0  0  0  # atno 6909 bound_to 6896
  144.7161  140.1973  143.6342 H   0  0  0  0  0  0  0  0  0  0  0  0  # atno 7974 bound_to 7965
  156.0079  140.3353  155.6911 H   0  0  0  0  0  0  0  0  0  0  0  0  # atno 8008 bound_to 7997
  155.6199  140.0674  157.2699 H   0  0  0  0  0  0  0  0  0  0  0  0  # atno 8009 bound_to 7997
  154.4271  140.1778  156.1348 H   0  0  0  0  0  0  0  0  0  0  0  0  # atno 8010 bound_to 7997
  139.9036  143.6577  152.2590 H   0  0  0  0  0  0  0  0  0  0  0  0  # atno 10167 bound_to 10162
  157.1181  130.6538  149.5916 H   0  0  0  0  0  0  0  0  0  0  0  0  # atno 10718 bound_to 10713
  154.4267  135.5974  153.6043 H   0  0  0  0  0  0  0  0  0  0  0  0  # atno 10763 bound_to 10752
  152.9796  135.5965  154.3889 H   0  0  0  0  0  0  0  0  0  0  0  0  # atno 10764 bound_to 10752
  154.3722  135.2841  155.2238 H   0  0  0  0  0  0  0  0  0  0  0  0  # atno 10765 bound_to 10752
  140.7577  133.8540  155.9098 H   0  0  0  0  0  0  0  0  0  0  0  0  # atno 11005 bound_to 11000
  145.8713  139.2273  143.1659 LP  0  0  0  0  0  0  0  0  0  0  0  0  # atno 17320 bound_to 7965
  146.0082  140.8459  142.9984 LP  0  0  0  0  0  0  0  0  0  0  0  0  # atno 17321 bound_to 7965
  139.7003  144.7636  151.1284 LP  0  0  0  0  0  0  0  0  0  0  0  0  # atno 17342 bound_to 10162
  140.7701  143.5467  150.9251 LP  0  0  0  0  0  0  0  0  0  0  0  0  # atno 17343 bound_to 10162
  155.9835  130.4854  150.6934 LP  0  0  0  0  0  0  0  0  0  0  0  0  # atno 17370 bound_to 10713
  157.4500  131.0871  151.0856 LP  0  0  0  0  0  0  0  0  0  0  0  0  # atno 17371 bound_to 10713
  140.9692  134.1553  157.4590 LP  0  0  0  0  0  0  0  0  0  0  0  0  # atno 17394 bound_to 11000
  139.8776  134.9972  156.5837 LP  0  0  0  0  0  0  0  0  0  0  0  0  # atno 17395 bound_to 11000

$$$$
