AV-unprocessed.smi:53|AV-procd|sdf|516|dock1
  -GOLD-   2262016393D 1   1.00000     0.00000
 Structure written by MMmdl.
 30 31  0  0  0  0  0  0  0  0  1 V2000
  153.8183  137.4465  156.0752 N   0  0  0  0  0  0  0  0  0  0  0  0
  152.8939  138.3881  155.8405 C   0  0  0  0  0  0  0  0  0  0  0  0
  152.0723  138.3251  154.6548 C   0  0  0  0  0  0  0  0  0  0  0  0
  151.1563  139.3051  154.4943 C   0  0  0  0  0  0  0  0  0  0  0  0
  150.9652  140.3117  155.4358 N   0  0  0  0  0  0  0  0  0  0  0  0
  149.9596  141.4339  155.2140 C   0  0  1  0  0  0  0  0  0  0  0  0
  149.3908  141.3033  153.9401 O   0  0  0  0  0  0  0  0  0  0  0  0
  148.0665  140.7756  154.0025 C   0  0  1  0  0  0  0  0  0  0  0  0
  148.0799  139.2291  153.9832 C   0  0  0  0  0  0  0  0  0  0  0  0
  147.9720  138.7643  152.6546 O   0  0  0  0  0  0  0  0  0  0  0  0
  147.5561  141.4061  155.3022 C   0  0  1  0  0  0  0  0  0  0  0  0
  146.4684  140.7054  155.8731 O   0  0  0  0  0  0  0  0  0  0  0  0
  148.7766  141.3956  156.2148 C   0  0  2  0  0  0  0  0  0  0  0  0
  148.7432  142.5412  157.0440 O   0  0  0  0  0  0  0  0  0  0  0  0
  151.8386  140.3807  156.5511 C   0  0  0  0  0  0  0  0  0  0  0  0
  151.7966  141.3097  157.3558 O   0  0  0  0  0  0  0  0  0  0  0  0
  152.7563  139.3762  156.7018 N   0  0  0  0  0  0  0  0  0  0  0  0
  150.5579  142.3460  155.2568 H   0  0  0  0  0  0  0  0  0  0  0  0
  147.4800  141.1408  153.1583 H   0  0  0  0  0  0  0  0  0  0  0  0
  147.2490  142.4321  155.0913 H   0  0  0  0  0  0  0  0  0  0  0  0
  148.8064  140.4795  156.8070 H   0  0  0  0  0  0  0  0  0  0  0  0
  154.3971  137.4989  156.9006 H   0  0  0  0  0  0  0  0  0  0  0  0
  153.9329  136.6834  155.4237 H   0  0  0  0  0  0  0  0  0  0  0  0
  152.1592  137.5452  153.9118 H   0  0  0  0  0  0  0  0  0  0  0  0
  150.5594  139.2675  153.5955 H   0  0  0  0  0  0  0  0  0  0  0  0
  148.9600  138.8094  154.4679 H   0  0  0  0  0  0  0  0  0  0  0  0
  147.2144  138.8334  154.5144 H   0  0  0  0  0  0  0  0  0  0  0  0
  148.5577  139.2694  152.1117 H   0  0  0  0  0  0  0  0  0  0  0  0
  145.7314  141.2947  155.9303 H   0  0  0  0  0  0  0  0  0  0  0  0
  148.7813  143.3102  156.4962 H   0  0  0  0  0  0  0  0  0  0  0  0
  1  2  1  0  0  0  0
  1 22  1  0  0  0  0
  1 23  1  0  0  0  0
  2 17  2  0  0  0  0
  2  3  1  0  0  0  0
  3  4  2  0  0  0  0
  3 24  1  0  0  0  0
  4  5  1  0  0  0  0
  4 25  1  0  0  0  0
  5  6  1  0  0  0  0
  5 15  1  0  0  0  0
  6 18  1  0  0  0  0
  6 13  1  0  0  0  0
  6  7  1  0  0  0  0
  7  8  1  0  0  0  0
  8 19  1  0  0  0  0
  8  9  1  0  0  0  0
  8 11  1  0  0  0  0
  9 10  1  0  0  0  0
  9 26  1  0  0  0  0
  9 27  1  0  0  0  0
 10 28  1  0  0  0  0
 11 20  1  0  0  0  0
 11 12  1  0  0  0  0
 11 13  1  0  0  0  0
 12 29  1  0  0  0  0
 13 21  1  0  0  0  0
 13 14  1  0  0  0  0
 14 30  1  0  0  0  0
 15 16  2  0  0  0  0
 15 17  1  0  0  0  0
M  END
> <s_m_source_file>
AV-unprocessed.smi

> <i_m_source_file_index>
53

> <i_lp_mmshare_version>
43012

> <i_f3d_flags>
0

> <s_epik_input>
W05IMl1jMVtjSF1bY0hdbihjKD1PKW4xKVtDQEBIXTJPW0NASF0oW0NIMl1bT0hdKVtDQEBIXShbT0hdKVtDQEBIXTJbT0hd

> <s_epik_cmdline>
J2VwaWtfcHl0aG9uJywgJy1waCcsICc3LjAnLCAnLXRuJywgJzgnLCAnLW1hJywgJzIwMCcsICctbWV0YWxfYmluZGluZycsICctaW1hZScsICc8aW5maWxlLm1hZT4nLCAnLW9tYWUnLCAnPG91dGZpbGUubWFlPic=

> <r_lp_tautomer_probability>
0.99996

> <r_epik_Ionization_Penalty>
0.00069087

> <r_epik_Ionization_Penalty_Charging>
2.61959e-08

> <r_epik_Ionization_Penalty_Neutral>
0.000690844

> <r_epik_State_Penalty>
1.15523e-05

> <r_epik_Charging_Adjusted_Penalty>
1.15785e-05

> <i_epik_Tot_Q>
0

> <i_epik_Tot_abs_Q>
0

> <r_epik_Metal_State_Penalty>
-0

> <b_epik_Metal_Only>
0

> <s_epik_Chemistry_Notes>
This compound contains an acetal/aminal-like group ( X-CH(R)-Y where X, Y are N, S, or O) that may be acid/base labile, releasing an aldehyde.

> <s_lp_Force_Field>
OPLS_2005

> <r_lp_Energy>
31.3802

> <b_lp_Chiralities_Consistent>
1

> <s_lp_Variant>
AV-unprocessed.smi:53-4

> <Gold.Version>
5.8.1

> <Gold.Id.Protein>
6NUR|6NUR_protein|mol2

> <Gold.PLP.Fitness>
37.8098

> <Gold.PLP.PLP>
-26.8181

> <Gold.PLP.part.hbond>
-5.8419

> <Gold.PLP.part.metal>
0.0000

> <Gold.PLP.part.buried>
-0.8321

> <Gold.PLP.part.nonpolar>
-21.2051

> <Gold.PLP.part.repulsive>
1.8948

> <Gold.PLP.ligand.clash>
0.0000

> <Gold.PLP.ligand.torsion>
0.5215

> <Gold.PLP.Chemscore.Hbond>
3.7464

> <Gold.PLP.Chemscore.CHOScore>
0.2411

> <Gold.PLP.Chemscore.Metal>
0.0000

> <Gold.Chemscore.Hbonds>
donor molecule, donor type, donor heavy atom, donor atom, acceptor molecule, acceptor atom, score
      L1  H    10    28       P1  7957  1.00
      L1  H    14    30       P1  8028  1.00
      P1  H  7997  8010       L1    17  0.86
      P1  H  8011  8017       L1     7  0.78
      L1  C     4    25       P1  7957  0.54

> <Gold.PLP.Chemscore.Internal.Correction>
0.0720

> <Gold.Rescore>
     Score         DG    S(hbond)    S(metal)    S(lipo)     H(rot)  DE(clash)    DE(int)     intcor
      8.17      -9.16       2.63        0.00      37.56       3.71       0.62       0.37       ----

> <Gold.Chemscore.Fitness>
8.1734

> <Gold.Chemscore.DG>
-9.1637

> <Gold.Chemscore.ZeroCoef>
-5.4800

> <Gold.Chemscore.Hbond>
2.6304

> <Gold.Chemscore.Metal>
0.0000

> <Gold.Chemscore.Lipo>
37.5616

> <Gold.Chemscore.Internal_Hbond>
0.0000

> <Gold.Chemscore.DEClash>
0.6178

> <Gold.Chemscore.DEInternal>
0.3724

> <Gold.Chemscore.Rot>
3.7095

> <Gold.Chemscore.Internal.Correction>
   9.000000E+99

> <Gold.Chemscore.Hbonds>
donor molecule, donor type, donor heavy atom, donor atom, acceptor molecule, acceptor atom, score
      L1  H    10    28       P1  7957  0.98
      L1  H    14    30       P1  8028  0.90
      P1  H  7997  8010       L1    17  0.31
      P1  H  8011  8017       L1     7  0.71

> <Gold.Chemscore.Hbond.Weighted>
-8.7854

> <Gold.Chemscore.Metal.Weighted>
-0.0000

> <Gold.Chemscore.Lipo.Weighted>
-4.3947

> <Gold.Chemscore.Internal_Hbond.Weighted>
0.0000

> <Gold.Chemscore.DEClash.Weighted>
0.6178

> <Gold.Chemscore.DEInternal.Weighted>
0.3724

> <Gold.Chemscore.Rot.Weighted>
9.4964

> <Gold.Chemscore.Internal.Correction.Weighted>
   9.000000E+99

> <Gold.Protein.RotatedTorsions>
[ 6907 6896 6895 6894 ] final    2.99 input  -60.11 | X-H torsion
[ 7974 7965 7964 7962 ] final   88.41 input  175.53 | X-H torsion
[ 8008 7997 7996 7995 ] final   40.57 input   59.86 | X-H torsion
[ 10167 10162 10161 10158 ] final -172.79 input  -65.29 | X-H torsion
[ 10718 10713 10712 10709 ] final  117.77 input   66.30 | X-H torsion
[ 10763 10752 10751 10750 ] final -171.71 input  -60.55 | X-H torsion
[ 11005 11000 10999 10996 ] final  -74.78 input  -57.11 | X-H torsion

> <Gold.Protein.ActiveResidues>
 VAL166  LYS551  ARG553  GLY616  TRP617  ASP618  TYR619  PRO620  LYS621  CYS622 
 ASP623  PHE694  ASN695  SER759  ASP760  ASP761  ALA762  ILE779  LEU786  VAL792 
 PHE793  MET794  SER795  GLU796  ALA797  LYS798  CYS799  TRP800  GLU811  SER814 

> <Gold.Protein.RotatedAtoms>
  151.6178  135.1035  160.0094 H   0  0  0  0  0  0  0  0  0  0  0  0  # atno 6907 bound_to 6896
  152.4174  133.7056  159.6460 H   0  0  0  0  0  0  0  0  0  0  0  0  # atno 6908 bound_to 6896
  150.8062  133.8433  159.3226 H   0  0  0  0  0  0  0  0  0  0  0  0  # atno 6909 bound_to 6896
  145.5460  139.2292  143.2539 H   0  0  0  0  0  0  0  0  0  0  0  0  # atno 7974 bound_to 7965
  155.2553  140.3355  155.4278 H   0  0  0  0  0  0  0  0  0  0  0  0  # atno 8008 bound_to 7997
  156.2198  140.1804  156.7547 H   0  0  0  0  0  0  0  0  0  0  0  0  # atno 8009 bound_to 7997
  154.5808  140.0654  156.9086 H   0  0  0  0  0  0  0  0  0  0  0  0  # atno 8010 bound_to 7997
  139.5724  144.1609  152.1403 H   0  0  0  0  0  0  0  0  0  0  0  0  # atno 10167 bound_to 10162
  157.6075  131.1041  150.7662 H   0  0  0  0  0  0  0  0  0  0  0  0  # atno 10718 bound_to 10713
  154.6274  135.2882  155.0256 H   0  0  0  0  0  0  0  0  0  0  0  0  # atno 10763 bound_to 10752
  154.1429  135.6516  153.4950 H   0  0  0  0  0  0  0  0  0  0  0  0  # atno 10764 bound_to 10752
  153.0264  135.5337  154.7088 H   0  0  0  0  0  0  0  0  0  0  0  0  # atno 10765 bound_to 10752
  141.1639  133.6923  156.7417 H   0  0  0  0  0  0  0  0  0  0  0  0  # atno 11005 bound_to 11000
  146.1949  140.6282  142.9129 LP  0  0  0  0  0  0  0  0  0  0  0  0  # atno 17320 bound_to 7965
  144.7553  140.5292  143.6773 LP  0  0  0  0  0  0  0  0  0  0  0  0  # atno 17321 bound_to 7965
  140.1145  144.5428  150.6903 LP  0  0  0  0  0  0  0  0  0  0  0  0  # atno 17342 bound_to 10162
  140.7008  143.2434  151.4868 LP  0  0  0  0  0  0  0  0  0  0  0  0  # atno 17343 bound_to 10162
  156.8047  130.4932  149.5364 LP  0  0  0  0  0  0  0  0  0  0  0  0  # atno 17370 bound_to 10713
  156.1166  130.6079  151.0129 LP  0  0  0  0  0  0  0  0  0  0  0  0  # atno 17371 bound_to 10713
  140.2670  134.8422  157.3811 LP  0  0  0  0  0  0  0  0  0  0  0  0  # atno 17394 bound_to 11000
  140.1557  134.4792  155.7929 LP  0  0  0  0  0  0  0  0  0  0  0  0  # atno 17395 bound_to 11000

$$$$
