AV-unprocessed.smi:897|AV-procd|sdf|4079|dock2
  -GOLD-   22720 1563D 1   1.00000     0.00000
 Structure written by MMmdl.
 35 37  0  0  0  0  0  0  0  0  1 V2000
  147.3434  142.0179  154.6613 C   0  0  0  0  0  0  0  0  0  0  0  0
  148.6364  141.2978  154.9813 C   0  0  0  0  0  0  0  0  0  0  0  0
  148.9606  140.0786  154.3580 C   0  0  0  0  0  0  0  0  0  0  0  0
  150.1766  139.4497  154.6938 C   0  0  0  0  0  0  0  0  0  0  0  0
  150.5346  138.1284  154.0306 C   0  0  0  0  0  0  0  0  0  0  0  0
  151.0277  140.0731  155.6435 C   0  0  0  0  0  0  0  0  0  0  0  0
  152.3001  139.4566  156.0153 C   0  0  0  0  0  0  0  0  0  0  0  0
  153.3071  138.9683  156.3093 N   0  0  0  0  0  0  0  0  0  0  0  0
  150.6112  141.3068  156.2162 C   0  0  0  0  0  0  0  0  0  0  0  0
  151.4184  141.9623  157.1649 N   0  0  0  0  0  0  0  0  0  0  0  0
  151.0309  143.2421  157.7488 C   0  0  2  0  0  0  0  0  0  0  0  0
  152.0225  144.3708  157.4371 C   0  0  0  0  0  0  0  0  0  0  0  0
  152.3993  144.8594  158.8410 C   0  0  1  0  0  0  0  0  0  0  0  0
  151.2332  145.5684  159.5434 C   0  0  0  0  0  0  0  0  0  0  0  0
  150.3156  144.3953  159.8867 C   0  0  0  0  0  0  0  0  0  0  0  0
  151.0811  143.2088  159.2857 C   0  0  2  0  0  0  0  0  0  0  0  0
  152.4139  143.6257  159.5366 O   0  0  0  0  0  0  0  0  0  0  0  0
  149.4369  141.8960  155.8860 N   0  0  0  0  0  0  0  0  0  0  0  0
  146.7129  141.4241  153.9987 H   0  0  0  0  0  0  0  0  0  0  0  0
  147.5519  142.9697  154.1718 H   0  0  0  0  0  0  0  0  0  0  0  0
  146.7821  142.2161  155.5749 H   0  0  0  0  0  0  0  0  0  0  0  0
  148.2893  139.6346  153.6374 H   0  0  0  0  0  0  0  0  0  0  0  0
  151.4562  138.2261  153.4562 H   0  0  0  0  0  0  0  0  0  0  0  0
  149.7488  137.7995  153.3503 H   0  0  0  0  0  0  0  0  0  0  0  0
  150.6739  137.3491  154.7801 H   0  0  0  0  0  0  0  0  0  0  0  0
  152.3693  141.6494  157.2990 H   0  0  0  0  0  0  0  0  0  0  0  0
  150.0214  143.4938  157.4203 H   0  0  0  0  0  0  0  0  0  0  0  0
  152.9083  143.9979  156.9202 H   0  0  0  0  0  0  0  0  0  0  0  0
  151.5820  145.1585  156.8253 H   0  0  0  0  0  0  0  0  0  0  0  0
  153.3407  145.4079  158.8795 H   0  0  0  0  0  0  0  0  0  0  0  0
  151.5709  146.0676  160.4523 H   0  0  0  0  0  0  0  0  0  0  0  0
  150.7539  146.3094  158.9027 H   0  0  0  0  0  0  0  0  0  0  0  0
  150.2225  144.2868  160.9679 H   0  0  0  0  0  0  0  0  0  0  0  0
  149.3143  144.5019  159.4676 H   0  0  0  0  0  0  0  0  0  0  0  0
  150.8130  142.2486  159.7282 H   0  0  0  0  0  0  0  0  0  0  0  0
  1  2  1  0  0  0  0
  1 19  1  0  0  0  0
  1 20  1  0  0  0  0
  1 21  1  0  0  0  0
  2 18  1  0  0  0  0
  2  3  2  0  0  0  0
  3  4  1  0  0  0  0
  3 22  1  0  0  0  0
  4  5  1  0  0  0  0
  4  6  2  0  0  0  0
  5 23  1  0  0  0  0
  5 24  1  0  0  0  0
  5 25  1  0  0  0  0
  6  7  1  0  0  0  0
  6  9  1  0  0  0  0
  7  8  3  0  0  0  0
  9 10  1  0  0  0  0
  9 18  2  0  0  0  0
 10 11  1  0  0  0  0
 10 26  1  0  0  0  0
 11 16  1  0  0  0  0
 11 12  1  0  0  0  0
 11 27  1  0  0  0  0
 12 13  1  0  0  0  0
 12 28  1  0  0  0  0
 12 29  1  0  0  0  0
 13 17  1  0  0  0  0
 13 14  1  0  0  0  0
 13 30  1  0  0  0  0
 14 15  1  0  0  0  0
 14 31  1  0  0  0  0
 14 32  1  0  0  0  0
 15 16  1  0  0  0  0
 15 33  1  0  0  0  0
 15 34  1  0  0  0  0
 16 17  1  0  0  0  0
 16 35  1  0  0  0  0
M  END
> <s_m_source_file>
AV-unprocessed.smi

> <i_m_source_file_index>
897

> <i_lp_mmshare_version>
43012

> <i_f3d_flags>
0

> <s_epik_input>
W0NIM11jMVtjSF1jKFtDSDNdKWMoQyNOKWMobjEpW05IXVtDQEhdKFtDSDJdW0NAQEhdMjMpW0NAQEhdKE8zKVtDSDJdW0NIMl0y

> <s_epik_cmdline>
J2VwaWtfcHl0aG9uJywgJy1waCcsICc3LjAnLCAnLXRuJywgJzgnLCAnLW1hJywgJzIwMCcsICctbWV0YWxfYmluZGluZycsICctaW1hZScsICc8aW5maWxlLm1hZT4nLCAnLW9tYWUnLCAnPG91dGZpbGUubWFlPic=

> <r_lp_tautomer_probability>
1

> <r_epik_Ionization_Penalty>
0.000502654

> <r_epik_Ionization_Penalty_Charging>
0

> <r_epik_Ionization_Penalty_Neutral>
0.000502654

> <r_epik_State_Penalty>
-0

> <r_epik_Charging_Adjusted_Penalty>
0

> <i_epik_Tot_Q>
0

> <i_epik_Tot_abs_Q>
0

> <r_epik_Metal_State_Penalty>
-0

> <b_epik_Metal_Only>
0

> <s_lp_Force_Field>
OPLS_2005

> <r_lp_Energy>
43.6406

> <b_lp_Chiralities_Consistent>
1

> <s_lp_Variant>
AV-unprocessed.smi:897-1

> <Gold.Version>
5.8.1

> <Gold.Id.Protein>
6NUR|6NUR_protein|mol2

> <Gold.PLP.Fitness>
42.8967

> <Gold.PLP.PLP>
-39.9432

> <Gold.PLP.part.hbond>
-0.7611

> <Gold.PLP.part.metal>
0.0000

> <Gold.PLP.part.buried>
-2.3543

> <Gold.PLP.part.nonpolar>
-37.8674

> <Gold.PLP.part.repulsive>
1.7891

> <Gold.PLP.ligand.clash>
0.0000

> <Gold.PLP.ligand.torsion>
0.0333

> <Gold.PLP.Chemscore.Hbond>
1.0000

> <Gold.PLP.Chemscore.CHOScore>
0.0000

> <Gold.PLP.Chemscore.Metal>
0.0000

> <Gold.Chemscore.Hbonds>
donor molecule, donor type, donor heavy atom, donor atom, acceptor molecule, acceptor atom, score
      P1  H  7997  8008       L1     8  1.00

> <Gold.PLP.Chemscore.Internal.Correction>
0.0202

> <Gold.Rescore>
     Score         DG    S(hbond)    S(metal)    S(lipo)     H(rot)  DE(clash)    DE(int)     intcor
     17.11     -18.25       0.86        0.00     106.38       1.00       1.04       0.11       ----

> <Gold.Chemscore.Fitness>
17.1109

> <Gold.Chemscore.DG>
-18.2529

> <Gold.Chemscore.ZeroCoef>
-5.4800

> <Gold.Chemscore.Hbond>
0.8643

> <Gold.Chemscore.Metal>
0.0000

> <Gold.Chemscore.Lipo>
106.3758

> <Gold.Chemscore.Internal_Hbond>
0.0000

> <Gold.Chemscore.DEClash>
1.0365

> <Gold.Chemscore.DEInternal>
0.1055

> <Gold.Chemscore.Rot>
1.0000

> <Gold.Chemscore.Internal.Correction>
   9.000000E+99

> <Gold.Chemscore.Hbonds>
donor molecule, donor type, donor heavy atom, donor atom, acceptor molecule, acceptor atom, score
      P1  H  7997  8008       L1     8  0.72

> <Gold.Chemscore.Hbond.Weighted>
-2.8869

> <Gold.Chemscore.Metal.Weighted>
-0.0000

> <Gold.Chemscore.Lipo.Weighted>
-12.4460

> <Gold.Chemscore.Internal_Hbond.Weighted>
0.0000

> <Gold.Chemscore.DEClash.Weighted>
1.0365

> <Gold.Chemscore.DEInternal.Weighted>
0.1055

> <Gold.Chemscore.Rot.Weighted>
2.5600

> <Gold.Chemscore.Internal.Correction.Weighted>
   9.000000E+99

> <Gold.Protein.RotatedTorsions>
[ 6907 6896 6895 6894 ] final  -98.47 input  -60.11 | X-H torsion
[ 7974 7965 7964 7962 ] final  -23.20 input  175.53 | X-H torsion
[ 8008 7997 7996 7995 ] final  -58.47 input   59.86 | X-H torsion
[ 10167 10162 10161 10158 ] final -131.68 input  -65.29 | X-H torsion
[ 10718 10713 10712 10709 ] final  -72.29 input   66.30 | X-H torsion
[ 10763 10752 10751 10750 ] final  -56.01 input  -60.55 | X-H torsion
[ 11005 11000 10999 10996 ] final   11.66 input  -57.11 | X-H torsion

> <Gold.Protein.ActiveResidues>
 VAL166  LYS551  ARG553  GLY616  TRP617  ASP618  TYR619  PRO620  LYS621  CYS622 
 ASP623  PHE694  ASN695  SER759  ASP760  ASP761  ALA762  ILE779  LEU786  VAL792 
 PHE793  MET794  SER795  GLU796  ALA797  LYS798  CYS799  TRP800  GLU811  SER814 

> <Gold.Protein.RotatedAtoms>
  150.7048  134.1190  159.4027 H   0  0  0  0  0  0  0  0  0  0  0  0  # atno 6907 bound_to 6896
  151.9176  135.0310  160.0529 H   0  0  0  0  0  0  0  0  0  0  0  0  # atno 6908 bound_to 6896
  152.2283  133.5003  159.5238 H   0  0  0  0  0  0  0  0  0  0  0  0  # atno 6909 bound_to 6896
  146.1630  140.4583  142.8563 H   0  0  0  0  0  0  0  0  0  0  0  0  # atno 7974 bound_to 7965
  154.4310  140.1083  156.5963 H   0  0  0  0  0  0  0  0  0  0  0  0  # atno 8008 bound_to 7997
  155.5959  140.3492  155.4561 H   0  0  0  0  0  0  0  0  0  0  0  0  # atno 8009 bound_to 7997
  156.0211  140.1240  157.0346 H   0  0  0  0  0  0  0  0  0  0  0  0  # atno 8010 bound_to 7997
  139.9164  143.6433  152.2564 H   0  0  0  0  0  0  0  0  0  0  0  0  # atno 10167 bound_to 10162
  156.0326  130.4369  150.2571 H   0  0  0  0  0  0  0  0  0  0  0  0  # atno 10718 bound_to 10713
  154.1999  135.6413  153.5084 H   0  0  0  0  0  0  0  0  0  0  0  0  # atno 10763 bound_to 10752
  153.0014  135.5449  154.6326 H   0  0  0  0  0  0  0  0  0  0  0  0  # atno 10764 bound_to 10752
  154.5736  135.2919  155.0776 H   0  0  0  0  0  0  0  0  0  0  0  0  # atno 10765 bound_to 10752
  140.5007  134.0749  155.7793 H   0  0  0  0  0  0  0  0  0  0  0  0  # atno 11005 bound_to 11000
  144.8053  140.6289  143.6451 LP  0  0  0  0  0  0  0  0  0  0  0  0  # atno 17320 bound_to 7965
  145.4539  139.1520  143.3903 LP  0  0  0  0  0  0  0  0  0  0  0  0  # atno 17321 bound_to 7965
  139.6898  144.7648  151.1458 LP  0  0  0  0  0  0  0  0  0  0  0  0  # atno 17342 bound_to 10162
  140.7673  143.5605  150.9104 LP  0  0  0  0  0  0  0  0  0  0  0  0  # atno 17343 bound_to 10162
  157.0673  131.0107  151.3202 LP  0  0  0  0  0  0  0  0  0  0  0  0  # atno 17370 bound_to 10713
  157.5026  130.7889  149.7620 LP  0  0  0  0  0  0  0  0  0  0  0  0  # atno 17371 bound_to 10713
  141.1437  133.9093  157.2266 LP  0  0  0  0  0  0  0  0  0  0  0  0  # atno 17394 bound_to 11000
  139.9715  135.0127  156.9524 LP  0  0  0  0  0  0  0  0  0  0  0  0  # atno 17395 bound_to 11000

$$$$
