AV-unprocessed.smi:2471|AV-procd|sdf|9737|dock7
  -GOLD-   2272013373D 1   1.00000     0.00000
 Structure written by MMmdl.
 40 41  0  0  0  0  0  0  0  0  1 V2000
  146.4009  130.4971  152.2567 C   0  0  0  0  0  0  0  0  0  0  0  0
  145.7157  131.7583  151.7747 C   0  0  0  0  0  0  0  0  0  0  0  0
  144.4595  131.7035  151.1394 C   0  0  0  0  0  0  0  0  0  0  0  0
  143.8751  132.9123  150.7211 C   0  0  0  0  0  0  0  0  0  0  0  0
  144.5664  134.1173  150.9525 C   0  0  0  0  0  0  0  0  0  0  0  0
  145.8251  134.0847  151.5939 C   0  0  0  0  0  0  0  0  0  0  0  0
  146.4399  135.3517  151.7765 N   0  0  0  0  0  0  0  0  0  0  0  0
  145.8583  136.5641  151.7959 C   0  0  0  0  0  0  0  0  0  0  0  0
  144.6533  136.7798  151.6618 O   0  0  0  0  0  0  0  0  0  0  0  0
  146.7657  137.5331  151.9844 N   0  0  0  0  0  0  0  0  0  0  0  0
  146.4662  138.9599  152.0626 C   0  0  0  0  0  0  0  0  0  0  0  0
  147.0717  139.6359  153.3169 C   0  0  2  0  0  0  0  0  0  0  0  0
  147.0134  141.1783  153.2150 C   0  0  0  0  0  0  0  0  0  0  0  0
  147.6369  141.8634  154.4405 C   0  0  0  0  0  0  0  0  0  0  0  0
  149.0840  141.4010  154.6560 C   0  0  0  0  0  0  0  0  0  0  0  0
  149.1530  139.8735  154.7883 C   0  0  0  0  0  0  0  0  0  0  0  0
  148.5291  139.1745  153.5660 C   0  0  1  0  0  0  0  0  0  0  0  0
  148.5725  137.7801  153.7953 O   0  0  0  0  0  0  0  0  0  0  0  0
  146.3791  132.9135  151.9960 N   0  0  0  0  0  0  0  0  0  0  0  0
  145.8638  129.6058  151.9308 H   0  0  0  0  0  0  0  0  0  0  0  0
  146.4500  130.4875  153.3458 H   0  0  0  0  0  0  0  0  0  0  0  0
  147.4173  130.4426  151.8660 H   0  0  0  0  0  0  0  0  0  0  0  0
  143.9545  130.7625  150.9772 H   0  0  0  0  0  0  0  0  0  0  0  0
  142.9127  132.9165  150.2313 H   0  0  0  0  0  0  0  0  0  0  0  0
  144.1312  135.0545  150.6372 H   0  0  0  0  0  0  0  0  0  0  0  0
  147.4398  135.3323  151.9111 H   0  0  0  0  0  0  0  0  0  0  0  0
  147.7344  137.2664  152.0833 H   0  0  0  0  0  0  0  0  0  0  0  0
  146.8203  139.4442  151.1512 H   0  0  0  0  0  0  0  0  0  0  0  0
  145.3821  139.0765  152.0657 H   0  0  0  0  0  0  0  0  0  0  0  0
  146.4778  139.3407  154.1835 H   0  0  0  0  0  0  0  0  0  0  0  0
  147.5344  141.5061  152.3143 H   0  0  0  0  0  0  0  0  0  0  0  0
  145.9815  141.5152  153.1129 H   0  0  0  0  0  0  0  0  0  0  0  0
  147.6074  142.9461  154.3157 H   0  0  0  0  0  0  0  0  0  0  0  0
  147.0431  141.6377  155.3272 H   0  0  0  0  0  0  0  0  0  0  0  0
  149.7033  141.7256  153.8188 H   0  0  0  0  0  0  0  0  0  0  0  0
  149.4969  141.8719  155.5486 H   0  0  0  0  0  0  0  0  0  0  0  0
  150.1916  139.5625  154.9077 H   0  0  0  0  0  0  0  0  0  0  0  0
  148.6321  139.5676  155.6971 H   0  0  0  0  0  0  0  0  0  0  0  0
  149.1346  139.3892  152.6843 H   0  0  0  0  0  0  0  0  0  0  0  0
  148.6965  137.3430  152.9666 H   0  0  0  0  0  0  0  0  0  0  0  0
  1  2  1  0  0  0  0
  1 20  1  0  0  0  0
  1 21  1  0  0  0  0
  1 22  1  0  0  0  0
  2 19  1  0  0  0  0
  2  3  2  0  0  0  0
  3  4  1  0  0  0  0
  3 23  1  0  0  0  0
  4  5  2  0  0  0  0
  4 24  1  0  0  0  0
  5  6  1  0  0  0  0
  5 25  1  0  0  0  0
  6  7  1  0  0  0  0
  6 19  2  0  0  0  0
  7  8  1  0  0  0  0
  7 26  1  0  0  0  0
  8  9  2  0  0  0  0
  8 10  1  0  0  0  0
 10 11  1  0  0  0  0
 10 27  1  0  0  0  0
 11 12  1  0  0  0  0
 11 28  1  0  0  0  0
 11 29  1  0  0  0  0
 12 17  1  0  0  0  0
 12 13  1  0  0  0  0
 12 30  1  0  0  0  0
 13 14  1  0  0  0  0
 13 31  1  0  0  0  0
 13 32  1  0  0  0  0
 14 15  1  0  0  0  0
 14 33  1  0  0  0  0
 14 34  1  0  0  0  0
 15 16  1  0  0  0  0
 15 35  1  0  0  0  0
 15 36  1  0  0  0  0
 16 17  1  0  0  0  0
 16 37  1  0  0  0  0
 16 38  1  0  0  0  0
 17 18  1  0  0  0  0
 17 39  1  0  0  0  0
 18 40  1  0  0  0  0
M  END
> <s_m_source_file>
AV-unprocessed.smi

> <i_m_source_file_index>
2471

> <i_lp_mmshare_version>
43012

> <i_f3d_flags>
0

> <s_epik_input>
W0NIM11jMVtjSF1bY0hdW2NIXWMobjEpW05IXUMoPU8pW05IXVtDSDJdW0NAQEhdMltDSDJdW0NIMl1bQ0gyXVtDSDJdW0NASF0yW09IXQ==

> <s_epik_cmdline>
J2VwaWtfcHl0aG9uJywgJy1waCcsICc3LjAnLCAnLXRuJywgJzgnLCAnLW1hJywgJzIwMCcsICctbWV0YWxfYmluZGluZycsICctaW1hZScsICc8aW5maWxlLm1hZT4nLCAnLW9tYWUnLCAnPG91dGZpbGUubWFlPic=

> <r_lp_tautomer_probability>
1

> <r_epik_Ionization_Penalty>
8.52237e-05

> <r_epik_Ionization_Penalty_Charging>
0

> <r_epik_Ionization_Penalty_Neutral>
8.52237e-05

> <r_epik_State_Penalty>
-0

> <r_epik_Charging_Adjusted_Penalty>
0

> <i_epik_Tot_Q>
0

> <i_epik_Tot_abs_Q>
0

> <r_epik_Metal_State_Penalty>
-0

> <b_epik_Metal_Only>
0

> <s_lp_Force_Field>
OPLS_2005

> <r_lp_Energy>
13.6744

> <b_lp_Chiralities_Consistent>
1

> <s_lp_Variant>
AV-unprocessed.smi:2471-1

> <Gold.Version>
5.8.1

> <Gold.Id.Protein>
6NUR|6NUR_protein|mol2

> <Gold.PLP.Fitness>
43.0882

> <Gold.PLP.PLP>
-34.7866

> <Gold.PLP.part.hbond>
-2.7438

> <Gold.PLP.part.metal>
0.0000

> <Gold.PLP.part.buried>
-2.7615

> <Gold.PLP.part.nonpolar>
-32.3020

> <Gold.PLP.part.repulsive>
3.0433

> <Gold.PLP.ligand.clash>
0.0000

> <Gold.PLP.ligand.torsion>
0.2439

> <Gold.PLP.Chemscore.Hbond>
2.9280

> <Gold.PLP.Chemscore.CHOScore>
0.0000

> <Gold.PLP.Chemscore.Metal>
0.0000

> <Gold.Chemscore.Hbonds>
donor molecule, donor type, donor heavy atom, donor atom, acceptor molecule, acceptor atom, score
      L1  H     7    26       P1  7948  0.94
      L1  H    10    27       P1  7948  1.00
      L1  H    18    40       P1  7948  1.00

> <Gold.PLP.Chemscore.Internal.Correction>
0.0053

> <Gold.Rescore>
     Score         DG    S(hbond)    S(metal)    S(lipo)     H(rot)  DE(clash)    DE(int)     intcor
     15.66     -20.56       2.87        0.00      84.95       1.73       1.62       3.28       ----

> <Gold.Chemscore.Fitness>
15.6623

> <Gold.Chemscore.DG>
-20.5599

> <Gold.Chemscore.ZeroCoef>
-5.4800

> <Gold.Chemscore.Hbond>
2.8681

> <Gold.Chemscore.Metal>
0.0000

> <Gold.Chemscore.Lipo>
84.9500

> <Gold.Chemscore.Internal_Hbond>
0.0000

> <Gold.Chemscore.DEClash>
1.6167

> <Gold.Chemscore.DEInternal>
3.2809

> <Gold.Chemscore.Rot>
1.7339

> <Gold.Chemscore.Internal.Correction>
   9.000000E+99

> <Gold.Chemscore.Hbonds>
donor molecule, donor type, donor heavy atom, donor atom, acceptor molecule, acceptor atom, score
      L1  H     7    26       P1  7948  0.89
      L1  H    10    27       P1  7948  0.94
      L1  H    18    40       P1  7948  0.97

> <Gold.Chemscore.Hbond.Weighted>
-9.5794

> <Gold.Chemscore.Metal.Weighted>
-0.0000

> <Gold.Chemscore.Lipo.Weighted>
-9.9392

> <Gold.Chemscore.Internal_Hbond.Weighted>
0.0000

> <Gold.Chemscore.DEClash.Weighted>
1.6167

> <Gold.Chemscore.DEInternal.Weighted>
3.2809

> <Gold.Chemscore.Rot.Weighted>
4.4387

> <Gold.Chemscore.Internal.Correction.Weighted>
   9.000000E+99

> <Gold.Protein.RotatedTorsions>
[ 6907 6896 6895 6894 ] final -161.40 input  -60.11 | X-H torsion
[ 7974 7965 7964 7962 ] final   -3.92 input  175.53 | X-H torsion
[ 8008 7997 7996 7995 ] final  161.71 input   59.86 | X-H torsion
[ 10167 10162 10161 10158 ] final -173.65 input  -65.29 | X-H torsion
[ 10718 10713 10712 10709 ] final  163.00 input   66.30 | X-H torsion
[ 10763 10752 10751 10750 ] final  -28.62 input  -60.55 | X-H torsion
[ 11005 11000 10999 10996 ] final -145.92 input  -57.11 | X-H torsion

> <Gold.Protein.ActiveResidues>
 VAL166  LYS551  ARG553  GLY616  TRP617  ASP618  TYR619  PRO620  LYS621  CYS622 
 ASP623  PHE694  ASN695  SER759  ASP760  ASP761  ALA762  ILE779  LEU786  VAL792 
 PHE793  MET794  SER795  GLU796  ALA797  LYS798  CYS799  TRP800  GLU811  SER814 

> <Gold.Protein.RotatedAtoms>
  151.3640  133.3879  159.2692 H   0  0  0  0  0  0  0  0  0  0  0  0  # atno 6907 bound_to 6896
  150.9703  134.9078  159.7794 H   0  0  0  0  0  0  0  0  0  0  0  0  # atno 6908 bound_to 6896
  152.5182  134.3602  159.9334 H   0  0  0  0  0  0  0  0  0  0  0  0  # atno 6909 bound_to 6896
  146.2381  140.1794  142.8332 H   0  0  0  0  0  0  0  0  0  0  0  0  # atno 7974 bound_to 7965
  156.2084  140.1770  156.7750 H   0  0  0  0  0  0  0  0  0  0  0  0  # atno 8008 bound_to 7997
  154.5687  140.0686  156.8961 H   0  0  0  0  0  0  0  0  0  0  0  0  # atno 8009 bound_to 7997
  155.2713  140.3342  155.4267 H   0  0  0  0  0  0  0  0  0  0  0  0  # atno 8010 bound_to 7997
  139.5677  144.1717  152.1337 H   0  0  0  0  0  0  0  0  0  0  0  0  # atno 10167 bound_to 10162
  157.1146  131.0477  151.2442 H   0  0  0  0  0  0  0  0  0  0  0  0  # atno 10718 bound_to 10713
  153.7513  135.6926  153.4945 H   0  0  0  0  0  0  0  0  0  0  0  0  # atno 10763 bound_to 10752
  153.2001  135.4439  155.0255 H   0  0  0  0  0  0  0  0  0  0  0  0  # atno 10764 bound_to 10752
  154.8186  135.3411  154.7033 H   0  0  0  0  0  0  0  0  0  0  0  0  # atno 10765 bound_to 10752
  140.7874  134.3009  157.5025 H   0  0  0  0  0  0  0  0  0  0  0  0  # atno 11005 bound_to 11000
  144.9947  140.8578  143.5318 LP  0  0  0  0  0  0  0  0  0  0  0  0  # atno 17320 bound_to 7965
  145.1805  139.2354  143.5295 LP  0  0  0  0  0  0  0  0  0  0  0  0  # atno 17321 bound_to 7965
  140.1243  144.5345  150.6843 LP  0  0  0  0  0  0  0  0  0  0  0  0  # atno 17342 bound_to 10162
  140.6961  143.2404  151.4998 LP  0  0  0  0  0  0  0  0  0  0  0  0  # atno 17343 bound_to 10162
  157.4529  130.7609  149.7167 LP  0  0  0  0  0  0  0  0  0  0  0  0  # atno 17370 bound_to 10713
  155.9842  130.3993  150.3322 LP  0  0  0  0  0  0  0  0  0  0  0  0  # atno 17371 bound_to 10713
  139.8735  134.9354  156.3633 LP  0  0  0  0  0  0  0  0  0  0  0  0  # atno 17394 bound_to 11000
  140.9424  133.7506  156.0163 LP  0  0  0  0  0  0  0  0  0  0  0  0  # atno 17395 bound_to 11000

$$$$
