AV-unprocessed.smi:769|AV-procd|sdf|3677|dock6
  -GOLD-   22720 1 93D 1   1.00000     0.00000
 Structure written by MMmdl.
 51 53  0  0  0  0  0  0  0  0  3 V2000
  146.5867  133.7713  153.9765 O   0  0  0  0  0  0  0  0  0  0  0  0
  147.4334  133.5975  153.1006 C   0  0  0  0  0  0  0  0  0  0  0  0
  148.7440  133.8042  153.2949 N   0  0  0  0  0  0  0  0  0  0  0  0
  149.3432  134.2248  154.5567 C   0  0  0  0  0  0  0  0  0  0  0  0
  148.7057  135.5250  155.0849 C   0  0  0  0  0  0  0  0  0  0  0  0
  149.3228  136.7412  154.4989 N   0  3  0  0  0  0  0  0  0  0  0  0
  148.6623  137.9875  154.9743 C   0  0  0  0  0  0  0  0  0  0  0  0
  149.3100  139.2435  154.3624 C   0  0  0  0  0  0  0  0  0  0  0  0
  150.7450  139.2275  154.6589 N   0  0  0  0  0  0  0  0  0  0  0  0
  151.3358  140.1224  155.4880 C   0  0  0  0  0  0  0  0  0  0  0  0
  152.5242  140.0356  155.7994 O   0  0  0  0  0  0  0  0  0  0  0  0
  150.5048  141.3095  156.0217 C   0  0  0  0  0  0  0  0  0  0  0  0
  151.1769  142.1948  157.0906 C   0  0  0  0  0  0  0  0  0  0  0  0
  150.3628  141.4782  158.1720 C   0  0  0  0  0  0  0  0  0  0  0  0
  149.4550  140.9142  157.0742 C   0  0  0  0  0  0  0  0  0  0  0  0
  151.3956  138.0683  154.0418 C   0  0  0  0  0  0  0  0  0  0  0  0
  150.8052  136.7826  154.6486 C   0  0  0  0  0  0  0  0  0  0  0  0
  147.1818  133.2021  151.8403 N   0  0  0  0  0  0  0  0  0  0  0  0
  145.9346  132.8694  151.2430 C   0  0  0  0  0  0  0  0  0  0  0  0
  145.9399  132.5301  149.8715 C   0  0  0  0  0  0  0  0  0  0  0  0
  144.7318  132.1786  149.2358 C   0  0  0  0  0  0  0  0  0  0  0  0
  143.5814  132.1599  149.9420 N   0  3  0  0  0  0  0  0  0  0  0  0
  143.5272  132.4628  151.2567 C   0  0  0  0  0  0  0  0  0  0  0  0
  144.7036  132.8214  151.9465 C   0  0  0  0  0  0  0  0  0  0  0  0
  149.3739  133.6420  152.5222 H   0  0  0  0  0  0  0  0  0  0  0  0
  149.2532  133.4121  155.2782 H   0  0  0  0  0  0  0  0  0  0  0  0
  150.4103  134.3753  154.3910 H   0  0  0  0  0  0  0  0  0  0  0  0
  147.6441  135.5067  154.8331 H   0  0  0  0  0  0  0  0  0  0  0  0
  148.7615  135.5790  156.1733 H   0  0  0  0  0  0  0  0  0  0  0  0
  147.6028  137.9624  154.7161 H   0  0  0  0  0  0  0  0  0  0  0  0
  148.7233  138.0347  156.0630 H   0  0  0  0  0  0  0  0  0  0  0  0
  149.1657  139.2530  153.2810 H   0  0  0  0  0  0  0  0  0  0  0  0
  148.8061  140.1358  154.7363 H   0  0  0  0  0  0  0  0  0  0  0  0
  150.1007  141.9210  155.2140 H   0  0  0  0  0  0  0  0  0  0  0  0
  152.2560  142.0885  157.2063 H   0  0  0  0  0  0  0  0  0  0  0  0
  150.9025  143.2455  156.9879 H   0  0  0  0  0  0  0  0  0  0  0  0
  150.9353  140.7029  158.6832 H   0  0  0  0  0  0  0  0  0  0  0  0
  149.8624  142.1428  158.8768 H   0  0  0  0  0  0  0  0  0  0  0  0
  148.5235  141.4709  156.9629 H   0  0  0  0  0  0  0  0  0  0  0  0
  149.2672  139.8436  157.1683 H   0  0  0  0  0  0  0  0  0  0  0  0
  151.2086  138.0890  152.9671 H   0  0  0  0  0  0  0  0  0  0  0  0
  152.4799  138.0665  154.1407 H   0  0  0  0  0  0  0  0  0  0  0  0
  151.0656  136.7224  155.7066 H   0  0  0  0  0  0  0  0  0  0  0  0
  151.2595  135.9208  154.1614 H   0  0  0  0  0  0  0  0  0  0  0  0
  147.9767  133.1798  151.2180 H   0  0  0  0  0  0  0  0  0  0  0  0
  146.8602  132.5423  149.3053 H   0  0  0  0  0  0  0  0  0  0  0  0
  144.6523  131.9122  148.1917 H   0  0  0  0  0  0  0  0  0  0  0  0
  142.5515  132.4038  151.7169 H   0  0  0  0  0  0  0  0  0  0  0  0
  144.6359  133.0393  153.0011 H   0  0  0  0  0  0  0  0  0  0  0  0
  149.1395  136.7029  153.5063 H   0  0  0  0  0  0  0  0  0  0  0  0
  142.7176  131.9020  149.4637 H   0  0  0  0  0  0  0  0  0  0  0  0
  1  2  2  0  0  0  0
  2  3  1  0  0  0  0
  2 18  1  0  0  0  0
  3  4  1  0  0  0  0
  3 25  1  0  0  0  0
  4  5  1  0  0  0  0
  4 26  1  0  0  0  0
  4 27  1  0  0  0  0
  5  6  1  0  0  0  0
  5 28  1  0  0  0  0
  5 29  1  0  0  0  0
  6 17  1  0  0  0  0
  6  7  1  0  0  0  0
  6 50  1  0  0  0  0
  7  8  1  0  0  0  0
  7 30  1  0  0  0  0
  7 31  1  0  0  0  0
  8  9  1  0  0  0  0
  8 32  1  0  0  0  0
  8 33  1  0  0  0  0
  9 10  1  0  0  0  0
  9 16  1  0  0  0  0
 10 11  2  0  0  0  0
 10 12  1  0  0  0  0
 12 15  1  0  0  0  0
 12 13  1  0  0  0  0
 12 34  1  0  0  0  0
 13 14  1  0  0  0  0
 13 35  1  0  0  0  0
 13 36  1  0  0  0  0
 14 15  1  0  0  0  0
 14 37  1  0  0  0  0
 14 38  1  0  0  0  0
 15 39  1  0  0  0  0
 15 40  1  0  0  0  0
 16 17  1  0  0  0  0
 16 41  1  0  0  0  0
 16 42  1  0  0  0  0
 17 43  1  0  0  0  0
 17 44  1  0  0  0  0
 18 19  1  0  0  0  0
 18 45  1  0  0  0  0
 19 24  1  0  0  0  0
 19 20  2  0  0  0  0
 20 21  1  0  0  0  0
 20 46  1  0  0  0  0
 21 22  2  0  0  0  0
 21 47  1  0  0  0  0
 22 23  1  0  0  0  0
 22 51  1  0  0  0  0
 23 24  2  0  0  0  0
 23 48  1  0  0  0  0
 24 49  1  0  0  0  0
M  CHG  1   6   1
M  CHG  1  22   1
M  END
> <s_m_source_file>
AV-unprocessed.smi

> <i_m_source_file_index>
769

> <i_lp_mmshare_version>
43012

> <i_f3d_flags>
0

> <s_epik_input>
W2NIXTFbY0hdbltjSF1bY0hdYzFbTkhdQyg9TylbTkhdW0NIMl1bQ0gyXU4yW0NIMl1bQ0gyXU4oW0NIMl1bQ0gyXTIpQyg9TylbQ0hdM1tDSDJdW0NIMl1bQ0gyXTM=

> <s_epik_cmdline>
J2VwaWtfcHl0aG9uJywgJy1waCcsICc3LjAnLCAnLXRuJywgJzgnLCAnLW1hJywgJzIwMCcsICctbWV0YWxfYmluZGluZycsICctaW1hZScsICc8aW5maWxlLm1hZT4nLCAnLW9tYWUnLCAnPG91dGZpbGUubWFlPic=

> <r_epik_Ionization_Penalty>
1.74797

> <r_epik_Ionization_Penalty_Charging>
1.74795

> <r_epik_Ionization_Penalty_Neutral>
1.97893e-05

> <r_epik_State_Penalty>
1.75255

> <r_epik_Charging_Adjusted_Penalty>
3.5005

> <i_epik_Tot_Q>
2

> <i_epik_Tot_abs_Q>
2

> <r_epik_Metal_State_Penalty>
1.84999

> <b_epik_Metal_Only>
0

> <s_lp_Force_Field>
OPLS_2005

> <r_lp_Energy>
63.8018

> <b_lp_Chiralities_Consistent>
1

> <s_lp_Variant>
AV-unprocessed.smi:769-4

> <Gold.Version>
5.8.1

> <Gold.Id.Protein>
6NUR|6NUR_protein|mol2

> <Gold.PLP.Fitness>
53.0048

> <Gold.PLP.PLP>
-44.2779

> <Gold.PLP.part.hbond>
-4.2219

> <Gold.PLP.part.metal>
0.0000

> <Gold.PLP.part.buried>
-4.7072

> <Gold.PLP.part.nonpolar>
-34.4055

> <Gold.PLP.part.repulsive>
0.1918

> <Gold.PLP.ligand.clash>
0.0000

> <Gold.PLP.ligand.torsion>
0.3533

> <Gold.PLP.Chemscore.Hbond>
3.0000

> <Gold.PLP.Chemscore.CHOScore>
0.0000

> <Gold.PLP.Chemscore.Metal>
0.0000

> <Gold.Chemscore.Hbonds>
donor molecule, donor type, donor heavy atom, donor atom, acceptor molecule, acceptor atom, score
      L1  H     6    50       P1  7948  2.00
      P1  H  7997  8008       L1    11  1.00

> <Gold.PLP.Chemscore.Internal.Correction>
0.4334

> <Gold.Rescore>
     Score         DG    S(hbond)    S(metal)    S(lipo)     H(rot)  DE(clash)    DE(int)     intcor
     18.66     -21.81       2.87        0.00      96.28       1.76       0.49       2.66       ----

> <Gold.Chemscore.Fitness>
18.6642

> <Gold.Chemscore.DG>
-21.8146

> <Gold.Chemscore.ZeroCoef>
-5.4800

> <Gold.Chemscore.Hbond>
2.8680

> <Gold.Chemscore.Metal>
0.0000

> <Gold.Chemscore.Lipo>
96.2793

> <Gold.Chemscore.Internal_Hbond>
0.0000

> <Gold.Chemscore.DEClash>
0.4923

> <Gold.Chemscore.DEInternal>
2.6582

> <Gold.Chemscore.Rot>
1.7614

> <Gold.Chemscore.Internal.Correction>
   9.000000E+99

> <Gold.Chemscore.Hbonds>
donor molecule, donor type, donor heavy atom, donor atom, acceptor molecule, acceptor atom, score
      L1  H     6    50       P1  7948  0.99
      L1  H    22    51       P1 10952  0.04
      P1  H  7997  8008       L1    11  1.00

> <Gold.Chemscore.Hbond.Weighted>
-9.5791

> <Gold.Chemscore.Metal.Weighted>
-0.0000

> <Gold.Chemscore.Lipo.Weighted>
-11.2647

> <Gold.Chemscore.Internal_Hbond.Weighted>
0.0000

> <Gold.Chemscore.DEClash.Weighted>
0.4923

> <Gold.Chemscore.DEInternal.Weighted>
2.6582

> <Gold.Chemscore.Rot.Weighted>
4.5091

> <Gold.Chemscore.Internal.Correction.Weighted>
   9.000000E+99

> <Gold.Protein.RotatedTorsions>
[ 6907 6896 6895 6894 ] final  129.78 input  -60.11 | X-H torsion
[ 7974 7965 7964 7962 ] final -162.31 input  175.53 | X-H torsion
[ 8008 7997 7996 7995 ] final  -30.97 input   59.86 | X-H torsion
[ 10167 10162 10161 10158 ] final -166.49 input  -65.29 | X-H torsion
[ 10718 10713 10712 10709 ] final  -97.13 input   66.30 | X-H torsion
[ 10763 10752 10751 10750 ] final    8.01 input  -60.55 | X-H torsion
[ 11005 11000 10999 10996 ] final   60.69 input  -57.11 | X-H torsion

> <Gold.Protein.ActiveResidues>
 VAL166  LYS551  ARG553  GLY616  TRP617  ASP618  TYR619  PRO620  LYS621  CYS622 
 ASP623  PHE694  ASN695  SER759  ASP760  ASP761  ALA762  ILE779  LEU786  VAL792 
 PHE793  MET794  SER795  GLU796  ALA797  LYS798  CYS799  TRP800  GLU811  SER814 

> <Gold.Protein.RotatedAtoms>
  152.3590  133.6273  159.6000 H   0  0  0  0  0  0  0  0  0  0  0  0  # atno 6907 bound_to 6896
  150.7588  133.9453  159.3478 H   0  0  0  0  0  0  0  0  0  0  0  0  # atno 6908 bound_to 6896
  151.7294  135.0879  160.0349 H   0  0  0  0  0  0  0  0  0  0  0  0  # atno 6909 bound_to 6896
  144.7361  140.3271  143.6160 H   0  0  0  0  0  0  0  0  0  0  0  0  # atno 7974 bound_to 7965
  154.4231  140.1777  156.1491 H   0  0  0  0  0  0  0  0  0  0  0  0  # atno 8008 bound_to 7997
  155.9929  140.3367  155.6746 H   0  0  0  0  0  0  0  0  0  0  0  0  # atno 8009 bound_to 7997
  155.6348  140.0673  157.2628 H   0  0  0  0  0  0  0  0  0  0  0  0  # atno 8010 bound_to 7997
  139.6111  144.0812  152.1843 H   0  0  0  0  0  0  0  0  0  0  0  0  # atno 10167 bound_to 10162
  156.0077  130.5181  150.6329 H   0  0  0  0  0  0  0  0  0  0  0  0  # atno 10718 bound_to 10713
  153.2298  135.6891  153.7903 H   0  0  0  0  0  0  0  0  0  0  0  0  # atno 10763 bound_to 10752
  153.7072  135.3288  155.3239 H   0  0  0  0  0  0  0  0  0  0  0  0  # atno 10764 bound_to 10752
  154.8308  135.4582  154.1178 H   0  0  0  0  0  0  0  0  0  0  0  0  # atno 10765 bound_to 10752
  140.0214  134.6147  155.9634 H   0  0  0  0  0  0  0  0  0  0  0  0  # atno 11005 bound_to 11000
  145.7510  139.1793  143.2322 LP  0  0  0  0  0  0  0  0  0  0  0  0  # atno 17320 bound_to 7965
  146.1061  140.7485  142.9526 LP  0  0  0  0  0  0  0  0  0  0  0  0  # atno 17321 bound_to 7965
  140.0431  144.5992  150.7395 LP  0  0  0  0  0  0  0  0  0  0  0  0  # atno 17342 bound_to 10162
  140.7320  143.2700  151.3918 LP  0  0  0  0  0  0  0  0  0  0  0  0  # atno 17343 bound_to 10162
  157.4124  131.0825  151.1208 LP  0  0  0  0  0  0  0  0  0  0  0  0  # atno 17370 bound_to 10713
  157.1836  130.6320  149.5680 LP  0  0  0  0  0  0  0  0  0  0  0  0  # atno 17371 bound_to 10713
  141.1776  133.6542  156.4890 LP  0  0  0  0  0  0  0  0  0  0  0  0  # atno 17394 bound_to 11000
  140.4381  134.7041  157.4977 LP  0  0  0  0  0  0  0  0  0  0  0  0  # atno 17395 bound_to 11000

$$$$
