AV-unprocessed.smi:2469|AV-procd|sdf|9734|dock7
  -GOLD-   2272013373D 1   1.00000     0.00000
 Structure written by MMmdl.
 32 33  0  0  0  0  0  0  0  0  1 V2000
  145.4442  139.0638  153.0756 O   0  0  0  0  0  0  0  0  0  0  0  0
  146.7443  139.4298  152.6649 C   0  0  0  0  0  0  0  0  0  0  0  0
  147.3988  140.3366  153.7144 C   0  0  0  0  0  0  0  0  0  0  0  0
  148.7512  139.9282  153.9020 O   0  0  0  0  0  0  0  0  0  0  0  0
  149.4603  140.4597  154.9596 C   0  0  0  0  0  0  0  0  0  0  0  0
  148.7624  141.1975  155.9363 C   0  0  0  0  0  0  0  0  0  0  0  0
  149.4785  141.7396  157.0205 C   0  0  0  0  0  0  0  0  0  0  0  0
  150.8744  141.5258  157.0977 C   0  0  0  0  0  0  0  0  0  0  0  0
  151.6803  142.0213  158.1340 N   0  0  0  0  0  0  0  0  0  0  0  0
  151.4062  143.3006  158.7762 C   0  0  1  0  0  0  0  0  0  0  0  0
  152.2134  143.5355  160.0383 C   0  0  0  0  0  0  0  0  0  0  0  0
  152.1328  145.0530  160.1776 C   0  0  0  0  0  0  0  0  0  0  0  0
  152.0273  145.5633  158.8505 O   0  0  0  0  0  0  0  0  0  0  0  0
  151.8472  144.4920  157.9292 C   0  0  0  0  0  0  0  0  0  0  0  0
  151.4778  140.7755  156.0663 C   0  0  0  0  0  0  0  0  0  0  0  0
  150.7987  140.2527  155.0236 N   0  0  0  0  0  0  0  0  0  0  0  0
  144.8183  139.5290  152.5417 H   0  0  0  0  0  0  0  0  0  0  0  0
  147.3490  138.5428  152.4732 H   0  0  0  0  0  0  0  0  0  0  0  0
  146.6515  139.9673  151.7208 H   0  0  0  0  0  0  0  0  0  0  0  0
  147.3903  141.3624  153.3423 H   0  0  0  0  0  0  0  0  0  0  0  0
  146.8364  140.3185  154.6499 H   0  0  0  0  0  0  0  0  0  0  0  0
  147.6957  141.3455  155.8553 H   0  0  0  0  0  0  0  0  0  0  0  0
  148.9473  142.3067  157.7695 H   0  0  0  0  0  0  0  0  0  0  0  0
  152.3671  141.4125  158.5561 H   0  0  0  0  0  0  0  0  0  0  0  0
  150.3408  143.3998  158.9882 H   0  0  0  0  0  0  0  0  0  0  0  0
  151.8243  143.0097  160.9105 H   0  0  0  0  0  0  0  0  0  0  0  0
  153.2513  143.2315  159.8917 H   0  0  0  0  0  0  0  0  0  0  0  0
  151.2368  145.3381  160.7302 H   0  0  0  0  0  0  0  0  0  0  0  0
  152.9972  145.4681  160.6966 H   0  0  0  0  0  0  0  0  0  0  0  0
  152.8063  144.2942  157.4474 H   0  0  0  0  0  0  0  0  0  0  0  0
  151.1248  144.7464  157.1533 H   0  0  0  0  0  0  0  0  0  0  0  0
  152.5413  140.5852  156.0772 H   0  0  0  0  0  0  0  0  0  0  0  0
  1  2  1  0  0  0  0
  1 17  1  0  0  0  0
  2  3  1  0  0  0  0
  2 18  1  0  0  0  0
  2 19  1  0  0  0  0
  3  4  1  0  0  0  0
  3 20  1  0  0  0  0
  3 21  1  0  0  0  0
  4  5  1  0  0  0  0
  5 16  1  0  0  0  0
  5  6  2  0  0  0  0
  6  7  1  0  0  0  0
  6 22  1  0  0  0  0
  7  8  2  0  0  0  0
  7 23  1  0  0  0  0
  8  9  1  0  0  0  0
  8 15  1  0  0  0  0
  9 10  1  0  0  0  0
  9 24  1  0  0  0  0
 10 14  1  0  0  0  0
 10 11  1  0  0  0  0
 10 25  1  0  0  0  0
 11 12  1  0  0  0  0
 11 26  1  0  0  0  0
 11 27  1  0  0  0  0
 12 13  1  0  0  0  0
 12 28  1  0  0  0  0
 12 29  1  0  0  0  0
 13 14  1  0  0  0  0
 14 30  1  0  0  0  0
 14 31  1  0  0  0  0
 15 16  2  0  0  0  0
 15 32  1  0  0  0  0
M  END
> <s_m_source_file>
AV-unprocessed.smi

> <i_m_source_file_index>
2469

> <i_lp_mmshare_version>
43012

> <i_f3d_flags>
0

> <s_epik_input>
W09IXVtDSDJdW0NIMl1PYzFbY0hdW2NIXWMoW2NIXW4xKVtOSF1bQ0BASF0yW0NIMl1bQ0gyXU9bQ0gyXTI=

> <s_epik_cmdline>
J2VwaWtfcHl0aG9uJywgJy1waCcsICc3LjAnLCAnLXRuJywgJzgnLCAnLW1hJywgJzIwMCcsICctbWV0YWxfYmluZGluZycsICctaW1hZScsICc8aW5maWxlLm1hZT4nLCAnLW9tYWUnLCAnPG91dGZpbGUubWFlPic=

> <r_lp_tautomer_probability>
1

> <r_epik_Ionization_Penalty>
0.000432265

> <r_epik_Ionization_Penalty_Charging>
0

> <r_epik_Ionization_Penalty_Neutral>
0.000432265

> <r_epik_State_Penalty>
-0

> <r_epik_Charging_Adjusted_Penalty>
0

> <i_epik_Tot_Q>
0

> <i_epik_Tot_abs_Q>
0

> <r_epik_Metal_State_Penalty>
-0

> <b_epik_Metal_Only>
0

> <s_lp_Force_Field>
OPLS_2005

> <r_lp_Energy>
23.2185

> <b_lp_Chiralities_Consistent>
1

> <s_lp_Variant>
AV-unprocessed.smi:2469-2

> <Gold.Version>
5.8.1

> <Gold.Id.Protein>
6NUR|6NUR_protein|mol2

> <Gold.PLP.Fitness>
36.2602

> <Gold.PLP.PLP>
-32.0821

> <Gold.PLP.part.hbond>
-2.7668

> <Gold.PLP.part.metal>
0.0000

> <Gold.PLP.part.buried>
-6.0606

> <Gold.PLP.part.nonpolar>
-25.0889

> <Gold.PLP.part.repulsive>
2.0040

> <Gold.PLP.ligand.clash>
0.1655

> <Gold.PLP.ligand.torsion>
0.8536

> <Gold.PLP.Chemscore.Hbond>
2.0000

> <Gold.PLP.Chemscore.CHOScore>
0.0000

> <Gold.PLP.Chemscore.Metal>
0.0000

> <Gold.Chemscore.Hbonds>
donor molecule, donor type, donor heavy atom, donor atom, acceptor molecule, acceptor atom, score
      L1  H     1    17       P1 10175  0.85
      P1  H  7989  7998       L1    16  1.00

> <Gold.PLP.Chemscore.Internal.Correction>
0.0508

> <Gold.Rescore>
     Score         DG    S(hbond)    S(metal)    S(lipo)     H(rot)  DE(clash)    DE(int)     intcor
     13.61     -14.41       1.64        0.00      80.32       2.32       0.09       0.71       ----

> <Gold.Chemscore.Fitness>
13.6071

> <Gold.Chemscore.DG>
-14.4050

> <Gold.Chemscore.ZeroCoef>
-5.4800

> <Gold.Chemscore.Hbond>
1.6386

> <Gold.Chemscore.Metal>
0.0000

> <Gold.Chemscore.Lipo>
80.3225

> <Gold.Chemscore.Internal_Hbond>
0.0000

> <Gold.Chemscore.DEClash>
0.0913

> <Gold.Chemscore.DEInternal>
0.7067

> <Gold.Chemscore.Rot>
2.3225

> <Gold.Chemscore.Internal.Correction>
   9.000000E+99

> <Gold.Chemscore.Hbonds>
donor molecule, donor type, donor heavy atom, donor atom, acceptor molecule, acceptor atom, score
      L1  H     1    17       P1 10175  0.78
      P1  H  7989  7998       L1    16  0.43

> <Gold.Chemscore.Hbond.Weighted>
-5.4729

> <Gold.Chemscore.Metal.Weighted>
-0.0000

> <Gold.Chemscore.Lipo.Weighted>
-9.3977

> <Gold.Chemscore.Internal_Hbond.Weighted>
0.0000

> <Gold.Chemscore.DEClash.Weighted>
0.0913

> <Gold.Chemscore.DEInternal.Weighted>
0.7067

> <Gold.Chemscore.Rot.Weighted>
5.9456

> <Gold.Chemscore.Internal.Correction.Weighted>
   9.000000E+99

> <Gold.Protein.RotatedTorsions>
[ 6907 6896 6895 6894 ] final   13.01 input  -60.11 | X-H torsion
[ 7974 7965 7964 7962 ] final -137.36 input  175.53 | X-H torsion
[ 8008 7997 7996 7995 ] final  -75.95 input   59.86 | X-H torsion
[ 10167 10162 10161 10158 ] final  148.56 input  -65.29 | X-H torsion
[ 10718 10713 10712 10709 ] final   12.35 input   66.30 | X-H torsion
[ 10763 10752 10751 10750 ] final   96.96 input  -60.55 | X-H torsion
[ 11005 11000 10999 10996 ] final -107.21 input  -57.11 | X-H torsion

> <Gold.Protein.ActiveResidues>
 VAL166  LYS551  ARG553  GLY616  TRP617  ASP618  TYR619  PRO620  LYS621  CYS622 
 ASP623  PHE694  ASN695  SER759  ASP760  ASP761  ALA762  ILE779  LEU786  VAL792 
 PHE793  MET794  SER795  GLU796  ALA797  LYS798  CYS799  TRP800  GLU811  SER814 

> <Gold.Protein.RotatedAtoms>
  151.7795  135.0765  160.0371 H   0  0  0  0  0  0  0  0  0  0  0  0  # atno 6907 bound_to 6896
  152.3233  133.5873  159.5768 H   0  0  0  0  0  0  0  0  0  0  0  0  # atno 6908 bound_to 6896
  150.7381  133.9894  159.3644 H   0  0  0  0  0  0  0  0  0  0  0  0  # atno 6909 bound_to 6896
  144.8849  140.6560  143.5182 H   0  0  0  0  0  0  0  0  0  0  0  0  # atno 7974 bound_to 7965
  154.5462  140.0735  156.8592 H   0  0  0  0  0  0  0  0  0  0  0  0  # atno 8008 bound_to 7997
  155.3083  140.3388  155.4226 H   0  0  0  0  0  0  0  0  0  0  0  0  # atno 8009 bound_to 7997
  156.1920  140.1689  156.8060 H   0  0  0  0  0  0  0  0  0  0  0  0  # atno 8010 bound_to 7997
  139.4873  144.5670  151.7127 H   0  0  0  0  0  0  0  0  0  0  0  0  # atno 10167 bound_to 10162
  157.0088  130.6109  149.5705 H   0  0  0  0  0  0  0  0  0  0  0  0  # atno 10718 bound_to 10713
  153.2712  135.4200  155.0989 H   0  0  0  0  0  0  0  0  0  0  0  0  # atno 10763 bound_to 10752
  154.8456  135.3472  154.6242 H   0  0  0  0  0  0  0  0  0  0  0  0  # atno 10764 bound_to 10752
  153.6662  135.7046  153.5219 H   0  0  0  0  0  0  0  0  0  0  0  0  # atno 10765 bound_to 10752
  141.0965  133.8961  157.1949 H   0  0  0  0  0  0  0  0  0  0  0  0  # atno 11005 bound_to 11000
  145.3888  139.1621  143.4240 LP  0  0  0  0  0  0  0  0  0  0  0  0  # atno 17320 bound_to 7965
  146.3018  140.3975  142.8701 LP  0  0  0  0  0  0  0  0  0  0  0  0  # atno 17321 bound_to 7965
  140.5250  144.0820  150.6034 LP  0  0  0  0  0  0  0  0  0  0  0  0  # atno 17342 bound_to 10162
  140.3791  143.2812  152.0191 LP  0  0  0  0  0  0  0  0  0  0  0  0  # atno 17343 bound_to 10162
  156.0144  130.5237  150.8088 LP  0  0  0  0  0  0  0  0  0  0  0  0  # atno 17370 bound_to 10713
  157.5336  131.0938  150.9922 LP  0  0  0  0  0  0  0  0  0  0  0  0  # atno 17371 bound_to 10713
  139.9804  135.0100  156.9735 LP  0  0  0  0  0  0  0  0  0  0  0  0  # atno 17394 bound_to 11000
  140.5126  134.0987  155.7274 LP  0  0  0  0  0  0  0  0  0  0  0  0  # atno 17395 bound_to 11000

$$$$
