AV-unprocessed.smi:2768|AV-procd|sdf|10649|dock8
  -GOLD-   2272015103D 1   1.00000     0.00000
 Structure written by MMmdl.
 35 36  0  0  0  0  0  0  0  0  1 V2000
  152.4676  139.9019  155.5362 O   0  0  0  0  0  0  0  0  0  0  0  0
  151.2575  139.9816  155.7513 C   0  0  0  0  0  0  0  0  0  0  0  0
  150.7162  140.9108  156.5564 N   0  0  0  0  0  0  0  0  0  0  0  0
  151.4614  141.9031  157.3272 C   0  0  1  0  0  0  0  0  0  0  0  0
  150.4967  142.9119  157.9801 C   0  0  0  0  0  0  0  0  0  0  0  0
  151.2625  143.9617  158.8016 C   0  0  0  0  0  0  0  0  0  0  0  0
  152.1587  143.2986  159.8592 C   0  0  0  0  0  0  0  0  0  0  0  0
  153.1225  142.2803  159.2231 C   0  0  0  0  0  0  0  0  0  0  0  0
  152.3823  141.2287  158.3739 C   0  0  1  0  0  0  0  0  0  0  0  0
  151.6377  140.3827  159.2316 O   0  0  0  0  0  0  0  0  0  0  0  0
  150.2873  138.9761  155.1145 C   0  0  0  0  0  0  0  0  0  0  0  0
  150.9454  138.2695  154.1922 F   0  0  0  0  0  0  0  0  0  0  0  0
  149.8549  138.1266  156.0496 F   0  0  0  0  0  0  0  0  0  0  0  0
  149.1037  139.7120  154.4911 C   0  0  0  0  0  0  0  0  0  0  0  0
  148.0668  139.0071  153.8377 C   0  0  0  0  0  0  0  0  0  0  0  0
  147.0092  139.7394  153.2648 C   0  0  0  0  0  0  0  0  0  0  0  0
  147.0247  141.1436  153.3614 C   0  0  0  0  0  0  0  0  0  0  0  0
  148.1026  141.7563  154.0294 C   0  0  0  0  0  0  0  0  0  0  0  0
  149.1215  141.0634  154.5811 N   0  0  0  0  0  0  0  0  0  0  0  0
  152.0921  142.4656  156.6357 H   0  0  0  0  0  0  0  0  0  0  0  0
  153.1193  140.6051  157.8666 H   0  0  0  0  0  0  0  0  0  0  0  0
  149.7131  140.9077  156.6724 H   0  0  0  0  0  0  0  0  0  0  0  0
  149.9037  143.4112  157.2129 H   0  0  0  0  0  0  0  0  0  0  0  0
  149.7887  142.3901  158.6257 H   0  0  0  0  0  0  0  0  0  0  0  0
  151.8739  144.5719  158.1354 H   0  0  0  0  0  0  0  0  0  0  0  0
  150.5593  144.6414  159.2840 H   0  0  0  0  0  0  0  0  0  0  0  0
  152.7261  144.0607  160.3940 H   0  0  0  0  0  0  0  0  0  0  0  0
  151.5364  142.8012  160.6040 H   0  0  0  0  0  0  0  0  0  0  0  0
  153.8327  142.8129  158.5893 H   0  0  0  0  0  0  0  0  0  0  0  0
  153.7153  141.7912  159.9970 H   0  0  0  0  0  0  0  0  0  0  0  0
  151.9648  140.4882  160.1118 H   0  0  0  0  0  0  0  0  0  0  0  0
  148.0778  137.9292  153.7699 H   0  0  0  0  0  0  0  0  0  0  0  0
  146.2012  139.2328  152.7584 H   0  0  0  0  0  0  0  0  0  0  0  0
  146.2303  141.7371  152.9335 H   0  0  0  0  0  0  0  0  0  0  0  0
  148.1486  142.8313  154.1221 H   0  0  0  0  0  0  0  0  0  0  0  0
  1  2  2  0  0  0  0
  2  3  1  0  0  0  0
  2 11  1  0  0  0  0
  3  4  1  0  0  0  0
  3 22  1  0  0  0  0
  4 20  1  0  0  0  0
  4  9  1  0  0  0  0
  4  5  1  0  0  0  0
  5  6  1  0  0  0  0
  5 23  1  0  0  0  0
  5 24  1  0  0  0  0
  6  7  1  0  0  0  0
  6 25  1  0  0  0  0
  6 26  1  0  0  0  0
  7  8  1  0  0  0  0
  7 27  1  0  0  0  0
  7 28  1  0  0  0  0
  8  9  1  0  0  0  0
  8 29  1  0  0  0  0
  8 30  1  0  0  0  0
  9 21  1  0  0  0  0
  9 10  1  0  0  0  0
 10 31  1  0  0  0  0
 11 12  1  0  0  0  0
 11 13  1  0  0  0  0
 11 14  1  0  0  0  0
 14 19  1  0  0  0  0
 14 15  2  0  0  0  0
 15 16  1  0  0  0  0
 15 32  1  0  0  0  0
 16 17  2  0  0  0  0
 16 33  1  0  0  0  0
 17 18  1  0  0  0  0
 17 34  1  0  0  0  0
 18 19  2  0  0  0  0
 18 35  1  0  0  0  0
M  END
> <s_m_source_file>
AV-unprocessed.smi

> <i_m_source_file_index>
2768

> <i_lp_mmshare_version>
43012

> <i_f3d_flags>
0

> <s_epik_input>
bjFbY0hdW2NIXVtjSF1bY0hdYzFDKEYpKEYpQyg9TylbTkhdW0NAQEhdMltDSDJdW0NIMl1bQ0gyXVtDSDJdW0NASF0yW09IXQ==

> <s_epik_cmdline>
J2VwaWtfcHl0aG9uJywgJy1waCcsICc3LjAnLCAnLXRuJywgJzgnLCAnLW1hJywgJzIwMCcsICctbWV0YWxfYmluZGluZycsICctaW1hZScsICc8aW5maWxlLm1hZT4nLCAnLW9tYWUnLCAnPG91dGZpbGUubWFlPic=

> <r_lp_tautomer_probability>
1

> <r_epik_Ionization_Penalty>
4.19456e-05

> <r_epik_Ionization_Penalty_Charging>
0

> <r_epik_Ionization_Penalty_Neutral>
4.19456e-05

> <r_epik_State_Penalty>
-0

> <r_epik_Charging_Adjusted_Penalty>
0

> <i_epik_Tot_Q>
0

> <i_epik_Tot_abs_Q>
0

> <r_epik_Metal_State_Penalty>
0.0354684

> <b_epik_Metal_Only>
0

> <s_lp_Force_Field>
OPLS_2005

> <r_lp_Energy>
19.7139

> <b_lp_Chiralities_Consistent>
1

> <s_lp_Variant>
AV-unprocessed.smi:2768-2

> <Gold.Version>
5.8.1

> <Gold.Id.Protein>
6NUR|6NUR_protein|mol2

> <Gold.PLP.Fitness>
42.5864

> <Gold.PLP.PLP>
-37.3818

> <Gold.PLP.part.hbond>
-1.8925

> <Gold.PLP.part.metal>
0.0000

> <Gold.PLP.part.buried>
-4.9565

> <Gold.PLP.part.nonpolar>
-29.8272

> <Gold.PLP.part.repulsive>
0.2117

> <Gold.PLP.ligand.clash>
0.0000

> <Gold.PLP.ligand.torsion>
0.4103

> <Gold.PLP.Chemscore.Hbond>
1.0000

> <Gold.PLP.Chemscore.CHOScore>
1.0000

> <Gold.PLP.Chemscore.Metal>
0.0000

> <Gold.Chemscore.Hbonds>
donor molecule, donor type, donor heavy atom, donor atom, acceptor molecule, acceptor atom, score
      P1  H  7997  8010       L1     1  1.00
      L1  C    18    35       P1  8028  1.00

> <Gold.PLP.Chemscore.Internal.Correction>
0.0251

> <Gold.Rescore>
     Score         DG    S(hbond)    S(metal)    S(lipo)     H(rot)  DE(clash)    DE(int)     intcor
     13.19     -15.33       0.99        0.00      99.62       2.00       0.10       2.04       ----

> <Gold.Chemscore.Fitness>
13.1879

> <Gold.Chemscore.DG>
-15.3291

> <Gold.Chemscore.ZeroCoef>
-5.4800

> <Gold.Chemscore.Hbond>
0.9896

> <Gold.Chemscore.Metal>
0.0000

> <Gold.Chemscore.Lipo>
99.6235

> <Gold.Chemscore.Internal_Hbond>
0.0000

> <Gold.Chemscore.DEClash>
0.0989

> <Gold.Chemscore.DEInternal>
2.0423

> <Gold.Chemscore.Rot>
1.9969

> <Gold.Chemscore.Internal.Correction>
   9.000000E+99

> <Gold.Chemscore.Hbonds>
donor molecule, donor type, donor heavy atom, donor atom, acceptor molecule, acceptor atom, score
      P1  H  7997  8010       L1     1  0.96

> <Gold.Chemscore.Hbond.Weighted>
-3.3053

> <Gold.Chemscore.Metal.Weighted>
-0.0000

> <Gold.Chemscore.Lipo.Weighted>
-11.6559

> <Gold.Chemscore.Internal_Hbond.Weighted>
0.0000

> <Gold.Chemscore.DEClash.Weighted>
0.0989

> <Gold.Chemscore.DEInternal.Weighted>
2.0423

> <Gold.Chemscore.Rot.Weighted>
5.1122

> <Gold.Chemscore.Internal.Correction.Weighted>
   9.000000E+99

> <Gold.Protein.RotatedTorsions>
[ 6907 6896 6895 6894 ] final   85.03 input  -60.11 | X-H torsion
[ 7974 7965 7964 7962 ] final  157.31 input  175.53 | X-H torsion
[ 8008 7997 7996 7995 ] final   90.43 input   59.86 | X-H torsion
[ 10167 10162 10161 10158 ] final -134.63 input  -65.29 | X-H torsion
[ 10718 10713 10712 10709 ] final   92.50 input   66.30 | X-H torsion
[ 10763 10752 10751 10750 ] final  171.53 input  -60.55 | X-H torsion
[ 11005 11000 10999 10996 ] final   27.40 input  -57.11 | X-H torsion

> <Gold.Protein.ActiveResidues>
 VAL166  LYS551  ARG553  GLY616  TRP617  ASP618  TYR619  PRO620  LYS621  CYS622 
 ASP623  PHE694  ASN695  SER759  ASP760  ASP761  ALA762  ILE779  LEU786  VAL792 
 PHE793  MET794  SER795  GLU796  ALA797  LYS798  CYS799  TRP800  GLU811  SER814 

> <Gold.Protein.RotatedAtoms>
  152.5366  134.2649  159.8948 H   0  0  0  0  0  0  0  0  0  0  0  0  # atno 6907 bound_to 6896
  151.2607  133.4297  159.2623 H   0  0  0  0  0  0  0  0  0  0  0  0  # atno 6908 bound_to 6896
  151.0455  134.9651  159.8241 H   0  0  0  0  0  0  0  0  0  0  0  0  # atno 6909 bound_to 6896
  144.7911  139.7322  143.6221 H   0  0  0  0  0  0  0  0  0  0  0  0  # atno 7974 bound_to 7965
  156.0118  140.3349  155.6949 H   0  0  0  0  0  0  0  0  0  0  0  0  # atno 8008 bound_to 7997
  155.6146  140.0669  157.2714 H   0  0  0  0  0  0  0  0  0  0  0  0  # atno 8009 bound_to 7997
  154.4284  140.1787  156.1296 H   0  0  0  0  0  0  0  0  0  0  0  0  # atno 8010 bound_to 7997
  139.8860  143.6780  152.2620 H   0  0  0  0  0  0  0  0  0  0  0  0  # atno 10167 bound_to 10162
  157.6958  131.0445  150.3890 H   0  0  0  0  0  0  0  0  0  0  0  0  # atno 10718 bound_to 10713
  154.4131  135.2756  155.2024 H   0  0  0  0  0  0  0  0  0  0  0  0  # atno 10763 bound_to 10752
  154.4001  135.6046  153.5896 H   0  0  0  0  0  0  0  0  0  0  0  0  # atno 10764 bound_to 10752
  152.9831  135.5924  154.4416 H   0  0  0  0  0  0  0  0  0  0  0  0  # atno 10765 bound_to 10752
  140.3267  134.2483  155.7708 H   0  0  0  0  0  0  0  0  0  0  0  0  # atno 11005 bound_to 11000
  146.2163  139.5555  142.9648 LP  0  0  0  0  0  0  0  0  0  0  0  0  # atno 17320 bound_to 7965
  145.5792  141.0384  143.2131 LP  0  0  0  0  0  0  0  0  0  0  0  0  # atno 17321 bound_to 7965
  139.7152  144.7613  151.1045 LP  0  0  0  0  0  0  0  0  0  0  0  0  # atno 17342 bound_to 10162
  140.7735  143.5278  150.9459 LP  0  0  0  0  0  0  0  0  0  0  0  0  # atno 17343 bound_to 10162
  156.4296  130.3969  149.6769 LP  0  0  0  0  0  0  0  0  0  0  0  0  # atno 17370 bound_to 10713
  156.3991  130.7666  151.2672 LP  0  0  0  0  0  0  0  0  0  0  0  0  # atno 17371 bound_to 10713
  141.2073  133.7808  157.0125 LP  0  0  0  0  0  0  0  0  0  0  0  0  # atno 17394 bound_to 11000
  140.0895  134.9601  157.1754 LP  0  0  0  0  0  0  0  0  0  0  0  0  # atno 17395 bound_to 11000

$$$$
