AV-unprocessed.smi:1403|AV-procd|sdf|5701|dock9
  -GOLD-   22720 5333D 1   1.00000     0.00000
 Structure written by MMmdl.
 35 36  0  0  0  0  0  0  0  0  2 V2000
  151.7529  144.3388  159.4398 C   0  0  0  0  0  0  0  0  0  0  0  0
  150.4043  143.6460  159.1991 C   0  0  2  0  0  0  0  0  0  0  0  0
  150.3156  143.2276  157.8019 N   0  0  0  0  0  0  0  0  0  0  0  0
  150.8371  142.1079  157.2780 C   0  0  0  0  0  0  0  0  0  0  0  0
  151.5541  141.3297  157.9063 O   0  0  0  0  0  0  0  0  0  0  0  0
  150.4698  141.8161  155.8209 C   0  0  0  0  0  0  0  0  0  0  0  0
  150.7117  140.4011  155.5017 N   0  0  0  0  0  0  0  0  0  0  0  0
  152.0414  139.9483  155.5711 C   0  0  0  0  0  0  0  0  0  0  0  0
  152.3807  138.6840  155.2575 C   0  0  0  0  0  0  0  0  0  0  0  0
  151.3247  137.7711  154.8389 C   0  0  0  0  0  0  0  0  0  0  0  0
  151.6155  136.6122  154.5493 O   0  0  0  0  0  0  0  0  0  0  0  0
  150.0495  138.2562  154.7887 N   0  5  0  0  0  0  0  0  0  0  0  0
  149.7200  139.5476  155.1044 C   0  0  0  0  0  0  0  0  0  0  0  0
  148.5638  139.9653  155.0410 O   0  0  0  0  0  0  0  0  0  0  0  0
  149.2108  144.5544  159.5695 C   0  0  2  0  0  0  0  0  0  0  0  0
  149.2587  145.1757  160.9717 C   0  0  0  0  0  0  0  0  0  0  0  0
  147.7916  145.3706  161.2769 C   0  0  0  0  0  0  0  0  0  0  0  0
  147.1857  144.1161  160.6589 C   0  0  0  0  0  0  0  0  0  0  0  0
  147.9775  143.8362  159.5084 O   0  0  0  0  0  0  0  0  0  0  0  0
  151.8561  144.6446  160.4813 H   0  0  0  0  0  0  0  0  0  0  0  0
  151.8604  145.2292  158.8194 H   0  0  0  0  0  0  0  0  0  0  0  0
  152.5834  143.6704  159.2101 H   0  0  0  0  0  0  0  0  0  0  0  0
  150.3738  142.7730  159.8532 H   0  0  0  0  0  0  0  0  0  0  0  0
  149.7439  143.8012  157.1990 H   0  0  0  0  0  0  0  0  0  0  0  0
  149.4233  142.0680  155.6406 H   0  0  0  0  0  0  0  0  0  0  0  0
  151.0402  142.4793  155.1686 H   0  0  0  0  0  0  0  0  0  0  0  0
  152.7622  140.6904  155.8820 H   0  0  0  0  0  0  0  0  0  0  0  0
  153.4082  138.3556  155.3098 H   0  0  0  0  0  0  0  0  0  0  0  0
  149.1386  145.3670  158.8451 H   0  0  0  0  0  0  0  0  0  0  0  0
  149.6879  144.4935  161.7052 H   0  0  0  0  0  0  0  0  0  0  0  0
  149.8294  146.1040  161.0038 H   0  0  0  0  0  0  0  0  0  0  0  0
  147.5831  145.4635  162.3433 H   0  0  0  0  0  0  0  0  0  0  0  0
  147.4165  146.2615  160.7719 H   0  0  0  0  0  0  0  0  0  0  0  0
  147.2679  143.2763  161.3496 H   0  0  0  0  0  0  0  0  0  0  0  0
  146.1340  144.2411  160.4012 H   0  0  0  0  0  0  0  0  0  0  0  0
  1  2  1  0  0  0  0
  1 20  1  0  0  0  0
  1 21  1  0  0  0  0
  1 22  1  0  0  0  0
  2  3  1  0  0  0  0
  2 15  1  0  0  0  0
  2 23  1  0  0  0  0
  3  4  1  0  0  0  0
  3 24  1  0  0  0  0
  4  5  2  0  0  0  0
  4  6  1  0  0  0  0
  6  7  1  0  0  0  0
  6 25  1  0  0  0  0
  6 26  1  0  0  0  0
  7 13  1  0  0  0  0
  7  8  1  0  0  0  0
  8  9  2  0  0  0  0
  8 27  1  0  0  0  0
  9 10  1  0  0  0  0
  9 28  1  0  0  0  0
 10 11  2  0  0  0  0
 10 12  1  0  0  0  0
 12 13  1  0  0  0  0
 13 14  2  0  0  0  0
 15 19  1  0  0  0  0
 15 16  1  0  0  0  0
 15 29  1  0  0  0  0
 16 17  1  0  0  0  0
 16 30  1  0  0  0  0
 16 31  1  0  0  0  0
 17 18  1  0  0  0  0
 17 32  1  0  0  0  0
 17 33  1  0  0  0  0
 18 19  1  0  0  0  0
 18 34  1  0  0  0  0
 18 35  1  0  0  0  0
M  CHG  1  12  -1
M  END
> <s_m_source_file>
AV-unprocessed.smi

> <i_m_source_file_index>
1403

> <i_lp_mmshare_version>
43012

> <i_f3d_flags>
0

> <s_epik_input>
TzFbQ0gyXVtDSDJdW0NIMl1bQ0BIXTFbQ0BIXShbQ0gzXSlbTkhdQyg9TylbQ0gyXW4yW2NIXVtjSF1jKD1PKVtuSF1jMj1P

> <s_epik_cmdline>
J2VwaWtfcHl0aG9uJywgJy1waCcsICc3LjAnLCAnLXRuJywgJzgnLCAnLW1hJywgJzIwMCcsICctbWV0YWxfYmluZGluZycsICctaW1hZScsICc8aW5maWxlLm1hZT4nLCAnLW9tYWUnLCAnPG91dGZpbGUubWFlPic=

> <r_lp_tautomer_probability>
0.999537

> <r_epik_Ionization_Penalty>
3.07438

> <r_epik_Ionization_Penalty_Charging>
2.82466e-08

> <r_epik_Ionization_Penalty_Neutral>
3.07438

> <r_epik_State_Penalty>
3.07341

> <r_epik_Charging_Adjusted_Penalty>
3.07341

> <i_epik_Tot_Q>
-1

> <i_epik_Tot_abs_Q>
1

> <r_epik_Metal_State_Penalty>
0.45947

> <b_epik_Metal_Only>
1

> <s_lp_Force_Field>
OPLS_2005

> <r_lp_Energy>
29.4252

> <b_lp_Chiralities_Consistent>
1

> <s_lp_Variant>
AV-unprocessed.smi:1403-5

> <Gold.Version>
5.8.1

> <Gold.Id.Protein>
6NUR|6NUR_protein|mol2

> <Gold.PLP.Fitness>
39.1137

> <Gold.PLP.PLP>
-34.3767

> <Gold.PLP.part.hbond>
-2.0103

> <Gold.PLP.part.metal>
0.0000

> <Gold.PLP.part.buried>
-3.4359

> <Gold.PLP.part.nonpolar>
-30.1791

> <Gold.PLP.part.repulsive>
0.6071

> <Gold.PLP.ligand.clash>
0.0000

> <Gold.PLP.ligand.torsion>
0.6420

> <Gold.PLP.Chemscore.Hbond>
2.0000

> <Gold.PLP.Chemscore.CHOScore>
0.0000

> <Gold.PLP.Chemscore.Metal>
0.0000

> <Gold.Chemscore.Hbonds>
donor molecule, donor type, donor heavy atom, donor atom, acceptor molecule, acceptor atom, score
      L1  H     3    24       P1  8028  1.00
      P1  H 10752 10764       L1    11  0.99

> <Gold.PLP.Chemscore.Internal.Correction>
0.0210

> <Gold.Rescore>
     Score         DG    S(hbond)    S(metal)    S(lipo)     H(rot)  DE(clash)    DE(int)     intcor
     11.65     -15.00       1.94        0.00      69.73       1.99       1.22       2.13       ----

> <Gold.Chemscore.Fitness>
11.6499

> <Gold.Chemscore.DG>
-14.9971

> <Gold.Chemscore.ZeroCoef>
-5.4800

> <Gold.Chemscore.Hbond>
1.9352

> <Gold.Chemscore.Metal>
0.0000

> <Gold.Chemscore.Lipo>
69.7290

> <Gold.Chemscore.Internal_Hbond>
0.0000

> <Gold.Chemscore.DEClash>
1.2219

> <Gold.Chemscore.DEInternal>
2.1254

> <Gold.Chemscore.Rot>
1.9940

> <Gold.Chemscore.Internal.Correction>
   9.000000E+99

> <Gold.Chemscore.Hbonds>
donor molecule, donor type, donor heavy atom, donor atom, acceptor molecule, acceptor atom, score
      L1  H     3    24       P1  8028  0.81
      P1  H 10752 10764       L1    11  0.94

> <Gold.Chemscore.Hbond.Weighted>
-6.4635

> <Gold.Chemscore.Metal.Weighted>
-0.0000

> <Gold.Chemscore.Lipo.Weighted>
-8.1583

> <Gold.Chemscore.Internal_Hbond.Weighted>
0.0000

> <Gold.Chemscore.DEClash.Weighted>
1.2219

> <Gold.Chemscore.DEInternal.Weighted>
2.1254

> <Gold.Chemscore.Rot.Weighted>
5.1047

> <Gold.Chemscore.Internal.Correction.Weighted>
   9.000000E+99

> <Gold.Protein.RotatedTorsions>
[ 6907 6896 6895 6894 ] final  -55.73 input  -60.11 | X-H torsion
[ 7974 7965 7964 7962 ] final  126.33 input  175.53 | X-H torsion
[ 8008 7997 7996 7995 ] final  148.53 input   59.86 | X-H torsion
[ 10167 10162 10161 10158 ] final  145.88 input  -65.29 | X-H torsion
[ 10718 10713 10712 10709 ] final  104.77 input   66.30 | X-H torsion
[ 10763 10752 10751 10750 ] final  -51.08 input  -60.55 | X-H torsion
[ 11005 11000 10999 10996 ] final   55.26 input  -57.11 | X-H torsion

> <Gold.Protein.ActiveResidues>
 VAL166  LYS551  ARG553  GLY616  TRP617  ASP618  TYR619  PRO620  LYS621  CYS622 
 ASP623  PHE694  ASN695  SER759  ASP760  ASP761  ALA762  ILE779  LEU786  VAL792 
 PHE793  MET794  SER795  GLU796  ALA797  LYS798  CYS799  TRP800  GLU811  SER814 

> <Gold.Protein.RotatedAtoms>
  150.8227  134.7442  159.6785 H   0  0  0  0  0  0  0  0  0  0  0  0  # atno 6907 bound_to 6896
  152.4341  134.5718  159.9933 H   0  0  0  0  0  0  0  0  0  0  0  0  # atno 6908 bound_to 6896
  151.5898  133.3330  159.3061 H   0  0  0  0  0  0  0  0  0  0  0  0  # atno 6909 bound_to 6896
  145.0629  139.3790  143.4996 H   0  0  0  0  0  0  0  0  0  0  0  0  # atno 7974 bound_to 7965
  156.2788  140.2126  156.5713 H   0  0  0  0  0  0  0  0  0  0  0  0  # atno 8008 bound_to 7997
  154.7133  140.0510  157.0594 H   0  0  0  0  0  0  0  0  0  0  0  0  # atno 8009 bound_to 7997
  155.0576  140.3163  155.4674 H   0  0  0  0  0  0  0  0  0  0  0  0  # atno 8010 bound_to 7997
  139.4917  144.5870  151.6759 H   0  0  0  0  0  0  0  0  0  0  0  0  # atno 10167 bound_to 10162
  157.6729  131.0812  150.5756 H   0  0  0  0  0  0  0  0  0  0  0  0  # atno 10718 bound_to 10713
  154.1208  135.6535  153.4903 H   0  0  0  0  0  0  0  0  0  0  0  0  # atno 10763 bound_to 10752
  153.0226  135.5270  154.7098 H   0  0  0  0  0  0  0  0  0  0  0  0  # atno 10764 bound_to 10752
  154.6305  135.2975  155.0192 H   0  0  0  0  0  0  0  0  0  0  0  0  # atno 10765 bound_to 10752
  140.0621  134.5588  155.9140 H   0  0  0  0  0  0  0  0  0  0  0  0  # atno 11005 bound_to 11000
  146.3525  140.0336  142.8648 LP  0  0  0  0  0  0  0  0  0  0  0  0  # atno 17320 bound_to 7965
  145.1386  140.9559  143.4502 LP  0  0  0  0  0  0  0  0  0  0  0  0  # atno 17321 bound_to 7965
  140.5488  144.0460  150.6118 LP  0  0  0  0  0  0  0  0  0  0  0  0  # atno 17342 bound_to 10162
  140.3507  143.2965  152.0490 LP  0  0  0  0  0  0  0  0  0  0  0  0  # atno 17343 bound_to 10162
  156.6057  130.4366  149.5879 LP  0  0  0  0  0  0  0  0  0  0  0  0  # atno 17370 bound_to 10713
  156.2470  130.6885  151.1609 LP  0  0  0  0  0  0  0  0  0  0  0  0  # atno 17371 bound_to 10713
  141.1977  133.6598  156.5757 LP  0  0  0  0  0  0  0  0  0  0  0  0  # atno 17394 bound_to 11000
  140.3754  134.7569  157.4626 LP  0  0  0  0  0  0  0  0  0  0  0  0  # atno 17395 bound_to 11000

$$$$
