AV-unprocessed.smi:1641|AV-procd|sdf|6561|dock2
  -GOLD-   22720 7243D 1   1.00000     0.00000
 Structure written by MMmdl.
 42 43  0  0  0  0  0  0  0  0  2 V2000
  143.7647  133.0368  150.3887 C   0  0  0  0  0  0  0  0  0  0  0  0
  143.8502  134.3295  151.1255 C   0  0  0  0  0  0  0  0  0  0  0  0
  143.0872  134.6107  152.1889 N   0  0  0  0  0  0  0  0  0  0  0  0
  143.3422  135.8757  152.6993 N   0  0  0  0  0  0  0  0  0  0  0  0
  144.2937  136.5130  152.0032 C   0  0  0  0  0  0  0  0  0  0  0  0
  144.7440  137.8259  152.3030 N   0  0  0  0  0  0  0  0  0  0  0  0
  145.9476  138.2064  152.7659 C   0  0  0  0  0  0  0  0  0  0  0  0
  146.8969  137.4545  152.9891 O   0  0  0  0  0  0  0  0  0  0  0  0
  145.9978  139.5312  152.9662 N   0  0  0  0  0  0  0  0  0  0  0  0
  147.1629  140.2504  153.4680 C   0  0  0  0  0  0  0  0  0  0  0  0
  147.4795  139.8685  154.9273 C   0  0  0  0  0  0  0  0  0  0  0  0
  148.9321  139.9238  155.2233 N   0  3  1  0  0  0  0  0  0  0  0  0
  149.7379  139.1634  154.2407 C   0  0  0  0  0  0  0  0  0  0  0  0
  151.2216  139.1589  154.6495 C   0  0  1  0  0  0  0  0  0  0  0  0
  152.1011  138.4568  153.6092 C   0  0  0  0  0  0  0  0  0  0  0  0
  151.6825  140.5014  154.7788 O   0  0  0  0  0  0  0  0  0  0  0  0
  150.9556  141.2995  155.7129 C   0  0  2  0  0  0  0  0  0  0  0  0
  151.2375  140.8945  157.1707 C   0  0  0  0  0  0  0  0  0  0  0  0
  149.4564  141.3057  155.3555 C   0  0  0  0  0  0  0  0  0  0  0  0
  144.9653  135.6074  150.6578 S   0  0  0  0  0  0  0  0  0  0  0  0
  143.0098  132.3881  150.8343 H   0  0  0  0  0  0  0  0  0  0  0  0
  144.7271  132.5259  150.4200 H   0  0  0  0  0  0  0  0  0  0  0  0
  143.4974  133.2195  149.3478 H   0  0  0  0  0  0  0  0  0  0  0  0
  144.0638  138.5581  152.1621 H   0  0  0  0  0  0  0  0  0  0  0  0
  145.1768  140.0794  152.7528 H   0  0  0  0  0  0  0  0  0  0  0  0
  148.0096  140.0560  152.8091 H   0  0  0  0  0  0  0  0  0  0  0  0
  146.9567  141.3188  153.4008 H   0  0  0  0  0  0  0  0  0  0  0  0
  146.9544  140.5679  155.5800 H   0  0  0  0  0  0  0  0  0  0  0  0
  147.0972  138.8757  155.1700 H   0  0  0  0  0  0  0  0  0  0  0  0
  149.3739  138.1369  154.1803 H   0  0  0  0  0  0  0  0  0  0  0  0
  149.6167  139.6054  153.2500 H   0  0  0  0  0  0  0  0  0  0  0  0
  151.3383  138.6357  155.5987 H   0  0  0  0  0  0  0  0  0  0  0  0
  151.8012  137.4167  153.4780 H   0  0  0  0  0  0  0  0  0  0  0  0
  153.1476  138.4646  153.9150 H   0  0  0  0  0  0  0  0  0  0  0  0
  152.0347  138.9492  152.6386 H   0  0  0  0  0  0  0  0  0  0  0  0
  151.3285  142.3170  155.5922 H   0  0  0  0  0  0  0  0  0  0  0  0
  150.7797  141.6014  157.8631 H   0  0  0  0  0  0  0  0  0  0  0  0
  152.3092  140.8860  157.3714 H   0  0  0  0  0  0  0  0  0  0  0  0
  150.8441  139.9071  157.4112 H   0  0  0  0  0  0  0  0  0  0  0  0
  149.3091  141.8329  154.4113 H   0  0  0  0  0  0  0  0  0  0  0  0
  148.9049  141.8624  156.1123 H   0  0  0  0  0  0  0  0  0  0  0  0
  149.0646  139.4673  156.1145 H   0  0  0  0  0  0  0  0  0  0  0  0
  1  2  1  0  0  0  0
  1 21  1  0  0  0  0
  1 22  1  0  0  0  0
  1 23  1  0  0  0  0
  2 20  1  0  0  0  0
  2  3  2  0  0  0  0
  3  4  1  0  0  0  0
  4  5  2  0  0  0  0
  5  6  1  0  0  0  0
  5 20  1  0  0  0  0
  6  7  1  0  0  0  0
  6 24  1  0  0  0  0
  7  8  2  0  0  0  0
  7  9  1  0  0  0  0
  9 10  1  0  0  0  0
  9 25  1  0  0  0  0
 10 11  1  0  0  0  0
 10 26  1  0  0  0  0
 10 27  1  0  0  0  0
 11 12  1  0  0  0  0
 11 28  1  0  0  0  0
 11 29  1  0  0  0  0
 12 19  1  0  0  0  0
 12 13  1  0  0  0  0
 12 42  1  0  0  0  0
 13 14  1  0  0  0  0
 13 30  1  0  0  0  0
 13 31  1  0  0  0  0
 14 15  1  0  0  0  0
 14 16  1  0  0  0  0
 14 32  1  0  0  0  0
 15 33  1  0  0  0  0
 15 34  1  0  0  0  0
 15 35  1  0  0  0  0
 16 17  1  0  0  0  0
 17 18  1  0  0  0  0
 17 19  1  0  0  0  0
 17 36  1  0  0  0  0
 18 37  1  0  0  0  0
 18 38  1  0  0  0  0
 18 39  1  0  0  0  0
 19 40  1  0  0  0  0
 19 41  1  0  0  0  0
M  CHG  1  12   1
M  END
> <s_m_source_file>
AV-unprocessed.smi

> <i_m_source_file_index>
1641

> <i_lp_mmshare_version>
43012

> <i_f3d_flags>
0

> <s_epik_input>
W0NIM11jMW5uYyhzMSlbTkhdQyg9TylbTkhdW0NIMl1bQ0gyXU4yW0NIMl1bQ0BASF0oW0NIM10pT1tDQEBIXShbQ0gzXSlbQ0gyXTI=

> <s_epik_cmdline>
J2VwaWtfcHl0aG9uJywgJy1waCcsICc3LjAnLCAnLXRuJywgJzgnLCAnLW1hJywgJzIwMCcsICctbWV0YWxfYmluZGluZycsICctaW1hZScsICc8aW5maWxlLm1hZT4nLCAnLW9tYWUnLCAnPG91dGZpbGUubWFlPic=

> <r_lp_tautomer_probability>
1

> <r_epik_Ionization_Penalty>
0.700114

> <r_epik_Ionization_Penalty_Charging>
0.695697

> <r_epik_Ionization_Penalty_Neutral>
0.00441638

> <r_epik_State_Penalty>
0.717972

> <r_epik_Charging_Adjusted_Penalty>
1.41367

> <i_epik_Tot_Q>
1

> <i_epik_Tot_abs_Q>
1

> <r_epik_Metal_State_Penalty>
1.06958

> <b_epik_Metal_Only>
0

> <s_lp_Force_Field>
OPLS_2005

> <r_lp_Energy>
15.7554

> <b_lp_Chiralities_Consistent>
1

> <s_lp_Variant>
AV-unprocessed.smi:1641-6

> <Gold.Version>
5.8.1

> <Gold.Id.Protein>
6NUR|6NUR_protein|mol2

> <Gold.PLP.Fitness>
40.2394

> <Gold.PLP.PLP>
-33.7536

> <Gold.PLP.part.hbond>
-4.0000

> <Gold.PLP.part.metal>
0.0000

> <Gold.PLP.part.buried>
-6.6622

> <Gold.PLP.part.nonpolar>
-25.5926

> <Gold.PLP.part.repulsive>
2.0454

> <Gold.PLP.ligand.clash>
0.0000

> <Gold.PLP.ligand.torsion>
0.9400

> <Gold.PLP.Chemscore.Hbond>
2.7760

> <Gold.PLP.Chemscore.CHOScore>
0.0000

> <Gold.PLP.Chemscore.Metal>
0.0000

> <Gold.Chemscore.Hbonds>
donor molecule, donor type, donor heavy atom, donor atom, acceptor molecule, acceptor atom, score
      L1  H     6    24       P1 10175  0.91
      L1  H     9    25       P1 10175  1.00
      P1  H  7989  7998       L1    16  0.40

> <Gold.PLP.Chemscore.Internal.Correction>
0.0379

> <Gold.Rescore>
     Score         DG    S(hbond)    S(metal)    S(lipo)     H(rot)  DE(clash)    DE(int)     intcor
     14.89     -17.38       2.26        0.00      72.95       1.64       1.53       0.96       ----

> <Gold.Chemscore.Fitness>
14.8930

> <Gold.Chemscore.DG>
-17.3793

> <Gold.Chemscore.ZeroCoef>
-5.4800

> <Gold.Chemscore.Hbond>
2.2611

> <Gold.Chemscore.Metal>
0.0000

> <Gold.Chemscore.Lipo>
72.9497

> <Gold.Chemscore.Internal_Hbond>
0.0000

> <Gold.Chemscore.DEClash>
1.5295

> <Gold.Chemscore.DEInternal>
0.9569

> <Gold.Chemscore.Rot>
1.6358

> <Gold.Chemscore.Internal.Correction>
   9.000000E+99

> <Gold.Chemscore.Hbonds>
donor molecule, donor type, donor heavy atom, donor atom, acceptor molecule, acceptor atom, score
      L1  H     6    24       P1 10175  0.89
      L1  H     9    25       P1 10175  0.96
      P1  H  7989  7998       L1    16  0.10

> <Gold.Chemscore.Hbond.Weighted>
-7.5519

> <Gold.Chemscore.Metal.Weighted>
-0.0000

> <Gold.Chemscore.Lipo.Weighted>
-8.5351

> <Gold.Chemscore.Internal_Hbond.Weighted>
0.0000

> <Gold.Chemscore.DEClash.Weighted>
1.5295

> <Gold.Chemscore.DEInternal.Weighted>
0.9569

> <Gold.Chemscore.Rot.Weighted>
4.1878

> <Gold.Chemscore.Internal.Correction.Weighted>
   9.000000E+99

> <Gold.Protein.RotatedTorsions>
[ 6907 6896 6895 6894 ] final   99.42 input  -60.11 | X-H torsion
[ 7974 7965 7964 7962 ] final  152.84 input  175.53 | X-H torsion
[ 8008 7997 7996 7995 ] final -149.44 input   59.86 | X-H torsion
[ 10167 10162 10161 10158 ] final   58.02 input  -65.29 | X-H torsion
[ 10718 10713 10712 10709 ] final  -39.05 input   66.30 | X-H torsion
[ 10763 10752 10751 10750 ] final    3.65 input  -60.55 | X-H torsion
[ 11005 11000 10999 10996 ] final -175.08 input  -57.11 | X-H torsion

> <Gold.Protein.ActiveResidues>
 VAL166  LYS551  ARG553  GLY616  TRP617  ASP618  TYR619  PRO620  LYS621  CYS622 
 ASP623  PHE694  ASN695  SER759  ASP760  ASP761  ALA762  ILE779  LEU786  VAL792 
 PHE793  MET794  SER795  GLU796  ALA797  LYS798  CYS799  TRP800  GLU811  SER814 

> <Gold.Protein.RotatedAtoms>
  152.5392  134.0431  159.8076 H   0  0  0  0  0  0  0  0  0  0  0  0  # atno 6907 bound_to 6896
  151.0584  133.5557  159.2643 H   0  0  0  0  0  0  0  0  0  0  0  0  # atno 6908 bound_to 6896
  151.2465  135.0615  159.9099 H   0  0  0  0  0  0  0  0  0  0  0  0  # atno 6909 bound_to 6896
  144.8195  139.6721  143.6106 H   0  0  0  0  0  0  0  0  0  0  0  0  # atno 7974 bound_to 7965
  155.6076  140.0668  157.2715 H   0  0  0  0  0  0  0  0  0  0  0  0  # atno 8008 bound_to 7997
  154.4262  140.1807  156.1286 H   0  0  0  0  0  0  0  0  0  0  0  0  # atno 8009 bound_to 7997
  156.0110  140.3326  155.6944 H   0  0  0  0  0  0  0  0  0  0  0  0  # atno 8010 bound_to 7997
  140.1917  144.4078  150.6568 H   0  0  0  0  0  0  0  0  0  0  0  0  # atno 10167 bound_to 10162
  156.2968  130.4235  149.8183 H   0  0  0  0  0  0  0  0  0  0  0  0  # atno 10718 bound_to 10713
  153.2808  135.6940  153.7387 H   0  0  0  0  0  0  0  0  0  0  0  0  # atno 10763 bound_to 10752
  153.6375  135.3399  155.3062 H   0  0  0  0  0  0  0  0  0  0  0  0  # atno 10764 bound_to 10752
  154.8494  135.4424  154.1861 H   0  0  0  0  0  0  0  0  0  0  0  0  # atno 10765 bound_to 10752
  140.4673  134.6198  157.4868 H   0  0  0  0  0  0  0  0  0  0  0  0  # atno 11005 bound_to 11000
  146.2500  139.6179  142.9433 LP  0  0  0  0  0  0  0  0  0  0  0  0  # atno 17320 bound_to 7965
  145.5137  141.0434  143.2473 LP  0  0  0  0  0  0  0  0  0  0  0  0  # atno 17321 bound_to 7965
  140.6451  143.2211  151.6204 LP  0  0  0  0  0  0  0  0  0  0  0  0  # atno 17342 bound_to 10162
  139.5253  144.3078  152.1018 LP  0  0  0  0  0  0  0  0  0  0  0  0  # atno 17343 bound_to 10162
  156.5576  130.8369  151.3319 LP  0  0  0  0  0  0  0  0  0  0  0  0  # atno 17370 bound_to 10713
  157.7357  130.9767  150.2098 LP  0  0  0  0  0  0  0  0  0  0  0  0  # atno 17371 bound_to 10713
  139.9907  134.6990  155.9695 LP  0  0  0  0  0  0  0  0  0  0  0  0  # atno 17394 bound_to 11000
  141.1593  133.6540  156.4266 LP  0  0  0  0  0  0  0  0  0  0  0  0  # atno 17395 bound_to 11000

$$$$
