AV-unprocessed.smi:1406|AV-procd|sdf|5712|dock5
  -GOLD-   22720 5343D 1   1.00000     0.00000
 Structure written by MMmdl.
 41 43  0  0  0  0  0  0  0  0  2 V2000
  153.0506  138.3006  154.4385 C   0  0  0  0  0  0  0  0  0  0  0  0
  152.4967  138.7048  155.8202 C   0  0  1  0  0  0  0  0  0  0  0  0
  151.5611  139.9287  155.7578 C   0  0  0  0  0  0  0  0  0  0  0  0
  150.9658  140.2131  154.7178 O   0  0  0  0  0  0  0  0  0  0  0  0
  151.4532  140.6678  156.8746 N   0  0  0  0  0  0  0  0  0  0  0  0
  150.6159  141.8554  157.0143 C   0  0  1  0  0  0  0  0  0  0  0  0
  149.4858  141.6808  158.0370 C   0  0  0  0  0  0  0  0  0  0  0  0
  149.2668  143.0823  158.6341 C   0  0  0  0  0  0  0  0  0  0  0  0
  150.2657  143.9658  157.9916 N   0  3  1  0  0  0  0  0  0  0  0  0
  150.6713  145.1722  158.7576 C   0  0  0  0  0  0  0  0  0  0  0  0
  151.6910  144.8577  159.8650 C   0  0  0  0  0  0  0  0  0  0  0  0
  152.8949  144.1019  159.2933 C   0  0  0  0  0  0  0  0  0  0  0  0
  152.4157  142.8149  158.6142 C   0  0  0  0  0  0  0  0  0  0  0  0
  151.3672  143.1028  157.5088 C   0  0  1  0  0  0  0  0  0  0  0  0
  151.8568  137.5744  156.4863 N   0  0  0  0  0  0  0  0  0  0  0  0
  151.3712  137.4700  157.7254 C   0  0  0  0  0  0  0  0  0  0  0  0
  150.8154  136.2959  157.9885 N   0  0  0  0  0  0  0  0  0  0  0  0
  151.0048  135.6785  156.7845 C   0  0  0  0  0  0  0  0  0  0  0  0
  151.6164  136.4024  155.8472 N   0  0  0  0  0  0  0  0  0  0  0  0
  153.6171  139.1139  153.9839 H   0  0  0  0  0  0  0  0  0  0  0  0
  152.2535  138.0246  153.7467 H   0  0  0  0  0  0  0  0  0  0  0  0
  153.7242  137.4474  154.5240 H   0  0  0  0  0  0  0  0  0  0  0  0
  153.3457  138.9999  156.4383 H   0  0  0  0  0  0  0  0  0  0  0  0
  151.9733  140.3747  157.6891 H   0  0  0  0  0  0  0  0  0  0  0  0
  150.1580  142.0847  156.0495 H   0  0  0  0  0  0  0  0  0  0  0  0
  148.5819  141.2842  157.5732 H   0  0  0  0  0  0  0  0  0  0  0  0
  149.7783  140.9883  158.8279 H   0  0  0  0  0  0  0  0  0  0  0  0
  148.2604  143.4551  158.4408 H   0  0  0  0  0  0  0  0  0  0  0  0
  149.4086  143.0525  159.7149 H   0  0  0  0  0  0  0  0  0  0  0  0
  151.1136  145.8801  158.0557 H   0  0  0  0  0  0  0  0  0  0  0  0
  149.7889  145.6599  159.1732 H   0  0  0  0  0  0  0  0  0  0  0  0
  152.0230  145.7832  160.3365 H   0  0  0  0  0  0  0  0  0  0  0  0
  151.2227  144.2648  160.6513 H   0  0  0  0  0  0  0  0  0  0  0  0
  153.4249  144.7286  158.5750 H   0  0  0  0  0  0  0  0  0  0  0  0
  153.6033  143.8663  160.0882 H   0  0  0  0  0  0  0  0  0  0  0  0
  153.2716  142.2874  158.1919 H   0  0  0  0  0  0  0  0  0  0  0  0
  151.9938  142.1535  159.3720 H   0  0  0  0  0  0  0  0  0  0  0  0
  151.8645  143.6013  156.6754 H   0  0  0  0  0  0  0  0  0  0  0  0
  151.4187  138.2717  158.4478 H   0  0  0  0  0  0  0  0  0  0  0  0
  150.6759  134.6680  156.5908 H   0  0  0  0  0  0  0  0  0  0  0  0
  149.8078  144.3044  157.1571 H   0  0  0  0  0  0  0  0  0  0  0  0
  1  2  1  0  0  0  0
  1 20  1  0  0  0  0
  1 21  1  0  0  0  0
  1 22  1  0  0  0  0
  2  3  1  0  0  0  0
  2 15  1  0  0  0  0
  2 23  1  0  0  0  0
  3  4  2  0  0  0  0
  3  5  1  0  0  0  0
  5  6  1  0  0  0  0
  5 24  1  0  0  0  0
  6 14  1  0  0  0  0
  6  7  1  0  0  0  0
  6 25  1  0  0  0  0
  7  8  1  0  0  0  0
  7 26  1  0  0  0  0
  7 27  1  0  0  0  0
  8  9  1  0  0  0  0
  8 28  1  0  0  0  0
  8 29  1  0  0  0  0
  9 14  1  0  0  0  0
  9 10  1  0  0  0  0
  9 41  1  0  0  0  0
 10 11  1  0  0  0  0
 10 30  1  0  0  0  0
 10 31  1  0  0  0  0
 11 12  1  0  0  0  0
 11 32  1  0  0  0  0
 11 33  1  0  0  0  0
 12 13  1  0  0  0  0
 12 34  1  0  0  0  0
 12 35  1  0  0  0  0
 13 14  1  0  0  0  0
 13 36  1  0  0  0  0
 13 37  1  0  0  0  0
 14 38  1  0  0  0  0
 15 19  1  0  0  0  0
 15 16  1  0  0  0  0
 16 17  2  0  0  0  0
 16 39  1  0  0  0  0
 17 18  1  0  0  0  0
 18 19  2  0  0  0  0
 18 40  1  0  0  0  0
M  CHG  1   9   1
M  END
> <s_m_source_file>
AV-unprocessed.smi

> <i_m_source_file_index>
1406

> <i_lp_mmshare_version>
43012

> <i_f3d_flags>
0

> <s_epik_input>
bjFbY0hdbltjSF1uMVtDQEhdKFtDSDNdKUMoPU8pW05IXVtDQEhdKFtDSDJdW0NIMl0yKVtDQEBIXShOMjMpW0NIMl1bQ0gyXVtDSDJdW0NIMl0z

> <s_epik_cmdline>
J2VwaWtfcHl0aG9uJywgJy1waCcsICc3LjAnLCAnLXRuJywgJzgnLCAnLW1hJywgJzIwMCcsICctbWV0YWxfYmluZGluZycsICctaW1hZScsICc8aW5maWxlLm1hZT4nLCAnLW9tYWUnLCAnPG91dGZpbGUubWFlPic=

> <r_lp_tautomer_probability>
1

> <r_epik_Ionization_Penalty>
0.00197066

> <r_epik_Ionization_Penalty_Charging>
0.00196223

> <r_epik_Ionization_Penalty_Neutral>
8.43107e-06

> <r_epik_State_Penalty>
0.00133866

> <r_epik_Charging_Adjusted_Penalty>
0.00330089

> <i_epik_Tot_Q>
1

> <i_epik_Tot_abs_Q>
1

> <r_epik_Metal_State_Penalty>
-0

> <b_epik_Metal_Only>
0

> <s_lp_Force_Field>
OPLS_2005

> <r_lp_Energy>
42.4798

> <b_lp_Chiralities_Consistent>
1

> <s_lp_Variant>
AV-unprocessed.smi:1406-4

> <Gold.Version>
5.8.1

> <Gold.Id.Protein>
6NUR|6NUR_protein|mol2

> <Gold.PLP.Fitness>
47.1548

> <Gold.PLP.PLP>
-35.4932

> <Gold.PLP.part.hbond>
-4.5842

> <Gold.PLP.part.metal>
0.0000

> <Gold.PLP.part.buried>
-4.8288

> <Gold.PLP.part.nonpolar>
-27.1480

> <Gold.PLP.part.repulsive>
0.2565

> <Gold.PLP.ligand.clash>
0.0000

> <Gold.PLP.ligand.torsion>
0.7086

> <Gold.PLP.Chemscore.Hbond>
4.3260

> <Gold.PLP.Chemscore.CHOScore>
0.0000

> <Gold.PLP.Chemscore.Metal>
0.0000

> <Gold.Chemscore.Hbonds>
donor molecule, donor type, donor heavy atom, donor atom, acceptor molecule, acceptor atom, score
      L1  H     9    41       P1  8028  2.00
      P1  H  6896  6907       L1    17  0.32
      P1  H  7989  7998       L1     4  1.00
      P1  H 10752 10765       L1    19  1.00

> <Gold.PLP.Chemscore.Internal.Correction>
0.1006

> <Gold.Rescore>
     Score         DG    S(hbond)    S(metal)    S(lipo)     H(rot)  DE(clash)    DE(int)     intcor
     20.52     -21.85       3.24        0.00      88.73       1.89       0.50       0.82       ----

> <Gold.Chemscore.Fitness>
20.5234

> <Gold.Chemscore.DG>
-21.8473

> <Gold.Chemscore.ZeroCoef>
-5.4800

> <Gold.Chemscore.Hbond>
3.2383

> <Gold.Chemscore.Metal>
0.0000

> <Gold.Chemscore.Lipo>
88.7260

> <Gold.Chemscore.Internal_Hbond>
0.0000

> <Gold.Chemscore.DEClash>
0.5013

> <Gold.Chemscore.DEInternal>
0.8227

> <Gold.Chemscore.Rot>
1.8865

> <Gold.Chemscore.Internal.Correction>
   9.000000E+99

> <Gold.Chemscore.Hbonds>
donor molecule, donor type, donor heavy atom, donor atom, acceptor molecule, acceptor atom, score
      L1  H     9    41       P1  8028  0.50
      P1  H  6896  6907       L1    17  0.23
      P1  H  7989  7998       L1     4  0.93
      P1  H 10752 10765       L1    19  0.94

> <Gold.Chemscore.Hbond.Weighted>
-10.8159

> <Gold.Chemscore.Metal.Weighted>
-0.0000

> <Gold.Chemscore.Lipo.Weighted>
-10.3809

> <Gold.Chemscore.Internal_Hbond.Weighted>
0.0000

> <Gold.Chemscore.DEClash.Weighted>
0.5013

> <Gold.Chemscore.DEInternal.Weighted>
0.8227

> <Gold.Chemscore.Rot.Weighted>
4.8295

> <Gold.Chemscore.Internal.Correction.Weighted>
   9.000000E+99

> <Gold.Protein.RotatedTorsions>
[ 6907 6896 6895 6894 ] final  -55.67 input  -60.11 | X-H torsion
[ 7974 7965 7964 7962 ] final  -17.95 input  175.53 | X-H torsion
[ 8008 7997 7996 7995 ] final  154.21 input   59.86 | X-H torsion
[ 10167 10162 10161 10158 ] final  -14.06 input  -65.29 | X-H torsion
[ 10718 10713 10712 10709 ] final   23.99 input   66.30 | X-H torsion
[ 10763 10752 10751 10750 ] final -167.49 input  -60.55 | X-H torsion
[ 11005 11000 10999 10996 ] final   56.79 input  -57.11 | X-H torsion

> <Gold.Protein.ActiveResidues>
 VAL166  LYS551  ARG553  GLY616  TRP617  ASP618  TYR619  PRO620  LYS621  CYS622 
 ASP623  PHE694  ASN695  SER759  ASP760  ASP761  ALA762  ILE779  LEU786  VAL792 
 PHE793  MET794  SER795  GLU796  ALA797  LYS798  CYS799  TRP800  GLU811  SER814 

> <Gold.Protein.RotatedAtoms>
  150.8232  134.7450  159.6789 H   0  0  0  0  0  0  0  0  0  0  0  0  # atno 6907 bound_to 6896
  152.4345  134.5709  159.9931 H   0  0  0  0  0  0  0  0  0  0  0  0  # atno 6908 bound_to 6896
  151.5888  133.3331  159.3059 H   0  0  0  0  0  0  0  0  0  0  0  0  # atno 6909 bound_to 6896
  146.1916  140.3852  142.8456 H   0  0  0  0  0  0  0  0  0  0  0  0  # atno 7974 bound_to 7965
  156.2542  140.1972  156.6611 H   0  0  0  0  0  0  0  0  0  0  0  0  # atno 8008 bound_to 7997
  154.6463  140.0577  156.9930 H   0  0  0  0  0  0  0  0  0  0  0  0  # atno 8009 bound_to 7997
  155.1485  140.3249  155.4439 H   0  0  0  0  0  0  0  0  0  0  0  0  # atno 8010 bound_to 7997
  140.7194  143.5361  150.9463 H   0  0  0  0  0  0  0  0  0  0  0  0  # atno 10167 bound_to 10162
  157.1736  130.6771  149.6087 H   0  0  0  0  0  0  0  0  0  0  0  0  # atno 10718 bound_to 10713
  154.6727  135.2942  154.9720 H   0  0  0  0  0  0  0  0  0  0  0  0  # atno 10763 bound_to 10752
  154.0742  135.6614  153.4832 H   0  0  0  0  0  0  0  0  0  0  0  0  # atno 10764 bound_to 10752
  153.0497  135.5182  154.7731 H   0  0  0  0  0  0  0  0  0  0  0  0  # atno 10765 bound_to 10752
  140.0502  134.5748  155.9273 H   0  0  0  0  0  0  0  0  0  0  0  0  # atno 11005 bound_to 11000
  144.8498  140.6984  143.6175 LP  0  0  0  0  0  0  0  0  0  0  0  0  # atno 17320 bound_to 7965
  145.3774  139.1644  143.4299 LP  0  0  0  0  0  0  0  0  0  0  0  0  # atno 17321 bound_to 7965
  139.9083  143.6752  152.3120 LP  0  0  0  0  0  0  0  0  0  0  0  0  # atno 17342 bound_to 10162
  139.7126  144.7617  151.1088 LP  0  0  0  0  0  0  0  0  0  0  0  0  # atno 17343 bound_to 10162
  155.9734  130.4670  150.6311 LP  0  0  0  0  0  0  0  0  0  0  0  0  # atno 17370 bound_to 10713
  157.4020  131.0811  151.1300 LP  0  0  0  0  0  0  0  0  0  0  0  0  # atno 17371 bound_to 10713
  141.1926  133.6576  156.5511 LP  0  0  0  0  0  0  0  0  0  0  0  0  # atno 17394 bound_to 11000
  140.3930  134.7423  157.4733 LP  0  0  0  0  0  0  0  0  0  0  0  0  # atno 17395 bound_to 11000

$$$$
