AV-unprocessed.smi:1656|AV-procd|sdf|6646|dock5
  -GOLD-   22720 7353D 1   1.00000     0.00000
 Structure written by MMmdl.
 49 52  0  0  0  0  0  0  0  0  1 V2000
  145.5415  143.8347  153.2590 C   0  0  0  0  0  0  0  0  0  0  0  0
  145.7502  143.3077  154.6532 C   0  0  0  0  0  0  0  0  0  0  0  0
  146.7431  142.4986  154.8259 N   0  0  0  0  0  0  0  0  0  0  0  0
  147.0271  141.9633  156.0676 N   0  0  0  0  0  0  0  0  0  0  0  0
  148.2136  141.0950  156.0911 C   0  0  0  0  0  0  0  0  0  0  0  0
  149.1699  141.4192  157.2479 C   0  0  0  0  0  0  0  0  0  0  0  0
  149.3119  140.6253  158.1785 O   0  0  0  0  0  0  0  0  0  0  0  0
  149.8024  142.6029  157.1704 N   0  0  0  0  0  0  0  0  0  0  0  0
  150.7812  143.1718  158.1030 C   0  0  0  0  0  0  0  0  0  0  0  0
  151.7160  144.1939  157.3997 C   0  0  0  0  0  0  0  0  0  0  0  0
  152.7664  144.7198  158.4021 C   0  0  1  0  0  0  0  0  0  0  0  0
  152.0519  145.4061  159.5868 C   0  0  0  0  0  0  0  0  0  0  0  0
  151.1426  144.3826  160.3014 C   0  0  2  0  0  0  0  0  0  0  0  0
  151.9957  143.2078  160.8232 C   0  0  0  0  0  0  0  0  0  0  0  0
  152.7038  142.5275  159.6333 C   0  0  2  0  0  0  0  0  0  0  0  0
  153.6202  143.5450  158.9231 C   0  0  0  0  0  0  0  0  0  0  0  0
  151.6481  142.0029  158.6372 C   0  0  0  0  0  0  0  0  0  0  0  0
  150.0823  143.8550  159.3108 C   0  0  0  0  0  0  0  0  0  0  0  0
  146.3067  142.2050  157.2009 C   0  0  0  0  0  0  0  0  0  0  0  0
  146.5891  141.6954  158.2865 O   0  0  0  0  0  0  0  0  0  0  0  0
  145.1837  143.1227  156.9977 C   0  0  0  0  0  0  0  0  0  0  0  0
  144.4109  143.4130  158.1621 C   0  0  0  0  0  0  0  0  0  0  0  0
  143.7726  143.6319  159.1028 N   0  0  0  0  0  0  0  0  0  0  0  0
  144.9010  143.6628  155.7857 C   0  0  0  0  0  0  0  0  0  0  0  0
  143.7492  144.6232  155.5231 C   0  0  0  0  0  0  0  0  0  0  0  0
  144.5824  143.5036  152.8604 H   0  0  0  0  0  0  0  0  0  0  0  0
  146.3190  143.4931  152.5740 H   0  0  0  0  0  0  0  0  0  0  0  0
  145.5543  144.9247  153.2507 H   0  0  0  0  0  0  0  0  0  0  0  0
  147.9063  140.0487  156.1452 H   0  0  0  0  0  0  0  0  0  0  0  0
  148.7709  141.1883  155.1575 H   0  0  0  0  0  0  0  0  0  0  0  0
  149.5982  143.1695  156.3600 H   0  0  0  0  0  0  0  0  0  0  0  0
  152.2130  143.7301  156.5466 H   0  0  0  0  0  0  0  0  0  0  0  0
  151.1503  145.0367  157.0021 H   0  0  0  0  0  0  0  0  0  0  0  0
  153.4123  145.4419  157.9021 H   0  0  0  0  0  0  0  0  0  0  0  0
  152.7841  145.8127  160.2855 H   0  0  0  0  0  0  0  0  0  0  0  0
  151.4616  146.2522  159.2324 H   0  0  0  0  0  0  0  0  0  0  0  0
  150.6424  144.8665  161.1408 H   0  0  0  0  0  0  0  0  0  0  0  0
  152.7299  143.5650  161.5466 H   0  0  0  0  0  0  0  0  0  0  0  0
  151.3673  142.4892  161.3509 H   0  0  0  0  0  0  0  0  0  0  0  0
  153.3036  141.6932  159.9984 H   0  0  0  0  0  0  0  0  0  0  0  0
  154.1489  143.0662  158.0980 H   0  0  0  0  0  0  0  0  0  0  0  0
  154.3853  143.9088  159.6101 H   0  0  0  0  0  0  0  0  0  0  0  0
  151.0193  141.2570  159.1258 H   0  0  0  0  0  0  0  0  0  0  0  0
  152.1438  141.4903  157.8112 H   0  0  0  0  0  0  0  0  0  0  0  0
  149.4547  144.6844  158.9846 H   0  0  0  0  0  0  0  0  0  0  0  0
  149.4188  143.1501  159.8140 H   0  0  0  0  0  0  0  0  0  0  0  0
  143.1371  144.7865  156.4096 H   0  0  0  0  0  0  0  0  0  0  0  0
  143.0941  144.2353  154.7424 H   0  0  0  0  0  0  0  0  0  0  0  0
  144.1292  145.5938  155.2027 H   0  0  0  0  0  0  0  0  0  0  0  0
  1  2  1  0  0  0  0
  1 26  1  0  0  0  0
  1 27  1  0  0  0  0
  1 28  1  0  0  0  0
  2 24  1  0  0  0  0
  2  3  2  0  0  0  0
  3  4  1  0  0  0  0
  4  5  1  0  0  0  0
  4 19  1  0  0  0  0
  5  6  1  0  0  0  0
  5 29  1  0  0  0  0
  5 30  1  0  0  0  0
  6  7  2  0  0  0  0
  6  8  1  0  0  0  0
  8  9  1  0  0  0  0
  8 31  1  0  0  0  0
  9 17  1  0  0  0  0
  9 18  1  0  0  0  0
  9 10  1  0  0  0  0
 10 11  1  0  0  0  0
 10 32  1  0  0  0  0
 10 33  1  0  0  0  0
 11 16  1  0  0  0  0
 11 12  1  0  0  0  0
 11 34  1  0  0  0  0
 12 13  1  0  0  0  0
 12 35  1  0  0  0  0
 12 36  1  0  0  0  0
 13 14  1  0  0  0  0
 13 18  1  0  0  0  0
 13 37  1  0  0  0  0
 14 15  1  0  0  0  0
 14 38  1  0  0  0  0
 14 39  1  0  0  0  0
 15 16  1  0  0  0  0
 15 17  1  0  0  0  0
 15 40  1  0  0  0  0
 16 41  1  0  0  0  0
 16 42  1  0  0  0  0
 17 43  1  0  0  0  0
 17 44  1  0  0  0  0
 18 45  1  0  0  0  0
 18 46  1  0  0  0  0
 19 20  2  0  0  0  0
 19 21  1  0  0  0  0
 21 22  1  0  0  0  0
 21 24  2  0  0  0  0
 22 23  3  0  0  0  0
 24 25  1  0  0  0  0
 25 47  1  0  0  0  0
 25 48  1  0  0  0  0
 25 49  1  0  0  0  0
M  END
> <s_m_source_file>
AV-unprocessed.smi

> <i_m_source_file_index>
1656

> <i_lp_mmshare_version>
43012

> <i_f3d_flags>
0

> <s_epik_input>
TiNDYyhjMVtDSDNdKWMoPU8pbihuYzFbQ0gzXSlbQ0gyXUMoPU8pW05IXUMyM1tDSDJdW0NASF00W0NIMl1bQ0BASF0oW0NIMl0zKVtDSDJdW0NASF0oW0NIMl00KVtDSDJdMg==

> <s_epik_cmdline>
J2VwaWtfcHl0aG9uJywgJy1waCcsICc3LjAnLCAnLXRuJywgJzgnLCAnLW1hJywgJzIwMCcsICctbWV0YWxfYmluZGluZycsICctaW1hZScsICc8aW5maWxlLm1hZT4nLCAnLW9tYWUnLCAnPG91dGZpbGUubWFlPic=

> <r_lp_tautomer_probability>
1

> <r_epik_Ionization_Penalty>
2.33831e-08

> <r_epik_Ionization_Penalty_Charging>
2.51001e-11

> <r_epik_Ionization_Penalty_Neutral>
2.3358e-08

> <r_epik_State_Penalty>
-0

> <r_epik_Charging_Adjusted_Penalty>
2.51001e-11

> <i_epik_Tot_Q>
0

> <i_epik_Tot_abs_Q>
0

> <r_epik_Metal_State_Penalty>
-0

> <b_epik_Metal_Only>
0

> <s_lp_Force_Field>
OPLS_2005

> <r_lp_Energy>
45.1543

> <b_lp_Chiralities_Consistent>
1

> <s_lp_Variant>
AV-unprocessed.smi:1656-1

> <Gold.Version>
5.8.1

> <Gold.Id.Protein>
6NUR|6NUR_protein|mol2

> <Gold.PLP.Fitness>
47.3059

> <Gold.PLP.PLP>
-45.8949

> <Gold.PLP.part.hbond>
-1.0000

> <Gold.PLP.part.metal>
0.0000

> <Gold.PLP.part.buried>
-8.2001

> <Gold.PLP.part.nonpolar>
-36.0902

> <Gold.PLP.part.repulsive>
0.2349

> <Gold.PLP.ligand.clash>
0.0000

> <Gold.PLP.ligand.torsion>
0.7130

> <Gold.PLP.Chemscore.Hbond>
0.9440

> <Gold.PLP.Chemscore.CHOScore>
0.0000

> <Gold.PLP.Chemscore.Metal>
0.0000

> <Gold.Chemscore.Hbonds>
donor molecule, donor type, donor heavy atom, donor atom, acceptor molecule, acceptor atom, score
      L1  H     8    31       P1  8028  0.98

> <Gold.PLP.Chemscore.Internal.Correction>
0.0050

> <Gold.Rescore>
     Score         DG    S(hbond)    S(metal)    S(lipo)     H(rot)  DE(clash)    DE(int)     intcor
     15.88     -21.00       0.85        0.00     140.05       1.44       0.34       4.78       ----

> <Gold.Chemscore.Fitness>
15.8791

> <Gold.Chemscore.DG>
-21.0018

> <Gold.Chemscore.ZeroCoef>
-5.4800

> <Gold.Chemscore.Hbond>
0.8484

> <Gold.Chemscore.Metal>
0.0000

> <Gold.Chemscore.Lipo>
140.0464

> <Gold.Chemscore.Internal_Hbond>
0.0000

> <Gold.Chemscore.DEClash>
0.3409

> <Gold.Chemscore.DEInternal>
4.7819

> <Gold.Chemscore.Rot>
1.4442

> <Gold.Chemscore.Internal.Correction>
   9.000000E+99

> <Gold.Chemscore.Hbonds>
donor molecule, donor type, donor heavy atom, donor atom, acceptor molecule, acceptor atom, score
      L1  H     8    31       P1  8028  0.92

> <Gold.Chemscore.Hbond.Weighted>
-2.8335

> <Gold.Chemscore.Metal.Weighted>
-0.0000

> <Gold.Chemscore.Lipo.Weighted>
-16.3854

> <Gold.Chemscore.Internal_Hbond.Weighted>
0.0000

> <Gold.Chemscore.DEClash.Weighted>
0.3409

> <Gold.Chemscore.DEInternal.Weighted>
4.7819

> <Gold.Chemscore.Rot.Weighted>
3.6971

> <Gold.Chemscore.Internal.Correction.Weighted>
   9.000000E+99

> <Gold.Protein.RotatedTorsions>
[ 6907 6896 6895 6894 ] final  -20.46 input  -60.11 | X-H torsion
[ 7974 7965 7964 7962 ] final -146.51 input  175.53 | X-H torsion
[ 8008 7997 7996 7995 ] final   -3.35 input   59.86 | X-H torsion
[ 10167 10162 10161 10158 ] final   -1.90 input  -65.29 | X-H torsion
[ 10718 10713 10712 10709 ] final  140.74 input   66.30 | X-H torsion
[ 10763 10752 10751 10750 ] final -176.82 input  -60.55 | X-H torsion
[ 11005 11000 10999 10996 ] final   87.28 input  -57.11 | X-H torsion

> <Gold.Protein.ActiveResidues>
 VAL166  LYS551  ARG553  GLY616  TRP617  ASP618  TYR619  PRO620  LYS621  CYS622 
 ASP623  PHE694  ASN695  SER759  ASP760  ASP761  ALA762  ILE779  LEU786  VAL792 
 PHE793  MET794  SER795  GLU796  ALA797  LYS798  CYS799  TRP800  GLU811  SER814 

> <Gold.Protein.RotatedAtoms>
  151.2478  135.0611  159.9049 H   0  0  0  0  0  0  0  0  0  0  0  0  # atno 6907 bound_to 6896
  152.5384  134.0365  159.8058 H   0  0  0  0  0  0  0  0  0  0  0  0  # atno 6908 bound_to 6896
  151.0568  133.5528  159.2669 H   0  0  0  0  0  0  0  0  0  0  0  0  # atno 6909 bound_to 6896
  144.8154  140.5446  143.5614 H   0  0  0  0  0  0  0  0  0  0  0  0  # atno 7974 bound_to 7965
  154.6259  140.2511  155.7493 H   0  0  0  0  0  0  0  0  0  0  0  0  # atno 8008 bound_to 7997
  156.2453  140.2917  156.0508 H   0  0  0  0  0  0  0  0  0  0  0  0  # atno 8009 bound_to 7997
  155.1822  140.0389  157.2875 H   0  0  0  0  0  0  0  0  0  0  0  0  # atno 8010 bound_to 7997
  140.6829  143.6720  150.8177 H   0  0  0  0  0  0  0  0  0  0  0  0  # atno 10167 bound_to 10162
  157.3999  131.1015  151.0562 H   0  0  0  0  0  0  0  0  0  0  0  0  # atno 10718 bound_to 10713
  154.5677  135.2825  155.0858 H   0  0  0  0  0  0  0  0  0  0  0  0  # atno 10763 bound_to 10752
  154.2242  135.6386  153.5158 H   0  0  0  0  0  0  0  0  0  0  0  0  # atno 10764 bound_to 10752
  153.0048  135.5521  154.6291 H   0  0  0  0  0  0  0  0  0  0  0  0  # atno 10765 bound_to 10752
  139.8923  134.8412  156.2838 H   0  0  0  0  0  0  0  0  0  0  0  0  # atno 11005 bound_to 11000
  145.5226  139.1476  143.3544 LP  0  0  0  0  0  0  0  0  0  0  0  0  # atno 17320 bound_to 7965
  146.2457  140.5367  142.8915 LP  0  0  0  0  0  0  0  0  0  0  0  0  # atno 17321 bound_to 7965
  140.0423  143.5333  152.2712 LP  0  0  0  0  0  0  0  0  0  0  0  0  # atno 17342 bound_to 10162
  139.6165  144.7620  151.2835 LP  0  0  0  0  0  0  0  0  0  0  0  0  # atno 17343 bound_to 10162
  157.1565  130.6207  149.5598 LP  0  0  0  0  0  0  0  0  0  0  0  0  # atno 17370 bound_to 10713
  155.9820  130.4831  150.6859 LP  0  0  0  0  0  0  0  0  0  0  0  0  # atno 17371 bound_to 10713
  141.0021  133.7145  156.0977 LP  0  0  0  0  0  0  0  0  0  0  0  0  # atno 17394 bound_to 11000
  140.7484  134.4073  157.5545 LP  0  0  0  0  0  0  0  0  0  0  0  0  # atno 17395 bound_to 11000

$$$$
