AV-unprocessed.smi:1703|AV-procd|sdf|6860|dock7
  -GOLD-   22720 8 43D 1   1.00000     0.00000
 Structure written by MMmdl.
 49 51  0  0  0  0  0  0  0  0  2 V2000
  143.2819  142.5999  157.6857 C   0  0  0  0  0  0  0  0  0  0  0  0
  144.6574  142.5925  158.3609 C   0  0  1  0  0  0  0  0  0  0  0  0
  145.6420  143.5661  157.6802 C   0  0  0  0  0  0  0  0  0  0  0  0
  146.9399  143.6096  158.3962 N   0  3  2  0  0  0  0  0  0  0  0  0
  147.8108  142.4364  158.1198 C   0  0  0  0  0  0  0  0  0  0  0  0
  149.3053  142.7397  158.3734 C   0  0  2  0  0  0  0  0  0  0  0  0
  149.4702  144.1342  158.5288 O   0  0  0  0  0  0  0  0  0  0  0  0
  150.2396  142.2629  157.2430 C   0  0  0  0  0  0  0  0  0  0  0  0
  151.3636  141.4830  157.7475 N   0  0  0  0  0  0  0  0  0  0  0  0
  151.8797  140.3258  157.2587 C   0  0  0  0  0  0  0  0  0  0  0  0
  151.3304  139.6520  156.0384 C   0  0  0  0  0  0  0  0  0  0  0  0
  152.2786  139.5504  154.9980 O   0  0  0  0  0  0  0  0  0  0  0  0
  152.9014  139.8121  157.9435 N   0  0  0  0  0  0  0  0  0  0  0  0
  153.0737  140.7245  158.9654 C   0  0  0  0  0  0  0  0  0  0  0  0
  153.9980  140.7422  160.0342 C   0  0  0  0  0  0  0  0  0  0  0  0
  153.9824  141.7935  160.9740 C   0  0  0  0  0  0  0  0  0  0  0  0
  153.0458  142.8408  160.8578 C   0  0  0  0  0  0  0  0  0  0  0  0
  152.1153  142.8415  159.8010 C   0  0  0  0  0  0  0  0  0  0  0  0
  152.1320  141.7876  158.8676 C   0  0  0  0  0  0  0  0  0  0  0  0
  146.7236  143.8940  159.8396 C   0  0  0  0  0  0  0  0  0  0  0  0
  145.6962  142.9267  160.4671 C   0  0  1  0  0  0  0  0  0  0  0  0
  145.3809  143.2902  161.9220 C   0  0  0  0  0  0  0  0  0  0  0  0
  144.4859  142.9829  159.7196 O   0  0  0  0  0  0  0  0  0  0  0  0
  143.3559  142.2970  156.6410 H   0  0  0  0  0  0  0  0  0  0  0  0
  142.8319  143.5928  157.7153 H   0  0  0  0  0  0  0  0  0  0  0  0
  142.5996  141.9103  158.1833 H   0  0  0  0  0  0  0  0  0  0  0  0
  145.0507  141.5751  158.3255 H   0  0  0  0  0  0  0  0  0  0  0  0
  145.7931  143.3013  156.6329 H   0  0  0  0  0  0  0  0  0  0  0  0
  145.2190  144.5717  157.6818 H   0  0  0  0  0  0  0  0  0  0  0  0
  147.4684  141.5992  158.7245 H   0  0  0  0  0  0  0  0  0  0  0  0
  147.6930  142.1129  157.0845 H   0  0  0  0  0  0  0  0  0  0  0  0
  149.6355  142.2738  159.2999 H   0  0  0  0  0  0  0  0  0  0  0  0
  148.6989  144.5707  158.1999 H   0  0  0  0  0  0  0  0  0  0  0  0
  149.6815  141.6788  156.5123 H   0  0  0  0  0  0  0  0  0  0  0  0
  150.6410  143.1209  156.7019 H   0  0  0  0  0  0  0  0  0  0  0  0
  150.9941  138.6481  156.3002 H   0  0  0  0  0  0  0  0  0  0  0  0
  150.4531  140.1931  155.6836 H   0  0  0  0  0  0  0  0  0  0  0  0
  153.1359  139.7293  155.3529 H   0  0  0  0  0  0  0  0  0  0  0  0
  154.7211  139.9458  160.1309 H   0  0  0  0  0  0  0  0  0  0  0  0
  154.6946  141.7980  161.7862 H   0  0  0  0  0  0  0  0  0  0  0  0
  153.0434  143.6445  161.5796 H   0  0  0  0  0  0  0  0  0  0  0  0
  151.3995  143.6447  159.7102 H   0  0  0  0  0  0  0  0  0  0  0  0
  147.6596  143.8639  160.3960 H   0  0  0  0  0  0  0  0  0  0  0  0
  146.3546  144.9169  159.9262 H   0  0  0  0  0  0  0  0  0  0  0  0
  146.0770  141.9047  160.4545 H   0  0  0  0  0  0  0  0  0  0  0  0
  146.2786  143.2476  162.5394 H   0  0  0  0  0  0  0  0  0  0  0  0
  144.6534  142.5987  162.3474 H   0  0  0  0  0  0  0  0  0  0  0  0
  144.9685  144.2967  161.9988 H   0  0  0  0  0  0  0  0  0  0  0  0
  147.4402  144.4005  158.0150 H   0  0  0  0  0  0  0  0  0  0  0  0
  1  2  1  0  0  0  0
  1 24  1  0  0  0  0
  1 25  1  0  0  0  0
  1 26  1  0  0  0  0
  2 23  1  0  0  0  0
  2  3  1  0  0  0  0
  2 27  1  0  0  0  0
  3  4  1  0  0  0  0
  3 28  1  0  0  0  0
  3 29  1  0  0  0  0
  4  5  1  0  0  0  0
  4 20  1  0  0  0  0
  4 49  1  0  0  0  0
  5  6  1  0  0  0  0
  5 30  1  0  0  0  0
  5 31  1  0  0  0  0
  6  7  1  0  0  0  0
  6  8  1  0  0  0  0
  6 32  1  0  0  0  0
  7 33  1  0  0  0  0
  8  9  1  0  0  0  0
  8 34  1  0  0  0  0
  8 35  1  0  0  0  0
  9 19  1  0  0  0  0
  9 10  1  0  0  0  0
 10 11  1  0  0  0  0
 10 13  2  0  0  0  0
 11 12  1  0  0  0  0
 11 36  1  0  0  0  0
 11 37  1  0  0  0  0
 12 38  1  0  0  0  0
 13 14  1  0  0  0  0
 14 19  2  0  0  0  0
 14 15  1  0  0  0  0
 15 16  2  0  0  0  0
 15 39  1  0  0  0  0
 16 17  1  0  0  0  0
 16 40  1  0  0  0  0
 17 18  2  0  0  0  0
 17 41  1  0  0  0  0
 18 19  1  0  0  0  0
 18 42  1  0  0  0  0
 20 21  1  0  0  0  0
 20 43  1  0  0  0  0
 20 44  1  0  0  0  0
 21 22  1  0  0  0  0
 21 23  1  0  0  0  0
 21 45  1  0  0  0  0
 22 46  1  0  0  0  0
 22 47  1  0  0  0  0
 22 48  1  0  0  0  0
M  CHG  1   4   1
M  END
> <s_m_source_file>
AV-unprocessed.smi

> <i_m_source_file_index>
1703

> <i_lp_mmshare_version>
43012

> <i_f3d_flags>
0

> <s_epik_input>
W0NIM11bQ0BASF0xW0NIMl1OKFtDSDJdW0NASF0oTzEpW0NIM10pW0NIMl1bQ0BIXShbT0hdKVtDSDJdbihjKG4yKVtDSDJdW09IXSljKGMyMylbY0hdW2NIXVtjSF1bY0hdMw==

> <s_epik_cmdline>
J2VwaWtfcHl0aG9uJywgJy1waCcsICc3LjAnLCAnLXRuJywgJzgnLCAnLW1hJywgJzIwMCcsICctbWV0YWxfYmluZGluZycsICctaW1hZScsICc8aW5maWxlLm1hZT4nLCAnLW9tYWUnLCAnPG91dGZpbGUubWFlPic=

> <r_epik_Ionization_Penalty>
0.655661

> <r_epik_Ionization_Penalty_Charging>
0.608065

> <r_epik_Ionization_Penalty_Neutral>
0.0475963

> <r_epik_State_Penalty>
0.695267

> <r_epik_Charging_Adjusted_Penalty>
1.30333

> <i_epik_Tot_Q>
1

> <i_epik_Tot_abs_Q>
1

> <r_epik_Metal_State_Penalty>
0.653591

> <b_epik_Metal_Only>
0

> <s_lp_Force_Field>
OPLS_2005

> <r_lp_Energy>
23.3655

> <b_lp_Chiralities_Consistent>
1

> <s_lp_Variant>
AV-unprocessed.smi:1703-8

> <Gold.Version>
5.8.1

> <Gold.Id.Protein>
6NUR|6NUR_protein|mol2

> <Gold.PLP.Fitness>
50.9712

> <Gold.PLP.PLP>
-40.0425

> <Gold.PLP.part.hbond>
-5.0000

> <Gold.PLP.part.metal>
0.0000

> <Gold.PLP.part.buried>
-4.0310

> <Gold.PLP.part.nonpolar>
-30.8339

> <Gold.PLP.part.repulsive>
0.0527

> <Gold.PLP.ligand.clash>
0.0000

> <Gold.PLP.ligand.torsion>
1.7554

> <Gold.PLP.Chemscore.Hbond>
4.7840

> <Gold.PLP.Chemscore.CHOScore>
0.0000

> <Gold.PLP.Chemscore.Metal>
0.0000

> <Gold.Chemscore.Hbonds>
donor molecule, donor type, donor heavy atom, donor atom, acceptor molecule, acceptor atom, score
      L1  H     4    49       P1  8029  2.00
      L1  H     7    33       P1  8029  1.00
      P1  H  7989  7998       L1    12  0.69
      P1  H  7997  8008       L1    13  1.00

> <Gold.PLP.Chemscore.Internal.Correction>
0.0875

> <Gold.Rescore>
     Score         DG    S(hbond)    S(metal)    S(lipo)     H(rot)  DE(clash)    DE(int)     intcor
     17.40     -19.18       3.02        0.00      95.79       2.96       0.05       1.74       ----

> <Gold.Chemscore.Fitness>
17.3966

> <Gold.Chemscore.DG>
-19.1823

> <Gold.Chemscore.ZeroCoef>
-5.4800

> <Gold.Chemscore.Hbond>
3.0166

> <Gold.Chemscore.Metal>
0.0000

> <Gold.Chemscore.Lipo>
95.7879

> <Gold.Chemscore.Internal_Hbond>
0.0000

> <Gold.Chemscore.DEClash>
0.0502

> <Gold.Chemscore.DEInternal>
1.7354

> <Gold.Chemscore.Rot>
2.9611

> <Gold.Chemscore.Internal.Correction>
   9.000000E+99

> <Gold.Chemscore.Hbonds>
donor molecule, donor type, donor heavy atom, donor atom, acceptor molecule, acceptor atom, score
      L1  H     4    49       P1  8029  0.40
      L1  H     7    33       P1  8029  0.38
      P1  H  7989  7998       L1    12  0.35
      P1  H  7997  8008       L1    13  0.23

> <Gold.Chemscore.Hbond.Weighted>
-10.0754

> <Gold.Chemscore.Metal.Weighted>
-0.0000

> <Gold.Chemscore.Lipo.Weighted>
-11.2072

> <Gold.Chemscore.Internal_Hbond.Weighted>
0.0000

> <Gold.Chemscore.DEClash.Weighted>
0.0502

> <Gold.Chemscore.DEInternal.Weighted>
1.7354

> <Gold.Chemscore.Rot.Weighted>
7.5803

> <Gold.Chemscore.Internal.Correction.Weighted>
   9.000000E+99

> <Gold.Protein.RotatedTorsions>
[ 6907 6896 6895 6894 ] final  -73.12 input  -60.11 | X-H torsion
[ 7974 7965 7964 7962 ] final -168.01 input  175.53 | X-H torsion
[ 8008 7997 7996 7995 ] final  -77.78 input   59.86 | X-H torsion
[ 10167 10162 10161 10158 ] final   82.28 input  -65.29 | X-H torsion
[ 10718 10713 10712 10709 ] final  -95.31 input   66.30 | X-H torsion
[ 10763 10752 10751 10750 ] final  -87.61 input  -60.55 | X-H torsion
[ 11005 11000 10999 10996 ] final -138.37 input  -57.11 | X-H torsion

> <Gold.Protein.ActiveResidues>
 VAL166  LYS551  ARG553  GLY616  TRP617  ASP618  TYR619  PRO620  LYS621  CYS622 
 ASP623  PHE694  ASN695  SER759  ASP760  ASP761  ALA762  ILE779  LEU786  VAL792 
 PHE793  MET794  SER795  GLU796  ALA797  LYS798  CYS799  TRP800  GLU811  SER814 

> <Gold.Protein.RotatedAtoms>
  150.7143  134.5063  159.5585 H   0  0  0  0  0  0  0  0  0  0  0  0  # atno 6907 bound_to 6896
  152.2650  134.7991  160.0433 H   0  0  0  0  0  0  0  0  0  0  0  0  # atno 6908 bound_to 6896
  151.8691  133.3437  159.3766 H   0  0  0  0  0  0  0  0  0  0  0  0  # atno 6909 bound_to 6896
  144.7211  140.2434  143.6288 H   0  0  0  0  0  0  0  0  0  0  0  0  # atno 7974 bound_to 7965
  154.5628  140.0705  156.8845 H   0  0  0  0  0  0  0  0  0  0  0  0  # atno 8008 bound_to 7997
  155.2779  140.3369  155.4242 H   0  0  0  0  0  0  0  0  0  0  0  0  # atno 8009 bound_to 7997
  156.2056  140.1739  156.7792 H   0  0  0  0  0  0  0  0  0  0  0  0  # atno 8010 bound_to 7997
  139.9305  144.6155  150.8350 H   0  0  0  0  0  0  0  0  0  0  0  0  # atno 10167 bound_to 10162
  156.0041  130.5103  150.6057 H   0  0  0  0  0  0  0  0  0  0  0  0  # atno 10718 bound_to 10713
  154.6355  135.5407  153.7729 H   0  0  0  0  0  0  0  0  0  0  0  0  # atno 10763 bound_to 10752
  153.0306  135.6446  154.1237 H   0  0  0  0  0  0  0  0  0  0  0  0  # atno 10764 bound_to 10752
  154.1165  135.2923  155.3198 H   0  0  0  0  0  0  0  0  0  0  0  0  # atno 10765 bound_to 10752
  140.8622  134.2155  157.4701 H   0  0  0  0  0  0  0  0  0  0  0  0  # atno 11005 bound_to 11000
  145.8298  139.2081  143.1889 LP  0  0  0  0  0  0  0  0  0  0  0  0  # atno 17320 bound_to 7965
  146.0441  140.8136  142.9814 LP  0  0  0  0  0  0  0  0  0  0  0  0  # atno 17321 bound_to 7965
  140.7639  143.3234  151.2571 LP  0  0  0  0  0  0  0  0  0  0  0  0  # atno 17342 bound_to 10162
  139.6787  143.9893  152.2796 LP  0  0  0  0  0  0  0  0  0  0  0  0  # atno 17343 bound_to 10162
  157.3898  131.0794  151.1404 LP  0  0  0  0  0  0  0  0  0  0  0  0  # atno 17370 bound_to 10713
  157.2099  130.6433  149.5770 LP  0  0  0  0  0  0  0  0  0  0  0  0  # atno 17371 bound_to 10713
  139.8707  134.9735  156.4811 LP  0  0  0  0  0  0  0  0  0  0  0  0  # atno 17394 bound_to 11000
  140.8670  133.8017  155.9324 LP  0  0  0  0  0  0  0  0  0  0  0  0  # atno 17395 bound_to 11000

$$$$
