AV-unprocessed.smi:254|AV-procd|sdf|1945|dock5
  -GOLD-   2262021 73D 1   1.00000     0.00000
 Structure written by MMmdl.
 50 53  0  0  0  0  0  0  0  0  1 V2000
  149.9367  132.9688  157.6473 O   0  0  0  0  0  0  0  0  0  0  0  0
  150.0587  133.8476  156.7955 C   0  0  0  0  0  0  0  0  0  0  0  0
  150.2495  135.3134  157.1388 C   0  0  0  0  0  0  0  0  0  0  0  0
  150.3687  135.9062  155.8123 N   0  0  0  0  0  0  0  0  0  0  0  0
  150.5594  137.2352  155.6074 C   0  0  0  0  0  0  0  0  0  0  0  0
  150.4609  137.7068  154.3366 N   0  0  0  0  0  0  0  0  0  0  0  0
  150.6423  139.0039  154.0771 C   0  0  0  0  0  0  0  0  0  0  0  0
  150.9240  139.9910  154.9273 N   0  0  0  0  0  0  0  0  0  0  0  0
  151.0190  139.5330  156.2074 C   0  0  0  0  0  0  0  0  0  0  0  0
  150.8585  138.1817  156.6330 C   0  0  0  0  0  0  0  0  0  0  0  0
  151.0427  138.1054  158.0090 N   0  0  0  0  0  0  0  0  0  0  0  0
  151.2971  139.3316  158.3718 C   0  0  0  0  0  0  0  0  0  0  0  0
  151.2856  140.2603  157.3559 N   0  0  0  0  0  0  0  0  0  0  0  0
  151.5338  141.6912  157.4830 C   0  0  0  0  0  0  0  0  0  0  0  0
  151.2509  142.2681  158.8960 C   0  0  2  0  0  0  0  0  0  0  0  0
  150.5224  143.6301  158.7932 C   0  0  0  0  0  0  0  0  0  0  0  0
  149.1894  143.4856  158.3496 O   0  0  0  0  0  0  0  0  0  0  0  0
  152.5378  142.3386  159.7644 C   0  0  2  0  0  0  0  0  0  0  0  0
  153.1911  140.9919  160.0316 C   0  0  0  0  0  0  0  0  0  0  0  0
  154.1167  141.3043  161.2022 C   0  0  0  0  0  0  0  0  0  0  0  0
  153.4753  142.3429  161.9332 O   0  0  0  0  0  0  0  0  0  0  0  0
  152.3454  142.8157  161.2077 C   0  0  0  0  0  0  0  0  0  0  0  0
  150.2580  134.9196  154.7470 C   0  0  0  0  0  0  0  0  0  0  0  0
  150.0541  133.6743  155.4689 N   0  0  0  0  0  0  0  0  0  0  0  0
  149.9129  132.4083  154.7531 C   0  0  0  0  0  0  0  0  0  0  0  0
  148.6671  132.3792  153.8497 C   0  0  0  0  0  0  0  0  0  0  0  0
  148.9026  133.1153  152.7646 F   0  0  0  0  0  0  0  0  0  0  0  0
  148.3796  131.1367  153.4626 F   0  0  0  0  0  0  0  0  0  0  0  0
  147.6173  132.8927  154.4910 F   0  0  0  0  0  0  0  0  0  0  0  0
  149.3837  135.7011  157.6771 H   0  0  0  0  0  0  0  0  0  0  0  0
  151.1532  135.4611  157.7311 H   0  0  0  0  0  0  0  0  0  0  0  0
  150.5473  139.2917  153.0405 H   0  0  0  0  0  0  0  0  0  0  0  0
  151.4970  139.5928  159.4007 H   0  0  0  0  0  0  0  0  0  0  0  0
  152.5769  141.8712  157.2200 H   0  0  0  0  0  0  0  0  0  0  0  0
  150.9500  142.2145  156.7259 H   0  0  0  0  0  0  0  0  0  0  0  0
  150.5639  141.5690  159.3756 H   0  0  0  0  0  0  0  0  0  0  0  0
  150.5344  144.1555  159.7488 H   0  0  0  0  0  0  0  0  0  0  0  0
  151.0227  144.2720  158.0680 H   0  0  0  0  0  0  0  0  0  0  0  0
  149.1549  143.6892  157.4273 H   0  0  0  0  0  0  0  0  0  0  0  0
  153.2659  142.9972  159.2889 H   0  0  0  0  0  0  0  0  0  0  0  0
  152.4412  140.2607  160.3367 H   0  0  0  0  0  0  0  0  0  0  0  0
  153.7296  140.5820  159.1789 H   0  0  0  0  0  0  0  0  0  0  0  0
  154.3052  140.4321  161.8282 H   0  0  0  0  0  0  0  0  0  0  0  0
  155.0754  141.6773  160.8400 H   0  0  0  0  0  0  0  0  0  0  0  0
  152.2604  143.8998  161.2840 H   0  0  0  0  0  0  0  0  0  0  0  0
  151.4505  142.3721  161.6463 H   0  0  0  0  0  0  0  0  0  0  0  0
  149.4068  135.1308  154.0983 H   0  0  0  0  0  0  0  0  0  0  0  0
  151.1714  134.8746  154.1522 H   0  0  0  0  0  0  0  0  0  0  0  0
  150.8058  132.2419  154.1492 H   0  0  0  0  0  0  0  0  0  0  0  0
  149.8742  131.5867  155.4702 H   0  0  0  0  0  0  0  0  0  0  0  0
  1  2  2  0  0  0  0
  2 24  1  0  0  0  0
  2  3  1  0  0  0  0
  3  4  1  0  0  0  0
  3 30  1  0  0  0  0
  3 31  1  0  0  0  0
  4  5  1  0  0  0  0
  4 23  1  0  0  0  0
  5 10  1  0  0  0  0
  5  6  2  0  0  0  0
  6  7  1  0  0  0  0
  7  8  2  0  0  0  0
  7 32  1  0  0  0  0
  8  9  1  0  0  0  0
  9 13  1  0  0  0  0
  9 10  2  0  0  0  0
 10 11  1  0  0  0  0
 11 12  2  0  0  0  0
 12 13  1  0  0  0  0
 12 33  1  0  0  0  0
 13 14  1  0  0  0  0
 14 15  1  0  0  0  0
 14 34  1  0  0  0  0
 14 35  1  0  0  0  0
 15 16  1  0  0  0  0
 15 18  1  0  0  0  0
 15 36  1  0  0  0  0
 16 17  1  0  0  0  0
 16 37  1  0  0  0  0
 16 38  1  0  0  0  0
 17 39  1  0  0  0  0
 18 22  1  0  0  0  0
 18 19  1  0  0  0  0
 18 40  1  0  0  0  0
 19 20  1  0  0  0  0
 19 41  1  0  0  0  0
 19 42  1  0  0  0  0
 20 21  1  0  0  0  0
 20 43  1  0  0  0  0
 20 44  1  0  0  0  0
 21 22  1  0  0  0  0
 22 45  1  0  0  0  0
 22 46  1  0  0  0  0
 23 24  1  0  0  0  0
 23 47  1  0  0  0  0
 23 48  1  0  0  0  0
 24 25  1  0  0  0  0
 25 26  1  0  0  0  0
 25 49  1  0  0  0  0
 25 50  1  0  0  0  0
 26 27  1  0  0  0  0
 26 28  1  0  0  0  0
 26 29  1  0  0  0  0
M  END
> <s_m_source_file>
AV-unprocessed.smi

> <i_m_source_file_index>
254

> <i_lp_mmshare_version>
43012

> <i_f3d_flags>
0

> <s_epik_input>
RkMoRikoRilbQ0gyXU4xW0NIMl1OKFtDSDJdQzE9TyljKG5bY0hdbjIpYyhjMjMpbltjSF1uM1tDSDJdW0NASF0oW0NIMl1bT0hdKVtDQEBIXTRbQ0gyXVtDSDJdT1tDSDJdNA==

> <s_epik_cmdline>
J2VwaWtfcHl0aG9uJywgJy1waCcsICc3LjAnLCAnLXRuJywgJzgnLCAnLW1hJywgJzIwMCcsICctbWV0YWxfYmluZGluZycsICctaW1hZScsICc8aW5maWxlLm1hZT4nLCAnLW9tYWUnLCAnPG91dGZpbGUubWFlPic=

> <r_lp_tautomer_probability>
1

> <r_epik_Ionization_Penalty>
0.000292924

> <r_epik_Ionization_Penalty_Charging>
0

> <r_epik_Ionization_Penalty_Neutral>
0.000292924

> <r_epik_State_Penalty>
-0

> <r_epik_Charging_Adjusted_Penalty>
0

> <i_epik_Tot_Q>
0

> <i_epik_Tot_abs_Q>
0

> <r_epik_Metal_State_Penalty>
-0

> <b_epik_Metal_Only>
0

> <s_epik_Chemistry_Notes>
This compound contains an acetal/aminal-like group ( X-CH(R)-Y where X, Y are N, S, or O) that may be acid/base labile, releasing an aldehyde.

> <s_lp_Force_Field>
OPLS_2005

> <r_lp_Energy>
38.7096

> <b_lp_Chiralities_Consistent>
1

> <s_lp_Variant>
AV-unprocessed.smi:254-1

> <Gold.Version>
5.8.1

> <Gold.Id.Protein>
6NUR|6NUR_protein|mol2

> <Gold.PLP.Fitness>
57.0221

> <Gold.PLP.PLP>
-48.3907

> <Gold.PLP.part.hbond>
-4.1076

> <Gold.PLP.part.metal>
0.0000

> <Gold.PLP.part.buried>
-6.2984

> <Gold.PLP.part.nonpolar>
-39.1220

> <Gold.PLP.part.repulsive>
0.3119

> <Gold.PLP.ligand.clash>
0.0000

> <Gold.PLP.ligand.torsion>
1.2110

> <Gold.PLP.Chemscore.Hbond>
2.5500

> <Gold.PLP.Chemscore.CHOScore>
1.0000

> <Gold.PLP.Chemscore.Metal>
0.0000

> <Gold.Chemscore.Hbonds>
donor molecule, donor type, donor heavy atom, donor atom, acceptor molecule, acceptor atom, score
      L1  H    17    39       P1  8028  0.96
      P1  H  6896  6907       L1     1  1.00
      P1  H  7989  7998       L1     8  0.35
      L1  C     7    32       P1  7957  1.00

> <Gold.PLP.Chemscore.Internal.Correction>
0.4035

> <Gold.Rescore>
     Score         DG    S(hbond)    S(metal)    S(lipo)     H(rot)  DE(clash)    DE(int)     intcor
      6.57      -9.98       0.96        0.00      83.13       3.30       0.10       3.31       ----

> <Gold.Chemscore.Fitness>
6.5700

> <Gold.Chemscore.DG>
-9.9803

> <Gold.Chemscore.ZeroCoef>
-5.4800

> <Gold.Chemscore.Hbond>
0.9626

> <Gold.Chemscore.Metal>
0.0000

> <Gold.Chemscore.Lipo>
83.1349

> <Gold.Chemscore.Internal_Hbond>
0.0000

> <Gold.Chemscore.DEClash>
0.0965

> <Gold.Chemscore.DEInternal>
3.3138

> <Gold.Chemscore.Rot>
3.2974

> <Gold.Chemscore.Internal.Correction>
   9.000000E+99

> <Gold.Chemscore.Hbonds>
donor molecule, donor type, donor heavy atom, donor atom, acceptor molecule, acceptor atom, score
      L1  H    17    39       P1  8028  0.27
      P1  H  6896  6907       L1     1  0.59
      P1  H  7989  7998       L1     8  0.01

> <Gold.Chemscore.Hbond.Weighted>
-3.2150

> <Gold.Chemscore.Metal.Weighted>
-0.0000

> <Gold.Chemscore.Lipo.Weighted>
-9.7268

> <Gold.Chemscore.Internal_Hbond.Weighted>
0.0000

> <Gold.Chemscore.DEClash.Weighted>
0.0965

> <Gold.Chemscore.DEInternal.Weighted>
3.3138

> <Gold.Chemscore.Rot.Weighted>
8.4414

> <Gold.Chemscore.Internal.Correction.Weighted>
   9.000000E+99

> <Gold.Protein.RotatedTorsions>
[ 6907 6896 6895 6894 ] final -139.57 input  -60.11 | X-H torsion
[ 7974 7965 7964 7962 ] final  -71.21 input  175.53 | X-H torsion
[ 8008 7997 7996 7995 ] final  -74.29 input   59.86 | X-H torsion
[ 10167 10162 10161 10158 ] final  -24.97 input  -65.29 | X-H torsion
[ 10718 10713 10712 10709 ] final  -93.60 input   66.30 | X-H torsion
[ 10763 10752 10751 10750 ] final -118.26 input  -60.55 | X-H torsion
[ 11005 11000 10999 10996 ] final -104.17 input  -57.11 | X-H torsion

> <Gold.Protein.ActiveResidues>
 VAL166  LYS551  ARG553  GLY616  TRP617  ASP618  TYR619  PRO620  LYS621  CYS622 
 ASP623  PHE694  ASN695  SER759  ASP760  ASP761  ALA762  ILE779  LEU786  VAL792 
 PHE793  MET794  SER795  GLU796  ALA797  LYS798  CYS799  TRP800  GLU811  SER814 

> <Gold.Protein.RotatedAtoms>
  151.0495  133.5637  159.2643 H   0  0  0  0  0  0  0  0  0  0  0  0  # atno 6907 bound_to 6896
  151.2653  135.0666  159.9123 H   0  0  0  0  0  0  0  0  0  0  0  0  # atno 6908 bound_to 6896
  152.5379  134.0234  159.8046 H   0  0  0  0  0  0  0  0  0  0  0  0  # atno 6909 bound_to 6896
  145.6810  140.9188  143.0832 H   0  0  0  0  0  0  0  0  0  0  0  0  # atno 7974 bound_to 7965
  154.5319  140.0764  156.8359 H   0  0  0  0  0  0  0  0  0  0  0  0  # atno 8008 bound_to 7997
  155.3358  140.3404  155.4221 H   0  0  0  0  0  0  0  0  0  0  0  0  # atno 8009 bound_to 7997
  156.1789  140.1645  156.8297 H   0  0  0  0  0  0  0  0  0  0  0  0  # atno 8010 bound_to 7997
  140.7287  143.4306  151.0808 H   0  0  0  0  0  0  0  0  0  0  0  0  # atno 10167 bound_to 10162
  156.0015  130.5033  150.5800 H   0  0  0  0  0  0  0  0  0  0  0  0  # atno 10718 bound_to 10713
  154.8582  135.4280  154.2111 H   0  0  0  0  0  0  0  0  0  0  0  0  # atno 10763 bound_to 10752
  153.3136  135.6977  153.7099 H   0  0  0  0  0  0  0  0  0  0  0  0  # atno 10764 bound_to 10752
  153.6181  135.3507  155.2975 H   0  0  0  0  0  0  0  0  0  0  0  0  # atno 10765 bound_to 10752
  141.1112  133.8701  157.1578 H   0  0  0  0  0  0  0  0  0  0  0  0  # atno 11005 bound_to 11000
  144.7026  139.8696  143.7439 LP  0  0  0  0  0  0  0  0  0  0  0  0  # atno 17320 bound_to 7965
  146.0964  139.3957  143.0374 LP  0  0  0  0  0  0  0  0  0  0  0  0  # atno 17321 bound_to 7965
  139.7962  143.8148  152.3158 LP  0  0  0  0  0  0  0  0  0  0  0  0  # atno 17342 bound_to 10162
  139.8149  144.7320  150.9649 LP  0  0  0  0  0  0  0  0  0  0  0  0  # atno 17343 bound_to 10162
  157.3682  131.0761  151.1580 LP  0  0  0  0  0  0  0  0  0  0  0  0  # atno 17370 bound_to 10713
  157.2342  130.6539  149.5862 LP  0  0  0  0  0  0  0  0  0  0  0  0  # atno 17371 bound_to 10713
  140.0008  135.0028  157.0185 LP  0  0  0  0  0  0  0  0  0  0  0  0  # atno 17394 bound_to 11000
  140.4769  134.1329  155.7211 LP  0  0  0  0  0  0  0  0  0  0  0  0  # atno 17395 bound_to 11000

$$$$
