AV-unprocessed.smi:1070|AV-procd|sdf|4676|dock2
  -GOLD-   22720 3193D 1   1.00000     0.00000
 Structure written by MMmdl.
 48 49  0  0  0  0  0  0  0  0  1 V2000
  151.3368  140.3256  156.9172 C   0  0  0  0  0  0  0  0  0  0  0  0
  151.2951  139.4538  155.6601 C   0  0  0  0  0  0  0  0  0  0  0  0
  150.3595  138.4088  155.8588 O   0  0  0  0  0  0  0  0  0  0  0  0
  150.2541  137.5427  154.7373 C   0  0  0  0  0  0  0  0  0  0  0  0
  150.4267  136.0967  155.2021 C   0  0  0  0  0  0  0  0  0  0  0  0
  151.2337  135.8379  156.0942 O   0  0  0  0  0  0  0  0  0  0  0  0
  149.6557  135.1864  154.5816 N   0  0  0  0  0  0  0  0  0  0  0  0
  149.6755  133.7714  154.7253 C   0  0  0  0  0  0  0  0  0  0  0  0
  150.5686  133.1115  155.6018 C   0  0  0  0  0  0  0  0  0  0  0  0
  150.4986  131.7123  155.7263 C   0  0  0  0  0  0  0  0  0  0  0  0
  149.5315  131.0139  154.9804 C   0  0  0  0  0  0  0  0  0  0  0  0
  149.4637  129.6412  155.1032 O   0  0  0  0  0  0  0  0  0  0  0  0
  148.5686  128.9315  154.2538 C   0  0  0  0  0  0  0  0  0  0  0  0
  148.6635  131.6400  154.1498 N   0  0  0  0  0  0  0  0  0  0  0  0
  148.7253  132.9866  154.0199 C   0  0  0  0  0  0  0  0  0  0  0  0
  147.8152  133.5920  153.1307 N   0  0  0  0  0  0  0  0  0  0  0  0
  146.6513  134.2603  153.7150 C   0  0  0  0  0  0  0  0  0  0  0  0
  145.9079  135.0835  152.6456 C   0  0  0  0  0  0  0  0  0  0  0  0
  145.5777  134.2105  151.5110 N   0  0  0  0  0  0  0  0  0  0  0  0
  144.3059  133.8842  151.1798 C   0  0  0  0  0  0  0  0  0  0  0  0
  143.1469  134.4884  151.9757 C   0  0  0  0  0  0  0  0  0  0  0  0
  144.0351  133.1149  150.2576 O   0  0  0  0  0  0  0  0  0  0  0  0
  146.7904  133.6621  150.8875 C   0  0  0  0  0  0  0  0  0  0  0  0
  147.5438  132.8093  151.9246 C   0  0  0  0  0  0  0  0  0  0  0  0
  152.0340  141.1544  156.7936 H   0  0  0  0  0  0  0  0  0  0  0  0
  151.6572  139.7465  157.7833 H   0  0  0  0  0  0  0  0  0  0  0  0
  150.3543  140.7440  157.1372 H   0  0  0  0  0  0  0  0  0  0  0  0
  151.0064  140.0555  154.7971 H   0  0  0  0  0  0  0  0  0  0  0  0
  152.2855  139.0419  155.4606 H   0  0  0  0  0  0  0  0  0  0  0  0
  149.2810  137.6599  154.2572 H   0  0  0  0  0  0  0  0  0  0  0  0
  151.0238  137.7755  154.0000 H   0  0  0  0  0  0  0  0  0  0  0  0
  149.0970  135.5361  153.8163 H   0  0  0  0  0  0  0  0  0  0  0  0
  151.2905  133.6560  156.1912 H   0  0  0  0  0  0  0  0  0  0  0  0
  151.1702  131.1856  156.3881 H   0  0  0  0  0  0  0  0  0  0  0  0
  148.6371  127.8651  154.4678 H   0  0  0  0  0  0  0  0  0  0  0  0
  148.8194  129.0741  153.2016 H   0  0  0  0  0  0  0  0  0  0  0  0
  147.5345  129.2368  154.4197 H   0  0  0  0  0  0  0  0  0  0  0  0
  145.9773  133.5158  154.1414 H   0  0  0  0  0  0  0  0  0  0  0  0
  146.9714  134.9117  154.5293 H   0  0  0  0  0  0  0  0  0  0  0  0
  145.0307  135.5554  153.0896 H   0  0  0  0  0  0  0  0  0  0  0  0
  146.5407  135.9002  152.2948 H   0  0  0  0  0  0  0  0  0  0  0  0
  143.1554  135.5765  151.9058 H   0  0  0  0  0  0  0  0  0  0  0  0
  143.2067  134.1986  153.0251 H   0  0  0  0  0  0  0  0  0  0  0  0
  142.1900  134.1376  151.5879 H   0  0  0  0  0  0  0  0  0  0  0  0
  146.5986  133.0684  149.9952 H   0  0  0  0  0  0  0  0  0  0  0  0
  147.4231  134.4876  150.5591 H   0  0  0  0  0  0  0  0  0  0  0  0
  148.4678  132.4326  151.4865 H   0  0  0  0  0  0  0  0  0  0  0  0
  146.9473  131.9373  152.1960 H   0  0  0  0  0  0  0  0  0  0  0  0
  1  2  1  0  0  0  0
  1 25  1  0  0  0  0
  1 26  1  0  0  0  0
  1 27  1  0  0  0  0
  2  3  1  0  0  0  0
  2 28  1  0  0  0  0
  2 29  1  0  0  0  0
  3  4  1  0  0  0  0
  4  5  1  0  0  0  0
  4 30  1  0  0  0  0
  4 31  1  0  0  0  0
  5  6  2  0  0  0  0
  5  7  1  0  0  0  0
  7  8  1  0  0  0  0
  7 32  1  0  0  0  0
  8 15  1  0  0  0  0
  8  9  2  0  0  0  0
  9 10  1  0  0  0  0
  9 33  1  0  0  0  0
 10 11  2  0  0  0  0
 10 34  1  0  0  0  0
 11 12  1  0  0  0  0
 11 14  1  0  0  0  0
 12 13  1  0  0  0  0
 13 35  1  0  0  0  0
 13 36  1  0  0  0  0
 13 37  1  0  0  0  0
 14 15  2  0  0  0  0
 15 16  1  0  0  0  0
 16 24  1  0  0  0  0
 16 17  1  0  0  0  0
 17 18  1  0  0  0  0
 17 38  1  0  0  0  0
 17 39  1  0  0  0  0
 18 19  1  0  0  0  0
 18 40  1  0  0  0  0
 18 41  1  0  0  0  0
 19 20  1  0  0  0  0
 19 23  1  0  0  0  0
 20 21  1  0  0  0  0
 20 22  2  0  0  0  0
 21 42  1  0  0  0  0
 21 43  1  0  0  0  0
 21 44  1  0  0  0  0
 23 24  1  0  0  0  0
 23 45  1  0  0  0  0
 23 46  1  0  0  0  0
 24 47  1  0  0  0  0
 24 48  1  0  0  0  0
M  END
> <s_m_source_file>
AV-unprocessed.smi

> <i_m_source_file_index>
1070

> <i_lp_mmshare_version>
43012

> <i_f3d_flags>
0

> <s_epik_input>
W0NIM11bQ0gyXU9bQ0gyXUMoPU8pW05IXWMxW2NIXVtjSF1jKE9bQ0gzXSluYzFOMltDSDJdW0NIMl1OKEMoPU8pW0NIM10pW0NIMl1bQ0gyXTI=

> <s_epik_cmdline>
J2VwaWtfcHl0aG9uJywgJy1waCcsICc3LjAnLCAnLXRuJywgJzgnLCAnLW1hJywgJzIwMCcsICctbWV0YWxfYmluZGluZycsICctaW1hZScsICc8aW5maWxlLm1hZT4nLCAnLW9tYWUnLCAnPG91dGZpbGUubWFlPic=

> <r_lp_tautomer_probability>
1

> <r_epik_Ionization_Penalty>
0.000131804

> <r_epik_Ionization_Penalty_Charging>
0

> <r_epik_Ionization_Penalty_Neutral>
0.000131804

> <r_epik_State_Penalty>
-0

> <r_epik_Charging_Adjusted_Penalty>
0

> <i_epik_Tot_Q>
0

> <i_epik_Tot_abs_Q>
0

> <r_epik_Metal_State_Penalty>
-0

> <b_epik_Metal_Only>
0

> <s_lp_Force_Field>
OPLS_2005

> <r_lp_Energy>
37.3921

> <b_lp_Chiralities_Consistent>
1

> <s_lp_Variant>
AV-unprocessed.smi:1070-1

> <Gold.Version>
5.8.1

> <Gold.Id.Protein>
6NUR|6NUR_protein|mol2

> <Gold.PLP.Fitness>
39.8226

> <Gold.PLP.PLP>
-35.9333

> <Gold.PLP.part.hbond>
-2.0619

> <Gold.PLP.part.metal>
0.0000

> <Gold.PLP.part.buried>
-3.9867

> <Gold.PLP.part.nonpolar>
-29.9534

> <Gold.PLP.part.repulsive>
0.6968

> <Gold.PLP.ligand.clash>
0.0000

> <Gold.PLP.ligand.torsion>
1.2916

> <Gold.PLP.Chemscore.Hbond>
1.9920

> <Gold.PLP.Chemscore.CHOScore>
0.0000

> <Gold.PLP.Chemscore.Metal>
0.0000

> <Gold.Chemscore.Hbonds>
donor molecule, donor type, donor heavy atom, donor atom, acceptor molecule, acceptor atom, score
      L1  H     7    32       P1  7948  0.92
      P1  H 10752 10764       L1     6  0.60

> <Gold.PLP.Chemscore.Internal.Correction>
0.4966

> <Gold.Rescore>
     Score         DG    S(hbond)    S(metal)    S(lipo)     H(rot)  DE(clash)    DE(int)     intcor
     10.04     -13.51       1.51        0.00      66.30       1.86       1.21       2.26       ----

> <Gold.Chemscore.Fitness>
10.0373

> <Gold.Chemscore.DG>
-13.5146

> <Gold.Chemscore.ZeroCoef>
-5.4800

> <Gold.Chemscore.Hbond>
1.5110

> <Gold.Chemscore.Metal>
0.0000

> <Gold.Chemscore.Lipo>
66.3036

> <Gold.Chemscore.Internal_Hbond>
0.0000

> <Gold.Chemscore.DEClash>
1.2136

> <Gold.Chemscore.DEInternal>
2.2636

> <Gold.Chemscore.Rot>
1.8631

> <Gold.Chemscore.Internal.Correction>
   9.000000E+99

> <Gold.Chemscore.Hbonds>
donor molecule, donor type, donor heavy atom, donor atom, acceptor molecule, acceptor atom, score
      L1  H     7    32       P1  7948  0.62
      P1  H 10752 10764       L1     6  0.24

> <Gold.Chemscore.Hbond.Weighted>
-5.0466

> <Gold.Chemscore.Metal.Weighted>
-0.0000

> <Gold.Chemscore.Lipo.Weighted>
-7.7575

> <Gold.Chemscore.Internal_Hbond.Weighted>
0.0000

> <Gold.Chemscore.DEClash.Weighted>
1.2136

> <Gold.Chemscore.DEInternal.Weighted>
2.2636

> <Gold.Chemscore.Rot.Weighted>
4.7696

> <Gold.Chemscore.Internal.Correction.Weighted>
   9.000000E+99

> <Gold.Protein.RotatedTorsions>
[ 6907 6896 6895 6894 ] final   89.68 input  -60.11 | X-H torsion
[ 7974 7965 7964 7962 ] final   46.99 input  175.53 | X-H torsion
[ 8008 7997 7996 7995 ] final  107.97 input   59.86 | X-H torsion
[ 10167 10162 10161 10158 ] final  130.00 input  -65.29 | X-H torsion
[ 10718 10713 10712 10709 ] final -107.33 input   66.30 | X-H torsion
[ 10763 10752 10751 10750 ] final  -33.50 input  -60.55 | X-H torsion
[ 11005 11000 10999 10996 ] final  -90.79 input  -57.11 | X-H torsion

> <Gold.Protein.ActiveResidues>
 VAL166  LYS551  ARG553  GLY616  TRP617  ASP618  TYR619  PRO620  LYS621  CYS622 
 ASP623  PHE694  ASN695  SER759  ASP760  ASP761  ALA762  ILE779  LEU786  VAL792 
 PHE793  MET794  SER795  GLU796  ALA797  LYS798  CYS799  TRP800  GLU811  SER814 

> <Gold.Protein.RotatedAtoms>
  152.5438  134.1929  159.8681 H   0  0  0  0  0  0  0  0  0  0  0  0  # atno 6907 bound_to 6896
  151.1923  133.4653  159.2602 H   0  0  0  0  0  0  0  0  0  0  0  0  # atno 6908 bound_to 6896
  151.1070  135.0017  159.8531 H   0  0  0  0  0  0  0  0  0  0  0  0  # atno 6909 bound_to 6896
  146.0339  139.4797  142.9820 H   0  0  0  0  0  0  0  0  0  0  0  0  # atno 7974 bound_to 7965
  156.1866  140.3085  155.9251 H   0  0  0  0  0  0  0  0  0  0  0  0  # atno 8008 bound_to 7997
  155.3267  140.0458  157.3058 H   0  0  0  0  0  0  0  0  0  0  0  0  # atno 8009 bound_to 7997
  154.5403  140.2259  155.8662 H   0  0  0  0  0  0  0  0  0  0  0  0  # atno 8010 bound_to 7997
  139.5451  144.6766  151.4500 H   0  0  0  0  0  0  0  0  0  0  0  0  # atno 10167 bound_to 10162
  156.0431  130.5657  150.7806 H   0  0  0  0  0  0  0  0  0  0  0  0  # atno 10718 bound_to 10713
  153.8313  135.6866  153.4814 H   0  0  0  0  0  0  0  0  0  0  0  0  # atno 10763 bound_to 10752
  153.1509  135.4618  154.9634 H   0  0  0  0  0  0  0  0  0  0  0  0  # atno 10764 bound_to 10752
  154.7885  135.3293  154.7775 H   0  0  0  0  0  0  0  0  0  0  0  0  # atno 10765 bound_to 10752
  141.1558  133.7714  156.9787 H   0  0  0  0  0  0  0  0  0  0  0  0  # atno 11005 bound_to 11000
  145.6995  141.0140  143.1512 LP  0  0  0  0  0  0  0  0  0  0  0  0  # atno 17320 bound_to 7965
  144.7043  139.8628  143.7435 LP  0  0  0  0  0  0  0  0  0  0  0  0  # atno 17321 bound_to 7965
  140.6695  143.8324  150.6983 LP  0  0  0  0  0  0  0  0  0  0  0  0  # atno 17342 bound_to 10162
  140.1744  143.4168  152.1978 LP  0  0  0  0  0  0  0  0  0  0  0  0  # atno 17343 bound_to 10162
  157.5275  131.0935  150.9999 LP  0  0  0  0  0  0  0  0  0  0  0  0  # atno 17370 bound_to 10713
  157.0314  130.5713  149.5343 LP  0  0  0  0  0  0  0  0  0  0  0  0  # atno 17371 bound_to 10713
  140.1080  134.9494  157.2023 LP  0  0  0  0  0  0  0  0  0  0  0  0  # atno 17394 bound_to 11000
  140.3231  134.2894  155.7242 LP  0  0  0  0  0  0  0  0  0  0  0  0  # atno 17395 bound_to 11000

$$$$
