AV-unprocessed.smi:683|AV-procd|sdf|3331|dock5
  -GOLD-   22720 0303D 1   1.00000     0.00000
 Structure written by MMmdl.
 29 30  0  0  0  0  0  0  0  0  2 V2000
  152.8176  142.5270  162.7894 N   0  0  0  0  0  0  0  0  0  0  0  0
  152.5644  142.9382  161.7379 C   0  0  0  0  0  0  0  0  0  0  0  0
  152.2466  143.4546  160.4171 C   0  0  0  0  0  0  0  0  0  0  0  0
  152.2537  144.8439  160.1829 C   0  0  0  0  0  0  0  0  0  0  0  0
  151.9456  145.3404  158.9029 C   0  0  0  0  0  0  0  0  0  0  0  0
  151.6321  144.4501  157.8585 C   0  0  0  0  0  0  0  0  0  0  0  0
  151.6217  143.0570  158.0758 C   0  0  0  0  0  0  0  0  0  0  0  0
  151.3057  142.2587  156.9973 O   0  0  0  0  0  0  0  0  0  0  0  0
  150.9920  140.8946  157.2414 C   0  0  0  0  0  0  0  0  0  0  0  0
  151.8057  140.0206  156.2766 C   0  0  0  0  0  0  0  0  0  0  0  0
  152.2498  138.7805  156.9261 N   0  0  0  0  0  0  0  0  0  0  0  0
  152.4589  138.8116  158.3150 C   0  0  0  0  0  0  0  0  0  0  0  0
  152.8745  137.7286  158.9999 C   0  0  0  0  0  0  0  0  0  0  0  0
  153.1241  137.7970  160.7081 Cl  0  0  0  0  0  0  0  0  0  0  0  0
  153.1113  136.4944  158.2536 C   0  0  0  0  0  0  0  0  0  0  0  0
  153.4876  135.4854  158.8484 O   0  0  0  0  0  0  0  0  0  0  0  0
  152.9014  136.5190  156.9047 N   0  5  0  0  0  0  0  0  0  0  0  0
  152.4819  137.6309  156.2257 C   0  0  0  0  0  0  0  0  0  0  0  0
  152.3093  137.6317  155.0066 O   0  0  0  0  0  0  0  0  0  0  0  0
  151.9318  142.5643  159.3693 C   0  0  0  0  0  0  0  0  0  0  0  0
  152.4947  145.5334  160.9796 H   0  0  0  0  0  0  0  0  0  0  0  0
  151.9504  146.4050  158.7217 H   0  0  0  0  0  0  0  0  0  0  0  0
  151.3982  144.8405  156.8788 H   0  0  0  0  0  0  0  0  0  0  0  0
  151.2334  140.6330  158.2728 H   0  0  0  0  0  0  0  0  0  0  0  0
  149.9260  140.7211  157.0853 H   0  0  0  0  0  0  0  0  0  0  0  0
  151.2021  139.7891  155.3977 H   0  0  0  0  0  0  0  0  0  0  0  0
  152.6613  140.5806  155.8955 H   0  0  0  0  0  0  0  0  0  0  0  0
  152.2661  139.7647  158.7856 H   0  0  0  0  0  0  0  0  0  0  0  0
  151.9338  141.5043  159.5768 H   0  0  0  0  0  0  0  0  0  0  0  0
  1  2  3  0  0  0  0
  2  3  1  0  0  0  0
  3 20  1  0  0  0  0
  3  4  2  0  0  0  0
  4  5  1  0  0  0  0
  4 21  1  0  0  0  0
  5  6  2  0  0  0  0
  5 22  1  0  0  0  0
  6  7  1  0  0  0  0
  6 23  1  0  0  0  0
  7  8  1  0  0  0  0
  7 20  2  0  0  0  0
  8  9  1  0  0  0  0
  9 10  1  0  0  0  0
  9 24  1  0  0  0  0
  9 25  1  0  0  0  0
 10 11  1  0  0  0  0
 10 26  1  0  0  0  0
 10 27  1  0  0  0  0
 11 18  1  0  0  0  0
 11 12  1  0  0  0  0
 12 13  2  0  0  0  0
 12 28  1  0  0  0  0
 13 14  1  0  0  0  0
 13 15  1  0  0  0  0
 15 16  2  0  0  0  0
 15 17  1  0  0  0  0
 17 18  1  0  0  0  0
 18 19  2  0  0  0  0
 20 29  1  0  0  0  0
M  CHG  1  17  -1
M  END
> <s_m_source_file>
AV-unprocessed.smi

> <i_m_source_file_index>
683

> <i_lp_mmshare_version>
43012

> <i_f3d_flags>
0

> <s_epik_input>
TiNDYzFbY0hdW2NIXVtjSF1jKFtjSF0xKU9bQ0gyXVtDSDJdbjJbY0hdYyhDbCljKD1PKVtuSF1jMj1P

> <s_epik_cmdline>
J2VwaWtfcHl0aG9uJywgJy1waCcsICc3LjAnLCAnLXRuJywgJzgnLCAnLW1hJywgJzIwMCcsICctbWV0YWxfYmluZGluZycsICctaW1hZScsICc8aW5maWxlLm1hZT4nLCAnLW9tYWUnLCAnPG91dGZpbGUubWFlPic=

> <r_epik_Ionization_Penalty>
1.49102

> <r_epik_Ionization_Penalty_Charging>
6.47896e-09

> <r_epik_Ionization_Penalty_Neutral>
1.49102

> <r_epik_State_Penalty>
1.58045

> <r_epik_Charging_Adjusted_Penalty>
1.58045

> <i_epik_Tot_Q>
-1

> <i_epik_Tot_abs_Q>
1

> <r_epik_Metal_State_Penalty>
0.00788874

> <b_epik_Metal_Only>
0

> <s_lp_Force_Field>
OPLS_2005

> <r_lp_Energy>
20.1006

> <b_lp_Chiralities_Consistent>
1

> <s_lp_Variant>
AV-unprocessed.smi:683-2

> <Gold.Version>
5.8.1

> <Gold.Id.Protein>
6NUR|6NUR_protein|mol2

> <Gold.PLP.Fitness>
47.0597

> <Gold.PLP.PLP>
-40.6483

> <Gold.PLP.part.hbond>
-3.0000

> <Gold.PLP.part.metal>
0.0000

> <Gold.PLP.part.buried>
-5.3935

> <Gold.PLP.part.nonpolar>
-32.5484

> <Gold.PLP.part.repulsive>
0.2248

> <Gold.PLP.ligand.clash>
0.0000

> <Gold.PLP.ligand.torsion>
1.1410

> <Gold.PLP.Chemscore.Hbond>
2.8886

> <Gold.PLP.Chemscore.CHOScore>
0.0000

> <Gold.PLP.Chemscore.Metal>
0.0000

> <Gold.Chemscore.Hbonds>
donor molecule, donor type, donor heavy atom, donor atom, acceptor molecule, acceptor atom, score
      P1  H  6896  6907       L1    16  0.74
      P1  H 10752 10763       L1    19  0.01
      P1  H 10752 10764       L1    17  1.85

> <Gold.PLP.Chemscore.Internal.Correction>
0.0276

> <Gold.Rescore>
     Score         DG    S(hbond)    S(metal)    S(lipo)     H(rot)  DE(clash)    DE(int)     intcor
     15.25     -16.45       1.35        0.00      98.31       1.97       0.09       1.11       ----

> <Gold.Chemscore.Fitness>
15.2511

> <Gold.Chemscore.DG>
-16.4532

> <Gold.Chemscore.ZeroCoef>
-5.4800

> <Gold.Chemscore.Hbond>
1.3529

> <Gold.Chemscore.Metal>
0.0000

> <Gold.Chemscore.Lipo>
98.3063

> <Gold.Chemscore.Internal_Hbond>
0.0000

> <Gold.Chemscore.DEClash>
0.0920

> <Gold.Chemscore.DEInternal>
1.1101

> <Gold.Chemscore.Rot>
1.9717

> <Gold.Chemscore.Internal.Correction>
   9.000000E+99

> <Gold.Chemscore.Hbonds>
donor molecule, donor type, donor heavy atom, donor atom, acceptor molecule, acceptor atom, score
      P1  H  6896  6907       L1    16  0.72
      P1  H 10752 10763       L1    19  0.02
      P1  H 10752 10764       L1    17  0.26

> <Gold.Chemscore.Hbond.Weighted>
-4.5188

> <Gold.Chemscore.Metal.Weighted>
-0.0000

> <Gold.Chemscore.Lipo.Weighted>
-11.5018

> <Gold.Chemscore.Internal_Hbond.Weighted>
0.0000

> <Gold.Chemscore.DEClash.Weighted>
0.0920

> <Gold.Chemscore.DEInternal.Weighted>
1.1101

> <Gold.Chemscore.Rot.Weighted>
5.0475

> <Gold.Chemscore.Internal.Correction.Weighted>
   9.000000E+99

> <Gold.Protein.RotatedTorsions>
[ 6907 6896 6895 6894 ] final   59.12 input  -60.11 | X-H torsion
[ 7974 7965 7964 7962 ] final   91.98 input  175.53 | X-H torsion
[ 8008 7997 7996 7995 ] final  -57.04 input   59.86 | X-H torsion
[ 10167 10162 10161 10158 ] final   61.44 input  -65.29 | X-H torsion
[ 10718 10713 10712 10709 ] final -108.62 input   66.30 | X-H torsion
[ 10763 10752 10751 10750 ] final    7.18 input  -60.55 | X-H torsion
[ 11005 11000 10999 10996 ] final   76.07 input  -57.11 | X-H torsion

> <Gold.Protein.ActiveResidues>
 VAL166  LYS551  ARG553  GLY616  TRP617  ASP618  TYR619  PRO620  LYS621  CYS622 
 ASP623  PHE694  ASN695  SER759  ASP760  ASP761  ALA762  ILE779  LEU786  VAL792 
 PHE793  MET794  SER795  GLU796  ALA797  LYS798  CYS799  TRP800  GLU811  SER814 

> <Gold.Protein.RotatedAtoms>
  152.3886  134.6477  160.0115 H   0  0  0  0  0  0  0  0  0  0  0  0  # atno 6907 bound_to 6896
  151.6718  133.3308  159.3206 H   0  0  0  0  0  0  0  0  0  0  0  0  # atno 6908 bound_to 6896
  150.7807  134.6793  159.6479 H   0  0  0  0  0  0  0  0  0  0  0  0  # atno 6909 bound_to 6896
  145.4984  139.2276  143.2791 H   0  0  0  0  0  0  0  0  0  0  0  0  # atno 7974 bound_to 7965
  154.4253  140.1116  156.5734 H   0  0  0  0  0  0  0  0  0  0  0  0  # atno 8008 bound_to 7997
  155.6188  140.3495  155.4626 H   0  0  0  0  0  0  0  0  0  0  0  0  # atno 8009 bound_to 7997
  156.0040  140.1205  157.0509 H   0  0  0  0  0  0  0  0  0  0  0  0  # atno 8010 bound_to 7997
  140.1548  144.4428  150.6740 H   0  0  0  0  0  0  0  0  0  0  0  0  # atno 10167 bound_to 10162
  156.0495  130.5722  150.7987 H   0  0  0  0  0  0  0  0  0  0  0  0  # atno 10718 bound_to 10713
  153.2393  135.6901  153.7801 H   0  0  0  0  0  0  0  0  0  0  0  0  # atno 10763 bound_to 10752
  153.6937  135.3308  155.3209 H   0  0  0  0  0  0  0  0  0  0  0  0  # atno 10764 bound_to 10752
  154.8348  135.4551  154.1308 H   0  0  0  0  0  0  0  0  0  0  0  0  # atno 10765 bound_to 10752
  139.9315  134.7570  156.1349 H   0  0  0  0  0  0  0  0  0  0  0  0  # atno 11005 bound_to 11000
  146.2241  140.5783  142.9004 LP  0  0  0  0  0  0  0  0  0  0  0  0  # atno 17320 bound_to 7965
  144.7794  140.5808  143.6616 LP  0  0  0  0  0  0  0  0  0  0  0  0  # atno 17321 bound_to 7965
  140.6680  143.2275  151.5695 LP  0  0  0  0  0  0  0  0  0  0  0  0  # atno 17342 bound_to 10162
  139.5409  144.2651  152.1348 LP  0  0  0  0  0  0  0  0  0  0  0  0  # atno 17343 bound_to 10162
  157.5406  131.0940  150.9832 LP  0  0  0  0  0  0  0  0  0  0  0  0  # atno 17370 bound_to 10713
  157.0116  130.5639  149.5321 LP  0  0  0  0  0  0  0  0  0  0  0  0  # atno 17371 bound_to 10713
  141.0906  133.6716  156.2532 LP  0  0  0  0  0  0  0  0  0  0  0  0  # atno 17394 bound_to 11000
  140.6190  134.5381  157.5545 LP  0  0  0  0  0  0  0  0  0  0  0  0  # atno 17395 bound_to 11000

$$$$
