AV-unprocessed.smi:283|AV-procd|sdf|2131|dock1
  -GOLD-   2262021443D 1   1.00000     0.00000
 Structure written by MMmdl.
 48 51  0  0  0  0  0  0  0  0  1 V2000
  151.5537  137.9956  154.2286 C   0  0  0  0  0  0  0  0  0  0  0  0
  150.9767  138.1148  155.6453 C   0  0  2  0  0  0  0  0  0  0  0  0
  149.6310  137.5450  155.6869 N   0  0  0  0  0  0  0  0  0  0  0  0
  149.4062  136.2596  155.3309 C   0  0  0  0  0  0  0  0  0  0  0  0
  150.3899  135.3253  155.4095 N   0  0  0  0  0  0  0  0  0  0  0  0
  150.1432  134.0623  155.0519 C   0  0  0  0  0  0  0  0  0  0  0  0
  149.0080  133.5334  154.5912 N   0  0  0  0  0  0  0  0  0  0  0  0
  148.0175  134.4676  154.5014 C   0  0  0  0  0  0  0  0  0  0  0  0
  148.1374  135.8418  154.8523 C   0  0  0  0  0  0  0  0  0  0  0  0
  146.9282  136.4896  154.6377 N   0  0  0  0  0  0  0  0  0  0  0  0
  146.1432  135.5500  154.1831 C   0  0  0  0  0  0  0  0  0  0  0  0
  146.7160  134.3027  154.0689 N   0  0  0  0  0  0  0  0  0  0  0  0
  146.0626  133.0471  153.5787 C   0  0  1  0  0  0  0  0  0  0  0  0
  144.8744  133.3610  152.9157 O   0  0  0  0  0  0  0  0  0  0  0  0
  144.7027  132.5409  151.7570 C   0  0  1  0  0  0  0  0  0  0  0  0
  144.6733  133.4648  150.5223 C   0  0  0  0  0  0  0  0  0  0  0  0
  145.8574  134.2306  150.4423 O   0  0  0  0  0  0  0  0  0  0  0  0
  145.8584  131.5242  151.8168 C   0  0  1  0  0  0  0  0  0  0  0  0
  146.3115  131.0271  150.5715 O   0  0  0  0  0  0  0  0  0  0  0  0
  146.9372  132.2471  152.6057 C   0  0  1  0  0  0  0  0  0  0  0  0
  147.7696  133.0596  151.7939 O   0  0  0  0  0  0  0  0  0  0  0  0
  151.0581  139.5615  156.1363 C   0  0  0  0  0  0  0  0  0  0  0  0
  151.8858  139.8764  157.2386 C   0  0  0  0  0  0  0  0  0  0  0  0
  151.9794  141.1987  157.7117 C   0  0  0  0  0  0  0  0  0  0  0  0
  151.2424  142.2212  157.0880 C   0  0  0  0  0  0  0  0  0  0  0  0
  150.4095  141.9180  155.9953 C   0  0  0  0  0  0  0  0  0  0  0  0
  150.3100  140.5955  155.5186 C   0  0  0  0  0  0  0  0  0  0  0  0
  149.2614  140.2822  154.1798 Cl  0  0  0  0  0  0  0  0  0  0  0  0
  145.8224  132.4840  154.4816 H   0  0  0  0  0  0  0  0  0  0  0  0
  143.7440  132.0276  151.8432 H   0  0  0  0  0  0  0  0  0  0  0  0
  145.5217  130.6706  152.4072 H   0  0  0  0  0  0  0  0  0  0  0  0
  147.5698  131.5560  153.1640 H   0  0  0  0  0  0  0  0  0  0  0  0
  152.5867  138.3435  154.1974 H   0  0  0  0  0  0  0  0  0  0  0  0
  150.9812  138.5880  153.5140 H   0  0  0  0  0  0  0  0  0  0  0  0
  151.5455  136.9604  153.8863 H   0  0  0  0  0  0  0  0  0  0  0  0
  151.5868  137.4835  156.2899 H   0  0  0  0  0  0  0  0  0  0  0  0
  148.9170  138.1350  156.0893 H   0  0  0  0  0  0  0  0  0  0  0  0
  150.9732  133.3781  155.1479 H   0  0  0  0  0  0  0  0  0  0  0  0
  145.1141  135.7428  153.9166 H   0  0  0  0  0  0  0  0  0  0  0  0
  144.6122  132.8655  149.6135 H   0  0  0  0  0  0  0  0  0  0  0  0
  143.8041  134.1220  150.5272 H   0  0  0  0  0  0  0  0  0  0  0  0
  146.0522  134.3872  149.5307 H   0  0  0  0  0  0  0  0  0  0  0  0
  147.2519  131.1204  150.5410 H   0  0  0  0  0  0  0  0  0  0  0  0
  148.4168  132.5070  151.3825 H   0  0  0  0  0  0  0  0  0  0  0  0
  152.4551  139.1007  157.7292 H   0  0  0  0  0  0  0  0  0  0  0  0
  152.6159  141.4274  158.5536 H   0  0  0  0  0  0  0  0  0  0  0  0
  151.3135  143.2368  157.4487 H   0  0  0  0  0  0  0  0  0  0  0  0
  149.8422  142.7053  155.5212 H   0  0  0  0  0  0  0  0  0  0  0  0
  1  2  1  0  0  0  0
  1 33  1  0  0  0  0
  1 34  1  0  0  0  0
  1 35  1  0  0  0  0
  2  3  1  0  0  0  0
  2 22  1  0  0  0  0
  2 36  1  0  0  0  0
  3  4  1  0  0  0  0
  3 37  1  0  0  0  0
  4  9  1  0  0  0  0
  4  5  2  0  0  0  0
  5  6  1  0  0  0  0
  6  7  2  0  0  0  0
  6 38  1  0  0  0  0
  7  8  1  0  0  0  0
  8 12  1  0  0  0  0
  8  9  2  0  0  0  0
  9 10  1  0  0  0  0
 10 11  2  0  0  0  0
 11 12  1  0  0  0  0
 11 39  1  0  0  0  0
 12 13  1  0  0  0  0
 13 29  1  0  0  0  0
 13 20  1  0  0  0  0
 13 14  1  0  0  0  0
 14 15  1  0  0  0  0
 15 30  1  0  0  0  0
 15 16  1  0  0  0  0
 15 18  1  0  0  0  0
 16 17  1  0  0  0  0
 16 40  1  0  0  0  0
 16 41  1  0  0  0  0
 17 42  1  0  0  0  0
 18 31  1  0  0  0  0
 18 19  1  0  0  0  0
 18 20  1  0  0  0  0
 19 43  1  0  0  0  0
 20 32  1  0  0  0  0
 20 21  1  0  0  0  0
 21 44  1  0  0  0  0
 22 27  1  0  0  0  0
 22 23  2  0  0  0  0
 23 24  1  0  0  0  0
 23 45  1  0  0  0  0
 24 25  2  0  0  0  0
 24 46  1  0  0  0  0
 25 26  1  0  0  0  0
 25 47  1  0  0  0  0
 26 27  2  0  0  0  0
 26 48  1  0  0  0  0
 27 28  1  0  0  0  0
M  END
> <s_m_source_file>
AV-unprocessed.smi

> <i_m_source_file_index>
283

> <i_lp_mmshare_version>
43012

> <i_f3d_flags>
0

> <s_epik_input>
Q2xjMVtjSF1bY0hdW2NIXVtjSF1jMVtDQEhdKFtDSDNdKVtOSF1jKG5bY0hdbjIpYyhjMjMpbltjSF1uM1tDQEBIXTRPW0NASF0oW0NIMl1bT0hdKVtDQEBIXShbT0hdKVtDQEhdNFtPSF0=

> <s_epik_cmdline>
J2VwaWtfcHl0aG9uJywgJy1waCcsICc3LjAnLCAnLXRuJywgJzgnLCAnLW1hJywgJzIwMCcsICctbWV0YWxfYmluZGluZycsICctaW1hZScsICc8aW5maWxlLm1hZT4nLCAnLW9tYWUnLCAnPG91dGZpbGUubWFlPic=

> <r_lp_tautomer_probability>
1

> <r_epik_Ionization_Penalty>
0.000266407

> <r_epik_Ionization_Penalty_Charging>
0

> <r_epik_Ionization_Penalty_Neutral>
0.000266407

> <r_epik_State_Penalty>
-0

> <r_epik_Charging_Adjusted_Penalty>
0

> <i_epik_Tot_Q>
0

> <i_epik_Tot_abs_Q>
0

> <r_epik_Metal_State_Penalty>
-0

> <b_epik_Metal_Only>
0

> <s_epik_Chemistry_Notes>
This compound contains an acetal/aminal-like group ( X-CH(R)-Y where X, Y are N, S, or O) that may be acid/base labile, releasing an aldehyde.

> <s_lp_Force_Field>
OPLS_2005

> <r_lp_Energy>
56.5757

> <b_lp_Chiralities_Consistent>
1

> <s_lp_Variant>
AV-unprocessed.smi:283-7

> <Gold.Version>
5.8.1

> <Gold.Id.Protein>
6NUR|6NUR_protein|mol2

> <Gold.PLP.Fitness>
45.3147

> <Gold.PLP.PLP>
-37.3542

> <Gold.PLP.part.hbond>
-3.0000

> <Gold.PLP.part.metal>
0.0000

> <Gold.PLP.part.buried>
-6.3548

> <Gold.PLP.part.nonpolar>
-28.7649

> <Gold.PLP.part.repulsive>
0.3675

> <Gold.PLP.ligand.clash>
0.0000

> <Gold.PLP.ligand.torsion>
0.5675

> <Gold.PLP.Chemscore.Hbond>
3.0000

> <Gold.PLP.Chemscore.CHOScore>
0.0000

> <Gold.PLP.Chemscore.Metal>
0.0000

> <Gold.Chemscore.Hbonds>
donor molecule, donor type, donor heavy atom, donor atom, acceptor molecule, acceptor atom, score
      L1  H    17    42       P1  7921  1.00
      L1  H    19    43       P1 10747  1.00
      L1  H    21    44       P1 10747  0.96

> <Gold.PLP.Chemscore.Internal.Correction>
0.0955

> <Gold.Rescore>
     Score         DG    S(hbond)    S(metal)    S(lipo)     H(rot)  DE(clash)    DE(int)     intcor
     14.41     -15.14       2.87        0.00      90.24       4.10       0.21       0.53       ----

> <Gold.Chemscore.Fitness>
14.4066

> <Gold.Chemscore.DG>
-15.1448

> <Gold.Chemscore.ZeroCoef>
-5.4800

> <Gold.Chemscore.Hbond>
2.8725

> <Gold.Chemscore.Metal>
0.0000

> <Gold.Chemscore.Lipo>
90.2441

> <Gold.Chemscore.Internal_Hbond>
0.0000

> <Gold.Chemscore.DEClash>
0.2109

> <Gold.Chemscore.DEInternal>
0.5273

> <Gold.Chemscore.Rot>
4.0968

> <Gold.Chemscore.Internal.Correction>
   9.000000E+99

> <Gold.Chemscore.Hbonds>
donor molecule, donor type, donor heavy atom, donor atom, acceptor molecule, acceptor atom, score
      L1  H    17    42       P1  7921  0.34
      L1  H    19    43       P1 10747  1.00
      L1  H    21    44       P1 10747  0.88

> <Gold.Chemscore.Hbond.Weighted>
-9.5942

> <Gold.Chemscore.Metal.Weighted>
-0.0000

> <Gold.Chemscore.Lipo.Weighted>
-10.5586

> <Gold.Chemscore.Internal_Hbond.Weighted>
0.0000

> <Gold.Chemscore.DEClash.Weighted>
0.2109

> <Gold.Chemscore.DEInternal.Weighted>
0.5273

> <Gold.Chemscore.Rot.Weighted>
10.4879

> <Gold.Chemscore.Internal.Correction.Weighted>
   9.000000E+99

> <Gold.Protein.RotatedTorsions>
[ 6907 6896 6895 6894 ] final  150.17 input  -60.11 | X-H torsion
[ 7974 7965 7964 7962 ] final   55.32 input  175.53 | X-H torsion
[ 8008 7997 7996 7995 ] final  -86.93 input   59.86 | X-H torsion
[ 10167 10162 10161 10158 ] final -105.61 input  -65.29 | X-H torsion
[ 10718 10713 10712 10709 ] final  117.05 input   66.30 | X-H torsion
[ 10763 10752 10751 10750 ] final   63.94 input  -60.55 | X-H torsion
[ 11005 11000 10999 10996 ] final -103.97 input  -57.11 | X-H torsion

> <Gold.Protein.ActiveResidues>
 VAL166  LYS551  ARG553  GLY616  TRP617  ASP618  TYR619  PRO620  LYS621  CYS622 
 ASP623  PHE694  ASN695  SER759  ASP760  ASP761  ALA762  ILE779  LEU786  VAL792 
 PHE793  MET794  SER795  GLU796  ALA797  LYS798  CYS799  TRP800  GLU811  SER814 

> <Gold.Protein.RotatedAtoms>
  152.1181  133.4338  159.4662 H   0  0  0  0  0  0  0  0  0  0  0  0  # atno 6907 bound_to 6896
  150.6870  134.2568  159.4542 H   0  0  0  0  0  0  0  0  0  0  0  0  # atno 6908 bound_to 6896
  152.0442  134.9692  160.0625 H   0  0  0  0  0  0  0  0  0  0  0  0  # atno 6909 bound_to 6896
  145.9517  139.3978  143.0302 H   0  0  0  0  0  0  0  0  0  0  0  0  # atno 7974 bound_to 7965
  154.6575  140.0572  157.0025 H   0  0  0  0  0  0  0  0  0  0  0  0  # atno 8008 bound_to 7997
  155.1278  140.3253  155.4463 H   0  0  0  0  0  0  0  0  0  0  0  0  # atno 8009 bound_to 7997
  156.2603  140.1986  156.6398 H   0  0  0  0  0  0  0  0  0  0  0  0  # atno 8010 bound_to 7997
  140.1967  143.3850  152.1163 H   0  0  0  0  0  0  0  0  0  0  0  0  # atno 10167 bound_to 10162
  157.6121  131.1032  150.7560 H   0  0  0  0  0  0  0  0  0  0  0  0  # atno 10718 bound_to 10713
  153.0036  135.5411  154.6431 H   0  0  0  0  0  0  0  0  0  0  0  0  # atno 10763 bound_to 10752
  154.5681  135.2839  155.0856 H   0  0  0  0  0  0  0  0  0  0  0  0  # atno 10764 bound_to 10752
  154.2032  135.6480  153.5146 H   0  0  0  0  0  0  0  0  0  0  0  0  # atno 10765 bound_to 10752
  141.1122  133.8684  157.1552 H   0  0  0  0  0  0  0  0  0  0  0  0  # atno 11005 bound_to 11000
  145.8162  140.9701  143.0922 LP  0  0  0  0  0  0  0  0  0  0  0  0  # atno 17320 bound_to 7965
  144.6797  139.9984  143.7484 LP  0  0  0  0  0  0  0  0  0  0  0  0  # atno 17321 bound_to 7965
  139.5234  144.7071  151.5322 LP  0  0  0  0  0  0  0  0  0  0  0  0  # atno 17342 bound_to 10162
  140.6419  143.8872  150.6700 LP  0  0  0  0  0  0  0  0  0  0  0  0  # atno 17343 bound_to 10162
  156.7935  130.4898  149.5381 LP  0  0  0  0  0  0  0  0  0  0  0  0  # atno 17370 bound_to 10713
  156.1228  130.6122  151.0219 LP  0  0  0  0  0  0  0  0  0  0  0  0  # atno 17371 bound_to 10713
  140.0022  135.0023  157.0215 LP  0  0  0  0  0  0  0  0  0  0  0  0  # atno 17394 bound_to 11000
  140.4745  134.1353  155.7207 LP  0  0  0  0  0  0  0  0  0  0  0  0  # atno 17395 bound_to 11000

$$$$
