AV-unprocessed.smi:1721|AV-procd|sdf|6940|dock8
  -GOLD-   22720 8143D 1   1.00000     0.00000
 Structure written by MMmdl.
 44 46  0  0  0  0  0  0  0  0  2 V2000
  151.6838  138.3243  154.5258 C   0  0  0  0  0  0  0  0  0  0  0  0
  150.3170  138.1690  154.1592 O   0  0  0  0  0  0  0  0  0  0  0  0
  149.4898  139.2751  154.2095 C   0  0  0  0  0  0  0  0  0  0  0  0
  150.0274  140.4637  154.5825 N   0  0  0  0  0  0  0  0  0  0  0  0
  149.2236  141.5447  154.6345 C   0  0  0  0  0  0  0  0  0  0  0  0
  147.8534  141.4999  154.3208 C   0  0  0  0  0  0  0  0  0  0  0  0
  147.2931  140.2688  153.9329 C   0  0  0  0  0  0  0  0  0  0  0  0
  148.1239  139.1220  153.8718 C   0  0  0  0  0  0  0  0  0  0  0  0
  147.6802  137.8205  153.4984 N   0  0  0  0  0  0  0  0  0  0  0  0
  146.5272  137.1887  153.7780 C   0  0  0  0  0  0  0  0  0  0  0  0
  145.5981  137.6451  154.4425 O   0  0  0  0  0  0  0  0  0  0  0  0
  146.5066  135.9640  153.2331 N   0  0  0  0  0  0  0  0  0  0  0  0
  145.4021  135.0149  153.3408 C   0  0  1  0  0  0  0  0  0  0  0  0
  144.0221  135.6942  153.3053 C   0  0  0  0  0  0  0  0  0  0  0  0
  143.1131  134.7320  152.5152 C   0  0  0  0  0  0  0  0  0  0  0  0
  143.9534  133.5567  152.2158 N   0  3  1  0  0  0  0  0  0  0  0  0
  143.5780  132.7406  151.0408 C   0  0  0  0  0  0  0  0  0  0  0  0
  144.5157  131.5200  150.9497 C   0  0  0  0  0  0  0  0  0  0  0  0
  146.0003  131.9371  150.9617 C   0  0  0  0  0  0  0  0  0  0  0  0
  146.3092  132.8606  152.1561 C   0  0  0  0  0  0  0  0  0  0  0  0
  145.3368  134.0525  152.1519 C   0  0  2  0  0  0  0  0  0  0  0  0
  152.1931  137.3656  154.4304 H   0  0  0  0  0  0  0  0  0  0  0  0
  151.7845  138.6503  155.5621 H   0  0  0  0  0  0  0  0  0  0  0  0
  152.1943  139.0355  153.8750 H   0  0  0  0  0  0  0  0  0  0  0  0
  149.6861  142.4726  154.9367 H   0  0  0  0  0  0  0  0  0  0  0  0
  147.2446  142.3901  154.3773 H   0  0  0  0  0  0  0  0  0  0  0  0
  146.2423  140.2422  153.6964 H   0  0  0  0  0  0  0  0  0  0  0  0
  148.3353  137.3021  152.9312 H   0  0  0  0  0  0  0  0  0  0  0  0
  147.3124  135.6685  152.7013 H   0  0  0  0  0  0  0  0  0  0  0  0
  145.4773  134.4424  154.2680 H   0  0  0  0  0  0  0  0  0  0  0  0
  143.6459  135.8735  154.3131 H   0  0  0  0  0  0  0  0  0  0  0  0
  144.0662  136.6584  152.7964 H   0  0  0  0  0  0  0  0  0  0  0  0
  142.2288  134.4379  153.0811 H   0  0  0  0  0  0  0  0  0  0  0  0
  142.7818  135.2049  151.5893 H   0  0  0  0  0  0  0  0  0  0  0  0
  142.5423  132.4134  151.1378 H   0  0  0  0  0  0  0  0  0  0  0  0
  143.6439  133.3425  150.1330 H   0  0  0  0  0  0  0  0  0  0  0  0
  144.3238  130.8550  151.7928 H   0  0  0  0  0  0  0  0  0  0  0  0
  144.2958  130.9455  150.0493 H   0  0  0  0  0  0  0  0  0  0  0  0
  146.6390  131.0540  150.9952 H   0  0  0  0  0  0  0  0  0  0  0  0
  146.2383  132.4556  150.0320 H   0  0  0  0  0  0  0  0  0  0  0  0
  146.2191  132.3042  153.0901 H   0  0  0  0  0  0  0  0  0  0  0  0
  147.3402  133.2097  152.0962 H   0  0  0  0  0  0  0  0  0  0  0  0
  145.4611  134.6184  151.2255 H   0  0  0  0  0  0  0  0  0  0  0  0
  143.9042  132.9564  153.0267 H   0  0  0  0  0  0  0  0  0  0  0  0
  1  2  1  0  0  0  0
  1 22  1  0  0  0  0
  1 23  1  0  0  0  0
  1 24  1  0  0  0  0
  2  3  1  0  0  0  0
  3  8  1  0  0  0  0
  3  4  2  0  0  0  0
  4  5  1  0  0  0  0
  5  6  2  0  0  0  0
  5 25  1  0  0  0  0
  6  7  1  0  0  0  0
  6 26  1  0  0  0  0
  7  8  2  0  0  0  0
  7 27  1  0  0  0  0
  8  9  1  0  0  0  0
  9 10  1  0  0  0  0
  9 28  1  0  0  0  0
 10 11  2  0  0  0  0
 10 12  1  0  0  0  0
 12 13  1  0  0  0  0
 12 29  1  0  0  0  0
 13 21  1  0  0  0  0
 13 14  1  0  0  0  0
 13 30  1  0  0  0  0
 14 15  1  0  0  0  0
 14 31  1  0  0  0  0
 14 32  1  0  0  0  0
 15 16  1  0  0  0  0
 15 33  1  0  0  0  0
 15 34  1  0  0  0  0
 16 21  1  0  0  0  0
 16 17  1  0  0  0  0
 16 44  1  0  0  0  0
 17 18  1  0  0  0  0
 17 35  1  0  0  0  0
 17 36  1  0  0  0  0
 18 19  1  0  0  0  0
 18 37  1  0  0  0  0
 18 38  1  0  0  0  0
 19 20  1  0  0  0  0
 19 39  1  0  0  0  0
 19 40  1  0  0  0  0
 20 21  1  0  0  0  0
 20 41  1  0  0  0  0
 20 42  1  0  0  0  0
 21 43  1  0  0  0  0
M  CHG  1  16   1
M  END
> <s_m_source_file>
AV-unprocessed.smi

> <i_m_source_file_index>
1721

> <i_lp_mmshare_version>
43012

> <i_f3d_flags>
0

> <s_epik_input>
W0NIM11PYzFuW2NIXVtjSF1bY0hdYzFbTkhdQyg9TylbTkhdW0NASF0oW0NIMl1bQ0gyXTIpW0NAQEhdKE4yMylbQ0gyXVtDSDJdW0NIMl1bQ0gyXTM=

> <s_epik_cmdline>
J2VwaWtfcHl0aG9uJywgJy1waCcsICc3LjAnLCAnLXRuJywgJzgnLCAnLW1hJywgJzIwMCcsICctbWV0YWxfYmluZGluZycsICctaW1hZScsICc8aW5maWxlLm1hZT4nLCAnLW9tYWUnLCAnPG91dGZpbGUubWFlPic=

> <r_lp_tautomer_probability>
1

> <r_epik_Ionization_Penalty>
0.00104793

> <r_epik_Ionization_Penalty_Charging>
0.000974069

> <r_epik_Ionization_Penalty_Neutral>
7.38649e-05

> <r_epik_State_Penalty>
0.000633842

> <r_epik_Charging_Adjusted_Penalty>
0.00160791

> <i_epik_Tot_Q>
1

> <i_epik_Tot_abs_Q>
1

> <r_epik_Metal_State_Penalty>
-0

> <b_epik_Metal_Only>
0

> <s_lp_Force_Field>
OPLS_2005

> <r_lp_Energy>
37.3569

> <b_lp_Chiralities_Consistent>
1

> <s_lp_Variant>
AV-unprocessed.smi:1721-6

> <Gold.Version>
5.8.1

> <Gold.Id.Protein>
6NUR|6NUR_protein|mol2

> <Gold.PLP.Fitness>
45.8178

> <Gold.PLP.PLP>
-35.4258

> <Gold.PLP.part.hbond>
-3.0000

> <Gold.PLP.part.metal>
0.0000

> <Gold.PLP.part.buried>
-5.7273

> <Gold.PLP.part.nonpolar>
-27.4913

> <Gold.PLP.part.repulsive>
0.4505

> <Gold.PLP.ligand.clash>
0.0000

> <Gold.PLP.ligand.torsion>
0.6408

> <Gold.PLP.Chemscore.Hbond>
2.8880

> <Gold.PLP.Chemscore.CHOScore>
1.0000

> <Gold.PLP.Chemscore.Metal>
0.0000

> <Gold.Chemscore.Hbonds>
donor molecule, donor type, donor heavy atom, donor atom, acceptor molecule, acceptor atom, score
      L1  H     9    28       P1  7948  1.00
      L1  H    12    29       P1  7948  0.93
      P1  H  7989  7998       L1     4  0.91
      L1  C     5    25       P1  8028  1.00

> <Gold.PLP.Chemscore.Internal.Correction>
0.0096

> <Gold.Rescore>
     Score         DG    S(hbond)    S(metal)    S(lipo)     H(rot)  DE(clash)    DE(int)     intcor
     17.97     -20.05       2.44        0.00      82.22       1.25       0.06       2.02       ----

> <Gold.Chemscore.Fitness>
17.9667

> <Gold.Chemscore.DG>
-20.0463

> <Gold.Chemscore.ZeroCoef>
-5.4800

> <Gold.Chemscore.Hbond>
2.4370

> <Gold.Chemscore.Metal>
0.0000

> <Gold.Chemscore.Lipo>
82.2240

> <Gold.Chemscore.Internal_Hbond>
0.0000

> <Gold.Chemscore.DEClash>
0.0621

> <Gold.Chemscore.DEInternal>
2.0175

> <Gold.Chemscore.Rot>
1.2474

> <Gold.Chemscore.Internal.Correction>
   9.000000E+99

> <Gold.Chemscore.Hbonds>
donor molecule, donor type, donor heavy atom, donor atom, acceptor molecule, acceptor atom, score
      L1  H     9    28       P1  7948  0.99
      L1  H    12    29       P1  7948  0.91
      L1  H    16    44       P1 10957  0.03
      P1  H  7989  7998       L1     4  0.48

> <Gold.Chemscore.Hbond.Weighted>
-8.1395

> <Gold.Chemscore.Metal.Weighted>
-0.0000

> <Gold.Chemscore.Lipo.Weighted>
-9.6202

> <Gold.Chemscore.Internal_Hbond.Weighted>
0.0000

> <Gold.Chemscore.DEClash.Weighted>
0.0621

> <Gold.Chemscore.DEInternal.Weighted>
2.0175

> <Gold.Chemscore.Rot.Weighted>
3.1934

> <Gold.Chemscore.Internal.Correction.Weighted>
   9.000000E+99

> <Gold.Protein.RotatedTorsions>
[ 6907 6896 6895 6894 ] final    9.01 input  -60.11 | X-H torsion
[ 7974 7965 7964 7962 ] final   61.71 input  175.53 | X-H torsion
[ 8008 7997 7996 7995 ] final  173.46 input   59.86 | X-H torsion
[ 10167 10162 10161 10158 ] final   -2.45 input  -65.29 | X-H torsion
[ 10718 10713 10712 10709 ] final   46.20 input   66.30 | X-H torsion
[ 10763 10752 10751 10750 ] final  130.54 input  -60.55 | X-H torsion
[ 11005 11000 10999 10996 ] final   81.73 input  -57.11 | X-H torsion

> <Gold.Protein.ActiveResidues>
 VAL166  LYS551  ARG553  GLY616  TRP617  ASP618  TYR619  PRO620  LYS621  CYS622 
 ASP623  PHE694  ASN695  SER759  ASP760  ASP761  ALA762  ILE779  LEU786  VAL792 
 PHE793  MET794  SER795  GLU796  ALA797  LYS798  CYS799  TRP800  GLU811  SER814 

> <Gold.Protein.RotatedAtoms>
  151.7152  135.0905  160.0274 H   0  0  0  0  0  0  0  0  0  0  0  0  # atno 6907 bound_to 6896
  152.3637  133.6324  159.6042 H   0  0  0  0  0  0  0  0  0  0  0  0  # atno 6908 bound_to 6896
  150.7622  133.9299  159.3465 H   0  0  0  0  0  0  0  0  0  0  0  0  # atno 6909 bound_to 6896
  145.8816  139.3447  143.0702 H   0  0  0  0  0  0  0  0  0  0  0  0  # atno 7974 bound_to 7965
  156.1073  140.1459  156.9387 H   0  0  0  0  0  0  0  0  0  0  0  0  # atno 8008 bound_to 7997
  154.4742  140.0900  156.7265 H   0  0  0  0  0  0  0  0  0  0  0  0  # atno 8009 bound_to 7997
  155.4658  140.3440  155.4321 H   0  0  0  0  0  0  0  0  0  0  0  0  # atno 8010 bound_to 7997
  140.6851  143.6655  150.8230 H   0  0  0  0  0  0  0  0  0  0  0  0  # atno 10167 bound_to 10162
  157.4456  130.8107  149.7737 H   0  0  0  0  0  0  0  0  0  0  0  0  # atno 10718 bound_to 10713
  153.7596  135.3198  155.3335 H   0  0  0  0  0  0  0  0  0  0  0  0  # atno 10763 bound_to 10752
  154.8235  135.4587  154.0851 H   0  0  0  0  0  0  0  0  0  0  0  0  # atno 10764 bound_to 10752
  153.2078  135.6931  153.8235 H   0  0  0  0  0  0  0  0  0  0  0  0  # atno 10765 bound_to 10752
  139.9088  134.8018  156.2080 H   0  0  0  0  0  0  0  0  0  0  0  0  # atno 11005 bound_to 11000
  145.9016  140.9239  143.0500 LP  0  0  0  0  0  0  0  0  0  0  0  0  # atno 17320 bound_to 7965
  144.6727  140.1040  143.7459 LP  0  0  0  0  0  0  0  0  0  0  0  0  # atno 17321 bound_to 7965
  140.0361  143.5394  152.2739 LP  0  0  0  0  0  0  0  0  0  0  0  0  # atno 17342 bound_to 10162
  139.6204  144.7628  151.2753 LP  0  0  0  0  0  0  0  0  0  0  0  0  # atno 17343 bound_to 10162
  155.9966  130.3905  150.2773 LP  0  0  0  0  0  0  0  0  0  0  0  0  # atno 17370 bound_to 10713
  157.0941  131.0178  151.3110 LP  0  0  0  0  0  0  0  0  0  0  0  0  # atno 17371 bound_to 10713
  141.0483  133.6902  156.1724 LP  0  0  0  0  0  0  0  0  0  0  0  0  # atno 17394 bound_to 11000
  140.6850  134.4727  157.5589 LP  0  0  0  0  0  0  0  0  0  0  0  0  # atno 17395 bound_to 11000

$$$$
