AV-unprocessed.smi:2083|AV-procd|sdf|8498|dock8
  -GOLD-   2272011203D 1   1.00000     0.00000
 Structure written by MMmdl.
 44 45  0  0  0  0  0  0  0  0  3 V2000
  151.7050  140.7029  156.4271 C   0  0  0  0  0  0  0  0  0  0  0  0
  151.9650  139.3290  155.9106 C   0  0  0  0  0  0  0  0  0  0  0  0
  151.1512  138.2575  155.6742 C   0  0  0  0  0  0  0  0  0  0  0  0
  152.0481  137.2704  155.1818 C   0  0  0  0  0  0  0  0  0  0  0  0
  151.7264  136.0189  154.8195 N   0  5  0  0  0  0  0  0  0  0  0  0
  150.7083  135.3712  155.4299 C   0  0  0  0  0  0  0  0  0  0  0  0
  150.6834  134.9768  156.5978 O   0  0  0  0  0  0  0  0  0  0  0  0
  149.6501  135.1672  154.6350 N   0  0  0  0  0  0  0  0  0  0  0  0
  148.4111  134.5080  155.0298 C   0  0  0  0  0  0  0  0  0  0  0  0
  148.0813  133.3026  154.1174 C   0  0  2  0  0  0  0  0  0  0  0  0
  149.3505  132.4462  153.8826 C   0  0  0  0  0  0  0  0  0  0  0  0
  147.4281  133.7867  152.8565 N   0  3  1  0  0  0  0  0  0  0  0  0
  146.9494  132.7299  151.9181 C   0  0  0  0  0  0  0  0  0  0  0  0
  146.4240  133.3358  150.6062 C   0  0  0  0  0  0  0  0  0  0  0  0
  145.3163  134.3598  150.8694 C   0  0  0  0  0  0  0  0  0  0  0  0
  145.8193  135.4346  151.8440 C   0  0  1  0  0  0  0  0  0  0  0  0
  144.7264  136.4697  152.1464 C   0  0  0  0  0  0  0  0  0  0  0  0
  146.3448  134.7740  153.1338 C   0  0  0  0  0  0  0  0  0  0  0  0
  153.2977  137.7000  155.1379 N   0  0  0  0  0  0  0  0  0  0  0  0
  153.2523  139.0214  155.5982 O   0  0  0  0  0  0  0  0  0  0  0  0
  151.2941  140.6639  157.4360 H   0  0  0  0  0  0  0  0  0  0  0  0
  150.9906  141.2249  155.7905 H   0  0  0  0  0  0  0  0  0  0  0  0
  152.6220  141.2919  156.4587 H   0  0  0  0  0  0  0  0  0  0  0  0
  150.0845  138.1903  155.8257 H   0  0  0  0  0  0  0  0  0  0  0  0
  149.7111  135.5059  153.6859 H   0  0  0  0  0  0  0  0  0  0  0  0
  148.5202  134.2080  156.0712 H   0  0  0  0  0  0  0  0  0  0  0  0
  147.5885  135.2247  154.9953 H   0  0  0  0  0  0  0  0  0  0  0  0
  147.3674  132.6601  154.6357 H   0  0  0  0  0  0  0  0  0  0  0  0
  149.8000  132.1248  154.8221 H   0  0  0  0  0  0  0  0  0  0  0  0
  150.1122  133.0018  153.3345 H   0  0  0  0  0  0  0  0  0  0  0  0
  149.1303  131.5304  153.3341 H   0  0  0  0  0  0  0  0  0  0  0  0
  147.7578  132.0513  151.6490 H   0  0  0  0  0  0  0  0  0  0  0  0
  146.1712  132.1356  152.4003 H   0  0  0  0  0  0  0  0  0  0  0  0
  147.2450  133.8145  150.0707 H   0  0  0  0  0  0  0  0  0  0  0  0
  146.0509  132.5451  149.9546 H   0  0  0  0  0  0  0  0  0  0  0  0
  145.0008  134.8152  149.9300 H   0  0  0  0  0  0  0  0  0  0  0  0
  144.4410  133.8576  151.2836 H   0  0  0  0  0  0  0  0  0  0  0  0
  146.6494  135.9622  151.3714 H   0  0  0  0  0  0  0  0  0  0  0  0
  143.8633  136.0079  152.6272 H   0  0  0  0  0  0  0  0  0  0  0  0
  144.3787  136.9520  151.2323 H   0  0  0  0  0  0  0  0  0  0  0  0
  145.0979  137.2513  152.8095 H   0  0  0  0  0  0  0  0  0  0  0  0
  145.5274  134.2733  153.6559 H   0  0  0  0  0  0  0  0  0  0  0  0
  146.7024  135.5556  153.8023 H   0  0  0  0  0  0  0  0  0  0  0  0
  148.1500  134.2826  152.3532 H   0  0  0  0  0  0  0  0  0  0  0  0
  1  2  1  0  0  0  0
  1 21  1  0  0  0  0
  1 22  1  0  0  0  0
  1 23  1  0  0  0  0
  2 20  1  0  0  0  0
  2  3  2  0  0  0  0
  3  4  1  0  0  0  0
  3 24  1  0  0  0  0
  4  5  1  0  0  0  0
  4 19  2  0  0  0  0
  5  6  1  0  0  0  0
  6  7  2  0  0  0  0
  6  8  1  0  0  0  0
  8  9  1  0  0  0  0
  8 25  1  0  0  0  0
  9 10  1  0  0  0  0
  9 26  1  0  0  0  0
  9 27  1  0  0  0  0
 10 11  1  0  0  0  0
 10 12  1  0  0  0  0
 10 28  1  0  0  0  0
 11 29  1  0  0  0  0
 11 30  1  0  0  0  0
 11 31  1  0  0  0  0
 12 18  1  0  0  0  0
 12 13  1  0  0  0  0
 12 44  1  0  0  0  0
 13 14  1  0  0  0  0
 13 32  1  0  0  0  0
 13 33  1  0  0  0  0
 14 15  1  0  0  0  0
 14 34  1  0  0  0  0
 14 35  1  0  0  0  0
 15 16  1  0  0  0  0
 15 36  1  0  0  0  0
 15 37  1  0  0  0  0
 16 17  1  0  0  0  0
 16 18  1  0  0  0  0
 16 38  1  0  0  0  0
 17 39  1  0  0  0  0
 17 40  1  0  0  0  0
 17 41  1  0  0  0  0
 18 42  1  0  0  0  0
 18 43  1  0  0  0  0
 19 20  1  0  0  0  0
M  CHG  1   5  -1
M  CHG  1  12   1
M  END
> <s_m_source_file>
AV-unprocessed.smi

> <i_m_source_file_index>
2083

> <i_lp_mmshare_version>
43012

> <i_f3d_flags>
0

> <s_epik_input>
W0NIM11jMVtjSF1jKG5vMSlbTkhdQyg9TylbTkhdW0NIMl1bQ0BIXShbQ0gzXSlOMltDSDJdW0NIMl1bQ0gyXVtDQEBIXShbQ0gzXSlbQ0gyXTI=

> <s_epik_cmdline>
J2VwaWtfcHl0aG9uJywgJy1waCcsICc3LjAnLCAnLXRuJywgJzgnLCAnLW1hJywgJzIwMCcsICctbWV0YWxfYmluZGluZycsICctaW1hZScsICc8aW5maWxlLm1hZT4nLCAnLW9tYWUnLCAnPG91dGZpbGUubWFlPic=

> <r_epik_Ionization_Penalty>
6.22434

> <r_epik_Ionization_Penalty_Charging>
6.22425

> <r_epik_Ionization_Penalty_Neutral>
9.62407e-05

> <r_epik_State_Penalty>
6.22423

> <r_epik_Charging_Adjusted_Penalty>
12.4485

> <i_epik_Tot_Q>
0

> <i_epik_Tot_abs_Q>
2

> <r_epik_Metal_State_Penalty>
2.16764

> <b_epik_Metal_Only>
1

> <s_lp_Force_Field>
OPLS_2005

> <r_lp_Energy>
12.4443

> <b_lp_Chiralities_Consistent>
1

> <s_lp_Variant>
AV-unprocessed.smi:2083-9

> <Gold.Version>
5.8.1

> <Gold.Id.Protein>
6NUR|6NUR_protein|mol2

> <Gold.PLP.Fitness>
51.9994

> <Gold.PLP.PLP>
-36.1049

> <Gold.PLP.part.hbond>
-5.0000

> <Gold.PLP.part.metal>
0.0000

> <Gold.PLP.part.buried>
-2.1549

> <Gold.PLP.part.nonpolar>
-26.6655

> <Gold.PLP.part.repulsive>
0.5481

> <Gold.PLP.ligand.clash>
0.0000

> <Gold.PLP.ligand.torsion>
1.0926

> <Gold.PLP.Chemscore.Hbond>
6.0000

> <Gold.PLP.Chemscore.CHOScore>
0.0000

> <Gold.PLP.Chemscore.Metal>
0.0000

> <Gold.Chemscore.Hbonds>
donor molecule, donor type, donor heavy atom, donor atom, acceptor molecule, acceptor atom, score
      L1  H     8    25       P1  7948  0.65
      L1  H    12    44       P1  7948  1.20
      P1  H  7997  8009       L1    20  1.00
      P1  H 10752 10764       L1     5  0.76

> <Gold.PLP.Chemscore.Internal.Correction>
0.0796

> <Gold.Rescore>
     Score         DG    S(hbond)    S(metal)    S(lipo)     H(rot)  DE(clash)    DE(int)     intcor
     16.65     -17.68       2.75        0.00      58.96       1.52       0.01       1.02       ----

> <Gold.Chemscore.Fitness>
16.6489

> <Gold.Chemscore.DG>
-17.6758

> <Gold.Chemscore.ZeroCoef>
-5.4800

> <Gold.Chemscore.Hbond>
2.7504

> <Gold.Chemscore.Metal>
0.0000

> <Gold.Chemscore.Lipo>
58.9583

> <Gold.Chemscore.Internal_Hbond>
0.0000

> <Gold.Chemscore.DEClash>
0.0073

> <Gold.Chemscore.DEInternal>
1.0195

> <Gold.Chemscore.Rot>
1.5190

> <Gold.Chemscore.Internal.Correction>
   9.000000E+99

> <Gold.Chemscore.Hbonds>
donor molecule, donor type, donor heavy atom, donor atom, acceptor molecule, acceptor atom, score
      L1  H     8    25       P1  7948  0.06
      L1  H    12    44       P1  7948  0.08
      P1  H  7997  8009       L1    20  0.83
      P1  H 10752 10764       L1     5  0.08

> <Gold.Chemscore.Hbond.Weighted>
-9.1863

> <Gold.Chemscore.Metal.Weighted>
-0.0000

> <Gold.Chemscore.Lipo.Weighted>
-6.8981

> <Gold.Chemscore.Internal_Hbond.Weighted>
0.0000

> <Gold.Chemscore.DEClash.Weighted>
0.0073

> <Gold.Chemscore.DEInternal.Weighted>
1.0195

> <Gold.Chemscore.Rot.Weighted>
3.8886

> <Gold.Chemscore.Internal.Correction.Weighted>
   9.000000E+99

> <Gold.Protein.RotatedTorsions>
[ 6907 6896 6895 6894 ] final  -90.67 input  -60.11 | X-H torsion
[ 7974 7965 7964 7962 ] final  -41.53 input  175.53 | X-H torsion
[ 8008 7997 7996 7995 ] final -157.07 input   59.86 | X-H torsion
[ 10167 10162 10161 10158 ] final -152.21 input  -65.29 | X-H torsion
[ 10718 10713 10712 10709 ] final  -28.74 input   66.30 | X-H torsion
[ 10763 10752 10751 10750 ] final  -57.27 input  -60.55 | X-H torsion
[ 11005 11000 10999 10996 ] final  -19.42 input  -57.11 | X-H torsion

> <Gold.Protein.ActiveResidues>
 VAL166  LYS551  ARG553  GLY616  TRP617  ASP618  TYR619  PRO620  LYS621  CYS622 
 ASP623  PHE694  ASN695  SER759  ASP760  ASP761  ALA762  ILE779  LEU786  VAL792 
 PHE793  MET794  SER795  GLU796  ALA797  LYS798  CYS799  TRP800  GLU811  SER814 

> <Gold.Protein.RotatedAtoms>
  150.6884  134.2395  159.4466 H   0  0  0  0  0  0  0  0  0  0  0  0  # atno 6907 bound_to 6896
  152.0340  134.9748  160.0582 H   0  0  0  0  0  0  0  0  0  0  0  0  # atno 6908 bound_to 6896
  152.1276  133.4354  159.4742 H   0  0  0  0  0  0  0  0  0  0  0  0  # atno 6909 bound_to 6896
  146.0202  140.6859  142.9182 H   0  0  0  0  0  0  0  0  0  0  0  0  # atno 7974 bound_to 7965
  155.7269  140.0797  157.2306 H   0  0  0  0  0  0  0  0  0  0  0  0  # atno 8008 bound_to 7997
  154.4038  140.1602  156.2519 H   0  0  0  0  0  0  0  0  0  0  0  0  # atno 8009 bound_to 7997
  155.9145  140.3402  155.6127 H   0  0  0  0  0  0  0  0  0  0  0  0  # atno 8010 bound_to 7997
  139.7201  143.8970  152.2500 H   0  0  0  0  0  0  0  0  0  0  0  0  # atno 10167 bound_to 10162
  156.4214  130.4427  149.7181 H   0  0  0  0  0  0  0  0  0  0  0  0  # atno 10718 bound_to 10713
  154.2198  135.6380  153.5141 H   0  0  0  0  0  0  0  0  0  0  0  0  # atno 10763 bound_to 10752
  152.9971  135.5494  154.6126 H   0  0  0  0  0  0  0  0  0  0  0  0  # atno 10764 bound_to 10752
  154.5583  135.2907  155.0917 H   0  0  0  0  0  0  0  0  0  0  0  0  # atno 10765 bound_to 10752
  140.8365  133.7958  155.9814 H   0  0  0  0  0  0  0  0  0  0  0  0  # atno 11005 bound_to 11000
  144.6987  140.3553  143.7174 LP  0  0  0  0  0  0  0  0  0  0  0  0  # atno 17320 bound_to 7965
  145.7204  139.1708  143.2487 LP  0  0  0  0  0  0  0  0  0  0  0  0  # atno 17321 bound_to 7965
  139.8864  144.6990  150.8820 LP  0  0  0  0  0  0  0  0  0  0  0  0  # atno 17342 bound_to 10162
  140.7752  143.3621  151.1809 LP  0  0  0  0  0  0  0  0  0  0  0  0  # atno 17343 bound_to 10162
  156.4120  130.7727  151.2740 LP  0  0  0  0  0  0  0  0  0  0  0  0  # atno 17370 bound_to 10713
  157.7508  131.0208  150.3725 LP  0  0  0  0  0  0  0  0  0  0  0  0  # atno 17371 bound_to 10713
  140.8942  134.2458  157.5078 LP  0  0  0  0  0  0  0  0  0  0  0  0  # atno 17394 bound_to 11000
  139.8704  134.9676  156.4602 LP  0  0  0  0  0  0  0  0  0  0  0  0  # atno 17395 bound_to 11000

$$$$
