AV-unprocessed.smi:3178|AV-procd|sdf|12130|dock9
  -GOLD-   2272017573D 1   1.00000     0.00000
 Structure written by MMmdl.
 35 35  0  0  0  0  0  0  0  0  1 V2000
  152.4244  144.4752  158.2865 C   0  0  0  0  0  0  0  0  0  0  0  0
  152.1573  143.1216  158.6312 O   0  0  0  0  0  0  0  0  0  0  0  0
  151.0251  142.4806  158.0327 C   0  0  0  0  0  0  0  0  0  0  0  0
  151.0445  140.9837  158.3996 C   0  0  0  0  0  0  0  0  0  0  0  0
  149.6912  143.1287  158.4736 C   0  0  0  0  0  0  0  0  0  0  0  0
  151.2297  142.6275  156.5049 C   0  0  0  0  0  0  0  0  0  0  0  0
  150.0299  142.2630  155.7581 N   0  0  0  0  0  0  0  0  0  0  0  0
  149.8865  141.1588  155.0086 C   0  0  0  0  0  0  0  0  0  0  0  0
  150.6905  140.2269  155.0058 O   0  0  0  0  0  0  0  0  0  0  0  0
  148.6679  141.1230  154.0861 C   0  0  0  0  0  0  0  0  0  0  0  0
  147.4906  141.7614  154.7785 C   0  0  0  0  0  0  0  0  0  0  0  0
  146.5103  142.6364  154.2214 C   0  0  0  0  0  0  0  0  0  0  0  0
  145.7014  142.9552  155.2747 C   0  0  0  0  0  0  0  0  0  0  0  0
  144.5045  143.8403  155.3606 C   0  0  0  0  0  0  0  0  0  0  0  0
  146.2036  142.2784  156.3621 N   0  0  0  0  0  0  0  0  0  0  0  0
  147.2946  141.5456  156.0719 N   0  0  0  0  0  0  0  0  0  0  0  0
  145.8178  142.3076  157.2952 H   0  0  0  0  0  0  0  0  0  0  0  0
  153.2543  144.8352  158.8940 H   0  0  0  0  0  0  0  0  0  0  0  0
  151.5737  145.1289  158.4747 H   0  0  0  0  0  0  0  0  0  0  0  0
  152.7254  144.5738  157.2436 H   0  0  0  0  0  0  0  0  0  0  0  0
  150.2661  140.4393  157.8639 H   0  0  0  0  0  0  0  0  0  0  0  0
  150.8744  140.8180  159.4630 H   0  0  0  0  0  0  0  0  0  0  0  0
  152.0012  140.5277  158.1426 H   0  0  0  0  0  0  0  0  0  0  0  0
  148.8549  142.7285  157.8998 H   0  0  0  0  0  0  0  0  0  0  0  0
  149.7003  144.2102  158.3338 H   0  0  0  0  0  0  0  0  0  0  0  0
  149.4745  142.9371  159.5246 H   0  0  0  0  0  0  0  0  0  0  0  0
  151.5480  143.6412  156.2551 H   0  0  0  0  0  0  0  0  0  0  0  0
  152.0328  141.9687  156.1732 H   0  0  0  0  0  0  0  0  0  0  0  0
  149.3053  142.9638  155.6998 H   0  0  0  0  0  0  0  0  0  0  0  0
  148.8940  141.6528  153.1600 H   0  0  0  0  0  0  0  0  0  0  0  0
  148.4563  140.0880  153.8130 H   0  0  0  0  0  0  0  0  0  0  0  0
  146.4274  142.9888  153.2038 H   0  0  0  0  0  0  0  0  0  0  0  0
  143.7437  143.5308  154.6440 H   0  0  0  0  0  0  0  0  0  0  0  0
  144.7747  144.8733  155.1413 H   0  0  0  0  0  0  0  0  0  0  0  0
  144.0611  143.8123  156.3562 H   0  0  0  0  0  0  0  0  0  0  0  0
  1  2  1  0  0  0  0
  1 18  1  0  0  0  0
  1 19  1  0  0  0  0
  1 20  1  0  0  0  0
  2  3  1  0  0  0  0
  3  4  1  0  0  0  0
  3  5  1  0  0  0  0
  3  6  1  0  0  0  0
  4 21  1  0  0  0  0
  4 22  1  0  0  0  0
  4 23  1  0  0  0  0
  5 24  1  0  0  0  0
  5 25  1  0  0  0  0
  5 26  1  0  0  0  0
  6  7  1  0  0  0  0
  6 27  1  0  0  0  0
  6 28  1  0  0  0  0
  7  8  1  0  0  0  0
  7 29  1  0  0  0  0
  8  9  2  0  0  0  0
  8 10  1  0  0  0  0
 10 11  1  0  0  0  0
 10 30  1  0  0  0  0
 10 31  1  0  0  0  0
 11 16  2  0  0  0  0
 11 12  1  0  0  0  0
 12 13  2  0  0  0  0
 12 32  1  0  0  0  0
 13 14  1  0  0  0  0
 13 15  1  0  0  0  0
 14 33  1  0  0  0  0
 14 34  1  0  0  0  0
 14 35  1  0  0  0  0
 15 17  1  0  0  0  0
 15 16  1  0  0  0  0
M  END
> <s_m_source_file>
AV-unprocessed.smi

> <i_m_source_file_index>
3178

> <i_lp_mmshare_version>
43012

> <i_f3d_flags>
0

> <s_epik_input>
W0NIM11PQyhbQ0gzXSkoW0NIM10pW0NIMl1bTkhdQyg9TylbQ0gyXWMxW2NIXWMoW0NIM10pW25IXW4x

> <s_epik_cmdline>
J2VwaWtfcHl0aG9uJywgJy1waCcsICc3LjAnLCAnLXRuJywgJzgnLCAnLW1hJywgJzIwMCcsICctbWV0YWxfYmluZGluZycsICctaW1hZScsICc8aW5maWxlLm1hZT4nLCAnLW9tYWUnLCAnPG91dGZpbGUubWFlPic=

> <r_lp_tautomer_probability>
0.5

> <r_epik_Ionization_Penalty>
8.10473e-05

> <r_epik_Ionization_Penalty_Charging>
0

> <r_epik_Ionization_Penalty_Neutral>
8.10473e-05

> <r_epik_State_Penalty>
0.41068

> <r_epik_Charging_Adjusted_Penalty>
0.41068

> <i_epik_Tot_Q>
0

> <i_epik_Tot_abs_Q>
0

> <r_epik_Metal_State_Penalty>
0.410702

> <b_epik_Metal_Only>
0

> <s_lp_Force_Field>
OPLS_2005

> <r_lp_Energy>
5.73531

> <b_lp_Chiralities_Consistent>
1

> <s_lp_Variant>
AV-unprocessed.smi:3178-1

> <Gold.Version>
5.8.1

> <Gold.Id.Protein>
6NUR|6NUR_protein|mol2

> <Gold.PLP.Fitness>
34.6982

> <Gold.PLP.PLP>
-31.2391

> <Gold.PLP.part.hbond>
-2.0000

> <Gold.PLP.part.metal>
0.0000

> <Gold.PLP.part.buried>
-4.1098

> <Gold.PLP.part.nonpolar>
-24.7691

> <Gold.PLP.part.repulsive>
0.3236

> <Gold.PLP.ligand.clash>
0.0000

> <Gold.PLP.ligand.torsion>
0.8217

> <Gold.PLP.Chemscore.Hbond>
1.6920

> <Gold.PLP.Chemscore.CHOScore>
0.0000

> <Gold.PLP.Chemscore.Metal>
0.0000

> <Gold.Chemscore.Hbonds>
donor molecule, donor type, donor heavy atom, donor atom, acceptor molecule, acceptor atom, score
      L1  H     7    29       P1  8028  0.96
      P1  H  7989  7998       L1     9  0.70

> <Gold.PLP.Chemscore.Internal.Correction>
0.0265

> <Gold.Rescore>
     Score         DG    S(hbond)    S(metal)    S(lipo)     H(rot)  DE(clash)    DE(int)     intcor
     10.63     -12.52       0.99        0.00      73.37       1.89       0.10       1.80       ----

> <Gold.Chemscore.Fitness>
10.6263

> <Gold.Chemscore.DG>
-12.5227

> <Gold.Chemscore.ZeroCoef>
-5.4800

> <Gold.Chemscore.Hbond>
0.9852

> <Gold.Chemscore.Metal>
0.0000

> <Gold.Chemscore.Lipo>
73.3728

> <Gold.Chemscore.Internal_Hbond>
0.0000

> <Gold.Chemscore.DEClash>
0.0969

> <Gold.Chemscore.DEInternal>
1.7995

> <Gold.Chemscore.Rot>
1.8877

> <Gold.Chemscore.Internal.Correction>
   9.000000E+99

> <Gold.Chemscore.Hbonds>
donor molecule, donor type, donor heavy atom, donor atom, acceptor molecule, acceptor atom, score
      L1  H     7    29       P1  8028  0.92
      P1  H  7989  7998       L1     9  0.07

> <Gold.Chemscore.Hbond.Weighted>
-3.2906

> <Gold.Chemscore.Metal.Weighted>
-0.0000

> <Gold.Chemscore.Lipo.Weighted>
-8.5846

> <Gold.Chemscore.Internal_Hbond.Weighted>
0.0000

> <Gold.Chemscore.DEClash.Weighted>
0.0969

> <Gold.Chemscore.DEInternal.Weighted>
1.7995

> <Gold.Chemscore.Rot.Weighted>
4.8325

> <Gold.Chemscore.Internal.Correction.Weighted>
   9.000000E+99

> <Gold.Protein.RotatedTorsions>
[ 6907 6896 6895 6894 ] final -158.77 input  -60.11 | X-H torsion
[ 7974 7965 7964 7962 ] final   82.59 input  175.53 | X-H torsion
[ 8008 7997 7996 7995 ] final -150.56 input   59.86 | X-H torsion
[ 10167 10162 10161 10158 ] final  -32.85 input  -65.29 | X-H torsion
[ 10718 10713 10712 10709 ] final   62.41 input   66.30 | X-H torsion
[ 10763 10752 10751 10750 ] final  111.49 input  -60.55 | X-H torsion
[ 11005 11000 10999 10996 ] final  -85.65 input  -57.11 | X-H torsion

> <Gold.Protein.ActiveResidues>
 VAL166  LYS551  ARG553  GLY616  TRP617  ASP618  TYR619  PRO620  LYS621  CYS622 
 ASP623  PHE694  ASN695  SER759  ASP760  ASP761  ALA762  ILE779  LEU786  VAL792 
 PHE793  MET794  SER795  GLU796  ALA797  LYS798  CYS799  TRP800  GLU811  SER814 

> <Gold.Protein.RotatedAtoms>
  151.3233  133.4031  159.2656 H   0  0  0  0  0  0  0  0  0  0  0  0  # atno 6907 bound_to 6896
  151.0016  134.9327  159.7967 H   0  0  0  0  0  0  0  0  0  0  0  0  # atno 6908 bound_to 6896
  152.5276  134.3198  159.9196 H   0  0  0  0  0  0  0  0  0  0  0  0  # atno 6909 bound_to 6896
  145.6231  139.2389  143.2127 H   0  0  0  0  0  0  0  0  0  0  0  0  # atno 7974 bound_to 7965
  155.6255  140.0686  157.2665 H   0  0  0  0  0  0  0  0  0  0  0  0  # atno 8008 bound_to 7997
  154.4218  140.1777  156.1466 H   0  0  0  0  0  0  0  0  0  0  0  0  # atno 8009 bound_to 7997
  155.9975  140.3339  155.6816 H   0  0  0  0  0  0  0  0  0  0  0  0  # atno 8010 bound_to 7997
  140.7214  143.3663  151.1864 H   0  0  0  0  0  0  0  0  0  0  0  0  # atno 10167 bound_to 10162
  157.5899  130.9049  149.9585 H   0  0  0  0  0  0  0  0  0  0  0  0  # atno 10718 bound_to 10713
  153.4640  135.3715  155.2354 H   0  0  0  0  0  0  0  0  0  0  0  0  # atno 10763 bound_to 10752
  154.8757  135.3915  154.3890 H   0  0  0  0  0  0  0  0  0  0  0  0  # atno 10764 bound_to 10752
  153.4468  135.7085  153.6198 H   0  0  0  0  0  0  0  0  0  0  0  0  # atno 10765 bound_to 10752
  141.1639  133.7411  156.9046 H   0  0  0  0  0  0  0  0  0  0  0  0  # atno 11005 bound_to 11000
  146.1416  140.7050  142.9364 LP  0  0  0  0  0  0  0  0  0  0  0  0  # atno 17320 bound_to 7965
  144.7223  140.4414  143.6999 LP  0  0  0  0  0  0  0  0  0  0  0  0  # atno 17321 bound_to 7965
  139.7226  143.9199  152.2991 LP  0  0  0  0  0  0  0  0  0  0  0  0  # atno 17342 bound_to 10162
  139.8961  144.6938  150.8716 LP  0  0  0  0  0  0  0  0  0  0  0  0  # atno 17343 bound_to 10162
  156.0952  130.3660  150.0319 LP  0  0  0  0  0  0  0  0  0  0  0  0  # atno 17370 bound_to 10713
  156.8444  130.9437  151.3630 LP  0  0  0  0  0  0  0  0  0  0  0  0  # atno 17371 bound_to 10713
  140.1559  134.9199  157.2652 LP  0  0  0  0  0  0  0  0  0  0  0  0  # atno 17394 bound_to 11000
  140.2668  134.3507  155.7387 LP  0  0  0  0  0  0  0  0  0  0  0  0  # atno 17395 bound_to 11000

$$$$
