AV-unprocessed.smi:2895|AV-procd|sdf|11129|dock2
  -GOLD-   2272016 03D 1   1.00000     0.00000
 Structure written by MMmdl.
 53 56  0  0  0  0  0  0  0  0  2 V2000
  150.2120  137.3347  156.3340 O   0  0  0  0  0  0  0  0  0  0  0  0
  149.7954  138.1214  157.1860 C   0  0  0  0  0  0  0  0  0  0  0  0
  149.2725  137.6924  158.3488 N   0  0  0  0  0  0  0  0  0  0  0  0
  149.1289  136.2964  158.7456 C   0  0  0  0  0  0  0  0  0  0  0  0
  147.6805  135.9692  159.1406 C   0  0  0  0  0  0  0  0  0  0  0  0
  147.5697  135.5298  160.5874 C   0  0  0  0  0  0  0  0  0  0  0  0
  147.3068  134.1836  160.9137 C   0  0  0  0  0  0  0  0  0  0  0  0
  147.2168  133.8281  162.2746 C   0  0  0  0  0  0  0  0  0  0  0  0
  147.3713  134.7117  163.2843 N   0  0  0  0  0  0  0  0  0  0  0  0
  147.6249  135.9987  162.9636 C   0  0  0  0  0  0  0  0  0  0  0  0
  147.7338  136.4585  161.6357 C   0  0  0  0  0  0  0  0  0  0  0  0
  149.8485  139.4732  157.0408 N   0  0  0  0  0  0  0  0  0  0  0  0
  149.1877  140.4127  157.9773 C   0  0  0  0  0  0  0  0  0  0  0  0
  148.9123  141.8083  157.3920 C   0  0  0  0  0  0  0  0  0  0  0  0
  150.0887  142.3667  156.6872 N   0  3  0  0  0  0  0  0  0  0  0  0
  151.2609  142.7070  157.5545 C   0  0  1  0  0  0  0  0  0  0  0  0
  151.7895  144.1430  157.2954 C   0  0  0  0  0  0  0  0  0  0  0  0
  151.8012  144.7827  158.6934 C   0  0  2  0  0  0  0  0  0  0  0  0
  152.8900  144.1244  159.5580 C   0  0  0  0  0  0  0  0  0  0  0  0
  152.2915  142.7372  159.8492 C   0  0  0  0  0  0  0  0  0  0  0  0
  150.9572  142.7683  159.0778 C   0  0  1  0  0  0  0  0  0  0  0  0
  150.5222  144.2138  159.2910 C   0  0  0  0  0  0  0  0  0  0  0  0
  150.4210  141.4695  155.5555 C   0  0  0  0  0  0  0  0  0  0  0  0
  150.7502  140.0348  156.0116 C   0  0  0  0  0  0  0  0  0  0  0  0
  148.9571  138.3863  159.0108 H   0  0  0  0  0  0  0  0  0  0  0  0
  149.4649  135.6383  157.9421 H   0  0  0  0  0  0  0  0  0  0  0  0
  149.7943  136.1169  159.5905 H   0  0  0  0  0  0  0  0  0  0  0  0
  147.0438  136.8415  158.9870 H   0  0  0  0  0  0  0  0  0  0  0  0
  147.2819  135.1813  158.4999 H   0  0  0  0  0  0  0  0  0  0  0  0
  147.1775  133.4385  160.1425 H   0  0  0  0  0  0  0  0  0  0  0  0
  147.0155  132.8061  162.5598 H   0  0  0  0  0  0  0  0  0  0  0  0
  147.7452  136.6835  163.7901 H   0  0  0  0  0  0  0  0  0  0  0  0
  147.9398  137.4987  161.4306 H   0  0  0  0  0  0  0  0  0  0  0  0
  148.2278  140.0265  158.3231 H   0  0  0  0  0  0  0  0  0  0  0  0
  149.8179  140.5046  158.8629 H   0  0  0  0  0  0  0  0  0  0  0  0
  148.0968  141.7294  156.6715 H   0  0  0  0  0  0  0  0  0  0  0  0
  148.5327  142.4809  158.1578 H   0  0  0  0  0  0  0  0  0  0  0  0
  152.0532  141.9796  157.3745 H   0  0  0  0  0  0  0  0  0  0  0  0
  152.7749  144.1449  156.8276 H   0  0  0  0  0  0  0  0  0  0  0  0
  151.1188  144.7163  156.6543 H   0  0  0  0  0  0  0  0  0  0  0  0
  151.8561  145.8715  158.6745 H   0  0  0  0  0  0  0  0  0  0  0  0
  153.8490  144.0656  159.0416 H   0  0  0  0  0  0  0  0  0  0  0  0
  153.0411  144.6792  160.4850 H   0  0  0  0  0  0  0  0  0  0  0  0
  152.9442  141.9243  159.5286 H   0  0  0  0  0  0  0  0  0  0  0  0
  152.1150  142.6163  160.9188 H   0  0  0  0  0  0  0  0  0  0  0  0
  150.2624  142.0243  159.4604 H   0  0  0  0  0  0  0  0  0  0  0  0
  150.3833  144.4739  160.3418 H   0  0  0  0  0  0  0  0  0  0  0  0
  149.6238  144.4836  158.7334 H   0  0  0  0  0  0  0  0  0  0  0  0
  149.5610  141.4388  154.8848 H   0  0  0  0  0  0  0  0  0  0  0  0
  151.2387  141.8660  154.9548 H   0  0  0  0  0  0  0  0  0  0  0  0
  151.7641  140.0079  156.4133 H   0  0  0  0  0  0  0  0  0  0  0  0
  150.7672  139.4087  155.1177 H   0  0  0  0  0  0  0  0  0  0  0  0
  149.7865  143.2408  156.2812 H   0  0  0  0  0  0  0  0  0  0  0  0
  1  2  2  0  0  0  0
  2  3  1  0  0  0  0
  2 12  1  0  0  0  0
  3  4  1  0  0  0  0
  3 25  1  0  0  0  0
  4  5  1  0  0  0  0
  4 26  1  0  0  0  0
  4 27  1  0  0  0  0
  5  6  1  0  0  0  0
  5 28  1  0  0  0  0
  5 29  1  0  0  0  0
  6 11  1  0  0  0  0
  6  7  2  0  0  0  0
  7  8  1  0  0  0  0
  7 30  1  0  0  0  0
  8  9  2  0  0  0  0
  8 31  1  0  0  0  0
  9 10  1  0  0  0  0
 10 11  2  0  0  0  0
 10 32  1  0  0  0  0
 11 33  1  0  0  0  0
 12 24  1  0  0  0  0
 12 13  1  0  0  0  0
 13 14  1  0  0  0  0
 13 34  1  0  0  0  0
 13 35  1  0  0  0  0
 14 15  1  0  0  0  0
 14 36  1  0  0  0  0
 14 37  1  0  0  0  0
 15 16  1  0  0  0  0
 15 23  1  0  0  0  0
 15 53  1  0  0  0  0
 16 21  1  0  0  0  0
 16 17  1  0  0  0  0
 16 38  1  0  0  0  0
 17 18  1  0  0  0  0
 17 39  1  0  0  0  0
 17 40  1  0  0  0  0
 18 22  1  0  0  0  0
 18 19  1  0  0  0  0
 18 41  1  0  0  0  0
 19 20  1  0  0  0  0
 19 42  1  0  0  0  0
 19 43  1  0  0  0  0
 20 21  1  0  0  0  0
 20 44  1  0  0  0  0
 20 45  1  0  0  0  0
 21 22  1  0  0  0  0
 21 46  1  0  0  0  0
 22 47  1  0  0  0  0
 22 48  1  0  0  0  0
 23 24  1  0  0  0  0
 23 49  1  0  0  0  0
 23 50  1  0  0  0  0
 24 51  1  0  0  0  0
 24 52  1  0  0  0  0
M  CHG  1  15   1
M  END
> <s_m_source_file>
AV-unprocessed.smi

> <i_m_source_file_index>
2895

> <i_lp_mmshare_version>
43012

> <i_f3d_flags>
0

> <s_epik_input>
W0NIMl0xW0NIMl1bQ0BASF0oW0NIMl0yKVtDQEBIXShbQ0gyXVtDQEhdMTIpTihbQ0gyXVtDSDJdMylbQ0gyXVtDSDJdTjNDKD1PKVtOSF1bQ0gyXVtDSDJdYzRbY0hdW2NIXW5bY0hdW2NIXTQ=

> <s_epik_cmdline>
J2VwaWtfcHl0aG9uJywgJy1waCcsICc3LjAnLCAnLXRuJywgJzgnLCAnLW1hJywgJzIwMCcsICctbWV0YWxfYmluZGluZycsICctaW1hZScsICc8aW5maWxlLm1hZT4nLCAnLW9tYWUnLCAnPG91dGZpbGUubWFlPic=

> <r_epik_Ionization_Penalty>
0.0566172

> <r_epik_Ionization_Penalty_Charging>
0.00262064

> <r_epik_Ionization_Penalty_Neutral>
0.0539965

> <r_epik_State_Penalty>
0.0463959

> <r_epik_Charging_Adjusted_Penalty>
0.0490165

> <i_epik_Tot_Q>
1

> <i_epik_Tot_abs_Q>
1

> <r_epik_Metal_State_Penalty>
0.0424856

> <b_epik_Metal_Only>
0

> <s_lp_Force_Field>
OPLS_2005

> <r_lp_Energy>
101.263

> <b_lp_Chiralities_Consistent>
1

> <s_lp_Variant>
AV-unprocessed.smi:2895-2

> <Gold.Version>
5.8.1

> <Gold.Id.Protein>
6NUR|6NUR_protein|mol2

> <Gold.PLP.Fitness>
51.5938

> <Gold.PLP.PLP>
-49.2284

> <Gold.PLP.part.hbond>
-2.4408

> <Gold.PLP.part.metal>
0.0000

> <Gold.PLP.part.buried>
-5.8619

> <Gold.PLP.part.nonpolar>
-40.0786

> <Gold.PLP.part.repulsive>
0.2219

> <Gold.PLP.ligand.clash>
0.1145

> <Gold.PLP.ligand.torsion>
1.8570

> <Gold.PLP.Chemscore.Hbond>
2.0000

> <Gold.PLP.Chemscore.CHOScore>
0.0000

> <Gold.PLP.Chemscore.Metal>
0.0000

> <Gold.Chemscore.Hbonds>
donor molecule, donor type, donor heavy atom, donor atom, acceptor molecule, acceptor atom, score
      L1  H    15    53       P1  8028  2.00

> <Gold.PLP.Chemscore.Internal.Correction>
0.1939

> <Gold.Rescore>
     Score         DG    S(hbond)    S(metal)    S(lipo)     H(rot)  DE(clash)    DE(int)     intcor
     20.01     -22.06       1.00        0.00     143.26       1.37       0.19       1.85       ----

> <Gold.Chemscore.Fitness>
20.0125

> <Gold.Chemscore.DG>
-22.0554

> <Gold.Chemscore.ZeroCoef>
-5.4800

> <Gold.Chemscore.Hbond>
0.9967

> <Gold.Chemscore.Metal>
0.0000

> <Gold.Chemscore.Lipo>
143.2624

> <Gold.Chemscore.Internal_Hbond>
0.0000

> <Gold.Chemscore.DEClash>
0.1887

> <Gold.Chemscore.DEInternal>
1.8542

> <Gold.Chemscore.Rot>
1.3731

> <Gold.Chemscore.Internal.Correction>
   9.000000E+99

> <Gold.Chemscore.Hbonds>
donor molecule, donor type, donor heavy atom, donor atom, acceptor molecule, acceptor atom, score
      L1  H    15    53       P1  8028  1.00

> <Gold.Chemscore.Hbond.Weighted>
-3.3288

> <Gold.Chemscore.Metal.Weighted>
-0.0000

> <Gold.Chemscore.Lipo.Weighted>
-16.7617

> <Gold.Chemscore.Internal_Hbond.Weighted>
0.0000

> <Gold.Chemscore.DEClash.Weighted>
0.1887

> <Gold.Chemscore.DEInternal.Weighted>
1.8542

> <Gold.Chemscore.Rot.Weighted>
3.5152

> <Gold.Chemscore.Internal.Correction.Weighted>
   9.000000E+99

> <Gold.Protein.RotatedTorsions>
[ 6907 6896 6895 6894 ] final   29.53 input  -60.11 | X-H torsion
[ 7974 7965 7964 7962 ] final -124.47 input  175.53 | X-H torsion
[ 8008 7997 7996 7995 ] final   79.54 input   59.86 | X-H torsion
[ 10167 10162 10161 10158 ] final   -9.91 input  -65.29 | X-H torsion
[ 10718 10713 10712 10709 ] final  -15.65 input   66.30 | X-H torsion
[ 10763 10752 10751 10750 ] final   28.18 input  -60.55 | X-H torsion
[ 11005 11000 10999 10996 ] final    0.84 input  -57.11 | X-H torsion

> <Gold.Protein.ActiveResidues>
 VAL166  LYS551  ARG553  GLY616  TRP617  ASP618  TYR619  PRO620  LYS621  CYS622 
 ASP623  PHE694  ASN695  SER759  ASP760  ASP761  ALA762  ILE779  LEU786  VAL792 
 PHE793  MET794  SER795  GLU796  ALA797  LYS798  CYS799  TRP800  GLU811  SER814 

> <Gold.Protein.RotatedAtoms>
  152.0329  134.9757  160.0572 H   0  0  0  0  0  0  0  0  0  0  0  0  # atno 6907 bound_to 6896
  152.1226  133.4357  159.4691 H   0  0  0  0  0  0  0  0  0  0  0  0  # atno 6908 bound_to 6896
  150.6850  134.2435  159.4525 H   0  0  0  0  0  0  0  0  0  0  0  0  # atno 6909 bound_to 6896
  145.0077  140.7878  143.4457 H   0  0  0  0  0  0  0  0  0  0  0  0  # atno 7974 bound_to 7965
  155.8711  140.3449  155.5822 H   0  0  0  0  0  0  0  0  0  0  0  0  # atno 8008 bound_to 7997
  155.7826  140.0860  157.2070 H   0  0  0  0  0  0  0  0  0  0  0  0  # atno 8009 bound_to 7997
  154.4017  140.1498  156.3057 H   0  0  0  0  0  0  0  0  0  0  0  0  # atno 8010 bound_to 7997
  140.7100  143.5806  150.8996 H   0  0  0  0  0  0  0  0  0  0  0  0  # atno 10167 bound_to 10162
  156.5987  130.4818  149.6249 H   0  0  0  0  0  0  0  0  0  0  0  0  # atno 10718 bound_to 10713
  153.0508  135.6519  154.0699 H   0  0  0  0  0  0  0  0  0  0  0  0  # atno 10763 bound_to 10752
  154.0388  135.2905  155.3359 H   0  0  0  0  0  0  0  0  0  0  0  0  # atno 10764 bound_to 10752
  154.6795  135.5325  153.8310 H   0  0  0  0  0  0  0  0  0  0  0  0  # atno 10765 bound_to 10752
  140.6220  133.9652  155.8230 H   0  0  0  0  0  0  0  0  0  0  0  0  # atno 11005 bound_to 11000
  145.2066  139.2225  143.5165 LP  0  0  0  0  0  0  0  0  0  0  0  0  # atno 17320 bound_to 7965
  146.3464  140.1895  142.8589 LP  0  0  0  0  0  0  0  0  0  0  0  0  # atno 17321 bound_to 7965
  139.9532  143.6248  152.3023 LP  0  0  0  0  0  0  0  0  0  0  0  0  # atno 17342 bound_to 10162
  139.6774  144.7658  151.1671 LP  0  0  0  0  0  0  0  0  0  0  0  0  # atno 17343 bound_to 10162
  156.2487  130.6894  151.1625 LP  0  0  0  0  0  0  0  0  0  0  0  0  # atno 17370 bound_to 10713
  157.7285  131.0631  150.5817 LP  0  0  0  0  0  0  0  0  0  0  0  0  # atno 17371 bound_to 10713
  141.0735  134.0169  157.3491 LP  0  0  0  0  0  0  0  0  0  0  0  0  # atno 17394 bound_to 11000
  139.9149  135.0195  156.7842 LP  0  0  0  0  0  0  0  0  0  0  0  0  # atno 17395 bound_to 11000

$$$$
