AV-unprocessed.smi:2124|AV-procd|sdf|8650|dock6
  -GOLD-   2272011393D 1   1.00000     0.00000
 Structure written by MMmdl.
 47 49  0  0  0  0  0  0  0  0  1 V2000
  145.7325  137.1159  153.2941 C   0  0  0  0  0  0  0  0  0  0  0  0
  146.5806  138.3169  153.6557 C   0  0  0  0  0  0  0  0  0  0  0  0
  146.0954  139.4605  154.0116 N   0  0  0  0  0  0  0  0  0  0  0  0
  146.9814  140.5003  154.3259 C   0  0  0  0  0  0  0  0  0  0  0  0
  146.3329  141.8106  154.7376 C   0  0  0  0  0  0  0  0  0  0  0  0
  148.3351  140.3313  154.2634 C   0  0  0  0  0  0  0  0  0  0  0  0
  149.3257  141.4437  154.6027 C   0  0  0  0  0  0  0  0  0  0  0  0
  150.4118  141.0686  155.6130 C   0  0  0  0  0  0  0  0  0  0  0  0
  151.3171  140.3017  155.2866 O   0  0  0  0  0  0  0  0  0  0  0  0
  150.3109  141.6217  156.8317 N   0  0  0  0  0  0  0  0  0  0  0  0
  151.2402  141.4218  157.9416 C   0  0  2  0  0  0  0  0  0  0  0  0
  151.1003  139.9851  158.4717 C   0  0  0  0  0  0  0  0  0  0  0  0
  150.9663  142.4856  159.0311 C   0  0  2  0  0  0  0  0  0  0  0  0
  150.4568  143.8437  158.4952 C   0  0  0  0  0  0  0  0  0  0  0  0
  151.3631  144.8624  159.2110 C   0  0  2  0  0  0  0  0  0  0  0  0
  152.7627  144.8237  158.5711 C   0  0  0  0  0  0  0  0  0  0  0  0
  153.3275  143.4842  159.0777 C   0  0  0  0  0  0  0  0  0  0  0  0
  152.1636  142.9151  159.9156 C   0  0  1  0  0  0  0  0  0  0  0  0
  151.6131  144.1867  160.5543 C   0  0  0  0  0  0  0  0  0  0  0  0
  148.8779  139.0213  153.8530 C   0  0  0  0  0  0  0  0  0  0  0  0
  150.0763  138.7613  153.7573 O   0  0  0  0  0  0  0  0  0  0  0  0
  147.9512  138.0783  153.5712 N   0  0  0  0  0  0  0  0  0  0  0  0
  148.2728  137.1650  153.2856 H   0  0  0  0  0  0  0  0  0  0  0  0
  145.0999  137.3476  152.4371 H   0  0  0  0  0  0  0  0  0  0  0  0
  145.0893  136.8454  154.1319 H   0  0  0  0  0  0  0  0  0  0  0  0
  146.3463  136.2498  153.0420 H   0  0  0  0  0  0  0  0  0  0  0  0
  146.6133  142.0757  155.7570 H   0  0  0  0  0  0  0  0  0  0  0  0
  145.2450  141.7439  154.6974 H   0  0  0  0  0  0  0  0  0  0  0  0
  146.6395  142.6159  154.0714 H   0  0  0  0  0  0  0  0  0  0  0  0
  149.7940  141.7849  153.6788 H   0  0  0  0  0  0  0  0  0  0  0  0
  148.8012  142.3212  154.9822 H   0  0  0  0  0  0  0  0  0  0  0  0
  149.5308  142.2394  157.0031 H   0  0  0  0  0  0  0  0  0  0  0  0
  152.2562  141.5555  157.5688 H   0  0  0  0  0  0  0  0  0  0  0  0
  151.8145  139.7848  159.2702 H   0  0  0  0  0  0  0  0  0  0  0  0
  151.2858  139.2550  157.6832 H   0  0  0  0  0  0  0  0  0  0  0  0
  150.1000  139.8028  158.8656 H   0  0  0  0  0  0  0  0  0  0  0  0
  150.2023  142.0819  159.6985 H   0  0  0  0  0  0  0  0  0  0  0  0
  150.5376  143.9312  157.4109 H   0  0  0  0  0  0  0  0  0  0  0  0
  149.4095  143.9918  158.7612 H   0  0  0  0  0  0  0  0  0  0  0  0
  150.9360  145.8640  159.2685 H   0  0  0  0  0  0  0  0  0  0  0  0
  152.7223  144.8737  157.4824 H   0  0  0  0  0  0  0  0  0  0  0  0
  153.3755  145.6550  158.9219 H   0  0  0  0  0  0  0  0  0  0  0  0
  153.6459  142.8261  158.2706 H   0  0  0  0  0  0  0  0  0  0  0  0
  154.1981  143.6601  159.7107 H   0  0  0  0  0  0  0  0  0  0  0  0
  152.4739  142.1530  160.6312 H   0  0  0  0  0  0  0  0  0  0  0  0
  152.3417  144.7123  161.1741 H   0  0  0  0  0  0  0  0  0  0  0  0
  150.7021  144.0250  161.1335 H   0  0  0  0  0  0  0  0  0  0  0  0
  1  2  1  0  0  0  0
  1 24  1  0  0  0  0
  1 25  1  0  0  0  0
  1 26  1  0  0  0  0
  2 22  1  0  0  0  0
  2  3  2  0  0  0  0
  3  4  1  0  0  0  0
  4  5  1  0  0  0  0
  4  6  2  0  0  0  0
  5 27  1  0  0  0  0
  5 28  1  0  0  0  0
  5 29  1  0  0  0  0
  6  7  1  0  0  0  0
  6 20  1  0  0  0  0
  7  8  1  0  0  0  0
  7 30  1  0  0  0  0
  7 31  1  0  0  0  0
  8  9  2  0  0  0  0
  8 10  1  0  0  0  0
 10 11  1  0  0  0  0
 10 32  1  0  0  0  0
 11 12  1  0  0  0  0
 11 13  1  0  0  0  0
 11 33  1  0  0  0  0
 12 34  1  0  0  0  0
 12 35  1  0  0  0  0
 12 36  1  0  0  0  0
 13 18  1  0  0  0  0
 13 14  1  0  0  0  0
 13 37  1  0  0  0  0
 14 15  1  0  0  0  0
 14 38  1  0  0  0  0
 14 39  1  0  0  0  0
 15 19  1  0  0  0  0
 15 16  1  0  0  0  0
 15 40  1  0  0  0  0
 16 17  1  0  0  0  0
 16 41  1  0  0  0  0
 16 42  1  0  0  0  0
 17 18  1  0  0  0  0
 17 43  1  0  0  0  0
 17 44  1  0  0  0  0
 18 19  1  0  0  0  0
 18 45  1  0  0  0  0
 19 46  1  0  0  0  0
 19 47  1  0  0  0  0
 20 21  2  0  0  0  0
 20 22  1  0  0  0  0
 22 23  1  0  0  0  0
M  END
> <s_m_source_file>
AV-unprocessed.smi

> <i_m_source_file_index>
2124

> <i_lp_mmshare_version>
43012

> <i_f3d_flags>
0

> <s_epik_input>
W0NIM11jMW5jKFtDSDNdKWMoYyg9TylbbkhdMSlbQ0gyXUMoPU8pW05IXVtDQEhdKFtDSDNdKVtDQEhdKFtDSDJdW0NASF0yMylbQ0BIXShbQ0gyXTMpW0NIMl1bQ0gyXTI=

> <s_epik_cmdline>
J2VwaWtfcHl0aG9uJywgJy1waCcsICc3LjAnLCAnLXRuJywgJzgnLCAnLW1hJywgJzIwMCcsICctbWV0YWxfYmluZGluZycsICctaW1hZScsICc8aW5maWxlLm1hZT4nLCAnLW9tYWUnLCAnPG91dGZpbGUubWFlPic=

> <r_lp_tautomer_probability>
0.839158

> <r_epik_Ionization_Penalty>
0.000383628

> <r_epik_Ionization_Penalty_Charging>
0.00035045

> <r_epik_Ionization_Penalty_Neutral>
3.31781e-05

> <r_epik_State_Penalty>
0.09125

> <r_epik_Charging_Adjusted_Penalty>
0.0916005

> <i_epik_Tot_Q>
0

> <i_epik_Tot_abs_Q>
0

> <r_epik_Metal_State_Penalty>
0.255229

> <b_epik_Metal_Only>
0

> <s_lp_Force_Field>
OPLS_2005

> <r_lp_Energy>
53.1602

> <b_lp_Chiralities_Consistent>
1

> <s_lp_Variant>
AV-unprocessed.smi:2124-1

> <Gold.Version>
5.8.1

> <Gold.Id.Protein>
6NUR|6NUR_protein|mol2

> <Gold.PLP.Fitness>
45.2258

> <Gold.PLP.PLP>
-41.8600

> <Gold.PLP.part.hbond>
-2.0000

> <Gold.PLP.part.metal>
0.0000

> <Gold.PLP.part.buried>
-5.4603

> <Gold.PLP.part.nonpolar>
-35.2701

> <Gold.PLP.part.repulsive>
1.8398

> <Gold.PLP.ligand.clash>
0.0000

> <Gold.PLP.ligand.torsion>
0.9747

> <Gold.PLP.Chemscore.Hbond>
1.7680

> <Gold.PLP.Chemscore.CHOScore>
0.0000

> <Gold.PLP.Chemscore.Metal>
0.0000

> <Gold.Chemscore.Hbonds>
donor molecule, donor type, donor heavy atom, donor atom, acceptor molecule, acceptor atom, score
      L1  H    22    23       P1  7948  0.85
      P1  H  7989  7998       L1     9  0.99

> <Gold.PLP.Chemscore.Internal.Correction>
0.0112

> <Gold.Rescore>
     Score         DG    S(hbond)    S(metal)    S(lipo)     H(rot)  DE(clash)    DE(int)     intcor
     15.08     -19.07       1.34        0.00     114.06       1.65       0.21       3.78       ----

> <Gold.Chemscore.Fitness>
15.0755

> <Gold.Chemscore.DG>
-19.0683

> <Gold.Chemscore.ZeroCoef>
-5.4800

> <Gold.Chemscore.Hbond>
1.3401

> <Gold.Chemscore.Metal>
0.0000

> <Gold.Chemscore.Lipo>
114.0601

> <Gold.Chemscore.Internal_Hbond>
0.0000

> <Gold.Chemscore.DEClash>
0.2079

> <Gold.Chemscore.DEInternal>
3.7849

> <Gold.Chemscore.Rot>
1.6534

> <Gold.Chemscore.Internal.Correction>
   9.000000E+99

> <Gold.Chemscore.Hbonds>
donor molecule, donor type, donor heavy atom, donor atom, acceptor molecule, acceptor atom, score
      L1  H    22    23       P1  7948  0.85
      P1  H  7989  7998       L1     9  0.28

> <Gold.Chemscore.Hbond.Weighted>
-4.4759

> <Gold.Chemscore.Metal.Weighted>
-0.0000

> <Gold.Chemscore.Lipo.Weighted>
-13.3450

> <Gold.Chemscore.Internal_Hbond.Weighted>
0.0000

> <Gold.Chemscore.DEClash.Weighted>
0.2079

> <Gold.Chemscore.DEInternal.Weighted>
3.7849

> <Gold.Chemscore.Rot.Weighted>
4.2326

> <Gold.Chemscore.Internal.Correction.Weighted>
   9.000000E+99

> <Gold.Protein.RotatedTorsions>
[ 6907 6896 6895 6894 ] final -152.54 input  -60.11 | X-H torsion
[ 7974 7965 7964 7962 ] final  -71.72 input  175.53 | X-H torsion
[ 8008 7997 7996 7995 ] final -170.97 input   59.86 | X-H torsion
[ 10167 10162 10161 10158 ] final -148.08 input  -65.29 | X-H torsion
[ 10718 10713 10712 10709 ] final  163.31 input   66.30 | X-H torsion
[ 10763 10752 10751 10750 ] final   40.87 input  -60.55 | X-H torsion
[ 11005 11000 10999 10996 ] final   54.61 input  -57.11 | X-H torsion

> <Gold.Protein.ActiveResidues>
 VAL166  LYS551  ARG553  GLY616  TRP617  ASP618  TYR619  PRO620  LYS621  CYS622 
 ASP623  PHE694  ASN695  SER759  ASP760  ASP761  ALA762  ILE779  LEU786  VAL792 
 PHE793  MET794  SER795  GLU796  ALA797  LYS798  CYS799  TRP800  GLU811  SER814 

> <Gold.Protein.RotatedAtoms>
  151.2293  133.4459  159.2602 H   0  0  0  0  0  0  0  0  0  0  0  0  # atno 6907 bound_to 6896
  151.0809  134.9858  159.8366 H   0  0  0  0  0  0  0  0  0  0  0  0  # atno 6908 bound_to 6896
  152.5424  134.2233  159.8849 H   0  0  0  0  0  0  0  0  0  0  0  0  # atno 6909 bound_to 6896
  145.6744  140.9210  143.0866 H   0  0  0  0  0  0  0  0  0  0  0  0  # atno 7974 bound_to 7965
  155.9254  140.1081  157.1174 H   0  0  0  0  0  0  0  0  0  0  0  0  # atno 8008 bound_to 7997
  154.4061  140.1248  156.4799 H   0  0  0  0  0  0  0  0  0  0  0  0  # atno 8009 bound_to 7997
  155.7145  140.3470  155.4990 H   0  0  0  0  0  0  0  0  0  0  0  0  # atno 8010 bound_to 7997
  139.7564  143.8441  152.2598 H   0  0  0  0  0  0  0  0  0  0  0  0  # atno 10167 bound_to 10162
  157.1102  131.0466  151.2460 H   0  0  0  0  0  0  0  0  0  0  0  0  # atno 10718 bound_to 10713
  152.9924  135.6179  154.2695 H   0  0  0  0  0  0  0  0  0  0  0  0  # atno 10763 bound_to 10752
  154.2429  135.2788  155.2849 H   0  0  0  0  0  0  0  0  0  0  0  0  # atno 10764 bound_to 10752
  154.5354  135.5776  153.6852 H   0  0  0  0  0  0  0  0  0  0  0  0  # atno 10765 bound_to 10752
  140.0673  134.5519  155.9085 H   0  0  0  0  0  0  0  0  0  0  0  0  # atno 11005 bound_to 11000
  144.7046  139.8614  143.7434 LP  0  0  0  0  0  0  0  0  0  0  0  0  # atno 17320 bound_to 7965
  146.1018  139.4014  143.0342 LP  0  0  0  0  0  0  0  0  0  0  0  0  # atno 17321 bound_to 7965
  139.8435  144.7199  150.9302 LP  0  0  0  0  0  0  0  0  0  0  0  0  # atno 17342 bound_to 10162
  140.7803  143.3962  151.1225 LP  0  0  0  0  0  0  0  0  0  0  0  0  # atno 17343 bound_to 10162
  157.4565  130.7629  149.7198 LP  0  0  0  0  0  0  0  0  0  0  0  0  # atno 17370 bound_to 10713
  155.9852  130.3985  150.3272 LP  0  0  0  0  0  0  0  0  0  0  0  0  # atno 17371 bound_to 10713
  141.1998  133.6608  156.5861 LP  0  0  0  0  0  0  0  0  0  0  0  0  # atno 17394 bound_to 11000
  140.3680  134.7630  157.4579 LP  0  0  0  0  0  0  0  0  0  0  0  0  # atno 17395 bound_to 11000

$$$$
