AV-unprocessed.smi:2851|AV-procd|sdf|10971|dock1
  -GOLD-   2272015423D 1   1.00000     0.00000
 Structure written by MMmdl.
 43 44  0  0  0  0  0  0  0  0  2 V2000
  152.8468  138.3828  154.6811 C   0  0  0  0  0  0  0  0  0  0  0  0
  151.9181  139.3617  155.3403 C   0  0  0  0  0  0  0  0  0  0  0  0
  152.3805  140.1590  156.2893 N   0  0  0  0  0  0  0  0  0  0  0  0
  151.3210  140.9095  156.6537 N   0  0  0  0  0  0  0  0  0  0  0  0
  151.4842  141.9156  157.6848 C   0  0  0  0  0  0  0  0  0  0  0  0
  150.1845  140.5766  155.9430 C   0  0  0  0  0  0  0  0  0  0  0  0
  148.8774  141.2691  156.1618 C   0  0  0  0  0  0  0  0  0  0  0  0
  150.5328  139.5731  155.0777 C   0  0  0  0  0  0  0  0  0  0  0  0
  149.6752  138.8550  154.0662 C   0  0  0  0  0  0  0  0  0  0  0  0
  148.9646  137.6832  154.7428 C   0  0  0  0  0  0  0  0  0  0  0  0
  147.7693  137.7802  155.0145 O   0  0  0  0  0  0  0  0  0  0  0  0
  149.7439  136.6205  155.0157 N   0  0  0  0  0  0  0  0  0  0  0  0
  149.4811  135.3293  155.6723 C   0  0  0  0  0  0  0  0  0  0  0  0
  150.5219  135.2519  156.8176 C   0  0  0  0  0  0  0  0  0  0  0  0
  150.1005  135.1692  157.9930 O   0  0  0  0  0  0  0  0  0  0  0  0
  151.7338  135.3237  156.5101 O   0  5  0  0  0  0  0  0  0  0  0  0
  148.0402  135.1226  156.2465 C   0  0  0  0  0  0  0  0  0  0  0  0
  146.9559  134.8964  155.1732 C   0  0  0  0  0  0  0  0  0  0  0  0
  147.3338  133.7580  154.2204 C   0  0  0  0  0  0  0  0  0  0  0  0
  148.6980  134.0288  153.5776 C   0  0  0  0  0  0  0  0  0  0  0  0
  149.7902  134.2001  154.6464 C   0  0  0  0  0  0  0  0  0  0  0  0
  152.6374  137.3655  155.0117 H   0  0  0  0  0  0  0  0  0  0  0  0
  153.8913  138.5991  154.9081 H   0  0  0  0  0  0  0  0  0  0  0  0
  152.7335  138.4088  153.5971 H   0  0  0  0  0  0  0  0  0  0  0  0
  150.9729  141.5945  158.5924 H   0  0  0  0  0  0  0  0  0  0  0  0
  151.0554  142.8598  157.3484 H   0  0  0  0  0  0  0  0  0  0  0  0
  152.5406  142.0707  157.9078 H   0  0  0  0  0  0  0  0  0  0  0  0
  148.0606  140.7361  155.6762 H   0  0  0  0  0  0  0  0  0  0  0  0
  148.9054  142.2798  155.7543 H   0  0  0  0  0  0  0  0  0  0  0  0
  148.6434  141.3378  157.2241 H   0  0  0  0  0  0  0  0  0  0  0  0
  148.9272  139.5205  153.6344 H   0  0  0  0  0  0  0  0  0  0  0  0
  150.2671  138.4870  153.2273 H   0  0  0  0  0  0  0  0  0  0  0  0
  150.7094  136.7330  154.7437 H   0  0  0  0  0  0  0  0  0  0  0  0
  148.0430  134.2386  156.8868 H   0  0  0  0  0  0  0  0  0  0  0  0
  147.7488  135.9412  156.9048 H   0  0  0  0  0  0  0  0  0  0  0  0
  146.0044  134.6720  155.6557 H   0  0  0  0  0  0  0  0  0  0  0  0
  146.7935  135.8043  154.5944 H   0  0  0  0  0  0  0  0  0  0  0  0
  147.3627  132.8137  154.7653 H   0  0  0  0  0  0  0  0  0  0  0  0
  146.5714  133.6498  153.4485 H   0  0  0  0  0  0  0  0  0  0  0  0
  148.9611  133.2073  152.9108 H   0  0  0  0  0  0  0  0  0  0  0  0
  148.6431  134.9243  152.9573 H   0  0  0  0  0  0  0  0  0  0  0  0
  150.7430  134.3824  154.1461 H   0  0  0  0  0  0  0  0  0  0  0  0
  149.9053  133.2491  155.1699 H   0  0  0  0  0  0  0  0  0  0  0  0
  1  2  1  0  0  0  0
  1 22  1  0  0  0  0
  1 23  1  0  0  0  0
  1 24  1  0  0  0  0
  2  8  1  0  0  0  0
  2  3  2  0  0  0  0
  3  4  1  0  0  0  0
  4  5  1  0  0  0  0
  4  6  1  0  0  0  0
  5 25  1  0  0  0  0
  5 26  1  0  0  0  0
  5 27  1  0  0  0  0
  6  7  1  0  0  0  0
  6  8  2  0  0  0  0
  7 28  1  0  0  0  0
  7 29  1  0  0  0  0
  7 30  1  0  0  0  0
  8  9  1  0  0  0  0
  9 10  1  0  0  0  0
  9 31  1  0  0  0  0
  9 32  1  0  0  0  0
 10 11  2  0  0  0  0
 10 12  1  0  0  0  0
 12 13  1  0  0  0  0
 12 33  1  0  0  0  0
 13 21  1  0  0  0  0
 13 14  1  0  0  0  0
 13 17  1  0  0  0  0
 14 15  2  0  0  0  0
 14 16  1  0  0  0  0
 17 18  1  0  0  0  0
 17 34  1  0  0  0  0
 17 35  1  0  0  0  0
 18 19  1  0  0  0  0
 18 36  1  0  0  0  0
 18 37  1  0  0  0  0
 19 20  1  0  0  0  0
 19 38  1  0  0  0  0
 19 39  1  0  0  0  0
 20 21  1  0  0  0  0
 20 40  1  0  0  0  0
 20 41  1  0  0  0  0
 21 42  1  0  0  0  0
 21 43  1  0  0  0  0
M  CHG  1  16  -1
M  END
> <s_m_source_file>
AV-unprocessed.smi

> <i_m_source_file_index>
2851

> <i_lp_mmshare_version>
43012

> <i_f3d_flags>
0

> <s_epik_input>
W0NIM11jMW5uKFtDSDNdKWMoW0NIM10pYzFbQ0gyXUMoPU8pW05IXUMyKEMoPU8pW09IXSlbQ0gyXVtDSDJdW0NIMl1bQ0gyXVtDSDJdMg==

> <s_epik_cmdline>
J2VwaWtfcHl0aG9uJywgJy1waCcsICc3LjAnLCAnLXRuJywgJzgnLCAnLW1hJywgJzIwMCcsICctbWV0YWxfYmluZGluZycsICctaW1hZScsICc8aW5maWxlLm1hZT4nLCAnLW9tYWUnLCAnPG91dGZpbGUubWFlPic=

> <r_lp_tautomer_probability>
1

> <r_epik_Ionization_Penalty>
0.00398412

> <r_epik_Ionization_Penalty_Charging>
0.000391215

> <r_epik_Ionization_Penalty_Neutral>
0.0035929

> <r_epik_State_Penalty>
-0

> <r_epik_Charging_Adjusted_Penalty>
0.000391215

> <i_epik_Tot_Q>
-1

> <i_epik_Tot_abs_Q>
1

> <r_epik_Metal_State_Penalty>
-0

> <b_epik_Metal_Only>
0

> <s_lp_Force_Field>
OPLS_2005

> <r_lp_Energy>
3.24008

> <b_lp_Chiralities_Consistent>
1

> <s_lp_Variant>
AV-unprocessed.smi:2851-1

> <Gold.Version>
5.8.1

> <Gold.Id.Protein>
6NUR|6NUR_protein|mol2

> <Gold.PLP.Fitness>
39.5888

> <Gold.PLP.PLP>
-26.7325

> <Gold.PLP.part.hbond>
-3.2373

> <Gold.PLP.part.metal>
0.0000

> <Gold.PLP.part.buried>
1.6226

> <Gold.PLP.part.nonpolar>
-24.9445

> <Gold.PLP.part.repulsive>
0.1047

> <Gold.PLP.ligand.clash>
0.0000

> <Gold.PLP.ligand.torsion>
0.6152

> <Gold.PLP.Chemscore.Hbond>
4.6640

> <Gold.PLP.Chemscore.CHOScore>
0.0000

> <Gold.PLP.Chemscore.Metal>
0.0000

> <Gold.Chemscore.Hbonds>
donor molecule, donor type, donor heavy atom, donor atom, acceptor molecule, acceptor atom, score
      P1  H  6896  6907       L1    15  1.66
      P1  H  7997  8008       L1     3  1.00
      P1  H 10752 10765       L1    16  2.00

> <Gold.PLP.Chemscore.Internal.Correction>
0.0948

> <Gold.Rescore>
     Score         DG    S(hbond)    S(metal)    S(lipo)     H(rot)  DE(clash)    DE(int)     intcor
     14.30     -17.64       2.61        0.00      70.42       1.88       0.53       2.82       ----

> <Gold.Chemscore.Fitness>
14.2966

> <Gold.Chemscore.DG>
-17.6376

> <Gold.Chemscore.ZeroCoef>
-5.4800

> <Gold.Chemscore.Hbond>
2.6148

> <Gold.Chemscore.Metal>
0.0000

> <Gold.Chemscore.Lipo>
70.4224

> <Gold.Chemscore.Internal_Hbond>
0.0000

> <Gold.Chemscore.DEClash>
0.5260

> <Gold.Chemscore.DEInternal>
2.8150

> <Gold.Chemscore.Rot>
1.8809

> <Gold.Chemscore.Internal.Correction>
   9.000000E+99

> <Gold.Chemscore.Hbonds>
donor molecule, donor type, donor heavy atom, donor atom, acceptor molecule, acceptor atom, score
      P1  H  6896  6907       L1    15  0.83
      P1  H  7997  8008       L1     3  0.73
      P1  H 10752 10765       L1    16  0.93

> <Gold.Chemscore.Hbond.Weighted>
-8.7333

> <Gold.Chemscore.Metal.Weighted>
-0.0000

> <Gold.Chemscore.Lipo.Weighted>
-8.2394

> <Gold.Chemscore.Internal_Hbond.Weighted>
0.0000

> <Gold.Chemscore.DEClash.Weighted>
0.5260

> <Gold.Chemscore.DEInternal.Weighted>
2.8150

> <Gold.Chemscore.Rot.Weighted>
4.8152

> <Gold.Chemscore.Internal.Correction.Weighted>
   9.000000E+99

> <Gold.Protein.RotatedTorsions>
[ 6907 6896 6895 6894 ] final  -79.91 input  -60.11 | X-H torsion
[ 7974 7965 7964 7962 ] final   47.66 input  175.53 | X-H torsion
[ 8008 7997 7996 7995 ] final  -38.36 input   59.86 | X-H torsion
[ 10167 10162 10161 10158 ] final  179.55 input  -65.29 | X-H torsion
[ 10718 10713 10712 10709 ] final -151.80 input   66.30 | X-H torsion
[ 10763 10752 10751 10750 ] final -141.47 input  -60.55 | X-H torsion
[ 11005 11000 10999 10996 ] final   73.71 input  -57.11 | X-H torsion

> <Gold.Protein.ActiveResidues>
 VAL166  LYS551  ARG553  GLY616  TRP617  ASP618  TYR619  PRO620  LYS621  CYS622 
 ASP623  PHE694  ASN695  SER759  ASP760  ASP761  ALA762  ILE779  LEU786  VAL792 
 PHE793  MET794  SER795  GLU796  ALA797  LYS798  CYS799  TRP800  GLU811  SER814 

> <Gold.Protein.RotatedAtoms>
  150.6940  134.4049  159.5135 H   0  0  0  0  0  0  0  0  0  0  0  0  # atno 6907 bound_to 6896
  152.1817  134.8746  160.0535 H   0  0  0  0  0  0  0  0  0  0  0  0  # atno 6908 bound_to 6896
  151.9734  133.3698  159.4117 H   0  0  0  0  0  0  0  0  0  0  0  0  # atno 6909 bound_to 6896
  146.0277  139.4726  142.9857 H   0  0  0  0  0  0  0  0  0  0  0  0  # atno 7974 bound_to 7965
  154.4038  140.1580  156.2687 H   0  0  0  0  0  0  0  0  0  0  0  0  # atno 8008 bound_to 7997
  155.8973  140.3435  155.5978 H   0  0  0  0  0  0  0  0  0  0  0  0  # atno 8009 bound_to 7997
  155.7489  140.0802  157.2201 H   0  0  0  0  0  0  0  0  0  0  0  0  # atno 8010 bound_to 7997
  139.5341  144.2547  152.0756 H   0  0  0  0  0  0  0  0  0  0  0  0  # atno 10167 bound_to 10162
  156.4640  130.8227  151.2457 H   0  0  0  0  0  0  0  0  0  0  0  0  # atno 10718 bound_to 10713
  154.8544  135.3523  154.5873 H   0  0  0  0  0  0  0  0  0  0  0  0  # atno 10763 bound_to 10752
  153.6483  135.6995  153.5222 H   0  0  0  0  0  0  0  0  0  0  0  0  # atno 10764 bound_to 10752
  153.2915  135.4233  155.1129 H   0  0  0  0  0  0  0  0  0  0  0  0  # atno 10765 bound_to 10752
  139.9427  134.7370  156.1059 H   0  0  0  0  0  0  0  0  0  0  0  0  # atno 11005 bound_to 11000
  145.7091  141.0112  143.1463 LP  0  0  0  0  0  0  0  0  0  0  0  0  # atno 17320 bound_to 7965
  144.7017  139.8736  143.7442 LP  0  0  0  0  0  0  0  0  0  0  0  0  # atno 17321 bound_to 7965
  140.2015  144.4653  150.6429 LP  0  0  0  0  0  0  0  0  0  0  0  0  # atno 17342 bound_to 10162
  140.6538  143.2232  151.6016 LP  0  0  0  0  0  0  0  0  0  0  0  0  # atno 17343 bound_to 10162
  157.7496  131.0098  150.3281 LP  0  0  0  0  0  0  0  0  0  0  0  0  # atno 17370 bound_to 10713
  156.3687  130.3859  149.7193 LP  0  0  0  0  0  0  0  0  0  0  0  0  # atno 17371 bound_to 10713
  141.1067  133.6657  156.2880 LP  0  0  0  0  0  0  0  0  0  0  0  0  # atno 17394 bound_to 11000
  140.5912  134.5648  157.5500 LP  0  0  0  0  0  0  0  0  0  0  0  0  # atno 17395 bound_to 11000

$$$$
