AV-unprocessed.smi:1687|AV-procd|sdf|6766|dock1
  -GOLD-   22720 7523D 1   1.00000     0.00000
 Structure written by MMmdl.
 45 46  0  0  0  0  0  0  0  0  2 V2000
  144.9554  136.2091  151.6285 C   0  0  0  0  0  0  0  0  0  0  0  0
  145.8232  137.2035  152.4126 C   0  0  2  0  0  0  0  0  0  0  0  0
  145.0843  137.7560  153.6441 C   0  0  0  0  0  0  0  0  0  0  0  0
  145.9461  138.7790  154.4038 C   0  0  0  0  0  0  0  0  0  0  0  0
  146.3684  139.8853  153.5052 N   0  3  1  0  0  0  0  0  0  0  0  0
  146.9868  141.0383  154.2235 C   0  0  2  0  0  0  0  0  0  0  0  0
  146.4681  142.3681  153.6424 C   0  0  0  0  0  0  0  0  0  0  0  0
  148.5338  140.9529  154.2904 C   0  0  0  0  0  0  0  0  0  0  0  0
  149.1097  141.9239  155.2176 N   0  0  0  0  0  0  0  0  0  0  0  0
  149.9407  141.6323  156.2296 C   0  0  0  0  0  0  0  0  0  0  0  0
  150.3340  140.4914  156.4745 O   0  0  0  0  0  0  0  0  0  0  0  0
  150.2794  142.7371  156.9173 N   0  0  0  0  0  0  0  0  0  0  0  0
  151.1403  142.8395  158.0426 C   0  0  0  0  0  0  0  0  0  0  0  0
  151.3048  144.1467  158.5541 C   0  0  0  0  0  0  0  0  0  0  0  0
  152.1394  144.3544  159.6695 C   0  0  0  0  0  0  0  0  0  0  0  0
  152.7891  143.2479  160.2451 C   0  0  0  0  0  0  0  0  0  0  0  0
  152.5712  141.9802  159.6744 C   0  0  0  0  0  0  0  0  0  0  0  0
  151.7722  141.7792  158.6052 N   0  0  0  0  0  0  0  0  0  0  0  0
  147.1309  139.3780  152.3317 C   0  0  0  0  0  0  0  0  0  0  0  0
  146.2879  138.3740  151.5284 C   0  0  0  0  0  0  0  0  0  0  0  0
  144.0491  136.6835  151.2511 H   0  0  0  0  0  0  0  0  0  0  0  0
  144.6542  135.3703  152.2568 H   0  0  0  0  0  0  0  0  0  0  0  0
  145.4980  135.8020  150.7748 H   0  0  0  0  0  0  0  0  0  0  0  0
  146.7079  136.6682  152.7609 H   0  0  0  0  0  0  0  0  0  0  0  0
  144.1500  138.2267  153.3347 H   0  0  0  0  0  0  0  0  0  0  0  0
  144.8108  136.9391  154.3129 H   0  0  0  0  0  0  0  0  0  0  0  0
  145.3706  139.1766  155.2405 H   0  0  0  0  0  0  0  0  0  0  0  0
  146.8224  138.2858  154.8259 H   0  0  0  0  0  0  0  0  0  0  0  0
  146.6141  141.0034  155.2483 H   0  0  0  0  0  0  0  0  0  0  0  0
  146.7247  143.2098  154.2856 H   0  0  0  0  0  0  0  0  0  0  0  0
  145.3817  142.3593  153.5501 H   0  0  0  0  0  0  0  0  0  0  0  0
  146.8858  142.5731  152.6567 H   0  0  0  0  0  0  0  0  0  0  0  0
  148.8411  139.9655  154.6341 H   0  0  0  0  0  0  0  0  0  0  0  0
  148.9768  141.0794  153.3018 H   0  0  0  0  0  0  0  0  0  0  0  0
  148.8410  142.8888  155.0898 H   0  0  0  0  0  0  0  0  0  0  0  0
  149.8753  143.6060  156.6015 H   0  0  0  0  0  0  0  0  0  0  0  0
  150.7985  144.9861  158.0998 H   0  0  0  0  0  0  0  0  0  0  0  0
  152.2784  145.3457  160.0753 H   0  0  0  0  0  0  0  0  0  0  0  0
  153.4367  143.3671  161.1010 H   0  0  0  0  0  0  0  0  0  0  0  0
  153.0503  141.1044  160.0864 H   0  0  0  0  0  0  0  0  0  0  0  0
  147.4202  140.2009  151.6791 H   0  0  0  0  0  0  0  0  0  0  0  0
  148.0510  138.8937  152.6616 H   0  0  0  0  0  0  0  0  0  0  0  0
  146.8705  137.9975  150.6866 H   0  0  0  0  0  0  0  0  0  0  0  0
  145.4231  138.8842  151.1014 H   0  0  0  0  0  0  0  0  0  0  0  0
  145.5073  140.2539  153.1276 H   0  0  0  0  0  0  0  0  0  0  0  0
  1  2  1  0  0  0  0
  1 21  1  0  0  0  0
  1 22  1  0  0  0  0
  1 23  1  0  0  0  0
  2 20  1  0  0  0  0
  2  3  1  0  0  0  0
  2 24  1  0  0  0  0
  3  4  1  0  0  0  0
  3 25  1  0  0  0  0
  3 26  1  0  0  0  0
  4  5  1  0  0  0  0
  4 27  1  0  0  0  0
  4 28  1  0  0  0  0
  5  6  1  0  0  0  0
  5 19  1  0  0  0  0
  5 45  1  0  0  0  0
  6  7  1  0  0  0  0
  6  8  1  0  0  0  0
  6 29  1  0  0  0  0
  7 30  1  0  0  0  0
  7 31  1  0  0  0  0
  7 32  1  0  0  0  0
  8  9  1  0  0  0  0
  8 33  1  0  0  0  0
  8 34  1  0  0  0  0
  9 10  1  0  0  0  0
  9 35  1  0  0  0  0
 10 11  2  0  0  0  0
 10 12  1  0  0  0  0
 12 13  1  0  0  0  0
 12 36  1  0  0  0  0
 13 18  1  0  0  0  0
 13 14  2  0  0  0  0
 14 15  1  0  0  0  0
 14 37  1  0  0  0  0
 15 16  2  0  0  0  0
 15 38  1  0  0  0  0
 16 17  1  0  0  0  0
 16 39  1  0  0  0  0
 17 18  2  0  0  0  0
 17 40  1  0  0  0  0
 19 20  1  0  0  0  0
 19 41  1  0  0  0  0
 19 42  1  0  0  0  0
 20 43  1  0  0  0  0
 20 44  1  0  0  0  0
M  CHG  1   5   1
M  END
> <s_m_source_file>
AV-unprocessed.smi

> <i_m_source_file_index>
1687

> <i_lp_mmshare_version>
43012

> <i_f3d_flags>
0

> <s_epik_input>
W0NIM11bQ0hdMVtDSDJdW0NIMl1OKFtDSDJdW0NIMl0xKVtDQEhdKFtDSDNdKVtDSDJdW05IXUMoPU8pW05IXWMyW2NIXVtjSF1bY0hdW2NIXW4y

> <s_epik_cmdline>
J2VwaWtfcHl0aG9uJywgJy1waCcsICc3LjAnLCAnLXRuJywgJzgnLCAnLW1hJywgJzIwMCcsICctbWV0YWxfYmluZGluZycsICctaW1hZScsICc8aW5maWxlLm1hZT4nLCAnLW9tYWUnLCAnPG91dGZpbGUubWFlPic=

> <r_epik_Ionization_Penalty>
0.00142891

> <r_epik_Ionization_Penalty_Charging>
0.00139388

> <r_epik_Ionization_Penalty_Neutral>
3.50347e-05

> <r_epik_State_Penalty>
0.000929204

> <r_epik_Charging_Adjusted_Penalty>
0.00232308

> <i_epik_Tot_Q>
1

> <i_epik_Tot_abs_Q>
1

> <r_epik_Metal_State_Penalty>
-0

> <b_epik_Metal_Only>
0

> <s_lp_Force_Field>
OPLS_2005

> <r_lp_Energy>
21.3986

> <b_lp_Chiralities_Consistent>
1

> <s_lp_Variant>
AV-unprocessed.smi:1687-1

> <Gold.Version>
5.8.1

> <Gold.Id.Protein>
6NUR|6NUR_protein|mol2

> <Gold.PLP.Fitness>
52.5790

> <Gold.PLP.PLP>
-42.3946

> <Gold.PLP.part.hbond>
-3.0000

> <Gold.PLP.part.metal>
0.0000

> <Gold.PLP.part.buried>
-0.9360

> <Gold.PLP.part.nonpolar>
-39.3308

> <Gold.PLP.part.repulsive>
0.2823

> <Gold.PLP.ligand.clash>
0.0000

> <Gold.PLP.ligand.torsion>
0.9094

> <Gold.PLP.Chemscore.Hbond>
3.9600

> <Gold.PLP.Chemscore.CHOScore>
0.0000

> <Gold.PLP.Chemscore.Metal>
0.0000

> <Gold.Chemscore.Hbonds>
donor molecule, donor type, donor heavy atom, donor atom, acceptor molecule, acceptor atom, score
      L1  H     5    45       P1 10175  2.00
      L1  H     9    35       P1  8028  1.00
      L1  H    12    36       P1  8028  1.00

> <Gold.PLP.Chemscore.Internal.Correction>
0.1231

> <Gold.Rescore>
     Score         DG    S(hbond)    S(metal)    S(lipo)     H(rot)  DE(clash)    DE(int)     intcor
     19.67     -23.51       2.91        0.00     103.70       1.50       1.62       2.22       ----

> <Gold.Chemscore.Fitness>
19.6730

> <Gold.Chemscore.DG>
-23.5123

> <Gold.Chemscore.ZeroCoef>
-5.4800

> <Gold.Chemscore.Hbond>
2.9126

> <Gold.Chemscore.Metal>
0.0000

> <Gold.Chemscore.Lipo>
103.7017

> <Gold.Chemscore.Internal_Hbond>
0.0000

> <Gold.Chemscore.DEClash>
1.6193

> <Gold.Chemscore.DEInternal>
2.2201

> <Gold.Chemscore.Rot>
1.4956

> <Gold.Chemscore.Internal.Correction>
   9.000000E+99

> <Gold.Chemscore.Hbonds>
donor molecule, donor type, donor heavy atom, donor atom, acceptor molecule, acceptor atom, score
      L1  H     5    45       P1 10175  0.97
      L1  H     9    35       P1  8028  0.96
      L1  H    12    36       P1  8028  1.00

> <Gold.Chemscore.Hbond.Weighted>
-9.7281

> <Gold.Chemscore.Metal.Weighted>
-0.0000

> <Gold.Chemscore.Lipo.Weighted>
-12.1331

> <Gold.Chemscore.Internal_Hbond.Weighted>
0.0000

> <Gold.Chemscore.DEClash.Weighted>
1.6193

> <Gold.Chemscore.DEInternal.Weighted>
2.2201

> <Gold.Chemscore.Rot.Weighted>
3.8289

> <Gold.Chemscore.Internal.Correction.Weighted>
   9.000000E+99

> <Gold.Protein.RotatedTorsions>
[ 6907 6896 6895 6894 ] final  143.00 input  -60.11 | X-H torsion
[ 7974 7965 7964 7962 ] final   10.91 input  175.53 | X-H torsion
[ 8008 7997 7996 7995 ] final -113.54 input   59.86 | X-H torsion
[ 10167 10162 10161 10158 ] final -173.84 input  -65.29 | X-H torsion
[ 10718 10713 10712 10709 ] final   83.53 input   66.30 | X-H torsion
[ 10763 10752 10751 10750 ] final  150.92 input  -60.55 | X-H torsion
[ 11005 11000 10999 10996 ] final   45.56 input  -57.11 | X-H torsion

> <Gold.Protein.ActiveResidues>
 VAL166  LYS551  ARG553  GLY616  TRP617  ASP618  TYR619  PRO620  LYS621  CYS622 
 ASP623  PHE694  ASN695  SER759  ASP760  ASP761  ALA762  ILE779  LEU786  VAL792 
 PHE793  MET794  SER795  GLU796  ALA797  LYS798  CYS799  TRP800  GLU811  SER814 

> <Gold.Protein.RotatedAtoms>
  152.2117  133.4916  159.5113 H   0  0  0  0  0  0  0  0  0  0  0  0  # atno 6907 bound_to 6896
  150.6992  134.1458  159.4131 H   0  0  0  0  0  0  0  0  0  0  0  0  # atno 6908 bound_to 6896
  151.9377  135.0227  160.0584 H   0  0  0  0  0  0  0  0  0  0  0  0  # atno 6909 bound_to 6896
  146.2380  139.9564  142.8464 H   0  0  0  0  0  0  0  0  0  0  0  0  # atno 7974 bound_to 7965
  155.0223  140.0393  157.2442 H   0  0  0  0  0  0  0  0  0  0  0  0  # atno 8008 bound_to 7997
  154.7368  140.2741  155.6385 H   0  0  0  0  0  0  0  0  0  0  0  0  # atno 8009 bound_to 7997
  156.2855  140.2673  156.2083 H   0  0  0  0  0  0  0  0  0  0  0  0  # atno 8010 bound_to 7997
  139.5666  144.1741  152.1322 H   0  0  0  0  0  0  0  0  0  0  0  0  # atno 10167 bound_to 10162
  157.6880  131.0095  150.2537 H   0  0  0  0  0  0  0  0  0  0  0  0  # atno 10718 bound_to 10713
  154.0954  135.2849  155.3263 H   0  0  0  0  0  0  0  0  0  0  0  0  # atno 10763 bound_to 10752
  154.6592  135.5341  153.8000 H   0  0  0  0  0  0  0  0  0  0  0  0  # atno 10764 bound_to 10752
  153.0398  135.6529  154.1120 H   0  0  0  0  0  0  0  0  0  0  0  0  # atno 10765 bound_to 10752
  140.1449  134.4536  155.8423 H   0  0  0  0  0  0  0  0  0  0  0  0  # atno 11005 bound_to 11000
  145.1812  140.9768  143.4265 LP  0  0  0  0  0  0  0  0  0  0  0  0  # atno 17320 bound_to 7965
  144.9940  139.3661  143.6200 LP  0  0  0  0  0  0  0  0  0  0  0  0  # atno 17321 bound_to 7965
  140.1265  144.5327  150.6829 LP  0  0  0  0  0  0  0  0  0  0  0  0  # atno 17342 bound_to 10162
  140.6950  143.2398  151.5027 LP  0  0  0  0  0  0  0  0  0  0  0  0  # atno 17343 bound_to 10162
  156.3129  130.3774  149.7645 LP  0  0  0  0  0  0  0  0  0  0  0  0  # atno 17370 bound_to 10713
  156.5240  130.8228  151.3213 LP  0  0  0  0  0  0  0  0  0  0  0  0  # atno 17371 bound_to 10713
  141.2191  133.6848  156.7314 LP  0  0  0  0  0  0  0  0  0  0  0  0  # atno 17394 bound_to 11000
  140.2677  134.8417  157.3818 LP  0  0  0  0  0  0  0  0  0  0  0  0  # atno 17395 bound_to 11000

$$$$
