AV-unprocessed.smi:1226|AV-procd|sdf|5144|dock4
  -GOLD-   22720 4213D 1   1.00000     0.00000
 Structure written by MMmdl.
 37 38  0  0  0  0  0  0  0  0  1 V2000
  152.2934  139.0166  155.6243 C   0  0  0  0  0  0  0  0  0  0  0  0
  151.0586  139.7948  155.3226 C   0  0  0  0  0  0  0  0  0  0  0  0
  150.0659  139.3369  154.5556 N   0  0  0  0  0  0  0  0  0  0  0  0
  149.0185  140.2541  154.4249 C   0  0  0  0  0  0  0  0  0  0  0  0
  147.8162  139.9025  153.6025 C   0  0  0  0  0  0  0  0  0  0  0  0
  147.1301  138.6182  154.0971 C   0  0  0  0  0  0  0  0  0  0  0  0
  147.0411  137.6142  153.0432 N   0  0  0  0  0  0  0  0  0  0  0  0
  145.8982  137.1668  152.5052 C   0  0  0  0  0  0  0  0  0  0  0  0
  144.7791  137.5569  152.8380 O   0  0  0  0  0  0  0  0  0  0  0  0
  146.1210  136.2373  151.5664 N   0  0  0  0  0  0  0  0  0  0  0  0
  145.0808  135.5418  150.8164 C   0  0  0  0  0  0  0  0  0  0  0  0
  145.0938  134.0254  151.0783 C   0  0  2  0  0  0  0  0  0  0  0  0
  146.3317  133.2934  150.5571 C   0  0  0  0  0  0  0  0  0  0  0  0
  145.8313  131.8815  150.2896 C   0  0  0  0  0  0  0  0  0  0  0  0
  144.3075  131.9964  150.3856 C   0  0  0  0  0  0  0  0  0  0  0  0
  144.0413  133.3914  150.3708 O   0  0  0  0  0  0  0  0  0  0  0  0
  149.2362  141.4245  155.1086 C   0  0  0  0  0  0  0  0  0  0  0  0
  150.7660  141.4151  155.9422 S   0  0  0  0  0  0  0  0  0  0  0  0
  152.1802  137.9792  155.3079 H   0  0  0  0  0  0  0  0  0  0  0  0
  152.4935  139.0346  156.6956 H   0  0  0  0  0  0  0  0  0  0  0  0
  153.1444  139.4515  155.1003 H   0  0  0  0  0  0  0  0  0  0  0  0
  147.1006  140.7255  153.6212 H   0  0  0  0  0  0  0  0  0  0  0  0
  148.1084  139.7859  152.5580 H   0  0  0  0  0  0  0  0  0  0  0  0
  147.6589  138.2076  154.9591 H   0  0  0  0  0  0  0  0  0  0  0  0
  146.1180  138.8451  154.4331 H   0  0  0  0  0  0  0  0  0  0  0  0
  147.9111  137.2315  152.7031 H   0  0  0  0  0  0  0  0  0  0  0  0
  147.0764  135.9837  151.3619 H   0  0  0  0  0  0  0  0  0  0  0  0
  144.1021  135.9587  151.0598 H   0  0  0  0  0  0  0  0  0  0  0  0
  145.2432  135.7366  149.7560 H   0  0  0  0  0  0  0  0  0  0  0  0
  144.9648  133.8222  152.1432 H   0  0  0  0  0  0  0  0  0  0  0  0
  146.6721  133.7419  149.6228 H   0  0  0  0  0  0  0  0  0  0  0  0
  147.1608  133.3220  151.2649 H   0  0  0  0  0  0  0  0  0  0  0  0
  146.1446  131.5440  149.3009 H   0  0  0  0  0  0  0  0  0  0  0  0
  146.2135  131.1708  151.0231 H   0  0  0  0  0  0  0  0  0  0  0  0
  143.7956  131.4877  149.5684 H   0  0  0  0  0  0  0  0  0  0  0  0
  143.9502  131.5745  151.3262 H   0  0  0  0  0  0  0  0  0  0  0  0
  148.5915  142.2885  155.1732 H   0  0  0  0  0  0  0  0  0  0  0  0
  1  2  1  0  0  0  0
  1 19  1  0  0  0  0
  1 20  1  0  0  0  0
  1 21  1  0  0  0  0
  2 18  1  0  0  0  0
  2  3  2  0  0  0  0
  3  4  1  0  0  0  0
  4  5  1  0  0  0  0
  4 17  2  0  0  0  0
  5  6  1  0  0  0  0
  5 22  1  0  0  0  0
  5 23  1  0  0  0  0
  6  7  1  0  0  0  0
  6 24  1  0  0  0  0
  6 25  1  0  0  0  0
  7  8  1  0  0  0  0
  7 26  1  0  0  0  0
  8  9  2  0  0  0  0
  8 10  1  0  0  0  0
 10 11  1  0  0  0  0
 10 27  1  0  0  0  0
 11 12  1  0  0  0  0
 11 28  1  0  0  0  0
 11 29  1  0  0  0  0
 12 16  1  0  0  0  0
 12 13  1  0  0  0  0
 12 30  1  0  0  0  0
 13 14  1  0  0  0  0
 13 31  1  0  0  0  0
 13 32  1  0  0  0  0
 14 15  1  0  0  0  0
 14 33  1  0  0  0  0
 14 34  1  0  0  0  0
 15 16  1  0  0  0  0
 15 35  1  0  0  0  0
 15 36  1  0  0  0  0
 17 18  1  0  0  0  0
 17 37  1  0  0  0  0
M  END
> <s_m_source_file>
AV-unprocessed.smi

> <i_m_source_file_index>
1226

> <i_lp_mmshare_version>
43012

> <i_f3d_flags>
0

> <s_epik_input>
W0NIM11jMW5jKFtjSF1zMSlbQ0gyXVtDSDJdW05IXUMoPU8pW05IXVtDSDJdW0NAQEhdMltDSDJdW0NIMl1bQ0gyXU8y

> <s_epik_cmdline>
J2VwaWtfcHl0aG9uJywgJy1waCcsICc3LjAnLCAnLXRuJywgJzgnLCAnLW1hJywgJzIwMCcsICctbWV0YWxfYmluZGluZycsICctaW1hZScsICc8aW5maWxlLm1hZT4nLCAnLW9tYWUnLCAnPG91dGZpbGUubWFlPic=

> <r_epik_Ionization_Penalty>
0.00199722

> <r_epik_Ionization_Penalty_Charging>
0

> <r_epik_Ionization_Penalty_Neutral>
0.00199722

> <r_epik_State_Penalty>
0.00132705

> <r_epik_Charging_Adjusted_Penalty>
0.00132705

> <i_epik_Tot_Q>
0

> <i_epik_Tot_abs_Q>
0

> <r_epik_Metal_State_Penalty>
-0

> <b_epik_Metal_Only>
0

> <s_lp_Force_Field>
OPLS_2005

> <r_lp_Energy>
9.02747

> <b_lp_Chiralities_Consistent>
1

> <s_lp_Variant>
AV-unprocessed.smi:1226-1

> <Gold.Version>
5.8.1

> <Gold.Id.Protein>
6NUR|6NUR_protein|mol2

> <Gold.PLP.Fitness>
43.5070

> <Gold.PLP.PLP>
-35.5034

> <Gold.PLP.part.hbond>
-2.0000

> <Gold.PLP.part.metal>
0.0000

> <Gold.PLP.part.buried>
-2.7830

> <Gold.PLP.part.nonpolar>
-30.5844

> <Gold.PLP.part.repulsive>
0.6442

> <Gold.PLP.ligand.clash>
0.0000

> <Gold.PLP.ligand.torsion>
0.4094

> <Gold.PLP.Chemscore.Hbond>
1.9280

> <Gold.PLP.Chemscore.CHOScore>
1.0000

> <Gold.PLP.Chemscore.Metal>
0.0000

> <Gold.Chemscore.Hbonds>
donor molecule, donor type, donor heavy atom, donor atom, acceptor molecule, acceptor atom, score
      L1  H     7    26       P1  7948  1.00
      L1  H    10    27       P1  7948  0.94
      L1  C    17    37       P1  8028  1.00

> <Gold.PLP.Chemscore.Internal.Correction>
0.0383

> <Gold.Rescore>
     Score         DG    S(hbond)    S(metal)    S(lipo)     H(rot)  DE(clash)    DE(int)     intcor
     17.01     -17.45       1.93        0.00      85.52       1.75       0.03       0.42       ----

> <Gold.Chemscore.Fitness>
17.0067

> <Gold.Chemscore.DG>
-17.4549

> <Gold.Chemscore.ZeroCoef>
-5.4800

> <Gold.Chemscore.Hbond>
1.9299

> <Gold.Chemscore.Metal>
0.0000

> <Gold.Chemscore.Lipo>
85.5203

> <Gold.Chemscore.Internal_Hbond>
0.0000

> <Gold.Chemscore.DEClash>
0.0311

> <Gold.Chemscore.DEInternal>
0.4171

> <Gold.Chemscore.Rot>
1.7487

> <Gold.Chemscore.Internal.Correction>
   9.000000E+99

> <Gold.Chemscore.Hbonds>
donor molecule, donor type, donor heavy atom, donor atom, acceptor molecule, acceptor atom, score
      L1  H     7    26       P1  7948  0.99
      L1  H    10    27       P1  7948  0.90

> <Gold.Chemscore.Hbond.Weighted>
-6.4458

> <Gold.Chemscore.Metal.Weighted>
-0.0000

> <Gold.Chemscore.Lipo.Weighted>
-10.0059

> <Gold.Chemscore.Internal_Hbond.Weighted>
0.0000

> <Gold.Chemscore.DEClash.Weighted>
0.0311

> <Gold.Chemscore.DEInternal.Weighted>
0.4171

> <Gold.Chemscore.Rot.Weighted>
4.4768

> <Gold.Chemscore.Internal.Correction.Weighted>
   9.000000E+99

> <Gold.Protein.RotatedTorsions>
[ 6907 6896 6895 6894 ] final  -88.04 input  -60.11 | X-H torsion
[ 7974 7965 7964 7962 ] final   27.27 input  175.53 | X-H torsion
[ 8008 7997 7996 7995 ] final  156.37 input   59.86 | X-H torsion
[ 10167 10162 10161 10158 ] final -171.80 input  -65.29 | X-H torsion
[ 10718 10713 10712 10709 ] final   14.57 input   66.30 | X-H torsion
[ 10763 10752 10751 10750 ] final  109.40 input  -60.55 | X-H torsion
[ 11005 11000 10999 10996 ] final  -92.87 input  -57.11 | X-H torsion

> <Gold.Protein.ActiveResidues>
 VAL166  LYS551  ARG553  GLY616  TRP617  ASP618  TYR619  PRO620  LYS621  CYS622 
 ASP623  PHE694  ASN695  SER759  ASP760  ASP761  ALA762  ILE779  LEU786  VAL792 
 PHE793  MET794  SER795  GLU796  ALA797  LYS798  CYS799  TRP800  GLU811  SER814 

> <Gold.Protein.RotatedAtoms>
  150.6867  134.2803  159.4624 H   0  0  0  0  0  0  0  0  0  0  0  0  # atno 6907 bound_to 6896
  152.0717  134.9526  160.0583 H   0  0  0  0  0  0  0  0  0  0  0  0  # atno 6908 bound_to 6896
  152.0914  133.4167  159.4582 H   0  0  0  0  0  0  0  0  0  0  0  0  # atno 6909 bound_to 6896
  146.1793  139.7214  142.8912 H   0  0  0  0  0  0  0  0  0  0  0  0  # atno 7974 bound_to 7965
  156.2426  140.1914  156.6945 H   0  0  0  0  0  0  0  0  0  0  0  0  # atno 8008 bound_to 7997
  154.6227  140.0606  156.9661 H   0  0  0  0  0  0  0  0  0  0  0  0  # atno 8009 bound_to 7997
  155.1836  140.3278  155.4373 H   0  0  0  0  0  0  0  0  0  0  0  0  # atno 8010 bound_to 7997
  139.5781  144.1486  152.1478 H   0  0  0  0  0  0  0  0  0  0  0  0  # atno 10167 bound_to 10162
  157.0410  130.6231  149.5751 H   0  0  0  0  0  0  0  0  0  0  0  0  # atno 10718 bound_to 10713
  153.4342  135.3781  155.2189 H   0  0  0  0  0  0  0  0  0  0  0  0  # atno 10763 bound_to 10752
  154.8751  135.3847  154.4231 H   0  0  0  0  0  0  0  0  0  0  0  0  # atno 10764 bound_to 10752
  153.4767  135.7088  153.6025 H   0  0  0  0  0  0  0  0  0  0  0  0  # atno 10765 bound_to 10752
  141.1511  133.7850  157.0080 H   0  0  0  0  0  0  0  0  0  0  0  0  # atno 11005 bound_to 11000
  145.4122  141.0398  143.3011 LP  0  0  0  0  0  0  0  0  0  0  0  0  # atno 17320 bound_to 7965
  144.8288  139.5664  143.6953 LP  0  0  0  0  0  0  0  0  0  0  0  0  # atno 17321 bound_to 7965
  140.1033  144.5520  150.6974 LP  0  0  0  0  0  0  0  0  0  0  0  0  # atno 17342 bound_to 10162
  140.7062  143.2470  151.4720 LP  0  0  0  0  0  0  0  0  0  0  0  0  # atno 17343 bound_to 10162
  156.0038  130.5121  150.7758 LP  0  0  0  0  0  0  0  0  0  0  0  0  # atno 17370 bound_to 10713
  157.5104  131.0925  151.0205 LP  0  0  0  0  0  0  0  0  0  0  0  0  # atno 17371 bound_to 10713
  140.0896  134.9600  157.1755 LP  0  0  0  0  0  0  0  0  0  0  0  0  # atno 17394 bound_to 11000
  140.3464  134.2647  155.7204 LP  0  0  0  0  0  0  0  0  0  0  0  0  # atno 17395 bound_to 11000

$$$$
