AV-unprocessed.smi:1077|AV-procd|sdf|4701|dock4
  -GOLD-   22720 3223D 1   1.00000     0.00000
 Structure written by MMmdl.
 42 43  0  0  0  0  0  0  0  0  1 V2000
  146.8820  141.6909  155.3752 C   0  0  0  0  0  0  0  0  0  0  0  0
  147.9864  141.4777  154.3288 C   0  0  0  0  0  0  0  0  0  0  0  0
  149.2066  140.9622  154.8937 N   0  0  0  0  0  0  0  0  0  0  0  0
  149.8726  141.6204  155.9066 C   0  0  0  0  0  0  0  0  0  0  0  0
  151.0195  141.1556  156.4432 C   0  0  0  0  0  0  0  0  0  0  0  0
  151.6925  141.8472  157.4923 C   0  0  0  0  0  0  0  0  0  0  0  0
  152.2589  142.3952  158.3400 N   0  0  0  0  0  0  0  0  0  0  0  0
  151.6254  139.9145  155.9675 C   0  0  0  0  0  0  0  0  0  0  0  0
  152.6652  139.4442  156.4328 O   0  0  0  0  0  0  0  0  0  0  0  0
  150.9330  139.2592  154.9174 N   0  0  0  0  0  0  0  0  0  0  0  0
  151.4849  137.9883  154.3990 C   0  0  0  0  0  0  0  0  0  0  0  0
  150.9999  136.7563  155.1774 C   0  0  0  0  0  0  0  0  0  0  0  0
  151.3086  136.5920  156.3587 O   0  0  0  0  0  0  0  0  0  0  0  0
  150.2269  135.8992  154.4935 N   0  0  0  0  0  0  0  0  0  0  0  0
  149.6630  134.6609  155.0222 C   0  0  0  0  0  0  0  0  0  0  0  0
  150.6838  133.9410  155.9291 C   0  0  0  0  0  0  0  0  0  0  0  0
  150.1441  132.5900  156.4253 C   0  0  0  0  0  0  0  0  0  0  0  0
  149.7236  131.6926  155.2515 C   0  0  0  0  0  0  0  0  0  0  0  0
  148.6981  132.4020  154.3537 C   0  0  0  0  0  0  0  0  0  0  0  0
  149.2349  133.7529  153.8535 C   0  0  0  0  0  0  0  0  0  0  0  0
  149.7249  139.7549  154.3699 C   0  0  0  0  0  0  0  0  0  0  0  0
  149.1436  139.1489  153.4661 O   0  0  0  0  0  0  0  0  0  0  0  0
  145.9616  142.0298  154.8996 H   0  0  0  0  0  0  0  0  0  0  0  0
  147.1661  142.4416  156.1129 H   0  0  0  0  0  0  0  0  0  0  0  0
  146.6598  140.7656  155.9071 H   0  0  0  0  0  0  0  0  0  0  0  0
  147.6706  140.7481  153.5818 H   0  0  0  0  0  0  0  0  0  0  0  0
  148.2357  142.3922  153.7871 H   0  0  0  0  0  0  0  0  0  0  0  0
  149.4603  142.5441  156.2869 H   0  0  0  0  0  0  0  0  0  0  0  0
  151.2389  137.8431  153.3465 H   0  0  0  0  0  0  0  0  0  0  0  0
  152.5762  138.0133  154.4128 H   0  0  0  0  0  0  0  0  0  0  0  0
  150.0204  136.1164  153.5293 H   0  0  0  0  0  0  0  0  0  0  0  0
  148.7744  134.9004  155.6096 H   0  0  0  0  0  0  0  0  0  0  0  0
  151.6131  133.7782  155.3810 H   0  0  0  0  0  0  0  0  0  0  0  0
  150.9372  134.5666  156.7857 H   0  0  0  0  0  0  0  0  0  0  0  0
  150.9017  132.0857  157.0260 H   0  0  0  0  0  0  0  0  0  0  0  0
  149.2898  132.7576  157.0822 H   0  0  0  0  0  0  0  0  0  0  0  0
  150.6022  131.4245  154.6633 H   0  0  0  0  0  0  0  0  0  0  0  0
  149.3063  130.7582  155.6278 H   0  0  0  0  0  0  0  0  0  0  0  0
  148.4444  131.7659  153.5051 H   0  0  0  0  0  0  0  0  0  0  0  0
  147.7729  132.5597  154.9094 H   0  0  0  0  0  0  0  0  0  0  0  0
  148.4714  134.2505  153.2540 H   0  0  0  0  0  0  0  0  0  0  0  0
  150.0836  133.5791  153.1900 H   0  0  0  0  0  0  0  0  0  0  0  0
  1  2  1  0  0  0  0
  1 23  1  0  0  0  0
  1 24  1  0  0  0  0
  1 25  1  0  0  0  0
  2  3  1  0  0  0  0
  2 26  1  0  0  0  0
  2 27  1  0  0  0  0
  3 21  1  0  0  0  0
  3  4  1  0  0  0  0
  4  5  2  0  0  0  0
  4 28  1  0  0  0  0
  5  6  1  0  0  0  0
  5  8  1  0  0  0  0
  6  7  3  0  0  0  0
  8  9  2  0  0  0  0
  8 10  1  0  0  0  0
 10 11  1  0  0  0  0
 10 21  1  0  0  0  0
 11 12  1  0  0  0  0
 11 29  1  0  0  0  0
 11 30  1  0  0  0  0
 12 13  2  0  0  0  0
 12 14  1  0  0  0  0
 14 15  1  0  0  0  0
 14 31  1  0  0  0  0
 15 20  1  0  0  0  0
 15 16  1  0  0  0  0
 15 32  1  0  0  0  0
 16 17  1  0  0  0  0
 16 33  1  0  0  0  0
 16 34  1  0  0  0  0
 17 18  1  0  0  0  0
 17 35  1  0  0  0  0
 17 36  1  0  0  0  0
 18 19  1  0  0  0  0
 18 37  1  0  0  0  0
 18 38  1  0  0  0  0
 19 20  1  0  0  0  0
 19 39  1  0  0  0  0
 19 40  1  0  0  0  0
 20 41  1  0  0  0  0
 20 42  1  0  0  0  0
 21 22  2  0  0  0  0
M  END
> <s_m_source_file>
AV-unprocessed.smi

> <i_m_source_file_index>
1077

> <i_lp_mmshare_version>
43012

> <i_f3d_flags>
0

> <s_epik_input>
W0NIM11bQ0gyXW4xW2NIXWMoQyNOKWMoPU8pbihjMT1PKVtDSDJdQyg9TylbTkhdW0NIXTJbQ0gyXVtDSDJdW0NIMl1bQ0gyXVtDSDJdMg==

> <s_epik_cmdline>
J2VwaWtfcHl0aG9uJywgJy1waCcsICc3LjAnLCAnLXRuJywgJzgnLCAnLW1hJywgJzIwMCcsICctbWV0YWxfYmluZGluZycsICctaW1hZScsICc8aW5maWxlLm1hZT4nLCAnLW9tYWUnLCAnPG91dGZpbGUubWFlPic=

> <r_lp_tautomer_probability>
1

> <r_epik_Ionization_Penalty>
1.90876e-08

> <r_epik_Ionization_Penalty_Charging>
4.07395e-11

> <r_epik_Ionization_Penalty_Neutral>
1.90469e-08

> <r_epik_State_Penalty>
-0

> <r_epik_Charging_Adjusted_Penalty>
4.07395e-11

> <i_epik_Tot_Q>
0

> <i_epik_Tot_abs_Q>
0

> <r_epik_Metal_State_Penalty>
-0

> <b_epik_Metal_Only>
0

> <s_lp_Force_Field>
OPLS_2005

> <r_lp_Energy>
10.9803

> <b_lp_Chiralities_Consistent>
1

> <s_lp_Variant>
AV-unprocessed.smi:1077-1

> <Gold.Version>
5.8.1

> <Gold.Id.Protein>
6NUR|6NUR_protein|mol2

> <Gold.PLP.Fitness>
44.8978

> <Gold.PLP.PLP>
-38.7285

> <Gold.PLP.part.hbond>
-2.7748

> <Gold.PLP.part.metal>
0.0000

> <Gold.PLP.part.buried>
-4.6183

> <Gold.PLP.part.nonpolar>
-35.6314

> <Gold.PLP.part.repulsive>
4.0626

> <Gold.PLP.ligand.clash>
0.0000

> <Gold.PLP.ligand.torsion>
0.6795

> <Gold.PLP.Chemscore.Hbond>
1.5000

> <Gold.PLP.Chemscore.CHOScore>
1.0000

> <Gold.PLP.Chemscore.Metal>
0.0000

> <Gold.Chemscore.Hbonds>
donor molecule, donor type, donor heavy atom, donor atom, acceptor molecule, acceptor atom, score
      L1  H    14    31       P1  7948  0.60
      P1  H  7997  8010       L1     9  1.00
      L1  C     4    28       P1  8028  1.00

> <Gold.PLP.Chemscore.Internal.Correction>
0.0282

> <Gold.Rescore>
     Score         DG    S(hbond)    S(metal)    S(lipo)     H(rot)  DE(clash)    DE(int)     intcor
     10.68     -13.09       1.74        0.00      53.81       1.75       0.29       2.11       ----

> <Gold.Chemscore.Fitness>
10.6778

> <Gold.Chemscore.DG>
-13.0854

> <Gold.Chemscore.ZeroCoef>
-5.4800

> <Gold.Chemscore.Hbond>
1.7351

> <Gold.Chemscore.Metal>
0.0000

> <Gold.Chemscore.Lipo>
53.8052

> <Gold.Chemscore.Internal_Hbond>
0.0000

> <Gold.Chemscore.DEClash>
0.2946

> <Gold.Chemscore.DEInternal>
2.1130

> <Gold.Chemscore.Rot>
1.7520

> <Gold.Chemscore.Internal.Correction>
   9.000000E+99

> <Gold.Chemscore.Hbonds>
donor molecule, donor type, donor heavy atom, donor atom, acceptor molecule, acceptor atom, score
      L1  H    14    31       P1  7948  0.04
      P1  H  7997  8010       L1     9  0.98

> <Gold.Chemscore.Hbond.Weighted>
-5.7954

> <Gold.Chemscore.Metal.Weighted>
-0.0000

> <Gold.Chemscore.Lipo.Weighted>
-6.2952

> <Gold.Chemscore.Internal_Hbond.Weighted>
0.0000

> <Gold.Chemscore.DEClash.Weighted>
0.2946

> <Gold.Chemscore.DEInternal.Weighted>
2.1130

> <Gold.Chemscore.Rot.Weighted>
4.4852

> <Gold.Chemscore.Internal.Correction.Weighted>
   9.000000E+99

> <Gold.Protein.RotatedTorsions>
[ 6907 6896 6895 6894 ] final  117.33 input  -60.11 | X-H torsion
[ 7974 7965 7964 7962 ] final  144.18 input  175.53 | X-H torsion
[ 8008 7997 7996 7995 ] final   55.28 input   59.86 | X-H torsion
[ 10167 10162 10161 10158 ] final -139.23 input  -65.29 | X-H torsion
[ 10718 10713 10712 10709 ] final -152.09 input   66.30 | X-H torsion
[ 10763 10752 10751 10750 ] final  100.01 input  -60.55 | X-H torsion
[ 11005 11000 10999 10996 ] final  165.76 input  -57.11 | X-H torsion

> <Gold.Protein.ActiveResidues>
 VAL166  LYS551  ARG553  GLY616  TRP617  ASP618  TYR619  PRO620  LYS621  CYS622 
 ASP623  PHE694  ASN695  SER759  ASP760  ASP761  ALA762  ILE779  LEU786  VAL792 
 PHE793  MET794  SER795  GLU796  ALA797  LYS798  CYS799  TRP800  GLU811  SER814 

> <Gold.Protein.RotatedAtoms>
  152.4619  133.7840  159.6865 H   0  0  0  0  0  0  0  0  0  0  0  0  # atno 6907 bound_to 6896
  150.8566  133.7696  159.3013 H   0  0  0  0  0  0  0  0  0  0  0  0  # atno 6908 bound_to 6896
  151.5274  135.1071  159.9946 H   0  0  0  0  0  0  0  0  0  0  0  0  # atno 6909 bound_to 6896
  144.8858  139.5631  143.5822 H   0  0  0  0  0  0  0  0  0  0  0  0  # atno 7974 bound_to 7965
  155.4985  140.3473  155.4367 H   0  0  0  0  0  0  0  0  0  0  0  0  # atno 8008 bound_to 7997
  156.0930  140.1415  156.9596 H   0  0  0  0  0  0  0  0  0  0  0  0  # atno 8009 bound_to 7997
  154.4646  140.0922  156.6963 H   0  0  0  0  0  0  0  0  0  0  0  0  # atno 8010 bound_to 7997
  139.8400  143.7334  152.2663 H   0  0  0  0  0  0  0  0  0  0  0  0  # atno 10167 bound_to 10162
  156.4678  130.8244  151.2474 H   0  0  0  0  0  0  0  0  0  0  0  0  # atno 10718 bound_to 10713
  153.3086  135.4093  155.1316 H   0  0  0  0  0  0  0  0  0  0  0  0  # atno 10763 bound_to 10752
  154.8569  135.3559  154.5754 H   0  0  0  0  0  0  0  0  0  0  0  0  # atno 10764 bound_to 10752
  153.6182  135.7065  153.5379 H   0  0  0  0  0  0  0  0  0  0  0  0  # atno 10765 bound_to 10752
  140.2594  134.7914  157.3576 H   0  0  0  0  0  0  0  0  0  0  0  0  # atno 11005 bound_to 11000
  146.3023  139.7467  142.9082 LP  0  0  0  0  0  0  0  0  0  0  0  0  # atno 17320 bound_to 7965
  145.3872  141.0367  143.3144 LP  0  0  0  0  0  0  0  0  0  0  0  0  # atno 17321 bound_to 7965
  139.7568  144.7518  151.0423 LP  0  0  0  0  0  0  0  0  0  0  0  0  # atno 17342 bound_to 10162
  140.7799  143.4796  151.0036 LP  0  0  0  0  0  0  0  0  0  0  0  0  # atno 17343 bound_to 10162
  157.7493  131.0086  150.3234 LP  0  0  0  0  0  0  0  0  0  0  0  0  # atno 17370 bound_to 10713
  156.3649  130.3853  149.7221 LP  0  0  0  0  0  0  0  0  0  0  0  0  # atno 17371 bound_to 10713
  140.1479  134.4887  155.7983 LP  0  0  0  0  0  0  0  0  0  0  0  0  # atno 17394 bound_to 11000
  141.2192  133.6851  156.7326 LP  0  0  0  0  0  0  0  0  0  0  0  0  # atno 17395 bound_to 11000

$$$$
