AV-unprocessed.smi:212|AV-procd|sdf|1622|dock1
  -GOLD-   2262019553D 1   1.00000     0.00000
 Structure written by MMmdl.
 65 68  0  0  0  0  0  0  0  0  2 V2000
  148.3094  131.0397  153.2135 C   0  0  0  0  0  0  0  0  0  0  0  0
  148.6502  132.5368  153.3040 C   0  0  1  0  0  0  0  0  0  0  0  0
  148.1434  133.3256  152.0772 C   0  0  0  0  0  0  0  0  0  0  0  0
  146.6658  133.4871  152.0970 N   0  3  2  0  0  0  0  0  0  0  0  0
  146.1323  134.1406  150.8725 C   0  0  0  0  0  0  0  0  0  0  0  0
  144.8052  133.5099  150.3885 C   0  0  0  0  0  0  0  0  0  0  0  0
  145.0808  132.1570  149.7116 C   0  0  0  0  0  0  0  0  0  0  0  0
  143.7893  133.3364  151.5329 C   0  0  0  0  0  0  0  0  0  0  0  0
  144.2261  134.3408  149.4021 O   0  0  0  0  0  0  0  0  0  0  0  0
  146.1889  134.1178  153.3548 C   0  0  0  0  0  0  0  0  0  0  0  0
  146.6850  133.3383  154.5861 C   0  0  0  0  0  0  0  0  0  0  0  0
  148.1334  133.1337  154.5377 N   0  0  0  0  0  0  0  0  0  0  0  0
  148.9428  134.0418  155.1436 C   0  0  0  0  0  0  0  0  0  0  0  0
  150.1701  133.6653  155.5920 N   0  0  0  0  0  0  0  0  0  0  0  0
  150.9688  134.5482  156.1981 C   0  0  0  0  0  0  0  0  0  0  0  0
  150.7452  135.8387  156.4501 N   0  0  0  0  0  0  0  0  0  0  0  0
  149.5207  136.2274  155.9935 C   0  0  0  0  0  0  0  0  0  0  0  0
  148.5642  135.4005  155.3391 C   0  0  0  0  0  0  0  0  0  0  0  0
  147.4363  136.1466  155.0170 N   0  0  0  0  0  0  0  0  0  0  0  0
  147.7093  137.3448  155.4571 C   0  0  0  0  0  0  0  0  0  0  0  0
  148.9452  137.4849  156.0466 N   0  0  0  0  0  0  0  0  0  0  0  0
  149.5059  138.7031  156.6062 C   0  0  0  0  0  0  0  0  0  0  0  0
  150.0462  139.6812  155.5334 C   0  0  1  0  0  0  0  0  0  0  0  0
  148.9021  140.1490  154.6025 C   0  0  0  0  0  0  0  0  0  0  0  0
  149.4196  140.8587  153.4962 O   0  0  0  0  0  0  0  0  0  0  0  0
  150.8694  140.8522  156.1430 C   0  0  2  0  0  0  0  0  0  0  0  0
  151.9641  140.4517  157.1295 C   0  0  0  0  0  0  0  0  0  0  0  0
  151.9890  141.6242  158.1000 C   0  0  0  0  0  0  0  0  0  0  0  0
  150.6158  141.9538  158.2176 O   0  0  0  0  0  0  0  0  0  0  0  0
  150.0476  141.9004  156.9152 C   0  0  0  0  0  0  0  0  0  0  0  0
  148.7519  130.5932  152.3229 H   0  0  0  0  0  0  0  0  0  0  0  0
  147.2345  130.8646  153.1678 H   0  0  0  0  0  0  0  0  0  0  0  0
  148.6989  130.5000  154.0774 H   0  0  0  0  0  0  0  0  0  0  0  0
  149.7379  132.6054  153.2914 H   0  0  0  0  0  0  0  0  0  0  0  0
  148.6043  134.3146  152.0607 H   0  0  0  0  0  0  0  0  0  0  0  0
  148.4518  132.8200  151.1611 H   0  0  0  0  0  0  0  0  0  0  0  0
  146.0126  135.2127  151.0385 H   0  0  0  0  0  0  0  0  0  0  0  0
  146.8613  134.0552  150.0652 H   0  0  0  0  0  0  0  0  0  0  0  0
  145.5251  131.4486  150.4118 H   0  0  0  0  0  0  0  0  0  0  0  0
  145.7691  132.2630  148.8719 H   0  0  0  0  0  0  0  0  0  0  0  0
  144.1640  131.7069  149.3289 H   0  0  0  0  0  0  0  0  0  0  0  0
  144.1976  132.7133  152.3294 H   0  0  0  0  0  0  0  0  0  0  0  0
  142.8736  132.8599  151.1806 H   0  0  0  0  0  0  0  0  0  0  0  0
  143.5057  134.2925  151.9746 H   0  0  0  0  0  0  0  0  0  0  0  0
  144.7489  134.2863  148.6160 H   0  0  0  0  0  0  0  0  0  0  0  0
  146.5403  135.1497  153.3951 H   0  0  0  0  0  0  0  0  0  0  0  0
  145.1000  134.1579  153.3675 H   0  0  0  0  0  0  0  0  0  0  0  0
  146.3915  133.8465  155.5056 H   0  0  0  0  0  0  0  0  0  0  0  0
  146.2006  132.3625  154.6215 H   0  0  0  0  0  0  0  0  0  0  0  0
  151.9241  134.1667  156.5276 H   0  0  0  0  0  0  0  0  0  0  0  0
  147.0169  138.1680  155.3547 H   0  0  0  0  0  0  0  0  0  0  0  0
  148.7277  139.1822  157.2013 H   0  0  0  0  0  0  0  0  0  0  0  0
  150.3010  138.4343  157.3026 H   0  0  0  0  0  0  0  0  0  0  0  0
  150.7485  139.1199  154.9148 H   0  0  0  0  0  0  0  0  0  0  0  0
  148.3230  139.3031  154.2317 H   0  0  0  0  0  0  0  0  0  0  0  0
  148.2054  140.8074  155.1194 H   0  0  0  0  0  0  0  0  0  0  0  0
  149.3648  140.3052  152.7320 H   0  0  0  0  0  0  0  0  0  0  0  0
  151.3489  141.3998  155.3310 H   0  0  0  0  0  0  0  0  0  0  0  0
  151.7043  139.5448  157.6736 H   0  0  0  0  0  0  0  0  0  0  0  0
  152.9288  140.2876  156.6499 H   0  0  0  0  0  0  0  0  0  0  0  0
  152.4279  141.3664  159.0639 H   0  0  0  0  0  0  0  0  0  0  0  0
  152.5384  142.4697  157.6821 H   0  0  0  0  0  0  0  0  0  0  0  0
  150.1472  142.8799  156.4448 H   0  0  0  0  0  0  0  0  0  0  0  0
  148.9829  141.6750  156.9688 H   0  0  0  0  0  0  0  0  0  0  0  0
  146.2903  132.5494  152.0912 H   0  0  0  0  0  0  0  0  0  0  0  0
  1  2  1  0  0  0  0
  1 31  1  0  0  0  0
  1 32  1  0  0  0  0
  1 33  1  0  0  0  0
  2 12  1  0  0  0  0
  2  3  1  0  0  0  0
  2 34  1  0  0  0  0
  3  4  1  0  0  0  0
  3 35  1  0  0  0  0
  3 36  1  0  0  0  0
  4  5  1  0  0  0  0
  4 10  1  0  0  0  0
  4 65  1  0  0  0  0
  5  6  1  0  0  0  0
  5 37  1  0  0  0  0
  5 38  1  0  0  0  0
  6  7  1  0  0  0  0
  6  8  1  0  0  0  0
  6  9  1  0  0  0  0
  7 39  1  0  0  0  0
  7 40  1  0  0  0  0
  7 41  1  0  0  0  0
  8 42  1  0  0  0  0
  8 43  1  0  0  0  0
  8 44  1  0  0  0  0
  9 45  1  0  0  0  0
 10 11  1  0  0  0  0
 10 46  1  0  0  0  0
 10 47  1  0  0  0  0
 11 12  1  0  0  0  0
 11 48  1  0  0  0  0
 11 49  1  0  0  0  0
 12 13  1  0  0  0  0
 13 18  1  0  0  0  0
 13 14  2  0  0  0  0
 14 15  1  0  0  0  0
 15 16  2  0  0  0  0
 15 50  1  0  0  0  0
 16 17  1  0  0  0  0
 17 21  1  0  0  0  0
 17 18  2  0  0  0  0
 18 19  1  0  0  0  0
 19 20  2  0  0  0  0
 20 21  1  0  0  0  0
 20 51  1  0  0  0  0
 21 22  1  0  0  0  0
 22 23  1  0  0  0  0
 22 52  1  0  0  0  0
 22 53  1  0  0  0  0
 23 24  1  0  0  0  0
 23 26  1  0  0  0  0
 23 54  1  0  0  0  0
 24 25  1  0  0  0  0
 24 55  1  0  0  0  0
 24 56  1  0  0  0  0
 25 57  1  0  0  0  0
 26 30  1  0  0  0  0
 26 27  1  0  0  0  0
 26 58  1  0  0  0  0
 27 28  1  0  0  0  0
 27 59  1  0  0  0  0
 27 60  1  0  0  0  0
 28 29  1  0  0  0  0
 28 61  1  0  0  0  0
 28 62  1  0  0  0  0
 29 30  1  0  0  0  0
 30 63  1  0  0  0  0
 30 64  1  0  0  0  0
M  CHG  1   4   1
M  END
> <s_m_source_file>
AV-unprocessed.smi

> <i_m_source_file_index>
212

> <i_lp_mmshare_version>
43012

> <i_f3d_flags>
0

> <s_epik_input>
W0NIM11bQ0BASF0xW0NIMl1OKFtDSDJdQyhbQ0gzXSkoW0NIM10pW09IXSlbQ0gyXVtDSDJdTjFjKG5bY0hdbjIpYyhjMjMpbltjSF1uM1tDSDJdW0NASF0oW0NIMl1bT0hdKVtDQEBIXTRbQ0gyXVtDSDJdT1tDSDJdNA==

> <s_epik_cmdline>
J2VwaWtfcHl0aG9uJywgJy1waCcsICc3LjAnLCAnLXRuJywgJzgnLCAnLW1hJywgJzIwMCcsICctbWV0YWxfYmluZGluZycsICctaW1hZScsICc8aW5maWxlLm1hZT4nLCAnLW9tYWUnLCAnPG91dGZpbGUubWFlPic=

> <r_lp_tautomer_probability>
1

> <r_epik_Ionization_Penalty>
0.00182193

> <r_epik_Ionization_Penalty_Charging>
0.00173996

> <r_epik_Ionization_Penalty_Neutral>
8.19718e-05

> <r_epik_State_Penalty>
-0

> <r_epik_Charging_Adjusted_Penalty>
0.00173996

> <i_epik_Tot_Q>
1

> <i_epik_Tot_abs_Q>
1

> <r_epik_Metal_State_Penalty>
-0

> <b_epik_Metal_Only>
0

> <s_lp_Force_Field>
OPLS_2005

> <r_lp_Energy>
60.7413

> <b_lp_Chiralities_Consistent>
1

> <s_lp_Variant>
AV-unprocessed.smi:212-6

> <Gold.Version>
5.8.1

> <Gold.Id.Protein>
6NUR|6NUR_protein|mol2

> <Gold.PLP.Fitness>
47.4002

> <Gold.PLP.PLP>
-40.8036

> <Gold.PLP.part.hbond>
-4.3901

> <Gold.PLP.part.metal>
0.0000

> <Gold.PLP.part.buried>
-6.9548

> <Gold.PLP.part.nonpolar>
-29.2580

> <Gold.PLP.part.repulsive>
0.1405

> <Gold.PLP.ligand.clash>
0.0000

> <Gold.PLP.ligand.torsion>
1.6806

> <Gold.PLP.Chemscore.Hbond>
2.9167

> <Gold.PLP.Chemscore.CHOScore>
0.0000

> <Gold.PLP.Chemscore.Metal>
0.0000

> <Gold.Chemscore.Hbonds>
donor molecule, donor type, donor heavy atom, donor atom, acceptor molecule, acceptor atom, score
      L1  H     9    45       P1  7921  1.00
      L1  H    25    57       P1  7957  1.00
      P1  H  7989  7998       L1    25  0.13
      P1  H  8011  8017       L1    25  0.45

> <Gold.PLP.Chemscore.Internal.Correction>
1.2077

> <Gold.Rescore>
     Score         DG    S(hbond)    S(metal)    S(lipo)     H(rot)  DE(clash)    DE(int)     intcor
     10.66     -14.99       2.10        0.00      95.75       3.40       0.05       4.28       ----

> <Gold.Chemscore.Fitness>
10.6559

> <Gold.Chemscore.DG>
-14.9885

> <Gold.Chemscore.ZeroCoef>
-5.4800

> <Gold.Chemscore.Hbond>
2.0977

> <Gold.Chemscore.Metal>
0.0000

> <Gold.Chemscore.Lipo>
95.7490

> <Gold.Chemscore.Internal_Hbond>
0.0000

> <Gold.Chemscore.DEClash>
0.0540

> <Gold.Chemscore.DEInternal>
4.2786

> <Gold.Chemscore.Rot>
3.3986

> <Gold.Chemscore.Internal.Correction>
   9.000000E+99

> <Gold.Chemscore.Hbonds>
donor molecule, donor type, donor heavy atom, donor atom, acceptor molecule, acceptor atom, score
      L1  H     9    45       P1  7921  0.96
      L1  H    25    57       P1  7957  0.94
      P1  H  7989  7998       L1    25  0.01
      P1  H  8011  8017       L1    25  0.02

> <Gold.Chemscore.Hbond.Weighted>
-7.0063

> <Gold.Chemscore.Metal.Weighted>
-0.0000

> <Gold.Chemscore.Lipo.Weighted>
-11.2026

> <Gold.Chemscore.Internal_Hbond.Weighted>
0.0000

> <Gold.Chemscore.DEClash.Weighted>
0.0540

> <Gold.Chemscore.DEInternal.Weighted>
4.2786

> <Gold.Chemscore.Rot.Weighted>
8.7005

> <Gold.Chemscore.Internal.Correction.Weighted>
   9.000000E+99

> <Gold.Protein.RotatedTorsions>
[ 6907 6896 6895 6894 ] final  153.56 input  -60.11 | X-H torsion
[ 7974 7965 7964 7962 ] final   68.42 input  175.53 | X-H torsion
[ 8008 7997 7996 7995 ] final   43.78 input   59.86 | X-H torsion
[ 10167 10162 10161 10158 ] final   25.33 input  -65.29 | X-H torsion
[ 10718 10713 10712 10709 ] final   72.87 input   66.30 | X-H torsion
[ 10763 10752 10751 10750 ] final   16.05 input  -60.55 | X-H torsion
[ 11005 11000 10999 10996 ] final -162.70 input  -57.11 | X-H torsion

> <Gold.Protein.ActiveResidues>
 VAL166  LYS551  ARG553  GLY616  TRP617  ASP618  TYR619  PRO620  LYS621  CYS622 
 ASP623  PHE694  ASN695  SER759  ASP760  ASP761  ALA762  ILE779  LEU786  VAL792 
 PHE793  MET794  SER795  GLU796  ALA797  LYS798  CYS799  TRP800  GLU811  SER814 

> <Gold.Protein.RotatedAtoms>
  152.0709  133.4106  159.4458 H   0  0  0  0  0  0  0  0  0  0  0  0  # atno 6907 bound_to 6896
  150.6863  134.3093  159.4748 H   0  0  0  0  0  0  0  0  0  0  0  0  # atno 6908 bound_to 6896
  152.0924  134.9397  160.0622 H   0  0  0  0  0  0  0  0  0  0  0  0  # atno 6909 bound_to 6896
  145.8028  139.2991  143.1145 H   0  0  0  0  0  0  0  0  0  0  0  0  # atno 7974 bound_to 7965
  155.3084  140.3389  155.4245 H   0  0  0  0  0  0  0  0  0  0  0  0  # atno 8008 bound_to 7997
  156.1968  140.1718  156.8020 H   0  0  0  0  0  0  0  0  0  0  0  0  # atno 8009 bound_to 7997
  154.5508  140.0706  156.8649 H   0  0  0  0  0  0  0  0  0  0  0  0  # atno 8010 bound_to 7997
  140.5115  144.0153  150.6374 H   0  0  0  0  0  0  0  0  0  0  0  0  # atno 10167 bound_to 10162
  157.6521  130.9600  150.0989 H   0  0  0  0  0  0  0  0  0  0  0  0  # atno 10718 bound_to 10713
  153.1467  135.6770  153.8944 H   0  0  0  0  0  0  0  0  0  0  0  0  # atno 10763 bound_to 10752
  153.8383  135.3108  155.3425 H   0  0  0  0  0  0  0  0  0  0  0  0  # atno 10764 bound_to 10752
  154.7830  135.4877  153.9971 H   0  0  0  0  0  0  0  0  0  0  0  0  # atno 10765 bound_to 10752
  140.6064  134.4895  157.5211 H   0  0  0  0  0  0  0  0  0  0  0  0  # atno 11005 bound_to 11000
  145.9860  140.8643  143.0090 LP  0  0  0  0  0  0  0  0  0  0  0  0  # atno 17320 bound_to 7965
  144.6766  140.2147  143.7373 LP  0  0  0  0  0  0  0  0  0  0  0  0  # atno 17321 bound_to 7965
  140.3477  143.2982  152.0521 LP  0  0  0  0  0  0  0  0  0  0  0  0  # atno 17342 bound_to 10162
  139.4897  144.6397  151.6903 LP  0  0  0  0  0  0  0  0  0  0  0  0  # atno 17343 bound_to 10162
  156.1917  130.3655  149.8901 LP  0  0  0  0  0  0  0  0  0  0  0  0  # atno 17370 bound_to 10713
  156.6828  130.8865  151.3578 LP  0  0  0  0  0  0  0  0  0  0  0  0  # atno 17371 bound_to 10713
  139.9211  134.8148  156.1210 LP  0  0  0  0  0  0  0  0  0  0  0  0  # atno 17394 bound_to 11000
  141.0838  133.6743  156.2392 LP  0  0  0  0  0  0  0  0  0  0  0  0  # atno 17395 bound_to 11000

$$$$
