AV-unprocessed.smi:109|AV-procd|sdf|1053|dock9
  -GOLD-   2262018113D 1   1.00000     0.00000
 Structure written by MMmdl.
 58 61  0  0  0  0  0  0  0  0  1 V2000
  139.9861  141.3245  156.5611 O   0  0  0  0  0  0  0  0  0  0  0  0
  141.2705  141.2046  157.1336 C   0  0  0  0  0  0  0  0  0  0  0  0
  142.2771  140.7378  156.0681 C   0  0  0  0  0  0  0  0  0  0  0  0
  142.2020  139.2259  155.7392 C   0  0  2  0  0  0  0  0  0  0  0  0
  143.2326  138.8865  154.7555 N   0  0  0  0  0  0  0  0  0  0  0  0
  143.9361  137.7333  154.8109 C   0  0  0  0  0  0  0  0  0  0  0  0
  144.8585  137.5069  155.7824 N   0  0  0  0  0  0  0  0  0  0  0  0
  145.5442  136.3597  155.8019 C   0  0  0  0  0  0  0  0  0  0  0  0
  145.4636  135.3250  154.9621 N   0  0  0  0  0  0  0  0  0  0  0  0
  144.5358  135.5483  153.9874 C   0  0  0  0  0  0  0  0  0  0  0  0
  143.7372  136.7158  153.8430 C   0  0  0  0  0  0  0  0  0  0  0  0
  142.9112  136.5859  152.7338 N   0  0  0  0  0  0  0  0  0  0  0  0
  143.2091  135.4078  152.2541 C   0  0  0  0  0  0  0  0  0  0  0  0
  144.1816  134.7184  152.9478 N   0  0  0  0  0  0  0  0  0  0  0  0
  144.7651  133.3708  152.6739 C   0  0  1  0  0  0  0  0  0  0  0  0
  144.0468  132.8064  151.6167 O   0  0  0  0  0  0  0  0  0  0  0  0
  144.9127  132.4862  150.5335 C   0  0  1  0  0  0  0  0  0  0  0  0
  144.1699  132.5642  149.1878 C   0  0  0  0  0  0  0  0  0  0  0  0
  142.8580  132.0610  149.3228 O   0  0  0  0  0  0  0  0  0  0  0  0
  146.1366  133.3951  150.7130 C   0  0  1  0  0  0  0  0  0  0  0  0
  145.9434  134.6653  150.1180 O   0  0  0  0  0  0  0  0  0  0  0  0
  146.2278  133.5273  152.2262 C   0  0  2  0  0  0  0  0  0  0  0  0
  147.0413  132.5112  152.7769 O   0  0  0  0  0  0  0  0  0  0  0  0
  140.8144  138.7715  155.2017 C   0  0  0  0  0  0  0  0  0  0  0  0
  140.7855  137.2901  154.7485 C   0  0  0  0  0  0  0  0  0  0  0  0
  139.4182  136.8757  154.1803 C   0  0  0  0  0  0  0  0  0  0  0  0
  138.9925  137.7852  153.0218 C   0  0  0  0  0  0  0  0  0  0  0  0
  138.9852  139.2527  153.4651 C   0  0  0  0  0  0  0  0  0  0  0  0
  140.3544  139.6694  154.0242 C   0  0  0  0  0  0  0  0  0  0  0  0
  144.6297  132.8171  153.6042 H   0  0  0  0  0  0  0  0  0  0  0  0
  145.2296  131.4550  150.7009 H   0  0  0  0  0  0  0  0  0  0  0  0
  147.0348  132.9564  150.2761 H   0  0  0  0  0  0  0  0  0  0  0  0
  146.6394  134.4879  152.5415 H   0  0  0  0  0  0  0  0  0  0  0  0
  140.0146  140.9766  155.6831 H   0  0  0  0  0  0  0  0  0  0  0  0
  141.5541  142.1713  157.5499 H   0  0  0  0  0  0  0  0  0  0  0  0
  141.2243  140.4922  157.9577 H   0  0  0  0  0  0  0  0  0  0  0  0
  142.0724  141.3201  155.1711 H   0  0  0  0  0  0  0  0  0  0  0  0
  143.2899  140.9969  156.3800 H   0  0  0  0  0  0  0  0  0  0  0  0
  142.3656  138.6803  156.6684 H   0  0  0  0  0  0  0  0  0  0  0  0
  143.3840  139.5771  154.0343 H   0  0  0  0  0  0  0  0  0  0  0  0
  146.2606  136.2571  156.6038 H   0  0  0  0  0  0  0  0  0  0  0  0
  142.7254  135.0131  151.3724 H   0  0  0  0  0  0  0  0  0  0  0  0
  144.1023  133.6026  148.8629 H   0  0  0  0  0  0  0  0  0  0  0  0
  144.6973  132.0220  148.4031 H   0  0  0  0  0  0  0  0  0  0  0  0
  142.2663  132.7895  149.4337 H   0  0  0  0  0  0  0  0  0  0  0  0
  146.0975  134.5875  149.1890 H   0  0  0  0  0  0  0  0  0  0  0  0
  147.2311  132.7321  153.6760 H   0  0  0  0  0  0  0  0  0  0  0  0
  140.0889  138.8804  156.0096 H   0  0  0  0  0  0  0  0  0  0  0  0
  141.5602  137.1182  154.0001 H   0  0  0  0  0  0  0  0  0  0  0  0
  141.0036  136.6252  155.5826 H   0  0  0  0  0  0  0  0  0  0  0  0
  139.4554  135.8392  153.8435 H   0  0  0  0  0  0  0  0  0  0  0  0
  138.6674  136.9161  154.9705 H   0  0  0  0  0  0  0  0  0  0  0  0
  139.6771  137.6569  152.1824 H   0  0  0  0  0  0  0  0  0  0  0  0
  138.0036  137.4972  152.6642 H   0  0  0  0  0  0  0  0  0  0  0  0
  138.7172  139.8927  152.6240 H   0  0  0  0  0  0  0  0  0  0  0  0
  138.2178  139.4033  154.2252 H   0  0  0  0  0  0  0  0  0  0  0  0
  140.2937  140.7130  154.3332 H   0  0  0  0  0  0  0  0  0  0  0  0
  141.0966  139.6327  153.2254 H   0  0  0  0  0  0  0  0  0  0  0  0
  1  2  1  0  0  0  0
  1 34  1  0  0  0  0
  2  3  1  0  0  0  0
  2 35  1  0  0  0  0
  2 36  1  0  0  0  0
  3  4  1  0  0  0  0
  3 37  1  0  0  0  0
  3 38  1  0  0  0  0
  4  5  1  0  0  0  0
  4 24  1  0  0  0  0
  4 39  1  0  0  0  0
  5  6  1  0  0  0  0
  5 40  1  0  0  0  0
  6 11  1  0  0  0  0
  6  7  2  0  0  0  0
  7  8  1  0  0  0  0
  8  9  2  0  0  0  0
  8 41  1  0  0  0  0
  9 10  1  0  0  0  0
 10 14  1  0  0  0  0
 10 11  2  0  0  0  0
 11 12  1  0  0  0  0
 12 13  2  0  0  0  0
 13 14  1  0  0  0  0
 13 42  1  0  0  0  0
 14 15  1  0  0  0  0
 15 30  1  0  0  0  0
 15 22  1  0  0  0  0
 15 16  1  0  0  0  0
 16 17  1  0  0  0  0
 17 31  1  0  0  0  0
 17 18  1  0  0  0  0
 17 20  1  0  0  0  0
 18 19  1  0  0  0  0
 18 43  1  0  0  0  0
 18 44  1  0  0  0  0
 19 45  1  0  0  0  0
 20 32  1  0  0  0  0
 20 21  1  0  0  0  0
 20 22  1  0  0  0  0
 21 46  1  0  0  0  0
 22 33  1  0  0  0  0
 22 23  1  0  0  0  0
 23 47  1  0  0  0  0
 24 29  1  0  0  0  0
 24 25  1  0  0  0  0
 24 48  1  0  0  0  0
 25 26  1  0  0  0  0
 25 49  1  0  0  0  0
 25 50  1  0  0  0  0
 26 27  1  0  0  0  0
 26 51  1  0  0  0  0
 26 52  1  0  0  0  0
 27 28  1  0  0  0  0
 27 53  1  0  0  0  0
 27 54  1  0  0  0  0
 28 29  1  0  0  0  0
 28 55  1  0  0  0  0
 28 56  1  0  0  0  0
 29 57  1  0  0  0  0
 29 58  1  0  0  0  0
M  END
> <s_m_source_file>
AV-unprocessed.smi

> <i_m_source_file_index>
109

> <i_lp_mmshare_version>
43012

> <i_f3d_flags>
0

> <s_epik_input>
W0NIMl0xW0NIMl1bQ0gyXVtDSDJdW0NIMl1bQ0hdMVtDQEhdKFtDSDJdW0NIMl1bT0hdKVtOSF1jKG5bY0hdbjIpYyhjMjMpbltjSF1uM1tDQEBIXTRPW0NASF0oW0NIMl1bT0hdKVtDQEBIXShbT0hdKVtDQEhdNFtPSF0=

> <s_epik_cmdline>
J2VwaWtfcHl0aG9uJywgJy1waCcsICc3LjAnLCAnLXRuJywgJzgnLCAnLW1hJywgJzIwMCcsICctbWV0YWxfYmluZGluZycsICctaW1hZScsICc8aW5maWxlLm1hZT4nLCAnLW9tYWUnLCAnPG91dGZpbGUubWFlPic=

> <r_lp_tautomer_probability>
1

> <r_epik_Ionization_Penalty>
0.000793976

> <r_epik_Ionization_Penalty_Charging>
0

> <r_epik_Ionization_Penalty_Neutral>
0.000793976

> <r_epik_State_Penalty>
-0

> <r_epik_Charging_Adjusted_Penalty>
0

> <i_epik_Tot_Q>
0

> <i_epik_Tot_abs_Q>
0

> <r_epik_Metal_State_Penalty>
-0

> <b_epik_Metal_Only>
0

> <s_epik_Chemistry_Notes>
This compound contains an acetal/aminal-like group ( X-CH(R)-Y where X, Y are N, S, or O) that may be acid/base labile, releasing an aldehyde.

> <s_lp_Force_Field>
OPLS_2005

> <r_lp_Energy>
46.6527

> <b_lp_Chiralities_Consistent>
1

> <s_lp_Variant>
AV-unprocessed.smi:109-23

> <Gold.Version>
5.8.1

> <Gold.Id.Protein>
6NUR|6NUR_protein|mol2

> <Gold.PLP.Fitness>
42.8938

> <Gold.PLP.PLP>
-33.2729

> <Gold.PLP.part.hbond>
-5.1798

> <Gold.PLP.part.metal>
0.0000

> <Gold.PLP.part.buried>
-4.0555

> <Gold.PLP.part.nonpolar>
-24.2799

> <Gold.PLP.part.repulsive>
0.4156

> <Gold.PLP.ligand.clash>
0.0000

> <Gold.PLP.ligand.torsion>
1.4484

> <Gold.PLP.Chemscore.Hbond>
3.9175

> <Gold.PLP.Chemscore.CHOScore>
0.1985

> <Gold.PLP.Chemscore.Metal>
0.0000

> <Gold.Chemscore.Hbonds>
donor molecule, donor type, donor heavy atom, donor atom, acceptor molecule, acceptor atom, score
      L1  H     5    40       P1 10175  1.00
      L1  H    19    45       P1 10186  0.94
      L1  H    21    46       P1  7921  1.00
      P1  H 10785 10796       L1    19  0.94
      L1  C    13    42       P1 10186  0.20

> <Gold.PLP.Chemscore.Internal.Correction>
0.1698

> <Gold.Rescore>
     Score         DG    S(hbond)    S(metal)    S(lipo)     H(rot)  DE(clash)    DE(int)     intcor
      7.41      -9.07       2.86        0.00      68.68       5.47       0.02       1.65       ----

> <Gold.Chemscore.Fitness>
7.4077

> <Gold.Chemscore.DG>
-9.0735

> <Gold.Chemscore.ZeroCoef>
-5.4800

> <Gold.Chemscore.Hbond>
2.8596

> <Gold.Chemscore.Metal>
0.0000

> <Gold.Chemscore.Lipo>
68.6844

> <Gold.Chemscore.Internal_Hbond>
0.0000

> <Gold.Chemscore.DEClash>
0.0183

> <Gold.Chemscore.DEInternal>
1.6475

> <Gold.Chemscore.Rot>
5.4662

> <Gold.Chemscore.Internal.Correction>
   9.000000E+99

> <Gold.Chemscore.Hbonds>
donor molecule, donor type, donor heavy atom, donor atom, acceptor molecule, acceptor atom, score
      L1  H     5    40       P1 10175  1.00
      L1  H    19    45       P1 10186  0.90
      L1  H    21    46       P1  7921  0.43
      P1  H 10785 10796       L1    19  0.20

> <Gold.Chemscore.Hbond.Weighted>
-9.5509

> <Gold.Chemscore.Metal.Weighted>
-0.0000

> <Gold.Chemscore.Lipo.Weighted>
-8.0361

> <Gold.Chemscore.Internal_Hbond.Weighted>
0.0000

> <Gold.Chemscore.DEClash.Weighted>
0.0183

> <Gold.Chemscore.DEInternal.Weighted>
1.6475

> <Gold.Chemscore.Rot.Weighted>
13.9935

> <Gold.Chemscore.Internal.Correction.Weighted>
   9.000000E+99

> <Gold.Protein.RotatedTorsions>
[ 6907 6896 6895 6894 ] final   29.80 input  -60.11 | X-H torsion
[ 7974 7965 7964 7962 ] final  -24.47 input  175.53 | X-H torsion
[ 8008 7997 7996 7995 ] final -155.13 input   59.86 | X-H torsion
[ 10167 10162 10161 10158 ] final   48.17 input  -65.29 | X-H torsion
[ 10718 10713 10712 10709 ] final   28.72 input   66.30 | X-H torsion
[ 10763 10752 10751 10750 ] final  -62.80 input  -60.55 | X-H torsion
[ 11005 11000 10999 10996 ] final -174.38 input  -57.11 | X-H torsion

> <Gold.Protein.ActiveResidues>
 VAL166  LYS551  ARG553  GLY616  TRP617  ASP618  TYR619  PRO620  LYS621  CYS622 
 ASP623  PHE694  ASN695  SER759  ASP760  ASP761  ALA762  ILE779  LEU786  VAL792 
 PHE793  MET794  SER795  GLU796  ALA797  LYS798  CYS799  TRP800  GLU811  SER814 

> <Gold.Protein.RotatedAtoms>
  152.0368  134.9735  160.0573 H   0  0  0  0  0  0  0  0  0  0  0  0  # atno 6907 bound_to 6896
  152.1190  133.4338  159.4674 H   0  0  0  0  0  0  0  0  0  0  0  0  # atno 6908 bound_to 6896
  150.6848  134.2477  159.4541 H   0  0  0  0  0  0  0  0  0  0  0  0  # atno 6909 bound_to 6896
  146.1553  140.4755  142.8594 H   0  0  0  0  0  0  0  0  0  0  0  0  # atno 7974 bound_to 7965
  155.6971  140.0762  157.2425 H   0  0  0  0  0  0  0  0  0  0  0  0  # atno 8008 bound_to 7997
  154.4079  140.1654  156.2203 H   0  0  0  0  0  0  0  0  0  0  0  0  # atno 8009 bound_to 7997
  155.9400  140.3385  155.6322 H   0  0  0  0  0  0  0  0  0  0  0  0  # atno 8010 bound_to 7997
  140.2961  144.2989  150.6229 H   0  0  0  0  0  0  0  0  0  0  0  0  # atno 10167 bound_to 10162
  157.2371  130.7051  149.6341 H   0  0  0  0  0  0  0  0  0  0  0  0  # atno 10718 bound_to 10713
  154.3053  135.6226  153.5442 H   0  0  0  0  0  0  0  0  0  0  0  0  # atno 10763 bound_to 10752
  152.9835  135.5688  154.5238 H   0  0  0  0  0  0  0  0  0  0  0  0  # atno 10764 bound_to 10752
  154.4876  135.2866  155.1498 H   0  0  0  0  0  0  0  0  0  0  0  0  # atno 10765 bound_to 10752
  140.4751  134.6128  157.4897 H   0  0  0  0  0  0  0  0  0  0  0  0  # atno 11005 bound_to 11000
  144.7955  140.6114  143.6513 LP  0  0  0  0  0  0  0  0  0  0  0  0  # atno 17320 bound_to 7965
  145.4724  139.1502  143.3807 LP  0  0  0  0  0  0  0  0  0  0  0  0  # atno 17321 bound_to 7965
  140.5691  143.2183  151.7630 LP  0  0  0  0  0  0  0  0  0  0  0  0  # atno 17342 bound_to 10162
  139.4926  144.4242  151.9944 LP  0  0  0  0  0  0  0  0  0  0  0  0  # atno 17343 bound_to 10162
  155.9672  130.4470  150.5563 LP  0  0  0  0  0  0  0  0  0  0  0  0  # atno 17370 bound_to 10713
  157.3417  131.0718  151.1782 LP  0  0  0  0  0  0  0  0  0  0  0  0  # atno 17371 bound_to 10713
  139.9861  134.7060  155.9772 LP  0  0  0  0  0  0  0  0  0  0  0  0  # atno 17394 bound_to 11000
  141.1558  133.6543  156.4157 LP  0  0  0  0  0  0  0  0  0  0  0  0  # atno 17395 bound_to 11000

$$$$
