AV-unprocessed.smi:1328|AV-procd|sdf|5482|dock5
  -GOLD-   22720 5 53D 1   1.00000     0.00000
 Structure written by MMmdl.
 38 39  0  0  0  0  0  0  0  0  1 V2000
  152.5156  137.9507  158.3170 C   0  0  0  0  0  0  0  0  0  0  0  0
  153.2040  137.7033  159.6288 C   0  0  0  0  0  0  0  0  0  0  0  0
  153.0176  136.5550  160.2578 N   0  0  0  0  0  0  0  0  0  0  0  0
  153.7829  136.6292  161.4258 O   0  0  0  0  0  0  0  0  0  0  0  0
  154.4058  137.8349  161.4550 C   0  0  0  0  0  0  0  0  0  0  0  0
  155.2846  138.1090  162.6284 C   0  0  0  0  0  0  0  0  0  0  0  0
  154.0805  138.5670  160.3466 C   0  0  0  0  0  0  0  0  0  0  0  0
  154.5399  139.9506  159.9671 C   0  0  0  0  0  0  0  0  0  0  0  0
  153.3910  140.9407  160.1571 C   0  0  0  0  0  0  0  0  0  0  0  0
  152.3314  140.7755  159.5531 O   0  0  0  0  0  0  0  0  0  0  0  0
  153.6142  141.9570  161.0053 N   0  0  0  0  0  0  0  0  0  0  0  0
  152.6513  142.9889  161.3843 C   0  0  1  0  0  0  0  0  0  0  0  0
  153.1125  143.6250  162.7036 C   0  0  0  0  0  0  0  0  0  0  0  0
  152.5075  144.0383  160.2626 C   0  0  1  0  0  0  0  0  0  0  0  0
  152.4010  143.4681  158.8471 C   0  0  0  0  0  0  0  0  0  0  0  0
  151.6796  144.5611  158.0754 C   0  0  0  0  0  0  0  0  0  0  0  0
  151.0593  145.4391  159.1660 C   0  0  0  0  0  0  0  0  0  0  0  0
  151.2793  144.7388  160.3829 O   0  0  0  0  0  0  0  0  0  0  0  0
  151.6895  138.6512  158.4382 H   0  0  0  0  0  0  0  0  0  0  0  0
  152.1121  137.0307  157.8928 H   0  0  0  0  0  0  0  0  0  0  0  0
  153.2049  138.3729  157.5859 H   0  0  0  0  0  0  0  0  0  0  0  0
  156.3349  138.0618  162.3404 H   0  0  0  0  0  0  0  0  0  0  0  0
  155.1184  137.3815  163.4232 H   0  0  0  0  0  0  0  0  0  0  0  0
  155.0893  139.1015  163.0344 H   0  0  0  0  0  0  0  0  0  0  0  0
  155.4008  140.2598  160.5618 H   0  0  0  0  0  0  0  0  0  0  0  0
  154.8632  139.9909  158.9265 H   0  0  0  0  0  0  0  0  0  0  0  0
  154.5215  142.0072  161.4452 H   0  0  0  0  0  0  0  0  0  0  0  0
  151.6755  142.5336  161.5633 H   0  0  0  0  0  0  0  0  0  0  0  0
  152.4010  144.3751  163.0494 H   0  0  0  0  0  0  0  0  0  0  0  0
  154.0817  144.1124  162.5931 H   0  0  0  0  0  0  0  0  0  0  0  0
  153.2042  142.8750  163.4900 H   0  0  0  0  0  0  0  0  0  0  0  0
  153.3274  144.7580  160.3090 H   0  0  0  0  0  0  0  0  0  0  0  0
  153.3712  143.2155  158.4184 H   0  0  0  0  0  0  0  0  0  0  0  0
  151.7896  142.5646  158.8517 H   0  0  0  0  0  0  0  0  0  0  0  0
  152.3737  145.1419  157.4670 H   0  0  0  0  0  0  0  0  0  0  0  0
  150.9235  144.1397  157.4123 H   0  0  0  0  0  0  0  0  0  0  0  0
  151.5624  146.4060  159.2108 H   0  0  0  0  0  0  0  0  0  0  0  0
  149.9956  145.6162  159.0061 H   0  0  0  0  0  0  0  0  0  0  0  0
  1  2  1  0  0  0  0
  1 19  1  0  0  0  0
  1 20  1  0  0  0  0
  1 21  1  0  0  0  0
  2  7  1  0  0  0  0
  2  3  2  0  0  0  0
  3  4  1  0  0  0  0
  4  5  1  0  0  0  0
  5  6  1  0  0  0  0
  5  7  2  0  0  0  0
  6 22  1  0  0  0  0
  6 23  1  0  0  0  0
  6 24  1  0  0  0  0
  7  8  1  0  0  0  0
  8  9  1  0  0  0  0
  8 25  1  0  0  0  0
  8 26  1  0  0  0  0
  9 10  2  0  0  0  0
  9 11  1  0  0  0  0
 11 12  1  0  0  0  0
 11 27  1  0  0  0  0
 12 13  1  0  0  0  0
 12 14  1  0  0  0  0
 12 28  1  0  0  0  0
 13 29  1  0  0  0  0
 13 30  1  0  0  0  0
 13 31  1  0  0  0  0
 14 18  1  0  0  0  0
 14 15  1  0  0  0  0
 14 32  1  0  0  0  0
 15 16  1  0  0  0  0
 15 33  1  0  0  0  0
 15 34  1  0  0  0  0
 16 17  1  0  0  0  0
 16 35  1  0  0  0  0
 16 36  1  0  0  0  0
 17 18  1  0  0  0  0
 17 37  1  0  0  0  0
 17 38  1  0  0  0  0
M  END
> <s_m_source_file>
AV-unprocessed.smi

> <i_m_source_file_index>
1328

> <i_lp_mmshare_version>
43012

> <i_f3d_flags>
0

> <s_epik_input>
W0NIM11jMW5vYyhbQ0gzXSljMVtDSDJdQyg9TylbTkhdW0NASF0oW0NIM10pW0NAQEhdMltDSDJdW0NIMl1bQ0gyXU8y

> <s_epik_cmdline>
J2VwaWtfcHl0aG9uJywgJy1waCcsICc3LjAnLCAnLXRuJywgJzgnLCAnLW1hJywgJzIwMCcsICctbWV0YWxfYmluZGluZycsICctaW1hZScsICc8aW5maWxlLm1hZT4nLCAnLW9tYWUnLCAnPG91dGZpbGUubWFlPic=

> <r_lp_tautomer_probability>
1

> <r_epik_Ionization_Penalty>
2.66156e-08

> <r_epik_Ionization_Penalty_Charging>
0

> <r_epik_Ionization_Penalty_Neutral>
2.66156e-08

> <r_epik_State_Penalty>
-0

> <r_epik_Charging_Adjusted_Penalty>
0

> <i_epik_Tot_Q>
0

> <i_epik_Tot_abs_Q>
0

> <r_epik_Metal_State_Penalty>
-0

> <b_epik_Metal_Only>
0

> <s_lp_Force_Field>
OPLS_2005

> <r_lp_Energy>
12.2386

> <b_lp_Chiralities_Consistent>
1

> <s_lp_Variant>
AV-unprocessed.smi:1328-4

> <Gold.Version>
5.8.1

> <Gold.Id.Protein>
6NUR|6NUR_protein|mol2

> <Gold.PLP.Fitness>
40.5331

> <Gold.PLP.PLP>
-38.9514

> <Gold.PLP.part.hbond>
-1.0000

> <Gold.PLP.part.metal>
0.0000

> <Gold.PLP.part.buried>
-5.4078

> <Gold.PLP.part.nonpolar>
-31.9516

> <Gold.PLP.part.repulsive>
0.1426

> <Gold.PLP.ligand.clash>
0.0000

> <Gold.PLP.ligand.torsion>
0.7264

> <Gold.PLP.Chemscore.Hbond>
1.0000

> <Gold.PLP.Chemscore.CHOScore>
0.0000

> <Gold.PLP.Chemscore.Metal>
0.0000

> <Gold.Chemscore.Hbonds>
donor molecule, donor type, donor heavy atom, donor atom, acceptor molecule, acceptor atom, score
      P1  H  6896  6909       L1     3  1.00

> <Gold.PLP.Chemscore.Internal.Correction>
0.0345

> <Gold.Rescore>
     Score         DG    S(hbond)    S(metal)    S(lipo)     H(rot)  DE(clash)    DE(int)     intcor
     15.81     -17.80       0.99        0.00     110.07       1.52       0.15       1.83       ----

> <Gold.Chemscore.Fitness>
15.8116

> <Gold.Chemscore.DG>
-17.7951

> <Gold.Chemscore.ZeroCoef>
-5.4800

> <Gold.Chemscore.Hbond>
0.9935

> <Gold.Chemscore.Metal>
0.0000

> <Gold.Chemscore.Lipo>
110.0655

> <Gold.Chemscore.Internal_Hbond>
0.0000

> <Gold.Chemscore.DEClash>
0.1540

> <Gold.Chemscore.DEInternal>
1.8295

> <Gold.Chemscore.Rot>
1.5159

> <Gold.Chemscore.Internal.Correction>
   9.000000E+99

> <Gold.Chemscore.Hbonds>
donor molecule, donor type, donor heavy atom, donor atom, acceptor molecule, acceptor atom, score
      P1  H  6896  6909       L1     3  0.91

> <Gold.Chemscore.Hbond.Weighted>
-3.3182

> <Gold.Chemscore.Metal.Weighted>
-0.0000

> <Gold.Chemscore.Lipo.Weighted>
-12.8777

> <Gold.Chemscore.Internal_Hbond.Weighted>
0.0000

> <Gold.Chemscore.DEClash.Weighted>
0.1540

> <Gold.Chemscore.DEInternal.Weighted>
1.8295

> <Gold.Chemscore.Rot.Weighted>
3.8807

> <Gold.Chemscore.Internal.Correction.Weighted>
   9.000000E+99

> <Gold.Protein.RotatedTorsions>
[ 6907 6896 6895 6894 ] final  148.36 input  -60.11 | X-H torsion
[ 7974 7965 7964 7962 ] final -158.74 input  175.53 | X-H torsion
[ 8008 7997 7996 7995 ] final  -23.90 input   59.86 | X-H torsion
[ 10167 10162 10161 10158 ] final    8.85 input  -65.29 | X-H torsion
[ 10718 10713 10712 10709 ] final  -86.26 input   66.30 | X-H torsion
[ 10763 10752 10751 10750 ] final -120.82 input  -60.55 | X-H torsion
[ 11005 11000 10999 10996 ] final   98.31 input  -57.11 | X-H torsion

> <Gold.Protein.ActiveResidues>
 VAL166  LYS551  ARG553  GLY616  TRP617  ASP618  TYR619  PRO620  LYS621  CYS622 
 ASP623  PHE694  ASN695  SER759  ASP760  ASP761  ALA762  ILE779  LEU786  VAL792 
 PHE793  MET794  SER795  GLU796  ALA797  LYS798  CYS799  TRP800  GLU811  SER814 

> <Gold.Protein.RotatedAtoms>
  152.1425  133.4472  159.4773 H   0  0  0  0  0  0  0  0  0  0  0  0  # atno 6907 bound_to 6896
  150.6887  134.2288  159.4435 H   0  0  0  0  0  0  0  0  0  0  0  0  # atno 6908 bound_to 6896
  152.0179  134.9839  160.0620 H   0  0  0  0  0  0  0  0  0  0  0  0  # atno 6909 bound_to 6896
  144.7493  140.3784  143.6060 H   0  0  0  0  0  0  0  0  0  0  0  0  # atno 7974 bound_to 7965
  154.4559  140.1968  156.0381 H   0  0  0  0  0  0  0  0  0  0  0  0  # atno 8008 bound_to 7997
  156.0745  140.3280  155.7589 H   0  0  0  0  0  0  0  0  0  0  0  0  # atno 8009 bound_to 7997
  155.5210  140.0570  157.2897 H   0  0  0  0  0  0  0  0  0  0  0  0  # atno 8010 bound_to 7997
  140.6290  143.8037  150.7270 H   0  0  0  0  0  0  0  0  0  0  0  0  # atno 10167 bound_to 10162
  155.9991  130.4759  150.4688 H   0  0  0  0  0  0  0  0  0  0  0  0  # atno 10718 bound_to 10713
  154.8653  135.4189  154.2520 H   0  0  0  0  0  0  0  0  0  0  0  0  # atno 10763 bound_to 10752
  153.3465  135.6996  153.6829 H   0  0  0  0  0  0  0  0  0  0  0  0  # atno 10764 bound_to 10752
  153.5787  135.3577  155.2839 H   0  0  0  0  0  0  0  0  0  0  0  0  # atno 10765 bound_to 10752
  139.8773  134.9043  156.4437 H   0  0  0  0  0  0  0  0  0  0  0  0  # atno 11005 bound_to 11000
  145.7003  139.1659  143.2596 LP  0  0  0  0  0  0  0  0  0  0  0  0  # atno 17320 bound_to 7965
  146.1420  140.7044  142.9362 LP  0  0  0  0  0  0  0  0  0  0  0  0  # atno 17321 bound_to 7965
  140.1644  143.4248  152.2044 LP  0  0  0  0  0  0  0  0  0  0  0  0  # atno 17342 bound_to 10162
  139.5506  144.7334  151.4447 LP  0  0  0  0  0  0  0  0  0  0  0  0  # atno 17343 bound_to 10162
  157.2705  131.0586  151.2263 LP  0  0  0  0  0  0  0  0  0  0  0  0  # atno 17370 bound_to 10713
  157.3345  130.7002  149.6344 LP  0  0  0  0  0  0  0  0  0  0  0  0  # atno 17371 bound_to 10713
  140.8981  133.7799  155.9648 LP  0  0  0  0  0  0  0  0  0  0  0  0  # atno 17394 bound_to 11000
  140.8681  134.2760  157.5204 LP  0  0  0  0  0  0  0  0  0  0  0  0  # atno 17395 bound_to 11000

$$$$
