AV-unprocessed.smi:2013|AV-procd|sdf|8159|dock8
  -GOLD-   2272010403D 1   1.00000     0.00000
 Structure written by MMmdl.
 50 51  0  0  0  0  0  0  0  0  1 V2000
  146.9962  132.1470  154.4542 C   0  0  0  0  0  0  0  0  0  0  0  0
  147.8157  132.9673  153.4426 C   0  0  0  0  0  0  0  0  0  0  0  0
  149.2173  133.2979  153.9976 C   0  0  0  0  0  0  0  0  0  0  0  0
  147.0036  134.1553  152.8316 C   0  0  2  0  0  0  0  0  0  0  0  0
  146.6222  135.2482  153.8659 C   0  0  0  0  0  0  0  0  0  0  0  0
  147.2256  136.5346  153.5405 N   0  0  0  0  0  0  0  0  0  0  0  0
  147.0889  137.6465  154.2753 C   0  0  0  0  0  0  0  0  0  0  0  0
  146.4106  137.6948  155.3025 O   0  0  0  0  0  0  0  0  0  0  0  0
  147.8265  138.8866  153.7513 C   0  0  0  0  0  0  0  0  0  0  0  0
  149.1394  139.0968  154.3757 N   0  0  0  0  0  0  0  0  0  0  0  0
  150.1135  138.1222  154.2610 C   0  0  0  0  0  0  0  0  0  0  0  0
  151.3507  138.2393  154.7904 C   0  0  0  0  0  0  0  0  0  0  0  0
  151.7359  139.4315  155.5355 C   0  0  0  0  0  0  0  0  0  0  0  0
  152.8588  139.5898  156.0162 O   0  0  0  0  0  0  0  0  0  0  0  0
  150.7160  140.4058  155.6527 N   0  0  0  0  0  0  0  0  0  0  0  0
  151.0223  141.6330  156.3584 C   0  0  0  0  0  0  0  0  0  0  0  0
  149.4294  140.2853  155.0803 C   0  0  0  0  0  0  0  0  0  0  0  0
  148.5838  141.1783  155.1767 O   0  0  0  0  0  0  0  0  0  0  0  0
  145.9144  133.7615  151.9150 N   0  0  0  0  0  0  0  0  0  0  0  0
  146.2334  132.5809  151.1142 C   0  0  0  0  0  0  0  0  0  0  0  0
  145.0300  132.1167  150.2774 C   0  0  0  0  0  0  0  0  0  0  0  0
  144.5919  133.1861  149.4462 O   0  0  0  0  0  0  0  0  0  0  0  0
  144.2227  134.3420  150.1907 C   0  0  0  0  0  0  0  0  0  0  0  0
  145.4123  134.8207  151.0419 C   0  0  0  0  0  0  0  0  0  0  0  0
  146.8085  132.7101  155.3688 H   0  0  0  0  0  0  0  0  0  0  0  0
  147.5212  131.2334  154.7340 H   0  0  0  0  0  0  0  0  0  0  0  0
  146.0320  131.8560  154.0363 H   0  0  0  0  0  0  0  0  0  0  0  0
  148.0017  132.2854  152.6118 H   0  0  0  0  0  0  0  0  0  0  0  0
  149.1860  133.8945  154.9057 H   0  0  0  0  0  0  0  0  0  0  0  0
  149.8362  133.8227  153.2710 H   0  0  0  0  0  0  0  0  0  0  0  0
  149.7474  132.3791  154.2503 H   0  0  0  0  0  0  0  0  0  0  0  0
  147.7415  134.6405  152.1903 H   0  0  0  0  0  0  0  0  0  0  0  0
  145.5416  135.3861  153.9000 H   0  0  0  0  0  0  0  0  0  0  0  0
  146.9304  134.9579  154.8706 H   0  0  0  0  0  0  0  0  0  0  0  0
  147.7949  136.5774  152.7076 H   0  0  0  0  0  0  0  0  0  0  0  0
  147.9352  138.8109  152.6681 H   0  0  0  0  0  0  0  0  0  0  0  0
  147.1927  139.7579  153.9225 H   0  0  0  0  0  0  0  0  0  0  0  0
  149.8781  137.2206  153.7142 H   0  0  0  0  0  0  0  0  0  0  0  0
  152.0664  137.4414  154.6579 H   0  0  0  0  0  0  0  0  0  0  0  0
  150.1296  141.9771  156.8829 H   0  0  0  0  0  0  0  0  0  0  0  0
  151.3496  142.3552  155.6092 H   0  0  0  0  0  0  0  0  0  0  0  0
  151.7992  141.4517  157.1021 H   0  0  0  0  0  0  0  0  0  0  0  0
  147.0619  132.7924  150.4385 H   0  0  0  0  0  0  0  0  0  0  0  0
  146.5555  131.7653  151.7623 H   0  0  0  0  0  0  0  0  0  0  0  0
  145.3078  131.2689  149.6510 H   0  0  0  0  0  0  0  0  0  0  0  0
  144.2138  131.7863  150.9219 H   0  0  0  0  0  0  0  0  0  0  0  0
  143.9109  135.1261  149.5009 H   0  0  0  0  0  0  0  0  0  0  0  0
  143.3644  134.1138  150.8243 H   0  0  0  0  0  0  0  0  0  0  0  0
  145.0816  135.6735  151.6258 H   0  0  0  0  0  0  0  0  0  0  0  0
  146.2051  135.1718  150.3810 H   0  0  0  0  0  0  0  0  0  0  0  0
  1  2  1  0  0  0  0
  1 25  1  0  0  0  0
  1 26  1  0  0  0  0
  1 27  1  0  0  0  0
  2  3  1  0  0  0  0
  2  4  1  0  0  0  0
  2 28  1  0  0  0  0
  3 29  1  0  0  0  0
  3 30  1  0  0  0  0
  3 31  1  0  0  0  0
  4  5  1  0  0  0  0
  4 19  1  0  0  0  0
  4 32  1  0  0  0  0
  5  6  1  0  0  0  0
  5 33  1  0  0  0  0
  5 34  1  0  0  0  0
  6  7  1  0  0  0  0
  6 35  1  0  0  0  0
  7  8  2  0  0  0  0
  7  9  1  0  0  0  0
  9 10  1  0  0  0  0
  9 36  1  0  0  0  0
  9 37  1  0  0  0  0
 10 17  1  0  0  0  0
 10 11  1  0  0  0  0
 11 12  2  0  0  0  0
 11 38  1  0  0  0  0
 12 13  1  0  0  0  0
 12 39  1  0  0  0  0
 13 14  2  0  0  0  0
 13 15  1  0  0  0  0
 15 16  1  0  0  0  0
 15 17  1  0  0  0  0
 16 40  1  0  0  0  0
 16 41  1  0  0  0  0
 16 42  1  0  0  0  0
 17 18  2  0  0  0  0
 19 24  1  0  0  0  0
 19 20  1  0  0  0  0
 20 21  1  0  0  0  0
 20 43  1  0  0  0  0
 20 44  1  0  0  0  0
 21 22  1  0  0  0  0
 21 45  1  0  0  0  0
 21 46  1  0  0  0  0
 22 23  1  0  0  0  0
 23 24  1  0  0  0  0
 23 47  1  0  0  0  0
 23 48  1  0  0  0  0
 24 49  1  0  0  0  0
 24 50  1  0  0  0  0
M  END
> <s_m_source_file>
AV-unprocessed.smi

> <i_m_source_file_index>
2013

> <i_lp_mmshare_version>
43012

> <i_f3d_flags>
0

> <s_epik_input>
W0NIMl0xW0NIMl1PW0NIMl1bQ0gyXU4xW0NASF0oW0NIXShbQ0gzXSlbQ0gzXSlbQ0gyXVtOSF1DKD1PKVtDSDJdbjJbY0hdW2NIXWMoPU8pbihbQ0gzXSljMj1P

> <s_epik_cmdline>
J2VwaWtfcHl0aG9uJywgJy1waCcsICc3LjAnLCAnLXRuJywgJzgnLCAnLW1hJywgJzIwMCcsICctbWV0YWxfYmluZGluZycsICctaW1hZScsICc8aW5maWxlLm1hZT4nLCAnLW9tYWUnLCAnPG91dGZpbGUubWFlPic=

> <r_lp_tautomer_probability>
1

> <r_epik_Ionization_Penalty>
0.45351

> <r_epik_Ionization_Penalty_Charging>
1.24653e-08

> <r_epik_Ionization_Penalty_Neutral>
0.45351

> <r_epik_State_Penalty>
0.456487

> <r_epik_Charging_Adjusted_Penalty>
0.456487

> <i_epik_Tot_Q>
0

> <i_epik_Tot_abs_Q>
0

> <r_epik_Metal_State_Penalty>
0.456449

> <b_epik_Metal_Only>
0

> <s_lp_Force_Field>
OPLS_2005

> <r_lp_Energy>
47.2128

> <b_lp_Chiralities_Consistent>
1

> <s_lp_Variant>
AV-unprocessed.smi:2013-3

> <Gold.Version>
5.8.1

> <Gold.Id.Protein>
6NUR|6NUR_protein|mol2

> <Gold.PLP.Fitness>
45.1482

> <Gold.PLP.PLP>
-38.5088

> <Gold.PLP.part.hbond>
-1.8318

> <Gold.PLP.part.metal>
0.0000

> <Gold.PLP.part.buried>
-4.3547

> <Gold.PLP.part.nonpolar>
-34.1145

> <Gold.PLP.part.repulsive>
0.6693

> <Gold.PLP.ligand.clash>
0.0000

> <Gold.PLP.ligand.torsion>
1.4146

> <Gold.PLP.Chemscore.Hbond>
1.9913

> <Gold.PLP.Chemscore.CHOScore>
1.0000

> <Gold.PLP.Chemscore.Metal>
0.0000

> <Gold.Chemscore.Hbonds>
donor molecule, donor type, donor heavy atom, donor atom, acceptor molecule, acceptor atom, score
      L1  H     6    35       P1  7948  0.86
      P1  H  7997  8009       L1    14  1.00
      L1  C    11    38       P1  7948  1.00

> <Gold.PLP.Chemscore.Internal.Correction>
0.4948

> <Gold.Rescore>
     Score         DG    S(hbond)    S(metal)    S(lipo)     H(rot)  DE(clash)    DE(int)     intcor
     13.73     -15.17       1.99        0.00      74.24       2.20       0.02       1.42       ----

> <Gold.Chemscore.Fitness>
13.7275

> <Gold.Chemscore.DG>
-15.1669

> <Gold.Chemscore.ZeroCoef>
-5.4800

> <Gold.Chemscore.Hbond>
1.9888

> <Gold.Chemscore.Metal>
0.0000

> <Gold.Chemscore.Lipo>
74.2410

> <Gold.Chemscore.Internal_Hbond>
0.0000

> <Gold.Chemscore.DEClash>
0.0156

> <Gold.Chemscore.DEInternal>
1.4238

> <Gold.Chemscore.Rot>
2.2039

> <Gold.Chemscore.Internal.Correction>
   9.000000E+99

> <Gold.Chemscore.Hbonds>
donor molecule, donor type, donor heavy atom, donor atom, acceptor molecule, acceptor atom, score
      L1  H     6    35       P1  7948  0.82
      P1  H  7997  8009       L1    14  0.99

> <Gold.Chemscore.Hbond.Weighted>
-6.6427

> <Gold.Chemscore.Metal.Weighted>
-0.0000

> <Gold.Chemscore.Lipo.Weighted>
-8.6862

> <Gold.Chemscore.Internal_Hbond.Weighted>
0.0000

> <Gold.Chemscore.DEClash.Weighted>
0.0156

> <Gold.Chemscore.DEInternal.Weighted>
1.4238

> <Gold.Chemscore.Rot.Weighted>
5.6420

> <Gold.Chemscore.Internal.Correction.Weighted>
   9.000000E+99

> <Gold.Protein.RotatedTorsions>
[ 6907 6896 6895 6894 ] final  125.62 input  -60.11 | X-H torsion
[ 7974 7965 7964 7962 ] final -133.97 input  175.53 | X-H torsion
[ 8008 7997 7996 7995 ] final -162.93 input   59.86 | X-H torsion
[ 10167 10162 10161 10158 ] final -118.57 input  -65.29 | X-H torsion
[ 10718 10713 10712 10709 ] final  -49.14 input   66.30 | X-H torsion
[ 10763 10752 10751 10750 ] final   -6.21 input  -60.55 | X-H torsion
[ 11005 11000 10999 10996 ] final  118.74 input  -57.11 | X-H torsion

> <Gold.Protein.ActiveResidues>
 VAL166  LYS551  ARG553  GLY616  TRP617  ASP618  TYR619  PRO620  LYS621  CYS622 
 ASP623  PHE694  ASN695  SER759  ASP760  ASP761  ALA762  ILE779  LEU786  VAL792 
 PHE793  MET794  SER795  GLU796  ALA797  LYS798  CYS799  TRP800  GLU811  SER814 

> <Gold.Protein.RotatedAtoms>
  152.3976  133.6770  159.6288 H   0  0  0  0  0  0  0  0  0  0  0  0  # atno 6907 bound_to 6896
  150.7872  133.8847  159.3305 H   0  0  0  0  0  0  0  0  0  0  0  0  # atno 6908 bound_to 6896
  151.6620  135.0989  160.0233 H   0  0  0  0  0  0  0  0  0  0  0  0  # atno 6909 bound_to 6896
  144.9145  140.6937  143.5004 H   0  0  0  0  0  0  0  0  0  0  0  0  # atno 7974 bound_to 7965
  155.8139  140.0909  157.1888 H   0  0  0  0  0  0  0  0  0  0  0  0  # atno 8008 bound_to 7997
  154.3979  140.1449  156.3479 H   0  0  0  0  0  0  0  0  0  0  0  0  # atno 8009 bound_to 7997
  155.8337  140.3441  155.5590 H   0  0  0  0  0  0  0  0  0  0  0  0  # atno 8010 bound_to 7997
  140.0561  143.5013  152.2056 H   0  0  0  0  0  0  0  0  0  0  0  0  # atno 10167 bound_to 10162
  156.1921  130.4153  149.9356 H   0  0  0  0  0  0  0  0  0  0  0  0  # atno 10718 bound_to 10713
  153.4092  135.7007  153.6371 H   0  0  0  0  0  0  0  0  0  0  0  0  # atno 10763 bound_to 10752
  153.4872  135.3680  155.2473 H   0  0  0  0  0  0  0  0  0  0  0  0  # atno 10764 bound_to 10752
  154.8716  135.4080  154.3441 H   0  0  0  0  0  0  0  0  0  0  0  0  # atno 10765 bound_to 10752
  139.9121  134.9623  156.7550 H   0  0  0  0  0  0  0  0  0  0  0  0  # atno 11005 bound_to 11000
  145.3398  139.1735  143.4492 LP  0  0  0  0  0  0  0  0  0  0  0  0  # atno 17320 bound_to 7965
  146.3175  140.3438  142.8650 LP  0  0  0  0  0  0  0  0  0  0  0  0  # atno 17321 bound_to 7965
  139.5923  144.7554  151.3371 LP  0  0  0  0  0  0  0  0  0  0  0  0  # atno 17342 bound_to 10162
  140.7194  143.7178  150.7719 LP  0  0  0  0  0  0  0  0  0  0  0  0  # atno 17343 bound_to 10162
  156.7093  130.8964  151.3608 LP  0  0  0  0  0  0  0  0  0  0  0  0  # atno 17370 bound_to 10713
  157.6935  130.9258  150.0581 LP  0  0  0  0  0  0  0  0  0  0  0  0  # atno 17371 bound_to 10713
  140.6743  133.9531  155.7874 LP  0  0  0  0  0  0  0  0  0  0  0  0  # atno 17394 bound_to 11000
  141.0555  134.0422  157.3728 LP  0  0  0  0  0  0  0  0  0  0  0  0  # atno 17395 bound_to 11000

$$$$
