AV-unprocessed.smi:3161|AV-procd|sdf|12057|dock3
  -GOLD-   2272017483D 1   1.00000     0.00000
 Structure written by MMmdl.
 41 42  0  0  0  0  0  0  0  0  2 V2000
  140.9456  137.5993  153.2313 C   0  0  0  0  0  0  0  0  0  0  0  0
  142.3779  137.5792  153.6818 C   0  0  0  0  0  0  0  0  0  0  0  0
  142.8817  137.7726  154.9995 C   0  0  0  0  0  0  0  0  0  0  0  0
  144.2013  137.7007  155.0608 N   0  0  0  0  0  0  0  0  0  0  0  0
  144.5855  137.4566  153.7895 N   0  0  0  0  0  0  0  0  0  0  0  0
  145.9982  137.3348  153.4728 C   0  0  0  0  0  0  0  0  0  0  0  0
  146.5112  138.5301  152.6468 C   0  0  2  0  0  0  0  0  0  0  0  0
  146.2647  138.3132  151.1454 C   0  0  0  0  0  0  0  0  0  0  0  0
  147.9494  138.7535  152.9165 N   0  3  0  0  0  0  0  0  0  0  0  0
  148.2657  139.3064  154.2488 C   0  0  0  0  0  0  0  0  0  0  0  0
  149.7769  139.5294  154.3965 C   0  0  1  0  0  0  0  0  0  0  0  0
  150.1285  140.2367  155.7195 C   0  0  0  0  0  0  0  0  0  0  0  0
  151.6486  140.3476  155.8854 C   0  0  0  0  0  0  0  0  0  0  0  0
  152.2898  138.9656  155.7203 C   0  0  0  0  0  0  0  0  0  0  0  0
  151.8308  138.3186  154.4044 C   0  0  0  0  0  0  0  0  0  0  0  0
  150.4086  138.2503  154.3714 O   0  0  0  0  0  0  0  0  0  0  0  0
  143.5052  137.3771  152.9365 C   0  0  0  0  0  0  0  0  0  0  0  0
  140.2650  137.3145  154.0340 H   0  0  0  0  0  0  0  0  0  0  0  0
  140.7715  136.9105  152.4044 H   0  0  0  0  0  0  0  0  0  0  0  0
  140.6462  138.5910  152.8925 H   0  0  0  0  0  0  0  0  0  0  0  0
  142.3299  137.9652  155.9079 H   0  0  0  0  0  0  0  0  0  0  0  0
  146.5647  137.2317  154.4001 H   0  0  0  0  0  0  0  0  0  0  0  0
  146.1384  136.4062  152.9177 H   0  0  0  0  0  0  0  0  0  0  0  0
  145.9557  139.4140  152.9648 H   0  0  0  0  0  0  0  0  0  0  0  0
  145.2067  138.1443  150.9438 H   0  0  0  0  0  0  0  0  0  0  0  0
  146.8146  137.4475  150.7745 H   0  0  0  0  0  0  0  0  0  0  0  0
  146.5706  139.1791  150.5582 H   0  0  0  0  0  0  0  0  0  0  0  0
  148.4035  137.8520  152.8602 H   0  0  0  0  0  0  0  0  0  0  0  0
  147.7335  140.2488  154.3802 H   0  0  0  0  0  0  0  0  0  0  0  0
  147.9159  138.6257  155.0260 H   0  0  0  0  0  0  0  0  0  0  0  0
  150.1350  140.1294  153.5577 H   0  0  0  0  0  0  0  0  0  0  0  0
  149.6782  141.2295  155.7502 H   0  0  0  0  0  0  0  0  0  0  0  0
  149.7112  139.6782  156.5585 H   0  0  0  0  0  0  0  0  0  0  0  0
  152.0510  141.0315  155.1371 H   0  0  0  0  0  0  0  0  0  0  0  0
  151.8959  140.7683  156.8604 H   0  0  0  0  0  0  0  0  0  0  0  0
  153.3769  139.0478  155.7433 H   0  0  0  0  0  0  0  0  0  0  0  0
  152.0059  138.3266  156.5574 H   0  0  0  0  0  0  0  0  0  0  0  0
  152.1996  138.8794  153.5441 H   0  0  0  0  0  0  0  0  0  0  0  0
  152.2342  137.3091  154.3220 H   0  0  0  0  0  0  0  0  0  0  0  0
  143.6263  137.1904  151.8795 H   0  0  0  0  0  0  0  0  0  0  0  0
  148.3373  139.3482  152.1981 H   0  0  0  0  0  0  0  0  0  0  0  0
  1  2  1  0  0  0  0
  1 18  1  0  0  0  0
  1 19  1  0  0  0  0
  1 20  1  0  0  0  0
  2 17  2  0  0  0  0
  2  3  1  0  0  0  0
  3  4  2  0  0  0  0
  3 21  1  0  0  0  0
  4  5  1  0  0  0  0
  5  6  1  0  0  0  0
  5 17  1  0  0  0  0
  6  7  1  0  0  0  0
  6 22  1  0  0  0  0
  6 23  1  0  0  0  0
  7  8  1  0  0  0  0
  7  9  1  0  0  0  0
  7 24  1  0  0  0  0
  8 25  1  0  0  0  0
  8 26  1  0  0  0  0
  8 27  1  0  0  0  0
  9 10  1  0  0  0  0
  9 28  1  0  0  0  0
  9 41  1  0  0  0  0
 10 11  1  0  0  0  0
 10 29  1  0  0  0  0
 10 30  1  0  0  0  0
 11 16  1  0  0  0  0
 11 12  1  0  0  0  0
 11 31  1  0  0  0  0
 12 13  1  0  0  0  0
 12 32  1  0  0  0  0
 12 33  1  0  0  0  0
 13 14  1  0  0  0  0
 13 34  1  0  0  0  0
 13 35  1  0  0  0  0
 14 15  1  0  0  0  0
 14 36  1  0  0  0  0
 14 37  1  0  0  0  0
 15 16  1  0  0  0  0
 15 38  1  0  0  0  0
 15 39  1  0  0  0  0
 17 40  1  0  0  0  0
M  CHG  1   9   1
M  END
> <s_m_source_file>
AV-unprocessed.smi

> <i_m_source_file_index>
3161

> <i_lp_mmshare_version>
43012

> <i_f3d_flags>
0

> <s_epik_input>
W0NIM11jMVtjSF1ubihbY0hdMSlbQ0gyXVtDQEhdKFtDSDNdKVtOSF1bQ0gyXVtDQEBIXTJbQ0gyXVtDSDJdW0NIMl1bQ0gyXU8y

> <s_epik_cmdline>
J2VwaWtfcHl0aG9uJywgJy1waCcsICc3LjAnLCAnLXRuJywgJzgnLCAnLW1hJywgJzIwMCcsICctbWV0YWxfYmluZGluZycsICctaW1hZScsICc8aW5maWxlLm1hZT4nLCAnLW9tYWUnLCAnPG91dGZpbGUubWFlPic=

> <r_lp_tautomer_probability>
1

> <r_epik_Ionization_Penalty>
0.00849661

> <r_epik_Ionization_Penalty_Charging>
0.00848754

> <r_epik_Ionization_Penalty_Neutral>
9.06711e-06

> <r_epik_State_Penalty>
0.00639836

> <r_epik_Charging_Adjusted_Penalty>
0.0148859

> <i_epik_Tot_Q>
1

> <i_epik_Tot_abs_Q>
1

> <r_epik_Metal_State_Penalty>
0.00639921

> <b_epik_Metal_Only>
0

> <s_lp_Force_Field>
OPLS_2005

> <r_lp_Energy>
12.1076

> <b_lp_Chiralities_Consistent>
1

> <s_lp_Variant>
AV-unprocessed.smi:3161-3

> <Gold.Version>
5.8.1

> <Gold.Id.Protein>
6NUR|6NUR_protein|mol2

> <Gold.PLP.Fitness>
39.6442

> <Gold.PLP.PLP>
-28.5826

> <Gold.PLP.part.hbond>
-2.0000

> <Gold.PLP.part.metal>
0.0000

> <Gold.PLP.part.buried>
-0.5875

> <Gold.PLP.part.nonpolar>
-26.4602

> <Gold.PLP.part.repulsive>
0.3227

> <Gold.PLP.ligand.clash>
0.0000

> <Gold.PLP.ligand.torsion>
0.5107

> <Gold.PLP.Chemscore.Hbond>
3.0000

> <Gold.PLP.Chemscore.CHOScore>
1.0000

> <Gold.PLP.Chemscore.Metal>
0.0000

> <Gold.Chemscore.Hbonds>
donor molecule, donor type, donor heavy atom, donor atom, acceptor molecule, acceptor atom, score
      L1  H     9    28       P1  7948  2.00
      L1  H     9    41       P1  7957  1.00
      L1  C    17    40       P1 10171  1.00

> <Gold.PLP.Chemscore.Internal.Correction>
0.0830

> <Gold.Rescore>
     Score         DG    S(hbond)    S(metal)    S(lipo)     H(rot)  DE(clash)    DE(int)     intcor
     15.12     -17.05       1.95        0.00      77.63       1.57       1.58       0.35       ----

> <Gold.Chemscore.Fitness>
15.1160

> <Gold.Chemscore.DG>
-17.0461

> <Gold.Chemscore.ZeroCoef>
-5.4800

> <Gold.Chemscore.Hbond>
1.9481

> <Gold.Chemscore.Metal>
0.0000

> <Gold.Chemscore.Lipo>
77.6255

> <Gold.Chemscore.Internal_Hbond>
0.0000

> <Gold.Chemscore.DEClash>
1.5812

> <Gold.Chemscore.DEInternal>
0.3489

> <Gold.Chemscore.Rot>
1.5714

> <Gold.Chemscore.Internal.Correction>
   9.000000E+99

> <Gold.Chemscore.Hbonds>
donor molecule, donor type, donor heavy atom, donor atom, acceptor molecule, acceptor atom, score
      L1  H     9    28       P1  7948  0.94
      L1  H     9    41       P1  7957  0.99

> <Gold.Chemscore.Hbond.Weighted>
-6.5068

> <Gold.Chemscore.Metal.Weighted>
-0.0000

> <Gold.Chemscore.Lipo.Weighted>
-9.0822

> <Gold.Chemscore.Internal_Hbond.Weighted>
0.0000

> <Gold.Chemscore.DEClash.Weighted>
1.5812

> <Gold.Chemscore.DEInternal.Weighted>
0.3489

> <Gold.Chemscore.Rot.Weighted>
4.0228

> <Gold.Chemscore.Internal.Correction.Weighted>
   9.000000E+99

> <Gold.Protein.RotatedTorsions>
[ 6907 6896 6895 6894 ] final   74.51 input  -60.11 | X-H torsion
[ 7974 7965 7964 7962 ] final  -38.03 input  175.53 | X-H torsion
[ 8008 7997 7996 7995 ] final -109.38 input   59.86 | X-H torsion
[ 10167 10162 10161 10158 ] final   57.58 input  -65.29 | X-H torsion
[ 10718 10713 10712 10709 ] final  -62.86 input   66.30 | X-H torsion
[ 10763 10752 10751 10750 ] final    7.90 input  -60.55 | X-H torsion
[ 11005 11000 10999 10996 ] final    7.33 input  -57.11 | X-H torsion

> <Gold.Protein.ActiveResidues>
 VAL166  LYS551  ARG553  GLY616  TRP617  ASP618  TYR619  PRO620  LYS621  CYS622 
 ASP623  PHE694  ASN695  SER759  ASP760  ASP761  ALA762  ILE779  LEU786  VAL792 
 PHE793  MET794  SER795  GLU796  ALA797  LYS798  CYS799  TRP800  GLU811  SER814 

> <Gold.Protein.RotatedAtoms>
  152.4980  134.4260  159.9496 H   0  0  0  0  0  0  0  0  0  0  0  0  # atno 6907 bound_to 6896
  151.4235  133.3685  159.2767 H   0  0  0  0  0  0  0  0  0  0  0  0  # atno 6908 bound_to 6896
  150.9205  134.8646  159.7545 H   0  0  0  0  0  0  0  0  0  0  0  0  # atno 6909 bound_to 6896
  146.0523  140.6464  142.9036 H   0  0  0  0  0  0  0  0  0  0  0  0  # atno 7974 bound_to 7965
  154.9584  140.0399  157.2178 H   0  0  0  0  0  0  0  0  0  0  0  0  # atno 8008 bound_to 7997
  154.7912  140.2836  155.5968 H   0  0  0  0  0  0  0  0  0  0  0  0  # atno 8009 bound_to 7997
  156.2950  140.2573  156.2760 H   0  0  0  0  0  0  0  0  0  0  0  0  # atno 8010 bound_to 7997
  140.1965  144.4032  150.6548 H   0  0  0  0  0  0  0  0  0  0  0  0  # atno 10167 bound_to 10162
  156.0828  130.4214  150.1195 H   0  0  0  0  0  0  0  0  0  0  0  0  # atno 10718 bound_to 10713
  153.2310  135.6892  153.7890 H   0  0  0  0  0  0  0  0  0  0  0  0  # atno 10763 bound_to 10752
  153.7054  135.3291  155.3235 H   0  0  0  0  0  0  0  0  0  0  0  0  # atno 10764 bound_to 10752
  154.8314  135.4578  154.1196 H   0  0  0  0  0  0  0  0  0  0  0  0  # atno 10765 bound_to 10752
  140.5495  134.0297  155.7932 H   0  0  0  0  0  0  0  0  0  0  0  0  # atno 11005 bound_to 11000
  144.7129  140.4105  143.7067 LP  0  0  0  0  0  0  0  0  0  0  0  0  # atno 17320 bound_to 7965
  145.6704  139.1598  143.2758 LP  0  0  0  0  0  0  0  0  0  0  0  0  # atno 17321 bound_to 7965
  140.6420  143.2205  151.6269 LP  0  0  0  0  0  0  0  0  0  0  0  0  # atno 17342 bound_to 10162
  139.5234  144.3133  152.0974 LP  0  0  0  0  0  0  0  0  0  0  0  0  # atno 17343 bound_to 10162
  156.9222  130.9686  151.3546 LP  0  0  0  0  0  0  0  0  0  0  0  0  # atno 17370 bound_to 10713
  157.5951  130.8472  149.8717 LP  0  0  0  0  0  0  0  0  0  0  0  0  # atno 17371 bound_to 10713
  141.1180  133.9508  157.2785 LP  0  0  0  0  0  0  0  0  0  0  0  0  # atno 17394 bound_to 11000
  139.9462  135.0183  156.8860 LP  0  0  0  0  0  0  0  0  0  0  0  0  # atno 17395 bound_to 11000

$$$$
