AV-unprocessed.smi:221|AV-procd|sdf|1697|dock10
  -GOLD-   2262020153D 1   1.00000     0.00000
 Structure written by MMmdl.
 50 53  0  0  0  0  0  0  0  0  1 V2000
  146.3806  131.3183  149.5981 N   0  0  0  0  0  0  0  0  0  0  0  0
  145.3687  131.1496  150.4559 C   0  0  0  0  0  0  0  0  0  0  0  0
  144.2267  131.5112  150.1812 O   0  0  0  0  0  0  0  0  0  0  0  0
  145.6518  130.4900  151.8201 C   0  0  1  0  0  0  0  0  0  0  0  0
  146.1009  129.0303  151.6406 C   0  0  0  0  0  0  0  0  0  0  0  0
  146.9206  128.7428  152.8937 C   0  0  2  0  0  0  0  0  0  0  0  0
  146.1012  128.4436  153.9030 F   0  0  0  0  0  0  0  0  0  0  0  0
  147.6082  130.0780  153.1756 C   0  0  0  0  0  0  0  0  0  0  0  0
  146.7461  131.0994  152.5896 N   0  0  0  0  0  0  0  0  0  0  0  0
  146.6077  132.2883  153.2373 C   0  0  0  0  0  0  0  0  0  0  0  0
  145.3657  132.8070  153.4293 N   0  0  0  0  0  0  0  0  0  0  0  0
  145.2061  133.9743  154.0589 C   0  0  0  0  0  0  0  0  0  0  0  0
  146.1382  134.7834  154.5644 N   0  0  0  0  0  0  0  0  0  0  0  0
  147.3885  134.2777  154.3663 C   0  0  0  0  0  0  0  0  0  0  0  0
  147.7115  133.0499  153.7208 C   0  0  0  0  0  0  0  0  0  0  0  0
  149.0920  132.8809  153.7005 N   0  0  0  0  0  0  0  0  0  0  0  0
  149.5553  133.9388  154.3075 C   0  0  0  0  0  0  0  0  0  0  0  0
  148.6009  134.8350  154.7310 N   0  0  0  0  0  0  0  0  0  0  0  0
  148.8292  136.0928  155.4204 C   0  0  0  0  0  0  0  0  0  0  0  0
  150.3069  136.5577  155.3485 C   0  0  2  0  0  0  0  0  0  0  0  0
  150.9419  136.6407  156.7562 C   0  0  0  0  0  0  0  0  0  0  0  0
  151.5781  135.4288  157.1047 O   0  0  0  0  0  0  0  0  0  0  0  0
  150.4980  137.8759  154.5488 C   0  0  1  0  0  0  0  0  0  0  0  0
  149.2336  138.4590  153.9171 C   0  0  0  0  0  0  0  0  0  0  0  0
  149.3414  139.9632  154.1812 C   0  0  0  0  0  0  0  0  0  0  0  0
  150.7010  140.1734  154.5307 O   0  0  0  0  0  0  0  0  0  0  0  0
  151.0978  139.0607  155.3133 C   0  0  0  0  0  0  0  0  0  0  0  0
  144.7384  130.5024  152.4174 H   0  0  0  0  0  0  0  0  0  0  0  0
  147.6178  127.9128  152.7780 H   0  0  0  0  0  0  0  0  0  0  0  0
  146.2119  131.7524  148.7024 H   0  0  0  0  0  0  0  0  0  0  0  0
  147.3096  131.0147  149.8513 H   0  0  0  0  0  0  0  0  0  0  0  0
  145.2626  128.3432  151.5206 H   0  0  0  0  0  0  0  0  0  0  0  0
  146.7418  128.9266  150.7629 H   0  0  0  0  0  0  0  0  0  0  0  0
  147.7733  130.2154  154.2455 H   0  0  0  0  0  0  0  0  0  0  0  0
  148.5769  130.1195  152.6765 H   0  0  0  0  0  0  0  0  0  0  0  0
  144.1852  134.3081  154.1720 H   0  0  0  0  0  0  0  0  0  0  0  0
  150.6134  134.1003  154.4541 H   0  0  0  0  0  0  0  0  0  0  0  0
  148.1584  136.8309  154.9826 H   0  0  0  0  0  0  0  0  0  0  0  0
  148.5152  135.9699  156.4569 H   0  0  0  0  0  0  0  0  0  0  0  0
  150.8545  135.7878  154.8026 H   0  0  0  0  0  0  0  0  0  0  0  0
  151.6623  137.4572  156.8112 H   0  0  0  0  0  0  0  0  0  0  0  0
  150.1859  136.8320  157.5170 H   0  0  0  0  0  0  0  0  0  0  0  0
  150.9411  134.7320  157.0672 H   0  0  0  0  0  0  0  0  0  0  0  0
  151.1721  137.6745  153.7152 H   0  0  0  0  0  0  0  0  0  0  0  0
  149.2222  138.2533  152.8462 H   0  0  0  0  0  0  0  0  0  0  0  0
  148.3093  138.0566  154.3296 H   0  0  0  0  0  0  0  0  0  0  0  0
  149.0543  140.5634  153.3177 H   0  0  0  0  0  0  0  0  0  0  0  0
  148.7081  140.2505  155.0218 H   0  0  0  0  0  0  0  0  0  0  0  0
  150.6792  139.1708  156.3133 H   0  0  0  0  0  0  0  0  0  0  0  0
  152.1829  138.9999  155.4002 H   0  0  0  0  0  0  0  0  0  0  0  0
  1  2  1  0  0  0  0
  1 30  1  0  0  0  0
  1 31  1  0  0  0  0
  2  3  2  0  0  0  0
  2  4  1  0  0  0  0
  4 28  1  0  0  0  0
  4  9  1  0  0  0  0
  4  5  1  0  0  0  0
  5  6  1  0  0  0  0
  5 32  1  0  0  0  0
  5 33  1  0  0  0  0
  6 29  1  0  0  0  0
  6  7  1  0  0  0  0
  6  8  1  0  0  0  0
  8  9  1  0  0  0  0
  8 34  1  0  0  0  0
  8 35  1  0  0  0  0
  9 10  1  0  0  0  0
 10 15  1  0  0  0  0
 10 11  2  0  0  0  0
 11 12  1  0  0  0  0
 12 13  2  0  0  0  0
 12 36  1  0  0  0  0
 13 14  1  0  0  0  0
 14 18  1  0  0  0  0
 14 15  2  0  0  0  0
 15 16  1  0  0  0  0
 16 17  2  0  0  0  0
 17 18  1  0  0  0  0
 17 37  1  0  0  0  0
 18 19  1  0  0  0  0
 19 20  1  0  0  0  0
 19 38  1  0  0  0  0
 19 39  1  0  0  0  0
 20 21  1  0  0  0  0
 20 23  1  0  0  0  0
 20 40  1  0  0  0  0
 21 22  1  0  0  0  0
 21 41  1  0  0  0  0
 21 42  1  0  0  0  0
 22 43  1  0  0  0  0
 23 27  1  0  0  0  0
 23 24  1  0  0  0  0
 23 44  1  0  0  0  0
 24 25  1  0  0  0  0
 24 45  1  0  0  0  0
 24 46  1  0  0  0  0
 25 26  1  0  0  0  0
 25 47  1  0  0  0  0
 25 48  1  0  0  0  0
 26 27  1  0  0  0  0
 27 49  1  0  0  0  0
 27 50  1  0  0  0  0
M  END
> <s_m_source_file>
AV-unprocessed.smi

> <i_m_source_file_index>
221

> <i_lp_mmshare_version>
43012

> <i_f3d_flags>
0

> <s_epik_input>
W05IMl1DKD1PKVtDQEBIXTFbQ0gyXVtDQEBIXShGKVtDSDJdTjFjKG5bY0hdbjIpYyhjMjMpbltjSF1uM1tDSDJdW0NASF0oW0NIMl1bT0hdKVtDQEBIXTRbQ0gyXVtDSDJdT1tDSDJdNA==

> <s_epik_cmdline>
J2VwaWtfcHl0aG9uJywgJy1waCcsICc3LjAnLCAnLXRuJywgJzgnLCAnLW1hJywgJzIwMCcsICctbWV0YWxfYmluZGluZycsICctaW1hZScsICc8aW5maWxlLm1hZT4nLCAnLW9tYWUnLCAnPG91dGZpbGUubWFlPic=

> <r_lp_tautomer_probability>
1

> <r_epik_Ionization_Penalty>
0.000818822

> <r_epik_Ionization_Penalty_Charging>
0

> <r_epik_Ionization_Penalty_Neutral>
0.000818822

> <r_epik_State_Penalty>
0.000440551

> <r_epik_Charging_Adjusted_Penalty>
0.000440551

> <i_epik_Tot_Q>
0

> <i_epik_Tot_abs_Q>
0

> <r_epik_Metal_State_Penalty>
-0

> <b_epik_Metal_Only>
0

> <s_lp_Force_Field>
OPLS_2005

> <r_lp_Energy>
49.9883

> <b_lp_Chiralities_Consistent>
1

> <s_lp_Variant>
AV-unprocessed.smi:221-12

> <Gold.Version>
5.8.1

> <Gold.Id.Protein>
6NUR|6NUR_protein|mol2

> <Gold.PLP.Fitness>
43.0247

> <Gold.PLP.PLP>
-40.5053

> <Gold.PLP.part.hbond>
-3.2237

> <Gold.PLP.part.metal>
0.0000

> <Gold.PLP.part.buried>
-6.6182

> <Gold.PLP.part.nonpolar>
-31.0386

> <Gold.PLP.part.repulsive>
0.7214

> <Gold.PLP.ligand.clash>
0.0000

> <Gold.PLP.ligand.torsion>
3.4035

> <Gold.PLP.Chemscore.Hbond>
2.9920

> <Gold.PLP.Chemscore.CHOScore>
0.0000

> <Gold.PLP.Chemscore.Metal>
0.0000

> <Gold.Chemscore.Hbonds>
donor molecule, donor type, donor heavy atom, donor atom, acceptor molecule, acceptor atom, score
      L1  H     1    31       P1 10747  1.00
      P1  H  7989  7998       L1    26  1.00
      P1  H 10785 10796       L1     3  0.31

> <Gold.PLP.Chemscore.Internal.Correction>
0.3504

> <Gold.Rescore>
     Score         DG    S(hbond)    S(metal)    S(lipo)     H(rot)  DE(clash)    DE(int)     intcor
     10.89     -14.61       2.60        0.00      76.26       3.31       0.23       3.49       ----

> <Gold.Chemscore.Fitness>
10.8887

> <Gold.Chemscore.DG>
-14.6107

> <Gold.Chemscore.ZeroCoef>
-5.4800

> <Gold.Chemscore.Hbond>
2.5984

> <Gold.Chemscore.Metal>
0.0000

> <Gold.Chemscore.Lipo>
76.2640

> <Gold.Chemscore.Internal_Hbond>
0.0000

> <Gold.Chemscore.DEClash>
0.2310

> <Gold.Chemscore.DEInternal>
3.4911

> <Gold.Chemscore.Rot>
3.3089

> <Gold.Chemscore.Internal.Correction>
   9.000000E+99

> <Gold.Chemscore.Hbonds>
donor molecule, donor type, donor heavy atom, donor atom, acceptor molecule, acceptor atom, score
      L1  H     1    31       P1 10747  1.00
      P1  H  7989  7998       L1    26  0.91
      P1  H 10785 10796       L1     3  0.26

> <Gold.Chemscore.Hbond.Weighted>
-8.6787

> <Gold.Chemscore.Metal.Weighted>
-0.0000

> <Gold.Chemscore.Lipo.Weighted>
-8.9229

> <Gold.Chemscore.Internal_Hbond.Weighted>
0.0000

> <Gold.Chemscore.DEClash.Weighted>
0.2310

> <Gold.Chemscore.DEInternal.Weighted>
3.4911

> <Gold.Chemscore.Rot.Weighted>
8.4709

> <Gold.Chemscore.Internal.Correction.Weighted>
   9.000000E+99

> <Gold.Protein.RotatedTorsions>
[ 6907 6896 6895 6894 ] final  146.53 input  -60.11 | X-H torsion
[ 7974 7965 7964 7962 ] final   64.39 input  175.53 | X-H torsion
[ 8008 7997 7996 7995 ] final  -83.48 input   59.86 | X-H torsion
[ 10167 10162 10161 10158 ] final   55.93 input  -65.29 | X-H torsion
[ 10718 10713 10712 10709 ] final  100.99 input   66.30 | X-H torsion
[ 10763 10752 10751 10750 ] final  128.36 input  -60.55 | X-H torsion
[ 11005 11000 10999 10996 ] final   14.99 input  -57.11 | X-H torsion

> <Gold.Protein.ActiveResidues>
 VAL166  LYS551  ARG553  GLY616  TRP617  ASP618  TYR619  PRO620  LYS621  CYS622 
 ASP623  PHE694  ASN695  SER759  ASP760  ASP761  ALA762  ILE779  LEU786  VAL792 
 PHE793  MET794  SER795  GLU796  ALA797  LYS798  CYS799  TRP800  GLU811  SER814 

> <Gold.Protein.RotatedAtoms>
  152.1667  133.4616  159.4887 H   0  0  0  0  0  0  0  0  0  0  0  0  # atno 6907 bound_to 6896
  150.6914  134.2004  159.4329 H   0  0  0  0  0  0  0  0  0  0  0  0  # atno 6908 bound_to 6896
  151.9909  134.9979  160.0612 H   0  0  0  0  0  0  0  0  0  0  0  0  # atno 6909 bound_to 6896
  145.8507  139.3252  143.0877 H   0  0  0  0  0  0  0  0  0  0  0  0  # atno 7974 bound_to 7965
  154.6195  140.0618  156.9597 H   0  0  0  0  0  0  0  0  0  0  0  0  # atno 8008 bound_to 7997
  155.1840  140.3301  155.4351 H   0  0  0  0  0  0  0  0  0  0  0  0  # atno 8009 bound_to 7997
  156.2423  140.1892  156.6935 H   0  0  0  0  0  0  0  0  0  0  0  0  # atno 8010 bound_to 7997
  140.2141  144.3858  150.6477 H   0  0  0  0  0  0  0  0  0  0  0  0  # atno 10167 bound_to 10162
  157.6840  131.0714  150.5185 H   0  0  0  0  0  0  0  0  0  0  0  0  # atno 10718 bound_to 10713
  153.7244  135.3248  155.3273 H   0  0  0  0  0  0  0  0  0  0  0  0  # atno 10763 bound_to 10752
  154.8346  135.4507  154.1185 H   0  0  0  0  0  0  0  0  0  0  0  0  # atno 10764 bound_to 10752
  153.2315  135.6960  153.7965 H   0  0  0  0  0  0  0  0  0  0  0  0  # atno 10765 bound_to 10752
  140.4633  134.1105  155.7720 H   0  0  0  0  0  0  0  0  0  0  0  0  # atno 11005 bound_to 11000
  145.9360  140.9014  143.0332 LP  0  0  0  0  0  0  0  0  0  0  0  0  # atno 17320 bound_to 7965
  144.6729  140.1484  143.7432 LP  0  0  0  0  0  0  0  0  0  0  0  0  # atno 17321 bound_to 7965
  140.6302  143.2186  151.6511 LP  0  0  0  0  0  0  0  0  0  0  0  0  # atno 17342 bound_to 10162
  139.5168  144.3334  152.0806 LP  0  0  0  0  0  0  0  0  0  0  0  0  # atno 17343 bound_to 10162
  156.5499  130.4229  149.6112 LP  0  0  0  0  0  0  0  0  0  0  0  0  # atno 17370 bound_to 10713
  156.2911  130.7125  151.1974 LP  0  0  0  0  0  0  0  0  0  0  0  0  # atno 17371 bound_to 10713
  141.1611  133.8791  157.1845 LP  0  0  0  0  0  0  0  0  0  0  0  0  # atno 17394 bound_to 11000
  139.9931  135.0057  157.0022 LP  0  0  0  0  0  0  0  0  0  0  0  0  # atno 17395 bound_to 11000

$$$$
