AV-unprocessed.smi:142|AV-procd|sdf|1192|dock2
  -GOLD-   2262018353D 1   1.00000     0.00000
 Structure written by MMmdl.
 52 55  0  0  0  0  0  0  0  0  1 V2000
  147.9801  133.4736  156.4437 C   0  0  0  0  0  0  0  0  0  0  0  0
  147.6509  134.7548  155.6661 C   0  0  1  0  0  0  0  0  0  0  0  0
  148.8855  135.4859  155.3928 N   0  0  0  0  0  0  0  0  0  0  0  0
  149.5183  136.2815  156.2686 C   0  0  0  0  0  0  0  0  0  0  0  0
  149.1728  136.4053  157.4439 O   0  0  0  0  0  0  0  0  0  0  0  0
  150.7179  137.0697  155.7263 C   0  0  0  0  0  0  0  0  0  0  0  0
  150.4330  138.5199  155.6723 N   0  0  0  0  0  0  0  0  0  0  0  0
  149.4981  139.0068  154.7258 C   0  0  0  0  0  0  0  0  0  0  0  0
  148.8873  138.2428  153.9772 O   0  0  0  0  0  0  0  0  0  0  0  0
  149.3284  140.4551  154.6980 C   0  0  0  0  0  0  0  0  0  0  0  0
  148.4713  141.0086  153.8236 F   0  0  0  0  0  0  0  0  0  0  0  0
  150.0274  141.2526  155.5317 C   0  0  0  0  0  0  0  0  0  0  0  0
  150.9236  140.7661  156.4634 N   0  0  0  0  0  0  0  0  0  0  0  0
  151.7146  141.7477  157.3011 C   0  0  1  0  0  0  0  0  0  0  0  0
  151.5097  143.2162  156.8984 C   0  0  0  0  0  0  0  0  0  0  0  0
  151.5674  143.9037  158.2460 C   0  0  0  0  0  0  0  0  0  0  0  0
  150.9242  142.8685  159.1623 C   0  0  0  0  0  0  0  0  0  0  0  0
  151.3409  141.6089  158.6422 O   0  0  0  0  0  0  0  0  0  0  0  0
  151.1595  139.3737  156.5382 C   0  0  0  0  0  0  0  0  0  0  0  0
  151.9836  138.9089  157.3273 O   0  0  0  0  0  0  0  0  0  0  0  0
  146.8648  134.4384  154.3964 C   0  0  0  0  0  0  0  0  0  0  0  0
  146.3305  135.4719  153.5930 C   0  0  0  0  0  0  0  0  0  0  0  0
  145.5978  135.1659  152.4306 C   0  0  0  0  0  0  0  0  0  0  0  0
  145.3969  133.8229  152.0552 C   0  0  0  0  0  0  0  0  0  0  0  0
  144.6620  133.5099  150.8929 C   0  0  0  0  0  0  0  0  0  0  0  0
  144.4665  132.1649  150.5230 C   0  0  0  0  0  0  0  0  0  0  0  0
  145.0042  131.1300  151.3124 C   0  0  0  0  0  0  0  0  0  0  0  0
  145.7387  131.4371  152.4743 C   0  0  0  0  0  0  0  0  0  0  0  0
  145.9377  132.7818  152.8500 C   0  0  0  0  0  0  0  0  0  0  0  0
  146.6701  133.0942  154.0137 C   0  0  0  0  0  0  0  0  0  0  0  0
  147.0707  132.9375  156.7169 H   0  0  0  0  0  0  0  0  0  0  0  0
  148.5180  133.6995  157.3650 H   0  0  0  0  0  0  0  0  0  0  0  0
  148.5997  132.7976  155.8532 H   0  0  0  0  0  0  0  0  0  0  0  0
  147.0274  135.3803  156.3078 H   0  0  0  0  0  0  0  0  0  0  0  0
  149.2435  135.4392  154.4500 H   0  0  0  0  0  0  0  0  0  0  0  0
  151.5843  136.8405  156.3476 H   0  0  0  0  0  0  0  0  0  0  0  0
  150.9937  136.7021  154.7360 H   0  0  0  0  0  0  0  0  0  0  0  0
  149.8700  142.3191  155.4624 H   0  0  0  0  0  0  0  0  0  0  0  0
  152.7592  141.4469  157.2106 H   0  0  0  0  0  0  0  0  0  0  0  0
  152.2885  143.5433  156.2093 H   0  0  0  0  0  0  0  0  0  0  0  0
  150.5407  143.3742  156.4276 H   0  0  0  0  0  0  0  0  0  0  0  0
  152.6055  144.0672  158.5381 H   0  0  0  0  0  0  0  0  0  0  0  0
  151.0519  144.8641  158.2596 H   0  0  0  0  0  0  0  0  0  0  0  0
  151.2257  142.9862  160.2032 H   0  0  0  0  0  0  0  0  0  0  0  0
  149.8373  142.9403  159.1191 H   0  0  0  0  0  0  0  0  0  0  0  0
  146.4772  136.5067  153.8647 H   0  0  0  0  0  0  0  0  0  0  0  0
  145.1915  135.9666  151.8302 H   0  0  0  0  0  0  0  0  0  0  0  0
  144.2462  134.2974  150.2814 H   0  0  0  0  0  0  0  0  0  0  0  0
  143.9032  131.9266  149.6327 H   0  0  0  0  0  0  0  0  0  0  0  0
  144.8529  130.0995  151.0265 H   0  0  0  0  0  0  0  0  0  0  0  0
  146.1466  130.6371  153.0748 H   0  0  0  0  0  0  0  0  0  0  0  0
  147.0797  132.2994  154.6205 H   0  0  0  0  0  0  0  0  0  0  0  0
  1  2  1  0  0  0  0
  1 31  1  0  0  0  0
  1 32  1  0  0  0  0
  1 33  1  0  0  0  0
  2  3  1  0  0  0  0
  2 21  1  0  0  0  0
  2 34  1  0  0  0  0
  3  4  1  0  0  0  0
  3 35  1  0  0  0  0
  4  5  2  0  0  0  0
  4  6  1  0  0  0  0
  6  7  1  0  0  0  0
  6 36  1  0  0  0  0
  6 37  1  0  0  0  0
  7 19  1  0  0  0  0
  7  8  1  0  0  0  0
  8  9  2  0  0  0  0
  8 10  1  0  0  0  0
 10 11  1  0  0  0  0
 10 12  2  0  0  0  0
 12 13  1  0  0  0  0
 12 38  1  0  0  0  0
 13 14  1  0  0  0  0
 13 19  1  0  0  0  0
 14 18  1  0  0  0  0
 14 15  1  0  0  0  0
 14 39  1  0  0  0  0
 15 16  1  0  0  0  0
 15 40  1  0  0  0  0
 15 41  1  0  0  0  0
 16 17  1  0  0  0  0
 16 42  1  0  0  0  0
 16 43  1  0  0  0  0
 17 18  1  0  0  0  0
 17 44  1  0  0  0  0
 17 45  1  0  0  0  0
 19 20  2  0  0  0  0
 21 30  1  0  0  0  0
 21 22  2  0  0  0  0
 22 23  1  0  0  0  0
 22 46  1  0  0  0  0
 23 24  2  0  0  0  0
 23 47  1  0  0  0  0
 24 29  1  0  0  0  0
 24 25  1  0  0  0  0
 25 26  2  0  0  0  0
 25 48  1  0  0  0  0
 26 27  1  0  0  0  0
 26 49  1  0  0  0  0
 27 28  2  0  0  0  0
 27 50  1  0  0  0  0
 28 29  1  0  0  0  0
 28 51  1  0  0  0  0
 29 30  2  0  0  0  0
 30 52  1  0  0  0  0
M  END
> <s_m_source_file>
AV-unprocessed.smi

> <i_m_source_file_index>
142

> <i_lp_mmshare_version>
43012

> <i_f3d_flags>
0

> <s_epik_input>
W2NIXTFbY0hdW2NIXVtjSF1jKGMxMilbY0hdYyhbY0hdW2NIXTIpW0NASF0oW0NIM10pW05IXUMoPU8pW0NIMl1uM2MoPU8pYyhGKVtjSF1uKGMzPU8pW0NAQEhdNFtDSDJdW0NIMl1bQ0gyXU80

> <s_epik_cmdline>
J2VwaWtfcHl0aG9uJywgJy1waCcsICc3LjAnLCAnLXRuJywgJzgnLCAnLW1hJywgJzIwMCcsICctbWV0YWxfYmluZGluZycsICctaW1hZScsICc8aW5maWxlLm1hZT4nLCAnLW9tYWUnLCAnPG91dGZpbGUubWFlPic=

> <r_lp_tautomer_probability>
1

> <r_epik_Ionization_Penalty>
3.35688e-08

> <r_epik_Ionization_Penalty_Charging>
3.59856e-09

> <r_epik_Ionization_Penalty_Neutral>
2.99702e-08

> <r_epik_State_Penalty>
-0

> <r_epik_Charging_Adjusted_Penalty>
3.59856e-09

> <i_epik_Tot_Q>
0

> <i_epik_Tot_abs_Q>
0

> <r_epik_Metal_State_Penalty>
-0

> <b_epik_Metal_Only>
0

> <s_epik_Chemistry_Notes>
This compound contains an acetal/aminal-like group ( X-CH(R)-Y where X, Y are N, S, or O) that may be acid/base labile, releasing an aldehyde.

> <s_lp_Force_Field>
OPLS_2005

> <r_lp_Energy>
24.972

> <b_lp_Chiralities_Consistent>
1

> <s_lp_Variant>
AV-unprocessed.smi:142-4

> <Gold.Version>
5.8.1

> <Gold.Id.Protein>
6NUR|6NUR_protein|mol2

> <Gold.PLP.Fitness>
56.3115

> <Gold.PLP.PLP>
-48.4967

> <Gold.PLP.part.hbond>
-2.0000

> <Gold.PLP.part.metal>
0.0000

> <Gold.PLP.part.buried>
-2.1443

> <Gold.PLP.part.nonpolar>
-44.7375

> <Gold.PLP.part.repulsive>
0.8930

> <Gold.PLP.ligand.clash>
0.0000

> <Gold.PLP.ligand.torsion>
0.6423

> <Gold.PLP.Chemscore.Hbond>
2.0000

> <Gold.PLP.Chemscore.CHOScore>
1.0000

> <Gold.PLP.Chemscore.Metal>
0.0000

> <Gold.Chemscore.Hbonds>
donor molecule, donor type, donor heavy atom, donor atom, acceptor molecule, acceptor atom, score
      L1  C    12    38       P1  8028  0.83

> <Gold.PLP.Chemscore.Internal.Correction>
0.0993

> <Gold.Rescore>
     Score         DG    S(hbond)    S(metal)    S(lipo)     H(rot)  DE(clash)    DE(int)     intcor
     16.28     -18.71       1.77        0.00     106.81       2.02       1.24       1.19       ----

> <Gold.Chemscore.Fitness>
16.2766

> <Gold.Chemscore.DG>
-18.7074

> <Gold.Chemscore.ZeroCoef>
-5.4800

> <Gold.Chemscore.Hbond>
1.7653

> <Gold.Chemscore.Metal>
0.0000

> <Gold.Chemscore.Lipo>
106.8056

> <Gold.Chemscore.Internal_Hbond>
0.0000

> <Gold.Chemscore.DEClash>
1.2395

> <Gold.Chemscore.DEInternal>
1.1913

> <Gold.Chemscore.Rot>
2.0175

> <Gold.Chemscore.Internal.Correction>
   9.000000E+99

> <Gold.Chemscore.Hbond.Weighted>
-5.8960

> <Gold.Chemscore.Metal.Weighted>
-0.0000

> <Gold.Chemscore.Lipo.Weighted>
-12.4963

> <Gold.Chemscore.Internal_Hbond.Weighted>
0.0000

> <Gold.Chemscore.DEClash.Weighted>
1.2395

> <Gold.Chemscore.DEInternal.Weighted>
1.1913

> <Gold.Chemscore.Rot.Weighted>
5.1648

> <Gold.Chemscore.Internal.Correction.Weighted>
   9.000000E+99

> <Gold.Protein.RotatedTorsions>
[ 6907 6896 6895 6894 ] final   66.33 input  -60.11 | X-H torsion
[ 7974 7965 7964 7962 ] final  -26.29 input  175.53 | X-H torsion
[ 8008 7997 7996 7995 ] final   88.12 input   59.86 | X-H torsion
[ 10167 10162 10161 10158 ] final   68.47 input  -65.29 | X-H torsion
[ 10718 10713 10712 10709 ] final  -81.35 input   66.30 | X-H torsion
[ 10763 10752 10751 10750 ] final   69.41 input  -60.55 | X-H torsion
[ 11005 11000 10999 10996 ] final  -41.56 input  -57.11 | X-H torsion

> <Gold.Protein.ActiveResidues>
 VAL166  LYS551  ARG553  GLY616  TRP617  ASP618  TYR619  PRO620  LYS621  CYS622 
 ASP623  PHE694  ASN695  SER759  ASP760  ASP761  ALA762  ILE779  LEU786  VAL792 
 PHE793  MET794  SER795  GLU796  ALA797  LYS798  CYS799  TRP800  GLU811  SER814 

> <Gold.Protein.RotatedAtoms>
  152.4473  134.5467  159.9854 H   0  0  0  0  0  0  0  0  0  0  0  0  # atno 6907 bound_to 6896
  151.5549  133.3406  159.2968 H   0  0  0  0  0  0  0  0  0  0  0  0  # atno 6908 bound_to 6896
  150.8393  134.7711  159.6982 H   0  0  0  0  0  0  0  0  0  0  0  0  # atno 6909 bound_to 6896
  146.1435  140.5000  142.8642 H   0  0  0  0  0  0  0  0  0  0  0  0  # atno 7974 bound_to 7965
  155.9839  140.3375  155.6689 H   0  0  0  0  0  0  0  0  0  0  0  0  # atno 8008 bound_to 7997
  155.6512  140.0706  157.2604 H   0  0  0  0  0  0  0  0  0  0  0  0  # atno 8009 bound_to 7997
  154.4199  140.1725  156.1664 H   0  0  0  0  0  0  0  0  0  0  0  0  # atno 8010 bound_to 7997
  140.0783  144.5093  150.7180 H   0  0  0  0  0  0  0  0  0  0  0  0  # atno 10167 bound_to 10162
  156.0052  130.4601  150.3939 H   0  0  0  0  0  0  0  0  0  0  0  0  # atno 10718 bound_to 10713
  153.0286  135.5212  154.7284 H   0  0  0  0  0  0  0  0  0  0  0  0  # atno 10763 bound_to 10752
  154.6319  135.2901  155.0209 H   0  0  0  0  0  0  0  0  0  0  0  0  # atno 10764 bound_to 10752
  154.1158  135.6615  153.4946 H   0  0  0  0  0  0  0  0  0  0  0  0  # atno 10765 bound_to 10752
  141.0254  133.6843  156.2474 H   0  0  0  0  0  0  0  0  0  0  0  0  # atno 11005 bound_to 11000
  144.7819  140.5858  143.6599 LP  0  0  0  0  0  0  0  0  0  0  0  0  # atno 17320 bound_to 7965
  145.4992  139.1484  143.3667 LP  0  0  0  0  0  0  0  0  0  0  0  0  # atno 17321 bound_to 7965
  140.7091  143.2491  151.4637 LP  0  0  0  0  0  0  0  0  0  0  0  0  # atno 17342 bound_to 10162
  139.5795  144.1742  152.1949 LP  0  0  0  0  0  0  0  0  0  0  0  0  # atno 17343 bound_to 10162
  157.2012  131.0438  151.2649 LP  0  0  0  0  0  0  0  0  0  0  0  0  # atno 17370 bound_to 10713
  157.3973  130.7314  149.6741 LP  0  0  0  0  0  0  0  0  0  0  0  0  # atno 17371 bound_to 10713
  140.6500  134.5077  157.5576 LP  0  0  0  0  0  0  0  0  0  0  0  0  # atno 17394 bound_to 11000
  139.9173  134.8221  156.1326 LP  0  0  0  0  0  0  0  0  0  0  0  0  # atno 17395 bound_to 11000

$$$$
