AV-unprocessed.smi:113|AV-procd|sdf|1101|dock4
  -GOLD-   2262018213D 1   1.00000     0.00000
 Structure written by MMmdl.
 53 56  0  0  0  0  0  0  0  0  2 V2000
  148.3834  141.2182  155.1753 C   0  0  0  0  0  0  0  0  0  0  0  0
  149.5256  141.1128  156.1632 C   0  0  0  0  0  0  0  0  0  0  0  0
  150.0690  139.8726  156.5499 C   0  0  0  0  0  0  0  0  0  0  0  0
  151.1347  139.8264  157.4827 C   0  0  0  0  0  0  0  0  0  0  0  0
  151.7422  138.4905  157.9244 C   0  0  0  0  0  0  0  0  0  0  0  0
  150.8736  137.3233  157.8621 N   0  0  0  0  0  0  0  0  0  0  0  0
  150.9439  136.5032  156.7099 C   0  0  0  0  0  0  0  0  0  0  0  0
  151.7050  136.7660  155.7762 O   0  0  0  0  0  0  0  0  0  0  0  0
  150.0398  135.3509  156.7122 C   0  0  0  0  0  0  0  0  0  0  0  0
  150.0914  134.3975  155.5285 C   0  0  0  0  0  0  0  0  0  0  0  0
  149.1923  135.1630  157.7524 C   0  0  0  0  0  0  0  0  0  0  0  0
  149.1052  136.0102  158.8436 N   0  0  0  0  0  0  0  0  0  0  0  0
  148.1311  135.6855  159.9587 C   0  0  2  0  0  0  0  0  0  0  0  0
  147.2965  136.8874  160.4167 C   0  0  0  0  0  0  0  0  0  0  0  0
  147.1686  136.6052  161.8994 C   0  0  2  0  0  0  0  0  0  0  0  0
  146.9515  137.7992  162.6230 O   0  0  0  0  0  0  0  0  0  0  0  0
  148.5149  135.9553  162.2361 C   0  0  1  0  0  0  0  0  0  0  0  0
  148.4502  135.0142  163.4487 C   0  0  0  0  0  0  0  0  0  0  0  0
  147.4831  134.0088  163.2330 O   0  0  0  0  0  0  0  0  0  0  0  0
  148.8439  135.2102  161.0628 O   0  0  0  0  0  0  0  0  0  0  0  0
  149.9800  137.1157  158.9367 C   0  0  0  0  0  0  0  0  0  0  0  0
  149.9547  137.8752  159.9070 O   0  0  0  0  0  0  0  0  0  0  0  0
  151.6297  141.0545  158.0013 C   0  0  0  0  0  0  0  0  0  0  0  0
  152.6946  141.1057  158.9326 C   0  0  0  0  0  0  0  0  0  0  0  0
  153.1542  142.3425  159.4259 C   0  0  0  0  0  0  0  0  0  0  0  0
  152.5597  143.5436  158.9964 C   0  0  0  0  0  0  0  0  0  0  0  0
  151.5015  143.5110  158.0697 C   0  0  0  0  0  0  0  0  0  0  0  0
  151.0398  142.2752  157.5751 C   0  0  0  0  0  0  0  0  0  0  0  0
  150.0246  142.2512  156.6861 N   0  3  0  0  0  0  0  0  0  0  0  0
  148.3550  140.3464  154.5209 H   0  0  0  0  0  0  0  0  0  0  0  0
  148.4897  142.1060  154.5511 H   0  0  0  0  0  0  0  0  0  0  0  0
  147.4324  141.2804  155.7046 H   0  0  0  0  0  0  0  0  0  0  0  0
  149.6576  138.9694  156.1247 H   0  0  0  0  0  0  0  0  0  0  0  0
  152.6355  138.2728  157.3373 H   0  0  0  0  0  0  0  0  0  0  0  0
  152.1074  138.5607  158.9504 H   0  0  0  0  0  0  0  0  0  0  0  0
  149.3949  133.5670  155.6458 H   0  0  0  0  0  0  0  0  0  0  0  0
  151.0924  133.9786  155.4178 H   0  0  0  0  0  0  0  0  0  0  0  0
  149.8348  134.9202  154.6064 H   0  0  0  0  0  0  0  0  0  0  0  0
  148.5408  134.3013  157.7202 H   0  0  0  0  0  0  0  0  0  0  0  0
  147.5021  134.8739  159.5925 H   0  0  0  0  0  0  0  0  0  0  0  0
  147.8196  137.8259  160.2372 H   0  0  0  0  0  0  0  0  0  0  0  0
  146.3395  136.9201  159.8954 H   0  0  0  0  0  0  0  0  0  0  0  0
  146.3497  135.9054  162.0735 H   0  0  0  0  0  0  0  0  0  0  0  0
  146.6168  137.5759  163.4783 H   0  0  0  0  0  0  0  0  0  0  0  0
  149.2664  136.7322  162.3866 H   0  0  0  0  0  0  0  0  0  0  0  0
  149.4107  134.5169  163.5884 H   0  0  0  0  0  0  0  0  0  0  0  0
  148.2325  135.5620  164.3660 H   0  0  0  0  0  0  0  0  0  0  0  0
  146.8828  134.3066  162.5665 H   0  0  0  0  0  0  0  0  0  0  0  0
  153.1760  140.2059  159.2845 H   0  0  0  0  0  0  0  0  0  0  0  0
  153.9669  142.3692  160.1373 H   0  0  0  0  0  0  0  0  0  0  0  0
  152.9161  144.4895  159.3778 H   0  0  0  0  0  0  0  0  0  0  0  0
  151.0489  144.4362  157.7431 H   0  0  0  0  0  0  0  0  0  0  0  0
  149.6151  143.1385  156.3942 H   0  0  0  0  0  0  0  0  0  0  0  0
  1  2  1  0  0  0  0
  1 30  1  0  0  0  0
  1 31  1  0  0  0  0
  1 32  1  0  0  0  0
  2 29  1  0  0  0  0
  2  3  2  0  0  0  0
  3  4  1  0  0  0  0
  3 33  1  0  0  0  0
  4  5  1  0  0  0  0
  4 23  2  0  0  0  0
  5  6  1  0  0  0  0
  5 34  1  0  0  0  0
  5 35  1  0  0  0  0
  6 21  1  0  0  0  0
  6  7  1  0  0  0  0
  7  8  2  0  0  0  0
  7  9  1  0  0  0  0
  9 10  1  0  0  0  0
  9 11  2  0  0  0  0
 10 36  1  0  0  0  0
 10 37  1  0  0  0  0
 10 38  1  0  0  0  0
 11 12  1  0  0  0  0
 11 39  1  0  0  0  0
 12 13  1  0  0  0  0
 12 21  1  0  0  0  0
 13 20  1  0  0  0  0
 13 14  1  0  0  0  0
 13 40  1  0  0  0  0
 14 15  1  0  0  0  0
 14 41  1  0  0  0  0
 14 42  1  0  0  0  0
 15 16  1  0  0  0  0
 15 17  1  0  0  0  0
 15 43  1  0  0  0  0
 16 44  1  0  0  0  0
 17 18  1  0  0  0  0
 17 20  1  0  0  0  0
 17 45  1  0  0  0  0
 18 19  1  0  0  0  0
 18 46  1  0  0  0  0
 18 47  1  0  0  0  0
 19 48  1  0  0  0  0
 21 22  2  0  0  0  0
 23 28  1  0  0  0  0
 23 24  1  0  0  0  0
 24 25  2  0  0  0  0
 24 49  1  0  0  0  0
 25 26  1  0  0  0  0
 25 50  1  0  0  0  0
 26 27  2  0  0  0  0
 26 51  1  0  0  0  0
 27 28  1  0  0  0  0
 27 52  1  0  0  0  0
 28 29  2  0  0  0  0
 29 53  1  0  0  0  0
M  CHG  1  29   1
M  END
> <s_m_source_file>
AV-unprocessed.smi

> <i_m_source_file_index>
113

> <i_lp_mmshare_version>
43012

> <i_f3d_flags>
0

> <s_epik_input>
W2NIXTFbY0hdW2NIXVtjSF1jKGMxMiluYyhbQ0gzXSlbY0hdYzJbQ0gyXW4zYyg9TyljKFtDSDNdKVtjSF1uKGMzPU8pW0NAQEhdNFtDSDJdW0NAQEhdKFtPSF0pW0NASF0oTzQpW0NIMl1bT0hd

> <s_epik_cmdline>
J2VwaWtfcHl0aG9uJywgJy1waCcsICc3LjAnLCAnLXRuJywgJzgnLCAnLW1hJywgJzIwMCcsICctbWV0YWxfYmluZGluZycsICctaW1hZScsICc8aW5maWxlLm1hZT4nLCAnLW9tYWUnLCAnPG91dGZpbGUubWFlPic=

> <r_lp_tautomer_probability>
1

> <r_epik_Ionization_Penalty>
0.705471

> <r_epik_Ionization_Penalty_Charging>
0.70547

> <r_epik_Ionization_Penalty_Neutral>
1.19947e-07

> <r_epik_State_Penalty>
0.728574

> <r_epik_Charging_Adjusted_Penalty>
1.43404

> <i_epik_Tot_Q>
1

> <i_epik_Tot_abs_Q>
1

> <r_epik_Metal_State_Penalty>
4.61665

> <b_epik_Metal_Only>
0

> <s_epik_Chemistry_Notes>
This compound contains an acetal/aminal-like group ( X-CH(R)-Y where X, Y are N, S, or O) that may be acid/base labile, releasing an aldehyde.

> <s_lp_Force_Field>
OPLS_2005

> <r_lp_Energy>
36.4748

> <b_lp_Chiralities_Consistent>
1

> <s_lp_Variant>
AV-unprocessed.smi:113-11

> <Gold.Version>
5.8.1

> <Gold.Id.Protein>
6NUR|6NUR_protein|mol2

> <Gold.PLP.Fitness>
59.0981

> <Gold.PLP.PLP>
-49.3920

> <Gold.PLP.part.hbond>
-4.1831

> <Gold.PLP.part.metal>
0.0000

> <Gold.PLP.part.buried>
-8.0160

> <Gold.PLP.part.nonpolar>
-38.9455

> <Gold.PLP.part.repulsive>
0.1221

> <Gold.PLP.ligand.clash>
0.0000

> <Gold.PLP.ligand.torsion>
0.9614

> <Gold.PLP.Chemscore.Hbond>
3.8640

> <Gold.PLP.Chemscore.CHOScore>
0.0000

> <Gold.PLP.Chemscore.Metal>
0.0000

> <Gold.Chemscore.Hbonds>
donor molecule, donor type, donor heavy atom, donor atom, acceptor molecule, acceptor atom, score
      L1  H    29    53       P1  8028  2.00
      P1  H  6931  6943       L1    16  0.04
      P1  H  6934  6947       L1    16  0.26
      P1  H 10752 10765       L1     8  0.93

> <Gold.PLP.Chemscore.Internal.Correction>
0.0368

> <Gold.Rescore>
     Score         DG    S(hbond)    S(metal)    S(lipo)     H(rot)  DE(clash)    DE(int)     intcor
     19.02     -21.25       2.70        0.00     123.69       3.01       0.19       2.04       ----

> <Gold.Chemscore.Fitness>
19.0212

> <Gold.Chemscore.DG>
-21.2496

> <Gold.Chemscore.ZeroCoef>
-5.4800

> <Gold.Chemscore.Hbond>
2.6972

> <Gold.Chemscore.Metal>
0.0000

> <Gold.Chemscore.Lipo>
123.6904

> <Gold.Chemscore.Internal_Hbond>
0.0000

> <Gold.Chemscore.DEClash>
0.1913

> <Gold.Chemscore.DEInternal>
2.0372

> <Gold.Chemscore.Rot>
3.0120

> <Gold.Chemscore.Internal.Correction>
   9.000000E+99

> <Gold.Chemscore.Hbonds>
donor molecule, donor type, donor heavy atom, donor atom, acceptor molecule, acceptor atom, score
      L1  H    29    53       P1  8028  1.00
      P1  H  6931  6943       L1    22  0.02
      P1  H  6934  6947       L1    16  0.03
      P1  H 10752 10765       L1     8  0.86

> <Gold.Chemscore.Hbond.Weighted>
-9.0086

> <Gold.Chemscore.Metal.Weighted>
-0.0000

> <Gold.Chemscore.Lipo.Weighted>
-14.4718

> <Gold.Chemscore.Internal_Hbond.Weighted>
0.0000

> <Gold.Chemscore.DEClash.Weighted>
0.1913

> <Gold.Chemscore.DEInternal.Weighted>
2.0372

> <Gold.Chemscore.Rot.Weighted>
7.7108

> <Gold.Chemscore.Internal.Correction.Weighted>
   9.000000E+99

> <Gold.Protein.RotatedTorsions>
[ 6907 6896 6895 6894 ] final -138.85 input  -60.11 | X-H torsion
[ 7974 7965 7964 7962 ] final  -56.53 input  175.53 | X-H torsion
[ 8008 7997 7996 7995 ] final -113.29 input   59.86 | X-H torsion
[ 10167 10162 10161 10158 ] final -122.98 input  -65.29 | X-H torsion
[ 10718 10713 10712 10709 ] final   53.62 input   66.30 | X-H torsion
[ 10763 10752 10751 10750 ] final -149.69 input  -60.55 | X-H torsion
[ 11005 11000 10999 10996 ] final  -85.66 input  -57.11 | X-H torsion

> <Gold.Protein.ActiveResidues>
 VAL166  LYS551  ARG553  GLY616  TRP617  ASP618  TYR619  PRO620  LYS621  CYS622 
 ASP623  PHE694  ASN695  SER759  ASP760  ASP761  ALA762  ILE779  LEU786  VAL792 
 PHE793  MET794  SER795  GLU796  ALA797  LYS798  CYS799  TRP800  GLU811  SER814 

> <Gold.Protein.RotatedAtoms>
  151.0403  133.5712  159.2651 H   0  0  0  0  0  0  0  0  0  0  0  0  # atno 6907 bound_to 6896
  151.2761  135.0699  159.9162 H   0  0  0  0  0  0  0  0  0  0  0  0  # atno 6908 bound_to 6896
  152.5363  134.0125  159.7999 H   0  0  0  0  0  0  0  0  0  0  0  0  # atno 6909 bound_to 6896
  145.8615  140.8281  142.9934 H   0  0  0  0  0  0  0  0  0  0  0  0  # atno 7974 bound_to 7965
  155.0184  140.0393  157.2427 H   0  0  0  0  0  0  0  0  0  0  0  0  # atno 8008 bound_to 7997
  154.7399  140.2747  155.6359 H   0  0  0  0  0  0  0  0  0  0  0  0  # atno 8009 bound_to 7997
  156.2862  140.2667  156.2124 H   0  0  0  0  0  0  0  0  0  0  0  0  # atno 8010 bound_to 7997
  140.0085  143.5467  152.2273 H   0  0  0  0  0  0  0  0  0  0  0  0  # atno 10167 bound_to 10162
  157.5184  130.8548  149.8525 H   0  0  0  0  0  0  0  0  0  0  0  0  # atno 10718 bound_to 10713
  154.8163  135.3303  154.7167 H   0  0  0  0  0  0  0  0  0  0  0  0  # atno 10763 bound_to 10752
  153.7807  135.6918  153.4893 H   0  0  0  0  0  0  0  0  0  0  0  0  # atno 10764 bound_to 10752
  153.1982  135.4526  155.0181 H   0  0  0  0  0  0  0  0  0  0  0  0  # atno 10765 bound_to 10752
  141.1639  133.7411  156.9048 H   0  0  0  0  0  0  0  0  0  0  0  0  # atno 11005 bound_to 11000
  144.6726  140.1103  143.7456 LP  0  0  0  0  0  0  0  0  0  0  0  0  # atno 17320 bound_to 7965
  145.9242  139.2565  143.1363 LP  0  0  0  0  0  0  0  0  0  0  0  0  # atno 17321 bound_to 7965
  139.6222  144.7631  151.2716 LP  0  0  0  0  0  0  0  0  0  0  0  0  # atno 17342 bound_to 10162
  140.7391  143.6628  150.8149 LP  0  0  0  0  0  0  0  0  0  0  0  0  # atno 17343 bound_to 10162
  156.0336  130.3757  150.1621 LP  0  0  0  0  0  0  0  0  0  0  0  0  # atno 17370 bound_to 10713
  156.9809  130.9864  151.3437 LP  0  0  0  0  0  0  0  0  0  0  0  0  # atno 17371 bound_to 10713
  140.1558  134.9199  157.2651 LP  0  0  0  0  0  0  0  0  0  0  0  0  # atno 17394 bound_to 11000
  140.2669  134.3505  155.7387 LP  0  0  0  0  0  0  0  0  0  0  0  0  # atno 17395 bound_to 11000

$$$$
