AV-unprocessed.smi:583|AV-procd|sdf|2997|dock1
  -GOLD-   2262023503D 1   1.00000     0.00000
 Structure written by MMmdl.
 35 36  0  0  0  0  0  0  0  0  1 V2000
  151.3152  141.1488  157.4257 O   0  0  0  0  0  0  0  0  0  0  0  0
  150.8540  142.2755  157.2482 C   0  0  0  0  0  0  0  0  0  0  0  0
  151.5838  143.4841  157.8598 C   0  0  0  0  0  0  0  0  0  0  0  0
  152.0703  143.2882  159.2377 N   0  0  0  0  0  0  0  0  0  0  0  0
  152.9083  142.1793  159.4686 C   0  0  0  0  0  0  0  0  0  0  0  0
  153.4310  141.8945  160.6769 C   0  0  0  0  0  0  0  0  0  0  0  0
  154.2919  140.6619  160.9061 C   0  0  0  0  0  0  0  0  0  0  0  0
  153.6211  139.5692  160.5441 F   0  0  0  0  0  0  0  0  0  0  0  0
  155.4134  140.7190  160.1874 F   0  0  0  0  0  0  0  0  0  0  0  0
  154.6235  140.5383  162.1923 F   0  0  0  0  0  0  0  0  0  0  0  0
  153.0583  142.7768  161.7651 C   0  0  0  0  0  0  0  0  0  0  0  0
  152.2547  143.8391  161.5625 C   0  0  0  0  0  0  0  0  0  0  0  0
  151.7177  144.1523  160.2365 C   0  0  0  0  0  0  0  0  0  0  0  0
  151.0004  145.1321  160.0347 O   0  0  0  0  0  0  0  0  0  0  0  0
  149.7351  142.4976  156.5374 N   0  0  0  0  0  0  0  0  0  0  0  0
  148.9240  141.4676  155.8983 C   0  0  2  0  0  0  0  0  0  0  0  0
  148.7872  141.6946  154.3789 C   0  0  0  0  0  0  0  0  0  0  0  0
  147.6418  140.8217  153.8525 C   0  0  0  0  0  0  0  0  0  0  0  0
  146.4419  140.6707  155.2298 S   0  0  0  0  0  0  0  0  0  0  0  0
  145.2891  141.5487  154.9784 O   0  0  0  0  0  0  0  0  0  0  0  0
  146.2548  139.2461  155.5443 O   0  0  0  0  0  0  0  0  0  0  0  0
  147.5131  141.4408  156.5014 C   0  0  0  0  0  0  0  0  0  0  0  0
  152.4102  143.7565  157.2008 H   0  0  0  0  0  0  0  0  0  0  0  0
  150.9065  144.3384  157.8217 H   0  0  0  0  0  0  0  0  0  0  0  0
  153.1032  141.5747  158.5943 H   0  0  0  0  0  0  0  0  0  0  0  0
  153.4332  142.5861  162.7601 H   0  0  0  0  0  0  0  0  0  0  0  0
  152.0002  144.4767  162.3965 H   0  0  0  0  0  0  0  0  0  0  0  0
  149.4217  143.4521  156.4365 H   0  0  0  0  0  0  0  0  0  0  0  0
  149.3787  140.4890  156.0638 H   0  0  0  0  0  0  0  0  0  0  0  0
  148.5413  142.7414  154.1938 H   0  0  0  0  0  0  0  0  0  0  0  0
  149.7184  141.4891  153.8497 H   0  0  0  0  0  0  0  0  0  0  0  0
  147.1556  141.2421  152.9721 H   0  0  0  0  0  0  0  0  0  0  0  0
  148.0000  139.8213  153.6085 H   0  0  0  0  0  0  0  0  0  0  0  0
  147.4566  140.8776  157.4330 H   0  0  0  0  0  0  0  0  0  0  0  0
  147.1390  142.4494  156.6808 H   0  0  0  0  0  0  0  0  0  0  0  0
  1  2  2  0  0  0  0
  2  3  1  0  0  0  0
  2 15  1  0  0  0  0
  3  4  1  0  0  0  0
  3 23  1  0  0  0  0
  3 24  1  0  0  0  0
  4 13  1  0  0  0  0
  4  5  1  0  0  0  0
  5  6  2  0  0  0  0
  5 25  1  0  0  0  0
  6  7  1  0  0  0  0
  6 11  1  0  0  0  0
  7  8  1  0  0  0  0
  7  9  1  0  0  0  0
  7 10  1  0  0  0  0
 11 12  2  0  0  0  0
 11 26  1  0  0  0  0
 12 13  1  0  0  0  0
 12 27  1  0  0  0  0
 13 14  2  0  0  0  0
 15 16  1  0  0  0  0
 15 28  1  0  0  0  0
 16 22  1  0  0  0  0
 16 17  1  0  0  0  0
 16 29  1  0  0  0  0
 17 18  1  0  0  0  0
 17 30  1  0  0  0  0
 17 31  1  0  0  0  0
 18 19  1  0  0  0  0
 18 32  1  0  0  0  0
 18 33  1  0  0  0  0
 19 20  2  0  0  0  0
 19 21  2  0  0  0  0
 19 22  1  0  0  0  0
 22 34  1  0  0  0  0
 22 35  1  0  0  0  0
M  END
> <s_m_source_file>
AV-unprocessed.smi

> <i_m_source_file_index>
583

> <i_lp_mmshare_version>
43012

> <i_f3d_flags>
0

> <s_epik_input>
Tz1TMSg9TylbQ0gyXVtDSDJdW0NASF0oW0NIMl0xKVtOSF1DKD1PKVtDSDJdbjJbY0hdYyhDKEYpKEYpRilbY0hdW2NIXWMyPU8=

> <s_epik_cmdline>
J2VwaWtfcHl0aG9uJywgJy1waCcsICc3LjAnLCAnLXRuJywgJzgnLCAnLW1hJywgJzIwMCcsICctbWV0YWxfYmluZGluZycsICctaW1hZScsICc8aW5maWxlLm1hZT4nLCAnLW9tYWUnLCAnPG91dGZpbGUubWFlPic=

> <r_lp_tautomer_probability>
1

> <r_epik_Ionization_Penalty>
1.22016e-07

> <r_epik_Ionization_Penalty_Charging>
1.48237e-08

> <r_epik_Ionization_Penalty_Neutral>
1.07193e-07

> <r_epik_State_Penalty>
-0

> <r_epik_Charging_Adjusted_Penalty>
1.48237e-08

> <i_epik_Tot_Q>
0

> <i_epik_Tot_abs_Q>
0

> <r_epik_Metal_State_Penalty>
-0

> <b_epik_Metal_Only>
0

> <s_lp_Force_Field>
OPLS_2005

> <r_lp_Energy>
16.6381

> <b_lp_Chiralities_Consistent>
1

> <s_lp_Variant>
AV-unprocessed.smi:583-1

> <Gold.Version>
5.8.1

> <Gold.Id.Protein>
6NUR|6NUR_protein|mol2

> <Gold.PLP.Fitness>
49.8546

> <Gold.PLP.PLP>
-47.3587

> <Gold.PLP.part.hbond>
-1.0000

> <Gold.PLP.part.metal>
0.0000

> <Gold.PLP.part.buried>
-4.3383

> <Gold.PLP.part.nonpolar>
-42.7184

> <Gold.PLP.part.repulsive>
0.4350

> <Gold.PLP.ligand.clash>
0.0000

> <Gold.PLP.ligand.torsion>
0.2912

> <Gold.PLP.Chemscore.Hbond>
1.0000

> <Gold.PLP.Chemscore.CHOScore>
0.0000

> <Gold.PLP.Chemscore.Metal>
0.0000

> <Gold.Chemscore.Hbonds>
donor molecule, donor type, donor heavy atom, donor atom, acceptor molecule, acceptor atom, score
      L1  H    15    28       P1  8028  1.00

> <Gold.PLP.Chemscore.Internal.Correction>
0.0783

> <Gold.Rescore>
     Score         DG    S(hbond)    S(metal)    S(lipo)     H(rot)  DE(clash)    DE(int)     intcor
     13.30     -15.22       0.99        0.00      92.97       1.73       0.34       1.58       ----

> <Gold.Chemscore.Fitness>
13.2989

> <Gold.Chemscore.DG>
-15.2217

> <Gold.Chemscore.ZeroCoef>
-5.4800

> <Gold.Chemscore.Hbond>
0.9868

> <Gold.Chemscore.Metal>
0.0000

> <Gold.Chemscore.Lipo>
92.9746

> <Gold.Chemscore.Internal_Hbond>
0.0000

> <Gold.Chemscore.DEClash>
0.3448

> <Gold.Chemscore.DEInternal>
1.5780

> <Gold.Chemscore.Rot>
1.7314

> <Gold.Chemscore.Internal.Correction>
   9.000000E+99

> <Gold.Chemscore.Hbonds>
donor molecule, donor type, donor heavy atom, donor atom, acceptor molecule, acceptor atom, score
      L1  H    15    28       P1  8028  0.96

> <Gold.Chemscore.Hbond.Weighted>
-3.2960

> <Gold.Chemscore.Metal.Weighted>
-0.0000

> <Gold.Chemscore.Lipo.Weighted>
-10.8780

> <Gold.Chemscore.Internal_Hbond.Weighted>
0.0000

> <Gold.Chemscore.DEClash.Weighted>
0.3448

> <Gold.Chemscore.DEInternal.Weighted>
1.5780

> <Gold.Chemscore.Rot.Weighted>
4.4324

> <Gold.Chemscore.Internal.Correction.Weighted>
   9.000000E+99

> <Gold.Protein.RotatedTorsions>
[ 6907 6896 6895 6894 ] final   27.14 input  -60.11 | X-H torsion
[ 7974 7965 7964 7962 ] final   -8.89 input  175.53 | X-H torsion
[ 8008 7997 7996 7995 ] final  -64.33 input   59.86 | X-H torsion
[ 10167 10162 10161 10158 ] final -112.09 input  -65.29 | X-H torsion
[ 10718 10713 10712 10709 ] final -105.56 input   66.30 | X-H torsion
[ 10763 10752 10751 10750 ] final   46.81 input  -60.55 | X-H torsion
[ 11005 11000 10999 10996 ] final  -88.60 input  -57.11 | X-H torsion

> <Gold.Protein.ActiveResidues>
 VAL166  LYS551  ARG553  GLY616  TRP617  ASP618  TYR619  PRO620  LYS621  CYS622 
 ASP623  PHE694  ASN695  SER759  ASP760  ASP761  ALA762  ILE779  LEU786  VAL792 
 PHE793  MET794  SER795  GLU796  ALA797  LYS798  CYS799  TRP800  GLU811  SER814 

> <Gold.Protein.RotatedAtoms>
  151.9979  134.9944  160.0563 H   0  0  0  0  0  0  0  0  0  0  0  0  # atno 6907 bound_to 6896
  152.1547  133.4539  159.4839 H   0  0  0  0  0  0  0  0  0  0  0  0  # atno 6908 bound_to 6896
  150.6880  134.2064  159.4385 H   0  0  0  0  0  0  0  0  0  0  0  0  # atno 6909 bound_to 6896
  146.2267  140.2536  142.8348 H   0  0  0  0  0  0  0  0  0  0  0  0  # atno 7974 bound_to 7965
  154.4605  140.0956  156.6880 H   0  0  0  0  0  0  0  0  0  0  0  0  # atno 8008 bound_to 7997
  155.5008  140.3473  155.4352 H   0  0  0  0  0  0  0  0  0  0  0  0  # atno 8009 bound_to 7997
  156.0861  140.1385  156.9640 H   0  0  0  0  0  0  0  0  0  0  0  0  # atno 8010 bound_to 7997
  140.1265  143.4398  152.1656 H   0  0  0  0  0  0  0  0  0  0  0  0  # atno 10167 bound_to 10162
  156.0351  130.5570  150.7557 H   0  0  0  0  0  0  0  0  0  0  0  0  # atno 10718 bound_to 10713
  152.9806  135.5996  154.3660 H   0  0  0  0  0  0  0  0  0  0  0  0  # atno 10763 bound_to 10752
  154.3338  135.2768  155.2460 H   0  0  0  0  0  0  0  0  0  0  0  0  # atno 10764 bound_to 10752
  154.4572  135.5975  153.6287 H   0  0  0  0  0  0  0  0  0  0  0  0  # atno 10765 bound_to 10752
  141.1599  133.7580  156.9475 H   0  0  0  0  0  0  0  0  0  0  0  0  # atno 11005 bound_to 11000
  144.9393  140.8061  143.5640 LP  0  0  0  0  0  0  0  0  0  0  0  0  # atno 17320 bound_to 7965
  145.2486  139.2041  143.4954 LP  0  0  0  0  0  0  0  0  0  0  0  0  # atno 17321 bound_to 7965
  139.5542  144.7360  151.4345 LP  0  0  0  0  0  0  0  0  0  0  0  0  # atno 17342 bound_to 10162
  140.6842  143.8012  150.7163 LP  0  0  0  0  0  0  0  0  0  0  0  0  # atno 17343 bound_to 10162
  157.5089  131.0924  151.0222 LP  0  0  0  0  0  0  0  0  0  0  0  0  # atno 17370 bound_to 10713
  157.0583  130.5815  149.5381 LP  0  0  0  0  0  0  0  0  0  0  0  0  # atno 17371 bound_to 10713
  140.1279  134.9374  157.2296 LP  0  0  0  0  0  0  0  0  0  0  0  0  # atno 17394 bound_to 11000
  140.2989  134.3154  155.7295 LP  0  0  0  0  0  0  0  0  0  0  0  0  # atno 17395 bound_to 11000

$$$$
