AV-unprocessed.smi:1150|AV-procd|sdf|4893|dock6
  -GOLD-   22720 3463D 1   1.00000     0.00000
 Structure written by MMmdl.
 50 51  0  0  0  0  0  0  0  0  1 V2000
  154.1123  140.6404  160.6651 C   0  0  0  0  0  0  0  0  0  0  0  0
  153.7090  140.7871  159.1908 C   0  0  0  0  0  0  0  0  0  0  0  0
  152.1882  140.9404  158.9812 C   0  0  2  0  0  0  0  0  0  0  0  0
  151.8232  140.5179  157.6299 N   0  0  0  0  0  0  0  0  0  0  0  0
  150.6508  140.7378  157.0145 C   0  0  0  0  0  0  0  0  0  0  0  0
  149.6509  141.1762  157.5817 O   0  0  0  0  0  0  0  0  0  0  0  0
  150.6260  140.4713  155.5089 C   0  0  0  0  0  0  0  0  0  0  0  0
  150.8391  138.9957  155.2665 C   0  0  0  0  0  0  0  0  0  0  0  0
  152.0074  138.3606  154.7514 C   0  0  0  0  0  0  0  0  0  0  0  0
  153.3073  138.9960  154.3492 C   0  0  0  0  0  0  0  0  0  0  0  0
  151.8537  137.0541  154.6143 N   0  0  0  0  0  0  0  0  0  0  0  0
  150.5956  136.8102  155.0319 N   0  0  0  0  0  0  0  0  0  0  0  0
  150.0861  135.4533  155.0017 C   0  0  0  0  0  0  0  0  0  0  0  0
  149.9559  137.9635  155.4408 C   0  0  0  0  0  0  0  0  0  0  0  0
  148.5468  137.9585  155.9385 C   0  0  0  0  0  0  0  0  0  0  0  0
  151.6801  142.3836  159.2529 C   0  0  0  0  0  0  0  0  0  0  0  0
  151.9155  143.3130  158.0391 C   0  0  0  0  0  0  0  0  0  0  0  0
  151.3782  144.7314  158.2835 C   0  0  0  0  0  0  0  0  0  0  0  0
  151.9955  145.3439  159.5486 C   0  0  0  0  0  0  0  0  0  0  0  0
  151.7465  144.4443  160.7674 C   0  0  0  0  0  0  0  0  0  0  0  0
  152.2826  143.0240  160.5291 C   0  0  0  0  0  0  0  0  0  0  0  0
  155.1960  140.5773  160.7651 H   0  0  0  0  0  0  0  0  0  0  0  0
  153.6880  139.7399  161.1096 H   0  0  0  0  0  0  0  0  0  0  0  0
  153.7742  141.4946  161.2524 H   0  0  0  0  0  0  0  0  0  0  0  0
  154.2187  141.6586  158.7784 H   0  0  0  0  0  0  0  0  0  0  0  0
  154.0827  139.9259  158.6366 H   0  0  0  0  0  0  0  0  0  0  0  0
  151.7091  140.2852  159.7111 H   0  0  0  0  0  0  0  0  0  0  0  0
  152.5719  140.1403  157.0679 H   0  0  0  0  0  0  0  0  0  0  0  0
  149.6729  140.8143  155.1059 H   0  0  0  0  0  0  0  0  0  0  0  0
  151.3969  141.0691  155.0217 H   0  0  0  0  0  0  0  0  0  0  0  0
  153.1519  139.7354  153.5636 H   0  0  0  0  0  0  0  0  0  0  0  0
  154.0190  138.2602  153.9733 H   0  0  0  0  0  0  0  0  0  0  0  0
  153.7710  139.5023  155.1955 H   0  0  0  0  0  0  0  0  0  0  0  0
  149.9319  135.0983  156.0209 H   0  0  0  0  0  0  0  0  0  0  0  0
  150.7882  134.7885  154.4968 H   0  0  0  0  0  0  0  0  0  0  0  0
  149.1358  135.4301  154.4677 H   0  0  0  0  0  0  0  0  0  0  0  0
  148.2674  138.9304  156.3448 H   0  0  0  0  0  0  0  0  0  0  0  0
  148.4140  137.2169  156.7264 H   0  0  0  0  0  0  0  0  0  0  0  0
  147.8545  137.7225  155.1304 H   0  0  0  0  0  0  0  0  0  0  0  0
  150.6000  142.3228  159.3956 H   0  0  0  0  0  0  0  0  0  0  0  0
  152.9802  143.3794  157.8180 H   0  0  0  0  0  0  0  0  0  0  0  0
  151.4437  142.8935  157.1500 H   0  0  0  0  0  0  0  0  0  0  0  0
  151.5949  145.3632  157.4217 H   0  0  0  0  0  0  0  0  0  0  0  0
  150.2923  144.7012  158.3815 H   0  0  0  0  0  0  0  0  0  0  0  0
  153.0686  145.4786  159.4058 H   0  0  0  0  0  0  0  0  0  0  0  0
  151.5784  146.3355  159.7247 H   0  0  0  0  0  0  0  0  0  0  0  0
  152.2204  144.8760  161.6494 H   0  0  0  0  0  0  0  0  0  0  0  0
  150.6775  144.4015  160.9797 H   0  0  0  0  0  0  0  0  0  0  0  0
  152.0616  142.4124  161.4031 H   0  0  0  0  0  0  0  0  0  0  0  0
  153.3692  143.0711  160.4534 H   0  0  0  0  0  0  0  0  0  0  0  0
  1  2  1  0  0  0  0
  1 22  1  0  0  0  0
  1 23  1  0  0  0  0
  1 24  1  0  0  0  0
  2  3  1  0  0  0  0
  2 25  1  0  0  0  0
  2 26  1  0  0  0  0
  3  4  1  0  0  0  0
  3 16  1  0  0  0  0
  3 27  1  0  0  0  0
  4  5  1  0  0  0  0
  4 28  1  0  0  0  0
  5  6  2  0  0  0  0
  5  7  1  0  0  0  0
  7  8  1  0  0  0  0
  7 29  1  0  0  0  0
  7 30  1  0  0  0  0
  8 14  2  0  0  0  0
  8  9  1  0  0  0  0
  9 10  1  0  0  0  0
  9 11  2  0  0  0  0
 10 31  1  0  0  0  0
 10 32  1  0  0  0  0
 10 33  1  0  0  0  0
 11 12  1  0  0  0  0
 12 13  1  0  0  0  0
 12 14  1  0  0  0  0
 13 34  1  0  0  0  0
 13 35  1  0  0  0  0
 13 36  1  0  0  0  0
 14 15  1  0  0  0  0
 15 37  1  0  0  0  0
 15 38  1  0  0  0  0
 15 39  1  0  0  0  0
 16 21  1  0  0  0  0
 16 17  1  0  0  0  0
 16 40  1  0  0  0  0
 17 18  1  0  0  0  0
 17 41  1  0  0  0  0
 17 42  1  0  0  0  0
 18 19  1  0  0  0  0
 18 43  1  0  0  0  0
 18 44  1  0  0  0  0
 19 20  1  0  0  0  0
 19 45  1  0  0  0  0
 19 46  1  0  0  0  0
 20 21  1  0  0  0  0
 20 47  1  0  0  0  0
 20 48  1  0  0  0  0
 21 49  1  0  0  0  0
 21 50  1  0  0  0  0
M  END
> <s_m_source_file>
AV-unprocessed.smi

> <i_m_source_file_index>
1150

> <i_lp_mmshare_version>
43012

> <i_f3d_flags>
0

> <s_epik_input>
W0NIMl0xW0NIMl1bQ0gyXVtDSDJdW0NIMl1bQ0hdMVtDQEhdKFtDSDJdW0NIM10pW05IXUMoPU8pW0NIMl1jMmMoW0NIM10pbm4oW0NIM10pYzJbQ0gzXQ==

> <s_epik_cmdline>
J2VwaWtfcHl0aG9uJywgJy1waCcsICc3LjAnLCAnLXRuJywgJzgnLCAnLW1hJywgJzIwMCcsICctbWV0YWxfYmluZGluZycsICctaW1hZScsICc8aW5maWxlLm1hZT4nLCAnLW9tYWUnLCAnPG91dGZpbGUubWFlPic=

> <r_lp_tautomer_probability>
1

> <r_epik_Ionization_Penalty>
0.00328092

> <r_epik_Ionization_Penalty_Charging>
0

> <r_epik_Ionization_Penalty_Neutral>
0.00328092

> <r_epik_State_Penalty>
0.00231765

> <r_epik_Charging_Adjusted_Penalty>
0.00231765

> <i_epik_Tot_Q>
0

> <i_epik_Tot_abs_Q>
0

> <r_epik_Metal_State_Penalty>
-0

> <b_epik_Metal_Only>
0

> <s_lp_Force_Field>
OPLS_2005

> <r_lp_Energy>
6.65813

> <b_lp_Chiralities_Consistent>
1

> <s_lp_Variant>
AV-unprocessed.smi:1150-1

> <Gold.Version>
5.8.1

> <Gold.Id.Protein>
6NUR|6NUR_protein|mol2

> <Gold.PLP.Fitness>
44.2667

> <Gold.PLP.PLP>
-44.7361

> <Gold.PLP.part.hbond>
-1.0000

> <Gold.PLP.part.metal>
0.0000

> <Gold.PLP.part.buried>
-5.6636

> <Gold.PLP.part.nonpolar>
-38.0475

> <Gold.PLP.part.repulsive>
0.2373

> <Gold.PLP.ligand.clash>
0.0000

> <Gold.PLP.ligand.torsion>
0.8938

> <Gold.PLP.Chemscore.Hbond>
0.4160

> <Gold.PLP.Chemscore.CHOScore>
0.0000

> <Gold.PLP.Chemscore.Metal>
0.0000

> <Gold.Chemscore.Hbonds>
donor molecule, donor type, donor heavy atom, donor atom, acceptor molecule, acceptor atom, score
      P1  H 10752 10765       L1    11  0.17

> <Gold.PLP.Chemscore.Internal.Correction>
0.0703

> <Gold.Rescore>
     Score         DG    S(hbond)    S(metal)    S(lipo)     H(rot)  DE(clash)    DE(int)     intcor
     18.16     -20.21       0.98        0.00     129.02       1.42       0.12       1.93       ----

> <Gold.Chemscore.Fitness>
18.1593

> <Gold.Chemscore.DG>
-20.2118

> <Gold.Chemscore.ZeroCoef>
-5.4800

> <Gold.Chemscore.Hbond>
0.9775

> <Gold.Chemscore.Metal>
0.0000

> <Gold.Chemscore.Lipo>
129.0219

> <Gold.Chemscore.Internal_Hbond>
0.0000

> <Gold.Chemscore.DEClash>
0.1230

> <Gold.Chemscore.DEInternal>
1.9294

> <Gold.Chemscore.Rot>
1.4174

> <Gold.Chemscore.Internal.Correction>
   9.000000E+99

> <Gold.Chemscore.Hbonds>
donor molecule, donor type, donor heavy atom, donor atom, acceptor molecule, acceptor atom, score
      P1  H 10752 10765       L1    11  0.15

> <Gold.Chemscore.Hbond.Weighted>
-3.2648

> <Gold.Chemscore.Metal.Weighted>
-0.0000

> <Gold.Chemscore.Lipo.Weighted>
-15.0956

> <Gold.Chemscore.Internal_Hbond.Weighted>
0.0000

> <Gold.Chemscore.DEClash.Weighted>
0.1230

> <Gold.Chemscore.DEInternal.Weighted>
1.9294

> <Gold.Chemscore.Rot.Weighted>
3.6286

> <Gold.Chemscore.Internal.Correction.Weighted>
   9.000000E+99

> <Gold.Protein.RotatedTorsions>
[ 6907 6896 6895 6894 ] final  -87.72 input  -60.11 | X-H torsion
[ 7974 7965 7964 7962 ] final   91.07 input  175.53 | X-H torsion
[ 8008 7997 7996 7995 ] final -102.46 input   59.86 | X-H torsion
[ 10167 10162 10161 10158 ] final  -24.33 input  -65.29 | X-H torsion
[ 10718 10713 10712 10709 ] final   69.86 input   66.30 | X-H torsion
[ 10763 10752 10751 10750 ] final -140.66 input  -60.55 | X-H torsion
[ 11005 11000 10999 10996 ] final   91.67 input  -57.11 | X-H torsion

> <Gold.Protein.ActiveResidues>
 VAL166  LYS551  ARG553  GLY616  TRP617  ASP618  TYR619  PRO620  LYS621  CYS622 
 ASP623  PHE694  ASN695  SER759  ASP760  ASP761  ALA762  ILE779  LEU786  VAL792 
 PHE793  MET794  SER795  GLU796  ALA797  LYS798  CYS799  TRP800  GLU811  SER814 

> <Gold.Protein.RotatedAtoms>
  150.6867  134.2852  159.4643 H   0  0  0  0  0  0  0  0  0  0  0  0  # atno 6907 bound_to 6896
  152.0762  134.9498  160.0583 H   0  0  0  0  0  0  0  0  0  0  0  0  # atno 6908 bound_to 6896
  152.0869  133.4146  159.4563 H   0  0  0  0  0  0  0  0  0  0  0  0  # atno 6909 bound_to 6896
  145.5106  139.2277  143.2727 H   0  0  0  0  0  0  0  0  0  0  0  0  # atno 7974 bound_to 7965
  154.8570  140.0428  157.1640 H   0  0  0  0  0  0  0  0  0  0  0  0  # atno 8008 bound_to 7997
  154.8881  140.2982  155.5365 H   0  0  0  0  0  0  0  0  0  0  0  0  # atno 8009 bound_to 7997
  156.2997  140.2398  156.3893 H   0  0  0  0  0  0  0  0  0  0  0  0  # atno 8010 bound_to 7997
  140.7288  143.4363  151.0725 H   0  0  0  0  0  0  0  0  0  0  0  0  # atno 10167 bound_to 10162
  157.6369  130.9447  150.0571 H   0  0  0  0  0  0  0  0  0  0  0  0  # atno 10718 bound_to 10713
  154.8571  135.3547  154.5743 H   0  0  0  0  0  0  0  0  0  0  0  0  # atno 10763 bound_to 10752
  153.6356  135.7000  153.5264 H   0  0  0  0  0  0  0  0  0  0  0  0  # atno 10764 bound_to 10752
  153.3014  135.4205  155.1215 H   0  0  0  0  0  0  0  0  0  0  0  0  # atno 10765 bound_to 10752
  139.8835  134.8688  156.3462 H   0  0  0  0  0  0  0  0  0  0  0  0  # atno 11005 bound_to 11000
  146.2169  140.5912  142.9034 LP  0  0  0  0  0  0  0  0  0  0  0  0  # atno 17320 bound_to 7965
  144.7729  140.5678  143.6657 LP  0  0  0  0  0  0  0  0  0  0  0  0  # atno 17321 bound_to 7965
  139.8025  143.8064  152.3164 LP  0  0  0  0  0  0  0  0  0  0  0  0  # atno 17342 bound_to 10162
  139.8085  144.7345  150.9729 LP  0  0  0  0  0  0  0  0  0  0  0  0  # atno 17343 bound_to 10162
  156.1615  130.3644  149.9292 LP  0  0  0  0  0  0  0  0  0  0  0  0  # atno 17370 bound_to 10713
  156.7289  130.9035  151.3624 LP  0  0  0  0  0  0  0  0  0  0  0  0  # atno 17371 bound_to 10713
  140.9625  133.7379  156.0421 LP  0  0  0  0  0  0  0  0  0  0  0  0  # atno 17394 bound_to 11000
  140.7971  134.3551  157.5449 LP  0  0  0  0  0  0  0  0  0  0  0  0  # atno 17395 bound_to 11000

$$$$
