AV-unprocessed.smi:3120|AV-procd|sdf|11892|dock9
  -GOLD-   2272017283D 1   1.00000     0.00000
 Structure written by MMmdl.
 22 23  0  0  0  0  0  0  0  0  1 V2000
  151.0711  143.1112  157.1522 O   0  0  0  0  0  0  0  0  0  0  0  0
  151.1517  143.7807  158.1804 C   0  0  0  0  0  0  0  0  0  0  0  0
  150.2381  144.6481  158.6138 N   0  0  0  0  0  0  0  0  0  0  0  0
  150.6060  145.3044  159.8534 C   0  0  0  0  0  0  0  0  0  0  0  0
  151.8413  144.5371  160.3500 C   0  0  0  0  0  0  0  0  0  0  0  0
  152.3343  143.7214  159.1413 C   0  0  1  0  0  0  0  0  0  0  0  0
  152.7516  142.2925  159.4731 C   0  0  0  0  0  0  0  0  0  0  0  0
  153.7725  142.0131  160.4094 C   0  0  0  0  0  0  0  0  0  0  0  0
  154.1119  140.6716  160.6689 C   0  0  0  0  0  0  0  0  0  0  0  0
  153.4153  139.6591  159.9802 C   0  0  0  0  0  0  0  0  0  0  0  0
  152.4378  139.9107  159.0837 N   0  0  0  0  0  0  0  0  0  0  0  0
  152.1181  141.2002  158.8416 C   0  0  0  0  0  0  0  0  0  0  0  0
  149.3734  144.8452  158.1309 H   0  0  0  0  0  0  0  0  0  0  0  0
  150.8467  146.3483  159.6491 H   0  0  0  0  0  0  0  0  0  0  0  0
  149.7880  145.2735  160.5736 H   0  0  0  0  0  0  0  0  0  0  0  0
  152.6127  145.2046  160.7352 H   0  0  0  0  0  0  0  0  0  0  0  0
  151.5470  143.8816  161.1706 H   0  0  0  0  0  0  0  0  0  0  0  0
  153.1628  144.2456  158.6630 H   0  0  0  0  0  0  0  0  0  0  0  0
  154.2883  142.8118  160.9220 H   0  0  0  0  0  0  0  0  0  0  0  0
  154.8872  140.4246  161.3790 H   0  0  0  0  0  0  0  0  0  0  0  0
  153.6503  138.6194  160.1534 H   0  0  0  0  0  0  0  0  0  0  0  0
  151.3320  141.3634  158.1188 H   0  0  0  0  0  0  0  0  0  0  0  0
  1  2  2  0  0  0  0
  2  6  1  0  0  0  0
  2  3  1  0  0  0  0
  3  4  1  0  0  0  0
  3 13  1  0  0  0  0
  4  5  1  0  0  0  0
  4 14  1  0  0  0  0
  4 15  1  0  0  0  0
  5  6  1  0  0  0  0
  5 16  1  0  0  0  0
  5 17  1  0  0  0  0
  6  7  1  0  0  0  0
  6 18  1  0  0  0  0
  7 12  1  0  0  0  0
  7  8  2  0  0  0  0
  8  9  1  0  0  0  0
  8 19  1  0  0  0  0
  9 10  2  0  0  0  0
  9 20  1  0  0  0  0
 10 11  1  0  0  0  0
 10 21  1  0  0  0  0
 11 12  2  0  0  0  0
 12 22  1  0  0  0  0
M  END
> <s_m_source_file>
AV-unprocessed.smi

> <i_m_source_file_index>
3120

> <i_lp_mmshare_version>
43012

> <i_f3d_flags>
0

> <s_epik_input>
Tz1DMVtOSF1bQ0gyXVtDSDJdW0NASF0xYzJbY0hdW2NIXVtjSF1uW2NIXTI=

> <s_epik_cmdline>
J2VwaWtfcHl0aG9uJywgJy1waCcsICc3LjAnLCAnLXRuJywgJzgnLCAnLW1hJywgJzIwMCcsICctbWV0YWxfYmluZGluZycsICctaW1hZScsICc8aW5maWxlLm1hZT4nLCAnLW9tYWUnLCAnPG91dGZpbGUubWFlPic=

> <r_epik_Ionization_Penalty>
0.00558523

> <r_epik_Ionization_Penalty_Charging>
0

> <r_epik_Ionization_Penalty_Neutral>
0.00558523

> <r_epik_State_Penalty>
0.00409114

> <r_epik_Charging_Adjusted_Penalty>
0.00409114

> <i_epik_Tot_Q>
0

> <i_epik_Tot_abs_Q>
0

> <r_epik_Metal_State_Penalty>
-0

> <b_epik_Metal_Only>
0

> <s_lp_Force_Field>
OPLS_2005

> <r_lp_Energy>
14.9187

> <b_lp_Chiralities_Consistent>
1

> <s_lp_Variant>
AV-unprocessed.smi:3120-1

> <Gold.Version>
5.8.1

> <Gold.Id.Protein>
6NUR|6NUR_protein|mol2

> <Gold.PLP.Fitness>
32.5972

> <Gold.PLP.PLP>
-29.6255

> <Gold.PLP.part.hbond>
-1.4103

> <Gold.PLP.part.metal>
0.0000

> <Gold.PLP.part.buried>
-4.5933

> <Gold.PLP.part.nonpolar>
-25.3725

> <Gold.PLP.part.repulsive>
0.5639

> <Gold.PLP.ligand.clash>
0.0000

> <Gold.PLP.ligand.torsion>
0.0179

> <Gold.PLP.Chemscore.Hbond>
1.0000

> <Gold.PLP.Chemscore.CHOScore>
0.0000

> <Gold.PLP.Chemscore.Metal>
0.0000

> <Gold.Chemscore.Hbonds>
donor molecule, donor type, donor heavy atom, donor atom, acceptor molecule, acceptor atom, score
      L1  H     3    13       P1  8029  1.00

> <Gold.PLP.Chemscore.Internal.Correction>
0.0075

> <Gold.Rescore>
     Score         DG    S(hbond)    S(metal)    S(lipo)     H(rot)  DE(clash)    DE(int)     intcor
     12.81     -14.85       0.79        0.00      79.52       1.00       0.56       1.47       ----

> <Gold.Chemscore.Fitness>
12.8100

> <Gold.Chemscore.DG>
-14.8457

> <Gold.Chemscore.ZeroCoef>
-5.4800

> <Gold.Chemscore.Hbond>
0.7851

> <Gold.Chemscore.Metal>
0.0000

> <Gold.Chemscore.Lipo>
79.5179

> <Gold.Chemscore.Internal_Hbond>
0.0000

> <Gold.Chemscore.DEClash>
0.5627

> <Gold.Chemscore.DEInternal>
1.4730

> <Gold.Chemscore.Rot>
1.0000

> <Gold.Chemscore.Internal.Correction>
   9.000000E+99

> <Gold.Chemscore.Hbonds>
donor molecule, donor type, donor heavy atom, donor atom, acceptor molecule, acceptor atom, score
      L1  H     3    13       P1  8029  0.24

> <Gold.Chemscore.Hbond.Weighted>
-2.6221

> <Gold.Chemscore.Metal.Weighted>
-0.0000

> <Gold.Chemscore.Lipo.Weighted>
-9.3036

> <Gold.Chemscore.Internal_Hbond.Weighted>
0.0000

> <Gold.Chemscore.DEClash.Weighted>
0.5627

> <Gold.Chemscore.DEInternal.Weighted>
1.4730

> <Gold.Chemscore.Rot.Weighted>
2.5600

> <Gold.Chemscore.Internal.Correction.Weighted>
   9.000000E+99

> <Gold.Protein.RotatedTorsions>
[ 6907 6896 6895 6894 ] final   39.92 input  -60.11 | X-H torsion
[ 7974 7965 7964 7962 ] final -106.70 input  175.53 | X-H torsion
[ 8008 7997 7996 7995 ] final   11.11 input   59.86 | X-H torsion
[ 10167 10162 10161 10158 ] final -123.88 input  -65.29 | X-H torsion
[ 10718 10713 10712 10709 ] final   47.55 input   66.30 | X-H torsion
[ 10763 10752 10751 10750 ] final   14.00 input  -60.55 | X-H torsion
[ 11005 11000 10999 10996 ] final -148.15 input  -57.11 | X-H torsion

> <Gold.Protein.ActiveResidues>
 VAL166  LYS551  ARG553  GLY616  TRP617  ASP618  TYR619  PRO620  LYS621  CYS622 
 ASP623  PHE694  ASN695  SER759  ASP760  ASP761  ALA762  ILE779  LEU786  VAL792 
 PHE793  MET794  SER795  GLU796  ALA797  LYS798  CYS799  TRP800  GLU811  SER814 

> <Gold.Protein.RotatedAtoms>
  152.1758  134.8796  160.0530 H   0  0  0  0  0  0  0  0  0  0  0  0  # atno 6907 bound_to 6896
  151.9739  133.3730  159.4090 H   0  0  0  0  0  0  0  0  0  0  0  0  # atno 6908 bound_to 6896
  150.6909  134.4034  159.5173 H   0  0  0  0  0  0  0  0  0  0  0  0  # atno 6909 bound_to 6896
  145.2145  140.9110  143.3295 H   0  0  0  0  0  0  0  0  0  0  0  0  # atno 7974 bound_to 7965
  154.8025  140.2854  155.5911 H   0  0  0  0  0  0  0  0  0  0  0  0  # atno 8008 bound_to 7997
  156.2979  140.2583  156.2826 H   0  0  0  0  0  0  0  0  0  0  0  0  # atno 8009 bound_to 7997
  154.9541  140.0379  157.2148 H   0  0  0  0  0  0  0  0  0  0  0  0  # atno 8010 bound_to 7997
  139.9987  143.5563  152.2312 H   0  0  0  0  0  0  0  0  0  0  0  0  # atno 10167 bound_to 10162
  157.4597  130.8188  149.7873 H   0  0  0  0  0  0  0  0  0  0  0  0  # atno 10718 bound_to 10713
  153.1665  135.6805  153.8668 H   0  0  0  0  0  0  0  0  0  0  0  0  # atno 10763 bound_to 10752
  153.8046  135.3151  155.3395 H   0  0  0  0  0  0  0  0  0  0  0  0  # atno 10764 bound_to 10752
  154.7969  135.4802  154.0272 H   0  0  0  0  0  0  0  0  0  0  0  0  # atno 10765 bound_to 10752
  140.7642  134.3263  157.5093 H   0  0  0  0  0  0  0  0  0  0  0  0  # atno 11005 bound_to 11000
  144.9824  139.3770  143.6255 LP  0  0  0  0  0  0  0  0  0  0  0  0  # atno 17320 bound_to 7965
  146.3390  139.8970  142.8800 LP  0  0  0  0  0  0  0  0  0  0  0  0  # atno 17321 bound_to 7965
  139.6287  144.7641  151.2583 LP  0  0  0  0  0  0  0  0  0  0  0  0  # atno 17342 bound_to 10162
  140.7427  143.6518  150.8242 LP  0  0  0  0  0  0  0  0  0  0  0  0  # atno 17343 bound_to 10162
  156.0023  130.3873  150.2560 LP  0  0  0  0  0  0  0  0  0  0  0  0  # atno 17370 bound_to 10713
  157.0737  131.0124  151.3181 LP  0  0  0  0  0  0  0  0  0  0  0  0  # atno 17371 bound_to 10713
  139.8766  134.9221  156.3292 LP  0  0  0  0  0  0  0  0  0  0  0  0  # atno 17394 bound_to 11000
  140.9634  133.7373  156.0433 LP  0  0  0  0  0  0  0  0  0  0  0  0  # atno 17395 bound_to 11000

$$$$
