AV-unprocessed.smi:470|AV-procd|sdf|2654|dock5
  -GOLD-   2262023 63D 1   1.00000     0.00000
 Structure written by MMmdl.
 33 34  0  0  0  0  0  0  0  0  1 V2000
  152.6840  138.9294  154.7116 N   0  0  0  0  0  0  0  0  0  0  0  0
  151.7071  138.0183  154.6961 C   0  0  0  0  0  0  0  0  0  0  0  0
  151.8098  136.9344  155.2669 O   0  0  0  0  0  0  0  0  0  0  0  0
  150.4302  138.3748  153.9330 C   0  0  0  0  0  0  0  0  0  0  0  0
  149.8139  139.6189  154.5034 C   0  0  0  0  0  0  0  0  0  0  0  0
  148.4825  139.9583  154.4978 C   0  0  0  0  0  0  0  0  0  0  0  0
  148.1978  141.5034  155.2530 S   0  0  0  0  0  0  0  0  0  0  0  0
  149.9187  141.6138  155.5880 C   0  0  0  0  0  0  0  0  0  0  0  0
  150.4888  142.7525  156.2144 N   0  0  0  0  0  0  0  0  0  0  0  0
  151.3980  142.8452  157.2065 C   0  0  0  0  0  0  0  0  0  0  0  0
  151.8795  141.8156  157.6772 O   0  0  0  0  0  0  0  0  0  0  0  0
  151.8805  144.2176  157.7384 C   0  0  2  0  0  0  0  0  0  0  0  0
  153.1463  144.0980  158.6277 C   0  0  0  0  0  0  0  0  0  0  0  0
  152.8444  143.7318  160.0722 C   0  0  0  0  0  0  0  0  0  0  0  0
  151.6200  143.8180  160.6185 C   0  0  0  0  0  0  0  0  0  0  0  0
  150.3957  144.2855  159.8533 C   0  0  0  0  0  0  0  0  0  0  0  0
  150.7627  144.9559  158.5129 C   0  0  0  0  0  0  0  0  0  0  0  0
  150.6230  140.5781  155.1214 N   0  0  0  0  0  0  0  0  0  0  0  0
  153.5464  138.7312  155.1978 H   0  0  0  0  0  0  0  0  0  0  0  0
  152.5601  139.8093  154.2317 H   0  0  0  0  0  0  0  0  0  0  0  0
  150.6711  138.5170  152.8787 H   0  0  0  0  0  0  0  0  0  0  0  0
  149.7335  137.5362  153.9778 H   0  0  0  0  0  0  0  0  0  0  0  0
  147.6564  139.3982  154.0853 H   0  0  0  0  0  0  0  0  0  0  0  0
  150.1517  143.6375  155.8645 H   0  0  0  0  0  0  0  0  0  0  0  0
  152.1876  144.8237  156.8881 H   0  0  0  0  0  0  0  0  0  0  0  0
  153.8333  143.3576  158.2152 H   0  0  0  0  0  0  0  0  0  0  0  0
  153.6876  145.0445  158.6315 H   0  0  0  0  0  0  0  0  0  0  0  0
  153.6785  143.4028  160.6745 H   0  0  0  0  0  0  0  0  0  0  0  0
  151.4705  143.5320  161.6493 H   0  0  0  0  0  0  0  0  0  0  0  0
  149.7520  143.4218  159.6839 H   0  0  0  0  0  0  0  0  0  0  0  0
  149.8302  144.9825  160.4721 H   0  0  0  0  0  0  0  0  0  0  0  0
  151.0995  145.9741  158.7113 H   0  0  0  0  0  0  0  0  0  0  0  0
  149.8655  145.0574  157.9021 H   0  0  0  0  0  0  0  0  0  0  0  0
  1  2  1  0  0  0  0
  1 19  1  0  0  0  0
  1 20  1  0  0  0  0
  2  3  2  0  0  0  0
  2  4  1  0  0  0  0
  4  5  1  0  0  0  0
  4 21  1  0  0  0  0
  4 22  1  0  0  0  0
  5 18  1  0  0  0  0
  5  6  2  0  0  0  0
  6  7  1  0  0  0  0
  6 23  1  0  0  0  0
  7  8  1  0  0  0  0
  8  9  1  0  0  0  0
  8 18  2  0  0  0  0
  9 10  1  0  0  0  0
  9 24  1  0  0  0  0
 10 11  2  0  0  0  0
 10 12  1  0  0  0  0
 12 17  1  0  0  0  0
 12 13  1  0  0  0  0
 12 25  1  0  0  0  0
 13 14  1  0  0  0  0
 13 26  1  0  0  0  0
 13 27  1  0  0  0  0
 14 15  2  0  0  0  0
 14 28  1  0  0  0  0
 15 16  1  0  0  0  0
 15 29  1  0  0  0  0
 16 17  1  0  0  0  0
 16 30  1  0  0  0  0
 16 31  1  0  0  0  0
 17 32  1  0  0  0  0
 17 33  1  0  0  0  0
M  END
> <s_m_source_file>
AV-unprocessed.smi

> <i_m_source_file_index>
470

> <i_lp_mmshare_version>
43012

> <i_f3d_flags>
0

> <s_epik_input>
W05IMl1DKD1PKVtDSDJdYzFbY0hdc2MobjEpW05IXUMoPU8pW0NAQEhdMltDSDJdW0NIXT1bQ0hdW0NIMl1bQ0gyXTI=

> <s_epik_cmdline>
J2VwaWtfcHl0aG9uJywgJy1waCcsICc3LjAnLCAnLXRuJywgJzgnLCAnLW1hJywgJzIwMCcsICctbWV0YWxfYmluZGluZycsICctaW1hZScsICc8aW5maWxlLm1hZT4nLCAnLW9tYWUnLCAnPG91dGZpbGUubWFlPic=

> <r_lp_tautomer_probability>
1

> <r_epik_Ionization_Penalty>
0.00025496

> <r_epik_Ionization_Penalty_Charging>
0

> <r_epik_Ionization_Penalty_Neutral>
0.00025496

> <r_epik_State_Penalty>
-0

> <r_epik_Charging_Adjusted_Penalty>
0

> <i_epik_Tot_Q>
0

> <i_epik_Tot_abs_Q>
0

> <r_epik_Metal_State_Penalty>
0.149391

> <b_epik_Metal_Only>
0

> <s_lp_Force_Field>
OPLS_2005

> <r_lp_Energy>
11.789

> <b_lp_Chiralities_Consistent>
1

> <s_lp_Variant>
AV-unprocessed.smi:470-1

> <Gold.Version>
5.8.1

> <Gold.Id.Protein>
6NUR|6NUR_protein|mol2

> <Gold.PLP.Fitness>
44.6568

> <Gold.PLP.PLP>
-38.6932

> <Gold.PLP.part.hbond>
-3.0000

> <Gold.PLP.part.metal>
0.0000

> <Gold.PLP.part.buried>
-5.3743

> <Gold.PLP.part.nonpolar>
-32.1356

> <Gold.PLP.part.repulsive>
0.5050

> <Gold.PLP.ligand.clash>
0.0000

> <Gold.PLP.ligand.torsion>
0.9727

> <Gold.PLP.Chemscore.Hbond>
2.6264

> <Gold.PLP.Chemscore.CHOScore>
0.0000

> <Gold.PLP.Chemscore.Metal>
0.0000

> <Gold.Chemscore.Hbonds>
donor molecule, donor type, donor heavy atom, donor atom, acceptor molecule, acceptor atom, score
      L1  H     9    24       P1  8028  1.00
      P1  H  7989  7998       L1    18  0.58
      P1  H 10752 10764       L1     3  1.00

> <Gold.PLP.Chemscore.Internal.Correction>
0.0298

> <Gold.Rescore>
     Score         DG    S(hbond)    S(metal)    S(lipo)     H(rot)  DE(clash)    DE(int)     intcor
     16.03     -18.39       2.01        0.00      94.52       1.90       0.01       2.35       ----

> <Gold.Chemscore.Fitness>
16.0271

> <Gold.Chemscore.DG>
-18.3917

> <Gold.Chemscore.ZeroCoef>
-5.4800

> <Gold.Chemscore.Hbond>
2.0087

> <Gold.Chemscore.Metal>
0.0000

> <Gold.Chemscore.Lipo>
94.5168

> <Gold.Chemscore.Internal_Hbond>
0.0000

> <Gold.Chemscore.DEClash>
0.0111

> <Gold.Chemscore.DEInternal>
2.3535

> <Gold.Chemscore.Rot>
1.8968

> <Gold.Chemscore.Internal.Correction>
   9.000000E+99

> <Gold.Chemscore.Hbonds>
donor molecule, donor type, donor heavy atom, donor atom, acceptor molecule, acceptor atom, score
      L1  H     9    24       P1  8028  0.94
      P1  H  7989  7998       L1    18  0.04
      P1  H 10752 10764       L1     3  0.97

> <Gold.Chemscore.Hbond.Weighted>
-6.7091

> <Gold.Chemscore.Metal.Weighted>
-0.0000

> <Gold.Chemscore.Lipo.Weighted>
-11.0585

> <Gold.Chemscore.Internal_Hbond.Weighted>
0.0000

> <Gold.Chemscore.DEClash.Weighted>
0.0111

> <Gold.Chemscore.DEInternal.Weighted>
2.3535

> <Gold.Chemscore.Rot.Weighted>
4.8558

> <Gold.Chemscore.Internal.Correction.Weighted>
   9.000000E+99

> <Gold.Protein.RotatedTorsions>
[ 6907 6896 6895 6894 ] final  121.37 input  -60.11 | X-H torsion
[ 7974 7965 7964 7962 ] final  -54.44 input  175.53 | X-H torsion
[ 8008 7997 7996 7995 ] final  -30.40 input   59.86 | X-H torsion
[ 10167 10162 10161 10158 ] final  -26.54 input  -65.29 | X-H torsion
[ 10718 10713 10712 10709 ] final -101.41 input   66.30 | X-H torsion
[ 10763 10752 10751 10750 ] final  -53.32 input  -60.55 | X-H torsion
[ 11005 11000 10999 10996 ] final   18.74 input  -57.11 | X-H torsion

> <Gold.Protein.ActiveResidues>
 VAL166  LYS551  ARG553  GLY616  TRP617  ASP618  TYR619  PRO620  LYS621  CYS622 
 ASP623  PHE694  ASN695  SER759  ASP760  ASP761  ALA762  ILE779  LEU786  VAL792 
 PHE793  MET794  SER795  GLU796  ALA797  LYS798  CYS799  TRP800  GLU811  SER814 

> <Gold.Protein.RotatedAtoms>
  152.4327  133.7306  159.6584 H   0  0  0  0  0  0  0  0  0  0  0  0  # atno 6907 bound_to 6896
  150.8208  133.8246  159.3146 H   0  0  0  0  0  0  0  0  0  0  0  0  # atno 6908 bound_to 6896
  151.5929  135.1054  160.0094 H   0  0  0  0  0  0  0  0  0  0  0  0  # atno 6909 bound_to 6896
  145.8855  140.8111  142.9818 H   0  0  0  0  0  0  0  0  0  0  0  0  # atno 7974 bound_to 7965
  154.4252  140.1792  156.1401 H   0  0  0  0  0  0  0  0  0  0  0  0  # atno 8008 bound_to 7997
  155.9998  140.3361  155.6810 H   0  0  0  0  0  0  0  0  0  0  0  0  # atno 8009 bound_to 7997
  155.6258  140.0664  157.2655 H   0  0  0  0  0  0  0  0  0  0  0  0  # atno 8010 bound_to 7997
  140.7282  143.4170  151.1013 H   0  0  0  0  0  0  0  0  0  0  0  0  # atno 10167 bound_to 10162
  156.0194  130.5372  150.6959 H   0  0  0  0  0  0  0  0  0  0  0  0  # atno 10718 bound_to 10713
  154.1569  135.6481  153.4976 H   0  0  0  0  0  0  0  0  0  0  0  0  # atno 10763 bound_to 10752
  153.0121  135.5351  154.6751 H   0  0  0  0  0  0  0  0  0  0  0  0  # atno 10764 bound_to 10752
  154.6054  135.2948  155.0462 H   0  0  0  0  0  0  0  0  0  0  0  0  # atno 10765 bound_to 10752
  140.4215  134.1514  155.7673 H   0  0  0  0  0  0  0  0  0  0  0  0  # atno 11005 bound_to 11000
  144.6728  140.1449  143.7434 LP  0  0  0  0  0  0  0  0  0  0  0  0  # atno 17320 bound_to 7965
  145.8972  139.2409  143.1515 LP  0  0  0  0  0  0  0  0  0  0  0  0  # atno 17321 bound_to 7965
  139.7811  143.8354  152.3137 LP  0  0  0  0  0  0  0  0  0  0  0  0  # atno 17342 bound_to 10162
  139.8306  144.7255  150.9456 LP  0  0  0  0  0  0  0  0  0  0  0  0  # atno 17343 bound_to 10162
  157.4630  131.0885  151.0725 LP  0  0  0  0  0  0  0  0  0  0  0  0  # atno 17370 bound_to 10713
  157.1207  130.6060  149.5504 LP  0  0  0  0  0  0  0  0  0  0  0  0  # atno 17371 bound_to 10713
  141.1782  133.8469  157.1349 LP  0  0  0  0  0  0  0  0  0  0  0  0  # atno 17394 bound_to 11000
  140.0197  134.9951  157.0566 LP  0  0  0  0  0  0  0  0  0  0  0  0  # atno 17395 bound_to 11000

$$$$
