AV-unprocessed.smi:2702|AV-procd|sdf|10437|dock8
  -GOLD-   2272014473D 1   1.00000     0.00000
 Structure written by MMmdl.
 47 48  0  0  0  0  0  0  0  0  1 V2000
  147.8681  134.7724  158.6983 C   0  0  0  0  0  0  0  0  0  0  0  0
  149.0289  134.1139  158.2229 O   0  0  0  0  0  0  0  0  0  0  0  0
  149.0889  134.0747  156.8070 C   0  0  0  0  0  0  0  0  0  0  0  0
  149.4542  135.4362  156.2507 C   0  0  0  0  0  0  0  0  0  0  0  0
  150.6043  135.6488  155.5697 C   0  0  0  0  0  0  0  0  0  0  0  0
  150.9321  136.9787  155.0557 C   0  0  0  0  0  0  0  0  0  0  0  0
  151.9665  137.2117  154.4296 O   0  0  0  0  0  0  0  0  0  0  0  0
  150.0045  137.9444  155.3257 N   0  0  0  0  0  0  0  0  0  0  0  0
  150.1977  139.3362  154.8787 C   0  0  0  0  0  0  0  0  0  0  0  0
  151.2926  140.0790  155.6583 C   0  0  0  0  0  0  0  0  0  0  0  0
  152.4831  139.9041  155.3953 O   0  0  0  0  0  0  0  0  0  0  0  0
  150.8644  140.9240  156.6079 N   0  0  0  0  0  0  0  0  0  0  0  0
  151.7205  141.7196  157.4852 C   0  0  1  0  0  0  0  0  0  0  0  0
  151.3527  143.2120  157.3538 C   0  0  0  0  0  0  0  0  0  0  0  0
  152.1665  144.0887  158.3152 C   0  0  0  0  0  0  0  0  0  0  0  0
  152.0173  143.6064  159.7665 C   0  0  0  0  0  0  0  0  0  0  0  0
  152.4030  142.1224  159.9306 C   0  0  2  0  0  0  0  0  0  0  0  0
  153.9292  141.9185  159.8395 C   0  0  0  0  0  0  0  0  0  0  0  0
  151.5836  141.2376  158.9529 C   0  0  2  0  0  0  0  0  0  0  0  0
  151.8884  139.7357  159.1237 C   0  0  0  0  0  0  0  0  0  0  0  0
  148.8203  137.6674  156.0376 C   0  0  0  0  0  0  0  0  0  0  0  0
  148.5540  136.4810  156.4835 N   0  0  0  0  0  0  0  0  0  0  0  0
  147.8704  134.7772  159.7882 H   0  0  0  0  0  0  0  0  0  0  0  0
  146.9620  134.2639  158.3665 H   0  0  0  0  0  0  0  0  0  0  0  0
  147.8338  135.8079  158.3572 H   0  0  0  0  0  0  0  0  0  0  0  0
  149.8391  133.3516  156.4828 H   0  0  0  0  0  0  0  0  0  0  0  0
  148.1294  133.7505  156.4009 H   0  0  0  0  0  0  0  0  0  0  0  0
  151.2931  134.8340  155.3995 H   0  0  0  0  0  0  0  0  0  0  0  0
  150.4461  139.3865  153.8172 H   0  0  0  0  0  0  0  0  0  0  0  0
  149.2568  139.8820  154.9729 H   0  0  0  0  0  0  0  0  0  0  0  0
  149.8684  141.0082  156.7499 H   0  0  0  0  0  0  0  0  0  0  0  0
  152.7584  141.5851  157.1754 H   0  0  0  0  0  0  0  0  0  0  0  0
  151.5136  143.5510  156.3299 H   0  0  0  0  0  0  0  0  0  0  0  0
  150.2898  143.3477  157.5585 H   0  0  0  0  0  0  0  0  0  0  0  0
  153.2166  144.0785  158.0224 H   0  0  0  0  0  0  0  0  0  0  0  0
  151.8384  145.1254  158.2359 H   0  0  0  0  0  0  0  0  0  0  0  0
  152.6178  144.2295  160.4300 H   0  0  0  0  0  0  0  0  0  0  0  0
  150.9818  143.7443  160.0809 H   0  0  0  0  0  0  0  0  0  0  0  0
  152.1183  141.8361  160.9441 H   0  0  0  0  0  0  0  0  0  0  0  0
  154.3139  142.1226  158.8409 H   0  0  0  0  0  0  0  0  0  0  0  0
  154.2132  140.8995  160.1019 H   0  0  0  0  0  0  0  0  0  0  0  0
  154.4504  142.5793  160.5323 H   0  0  0  0  0  0  0  0  0  0  0  0
  150.5360  141.3654  159.2312 H   0  0  0  0  0  0  0  0  0  0  0  0
  152.8814  139.4822  158.7518 H   0  0  0  0  0  0  0  0  0  0  0  0
  151.1711  139.1175  158.5835 H   0  0  0  0  0  0  0  0  0  0  0  0
  151.8380  139.4422  160.1724 H   0  0  0  0  0  0  0  0  0  0  0  0
  148.1492  138.5157  156.1820 H   0  0  0  0  0  0  0  0  0  0  0  0
  1  2  1  0  0  0  0
  1 23  1  0  0  0  0
  1 24  1  0  0  0  0
  1 25  1  0  0  0  0
  2  3  1  0  0  0  0
  3  4  1  0  0  0  0
  3 26  1  0  0  0  0
  3 27  1  0  0  0  0
  4 22  1  0  0  0  0
  4  5  2  0  0  0  0
  5  6  1  0  0  0  0
  5 28  1  0  0  0  0
  6  7  2  0  0  0  0
  6  8  1  0  0  0  0
  8  9  1  0  0  0  0
  8 21  1  0  0  0  0
  9 10  1  0  0  0  0
  9 29  1  0  0  0  0
  9 30  1  0  0  0  0
 10 11  2  0  0  0  0
 10 12  1  0  0  0  0
 12 13  1  0  0  0  0
 12 31  1  0  0  0  0
 13 19  1  0  0  0  0
 13 14  1  0  0  0  0
 13 32  1  0  0  0  0
 14 15  1  0  0  0  0
 14 33  1  0  0  0  0
 14 34  1  0  0  0  0
 15 16  1  0  0  0  0
 15 35  1  0  0  0  0
 15 36  1  0  0  0  0
 16 17  1  0  0  0  0
 16 37  1  0  0  0  0
 16 38  1  0  0  0  0
 17 18  1  0  0  0  0
 17 19  1  0  0  0  0
 17 39  1  0  0  0  0
 18 40  1  0  0  0  0
 18 41  1  0  0  0  0
 18 42  1  0  0  0  0
 19 20  1  0  0  0  0
 19 43  1  0  0  0  0
 20 44  1  0  0  0  0
 20 45  1  0  0  0  0
 20 46  1  0  0  0  0
 21 22  2  0  0  0  0
 21 47  1  0  0  0  0
M  END
> <s_m_source_file>
AV-unprocessed.smi

> <i_m_source_file_index>
2702

> <i_lp_mmshare_version>
43012

> <i_f3d_flags>
0

> <s_epik_input>
W0NIM11PW0NIMl1jMVtjSF1jKD1PKW4oW2NIXW4xKVtDSDJdQyg9TylbTkhdW0NAQEhdMltDSDJdW0NIMl1bQ0gyXVtDQEBIXShbQ0gzXSlbQ0BIXTJbQ0gzXQ==

> <s_epik_cmdline>
J2VwaWtfcHl0aG9uJywgJy1waCcsICc3LjAnLCAnLXRuJywgJzgnLCAnLW1hJywgJzIwMCcsICctbWV0YWxfYmluZGluZycsICctaW1hZScsICc8aW5maWxlLm1hZT4nLCAnLW9tYWUnLCAnPG91dGZpbGUubWFlPic=

> <r_lp_tautomer_probability>
1

> <r_epik_Ionization_Penalty>
1.22164e-06

> <r_epik_Ionization_Penalty_Charging>
3.17988e-07

> <r_epik_Ionization_Penalty_Neutral>
9.03656e-07

> <r_epik_State_Penalty>
-0

> <r_epik_Charging_Adjusted_Penalty>
3.17988e-07

> <i_epik_Tot_Q>
0

> <i_epik_Tot_abs_Q>
0

> <r_epik_Metal_State_Penalty>
-0

> <b_epik_Metal_Only>
0

> <s_lp_Force_Field>
OPLS_2005

> <r_lp_Energy>
19.2685

> <b_lp_Chiralities_Consistent>
1

> <s_lp_Variant>
AV-unprocessed.smi:2702-8

> <Gold.Version>
5.8.1

> <Gold.Id.Protein>
6NUR|6NUR_protein|mol2

> <Gold.PLP.Fitness>
47.2751

> <Gold.PLP.PLP>
-39.4068

> <Gold.PLP.part.hbond>
-4.0000

> <Gold.PLP.part.metal>
0.0000

> <Gold.PLP.part.buried>
-5.2075

> <Gold.PLP.part.nonpolar>
-30.9844

> <Gold.PLP.part.repulsive>
0.2618

> <Gold.PLP.ligand.clash>
0.0000

> <Gold.PLP.ligand.torsion>
0.4806

> <Gold.PLP.Chemscore.Hbond>
2.9353

> <Gold.PLP.Chemscore.CHOScore>
0.0000

> <Gold.PLP.Chemscore.Metal>
0.0000

> <Gold.Chemscore.Hbonds>
donor molecule, donor type, donor heavy atom, donor atom, acceptor molecule, acceptor atom, score
      P1  H  6896  6909       L1     2  1.00
      P1  H  7997  8010       L1    11  1.00
      P1  H 10752 10763       L1     7  0.96

> <Gold.PLP.Chemscore.Internal.Correction>
0.0238

> <Gold.Rescore>
     Score         DG    S(hbond)    S(metal)    S(lipo)     H(rot)  DE(clash)    DE(int)     intcor
     19.77     -21.45       2.92        0.00      95.31       1.93       0.03       1.65       ----

> <Gold.Chemscore.Fitness>
19.7718

> <Gold.Chemscore.DG>
-21.4499

> <Gold.Chemscore.ZeroCoef>
-5.4800

> <Gold.Chemscore.Hbond>
2.9207

> <Gold.Chemscore.Metal>
0.0000

> <Gold.Chemscore.Lipo>
95.3113

> <Gold.Chemscore.Internal_Hbond>
0.0000

> <Gold.Chemscore.DEClash>
0.0323

> <Gold.Chemscore.DEInternal>
1.6457

> <Gold.Chemscore.Rot>
1.9284

> <Gold.Chemscore.Internal.Correction>
   9.000000E+99

> <Gold.Chemscore.Hbonds>
donor molecule, donor type, donor heavy atom, donor atom, acceptor molecule, acceptor atom, score
      P1  H  6896  6909       L1     2  0.93
      P1  H  7997  8010       L1    11  0.93
      P1  H 10752 10763       L1     7  0.65

> <Gold.Chemscore.Hbond.Weighted>
-9.7552

> <Gold.Chemscore.Metal.Weighted>
-0.0000

> <Gold.Chemscore.Lipo.Weighted>
-11.1514

> <Gold.Chemscore.Internal_Hbond.Weighted>
0.0000

> <Gold.Chemscore.DEClash.Weighted>
0.0323

> <Gold.Chemscore.DEInternal.Weighted>
1.6457

> <Gold.Chemscore.Rot.Weighted>
4.9368

> <Gold.Chemscore.Internal.Correction.Weighted>
   9.000000E+99

> <Gold.Protein.RotatedTorsions>
[ 6907 6896 6895 6894 ] final    7.32 input  -60.11 | X-H torsion
[ 7974 7965 7964 7962 ] final -161.48 input  175.53 | X-H torsion
[ 8008 7997 7996 7995 ] final   98.88 input   59.86 | X-H torsion
[ 10167 10162 10161 10158 ] final  -52.72 input  -65.29 | X-H torsion
[ 10718 10713 10712 10709 ] final   16.43 input   66.30 | X-H torsion
[ 10763 10752 10751 10750 ] final   42.63 input  -60.55 | X-H torsion
[ 11005 11000 10999 10996 ] final  175.26 input  -57.11 | X-H torsion

> <Gold.Protein.ActiveResidues>
 VAL166  LYS551  ARG553  GLY616  TRP617  ASP618  TYR619  PRO620  LYS621  CYS622 
 ASP623  PHE694  ASN695  SER759  ASP760  ASP761  ALA762  ILE779  LEU786  VAL792 
 PHE793  MET794  SER795  GLU796  ALA797  LYS798  CYS799  TRP800  GLU811  SER814 

> <Gold.Protein.RotatedAtoms>
  151.6880  135.0951  160.0228 H   0  0  0  0  0  0  0  0  0  0  0  0  # atno 6907 bound_to 6896
  152.3796  133.6523  159.6159 H   0  0  0  0  0  0  0  0  0  0  0  0  # atno 6908 bound_to 6896
  150.7736  133.9053  159.3394 H   0  0  0  0  0  0  0  0  0  0  0  0  # atno 6909 bound_to 6896
  144.7389  140.3391  143.6138 H   0  0  0  0  0  0  0  0  0  0  0  0  # atno 7974 bound_to 7965
  156.1049  140.3237  155.7992 H   0  0  0  0  0  0  0  0  0  0  0  0  # atno 8008 bound_to 7997
  155.4773  140.0551  157.2989 H   0  0  0  0  0  0  0  0  0  0  0  0  # atno 8009 bound_to 7997
  154.4721  140.2016  155.9984 H   0  0  0  0  0  0  0  0  0  0  0  0  # atno 8010 bound_to 7997
  140.6523  143.2574  151.4688 H   0  0  0  0  0  0  0  0  0  0  0  0  # atno 10167 bound_to 10162
  157.0678  130.6335  149.5799 H   0  0  0  0  0  0  0  0  0  0  0  0  # atno 10718 bound_to 10713
  152.9878  135.6126  154.2981 H   0  0  0  0  0  0  0  0  0  0  0  0  # atno 10763 bound_to 10752
  154.2703  135.2780  155.2743 H   0  0  0  0  0  0  0  0  0  0  0  0  # atno 10764 bound_to 10752
  154.5128  135.5836  153.6675 H   0  0  0  0  0  0  0  0  0  0  0  0  # atno 10765 bound_to 10752
  140.3603  134.7119  157.4326 H   0  0  0  0  0  0  0  0  0  0  0  0  # atno 11005 bound_to 11000
  145.7393  139.1759  143.2385 LP  0  0  0  0  0  0  0  0  0  0  0  0  # atno 17320 bound_to 7965
  146.1146  140.7385  142.9486 LP  0  0  0  0  0  0  0  0  0  0  0  0  # atno 17321 bound_to 7965
  139.5739  144.1863  152.1876 LP  0  0  0  0  0  0  0  0  0  0  0  0  # atno 17342 bound_to 10162
  140.1168  144.5409  150.6889 LP  0  0  0  0  0  0  0  0  0  0  0  0  # atno 17343 bound_to 10162
  155.9959  130.5027  150.7477 LP  0  0  0  0  0  0  0  0  0  0  0  0  # atno 17370 bound_to 10713
  157.4903  131.0910  151.0435 LP  0  0  0  0  0  0  0  0  0  0  0  0  # atno 17371 bound_to 10713
  140.0632  134.5966  155.8725 LP  0  0  0  0  0  0  0  0  0  0  0  0  # atno 17394 bound_to 11000
  141.1986  133.6602  156.5801 LP  0  0  0  0  0  0  0  0  0  0  0  0  # atno 17395 bound_to 11000

$$$$
