AV-unprocessed.smi:1465|AV-procd|sdf|5952|dock4
  -GOLD-   22720 6 33D 1   1.00000     0.00000
 Structure written by MMmdl.
 54 55  0  0  0  0  0  0  0  0  2 V2000
  149.1575  144.9571  160.6720 C   0  0  0  0  0  0  0  0  0  0  0  0
  150.0250  144.2966  159.7668 O   0  0  0  0  0  0  0  0  0  0  0  0
  151.2167  145.0264  159.5293 C   0  0  0  0  0  0  0  0  0  0  0  0
  151.8354  144.5543  158.2053 C   0  0  0  0  0  0  0  0  0  0  0  0
  151.6081  143.1189  157.9924 N   0  0  0  0  0  0  0  0  0  0  0  0
  150.9117  142.7512  156.8251 C   0  0  0  0  0  0  0  0  0  0  0  0
  150.6298  141.4679  156.5265 C   0  0  0  0  0  0  0  0  0  0  0  0
  149.8888  141.1563  155.3023 C   0  0  0  0  0  0  0  0  0  0  0  0
  150.1760  140.2452  154.5246 O   0  0  0  0  0  0  0  0  0  0  0  0
  148.8395  141.9678  155.0849 N   0  0  0  0  0  0  0  0  0  0  0  0
  147.9356  141.9066  153.9370 C   0  0  2  0  0  0  0  0  0  0  0  0
  146.7628  142.8833  154.1266 C   0  0  0  0  0  0  0  0  0  0  0  0
  145.7826  142.4069  155.2144 C   0  0  0  0  0  0  0  0  0  0  0  0
  145.2820  141.0361  154.9264 N   0  3  2  0  0  0  0  0  0  0  0  0
  144.2367  140.5773  155.8783 C   0  0  0  0  0  0  0  0  0  0  0  0
  142.8683  141.2583  155.6562 C   0  0  0  0  0  0  0  0  0  0  0  0
  142.9133  142.7214  156.1211 C   0  0  0  0  0  0  0  0  0  0  0  0
  141.7298  140.5051  156.3648 C   0  0  0  0  0  0  0  0  0  0  0  0
  146.3983  140.0628  154.8086 C   0  0  0  0  0  0  0  0  0  0  0  0
  147.3909  140.4829  153.7101 C   0  0  0  0  0  0  0  0  0  0  0  0
  151.0820  140.4507  157.4645 C   0  0  0  0  0  0  0  0  0  0  0  0
  151.7409  140.7987  158.5873 C   0  0  0  0  0  0  0  0  0  0  0  0
  152.0304  142.1991  158.9107 C   0  0  0  0  0  0  0  0  0  0  0  0
  152.6142  142.5229  159.9451 O   0  0  0  0  0  0  0  0  0  0  0  0
  148.2584  144.3589  160.8206 H   0  0  0  0  0  0  0  0  0  0  0  0
  148.8541  145.9319  160.2875 H   0  0  0  0  0  0  0  0  0  0  0  0
  149.6332  145.0965  161.6440 H   0  0  0  0  0  0  0  0  0  0  0  0
  150.9965  146.0943  159.4856 H   0  0  0  0  0  0  0  0  0  0  0  0
  151.9192  144.8675  160.3491 H   0  0  0  0  0  0  0  0  0  0  0  0
  151.4099  145.1262  157.3791 H   0  0  0  0  0  0  0  0  0  0  0  0
  152.9019  144.7858  158.1887 H   0  0  0  0  0  0  0  0  0  0  0  0
  150.6172  143.5855  156.2035 H   0  0  0  0  0  0  0  0  0  0  0  0
  148.6684  142.6978  155.7609 H   0  0  0  0  0  0  0  0  0  0  0  0
  148.4937  142.2166  153.0516 H   0  0  0  0  0  0  0  0  0  0  0  0
  147.1356  143.8797  154.3679 H   0  0  0  0  0  0  0  0  0  0  0  0
  146.2242  142.9828  153.1831 H   0  0  0  0  0  0  0  0  0  0  0  0
  146.2668  142.4207  156.1921 H   0  0  0  0  0  0  0  0  0  0  0  0
  144.9541  143.1115  155.2670 H   0  0  0  0  0  0  0  0  0  0  0  0
  144.0981  139.5000  155.7749 H   0  0  0  0  0  0  0  0  0  0  0  0
  144.5868  140.7395  156.8990 H   0  0  0  0  0  0  0  0  0  0  0  0
  142.6444  141.2777  154.5902 H   0  0  0  0  0  0  0  0  0  0  0  0
  143.1207  142.7934  157.1894 H   0  0  0  0  0  0  0  0  0  0  0  0
  141.9636  143.2234  155.9330 H   0  0  0  0  0  0  0  0  0  0  0  0
  143.6875  143.2792  155.5933 H   0  0  0  0  0  0  0  0  0  0  0  0
  141.8988  140.4511  157.4409 H   0  0  0  0  0  0  0  0  0  0  0  0
  141.6300  139.4859  155.9910 H   0  0  0  0  0  0  0  0  0  0  0  0
  140.7725  141.0023  156.2049 H   0  0  0  0  0  0  0  0  0  0  0  0
  146.9086  139.9714  155.7687 H   0  0  0  0  0  0  0  0  0  0  0  0
  146.0020  139.0760  154.5666 H   0  0  0  0  0  0  0  0  0  0  0  0
  146.8860  140.4452  152.7439 H   0  0  0  0  0  0  0  0  0  0  0  0
  148.2074  139.7625  153.6488 H   0  0  0  0  0  0  0  0  0  0  0  0
  150.9038  139.4008  157.2855 H   0  0  0  0  0  0  0  0  0  0  0  0
  152.0665  140.0269  159.2690 H   0  0  0  0  0  0  0  0  0  0  0  0
  144.8417  141.0674  154.0177 H   0  0  0  0  0  0  0  0  0  0  0  0
  1  2  1  0  0  0  0
  1 25  1  0  0  0  0
  1 26  1  0  0  0  0
  1 27  1  0  0  0  0
  2  3  1  0  0  0  0
  3  4  1  0  0  0  0
  3 28  1  0  0  0  0
  3 29  1  0  0  0  0
  4  5  1  0  0  0  0
  4 30  1  0  0  0  0
  4 31  1  0  0  0  0
  5 23  1  0  0  0  0
  5  6  1  0  0  0  0
  6  7  2  0  0  0  0
  6 32  1  0  0  0  0
  7  8  1  0  0  0  0
  7 21  1  0  0  0  0
  8  9  2  0  0  0  0
  8 10  1  0  0  0  0
 10 11  1  0  0  0  0
 10 33  1  0  0  0  0
 11 20  1  0  0  0  0
 11 12  1  0  0  0  0
 11 34  1  0  0  0  0
 12 13  1  0  0  0  0
 12 35  1  0  0  0  0
 12 36  1  0  0  0  0
 13 14  1  0  0  0  0
 13 37  1  0  0  0  0
 13 38  1  0  0  0  0
 14 15  1  0  0  0  0
 14 19  1  0  0  0  0
 14 54  1  0  0  0  0
 15 16  1  0  0  0  0
 15 39  1  0  0  0  0
 15 40  1  0  0  0  0
 16 17  1  0  0  0  0
 16 18  1  0  0  0  0
 16 41  1  0  0  0  0
 17 42  1  0  0  0  0
 17 43  1  0  0  0  0
 17 44  1  0  0  0  0
 18 45  1  0  0  0  0
 18 46  1  0  0  0  0
 18 47  1  0  0  0  0
 19 20  1  0  0  0  0
 19 48  1  0  0  0  0
 19 49  1  0  0  0  0
 20 50  1  0  0  0  0
 20 51  1  0  0  0  0
 21 22  2  0  0  0  0
 21 52  1  0  0  0  0
 22 23  1  0  0  0  0
 22 53  1  0  0  0  0
 23 24  2  0  0  0  0
M  CHG  1  14   1
M  END
> <s_m_source_file>
AV-unprocessed.smi

> <i_m_source_file_index>
1465

> <i_lp_mmshare_version>
43012

> <i_f3d_flags>
0

> <s_epik_input>
W0NIM11PW0NIMl1bQ0gyXW4xW2NIXWMoW2NIXVtjSF1jMT1PKUMoPU8pW05IXVtDSF0yW0NIMl1bQ0gyXU4oW0NIMl1bQ0gyXTIpW0NIMl1bQ0hdKFtDSDNdKVtDSDNd

> <s_epik_cmdline>
J2VwaWtfcHl0aG9uJywgJy1waCcsICc3LjAnLCAnLXRuJywgJzgnLCAnLW1hJywgJzIwMCcsICctbWV0YWxfYmluZGluZycsICctaW1hZScsICc8aW5maWxlLm1hZT4nLCAnLW9tYWUnLCAnPG91dGZpbGUubWFlPic=

> <r_lp_tautomer_probability>
1

> <r_epik_Ionization_Penalty>
0.00386091

> <r_epik_Ionization_Penalty_Charging>
0.0038603

> <r_epik_Ionization_Penalty_Neutral>
6.13806e-07

> <r_epik_State_Penalty>
0.00275716

> <r_epik_Charging_Adjusted_Penalty>
0.00661746

> <i_epik_Tot_Q>
1

> <i_epik_Tot_abs_Q>
1

> <r_epik_Metal_State_Penalty>
-0

> <b_epik_Metal_Only>
0

> <s_lp_Force_Field>
OPLS_2005

> <r_lp_Energy>
34.4783

> <b_lp_Chiralities_Consistent>
1

> <s_lp_Variant>
AV-unprocessed.smi:1465-2

> <Gold.Version>
5.8.1

> <Gold.Id.Protein>
6NUR|6NUR_protein|mol2

> <Gold.PLP.Fitness>
56.0496

> <Gold.PLP.PLP>
-44.4805

> <Gold.PLP.part.hbond>
-3.0000

> <Gold.PLP.part.metal>
0.0000

> <Gold.PLP.part.buried>
-5.7293

> <Gold.PLP.part.nonpolar>
-35.9554

> <Gold.PLP.part.repulsive>
0.4360

> <Gold.PLP.ligand.clash>
0.0000

> <Gold.PLP.ligand.torsion>
1.2896

> <Gold.PLP.Chemscore.Hbond>
3.6560

> <Gold.PLP.Chemscore.CHOScore>
1.0000

> <Gold.PLP.Chemscore.Metal>
0.0000

> <Gold.Chemscore.Hbonds>
donor molecule, donor type, donor heavy atom, donor atom, acceptor molecule, acceptor atom, score
      L1  H    10    33       P1  8028  0.64
      L1  H    14    54       P1 10175  2.00
      P1  H  7989  7998       L1     9  1.00
      L1  C     6    32       P1  8028  1.00

> <Gold.PLP.Chemscore.Internal.Correction>
0.1802

> <Gold.Rescore>
     Score         DG    S(hbond)    S(metal)    S(lipo)     H(rot)  DE(clash)    DE(int)     intcor
     13.91     -18.75       2.26        0.00      87.82       1.78       0.60       4.24       ----

> <Gold.Chemscore.Fitness>
13.9130

> <Gold.Chemscore.DG>
-18.7519

> <Gold.Chemscore.ZeroCoef>
-5.4800

> <Gold.Chemscore.Hbond>
2.2594

> <Gold.Chemscore.Metal>
0.0000

> <Gold.Chemscore.Lipo>
87.8179

> <Gold.Chemscore.Internal_Hbond>
0.0000

> <Gold.Chemscore.DEClash>
0.5994

> <Gold.Chemscore.DEInternal>
4.2396

> <Gold.Chemscore.Rot>
1.7769

> <Gold.Chemscore.Internal.Correction>
   9.000000E+99

> <Gold.Chemscore.Hbonds>
donor molecule, donor type, donor heavy atom, donor atom, acceptor molecule, acceptor atom, score
      L1  H    10    33       P1  8028  0.60
      L1  H    14    54       P1 10175  0.78
      P1  H  7989  7998       L1     9  0.53

> <Gold.Chemscore.Hbond.Weighted>
-7.5462

> <Gold.Chemscore.Metal.Weighted>
-0.0000

> <Gold.Chemscore.Lipo.Weighted>
-10.2747

> <Gold.Chemscore.Internal_Hbond.Weighted>
0.0000

> <Gold.Chemscore.DEClash.Weighted>
0.5994

> <Gold.Chemscore.DEInternal.Weighted>
4.2396

> <Gold.Chemscore.Rot.Weighted>
4.5490

> <Gold.Chemscore.Internal.Correction.Weighted>
   9.000000E+99

> <Gold.Protein.RotatedTorsions>
[ 6907 6896 6895 6894 ] final  -23.89 input  -60.11 | X-H torsion
[ 7974 7965 7964 7962 ] final    9.00 input  175.53 | X-H torsion
[ 8008 7997 7996 7995 ] final  -24.72 input   59.86 | X-H torsion
[ 10167 10162 10161 10158 ] final   15.85 input  -65.29 | X-H torsion
[ 10718 10713 10712 10709 ] final -124.17 input   66.30 | X-H torsion
[ 10763 10752 10751 10750 ] final -165.64 input  -60.55 | X-H torsion
[ 11005 11000 10999 10996 ] final  -52.37 input  -57.11 | X-H torsion

> <Gold.Protein.ActiveResidues>
 VAL166  LYS551  ARG553  GLY616  TRP617  ASP618  TYR619  PRO620  LYS621  CYS622 
 ASP623  PHE694  ASN695  SER759  ASP760  ASP761  ALA762  ILE779  LEU786  VAL792 
 PHE793  MET794  SER795  GLU796  ALA797  LYS798  CYS799  TRP800  GLU811  SER814 

> <Gold.Protein.RotatedAtoms>
  151.1975  135.0428  159.8857 H   0  0  0  0  0  0  0  0  0  0  0  0  # atno 6907 bound_to 6896
  152.5435  134.0887  159.8277 H   0  0  0  0  0  0  0  0  0  0  0  0  # atno 6908 bound_to 6896
  151.1024  133.5186  159.2641 H   0  0  0  0  0  0  0  0  0  0  0  0  # atno 6909 bound_to 6896
  146.2409  139.9849  142.8432 H   0  0  0  0  0  0  0  0  0  0  0  0  # atno 7974 bound_to 7965
  154.4514  140.1946  156.0508 H   0  0  0  0  0  0  0  0  0  0  0  0  # atno 8008 bound_to 7997
  156.0655  140.3291  155.7485 H   0  0  0  0  0  0  0  0  0  0  0  0  # atno 8009 bound_to 7997
  155.5345  140.0581  157.2873 H   0  0  0  0  0  0  0  0  0  0  0  0  # atno 8010 bound_to 7997
  140.5838  143.8929  150.6813 H   0  0  0  0  0  0  0  0  0  0  0  0  # atno 10167 bound_to 10162
  156.1565  130.6571  150.9988 H   0  0  0  0  0  0  0  0  0  0  0  0  # atno 10718 bound_to 10713
  154.6912  135.2971  154.9477 H   0  0  0  0  0  0  0  0  0  0  0  0  # atno 10763 bound_to 10752
  154.0439  135.6653  153.4797 H   0  0  0  0  0  0  0  0  0  0  0  0  # atno 10764 bound_to 10752
  153.0613  135.5114  154.8005 H   0  0  0  0  0  0  0  0  0  0  0  0  # atno 10765 bound_to 10752
  141.0920  133.6631  156.4014 H   0  0  0  0  0  0  0  0  0  0  0  0  # atno 11005 bound_to 11000
  145.1557  140.9646  143.4407 LP  0  0  0  0  0  0  0  0  0  0  0  0  # atno 17320 bound_to 7965
  145.0163  139.3464  143.6094 LP  0  0  0  0  0  0  0  0  0  0  0  0  # atno 17321 bound_to 7965
  140.2435  143.3646  152.1467 LP  0  0  0  0  0  0  0  0  0  0  0  0  # atno 17342 bound_to 10162
  139.5185  144.7007  151.5501 LP  0  0  0  0  0  0  0  0  0  0  0  0  # atno 17343 bound_to 10162
  157.6699  131.0864  150.7639 LP  0  0  0  0  0  0  0  0  0  0  0  0  # atno 17370 bound_to 10713
  156.7704  130.4827  149.5419 LP  0  0  0  0  0  0  0  0  0  0  0  0  # atno 17371 bound_to 10713
  140.5228  134.6287  157.5324 LP  0  0  0  0  0  0  0  0  0  0  0  0  # atno 17394 bound_to 11000
  139.9748  134.7232  155.9970 LP  0  0  0  0  0  0  0  0  0  0  0  0  # atno 17395 bound_to 11000

$$$$
