AV-unprocessed.smi:2044|AV-procd|sdf|8298|dock4
  -GOLD-   2272010563D 1   1.00000     0.00000
 Structure written by MMmdl.
 39 40  0  0  0  0  0  0  0  0  1 V2000
  150.5823  141.4995  157.2455 C   0  0  0  0  0  0  0  0  0  0  0  0
  150.3422  140.6594  156.0382 C   0  0  0  0  0  0  0  0  0  0  0  0
  149.2046  140.1968  155.4388 C   0  0  0  0  0  0  0  0  0  0  0  0
  149.7033  139.4560  154.3344 C   0  0  0  0  0  0  0  0  0  0  0  0
  148.8202  138.7973  153.4412 N   0  0  0  0  0  0  0  0  0  0  0  0
  147.4765  138.8023  153.4655 C   0  0  0  0  0  0  0  0  0  0  0  0
  146.7851  139.3877  154.2996 O   0  0  0  0  0  0  0  0  0  0  0  0
  146.9703  138.0763  152.4584 N   0  0  0  0  0  0  0  0  0  0  0  0
  145.5491  137.8525  152.1997 C   0  0  0  0  0  0  0  0  0  0  0  0
  145.2033  136.3473  152.0509 C   0  0  2  0  0  0  0  0  0  0  0  0
  145.4393  135.9324  150.5811 C   0  0  0  0  0  0  0  0  0  0  0  0
  143.8622  135.9835  152.5600 N   0  0  0  0  0  0  0  0  0  0  0  0
  143.6451  134.5337  152.5840 C   0  0  0  0  0  0  0  0  0  0  0  0
  142.2613  134.1502  153.1362 C   0  0  0  0  0  0  0  0  0  0  0  0
  142.0975  134.6946  154.4391 O   0  0  0  0  0  0  0  0  0  0  0  0
  142.2299  136.1097  154.4503 C   0  0  0  0  0  0  0  0  0  0  0  0
  143.6145  136.5039  153.9080 C   0  0  0  0  0  0  0  0  0  0  0  0
  151.0259  139.4658  154.2658 N   0  0  0  0  0  0  0  0  0  0  0  0
  151.4421  140.2366  155.3578 O   0  0  0  0  0  0  0  0  0  0  0  0
  149.6989  142.0895  157.4904 H   0  0  0  0  0  0  0  0  0  0  0  0
  151.4126  142.1872  157.0831 H   0  0  0  0  0  0  0  0  0  0  0  0
  150.8224  140.8759  158.1066 H   0  0  0  0  0  0  0  0  0  0  0  0
  148.1823  140.3625  155.7446 H   0  0  0  0  0  0  0  0  0  0  0  0
  149.2587  138.2688  152.7016 H   0  0  0  0  0  0  0  0  0  0  0  0
  147.6175  137.6256  151.8282 H   0  0  0  0  0  0  0  0  0  0  0  0
  144.9381  138.3001  152.9853 H   0  0  0  0  0  0  0  0  0  0  0  0
  145.2766  138.4047  151.3012 H   0  0  0  0  0  0  0  0  0  0  0  0
  145.9429  135.8057  152.6427 H   0  0  0  0  0  0  0  0  0  0  0  0
  146.3886  136.3190  150.2092 H   0  0  0  0  0  0  0  0  0  0  0  0
  144.6521  136.3086  149.9272 H   0  0  0  0  0  0  0  0  0  0  0  0
  145.4859  134.8504  150.4627 H   0  0  0  0  0  0  0  0  0  0  0  0
  143.7220  134.1194  151.5797 H   0  0  0  0  0  0  0  0  0  0  0  0
  144.4195  134.0535  153.1843 H   0  0  0  0  0  0  0  0  0  0  0  0
  141.4690  134.5125  152.4791 H   0  0  0  0  0  0  0  0  0  0  0  0
  142.1622  133.0657  153.1896 H   0  0  0  0  0  0  0  0  0  0  0  0
  141.4369  136.5620  153.8527 H   0  0  0  0  0  0  0  0  0  0  0  0
  142.1066  136.4703  155.4714 H   0  0  0  0  0  0  0  0  0  0  0  0
  144.3855  136.1438  154.5910 H   0  0  0  0  0  0  0  0  0  0  0  0
  143.6703  137.5912  153.9153 H   0  0  0  0  0  0  0  0  0  0  0  0
  1  2  1  0  0  0  0
  1 20  1  0  0  0  0
  1 21  1  0  0  0  0
  1 22  1  0  0  0  0
  2 19  1  0  0  0  0
  2  3  2  0  0  0  0
  3  4  1  0  0  0  0
  3 23  1  0  0  0  0
  4  5  1  0  0  0  0
  4 18  2  0  0  0  0
  5  6  1  0  0  0  0
  5 24  1  0  0  0  0
  6  7  2  0  0  0  0
  6  8  1  0  0  0  0
  8  9  1  0  0  0  0
  8 25  1  0  0  0  0
  9 10  1  0  0  0  0
  9 26  1  0  0  0  0
  9 27  1  0  0  0  0
 10 11  1  0  0  0  0
 10 12  1  0  0  0  0
 10 28  1  0  0  0  0
 11 29  1  0  0  0  0
 11 30  1  0  0  0  0
 11 31  1  0  0  0  0
 12 17  1  0  0  0  0
 12 13  1  0  0  0  0
 13 14  1  0  0  0  0
 13 32  1  0  0  0  0
 13 33  1  0  0  0  0
 14 15  1  0  0  0  0
 14 34  1  0  0  0  0
 14 35  1  0  0  0  0
 15 16  1  0  0  0  0
 16 17  1  0  0  0  0
 16 36  1  0  0  0  0
 16 37  1  0  0  0  0
 17 38  1  0  0  0  0
 17 39  1  0  0  0  0
 18 19  1  0  0  0  0
M  END
> <s_m_source_file>
AV-unprocessed.smi

> <i_m_source_file_index>
2044

> <i_lp_mmshare_version>
43012

> <i_f3d_flags>
0

> <s_epik_input>
W0NIM11jMVtjSF1jKG5vMSlbTkhdQyg9TylbTkhdW0NIMl1bQ0BIXShbQ0gzXSlOMltDSDJdW0NIMl1PW0NIMl1bQ0gyXTI=

> <s_epik_cmdline>
J2VwaWtfcHl0aG9uJywgJy1waCcsICc3LjAnLCAnLXRuJywgJzgnLCAnLW1hJywgJzIwMCcsICctbWV0YWxfYmluZGluZycsICctaW1hZScsICc8aW5maWxlLm1hZT4nLCAnLW9tYWUnLCAnPG91dGZpbGUubWFlPic=

> <r_epik_Ionization_Penalty>
0.214073

> <r_epik_Ionization_Penalty_Charging>
0

> <r_epik_Ionization_Penalty_Neutral>
0.214073

> <r_epik_State_Penalty>
0.204211

> <r_epik_Charging_Adjusted_Penalty>
0.204211

> <i_epik_Tot_Q>
0

> <i_epik_Tot_abs_Q>
0

> <r_epik_Metal_State_Penalty>
0.217151

> <b_epik_Metal_Only>
0

> <s_lp_Force_Field>
OPLS_2005

> <r_lp_Energy>
29.787

> <b_lp_Chiralities_Consistent>
1

> <s_lp_Variant>
AV-unprocessed.smi:2044-1

> <Gold.Version>
5.8.1

> <Gold.Id.Protein>
6NUR|6NUR_protein|mol2

> <Gold.PLP.Fitness>
37.7798

> <Gold.PLP.PLP>
-32.9111

> <Gold.PLP.part.hbond>
-5.5472

> <Gold.PLP.part.metal>
0.0000

> <Gold.PLP.part.buried>
-1.3290

> <Gold.PLP.part.nonpolar>
-26.1064

> <Gold.PLP.part.repulsive>
0.6929

> <Gold.PLP.ligand.clash>
0.0000

> <Gold.PLP.ligand.torsion>
0.4583

> <Gold.PLP.Chemscore.Hbond>
1.9120

> <Gold.PLP.Chemscore.CHOScore>
0.0000

> <Gold.PLP.Chemscore.Metal>
0.0000

> <Gold.Chemscore.Hbonds>
donor molecule, donor type, donor heavy atom, donor atom, acceptor molecule, acceptor atom, score
      L1  H     5    24       P1  7948  0.44
      L1  H     8    25       P1  7948  0.82

> <Gold.PLP.Chemscore.Internal.Correction>
0.0492

> <Gold.Rescore>
     Score         DG    S(hbond)    S(metal)    S(lipo)     H(rot)  DE(clash)    DE(int)     intcor
     11.36     -13.55       1.73        0.00      54.22       1.58       0.39       1.80       ----

> <Gold.Chemscore.Fitness>
11.3605

> <Gold.Chemscore.DG>
-13.5538

> <Gold.Chemscore.ZeroCoef>
-5.4800

> <Gold.Chemscore.Hbond>
1.7254

> <Gold.Chemscore.Metal>
0.0000

> <Gold.Chemscore.Lipo>
54.2201

> <Gold.Chemscore.Internal_Hbond>
0.0000

> <Gold.Chemscore.DEClash>
0.3890

> <Gold.Chemscore.DEInternal>
1.8043

> <Gold.Chemscore.Rot>
1.5753

> <Gold.Chemscore.Internal.Correction>
   9.000000E+99

> <Gold.Chemscore.Hbonds>
donor molecule, donor type, donor heavy atom, donor atom, acceptor molecule, acceptor atom, score
      L1  H     5    24       P1  7948  0.41
      L1  H     8    25       P1  7948  0.81

> <Gold.Chemscore.Hbond.Weighted>
-5.7629

> <Gold.Chemscore.Metal.Weighted>
-0.0000

> <Gold.Chemscore.Lipo.Weighted>
-6.3438

> <Gold.Chemscore.Internal_Hbond.Weighted>
0.0000

> <Gold.Chemscore.DEClash.Weighted>
0.3890

> <Gold.Chemscore.DEInternal.Weighted>
1.8043

> <Gold.Chemscore.Rot.Weighted>
4.0329

> <Gold.Chemscore.Internal.Correction.Weighted>
   9.000000E+99

> <Gold.Protein.RotatedTorsions>
[ 6907 6896 6895 6894 ] final -153.94 input  -60.11 | X-H torsion
[ 7974 7965 7964 7962 ] final -111.94 input  175.53 | X-H torsion
[ 8008 7997 7996 7995 ] final   49.38 input   59.86 | X-H torsion
[ 10167 10162 10161 10158 ] final   91.52 input  -65.29 | X-H torsion
[ 10718 10713 10712 10709 ] final   -2.46 input   66.30 | X-H torsion
[ 10763 10752 10751 10750 ] final   30.09 input  -60.55 | X-H torsion
[ 11005 11000 10999 10996 ] final  -69.10 input  -57.11 | X-H torsion

> <Gold.Protein.ActiveResidues>
 VAL166  LYS551  ARG553  GLY616  TRP617  ASP618  TYR619  PRO620  LYS621  CYS622 
 ASP623  PHE694  ASN695  SER759  ASP760  ASP761  ALA762  ILE779  LEU786  VAL792 
 PHE793  MET794  SER795  GLU796  ALA797  LYS798  CYS799  TRP800  GLU811  SER814 

> <Gold.Protein.RotatedAtoms>
  151.2501  133.4354  159.2610 H   0  0  0  0  0  0  0  0  0  0  0  0  # atno 6907 bound_to 6896
  151.0625  134.9746  159.8278 H   0  0  0  0  0  0  0  0  0  0  0  0  # atno 6908 bound_to 6896
  152.5400  134.2450  159.8929 H   0  0  0  0  0  0  0  0  0  0  0  0  # atno 6909 bound_to 6896
  145.1500  140.8824  143.3652 H   0  0  0  0  0  0  0  0  0  0  0  0  # atno 7974 bound_to 7965
  155.4013  140.3438  155.4257 H   0  0  0  0  0  0  0  0  0  0  0  0  # atno 8008 bound_to 7997
  156.1502  140.1568  156.8814 H   0  0  0  0  0  0  0  0  0  0  0  0  # atno 8009 bound_to 7997
  154.5045  140.0806  156.7848 H   0  0  0  0  0  0  0  0  0  0  0  0  # atno 8010 bound_to 7997
  139.8367  144.6661  150.9334 H   0  0  0  0  0  0  0  0  0  0  0  0  # atno 10167 bound_to 10162
  156.7905  130.5360  149.5736 H   0  0  0  0  0  0  0  0  0  0  0  0  # atno 10718 bound_to 10713
  153.0392  135.6473  154.0990 H   0  0  0  0  0  0  0  0  0  0  0  0  # atno 10763 bound_to 10752
  154.0700  135.2881  155.3311 H   0  0  0  0  0  0  0  0  0  0  0  0  # atno 10764 bound_to 10752
  154.6600  135.5395  153.8071 H   0  0  0  0  0  0  0  0  0  0  0  0  # atno 10765 bound_to 10752
  141.1547  133.6756  156.6548 H   0  0  0  0  0  0  0  0  0  0  0  0  # atno 11005 bound_to 11000
  145.0441  139.3235  143.5961 LP  0  0  0  0  0  0  0  0  0  0  0  0  # atno 17320 bound_to 7965
  146.3495  139.9825  142.8694 LP  0  0  0  0  0  0  0  0  0  0  0  0  # atno 17321 bound_to 7965
  140.7802  143.3951  151.1244 LP  0  0  0  0  0  0  0  0  0  0  0  0  # atno 17342 bound_to 10162
  139.7600  143.8649  152.3098 LP  0  0  0  0  0  0  0  0  0  0  0  0  # atno 17343 bound_to 10162
  156.1162  130.6076  151.0124 LP  0  0  0  0  0  0  0  0  0  0  0  0  # atno 17370 bound_to 10713
  157.6603  131.0882  150.7854 LP  0  0  0  0  0  0  0  0  0  0  0  0  # atno 17371 bound_to 10713
  140.3292  134.7943  157.4313 LP  0  0  0  0  0  0  0  0  0  0  0  0  # atno 17394 bound_to 11000
  140.1031  134.5446  155.8334 LP  0  0  0  0  0  0  0  0  0  0  0  0  # atno 17395 bound_to 11000

$$$$
