AV-unprocessed.smi:1446|AV-procd|sdf|5889|dock5
  -GOLD-   22720 5573D 1   1.00000     0.00000
 Structure written by MMmdl.
 47 48  0  0  0  0  0  0  0  0  1 V2000
  143.4448  142.5967  155.3992 C   0  0  0  0  0  0  0  0  0  0  0  0
  142.1525  141.8207  155.6266 C   0  0  0  0  0  0  0  0  0  0  0  0
  141.4739  142.0294  156.6317 O   0  0  0  0  0  0  0  0  0  0  0  0
  141.8231  140.9269  154.6809 N   0  0  0  0  0  0  0  0  0  0  0  0
  140.6324  140.0740  154.6956 C   0  0  2  0  0  0  0  0  0  0  0  0
  141.0549  138.6246  154.3838 C   0  0  0  0  0  0  0  0  0  0  0  0
  140.3883  137.6833  154.8181 O   0  0  0  0  0  0  0  0  0  0  0  0
  142.1736  138.4909  153.6463 N   0  0  0  0  0  0  0  0  0  0  0  0
  142.8097  137.2954  153.2192 C   0  0  0  0  0  0  0  0  0  0  0  0
  141.9768  136.1580  153.1699 C   0  0  0  0  0  0  0  0  0  0  0  0
  142.5109  134.9232  152.7545 C   0  0  0  0  0  0  0  0  0  0  0  0
  143.8774  134.8391  152.3956 C   0  0  0  0  0  0  0  0  0  0  0  0
  144.4818  133.6382  151.9640 N   0  0  0  0  0  0  0  0  0  0  0  0
  143.7979  132.9282  150.8857 C   0  0  0  0  0  0  0  0  0  0  0  0
  144.3553  131.5007  150.7463 C   0  0  0  0  0  0  0  0  0  0  0  0
  145.7678  131.5485  150.5730 O   0  0  0  0  0  0  0  0  0  0  0  0
  146.4177  132.1414  151.6922 C   0  0  0  0  0  0  0  0  0  0  0  0
  145.9376  133.5931  151.8616 C   0  0  0  0  0  0  0  0  0  0  0  0
  144.6273  136.0351  152.4770 C   0  0  0  0  0  0  0  0  0  0  0  0
  144.1167  137.2197  152.8727 N   0  0  0  0  0  0  0  0  0  0  0  0
  139.6339  140.5824  153.6136 C   0  0  0  0  0  0  0  0  0  0  0  0
  139.1468  142.0161  153.9039 C   0  0  0  0  0  0  0  0  0  0  0  0
  138.4091  139.6590  153.4460 C   0  0  0  0  0  0  0  0  0  0  0  0
  144.2979  141.9182  155.3847 H   0  0  0  0  0  0  0  0  0  0  0  0
  143.6029  143.3284  156.1922 H   0  0  0  0  0  0  0  0  0  0  0  0
  143.4078  143.1276  154.4476 H   0  0  0  0  0  0  0  0  0  0  0  0
  142.4468  140.8191  153.8942 H   0  0  0  0  0  0  0  0  0  0  0  0
  140.1583  140.1246  155.6783 H   0  0  0  0  0  0  0  0  0  0  0  0
  142.6203  139.3485  153.3567 H   0  0  0  0  0  0  0  0  0  0  0  0
  140.9349  136.2250  153.4479 H   0  0  0  0  0  0  0  0  0  0  0  0
  141.8613  134.0615  152.7281 H   0  0  0  0  0  0  0  0  0  0  0  0
  142.7231  132.8741  151.0536 H   0  0  0  0  0  0  0  0  0  0  0  0
  143.9457  133.4772  149.9549 H   0  0  0  0  0  0  0  0  0  0  0  0
  144.1061  130.8989  151.6218 H   0  0  0  0  0  0  0  0  0  0  0  0
  143.9082  131.0067  149.8837 H   0  0  0  0  0  0  0  0  0  0  0  0
  146.2189  131.5585  152.5932 H   0  0  0  0  0  0  0  0  0  0  0  0
  147.4954  132.1193  151.5304 H   0  0  0  0  0  0  0  0  0  0  0  0
  146.2590  134.1928  151.0089 H   0  0  0  0  0  0  0  0  0  0  0  0
  146.3925  134.0197  152.7562 H   0  0  0  0  0  0  0  0  0  0  0  0
  145.6701  136.0595  152.1977 H   0  0  0  0  0  0  0  0  0  0  0  0
  140.1496  140.6116  152.6520 H   0  0  0  0  0  0  0  0  0  0  0  0
  138.6512  142.0759  154.8733 H   0  0  0  0  0  0  0  0  0  0  0  0
  138.4355  142.3498  153.1478 H   0  0  0  0  0  0  0  0  0  0  0  0
  139.9662  142.7348  153.9040 H   0  0  0  0  0  0  0  0  0  0  0  0
  137.8739  139.5389  154.3884 H   0  0  0  0  0  0  0  0  0  0  0  0
  138.6871  138.6665  153.0910 H   0  0  0  0  0  0  0  0  0  0  0  0
  137.7075  140.0670  152.7181 H   0  0  0  0  0  0  0  0  0  0  0  0
  1  2  1  0  0  0  0
  1 24  1  0  0  0  0
  1 25  1  0  0  0  0
  1 26  1  0  0  0  0
  2  3  2  0  0  0  0
  2  4  1  0  0  0  0
  4  5  1  0  0  0  0
  4 27  1  0  0  0  0
  5  6  1  0  0  0  0
  5 21  1  0  0  0  0
  5 28  1  0  0  0  0
  6  7  2  0  0  0  0
  6  8  1  0  0  0  0
  8  9  1  0  0  0  0
  8 29  1  0  0  0  0
  9 20  1  0  0  0  0
  9 10  2  0  0  0  0
 10 11  1  0  0  0  0
 10 30  1  0  0  0  0
 11 12  2  0  0  0  0
 11 31  1  0  0  0  0
 12 13  1  0  0  0  0
 12 19  1  0  0  0  0
 13 18  1  0  0  0  0
 13 14  1  0  0  0  0
 14 15  1  0  0  0  0
 14 32  1  0  0  0  0
 14 33  1  0  0  0  0
 15 16  1  0  0  0  0
 15 34  1  0  0  0  0
 15 35  1  0  0  0  0
 16 17  1  0  0  0  0
 17 18  1  0  0  0  0
 17 36  1  0  0  0  0
 17 37  1  0  0  0  0
 18 38  1  0  0  0  0
 18 39  1  0  0  0  0
 19 20  2  0  0  0  0
 19 40  1  0  0  0  0
 21 22  1  0  0  0  0
 21 23  1  0  0  0  0
 21 41  1  0  0  0  0
 22 42  1  0  0  0  0
 22 43  1  0  0  0  0
 22 44  1  0  0  0  0
 23 45  1  0  0  0  0
 23 46  1  0  0  0  0
 23 47  1  0  0  0  0
M  END
> <s_m_source_file>
AV-unprocessed.smi

> <i_m_source_file_index>
1446

> <i_lp_mmshare_version>
43012

> <i_f3d_flags>
0

> <s_epik_input>
W0NIM11DKD1PKVtOSF1bQ0BASF0oW0NIXShbQ0gzXSlbQ0gzXSlDKD1PKVtOSF1jMVtjSF1bY0hdYyhbY0hdbjEpTjJbQ0gyXVtDSDJdT1tDSDJdW0NIMl0y

> <s_epik_cmdline>
J2VwaWtfcHl0aG9uJywgJy1waCcsICc3LjAnLCAnLXRuJywgJzgnLCAnLW1hJywgJzIwMCcsICctbWV0YWxfYmluZGluZycsICctaW1hZScsICc8aW5maWxlLm1hZT4nLCAnLW9tYWUnLCAnPG91dGZpbGUubWFlPic=

> <r_lp_tautomer_probability>
1

> <r_epik_Ionization_Penalty>
0.00298315

> <r_epik_Ionization_Penalty_Charging>
0

> <r_epik_Ionization_Penalty_Neutral>
0.00298315

> <r_epik_State_Penalty>
0.0038483

> <r_epik_Charging_Adjusted_Penalty>
0.0038483

> <i_epik_Tot_Q>
0

> <i_epik_Tot_abs_Q>
0

> <r_epik_Metal_State_Penalty>
-0

> <b_epik_Metal_Only>
0

> <s_lp_Force_Field>
OPLS_2005

> <r_lp_Energy>
27.9322

> <b_lp_Chiralities_Consistent>
1

> <s_lp_Variant>
AV-unprocessed.smi:1446-1

> <Gold.Version>
5.8.1

> <Gold.Id.Protein>
6NUR|6NUR_protein|mol2

> <Gold.PLP.Fitness>
35.4447

> <Gold.PLP.PLP>
-31.4181

> <Gold.PLP.part.hbond>
-2.8698

> <Gold.PLP.part.metal>
0.0000

> <Gold.PLP.part.buried>
-4.8979

> <Gold.PLP.part.nonpolar>
-24.4263

> <Gold.PLP.part.repulsive>
0.4388

> <Gold.PLP.ligand.clash>
0.0000

> <Gold.PLP.ligand.torsion>
1.1844

> <Gold.PLP.Chemscore.Hbond>
2.0000

> <Gold.PLP.Chemscore.CHOScore>
0.0000

> <Gold.PLP.Chemscore.Metal>
0.0000

> <Gold.Chemscore.Hbonds>
donor molecule, donor type, donor heavy atom, donor atom, acceptor molecule, acceptor atom, score
      L1  H     4    27       P1 10175  0.95
      L1  H     8    29       P1 10175  1.00

> <Gold.PLP.Chemscore.Internal.Correction>
0.3954

> <Gold.Rescore>
     Score         DG    S(hbond)    S(metal)    S(lipo)     H(rot)  DE(clash)    DE(int)     intcor
     12.33     -15.14       1.74        0.00      71.07       1.74       0.06       2.75       ----

> <Gold.Chemscore.Fitness>
12.3333

> <Gold.Chemscore.DG>
-15.1391

> <Gold.Chemscore.ZeroCoef>
-5.4800

> <Gold.Chemscore.Hbond>
1.7354

> <Gold.Chemscore.Metal>
0.0000

> <Gold.Chemscore.Lipo>
71.0742

> <Gold.Chemscore.Internal_Hbond>
0.0000

> <Gold.Chemscore.DEClash>
0.0590

> <Gold.Chemscore.DEInternal>
2.7467

> <Gold.Chemscore.Rot>
1.7394

> <Gold.Chemscore.Internal.Correction>
   9.000000E+99

> <Gold.Chemscore.Hbonds>
donor molecule, donor type, donor heavy atom, donor atom, acceptor molecule, acceptor atom, score
      L1  H     4    27       P1 10175  0.22
      L1  H     8    29       P1 10175  1.00

> <Gold.Chemscore.Hbond.Weighted>
-5.7962

> <Gold.Chemscore.Metal.Weighted>
-0.0000

> <Gold.Chemscore.Lipo.Weighted>
-8.3157

> <Gold.Chemscore.Internal_Hbond.Weighted>
0.0000

> <Gold.Chemscore.DEClash.Weighted>
0.0590

> <Gold.Chemscore.DEInternal.Weighted>
2.7467

> <Gold.Chemscore.Rot.Weighted>
4.4528

> <Gold.Chemscore.Internal.Correction.Weighted>
   9.000000E+99

> <Gold.Protein.RotatedTorsions>
[ 6907 6896 6895 6894 ] final   49.72 input  -60.11 | X-H torsion
[ 7974 7965 7964 7962 ] final   15.70 input  175.53 | X-H torsion
[ 8008 7997 7996 7995 ] final  159.44 input   59.86 | X-H torsion
[ 10167 10162 10161 10158 ] final -126.48 input  -65.29 | X-H torsion
[ 10718 10713 10712 10709 ] final  -54.40 input   66.30 | X-H torsion
[ 10763 10752 10751 10750 ] final    5.17 input  -60.55 | X-H torsion
[ 11005 11000 10999 10996 ] final   18.13 input  -57.11 | X-H torsion

> <Gold.Protein.ActiveResidues>
 VAL166  LYS551  ARG553  GLY616  TRP617  ASP618  TYR619  PRO620  LYS621  CYS622 
 ASP623  PHE694  ASN695  SER759  ASP760  ASP761  ALA762  ILE779  LEU786  VAL792 
 PHE793  MET794  SER795  GLU796  ALA797  LYS798  CYS799  TRP800  GLU811  SER814 

> <Gold.Protein.RotatedAtoms>
  152.2939  134.7690  160.0371 H   0  0  0  0  0  0  0  0  0  0  0  0  # atno 6907 bound_to 6896
  151.8226  133.3391  159.3597 H   0  0  0  0  0  0  0  0  0  0  0  0  # atno 6908 bound_to 6896
  150.7242  134.5488  159.5828 H   0  0  0  0  0  0  0  0  0  0  0  0  # atno 6909 bound_to 6896
  146.2271  139.8856  142.8563 H   0  0  0  0  0  0  0  0  0  0  0  0  # atno 7974 bound_to 7965
  156.2238  140.1831  156.7412 H   0  0  0  0  0  0  0  0  0  0  0  0  # atno 8008 bound_to 7997
  154.5908  140.0651  156.9264 H   0  0  0  0  0  0  0  0  0  0  0  0  # atno 8009 bound_to 7997
  155.2339  140.3317  155.4302 H   0  0  0  0  0  0  0  0  0  0  0  0  # atno 8010 bound_to 7997
  139.9710  143.5845  152.2412 H   0  0  0  0  0  0  0  0  0  0  0  0  # atno 10167 bound_to 10162
  156.1454  130.4153  150.0033 H   0  0  0  0  0  0  0  0  0  0  0  0  # atno 10718 bound_to 10713
  153.2625  135.6924  153.7563 H   0  0  0  0  0  0  0  0  0  0  0  0  # atno 10763 bound_to 10752
  153.6617  135.3359  155.3130 H   0  0  0  0  0  0  0  0  0  0  0  0  # atno 10764 bound_to 10752
  154.8435  135.4479  154.1620 H   0  0  0  0  0  0  0  0  0  0  0  0  # atno 10765 bound_to 10752
  140.4282  134.1448  155.7678 H   0  0  0  0  0  0  0  0  0  0  0  0  # atno 11005 bound_to 11000
  145.2469  141.0030  143.3903 LP  0  0  0  0  0  0  0  0  0  0  0  0  # atno 17320 bound_to 7965
  144.9406  139.4193  143.6451 LP  0  0  0  0  0  0  0  0  0  0  0  0  # atno 17321 bound_to 7965
  139.6481  144.7659  151.2203 LP  0  0  0  0  0  0  0  0  0  0  0  0  # atno 17342 bound_to 10162
  140.7522  143.6206  150.8517 LP  0  0  0  0  0  0  0  0  0  0  0  0  # atno 17343 bound_to 10162
  156.7907  130.9255  151.3646 LP  0  0  0  0  0  0  0  0  0  0  0  0  # atno 17370 bound_to 10713
  157.6612  130.8967  149.9833 LP  0  0  0  0  0  0  0  0  0  0  0  0  # atno 17371 bound_to 10713
  141.1756  133.8520  157.1430 LP  0  0  0  0  0  0  0  0  0  0  0  0  # atno 17394 bound_to 11000
  140.0153  134.9970  157.0479 LP  0  0  0  0  0  0  0  0  0  0  0  0  # atno 17395 bound_to 11000

$$$$
