AV-unprocessed.smi:812|AV-procd|sdf|3816|dock9
  -GOLD-   22720 1253D 1   1.00000     0.00000
 Structure written by MMmdl.
 38 40  0  0  0  0  0  0  0  0  1 V2000
  155.7183  139.2321  161.0399 C   0  0  0  0  0  0  0  0  0  0  0  0
  154.6666  140.2661  161.0306 N   0  0  0  0  0  0  0  0  0  0  0  0
  153.8345  140.3367  159.9442 C   0  0  0  0  0  0  0  0  0  0  0  0
  153.8967  139.5955  158.9626 O   0  0  0  0  0  0  0  0  0  0  0  0
  152.8274  141.4003  160.0348 C   0  0  0  0  0  0  0  0  0  0  0  0
  152.7329  142.2387  161.0963 C   0  0  0  0  0  0  0  0  0  0  0  0
  151.7014  143.1555  160.9244 N   0  0  0  0  0  0  0  0  0  0  0  0
  151.2161  142.8105  159.7315 C   0  0  0  0  0  0  0  0  0  0  0  0
  151.8322  141.7727  159.1308 N   0  0  0  0  0  0  0  0  0  0  0  0
  151.4939  141.2143  157.8296 C   0  0  0  0  0  0  0  0  0  0  0  0
  150.2705  141.8994  157.1864 C   0  0  1  0  0  0  0  0  0  0  0  0
  150.6492  143.1181  156.5762 O   0  0  0  0  0  0  0  0  0  0  0  0
  149.5678  140.9699  156.2099 C   0  0  0  0  0  0  0  0  0  0  0  0
  150.1375  139.7216  155.8750 C   0  0  0  0  0  0  0  0  0  0  0  0
  149.4828  138.8615  154.9723 C   0  0  0  0  0  0  0  0  0  0  0  0
  148.2538  139.2432  154.4009 C   0  0  0  0  0  0  0  0  0  0  0  0
  147.6241  138.4161  153.5334 F   0  0  0  0  0  0  0  0  0  0  0  0
  147.6795  140.4851  154.7337 C   0  0  0  0  0  0  0  0  0  0  0  0
  148.3338  141.3458  155.6367 C   0  0  0  0  0  0  0  0  0  0  0  0
  153.6479  142.0778  162.1688 N   0  0  0  0  0  0  0  0  0  0  0  0
  153.5615  142.9777  163.3222 C   0  0  0  0  0  0  0  0  0  0  0  0
  154.6106  141.1003  162.1338 C   0  0  0  0  0  0  0  0  0  0  0  0
  155.4063  140.9762  163.0696 O   0  0  0  0  0  0  0  0  0  0  0  0
  155.7014  138.5523  160.1875 H   0  0  0  0  0  0  0  0  0  0  0  0
  155.6344  138.6065  161.9304 H   0  0  0  0  0  0  0  0  0  0  0  0
  156.7049  139.6980  161.0496 H   0  0  0  0  0  0  0  0  0  0  0  0
  150.3861  143.3320  159.2777 H   0  0  0  0  0  0  0  0  0  0  0  0
  152.3635  141.2651  157.1760 H   0  0  0  0  0  0  0  0  0  0  0  0
  151.2877  140.1517  157.9645 H   0  0  0  0  0  0  0  0  0  0  0  0
  149.5660  142.1593  157.9778 H   0  0  0  0  0  0  0  0  0  0  0  0
  149.9159  143.7130  156.6141 H   0  0  0  0  0  0  0  0  0  0  0  0
  151.0789  139.4200  156.3111 H   0  0  0  0  0  0  0  0  0  0  0  0
  149.9236  137.9086  154.7192 H   0  0  0  0  0  0  0  0  0  0  0  0
  146.7362  140.7778  154.2966 H   0  0  0  0  0  0  0  0  0  0  0  0
  147.8836  142.2954  155.8862 H   0  0  0  0  0  0  0  0  0  0  0  0
  153.3992  142.4111  164.2403 H   0  0  0  0  0  0  0  0  0  0  0  0
  152.7466  143.6961  163.2381 H   0  0  0  0  0  0  0  0  0  0  0  0
  154.4855  143.5467  163.4319 H   0  0  0  0  0  0  0  0  0  0  0  0
  1  2  1  0  0  0  0
  1 24  1  0  0  0  0
  1 25  1  0  0  0  0
  1 26  1  0  0  0  0
  2 22  1  0  0  0  0
  2  3  1  0  0  0  0
  3  4  2  0  0  0  0
  3  5  1  0  0  0  0
  5  9  1  0  0  0  0
  5  6  2  0  0  0  0
  6  7  1  0  0  0  0
  6 20  1  0  0  0  0
  7  8  2  0  0  0  0
  8  9  1  0  0  0  0
  8 27  1  0  0  0  0
  9 10  1  0  0  0  0
 10 11  1  0  0  0  0
 10 28  1  0  0  0  0
 10 29  1  0  0  0  0
 11 12  1  0  0  0  0
 11 13  1  0  0  0  0
 11 30  1  0  0  0  0
 12 31  1  0  0  0  0
 13 19  1  0  0  0  0
 13 14  2  0  0  0  0
 14 15  1  0  0  0  0
 14 32  1  0  0  0  0
 15 16  2  0  0  0  0
 15 33  1  0  0  0  0
 16 17  1  0  0  0  0
 16 18  1  0  0  0  0
 18 19  2  0  0  0  0
 18 34  1  0  0  0  0
 19 35  1  0  0  0  0
 20 21  1  0  0  0  0
 20 22  1  0  0  0  0
 21 36  1  0  0  0  0
 21 37  1  0  0  0  0
 21 38  1  0  0  0  0
 22 23  2  0  0  0  0
M  END
> <s_m_source_file>
AV-unprocessed.smi

> <i_m_source_file_index>
812

> <i_lp_mmshare_version>
43012

> <i_f3d_flags>
0

> <s_epik_input>
Tz1jMW4oW0NIM10pYyg9TyluKFtDSDNdKWMoYzEyKW5bY0hdbjJbQ0gyXVtDQEhdKFtPSF0pYzNbY0hdW2NIXWMoRilbY0hdW2NIXTM=

> <s_epik_cmdline>
J2VwaWtfcHl0aG9uJywgJy1waCcsICc3LjAnLCAnLXRuJywgJzgnLCAnLW1hJywgJzIwMCcsICctbWV0YWxfYmluZGluZycsICctaW1hZScsICc8aW5maWxlLm1hZT4nLCAnLW9tYWUnLCAnPG91dGZpbGUubWFlPic=

> <r_lp_tautomer_probability>
1

> <r_epik_Ionization_Penalty>
1.45649e-06

> <r_epik_Ionization_Penalty_Charging>
3.74189e-09

> <r_epik_Ionization_Penalty_Neutral>
1.45275e-06

> <r_epik_State_Penalty>
-0

> <r_epik_Charging_Adjusted_Penalty>
3.74189e-09

> <i_epik_Tot_Q>
0

> <i_epik_Tot_abs_Q>
0

> <r_epik_Metal_State_Penalty>
-0

> <b_epik_Metal_Only>
0

> <s_lp_Force_Field>
OPLS_2005

> <r_lp_Energy>
35.4349

> <b_lp_Chiralities_Consistent>
1

> <s_lp_Variant>
AV-unprocessed.smi:812-2

> <Gold.Version>
5.8.1

> <Gold.Id.Protein>
6NUR|6NUR_protein|mol2

> <Gold.PLP.Fitness>
50.9096

> <Gold.PLP.PLP>
-45.5397

> <Gold.PLP.part.hbond>
-2.9894

> <Gold.PLP.part.metal>
0.0000

> <Gold.PLP.part.buried>
1.9525

> <Gold.PLP.part.nonpolar>
-43.9988

> <Gold.PLP.part.repulsive>
0.0870

> <Gold.PLP.ligand.clash>
0.0000

> <Gold.PLP.ligand.torsion>
0.3155

> <Gold.PLP.Chemscore.Hbond>
1.9920

> <Gold.PLP.Chemscore.CHOScore>
0.0000

> <Gold.PLP.Chemscore.Metal>
0.0000

> <Gold.Chemscore.Hbonds>
donor molecule, donor type, donor heavy atom, donor atom, acceptor molecule, acceptor atom, score
      L1  H    12    31       P1  8028  0.88
      P1  H  7997  8008       L1     4  0.78

> <Gold.PLP.Chemscore.Internal.Correction>
0.0249

> <Gold.Rescore>
     Score         DG    S(hbond)    S(metal)    S(lipo)     H(rot)  DE(clash)    DE(int)     intcor
     13.96     -14.74       1.90        0.00      73.87       2.24       0.20       0.58       ----

> <Gold.Chemscore.Fitness>
13.9611

> <Gold.Chemscore.DG>
-14.7434

> <Gold.Chemscore.ZeroCoef>
-5.4800

> <Gold.Chemscore.Hbond>
1.9010

> <Gold.Chemscore.Metal>
0.0000

> <Gold.Chemscore.Lipo>
73.8700

> <Gold.Chemscore.Internal_Hbond>
0.0000

> <Gold.Chemscore.DEClash>
0.2018

> <Gold.Chemscore.DEInternal>
0.5806

> <Gold.Chemscore.Rot>
2.2377

> <Gold.Chemscore.Internal.Correction>
   9.000000E+99

> <Gold.Chemscore.Hbonds>
donor molecule, donor type, donor heavy atom, donor atom, acceptor molecule, acceptor atom, score
      L1  H    12    31       P1  8028  0.86
      P1  H  7997  8008       L1     4  0.76

> <Gold.Chemscore.Hbond.Weighted>
-6.3493

> <Gold.Chemscore.Metal.Weighted>
-0.0000

> <Gold.Chemscore.Lipo.Weighted>
-8.6428

> <Gold.Chemscore.Internal_Hbond.Weighted>
0.0000

> <Gold.Chemscore.DEClash.Weighted>
0.2018

> <Gold.Chemscore.DEInternal.Weighted>
0.5806

> <Gold.Chemscore.Rot.Weighted>
5.7286

> <Gold.Chemscore.Internal.Correction.Weighted>
   9.000000E+99

> <Gold.Protein.RotatedTorsions>
[ 6907 6896 6895 6894 ] final  132.70 input  -60.11 | X-H torsion
[ 7974 7965 7964 7962 ] final   70.75 input  175.53 | X-H torsion
[ 8008 7997 7996 7995 ] final  -84.92 input   59.86 | X-H torsion
[ 10167 10162 10161 10158 ] final   38.98 input  -65.29 | X-H torsion
[ 10718 10713 10712 10709 ] final  -33.85 input   66.30 | X-H torsion
[ 10763 10752 10751 10750 ] final  150.26 input  -60.55 | X-H torsion
[ 11005 11000 10999 10996 ] final  151.27 input  -57.11 | X-H torsion

> <Gold.Protein.ActiveResidues>
 VAL166  LYS551  ARG553  GLY616  TRP617  ASP618  TYR619  PRO620  LYS621  CYS622 
 ASP623  PHE694  ASN695  SER759  ASP760  ASP761  ALA762  ILE779  LEU786  VAL792 
 PHE793  MET794  SER795  GLU796  ALA797  LYS798  CYS799  TRP800  GLU811  SER814 

> <Gold.Protein.RotatedAtoms>
  152.3296  133.5943  159.5800 H   0  0  0  0  0  0  0  0  0  0  0  0  # atno 6907 bound_to 6896
  150.7416  133.9888  159.3609 H   0  0  0  0  0  0  0  0  0  0  0  0  # atno 6908 bound_to 6896
  151.7764  135.0774  160.0418 H   0  0  0  0  0  0  0  0  0  0  0  0  # atno 6909 bound_to 6896
  145.7743  139.2857  143.1303 H   0  0  0  0  0  0  0  0  0  0  0  0  # atno 7974 bound_to 7965
  154.6350  140.0598  156.9778 H   0  0  0  0  0  0  0  0  0  0  0  0  # atno 8008 bound_to 7997
  155.1605  140.3282  155.4394 H   0  0  0  0  0  0  0  0  0  0  0  0  # atno 8009 bound_to 7997
  156.2502  140.1931  156.6712 H   0  0  0  0  0  0  0  0  0  0  0  0  # atno 8010 bound_to 7997
  140.3884  144.1886  150.6130 H   0  0  0  0  0  0  0  0  0  0  0  0  # atno 10167 bound_to 10162
  156.3576  130.4318  149.7650 H   0  0  0  0  0  0  0  0  0  0  0  0  # atno 10718 bound_to 10713
  154.0845  135.2857  155.3284 H   0  0  0  0  0  0  0  0  0  0  0  0  # atno 10763 bound_to 10752
  154.6661  135.5316  153.8082 H   0  0  0  0  0  0  0  0  0  0  0  0  # atno 10764 bound_to 10752
  153.0436  135.6546  154.1018 H   0  0  0  0  0  0  0  0  0  0  0  0  # atno 10765 bound_to 10752
  140.1204  134.8867  157.2064 H   0  0  0  0  0  0  0  0  0  0  0  0  # atno 11005 bound_to 11000
  146.0139  140.8410  142.9957 LP  0  0  0  0  0  0  0  0  0  0  0  0  # atno 17320 bound_to 7965
  144.6807  140.2529  143.7329 LP  0  0  0  0  0  0  0  0  0  0  0  0  # atno 17321 bound_to 7965
  140.4865  143.2361  151.8880 LP  0  0  0  0  0  0  0  0  0  0  0  0  # atno 17342 bound_to 10162
  139.4790  144.5212  151.8798 LP  0  0  0  0  0  0  0  0  0  0  0  0  # atno 17343 bound_to 10162
  156.4827  130.8048  151.3062 LP  0  0  0  0  0  0  0  0  0  0  0  0  # atno 17370 bound_to 10713
  157.7469  131.0001  150.2912 LP  0  0  0  0  0  0  0  0  0  0  0  0  # atno 17371 bound_to 10713
  140.2973  134.3172  155.7299 LP  0  0  0  0  0  0  0  0  0  0  0  0  # atno 17394 bound_to 11000
  141.2150  133.7570  156.9590 LP  0  0  0  0  0  0  0  0  0  0  0  0  # atno 17395 bound_to 11000

$$$$
