AV-unprocessed.smi:50|AV-procd|sdf|495|dock7
  -GOLD-   2262016363D 1   1.00000     0.00000
 Structure written by MMmdl.
 43 44  0  0  0  0  0  0  0  0  3 V2000
  145.9650  133.2538  150.7758 C   0  0  0  0  0  0  0  0  0  0  0  0
  144.4523  133.4716  150.5822 C   0  0  0  0  0  0  0  0  0  0  0  0
  144.0136  132.8252  149.2537 C   0  0  0  0  0  0  0  0  0  0  0  0
  144.0790  134.9757  150.6975 C   0  0  2  0  0  0  0  0  0  0  0  0
  144.9523  135.8054  149.8447 N   0  3  0  0  0  0  0  0  0  0  0  0
  144.1835  135.5416  152.1269 C   0  0  0  0  0  0  0  0  0  0  0  0
  143.2773  135.5040  152.9619 O   0  0  0  0  0  0  0  0  0  0  0  0
  145.3994  136.0848  152.3257 O   0  0  0  0  0  0  0  0  0  0  0  0
  145.9185  136.2549  153.6384 C   0  0  0  0  0  0  0  0  0  0  0  0
  145.8695  137.7347  154.0369 C   0  0  0  0  0  0  0  0  0  0  0  0
  147.1161  138.1191  154.6015 O   0  0  0  0  0  0  0  0  0  0  0  0
  147.5132  139.4225  154.3164 C   0  0  0  0  0  0  0  0  0  0  0  0
  148.9453  139.5202  154.5404 N   0  0  0  0  0  0  0  0  0  0  0  0
  149.6651  140.6560  154.6246 C   0  0  0  0  0  0  0  0  0  0  0  0
  150.9655  140.4936  154.8628 N   0  0  0  0  0  0  0  0  0  0  0  0
  151.0782  139.1102  154.9238 C   0  0  0  0  0  0  0  0  0  0  0  0
  152.2381  138.2309  155.2058 C   0  0  0  0  0  0  0  0  0  0  0  0
  153.3403  138.7398  155.3981 O   0  0  0  0  0  0  0  0  0  0  0  0
  151.9611  136.8938  155.2598 N   0  5  0  0  0  0  0  0  0  0  0  0
  150.6625  136.4269  155.0149 C   0  0  0  0  0  0  0  0  0  0  0  0
  150.5668  135.0541  155.0766 N   0  0  0  0  0  0  0  0  0  0  0  0
  149.5980  137.1432  154.7491 N   0  0  0  0  0  0  0  0  0  0  0  0
  149.8694  138.4981  154.7310 C   0  0  0  0  0  0  0  0  0  0  0  0
  143.0566  135.1126  150.3428 H   0  0  0  0  0  0  0  0  0  0  0  0
  146.5398  133.7967  150.0245 H   0  0  0  0  0  0  0  0  0  0  0  0
  146.2248  132.1981  150.6909 H   0  0  0  0  0  0  0  0  0  0  0  0
  146.3036  133.5851  151.7576 H   0  0  0  0  0  0  0  0  0  0  0  0
  143.9434  132.9334  151.3836 H   0  0  0  0  0  0  0  0  0  0  0  0
  144.4139  133.3707  148.3982 H   0  0  0  0  0  0  0  0  0  0  0  0
  142.9286  132.7920  149.1549 H   0  0  0  0  0  0  0  0  0  0  0  0
  144.3644  131.7950  149.1823 H   0  0  0  0  0  0  0  0  0  0  0  0
  145.1200  135.3232  148.9725 H   0  0  0  0  0  0  0  0  0  0  0  0
  145.8328  135.9615  150.3140 H   0  0  0  0  0  0  0  0  0  0  0  0
  145.2745  135.6865  154.3093 H   0  0  0  0  0  0  0  0  0  0  0  0
  146.9225  135.8429  153.7496 H   0  0  0  0  0  0  0  0  0  0  0  0
  145.5766  138.3347  153.1759 H   0  0  0  0  0  0  0  0  0  0  0  0
  145.1032  137.8906  154.7965 H   0  0  0  0  0  0  0  0  0  0  0  0
  147.2672  139.7389  153.3011 H   0  0  0  0  0  0  0  0  0  0  0  0
  147.0142  140.0940  155.0157 H   0  0  0  0  0  0  0  0  0  0  0  0
  149.2179  141.6337  154.5209 H   0  0  0  0  0  0  0  0  0  0  0  0
  151.3490  134.4484  155.2770 H   0  0  0  0  0  0  0  0  0  0  0  0
  149.6972  134.5557  154.9555 H   0  0  0  0  0  0  0  0  0  0  0  0
  144.5017  136.6892  149.6573 H   0  0  0  0  0  0  0  0  0  0  0  0
  1  2  1  0  0  0  0
  1 25  1  0  0  0  0
  1 26  1  0  0  0  0
  1 27  1  0  0  0  0
  2  3  1  0  0  0  0
  2  4  1  0  0  0  0
  2 28  1  0  0  0  0
  3 29  1  0  0  0  0
  3 30  1  0  0  0  0
  3 31  1  0  0  0  0
  4 24  1  0  0  0  0
  4  5  1  0  0  0  0
  4  6  1  0  0  0  0
  5 32  1  0  0  0  0
  5 33  1  0  0  0  0
  5 43  1  0  0  0  0
  6  7  2  0  0  0  0
  6  8  1  0  0  0  0
  8  9  1  0  0  0  0
  9 10  1  0  0  0  0
  9 34  1  0  0  0  0
  9 35  1  0  0  0  0
 10 11  1  0  0  0  0
 10 36  1  0  0  0  0
 10 37  1  0  0  0  0
 11 12  1  0  0  0  0
 12 13  1  0  0  0  0
 12 38  1  0  0  0  0
 12 39  1  0  0  0  0
 13 23  1  0  0  0  0
 13 14  1  0  0  0  0
 14 15  2  0  0  0  0
 14 40  1  0  0  0  0
 15 16  1  0  0  0  0
 16 23  2  0  0  0  0
 16 17  1  0  0  0  0
 17 18  2  0  0  0  0
 17 19  1  0  0  0  0
 19 20  1  0  0  0  0
 20 21  1  0  0  0  0
 20 22  2  0  0  0  0
 21 41  1  0  0  0  0
 21 42  1  0  0  0  0
 22 23  1  0  0  0  0
M  CHG  1   5   1
M  CHG  1  19  -1
M  END
> <s_m_source_file>
AV-unprocessed.smi

> <i_m_source_file_index>
50

> <i_lp_mmshare_version>
43012

> <i_f3d_flags>
0

> <s_epik_input>
W0NIM11bQ0hdKFtDSDNdKVtDQEhdKFtOSDJdKUMoPU8pT1tDSDJdW0NIMl1PW0NIMl1uKFtjSF1uMSljKGMxMiluYyhbTkgyXSlbbkhdYzI9Tw==

> <s_epik_cmdline>
J2VwaWtfcHl0aG9uJywgJy1waCcsICc3LjAnLCAnLXRuJywgJzgnLCAnLW1hJywgJzIwMCcsICctbWV0YWxfYmluZGluZycsICctaW1hZScsICc8aW5maWxlLm1hZT4nLCAnLW9tYWUnLCAnPG91dGZpbGUubWFlPic=

> <r_lp_tautomer_probability>
0.99994

> <r_epik_Ionization_Penalty>
3.77459

> <r_epik_Ionization_Penalty_Charging>
0.215994

> <r_epik_Ionization_Penalty_Neutral>
3.5586

> <r_epik_State_Penalty>
3.75449

> <r_epik_Charging_Adjusted_Penalty>
3.97048

> <i_epik_Tot_Q>
0

> <i_epik_Tot_abs_Q>
2

> <r_epik_Metal_State_Penalty>
0.723824

> <b_epik_Metal_Only>
1

> <s_epik_Chemistry_Notes>
This compound has an ester and may undergo hydrolysis at high or low pH. This compound contains an acetal/aminal-like group ( X-CH(R)-Y where X, Y are N, S, or O) that may be acid/base labile, releasing an aldehyde.

> <s_lp_Force_Field>
OPLS_2005

> <r_lp_Energy>
6.41072

> <b_lp_Chiralities_Consistent>
1

> <s_lp_Variant>
AV-unprocessed.smi:50-5

> <Gold.Version>
5.8.1

> <Gold.Id.Protein>
6NUR|6NUR_protein|mol2

> <Gold.PLP.Fitness>
48.4610

> <Gold.PLP.PLP>
-34.9542

> <Gold.PLP.part.hbond>
-5.0000

> <Gold.PLP.part.metal>
0.0000

> <Gold.PLP.part.buried>
-6.4812

> <Gold.PLP.part.nonpolar>
-25.6500

> <Gold.PLP.part.repulsive>
1.1477

> <Gold.PLP.ligand.clash>
0.0000

> <Gold.PLP.ligand.torsion>
2.3415

> <Gold.PLP.Chemscore.Hbond>
5.9920

> <Gold.PLP.Chemscore.CHOScore>
0.0000

> <Gold.PLP.Chemscore.Metal>
0.0000

> <Gold.Chemscore.Hbonds>
donor molecule, donor type, donor heavy atom, donor atom, acceptor molecule, acceptor atom, score
      L1  H     5    32       P1  7921  1.00
      L1  H     5    43       P1 10171  1.00
      P1  H  7989  7998       L1    15  1.00
      P1  H  7997  8008       L1    18  0.94
      P1  H 10752 10764       L1    19  2.00

> <Gold.PLP.Chemscore.Internal.Correction>
0.2138

> <Gold.Rescore>
     Score         DG    S(hbond)    S(metal)    S(lipo)     H(rot)  DE(clash)    DE(int)     intcor
      7.86     -11.85       4.05        0.00      44.63       4.83       0.07       3.92       ----

> <Gold.Chemscore.Fitness>
7.8568

> <Gold.Chemscore.DG>
-11.8465

> <Gold.Chemscore.ZeroCoef>
-5.4800

> <Gold.Chemscore.Hbond>
4.0456

> <Gold.Chemscore.Metal>
0.0000

> <Gold.Chemscore.Lipo>
44.6337

> <Gold.Chemscore.Internal_Hbond>
0.0000

> <Gold.Chemscore.DEClash>
0.0669

> <Gold.Chemscore.DEInternal>
3.9229

> <Gold.Chemscore.Rot>
4.8312

> <Gold.Chemscore.Internal.Correction>
   9.000000E+99

> <Gold.Chemscore.Hbonds>
donor molecule, donor type, donor heavy atom, donor atom, acceptor molecule, acceptor atom, score
      L1  H     5    32       P1  7921  0.97
      L1  H     5    43       P1 10171  0.98
      P1  H  7989  7998       L1    15  0.18
      P1  H  7997  8008       L1    18  0.91
      P1  H 10752 10764       L1    19  0.43

> <Gold.Chemscore.Hbond.Weighted>
-13.5122

> <Gold.Chemscore.Metal.Weighted>
-0.0000

> <Gold.Chemscore.Lipo.Weighted>
-5.2221

> <Gold.Chemscore.Internal_Hbond.Weighted>
0.0000

> <Gold.Chemscore.DEClash.Weighted>
0.0669

> <Gold.Chemscore.DEInternal.Weighted>
3.9229

> <Gold.Chemscore.Rot.Weighted>
12.3678

> <Gold.Chemscore.Internal.Correction.Weighted>
   9.000000E+99

> <Gold.Protein.RotatedTorsions>
[ 6907 6896 6895 6894 ] final   35.84 input  -60.11 | X-H torsion
[ 7974 7965 7964 7962 ] final   50.86 input  175.53 | X-H torsion
[ 8008 7997 7996 7995 ] final  -34.87 input   59.86 | X-H torsion
[ 10167 10162 10161 10158 ] final  -79.60 input  -65.29 | X-H torsion
[ 10718 10713 10712 10709 ] final  -31.27 input   66.30 | X-H torsion
[ 10763 10752 10751 10750 ] final  -51.82 input  -60.55 | X-H torsion
[ 11005 11000 10999 10996 ] final -173.01 input  -57.11 | X-H torsion

> <Gold.Protein.ActiveResidues>
 VAL166  LYS551  ARG553  GLY616  TRP617  ASP618  TYR619  PRO620  LYS621  CYS622 
 ASP623  PHE694  ASN695  SER759  ASP760  ASP761  ALA762  ILE779  LEU786  VAL792 
 PHE793  MET794  SER795  GLU796  ALA797  LYS798  CYS799  TRP800  GLU811  SER814 

> <Gold.Protein.RotatedAtoms>
  152.1217  134.9201  160.0562 H   0  0  0  0  0  0  0  0  0  0  0  0  # atno 6907 bound_to 6896
  152.0339  133.3944  159.4317 H   0  0  0  0  0  0  0  0  0  0  0  0  # atno 6908 bound_to 6896
  150.6849  134.3411  159.4912 H   0  0  0  0  0  0  0  0  0  0  0  0  # atno 6909 bound_to 6896
  145.9971  139.4399  143.0038 H   0  0  0  0  0  0  0  0  0  0  0  0  # atno 7974 bound_to 7965
  154.4109  140.1672  156.2120 H   0  0  0  0  0  0  0  0  0  0  0  0  # atno 8008 bound_to 7997
  155.9436  140.3406  155.6325 H   0  0  0  0  0  0  0  0  0  0  0  0  # atno 8009 bound_to 7997
  155.6958  140.0739  157.2420 H   0  0  0  0  0  0  0  0  0  0  0  0  # atno 8010 bound_to 7997
  140.4578  143.2463  151.8393 H   0  0  0  0  0  0  0  0  0  0  0  0  # atno 10167 bound_to 10162
  156.3894  130.4370  149.7407 H   0  0  0  0  0  0  0  0  0  0  0  0  # atno 10718 bound_to 10713
  154.1328  135.6517  153.4925 H   0  0  0  0  0  0  0  0  0  0  0  0  # atno 10763 bound_to 10752
  153.0190  135.5297  154.6983 H   0  0  0  0  0  0  0  0  0  0  0  0  # atno 10764 bound_to 10752
  154.6223  135.2966  155.0282 H   0  0  0  0  0  0  0  0  0  0  0  0  # atno 10765 bound_to 10752
  140.4906  134.5988  157.4953 H   0  0  0  0  0  0  0  0  0  0  0  0  # atno 11005 bound_to 11000
  145.7544  140.9960  143.1233 LP  0  0  0  0  0  0  0  0  0  0  0  0  # atno 17320 bound_to 7965
  144.6907  139.9253  143.7469 LP  0  0  0  0  0  0  0  0  0  0  0  0  # atno 17321 bound_to 7965
  139.4803  144.5044  151.9018 LP  0  0  0  0  0  0  0  0  0  0  0  0  # atno 17342 bound_to 10162
  140.4130  144.2344  150.5888 LP  0  0  0  0  0  0  0  0  0  0  0  0  # atno 17343 bound_to 10162
  156.4466  130.7887  151.2908 LP  0  0  0  0  0  0  0  0  0  0  0  0  # atno 17370 bound_to 10713
  157.7498  131.0108  150.3321 LP  0  0  0  0  0  0  0  0  0  0  0  0  # atno 17371 bound_to 10713
  139.9771  134.7197  155.9928 LP  0  0  0  0  0  0  0  0  0  0  0  0  # atno 17394 bound_to 11000
  141.1486  133.6552  156.3943 LP  0  0  0  0  0  0  0  0  0  0  0  0  # atno 17395 bound_to 11000

$$$$
