AV-unprocessed.smi:2325|AV-procd|sdf|9296|dock1
  -GOLD-   2272012513D 1   1.00000     0.00000
 Structure written by MMmdl.
 40 41  0  0  0  0  0  0  0  0  1 V2000
  151.1045  138.2896  154.4407 C   0  0  0  0  0  0  0  0  0  0  0  0
  150.1524  139.3831  154.4160 N   0  0  0  0  0  0  0  0  0  0  0  0
  150.4987  140.6190  154.8466 N   0  0  0  0  0  0  0  0  0  0  0  0
  149.3767  141.3170  154.6684 C   0  0  0  0  0  0  0  0  0  0  0  0
  148.3178  140.6267  154.1510 N   0  0  0  0  0  0  0  0  0  0  0  0
  148.8770  139.4278  154.0200 C   0  0  0  0  0  0  0  0  0  0  0  0
  148.2443  138.2585  153.5196 N   0  0  0  0  0  0  0  0  0  0  0  0
  147.0073  137.8112  153.7929 C   0  0  0  0  0  0  0  0  0  0  0  0
  146.1951  138.3729  154.5280 O   0  0  0  0  0  0  0  0  0  0  0  0
  146.7600  136.6561  153.1598 N   0  0  0  0  0  0  0  0  0  0  0  0
  145.5216  135.8870  153.2642 C   0  0  1  0  0  0  0  0  0  0  0  0
  144.9068  135.6374  151.9014 C   0  0  0  0  0  0  0  0  0  0  0  0
  144.0452  134.3903  152.1311 C   0  0  0  0  0  0  0  0  0  0  0  0
  142.6173  134.7504  152.5761 C   0  0  0  0  0  0  0  0  0  0  0  0
  144.0222  133.4651  150.9049 C   0  0  0  0  0  0  0  0  0  0  0  0
  144.6654  133.6948  153.2113 O   0  0  0  0  0  0  0  0  0  0  0  0
  145.7157  134.4542  153.8085 C   0  0  0  0  0  0  0  0  0  0  0  0
  147.0378  133.7844  153.3787 C   0  0  0  0  0  0  0  0  0  0  0  0
  145.5389  134.3785  155.3333 C   0  0  0  0  0  0  0  0  0  0  0  0
  151.1978  137.8613  153.4424 H   0  0  0  0  0  0  0  0  0  0  0  0
  150.7576  137.5184  155.1285 H   0  0  0  0  0  0  0  0  0  0  0  0
  152.0846  138.6407  154.7664 H   0  0  0  0  0  0  0  0  0  0  0  0
  149.3191  142.3654  154.9216 H   0  0  0  0  0  0  0  0  0  0  0  0
  148.8001  137.6972  152.8917 H   0  0  0  0  0  0  0  0  0  0  0  0
  147.4856  136.2680  152.5752 H   0  0  0  0  0  0  0  0  0  0  0  0
  144.7909  136.4252  153.8715 H   0  0  0  0  0  0  0  0  0  0  0  0
  144.3376  136.4903  151.5300 H   0  0  0  0  0  0  0  0  0  0  0  0
  145.6909  135.4256  151.1724 H   0  0  0  0  0  0  0  0  0  0  0  0
  142.0888  135.3023  151.7982 H   0  0  0  0  0  0  0  0  0  0  0  0
  142.6214  135.3670  153.4753 H   0  0  0  0  0  0  0  0  0  0  0  0
  142.0374  133.8542  152.7982 H   0  0  0  0  0  0  0  0  0  0  0  0
  143.5801  133.9646  150.0424 H   0  0  0  0  0  0  0  0  0  0  0  0
  143.4409  132.5640  151.1023 H   0  0  0  0  0  0  0  0  0  0  0  0
  145.0290  133.1504  150.6285 H   0  0  0  0  0  0  0  0  0  0  0  0
  147.9016  134.2734  153.8294 H   0  0  0  0  0  0  0  0  0  0  0  0
  147.1675  133.8076  152.2966 H   0  0  0  0  0  0  0  0  0  0  0  0
  147.0612  132.7385  153.6860 H   0  0  0  0  0  0  0  0  0  0  0  0
  146.3183  134.9375  155.8511 H   0  0  0  0  0  0  0  0  0  0  0  0
  145.5844  133.3472  155.6841 H   0  0  0  0  0  0  0  0  0  0  0  0
  144.5760  134.7870  155.6409 H   0  0  0  0  0  0  0  0  0  0  0  0
  1  2  1  0  0  0  0
  1 20  1  0  0  0  0
  1 21  1  0  0  0  0
  1 22  1  0  0  0  0
  2  6  1  0  0  0  0
  2  3  1  0  0  0  0
  3  4  2  0  0  0  0
  4  5  1  0  0  0  0
  4 23  1  0  0  0  0
  5  6  2  0  0  0  0
  6  7  1  0  0  0  0
  7  8  1  0  0  0  0
  7 24  1  0  0  0  0
  8  9  2  0  0  0  0
  8 10  1  0  0  0  0
 10 11  1  0  0  0  0
 10 25  1  0  0  0  0
 11 17  1  0  0  0  0
 11 12  1  0  0  0  0
 11 26  1  0  0  0  0
 12 13  1  0  0  0  0
 12 27  1  0  0  0  0
 12 28  1  0  0  0  0
 13 14  1  0  0  0  0
 13 15  1  0  0  0  0
 13 16  1  0  0  0  0
 14 29  1  0  0  0  0
 14 30  1  0  0  0  0
 14 31  1  0  0  0  0
 15 32  1  0  0  0  0
 15 33  1  0  0  0  0
 15 34  1  0  0  0  0
 16 17  1  0  0  0  0
 17 18  1  0  0  0  0
 17 19  1  0  0  0  0
 18 35  1  0  0  0  0
 18 36  1  0  0  0  0
 18 37  1  0  0  0  0
 19 38  1  0  0  0  0
 19 39  1  0  0  0  0
 19 40  1  0  0  0  0
M  END
> <s_m_source_file>
AV-unprocessed.smi

> <i_m_source_file_index>
2325

> <i_lp_mmshare_version>
43012

> <i_f3d_flags>
0

> <s_epik_input>
W0NIM11uMW5bY0hdbmMxW05IXUMoPU8pW05IXVtDQEBIXShDKE8yKShbQ0gzXSlbQ0gzXSlbQ0gyXUMyKFtDSDNdKVtDSDNd

> <s_epik_cmdline>
J2VwaWtfcHl0aG9uJywgJy1waCcsICc3LjAnLCAnLXRuJywgJzgnLCAnLW1hJywgJzIwMCcsICctbWV0YWxfYmluZGluZycsICctaW1hZScsICc8aW5maWxlLm1hZT4nLCAnLW9tYWUnLCAnPG91dGZpbGUubWFlPic=

> <r_lp_tautomer_probability>
1

> <r_epik_Ionization_Penalty>
1.97832e-05

> <r_epik_Ionization_Penalty_Charging>
0

> <r_epik_Ionization_Penalty_Neutral>
1.97832e-05

> <r_epik_State_Penalty>
-0

> <r_epik_Charging_Adjusted_Penalty>
0

> <i_epik_Tot_Q>
0

> <i_epik_Tot_abs_Q>
0

> <r_epik_Metal_State_Penalty>
-0

> <b_epik_Metal_Only>
0

> <s_lp_Force_Field>
OPLS_2005

> <r_lp_Energy>
17.1515

> <b_lp_Chiralities_Consistent>
1

> <s_lp_Variant>
AV-unprocessed.smi:2325-2

> <Gold.Version>
5.8.1

> <Gold.Id.Protein>
6NUR|6NUR_protein|mol2

> <Gold.PLP.Fitness>
36.4029

> <Gold.PLP.PLP>
-26.0568

> <Gold.PLP.part.hbond>
-3.2343

> <Gold.PLP.part.metal>
0.0000

> <Gold.PLP.part.buried>
-2.5797

> <Gold.PLP.part.nonpolar>
-20.6445

> <Gold.PLP.part.repulsive>
0.4383

> <Gold.PLP.ligand.clash>
0.0000

> <Gold.PLP.ligand.torsion>
0.3574

> <Gold.PLP.Chemscore.Hbond>
2.6832

> <Gold.PLP.Chemscore.CHOScore>
1.0000

> <Gold.PLP.Chemscore.Metal>
0.0000

> <Gold.Chemscore.Hbonds>
donor molecule, donor type, donor heavy atom, donor atom, acceptor molecule, acceptor atom, score
      L1  H     7    24       P1  7948  1.00
      L1  H    10    25       P1  7948  1.00
      P1  H  7989  7998       L1     3  0.66
      L1  C     4    23       P1  8028  1.00

> <Gold.PLP.Chemscore.Internal.Correction>
0.0112

> <Gold.Rescore>
     Score         DG    S(hbond)    S(metal)    S(lipo)     H(rot)  DE(clash)    DE(int)     intcor
     13.84     -14.18       1.99        0.00      39.56       1.00       0.00       0.34       ----

> <Gold.Chemscore.Fitness>
13.8392

> <Gold.Chemscore.DG>
-14.1830

> <Gold.Chemscore.ZeroCoef>
-5.4800

> <Gold.Chemscore.Hbond>
1.9865

> <Gold.Chemscore.Metal>
0.0000

> <Gold.Chemscore.Lipo>
39.5572

> <Gold.Chemscore.Internal_Hbond>
0.0000

> <Gold.Chemscore.DEClash>
0.0048

> <Gold.Chemscore.DEInternal>
0.3389

> <Gold.Chemscore.Rot>
1.0000

> <Gold.Chemscore.Internal.Correction>
   9.000000E+99

> <Gold.Chemscore.Hbonds>
donor molecule, donor type, donor heavy atom, donor atom, acceptor molecule, acceptor atom, score
      L1  H     7    24       P1  7948  0.94
      L1  H    10    25       P1  7948  0.98
      P1  H  7989  7998       L1     3  0.05

> <Gold.Chemscore.Hbond.Weighted>
-6.6348

> <Gold.Chemscore.Metal.Weighted>
-0.0000

> <Gold.Chemscore.Lipo.Weighted>
-4.6282

> <Gold.Chemscore.Internal_Hbond.Weighted>
0.0000

> <Gold.Chemscore.DEClash.Weighted>
0.0048

> <Gold.Chemscore.DEInternal.Weighted>
0.3389

> <Gold.Chemscore.Rot.Weighted>
2.5600

> <Gold.Chemscore.Internal.Correction.Weighted>
   9.000000E+99

> <Gold.Protein.RotatedTorsions>
[ 6907 6896 6895 6894 ] final  123.55 input  -60.11 | X-H torsion
[ 7974 7965 7964 7962 ] final  151.74 input  175.53 | X-H torsion
[ 8008 7997 7996 7995 ] final  -12.84 input   59.86 | X-H torsion
[ 10167 10162 10161 10158 ] final -123.61 input  -65.29 | X-H torsion
[ 10718 10713 10712 10709 ] final   39.68 input   66.30 | X-H torsion
[ 10763 10752 10751 10750 ] final  114.79 input  -60.55 | X-H torsion
[ 11005 11000 10999 10996 ] final  -68.54 input  -57.11 | X-H torsion

> <Gold.Protein.ActiveResidues>
 VAL166  LYS551  ARG553  GLY616  TRP617  ASP618  TYR619  PRO620  LYS621  CYS622 
 ASP623  PHE694  ASN695  SER759  ASP760  ASP761  ALA762  ILE779  LEU786  VAL792 
 PHE793  MET794  SER795  GLU796  ALA797  LYS798  CYS799  TRP800  GLU811  SER814 

> <Gold.Protein.RotatedAtoms>
  152.4153  133.7027  159.6433 H   0  0  0  0  0  0  0  0  0  0  0  0  # atno 6907 bound_to 6896
  150.8030  133.8552  159.3225 H   0  0  0  0  0  0  0  0  0  0  0  0  # atno 6908 bound_to 6896
  151.6283  135.1027  160.0168 H   0  0  0  0  0  0  0  0  0  0  0  0  # atno 6909 bound_to 6896
  144.8271  139.6577  143.6075 H   0  0  0  0  0  0  0  0  0  0  0  0  # atno 7974 bound_to 7965
  154.5343  140.2265  155.8750 H   0  0  0  0  0  0  0  0  0  0  0  0  # atno 8008 bound_to 7997
  156.1796  140.3103  155.9086 H   0  0  0  0  0  0  0  0  0  0  0  0  # atno 8009 bound_to 7997
  155.3386  140.0449  157.3035 H   0  0  0  0  0  0  0  0  0  0  0  0  # atno 8010 bound_to 7997
  140.0016  143.5535  152.2301 H   0  0  0  0  0  0  0  0  0  0  0  0  # atno 10167 bound_to 10162
  157.3734  130.7713  149.7136 H   0  0  0  0  0  0  0  0  0  0  0  0  # atno 10718 bound_to 10713
  153.5126  135.3615  155.2594 H   0  0  0  0  0  0  0  0  0  0  0  0  # atno 10763 bound_to 10752
  154.8741  135.4026  154.3352 H   0  0  0  0  0  0  0  0  0  0  0  0  # atno 10764 bound_to 10752
  153.4007  135.7075  153.6495 H   0  0  0  0  0  0  0  0  0  0  0  0  # atno 10765 bound_to 10752
  141.1534  133.6743  156.6462 H   0  0  0  0  0  0  0  0  0  0  0  0  # atno 11005 bound_to 11000
  146.2576  139.6337  142.9384 LP  0  0  0  0  0  0  0  0  0  0  0  0  # atno 17320 bound_to 7965
  145.4976  141.0438  143.2558 LP  0  0  0  0  0  0  0  0  0  0  0  0  # atno 17321 bound_to 7965
  139.6268  144.7638  151.2622 LP  0  0  0  0  0  0  0  0  0  0  0  0  # atno 17342 bound_to 10162
  140.7416  143.6550  150.8214 LP  0  0  0  0  0  0  0  0  0  0  0  0  # atno 17343 bound_to 10162
  155.9760  130.4081  150.3809 LP  0  0  0  0  0  0  0  0  0  0  0  0  # atno 17370 bound_to 10713
  157.1903  131.0413  151.2703 LP  0  0  0  0  0  0  0  0  0  0  0  0  # atno 17371 bound_to 10713
  140.3355  134.7893  157.4359 LP  0  0  0  0  0  0  0  0  0  0  0  0  # atno 17394 bound_to 11000
  140.0981  134.5510  155.8379 LP  0  0  0  0  0  0  0  0  0  0  0  0  # atno 17395 bound_to 11000

$$$$
