AV-unprocessed.smi:124|AV-procd|sdf|1148|dock7
  -GOLD-   2262018283D 1   1.00000     0.00000
 Structure written by MMmdl.
 52 56  0  0  0  0  0  0  0  0  1 V2000
  151.6937  139.4060  155.0398 O   0  0  0  0  0  0  0  0  0  0  0  0
  151.6008  139.7215  156.2273 C   0  0  0  0  0  0  0  0  0  0  0  0
  151.9674  138.6939  157.3138 C   0  0  0  0  0  0  0  0  0  0  0  0
  151.0802  137.5365  157.3122 N   0  0  0  0  0  0  0  0  0  0  0  0
  150.1584  137.4176  158.3827 C   0  0  0  0  0  0  0  0  0  0  0  0
  150.0916  138.2557  159.2839 O   0  0  0  0  0  0  0  0  0  0  0  0
  149.3029  136.2378  158.3184 C   0  0  0  0  0  0  0  0  0  0  0  0
  148.4089  136.0115  159.2960 F   0  0  0  0  0  0  0  0  0  0  0  0
  149.3954  135.3640  157.2929 C   0  0  0  0  0  0  0  0  0  0  0  0
  150.2866  135.5208  156.2443 N   0  0  0  0  0  0  0  0  0  0  0  0
  150.3487  134.5238  155.1083 C   0  0  1  0  0  0  0  0  0  0  0  0
  150.7118  133.1335  155.6417 C   0  0  0  0  0  0  0  0  0  0  0  0
  149.3472  132.5069  155.8308 C   0  0  0  0  0  0  0  0  0  0  0  0
  148.5674  133.1120  154.6692 C   0  0  0  0  0  0  0  0  0  0  0  0
  149.0869  134.4300  154.5112 O   0  0  0  0  0  0  0  0  0  0  0  0
  151.1702  136.6222  156.2342 C   0  0  0  0  0  0  0  0  0  0  0  0
  151.9799  136.7731  155.3162 O   0  0  0  0  0  0  0  0  0  0  0  0
  151.1374  141.0235  156.7079 C   0  0  0  0  0  0  0  0  0  0  0  0
  150.0210  141.6725  156.2186 C   0  0  0  0  0  0  0  0  0  0  0  0
  149.0117  141.2823  155.2373 C   0  0  0  0  0  0  0  0  0  0  0  0
  147.9858  142.1814  154.8716 C   0  0  0  0  0  0  0  0  0  0  0  0
  147.0060  141.8070  153.9315 C   0  0  0  0  0  0  0  0  0  0  0  0
  147.0404  140.5255  153.3505 C   0  0  0  0  0  0  0  0  0  0  0  0
  148.0544  139.6191  153.7130 C   0  0  0  0  0  0  0  0  0  0  0  0
  149.0323  139.9959  154.6538 C   0  0  0  0  0  0  0  0  0  0  0  0
  149.8955  142.8957  156.8531 N   0  0  0  0  0  0  0  0  0  0  0  0
  150.9099  143.0849  157.7645 C   0  0  0  0  0  0  0  0  0  0  0  0
  151.2015  144.1509  158.6351 C   0  0  0  0  0  0  0  0  0  0  0  0
  152.3349  144.0783  159.4631 C   0  0  0  0  0  0  0  0  0  0  0  0
  153.1651  142.9439  159.4083 C   0  0  0  0  0  0  0  0  0  0  0  0
  152.8629  141.8815  158.5328 C   0  0  0  0  0  0  0  0  0  0  0  0
  151.7222  141.9138  157.6897 C   0  0  0  0  0  0  0  0  0  0  0  0
  149.1421  143.5398  156.6594 H   0  0  0  0  0  0  0  0  0  0  0  0
  152.9913  138.3436  157.1834 H   0  0  0  0  0  0  0  0  0  0  0  0
  151.9287  139.1308  158.3130 H   0  0  0  0  0  0  0  0  0  0  0  0
  148.7386  134.5071  157.3059 H   0  0  0  0  0  0  0  0  0  0  0  0
  151.0650  134.9241  154.3891 H   0  0  0  0  0  0  0  0  0  0  0  0
  151.2742  132.6023  154.8726 H   0  0  0  0  0  0  0  0  0  0  0  0
  151.3118  133.1782  156.5514 H   0  0  0  0  0  0  0  0  0  0  0  0
  149.3687  131.4171  155.8082 H   0  0  0  0  0  0  0  0  0  0  0  0
  148.9163  132.8215  156.7820 H   0  0  0  0  0  0  0  0  0  0  0  0
  148.7549  132.5507  153.7529 H   0  0  0  0  0  0  0  0  0  0  0  0
  147.4918  133.1245  154.8461 H   0  0  0  0  0  0  0  0  0  0  0  0
  147.9511  143.1685  155.3092 H   0  0  0  0  0  0  0  0  0  0  0  0
  146.2283  142.5040  153.6559 H   0  0  0  0  0  0  0  0  0  0  0  0
  146.2897  140.2378  152.6291 H   0  0  0  0  0  0  0  0  0  0  0  0
  148.0825  138.6343  153.2704 H   0  0  0  0  0  0  0  0  0  0  0  0
  149.8042  139.2909  154.9269 H   0  0  0  0  0  0  0  0  0  0  0  0
  150.5613  145.0203  158.6653 H   0  0  0  0  0  0  0  0  0  0  0  0
  152.5694  144.8910  160.1348 H   0  0  0  0  0  0  0  0  0  0  0  0
  154.0393  142.8869  160.0401 H   0  0  0  0  0  0  0  0  0  0  0  0
  153.5247  141.0303  158.5146 H   0  0  0  0  0  0  0  0  0  0  0  0
  1  2  2  0  0  0  0
  2  3  1  0  0  0  0
  2 18  1  0  0  0  0
  3  4  1  0  0  0  0
  3 34  1  0  0  0  0
  3 35  1  0  0  0  0
  4 16  1  0  0  0  0
  4  5  1  0  0  0  0
  5  6  2  0  0  0  0
  5  7  1  0  0  0  0
  7  8  1  0  0  0  0
  7  9  2  0  0  0  0
  9 10  1  0  0  0  0
  9 36  1  0  0  0  0
 10 11  1  0  0  0  0
 10 16  1  0  0  0  0
 11 15  1  0  0  0  0
 11 12  1  0  0  0  0
 11 37  1  0  0  0  0
 12 13  1  0  0  0  0
 12 38  1  0  0  0  0
 12 39  1  0  0  0  0
 13 14  1  0  0  0  0
 13 40  1  0  0  0  0
 13 41  1  0  0  0  0
 14 15  1  0  0  0  0
 14 42  1  0  0  0  0
 14 43  1  0  0  0  0
 16 17  2  0  0  0  0
 18 32  1  0  0  0  0
 18 19  2  0  0  0  0
 19 20  1  0  0  0  0
 19 26  1  0  0  0  0
 20 25  1  0  0  0  0
 20 21  2  0  0  0  0
 21 22  1  0  0  0  0
 21 44  1  0  0  0  0
 22 23  2  0  0  0  0
 22 45  1  0  0  0  0
 23 24  1  0  0  0  0
 23 46  1  0  0  0  0
 24 25  2  0  0  0  0
 24 47  1  0  0  0  0
 25 48  1  0  0  0  0
 26 33  1  0  0  0  0
 26 27  1  0  0  0  0
 27 32  1  0  0  0  0
 27 28  2  0  0  0  0
 28 29  1  0  0  0  0
 28 49  1  0  0  0  0
 29 30  2  0  0  0  0
 29 50  1  0  0  0  0
 30 31  1  0  0  0  0
 30 51  1  0  0  0  0
 31 32  2  0  0  0  0
 31 52  1  0  0  0  0
M  END
> <s_m_source_file>
AV-unprocessed.smi

> <i_m_source_file_index>
124

> <i_lp_mmshare_version>
43012

> <i_f3d_flags>
0

> <s_epik_input>
W2NIXTFbY0hdW2NIXVtjSF1bY0hdYzEtYyhbbkhdMiljKGMoYzIzKVtjSF1bY0hdW2NIXVtjSF0zKUMoPU8pW0NIMl1uNGMoPU8pYyhGKVtjSF1uKGM0PU8pW0NAQEhdNVtDSDJdW0NIMl1bQ0gyXU81

> <s_epik_cmdline>
J2VwaWtfcHl0aG9uJywgJy1waCcsICc3LjAnLCAnLXRuJywgJzgnLCAnLW1hJywgJzIwMCcsICctbWV0YWxfYmluZGluZycsICctaW1hZScsICc8aW5maWxlLm1hZT4nLCAnLW9tYWUnLCAnPG91dGZpbGUubWFlPic=

> <r_lp_tautomer_probability>
1

> <r_epik_Ionization_Penalty>
1.43207e-08

> <r_epik_Ionization_Penalty_Charging>
5.01743e-09

> <r_epik_Ionization_Penalty_Neutral>
9.30329e-09

> <r_epik_State_Penalty>
-0

> <r_epik_Charging_Adjusted_Penalty>
5.01743e-09

> <i_epik_Tot_Q>
0

> <i_epik_Tot_abs_Q>
0

> <r_epik_Metal_State_Penalty>
-0

> <b_epik_Metal_Only>
0

> <s_epik_Chemistry_Notes>
This compound contains an acetal/aminal-like group ( X-CH(R)-Y where X, Y are N, S, or O) that may be acid/base labile, releasing an aldehyde.

> <s_lp_Force_Field>
OPLS_2005

> <r_lp_Energy>
48.1056

> <b_lp_Chiralities_Consistent>
1

> <s_lp_Variant>
AV-unprocessed.smi:124-2

> <Gold.Version>
5.8.1

> <Gold.Id.Protein>
6NUR|6NUR_protein|mol2

> <Gold.PLP.Fitness>
60.3605

> <Gold.PLP.PLP>
-53.1267

> <Gold.PLP.part.hbond>
-3.4632

> <Gold.PLP.part.metal>
0.0000

> <Gold.PLP.part.buried>
-4.0779

> <Gold.PLP.part.nonpolar>
-45.5153

> <Gold.PLP.part.repulsive>
0.9277

> <Gold.PLP.ligand.clash>
0.0000

> <Gold.PLP.ligand.torsion>
0.9767

> <Gold.PLP.Chemscore.Hbond>
2.5965

> <Gold.PLP.Chemscore.CHOScore>
0.0000

> <Gold.PLP.Chemscore.Metal>
0.0000

> <Gold.Chemscore.Hbonds>
donor molecule, donor type, donor heavy atom, donor atom, acceptor molecule, acceptor atom, score
      L1  H    26    33       P1  8028  0.75
      P1  H  7989  7998       L1     1  0.78
      P1  H 10752 10764       L1    17  1.00

> <Gold.PLP.Chemscore.Internal.Correction>
1.3978

> <Gold.Rescore>
     Score         DG    S(hbond)    S(metal)    S(lipo)     H(rot)  DE(clash)    DE(int)     intcor
     19.48     -24.94       2.13        0.00     139.49       1.55       0.57       4.89       ----

> <Gold.Chemscore.Fitness>
19.4777

> <Gold.Chemscore.DG>
-24.9406

> <Gold.Chemscore.ZeroCoef>
-5.4800

> <Gold.Chemscore.Hbond>
2.1309

> <Gold.Chemscore.Metal>
0.0000

> <Gold.Chemscore.Lipo>
139.4942

> <Gold.Chemscore.Internal_Hbond>
0.0000

> <Gold.Chemscore.DEClash>
0.5712

> <Gold.Chemscore.DEInternal>
4.8917

> <Gold.Chemscore.Rot>
1.5537

> <Gold.Chemscore.Internal.Correction>
   9.000000E+99

> <Gold.Chemscore.Hbonds>
donor molecule, donor type, donor heavy atom, donor atom, acceptor molecule, acceptor atom, score
      L1  H    26    33       P1  8028  0.67
      P1  H  7989  7998       L1     1  0.74
      P1  H 10752 10764       L1    17  0.97

> <Gold.Chemscore.Hbond.Weighted>
-7.1172

> <Gold.Chemscore.Metal.Weighted>
-0.0000

> <Gold.Chemscore.Lipo.Weighted>
-16.3208

> <Gold.Chemscore.Internal_Hbond.Weighted>
0.0000

> <Gold.Chemscore.DEClash.Weighted>
0.5712

> <Gold.Chemscore.DEInternal.Weighted>
4.8917

> <Gold.Chemscore.Rot.Weighted>
3.9774

> <Gold.Chemscore.Internal.Correction.Weighted>
   9.000000E+99

> <Gold.Protein.RotatedTorsions>
[ 6907 6896 6895 6894 ] final  -80.54 input  -60.11 | X-H torsion
[ 7974 7965 7964 7962 ] final  105.75 input  175.53 | X-H torsion
[ 8008 7997 7996 7995 ] final -136.58 input   59.86 | X-H torsion
[ 10167 10162 10161 10158 ] final -147.54 input  -65.29 | X-H torsion
[ 10718 10713 10712 10709 ] final  134.72 input   66.30 | X-H torsion
[ 10763 10752 10751 10750 ] final  -56.39 input  -60.55 | X-H torsion
[ 11005 11000 10999 10996 ] final -155.81 input  -57.11 | X-H torsion

> <Gold.Protein.ActiveResidues>
 VAL166  LYS551  ARG553  GLY616  TRP617  ASP618  TYR619  PRO620  LYS621  CYS622 
 ASP623  PHE694  ASN695  SER759  ASP760  ASP761  ALA762  ILE779  LEU786  VAL792 
 PHE793  MET794  SER795  GLU796  ALA797  LYS798  CYS799  TRP800  GLU811  SER814 

> <Gold.Protein.RotatedAtoms>
  150.6927  134.3954  159.5094 H   0  0  0  0  0  0  0  0  0  0  0  0  # atno 6907 bound_to 6896
  152.1736  134.8811  160.0541 H   0  0  0  0  0  0  0  0  0  0  0  0  # atno 6908 bound_to 6896
  151.9828  133.3728  159.4151 H   0  0  0  0  0  0  0  0  0  0  0  0  # atno 6909 bound_to 6896
  145.3155  139.2527  143.3740 H   0  0  0  0  0  0  0  0  0  0  0  0  # atno 7974 bound_to 7965
  155.3976  140.0504  157.3038 H   0  0  0  0  0  0  0  0  0  0  0  0  # atno 8008 bound_to 7997
  154.5006  140.2155  155.9315 H   0  0  0  0  0  0  0  0  0  0  0  0  # atno 8009 bound_to 7997
  156.1462  140.3145  155.8580 H   0  0  0  0  0  0  0  0  0  0  0  0  # atno 8010 bound_to 7997
  139.7613  143.8373  152.2607 H   0  0  0  0  0  0  0  0  0  0  0  0  # atno 10167 bound_to 10162
  157.4644  131.1076  150.9880 H   0  0  0  0  0  0  0  0  0  0  0  0  # atno 10718 bound_to 10713
  154.2059  135.6403  153.5101 H   0  0  0  0  0  0  0  0  0  0  0  0  # atno 10763 bound_to 10752
  153.0001  135.5462  154.6266 H   0  0  0  0  0  0  0  0  0  0  0  0  # atno 10764 bound_to 10752
  154.5691  135.2915  155.0819 H   0  0  0  0  0  0  0  0  0  0  0  0  # atno 10765 bound_to 10752
  140.6824  134.4130  157.5225 H   0  0  0  0  0  0  0  0  0  0  0  0  # atno 11005 bound_to 11000
  146.3102  140.3701  142.8673 LP  0  0  0  0  0  0  0  0  0  0  0  0  # atno 17320 bound_to 7965
  144.8981  140.7608  143.5884 LP  0  0  0  0  0  0  0  0  0  0  0  0  # atno 17321 bound_to 7965
  139.8380  144.7223  150.9367 LP  0  0  0  0  0  0  0  0  0  0  0  0  # atno 17342 bound_to 10162
  140.7807  143.4009  151.1151 LP  0  0  0  0  0  0  0  0  0  0  0  0  # atno 17343 bound_to 10162
  157.0667  130.5847  149.5395 LP  0  0  0  0  0  0  0  0  0  0  0  0  # atno 17370 bound_to 10713
  156.0043  130.5128  150.7776 LP  0  0  0  0  0  0  0  0  0  0  0  0  # atno 17371 bound_to 10713
  139.8948  134.8698  156.2162 LP  0  0  0  0  0  0  0  0  0  0  0  0  # atno 17394 bound_to 11000
  141.0307  133.6990  156.1425 LP  0  0  0  0  0  0  0  0  0  0  0  0  # atno 17395 bound_to 11000

$$$$
