AV-unprocessed.smi:676|AV-procd|sdf|3310|dock2
  -GOLD-   22720 0273D 1   1.00000     0.00000
 Structure written by MMmdl.
 42 43  0  0  0  0  0  0  0  0  1 V2000
  146.2545  137.5490  152.4881 C   0  0  0  0  0  0  0  0  0  0  0  0
  146.2598  138.5524  153.4952 O   0  0  0  0  0  0  0  0  0  0  0  0
  147.2495  139.5745  153.3661 C   0  0  2  0  0  0  0  0  0  0  0  0
  147.3093  140.0683  151.9121 C   0  0  0  0  0  0  0  0  0  0  0  0
  148.5734  139.1928  154.0537 C   0  0  0  0  0  0  0  0  0  0  0  0
  148.5968  140.6175  154.6024 C   0  0  2  0  0  0  0  0  0  0  0  0
  149.1300  140.6917  155.9581 N   0  0  0  0  0  0  0  0  0  0  0  0
  150.4333  140.6130  156.2622 C   0  0  0  0  0  0  0  0  0  0  0  0
  151.3130  140.4614  155.4128 O   0  0  0  0  0  0  0  0  0  0  0  0
  150.7833  140.7495  157.7508 C   0  0  0  0  0  0  0  0  0  0  0  0
  151.4603  142.0151  158.0794 N   0  0  0  0  0  0  0  0  0  0  0  0
  151.0238  143.1695  157.3988 C   0  0  0  0  0  0  0  0  0  0  0  0
  151.5775  144.3732  157.6151 C   0  0  0  0  0  0  0  0  0  0  0  0
  152.6491  144.4683  158.5780 C   0  0  0  0  0  0  0  0  0  0  0  0
  153.0768  143.3697  159.2317 C   0  0  0  0  0  0  0  0  0  0  0  0
  152.4774  142.0511  158.9949 C   0  0  0  0  0  0  0  0  0  0  0  0
  152.8659  141.0416  159.5833 O   0  0  0  0  0  0  0  0  0  0  0  0
  147.0491  140.6202  154.5111 C   0  0  0  0  0  0  0  0  0  0  0  0
  146.4059  141.9553  154.1227 C   0  0  0  0  0  0  0  0  0  0  0  0
  146.2786  140.1278  155.7531 C   0  0  0  0  0  0  0  0  0  0  0  0
  145.5323  136.7786  152.7577 H   0  0  0  0  0  0  0  0  0  0  0  0
  147.2268  137.0672  152.3852 H   0  0  0  0  0  0  0  0  0  0  0  0
  145.9548  137.9473  151.5190 H   0  0  0  0  0  0  0  0  0  0  0  0
  147.9609  140.9351  151.8041 H   0  0  0  0  0  0  0  0  0  0  0  0
  146.3219  140.3549  151.5498 H   0  0  0  0  0  0  0  0  0  0  0  0
  147.7011  139.3061  151.2391 H   0  0  0  0  0  0  0  0  0  0  0  0
  148.4635  138.4270  154.8240 H   0  0  0  0  0  0  0  0  0  0  0  0
  149.3916  138.9583  153.3720 H   0  0  0  0  0  0  0  0  0  0  0  0
  149.0684  141.3123  153.9036 H   0  0  0  0  0  0  0  0  0  0  0  0
  148.4674  140.8207  156.7089 H   0  0  0  0  0  0  0  0  0  0  0  0
  149.8615  140.6533  158.3264 H   0  0  0  0  0  0  0  0  0  0  0  0
  151.3984  139.9001  158.0535 H   0  0  0  0  0  0  0  0  0  0  0  0
  150.2238  143.0110  156.6900 H   0  0  0  0  0  0  0  0  0  0  0  0
  151.2335  145.2461  157.0800 H   0  0  0  0  0  0  0  0  0  0  0  0
  153.1112  145.4246  158.7744 H   0  0  0  0  0  0  0  0  0  0  0  0
  153.8805  143.4599  159.9479 H   0  0  0  0  0  0  0  0  0  0  0  0
  146.3791  142.6475  154.9649 H   0  0  0  0  0  0  0  0  0  0  0  0
  145.3812  141.8175  153.7768 H   0  0  0  0  0  0  0  0  0  0  0  0
  146.9546  142.4566  153.3256 H   0  0  0  0  0  0  0  0  0  0  0  0
  146.3459  140.8386  156.5774 H   0  0  0  0  0  0  0  0  0  0  0  0
  146.6553  139.1742  156.1235 H   0  0  0  0  0  0  0  0  0  0  0  0
  145.2192  139.9886  155.5351 H   0  0  0  0  0  0  0  0  0  0  0  0
  1  2  1  0  0  0  0
  1 21  1  0  0  0  0
  1 22  1  0  0  0  0
  1 23  1  0  0  0  0
  2  3  1  0  0  0  0
  3 18  1  0  0  0  0
  3  4  1  0  0  0  0
  3  5  1  0  0  0  0
  4 24  1  0  0  0  0
  4 25  1  0  0  0  0
  4 26  1  0  0  0  0
  5  6  1  0  0  0  0
  5 27  1  0  0  0  0
  5 28  1  0  0  0  0
  6  7  1  0  0  0  0
  6 18  1  0  0  0  0
  6 29  1  0  0  0  0
  7  8  1  0  0  0  0
  7 30  1  0  0  0  0
  8  9  2  0  0  0  0
  8 10  1  0  0  0  0
 10 11  1  0  0  0  0
 10 31  1  0  0  0  0
 10 32  1  0  0  0  0
 11 16  1  0  0  0  0
 11 12  1  0  0  0  0
 12 13  2  0  0  0  0
 12 33  1  0  0  0  0
 13 14  1  0  0  0  0
 13 34  1  0  0  0  0
 14 15  2  0  0  0  0
 14 35  1  0  0  0  0
 15 16  1  0  0  0  0
 15 36  1  0  0  0  0
 16 17  2  0  0  0  0
 18 19  1  0  0  0  0
 18 20  1  0  0  0  0
 19 37  1  0  0  0  0
 19 38  1  0  0  0  0
 19 39  1  0  0  0  0
 20 40  1  0  0  0  0
 20 41  1  0  0  0  0
 20 42  1  0  0  0  0
M  END
> <s_m_source_file>
AV-unprocessed.smi

> <i_m_source_file_index>
676

> <i_lp_mmshare_version>
43012

> <i_f3d_flags>
0

> <s_epik_input>
W0NIM11PW0NAQF0xKFtDSDNdKVtDSDJdW0NASF0oQzEoW0NIM10pW0NIM10pW05IXUMoPU8pW0NIMl1uMltjSF1bY0hdW2NIXVtjSF1jMj1P

> <s_epik_cmdline>
J2VwaWtfcHl0aG9uJywgJy1waCcsICc3LjAnLCAnLXRuJywgJzgnLCAnLW1hJywgJzIwMCcsICctbWV0YWxfYmluZGluZycsICctaW1hZScsICc8aW5maWxlLm1hZT4nLCAnLW9tYWUnLCAnPG91dGZpbGUubWFlPic=

> <r_lp_tautomer_probability>
1

> <r_epik_Ionization_Penalty>
4.09771e-07

> <r_epik_Ionization_Penalty_Charging>
3.90712e-07

> <r_epik_Ionization_Penalty_Neutral>
1.90591e-08

> <r_epik_State_Penalty>
-0

> <r_epik_Charging_Adjusted_Penalty>
3.90712e-07

> <i_epik_Tot_Q>
0

> <i_epik_Tot_abs_Q>
0

> <r_epik_Metal_State_Penalty>
-0

> <b_epik_Metal_Only>
0

> <s_lp_Force_Field>
OPLS_2005

> <r_lp_Energy>
31.4384

> <b_lp_Chiralities_Consistent>
1

> <s_lp_Variant>
AV-unprocessed.smi:676-4

> <Gold.Version>
5.8.1

> <Gold.Id.Protein>
6NUR|6NUR_protein|mol2

> <Gold.PLP.Fitness>
42.1782

> <Gold.PLP.PLP>
-37.6324

> <Gold.PLP.part.hbond>
-1.0000

> <Gold.PLP.part.metal>
0.0000

> <Gold.PLP.part.buried>
-1.2833

> <Gold.PLP.part.nonpolar>
-36.4608

> <Gold.PLP.part.repulsive>
0.2633

> <Gold.PLP.ligand.clash>
0.0000

> <Gold.PLP.ligand.torsion>
0.7555

> <Gold.PLP.Chemscore.Hbond>
0.8960

> <Gold.PLP.Chemscore.CHOScore>
0.9987

> <Gold.PLP.Chemscore.Metal>
0.0000

> <Gold.Chemscore.Hbonds>
donor molecule, donor type, donor heavy atom, donor atom, acceptor molecule, acceptor atom, score
      P1  H  7989  7998       L1     9  0.90
      L1  C    12    33       P1  8028  0.91

> <Gold.PLP.Chemscore.Internal.Correction>
0.3729

> <Gold.Rescore>
     Score         DG    S(hbond)    S(metal)    S(lipo)     H(rot)  DE(clash)    DE(int)     intcor
     14.78     -15.90       0.91        0.00      98.54       1.62       0.46       0.67       ----

> <Gold.Chemscore.Fitness>
14.7803

> <Gold.Chemscore.DG>
-15.9039

> <Gold.Chemscore.ZeroCoef>
-5.4800

> <Gold.Chemscore.Hbond>
0.9090

> <Gold.Chemscore.Metal>
0.0000

> <Gold.Chemscore.Lipo>
98.5351

> <Gold.Chemscore.Internal_Hbond>
0.0000

> <Gold.Chemscore.DEClash>
0.4568

> <Gold.Chemscore.DEInternal>
0.6668

> <Gold.Chemscore.Rot>
1.6175

> <Gold.Chemscore.Internal.Correction>
   9.000000E+99

> <Gold.Chemscore.Hbonds>
donor molecule, donor type, donor heavy atom, donor atom, acceptor molecule, acceptor atom, score
      P1  H  7989  7998       L1     9  0.86

> <Gold.Chemscore.Hbond.Weighted>
-3.0361

> <Gold.Chemscore.Metal.Weighted>
-0.0000

> <Gold.Chemscore.Lipo.Weighted>
-11.5286

> <Gold.Chemscore.Internal_Hbond.Weighted>
0.0000

> <Gold.Chemscore.DEClash.Weighted>
0.4568

> <Gold.Chemscore.DEInternal.Weighted>
0.6668

> <Gold.Chemscore.Rot.Weighted>
4.1408

> <Gold.Chemscore.Internal.Correction.Weighted>
   9.000000E+99

> <Gold.Protein.RotatedTorsions>
[ 6907 6896 6895 6894 ] final  -93.89 input  -60.11 | X-H torsion
[ 7974 7965 7964 7962 ] final -148.51 input  175.53 | X-H torsion
[ 8008 7997 7996 7995 ] final -170.18 input   59.86 | X-H torsion
[ 10167 10162 10161 10158 ] final   82.74 input  -65.29 | X-H torsion
[ 10718 10713 10712 10709 ] final  116.60 input   66.30 | X-H torsion
[ 10763 10752 10751 10750 ] final -118.86 input  -60.55 | X-H torsion
[ 11005 11000 10999 10996 ] final  119.78 input  -57.11 | X-H torsion

> <Gold.Protein.ActiveResidues>
 VAL166  LYS551  ARG553  GLY616  TRP617  ASP618  TYR619  PRO620  LYS621  CYS622 
 ASP623  PHE694  ASN695  SER759  ASP760  ASP761  ALA762  ILE779  LEU786  VAL792 
 PHE793  MET794  SER795  GLU796  ALA797  LYS798  CYS799  TRP800  GLU811  SER814 

> <Gold.Protein.RotatedAtoms>
  150.6931  134.1898  159.4280 H   0  0  0  0  0  0  0  0  0  0  0  0  # atno 6907 bound_to 6896
  151.9869  134.9997  160.0569 H   0  0  0  0  0  0  0  0  0  0  0  0  # atno 6908 bound_to 6896
  152.1704  133.4604  159.4943 H   0  0  0  0  0  0  0  0  0  0  0  0  # atno 6909 bound_to 6896
  144.8025  140.5187  143.5697 H   0  0  0  0  0  0  0  0  0  0  0  0  # atno 7974 bound_to 7965
  155.9149  140.1064  157.1251 H   0  0  0  0  0  0  0  0  0  0  0  0  # atno 8008 bound_to 7997
  154.4045  140.1267  156.4670 H   0  0  0  0  0  0  0  0  0  0  0  0  # atno 8009 bound_to 7997
  155.7266  140.3469  155.5042 H   0  0  0  0  0  0  0  0  0  0  0  0  # atno 8010 bound_to 7997
  139.9256  144.6185  150.8396 H   0  0  0  0  0  0  0  0  0  0  0  0  # atno 10167 bound_to 10162
  157.6150  131.1027  150.7496 H   0  0  0  0  0  0  0  0  0  0  0  0  # atno 10718 bound_to 10713
  154.8600  135.4259  154.2206 H   0  0  0  0  0  0  0  0  0  0  0  0  # atno 10763 bound_to 10752
  153.3212  135.6982  153.7035 H   0  0  0  0  0  0  0  0  0  0  0  0  # atno 10764 bound_to 10752
  153.6089  135.3523  155.2945 H   0  0  0  0  0  0  0  0  0  0  0  0  # atno 10765 bound_to 10752
  139.9160  134.9631  156.7708 H   0  0  0  0  0  0  0  0  0  0  0  0  # atno 11005 bound_to 11000
  145.5519  139.1477  143.3389 LP  0  0  0  0  0  0  0  0  0  0  0  0  # atno 17320 bound_to 7965
  146.2309  140.5656  142.8975 LP  0  0  0  0  0  0  0  0  0  0  0  0  # atno 17321 bound_to 7965
  140.7651  143.3266  151.2502 LP  0  0  0  0  0  0  0  0  0  0  0  0  # atno 17342 bound_to 10162
  139.6825  143.9830  152.2816 LP  0  0  0  0  0  0  0  0  0  0  0  0  # atno 17343 bound_to 10162
  156.7865  130.4876  149.5392 LP  0  0  0  0  0  0  0  0  0  0  0  0  # atno 17370 bound_to 10713
  156.1268  130.6150  151.0276 LP  0  0  0  0  0  0  0  0  0  0  0  0  # atno 17371 bound_to 10713
  140.6623  133.9634  155.7811 LP  0  0  0  0  0  0  0  0  0  0  0  0  # atno 17394 bound_to 11000
  141.0635  134.0311  157.3626 LP  0  0  0  0  0  0  0  0  0  0  0  0  # atno 17395 bound_to 11000

$$$$
