AV-unprocessed.smi:1355|AV-procd|sdf|5538|dock3
  -GOLD-   22720 5133D 1   1.00000     0.00000
 Structure written by MMmdl.
 33 34  0  0  0  0  0  0  0  0  2 V2000
  150.7176  136.9327  155.0117 C   0  0  0  0  0  0  0  0  0  0  0  0
  152.0573  137.3242  155.2514 O   0  0  0  0  0  0  0  0  0  0  0  0
  152.1892  138.7207  155.4616 C   0  0  0  0  0  0  0  0  0  0  0  0
  151.3340  139.1394  156.6655 C   0  0  0  0  0  0  0  0  0  0  0  0
  151.0929  140.5907  156.6975 N   0  0  0  0  0  0  0  0  0  0  0  0
  150.2980  141.3817  155.9165 C   0  0  0  0  0  0  0  0  0  0  0  0
  149.4256  140.9573  154.7746 C   0  0  2  0  0  0  0  0  0  0  0  0
  148.2271  140.1361  155.2702 C   0  0  0  0  0  0  0  0  0  0  0  0
  150.1396  140.1887  153.8298 O   0  0  0  0  0  0  0  0  0  0  0  0
  150.4373  142.6605  156.3697 N   0  3  0  0  0  0  0  0  0  0  0  0
  151.3356  142.6925  157.4354 C   0  0  0  0  0  0  0  0  0  0  0  0
  151.7950  143.7548  158.2076 C   0  0  0  0  0  0  0  0  0  0  0  0
  152.7191  143.4430  159.2262 C   0  0  0  0  0  0  0  0  0  0  0  0
  153.1526  142.1189  159.4435 C   0  0  0  0  0  0  0  0  0  0  0  0
  152.6803  141.0506  158.6530 C   0  0  0  0  0  0  0  0  0  0  0  0
  151.7638  141.3668  157.6500 C   0  0  0  0  0  0  0  0  0  0  0  0
  150.6768  135.8564  154.8436 H   0  0  0  0  0  0  0  0  0  0  0  0
  150.3133  137.4276  154.1278 H   0  0  0  0  0  0  0  0  0  0  0  0
  150.0804  137.1644  155.8663 H   0  0  0  0  0  0  0  0  0  0  0  0
  153.2345  138.9741  155.6440 H   0  0  0  0  0  0  0  0  0  0  0  0
  151.8723  139.2648  154.5705 H   0  0  0  0  0  0  0  0  0  0  0  0
  150.3686  138.6349  156.6369 H   0  0  0  0  0  0  0  0  0  0  0  0
  151.8025  138.8343  157.6013 H   0  0  0  0  0  0  0  0  0  0  0  0
  149.0513  141.8402  154.2582 H   0  0  0  0  0  0  0  0  0  0  0  0
  147.6286  140.7066  155.9808 H   0  0  0  0  0  0  0  0  0  0  0  0
  148.5470  139.2191  155.7668 H   0  0  0  0  0  0  0  0  0  0  0  0
  147.5742  139.8554  154.4432 H   0  0  0  0  0  0  0  0  0  0  0  0
  149.6678  140.2049  153.0109 H   0  0  0  0  0  0  0  0  0  0  0  0
  151.4651  144.7699  158.0407 H   0  0  0  0  0  0  0  0  0  0  0  0
  153.1034  144.2349  159.8525 H   0  0  0  0  0  0  0  0  0  0  0  0
  153.8623  141.9182  160.2329 H   0  0  0  0  0  0  0  0  0  0  0  0
  153.0215  140.0412  158.8281 H   0  0  0  0  0  0  0  0  0  0  0  0
  149.9486  143.4521  155.9719 H   0  0  0  0  0  0  0  0  0  0  0  0
  1  2  1  0  0  0  0
  1 17  1  0  0  0  0
  1 18  1  0  0  0  0
  1 19  1  0  0  0  0
  2  3  1  0  0  0  0
  3  4  1  0  0  0  0
  3 20  1  0  0  0  0
  3 21  1  0  0  0  0
  4  5  1  0  0  0  0
  4 22  1  0  0  0  0
  4 23  1  0  0  0  0
  5 16  1  0  0  0  0
  5  6  1  0  0  0  0
  6  7  1  0  0  0  0
  6 10  2  0  0  0  0
  7  8  1  0  0  0  0
  7  9  1  0  0  0  0
  7 24  1  0  0  0  0
  8 25  1  0  0  0  0
  8 26  1  0  0  0  0
  8 27  1  0  0  0  0
  9 28  1  0  0  0  0
 10 11  1  0  0  0  0
 10 33  1  0  0  0  0
 11 16  2  0  0  0  0
 11 12  1  0  0  0  0
 12 13  2  0  0  0  0
 12 29  1  0  0  0  0
 13 14  1  0  0  0  0
 13 30  1  0  0  0  0
 14 15  2  0  0  0  0
 14 31  1  0  0  0  0
 15 16  1  0  0  0  0
 15 32  1  0  0  0  0
M  CHG  1  10   1
M  END
> <s_m_source_file>
AV-unprocessed.smi

> <i_m_source_file_index>
1355

> <i_lp_mmshare_version>
43012

> <i_f3d_flags>
0

> <s_epik_input>
W0NIM11PW0NIMl1bQ0gyXW4oYyhuMSlbQ0BIXShbQ0gzXSlbT0hdKWMoYzEyKVtjSF1bY0hdW2NIXVtjSF0y

> <s_epik_cmdline>
J2VwaWtfcHl0aG9uJywgJy1waCcsICc3LjAnLCAnLXRuJywgJzgnLCAnLW1hJywgJzIwMCcsICctbWV0YWxfYmluZGluZycsICctaW1hZScsICc8aW5maWxlLm1hZT4nLCAnLW9tYWUnLCAnPG91dGZpbGUubWFlPic=

> <r_epik_Ionization_Penalty>
1.43426

> <r_epik_Ionization_Penalty_Charging>
1.43423

> <r_epik_Ionization_Penalty_Neutral>
2.92192e-05

> <r_epik_State_Penalty>
1.51908

> <r_epik_Charging_Adjusted_Penalty>
2.95331

> <i_epik_Tot_Q>
1

> <i_epik_Tot_abs_Q>
1

> <r_epik_Metal_State_Penalty>
5.5644

> <b_epik_Metal_Only>
0

> <s_lp_Force_Field>
OPLS_2005

> <r_lp_Energy>
10.4801

> <b_lp_Chiralities_Consistent>
1

> <s_lp_Variant>
AV-unprocessed.smi:1355-3

> <Gold.Version>
5.8.1

> <Gold.Id.Protein>
6NUR|6NUR_protein|mol2

> <Gold.PLP.Fitness>
49.0315

> <Gold.PLP.PLP>
-35.8005

> <Gold.PLP.part.hbond>
-3.9592

> <Gold.PLP.part.metal>
0.0000

> <Gold.PLP.part.buried>
-5.1141

> <Gold.PLP.part.nonpolar>
-27.5353

> <Gold.PLP.part.repulsive>
0.1500

> <Gold.PLP.ligand.clash>
0.0000

> <Gold.PLP.ligand.torsion>
0.3620

> <Gold.PLP.Chemscore.Hbond>
4.6428

> <Gold.PLP.Chemscore.CHOScore>
0.0000

> <Gold.PLP.Chemscore.Metal>
0.0000

> <Gold.Chemscore.Hbonds>
donor molecule, donor type, donor heavy atom, donor atom, acceptor molecule, acceptor atom, score
      L1  H     9    28       P1  7957  1.00
      L1  H    10    33       P1  8028  2.00
      P1  H  7989  7998       L1     9  0.82
      P1  H 10752 10765       L1     2  0.81

> <Gold.PLP.Chemscore.Internal.Correction>
0.0266

> <Gold.Rescore>
     Score         DG    S(hbond)    S(metal)    S(lipo)     H(rot)  DE(clash)    DE(int)     intcor
     20.58     -20.81       3.10        0.00      88.48       2.10       0.02       0.21       ----

> <Gold.Chemscore.Fitness>
20.5773

> <Gold.Chemscore.DG>
-20.8094

> <Gold.Chemscore.ZeroCoef>
-5.4800

> <Gold.Chemscore.Hbond>
3.1011

> <Gold.Chemscore.Metal>
0.0000

> <Gold.Chemscore.Lipo>
88.4782

> <Gold.Chemscore.Internal_Hbond>
0.0000

> <Gold.Chemscore.DEClash>
0.0222

> <Gold.Chemscore.DEInternal>
0.2099

> <Gold.Chemscore.Rot>
2.1017

> <Gold.Chemscore.Internal.Correction>
   9.000000E+99

> <Gold.Chemscore.Hbonds>
donor molecule, donor type, donor heavy atom, donor atom, acceptor molecule, acceptor atom, score
      L1  H     9    28       P1  7957  0.95
      L1  H    10    33       P1  8028  1.00
      P1  H  7989  7998       L1     9  0.30
      P1  H 10752 10765       L1     2  0.19

> <Gold.Chemscore.Hbond.Weighted>
-10.3578

> <Gold.Chemscore.Metal.Weighted>
-0.0000

> <Gold.Chemscore.Lipo.Weighted>
-10.3519

> <Gold.Chemscore.Internal_Hbond.Weighted>
0.0000

> <Gold.Chemscore.DEClash.Weighted>
0.0222

> <Gold.Chemscore.DEInternal.Weighted>
0.2099

> <Gold.Chemscore.Rot.Weighted>
5.3803

> <Gold.Chemscore.Internal.Correction.Weighted>
   9.000000E+99

> <Gold.Protein.RotatedTorsions>
[ 6907 6896 6895 6894 ] final -179.49 input  -60.11 | X-H torsion
[ 7974 7965 7964 7962 ] final  110.80 input  175.53 | X-H torsion
[ 8008 7997 7996 7995 ] final  -51.54 input   59.86 | X-H torsion
[ 10167 10162 10161 10158 ] final  128.44 input  -65.29 | X-H torsion
[ 10718 10713 10712 10709 ] final -177.50 input   66.30 | X-H torsion
[ 10763 10752 10751 10750 ] final -168.32 input  -60.55 | X-H torsion
[ 11005 11000 10999 10996 ] final  -11.47 input  -57.11 | X-H torsion

> <Gold.Protein.ActiveResidues>
 VAL166  LYS551  ARG553  GLY616  TRP617  ASP618  TYR619  PRO620  LYS621  CYS622 
 ASP623  PHE694  ASN695  SER759  ASP760  ASP761  ALA762  ILE779  LEU786  VAL792 
 PHE793  MET794  SER795  GLU796  ALA797  LYS798  CYS799  TRP800  GLU811  SER814 

> <Gold.Protein.RotatedAtoms>
  151.6543  133.3319  159.3158 H   0  0  0  0  0  0  0  0  0  0  0  0  # atno 6907 bound_to 6896
  150.7945  134.6997  159.6553 H   0  0  0  0  0  0  0  0  0  0  0  0  # atno 6908 bound_to 6896
  152.4029  134.6259  160.0114 H   0  0  0  0  0  0  0  0  0  0  0  0  # atno 6909 bound_to 6896
  145.2503  139.2742  143.4071 H   0  0  0  0  0  0  0  0  0  0  0  0  # atno 7974 bound_to 7965
  154.4085  140.1245  156.4845 H   0  0  0  0  0  0  0  0  0  0  0  0  # atno 8008 bound_to 7997
  155.7051  140.3494  155.4930 H   0  0  0  0  0  0  0  0  0  0  0  0  # atno 8009 bound_to 7997
  155.9350  140.1076  157.1092 H   0  0  0  0  0  0  0  0  0  0  0  0  # atno 8010 bound_to 7997
  139.5527  144.6825  151.4275 H   0  0  0  0  0  0  0  0  0  0  0  0  # atno 10167 bound_to 10162
  156.8304  130.9651  151.3107 H   0  0  0  0  0  0  0  0  0  0  0  0  # atno 10718 bound_to 10713
  154.6641  135.2929  154.9828 H   0  0  0  0  0  0  0  0  0  0  0  0  # atno 10763 bound_to 10752
  154.0878  135.6595  153.4851 H   0  0  0  0  0  0  0  0  0  0  0  0  # atno 10764 bound_to 10752
  153.0447  135.5213  154.7605 H   0  0  0  0  0  0  0  0  0  0  0  0  # atno 10765 bound_to 10752
  140.7556  133.8556  155.9081 H   0  0  0  0  0  0  0  0  0  0  0  0  # atno 11005 bound_to 11000
  146.3304  140.2892  142.8614 LP  0  0  0  0  0  0  0  0  0  0  0  0  # atno 17320 bound_to 7965
  144.9509  140.8177  143.5573 LP  0  0  0  0  0  0  0  0  0  0  0  0  # atno 17321 bound_to 7965
  140.6793  143.8118  150.7100 LP  0  0  0  0  0  0  0  0  0  0  0  0  # atno 17342 bound_to 10162
  140.1566  143.4311  152.2095 LP  0  0  0  0  0  0  0  0  0  0  0  0  # atno 17343 bound_to 10162
  157.6410  130.8805  149.9448 LP  0  0  0  0  0  0  0  0  0  0  0  0  # atno 17370 bound_to 10713
  156.0938  130.3661  150.0346 LP  0  0  0  0  0  0  0  0  0  0  0  0  # atno 17371 bound_to 10713
  140.9710  134.1531  157.4576 LP  0  0  0  0  0  0  0  0  0  0  0  0  # atno 17394 bound_to 11000
  139.8779  134.9978  156.5868 LP  0  0  0  0  0  0  0  0  0  0  0  0  # atno 17395 bound_to 11000

$$$$
