AV-unprocessed.smi:2260|AV-procd|sdf|9132|dock5
  -GOLD-   2272012343D 1   1.00000     0.00000
 Structure written by MMmdl.
 43 44  0  0  0  0  0  0  0  0  2 V2000
  148.2473  140.1250  154.0392 C   0  0  0  0  0  0  0  0  0  0  0  0
  149.5224  139.3704  154.3726 C   0  0  0  0  0  0  0  0  0  0  0  0
  149.7685  138.0879  154.0847 C   0  0  0  0  0  0  0  0  0  0  0  0
  151.3591  137.5736  154.5955 S   0  0  0  0  0  0  0  0  0  0  0  0
  151.6985  139.2230  155.2323 C   0  0  0  0  0  0  0  0  0  0  0  0
  152.7666  139.5320  155.7579 O   0  0  0  0  0  0  0  0  0  0  0  0
  150.5790  140.0244  155.0185 N   0  0  0  0  0  0  0  0  0  0  0  0
  150.5425  141.4276  155.4401 C   0  0  0  0  0  0  0  0  0  0  0  0
  149.4180  141.6738  156.4575 C   0  0  0  0  0  0  0  0  0  0  0  0
  149.8297  142.6765  157.4614 N   0  3  0  0  0  0  0  0  0  0  0  0
  151.2159  142.5430  157.9702 C   0  0  2  0  0  0  0  0  0  0  0  0
  151.3775  141.2629  158.8234 C   0  0  0  0  0  0  0  0  0  0  0  0
  152.8113  141.1093  159.3489 C   0  0  0  0  0  0  0  0  0  0  0  0
  153.2542  142.3518  160.1302 C   0  0  0  0  0  0  0  0  0  0  0  0
  153.0955  143.6243  159.2815 C   0  0  0  0  0  0  0  0  0  0  0  0
  151.6587  143.8295  158.7348 C   0  0  0  0  0  0  0  0  0  0  0  0
  151.6946  145.0286  157.7621 C   0  0  0  0  0  0  0  0  0  0  0  0
  150.6975  144.1792  159.8967 C   0  0  0  0  0  0  0  0  0  0  0  0
  147.6798  139.5898  153.2772 H   0  0  0  0  0  0  0  0  0  0  0  0
  148.4557  141.1216  153.6511 H   0  0  0  0  0  0  0  0  0  0  0  0
  147.6193  140.2167  154.9256 H   0  0  0  0  0  0  0  0  0  0  0  0
  149.0987  137.4035  153.5848 H   0  0  0  0  0  0  0  0  0  0  0  0
  151.5052  141.7314  155.8516 H   0  0  0  0  0  0  0  0  0  0  0  0
  150.3931  142.0650  154.5668 H   0  0  0  0  0  0  0  0  0  0  0  0
  148.5213  142.0173  155.9416 H   0  0  0  0  0  0  0  0  0  0  0  0
  149.1622  140.7410  156.9613 H   0  0  0  0  0  0  0  0  0  0  0  0
  149.7600  143.5833  157.0222 H   0  0  0  0  0  0  0  0  0  0  0  0
  151.8708  142.4428  157.1027 H   0  0  0  0  0  0  0  0  0  0  0  0
  150.6786  141.2717  159.6600 H   0  0  0  0  0  0  0  0  0  0  0  0
  151.1314  140.3788  158.2359 H   0  0  0  0  0  0  0  0  0  0  0  0
  152.8835  140.2255  159.9832 H   0  0  0  0  0  0  0  0  0  0  0  0
  153.4904  140.9444  158.5115 H   0  0  0  0  0  0  0  0  0  0  0  0
  152.6782  142.4363  161.0519 H   0  0  0  0  0  0  0  0  0  0  0  0
  154.2953  142.2415  160.4347 H   0  0  0  0  0  0  0  0  0  0  0  0
  153.4039  144.4911  159.8678 H   0  0  0  0  0  0  0  0  0  0  0  0
  153.7964  143.5670  158.4472 H   0  0  0  0  0  0  0  0  0  0  0  0
  152.0652  145.9272  158.2569 H   0  0  0  0  0  0  0  0  0  0  0  0
  150.7054  145.2642  157.3688 H   0  0  0  0  0  0  0  0  0  0  0  0
  152.3475  144.8346  156.9103 H   0  0  0  0  0  0  0  0  0  0  0  0
  151.0491  145.0535  160.4455 H   0  0  0  0  0  0  0  0  0  0  0  0
  150.5984  143.3685  160.6170 H   0  0  0  0  0  0  0  0  0  0  0  0
  149.6956  144.4141  159.5365 H   0  0  0  0  0  0  0  0  0  0  0  0
  149.1905  142.6519  158.2430 H   0  0  0  0  0  0  0  0  0  0  0  0
  1  2  1  0  0  0  0
  1 19  1  0  0  0  0
  1 20  1  0  0  0  0
  1 21  1  0  0  0  0
  2  7  1  0  0  0  0
  2  3  2  0  0  0  0
  3  4  1  0  0  0  0
  3 22  1  0  0  0  0
  4  5  1  0  0  0  0
  5  6  2  0  0  0  0
  5  7  1  0  0  0  0
  7  8  1  0  0  0  0
  8  9  1  0  0  0  0
  8 23  1  0  0  0  0
  8 24  1  0  0  0  0
  9 10  1  0  0  0  0
  9 25  1  0  0  0  0
  9 26  1  0  0  0  0
 10 11  1  0  0  0  0
 10 27  1  0  0  0  0
 10 43  1  0  0  0  0
 11 16  1  0  0  0  0
 11 12  1  0  0  0  0
 11 28  1  0  0  0  0
 12 13  1  0  0  0  0
 12 29  1  0  0  0  0
 12 30  1  0  0  0  0
 13 14  1  0  0  0  0
 13 31  1  0  0  0  0
 13 32  1  0  0  0  0
 14 15  1  0  0  0  0
 14 33  1  0  0  0  0
 14 34  1  0  0  0  0
 15 16  1  0  0  0  0
 15 35  1  0  0  0  0
 15 36  1  0  0  0  0
 16 17  1  0  0  0  0
 16 18  1  0  0  0  0
 17 37  1  0  0  0  0
 17 38  1  0  0  0  0
 17 39  1  0  0  0  0
 18 40  1  0  0  0  0
 18 41  1  0  0  0  0
 18 42  1  0  0  0  0
M  CHG  1  10   1
M  END
> <s_m_source_file>
AV-unprocessed.smi

> <i_m_source_file_index>
2260

> <i_lp_mmshare_version>
43012

> <i_f3d_flags>
0

> <s_epik_input>
W0NIM11jMVtjSF1zYyg9TyluMVtDSDJdW0NIMl1bTkhdW0NAQEhdKEMyKFtDSDNdKVtDSDNdKVtDSDJdW0NIMl1bQ0gyXVtDSDJdMg==

> <s_epik_cmdline>
J2VwaWtfcHl0aG9uJywgJy1waCcsICc3LjAnLCAnLXRuJywgJzgnLCAnLW1hJywgJzIwMCcsICctbWV0YWxfYmluZGluZycsICctaW1hZScsICc8aW5maWxlLm1hZT4nLCAnLW9tYWUnLCAnPG91dGZpbGUubWFlPic=

> <r_epik_Ionization_Penalty>
0.0114277

> <r_epik_Ionization_Penalty_Charging>
0.0114277

> <r_epik_Ionization_Penalty_Neutral>
2.57259e-08

> <r_epik_State_Penalty>
0.0087935

> <r_epik_Charging_Adjusted_Penalty>
0.0202212

> <i_epik_Tot_Q>
1

> <i_epik_Tot_abs_Q>
1

> <r_epik_Metal_State_Penalty>
0.0087935

> <b_epik_Metal_Only>
0

> <s_lp_Force_Field>
OPLS_2005

> <r_lp_Energy>
26.3368

> <b_lp_Chiralities_Consistent>
1

> <s_lp_Variant>
AV-unprocessed.smi:2260-1

> <Gold.Version>
5.8.1

> <Gold.Id.Protein>
6NUR|6NUR_protein|mol2

> <Gold.PLP.Fitness>
51.5323

> <Gold.PLP.PLP>
-40.3345

> <Gold.PLP.part.hbond>
-2.0000

> <Gold.PLP.part.metal>
0.0000

> <Gold.PLP.part.buried>
-1.2145

> <Gold.PLP.part.nonpolar>
-36.5180

> <Gold.PLP.part.repulsive>
0.0282

> <Gold.PLP.ligand.clash>
0.0000

> <Gold.PLP.ligand.torsion>
0.3828

> <Gold.PLP.Chemscore.Hbond>
2.9840

> <Gold.PLP.Chemscore.CHOScore>
1.0000

> <Gold.PLP.Chemscore.Metal>
0.0000

> <Gold.Chemscore.Hbonds>
donor molecule, donor type, donor heavy atom, donor atom, acceptor molecule, acceptor atom, score
      L1  H    10    27       P1  8028  1.95
      P1  H  7997  8008       L1     6  1.00
      L1  C     3    22       P1  7948  1.00

> <Gold.PLP.Chemscore.Internal.Correction>
0.0115

> <Gold.Rescore>
     Score         DG    S(hbond)    S(metal)    S(lipo)     H(rot)  DE(clash)    DE(int)     intcor
     20.66     -22.50       1.92        0.00     122.90       1.48       1.43       0.41       ----

> <Gold.Chemscore.Fitness>
20.6640

> <Gold.Chemscore.DG>
-22.5021

> <Gold.Chemscore.ZeroCoef>
-5.4800

> <Gold.Chemscore.Hbond>
1.9245

> <Gold.Chemscore.Metal>
0.0000

> <Gold.Chemscore.Lipo>
122.8989

> <Gold.Chemscore.Internal_Hbond>
0.0000

> <Gold.Chemscore.DEClash>
1.4271

> <Gold.Chemscore.DEInternal>
0.4110

> <Gold.Chemscore.Rot>
1.4785

> <Gold.Chemscore.Internal.Correction>
   9.000000E+99

> <Gold.Chemscore.Hbonds>
donor molecule, donor type, donor heavy atom, donor atom, acceptor molecule, acceptor atom, score
      L1  H    10    27       P1  8028  0.89
      P1  H  7997  8008       L1     6  1.00

> <Gold.Chemscore.Hbond.Weighted>
-6.4279

> <Gold.Chemscore.Metal.Weighted>
-0.0000

> <Gold.Chemscore.Lipo.Weighted>
-14.3792

> <Gold.Chemscore.Internal_Hbond.Weighted>
0.0000

> <Gold.Chemscore.DEClash.Weighted>
1.4271

> <Gold.Chemscore.DEInternal.Weighted>
0.4110

> <Gold.Chemscore.Rot.Weighted>
3.7850

> <Gold.Chemscore.Internal.Correction.Weighted>
   9.000000E+99

> <Gold.Protein.RotatedTorsions>
[ 6907 6896 6895 6894 ] final  -20.21 input  -60.11 | X-H torsion
[ 7974 7965 7964 7962 ] final  -71.47 input  175.53 | X-H torsion
[ 8008 7997 7996 7995 ] final  -20.37 input   59.86 | X-H torsion
[ 10167 10162 10161 10158 ] final  -82.83 input  -65.29 | X-H torsion
[ 10718 10713 10712 10709 ] final  168.18 input   66.30 | X-H torsion
[ 10763 10752 10751 10750 ] final   -1.98 input  -60.55 | X-H torsion
[ 11005 11000 10999 10996 ] final  -26.58 input  -57.11 | X-H torsion

> <Gold.Protein.ActiveResidues>
 VAL166  LYS551  ARG553  GLY616  TRP617  ASP618  TYR619  PRO620  LYS621  CYS622 
 ASP623  PHE694  ASN695  SER759  ASP760  ASP761  ALA762  ILE779  LEU786  VAL792 
 PHE793  MET794  SER795  GLU796  ALA797  LYS798  CYS799  TRP800  GLU811  SER814 

> <Gold.Protein.RotatedAtoms>
  151.2515  135.0624  159.9063 H   0  0  0  0  0  0  0  0  0  0  0  0  # atno 6907 bound_to 6896
  152.5379  134.0327  159.8042 H   0  0  0  0  0  0  0  0  0  0  0  0  # atno 6908 bound_to 6896
  151.0536  133.5554  159.2671 H   0  0  0  0  0  0  0  0  0  0  0  0  # atno 6909 bound_to 6896
  145.6777  140.9199  143.0849 H   0  0  0  0  0  0  0  0  0  0  0  0  # atno 7974 bound_to 7965
  154.4774  140.2063  155.9845 H   0  0  0  0  0  0  0  0  0  0  0  0  # atno 8008 bound_to 7997
  156.1111  140.3229  155.8044 H   0  0  0  0  0  0  0  0  0  0  0  0  # atno 8009 bound_to 7997
  155.4633  140.0525  157.2979 H   0  0  0  0  0  0  0  0  0  0  0  0  # atno 8010 bound_to 7997
  140.4283  143.2558  151.8794 H   0  0  0  0  0  0  0  0  0  0  0  0  # atno 10167 bound_to 10162
  157.0408  131.0286  151.2714 H   0  0  0  0  0  0  0  0  0  0  0  0  # atno 10718 bound_to 10713
  153.3520  135.6986  153.6781 H   0  0  0  0  0  0  0  0  0  0  0  0  # atno 10763 bound_to 10752
  153.5504  135.3555  155.2757 H   0  0  0  0  0  0  0  0  0  0  0  0  # atno 10764 bound_to 10752
  154.8655  135.4225  154.2757 H   0  0  0  0  0  0  0  0  0  0  0  0  # atno 10765 bound_to 10752
  140.9042  133.7504  156.0584 H   0  0  0  0  0  0  0  0  0  0  0  0  # atno 11005 bound_to 11000
  144.7036  139.8655  143.7437 LP  0  0  0  0  0  0  0  0  0  0  0  0  # atno 17320 bound_to 7965
  146.0991  139.3985  143.0358 LP  0  0  0  0  0  0  0  0  0  0  0  0  # atno 17321 bound_to 7965
  139.4784  144.5362  151.8595 LP  0  0  0  0  0  0  0  0  0  0  0  0  # atno 17342 bound_to 10162
  140.4456  144.1926  150.5894 LP  0  0  0  0  0  0  0  0  0  0  0  0  # atno 17343 bound_to 10162
  157.5106  130.7936  149.7700 LP  0  0  0  0  0  0  0  0  0  0  0  0  # atno 17370 bound_to 10713
  156.0038  130.3866  150.2504 LP  0  0  0  0  0  0  0  0  0  0  0  0  # atno 17371 bound_to 10713
  140.8192  134.3309  157.5387 LP  0  0  0  0  0  0  0  0  0  0  0  0  # atno 17394 bound_to 11000
  139.8747  134.9299  156.3488 LP  0  0  0  0  0  0  0  0  0  0  0  0  # atno 17395 bound_to 11000

$$$$
