AV-unprocessed.smi:2177|AV-procd|sdf|8850|dock1
  -GOLD-   2272012 43D 1   1.00000     0.00000
 Structure written by MMmdl.
 42 43  0  0  0  0  0  0  0  0  1 V2000
  151.4879  139.1060  157.7898 C   0  0  0  0  0  0  0  0  0  0  0  0
  151.9534  140.2852  158.5951 C   0  0  0  0  0  0  0  0  0  0  0  0
  152.8184  140.1010  159.5787 N   0  0  0  0  0  0  0  0  0  0  0  0
  153.0150  141.3291  160.0986 N   0  0  0  0  0  0  0  0  0  0  0  0
  153.9201  141.4872  161.2205 C   0  0  0  0  0  0  0  0  0  0  0  0
  152.2803  142.2928  159.4355 C   0  0  0  0  0  0  0  0  0  0  0  0
  152.3230  143.7355  159.8257 C   0  0  0  0  0  0  0  0  0  0  0  0
  151.5743  141.6519  158.4517 C   0  0  0  0  0  0  0  0  0  0  0  0
  150.6057  142.2297  157.4497 C   0  0  0  0  0  0  0  0  0  0  0  0
  149.1839  141.8017  157.8122 C   0  0  0  0  0  0  0  0  0  0  0  0
  148.9953  140.7874  158.4831 O   0  0  0  0  0  0  0  0  0  0  0  0
  148.1975  142.5972  157.3726 N   0  0  0  0  0  0  0  0  0  0  0  0
  146.7810  142.4582  157.6914 C   0  0  2  0  0  0  0  0  0  0  0  0
  145.9325  142.8111  156.4582 C   0  0  0  0  0  0  0  0  0  0  0  0
  146.4617  143.3567  158.9008 C   0  0  1  0  0  0  0  0  0  0  0  0
  144.9778  143.4581  159.2550 C   0  0  0  0  0  0  0  0  0  0  0  0
  144.9855  143.7977  160.7378 C   0  0  0  0  0  0  0  0  0  0  0  0
  146.4159  143.4866  161.1868 C   0  0  0  0  0  0  0  0  0  0  0  0
  147.0085  142.8066  160.0900 O   0  0  0  0  0  0  0  0  0  0  0  0
  150.3993  139.0737  157.7411 H   0  0  0  0  0  0  0  0  0  0  0  0
  151.8265  138.1626  158.2194 H   0  0  0  0  0  0  0  0  0  0  0  0
  151.8640  139.1601  156.7683 H   0  0  0  0  0  0  0  0  0  0  0  0
  154.8632  141.9074  160.8712 H   0  0  0  0  0  0  0  0  0  0  0  0
  154.1141  140.5244  161.6953 H   0  0  0  0  0  0  0  0  0  0  0  0
  153.4812  142.1582  161.9592 H   0  0  0  0  0  0  0  0  0  0  0  0
  151.8610  144.3649  159.0655 H   0  0  0  0  0  0  0  0  0  0  0  0
  153.3506  144.0749  159.9570 H   0  0  0  0  0  0  0  0  0  0  0  0
  151.7896  143.8963  160.7626 H   0  0  0  0  0  0  0  0  0  0  0  0
  150.6568  143.3186  157.4209 H   0  0  0  0  0  0  0  0  0  0  0  0
  150.8322  141.8917  156.4379 H   0  0  0  0  0  0  0  0  0  0  0  0
  148.4579  143.4068  156.8286 H   0  0  0  0  0  0  0  0  0  0  0  0
  146.5792  141.4225  157.9710 H   0  0  0  0  0  0  0  0  0  0  0  0
  144.8688  142.6833  156.6590 H   0  0  0  0  0  0  0  0  0  0  0  0
  146.1807  142.1695  155.6121 H   0  0  0  0  0  0  0  0  0  0  0  0
  146.0913  143.8450  156.1493 H   0  0  0  0  0  0  0  0  0  0  0  0
  146.8777  144.3558  158.7543 H   0  0  0  0  0  0  0  0  0  0  0  0
  144.4515  144.2008  158.6547 H   0  0  0  0  0  0  0  0  0  0  0  0
  144.4869  142.4955  159.1051 H   0  0  0  0  0  0  0  0  0  0  0  0
  144.7498  144.8485  160.9093 H   0  0  0  0  0  0  0  0  0  0  0  0
  144.2533  143.1968  161.2781 H   0  0  0  0  0  0  0  0  0  0  0  0
  146.9678  144.4082  161.3767 H   0  0  0  0  0  0  0  0  0  0  0  0
  146.4492  142.8772  162.0901 H   0  0  0  0  0  0  0  0  0  0  0  0
  1  2  1  0  0  0  0
  1 20  1  0  0  0  0
  1 21  1  0  0  0  0
  1 22  1  0  0  0  0
  2  8  1  0  0  0  0
  2  3  2  0  0  0  0
  3  4  1  0  0  0  0
  4  5  1  0  0  0  0
  4  6  1  0  0  0  0
  5 23  1  0  0  0  0
  5 24  1  0  0  0  0
  5 25  1  0  0  0  0
  6  7  1  0  0  0  0
  6  8  2  0  0  0  0
  7 26  1  0  0  0  0
  7 27  1  0  0  0  0
  7 28  1  0  0  0  0
  8  9  1  0  0  0  0
  9 10  1  0  0  0  0
  9 29  1  0  0  0  0
  9 30  1  0  0  0  0
 10 11  2  0  0  0  0
 10 12  1  0  0  0  0
 12 13  1  0  0  0  0
 12 31  1  0  0  0  0
 13 14  1  0  0  0  0
 13 15  1  0  0  0  0
 13 32  1  0  0  0  0
 14 33  1  0  0  0  0
 14 34  1  0  0  0  0
 14 35  1  0  0  0  0
 15 19  1  0  0  0  0
 15 16  1  0  0  0  0
 15 36  1  0  0  0  0
 16 17  1  0  0  0  0
 16 37  1  0  0  0  0
 16 38  1  0  0  0  0
 17 18  1  0  0  0  0
 17 39  1  0  0  0  0
 17 40  1  0  0  0  0
 18 19  1  0  0  0  0
 18 41  1  0  0  0  0
 18 42  1  0  0  0  0
M  END
> <s_m_source_file>
AV-unprocessed.smi

> <i_m_source_file_index>
2177

> <i_lp_mmshare_version>
43012

> <i_f3d_flags>
0

> <s_epik_input>
W0NIM11jMW5uKFtDSDNdKWMoW0NIM10pYzFbQ0gyXUMoPU8pW05IXVtDQEhdKFtDSDNdKVtDQEBIXTJbQ0gyXVtDSDJdW0NIMl1PMg==

> <s_epik_cmdline>
J2VwaWtfcHl0aG9uJywgJy1waCcsICc3LjAnLCAnLXRuJywgJzgnLCAnLW1hJywgJzIwMCcsICctbWV0YWxfYmluZGluZycsICctaW1hZScsICc8aW5maWxlLm1hZT4nLCAnLW9tYWUnLCAnPG91dGZpbGUubWFlPic=

> <r_lp_tautomer_probability>
1

> <r_epik_Ionization_Penalty>
0.00310467

> <r_epik_Ionization_Penalty_Charging>
0

> <r_epik_Ionization_Penalty_Neutral>
0.00310467

> <r_epik_State_Penalty>
0.00218493

> <r_epik_Charging_Adjusted_Penalty>
0.00218493

> <i_epik_Tot_Q>
0

> <i_epik_Tot_abs_Q>
0

> <r_epik_Metal_State_Penalty>
-0

> <b_epik_Metal_Only>
0

> <s_lp_Force_Field>
OPLS_2005

> <r_lp_Energy>
12.0116

> <b_lp_Chiralities_Consistent>
1

> <s_lp_Variant>
AV-unprocessed.smi:2177-3

> <Gold.Version>
5.8.1

> <Gold.Id.Protein>
6NUR|6NUR_protein|mol2

> <Gold.PLP.Fitness>
37.9967

> <Gold.PLP.PLP>
-33.9356

> <Gold.PLP.part.hbond>
-4.5521

> <Gold.PLP.part.metal>
0.0000

> <Gold.PLP.part.buried>
-3.0956

> <Gold.PLP.part.nonpolar>
-26.6670

> <Gold.PLP.part.repulsive>
0.0935

> <Gold.PLP.ligand.clash>
0.0000

> <Gold.PLP.ligand.torsion>
0.9203

> <Gold.PLP.Chemscore.Hbond>
1.9526

> <Gold.PLP.Chemscore.CHOScore>
0.0000

> <Gold.PLP.Chemscore.Metal>
0.0000

> <Gold.Chemscore.Hbonds>
donor molecule, donor type, donor heavy atom, donor atom, acceptor molecule, acceptor atom, score
      L1  H    12    31       P1  8028  1.00
      P1  H  6933  6944       L1    19  0.20
      P1  H  6934  6946       L1    19  0.84

> <Gold.PLP.Chemscore.Internal.Correction>
0.0439

> <Gold.Rescore>
     Score         DG    S(hbond)    S(metal)    S(lipo)     H(rot)  DE(clash)    DE(int)     intcor
     12.75     -13.85       1.12        0.00      71.57       1.46       0.00       1.10       ----

> <Gold.Chemscore.Fitness>
12.7464

> <Gold.Chemscore.DG>
-13.8467

> <Gold.Chemscore.ZeroCoef>
-5.4800

> <Gold.Chemscore.Hbond>
1.1191

> <Gold.Chemscore.Metal>
0.0000

> <Gold.Chemscore.Lipo>
71.5658

> <Gold.Chemscore.Internal_Hbond>
0.0000

> <Gold.Chemscore.DEClash>
0.0036

> <Gold.Chemscore.DEInternal>
1.0967

> <Gold.Chemscore.Rot>
1.4627

> <Gold.Chemscore.Internal.Correction>
   9.000000E+99

> <Gold.Chemscore.Hbonds>
donor molecule, donor type, donor heavy atom, donor atom, acceptor molecule, acceptor atom, score
      L1  H    12    31       P1  8028  0.26
      P1  H  6934  6946       L1    19  0.27

> <Gold.Chemscore.Hbond.Weighted>
-3.7379

> <Gold.Chemscore.Metal.Weighted>
-0.0000

> <Gold.Chemscore.Lipo.Weighted>
-8.3732

> <Gold.Chemscore.Internal_Hbond.Weighted>
0.0000

> <Gold.Chemscore.DEClash.Weighted>
0.0036

> <Gold.Chemscore.DEInternal.Weighted>
1.0967

> <Gold.Chemscore.Rot.Weighted>
3.7445

> <Gold.Chemscore.Internal.Correction.Weighted>
   9.000000E+99

> <Gold.Protein.RotatedTorsions>
[ 6907 6896 6895 6894 ] final  -77.53 input  -60.11 | X-H torsion
[ 7974 7965 7964 7962 ] final    3.07 input  175.53 | X-H torsion
[ 8008 7997 7996 7995 ] final  150.50 input   59.86 | X-H torsion
[ 10167 10162 10161 10158 ] final   -4.36 input  -65.29 | X-H torsion
[ 10718 10713 10712 10709 ] final  -25.16 input   66.30 | X-H torsion
[ 10763 10752 10751 10750 ] final -119.28 input  -60.55 | X-H torsion
[ 11005 11000 10999 10996 ] final   51.71 input  -57.11 | X-H torsion

> <Gold.Protein.ActiveResidues>
 VAL166  LYS551  ARG553  GLY616  TRP617  ASP618  TYR619  PRO620  LYS621  CYS622 
 ASP623  PHE694  ASN695  SER759  ASP760  ASP761  ALA762  ILE779  LEU786  VAL792 
 PHE793  MET794  SER795  GLU796  ALA797  LYS798  CYS799  TRP800  GLU811  SER814 

> <Gold.Protein.RotatedAtoms>
  150.6996  134.4409  159.5291 H   0  0  0  0  0  0  0  0  0  0  0  0  # atno 6907 bound_to 6896
  152.2119  134.8491  160.0505 H   0  0  0  0  0  0  0  0  0  0  0  0  # atno 6908 bound_to 6896
  151.9373  133.3593  159.3989 H   0  0  0  0  0  0  0  0  0  0  0  0  # atno 6909 bound_to 6896
  146.2445  140.0740  142.8361 H   0  0  0  0  0  0  0  0  0  0  0  0  # atno 7974 bound_to 7965
  156.2713  140.2073  156.6027 H   0  0  0  0  0  0  0  0  0  0  0  0  # atno 8008 bound_to 7997
  154.6894  140.0532  157.0371 H   0  0  0  0  0  0  0  0  0  0  0  0  # atno 8009 bound_to 7997
  155.0888  140.3194  155.4582 H   0  0  0  0  0  0  0  0  0  0  0  0  # atno 8010 bound_to 7997
  140.6924  143.6433  150.8416 H   0  0  0  0  0  0  0  0  0  0  0  0  # atno 10167 bound_to 10162
  156.4680  130.4518  149.6887 H   0  0  0  0  0  0  0  0  0  0  0  0  # atno 10718 bound_to 10713
  154.8612  135.4244  154.2273 H   0  0  0  0  0  0  0  0  0  0  0  0  # atno 10763 bound_to 10752
  153.3265  135.6985  153.6990 H   0  0  0  0  0  0  0  0  0  0  0  0  # atno 10764 bound_to 10752
  153.6024  135.3534  155.2923 H   0  0  0  0  0  0  0  0  0  0  0  0  # atno 10765 bound_to 10752
  140.0910  134.5210  155.8852 H   0  0  0  0  0  0  0  0  0  0  0  0  # atno 11005 bound_to 11000
  145.0791  140.9208  143.4836 LP  0  0  0  0  0  0  0  0  0  0  0  0  # atno 17320 bound_to 7965
  145.0890  139.2904  143.5745 LP  0  0  0  0  0  0  0  0  0  0  0  0  # atno 17321 bound_to 7965
  140.0147  143.5605  152.2825 LP  0  0  0  0  0  0  0  0  0  0  0  0  # atno 17342 bound_to 10162
  139.6342  144.7648  151.2473 LP  0  0  0  0  0  0  0  0  0  0  0  0  # atno 17343 bound_to 10162
  156.3647  130.7500  151.2476 LP  0  0  0  0  0  0  0  0  0  0  0  0  # atno 17370 bound_to 10713
  157.7493  131.0340  150.4297 LP  0  0  0  0  0  0  0  0  0  0  0  0  # atno 17371 bound_to 10713
  141.2078  133.6667  156.6327 LP  0  0  0  0  0  0  0  0  0  0  0  0  # atno 17394 bound_to 11000
  140.3353  134.7895  157.4357 LP  0  0  0  0  0  0  0  0  0  0  0  0  # atno 17395 bound_to 11000

$$$$
