AV-unprocessed.smi:1853|AV-procd|sdf|7528|dock10
  -GOLD-   22720 9243D 1   1.00000     0.00000
 Structure written by MMmdl.
 43 45  0  0  0  0  0  0  0  0  2 V2000
  156.0821  139.1168  163.6226 C   0  0  0  0  0  0  0  0  0  0  0  0
  155.0209  138.8562  162.5737 C   0  0  0  0  0  0  0  0  0  0  0  0
  154.5913  139.8919  161.7208 C   0  0  0  0  0  0  0  0  0  0  0  0
  153.6037  139.6416  160.7492 C   0  0  0  0  0  0  0  0  0  0  0  0
  153.0306  138.3606  160.6130 C   0  0  0  0  0  0  0  0  0  0  0  0
  152.0741  138.2039  159.6335 O   0  0  0  0  0  0  0  0  0  0  0  0
  151.2811  139.3296  159.2805 C   0  0  0  0  0  0  0  0  0  0  0  0
  151.9986  140.1297  158.1843 C   0  0  0  0  0  0  0  0  0  0  0  0
  151.4530  141.4867  158.0366 N   0  0  0  0  0  0  0  0  0  0  0  0
  150.6510  142.0193  157.0694 C   0  0  0  0  0  0  0  0  0  0  0  0
  150.1039  141.3053  155.8686 C   0  0  0  0  0  0  0  0  0  0  0  0
  148.9539  141.9618  155.2534 N   0  0  0  0  0  0  0  0  0  0  0  0
  147.9710  141.3315  154.5940 C   0  0  0  0  0  0  0  0  0  0  0  0
  147.8915  140.1108  154.4685 O   0  0  0  0  0  0  0  0  0  0  0  0
  150.4421  143.3270  157.3994 N   0  3  0  0  0  0  0  0  0  0  0  0
  151.0974  143.6264  158.5935 C   0  0  0  0  0  0  0  0  0  0  0  0
  151.1676  144.8089  159.3238 C   0  0  0  0  0  0  0  0  0  0  0  0
  151.9251  144.7738  160.5129 C   0  0  0  0  0  0  0  0  0  0  0  0
  152.5758  143.5959  160.9347 C   0  0  0  0  0  0  0  0  0  0  0  0
  152.4979  142.4036  160.1849 C   0  0  0  0  0  0  0  0  0  0  0  0
  151.7476  142.4475  159.0101 C   0  0  0  0  0  0  0  0  0  0  0  0
  153.4647  137.3240  161.4774 C   0  0  0  0  0  0  0  0  0  0  0  0
  154.4530  137.5731  162.4495 C   0  0  0  0  0  0  0  0  0  0  0  0
  156.6185  140.0445  163.4198 H   0  0  0  0  0  0  0  0  0  0  0  0
  156.8086  138.3039  163.6420 H   0  0  0  0  0  0  0  0  0  0  0  0
  155.6250  139.1931  164.6093 H   0  0  0  0  0  0  0  0  0  0  0  0
  155.0159  140.8814  161.8077 H   0  0  0  0  0  0  0  0  0  0  0  0
  153.2806  140.4441  160.1029 H   0  0  0  0  0  0  0  0  0  0  0  0
  150.3033  139.0071  158.9197 H   0  0  0  0  0  0  0  0  0  0  0  0
  151.1259  139.9675  160.1519 H   0  0  0  0  0  0  0  0  0  0  0  0
  153.0674  140.1997  158.3881 H   0  0  0  0  0  0  0  0  0  0  0  0
  151.9025  139.6227  157.2239 H   0  0  0  0  0  0  0  0  0  0  0  0
  150.8952  141.2245  155.1231 H   0  0  0  0  0  0  0  0  0  0  0  0
  149.8278  140.2862  156.1418 H   0  0  0  0  0  0  0  0  0  0  0  0
  148.9242  142.9702  155.2998 H   0  0  0  0  0  0  0  0  0  0  0  0
  147.2459  142.0523  154.1854 H   0  0  0  0  0  0  0  0  0  0  0  0
  150.6681  145.7115  159.0037 H   0  0  0  0  0  0  0  0  0  0  0  0
  152.0073  145.6675  161.1145 H   0  0  0  0  0  0  0  0  0  0  0  0
  153.1454  143.6065  161.8526 H   0  0  0  0  0  0  0  0  0  0  0  0
  152.9976  141.5059  160.5179 H   0  0  0  0  0  0  0  0  0  0  0  0
  153.0561  136.3269  161.4151 H   0  0  0  0  0  0  0  0  0  0  0  0
  154.7748  136.7737  163.1012 H   0  0  0  0  0  0  0  0  0  0  0  0
  149.8775  143.9618  156.8499 H   0  0  0  0  0  0  0  0  0  0  0  0
  1  2  1  0  0  0  0
  1 24  1  0  0  0  0
  1 25  1  0  0  0  0
  1 26  1  0  0  0  0
  2 23  1  0  0  0  0
  2  3  2  0  0  0  0
  3  4  1  0  0  0  0
  3 27  1  0  0  0  0
  4  5  2  0  0  0  0
  4 28  1  0  0  0  0
  5  6  1  0  0  0  0
  5 22  1  0  0  0  0
  6  7  1  0  0  0  0
  7  8  1  0  0  0  0
  7 29  1  0  0  0  0
  7 30  1  0  0  0  0
  8  9  1  0  0  0  0
  8 31  1  0  0  0  0
  8 32  1  0  0  0  0
  9 21  1  0  0  0  0
  9 10  1  0  0  0  0
 10 11  1  0  0  0  0
 10 15  2  0  0  0  0
 11 12  1  0  0  0  0
 11 33  1  0  0  0  0
 11 34  1  0  0  0  0
 12 13  1  0  0  0  0
 12 35  1  0  0  0  0
 13 14  2  0  0  0  0
 13 36  1  0  0  0  0
 15 16  1  0  0  0  0
 15 43  1  0  0  0  0
 16 21  2  0  0  0  0
 16 17  1  0  0  0  0
 17 18  2  0  0  0  0
 17 37  1  0  0  0  0
 18 19  1  0  0  0  0
 18 38  1  0  0  0  0
 19 20  2  0  0  0  0
 19 39  1  0  0  0  0
 20 21  1  0  0  0  0
 20 40  1  0  0  0  0
 22 23  2  0  0  0  0
 22 41  1  0  0  0  0
 23 42  1  0  0  0  0
M  CHG  1  15   1
M  END
> <s_m_source_file>
AV-unprocessed.smi

> <i_m_source_file_index>
1853

> <i_lp_mmshare_version>
43012

> <i_f3d_flags>
0

> <s_epik_input>
W0NIM11jMVtjSF1bY0hdYyhbY0hdW2NIXTEpT1tDSDJdW0NIMl1uKGMobjIpW0NIMl1bTkhdW0NIXT1PKWMoYzIzKVtjSF1bY0hdW2NIXVtjSF0z

> <s_epik_cmdline>
J2VwaWtfcHl0aG9uJywgJy1waCcsICc3LjAnLCAnLXRuJywgJzgnLCAnLW1hJywgJzIwMCcsICctbWV0YWxfYmluZGluZycsICctaW1hZScsICc8aW5maWxlLm1hZT4nLCAnLW9tYWUnLCAnPG91dGZpbGUubWFlPic=

> <r_lp_tautomer_probability>
1

> <r_epik_Ionization_Penalty>
1.39966

> <r_epik_Ionization_Penalty_Charging>
1.39966

> <r_epik_Ionization_Penalty_Neutral>
7.38905e-08

> <r_epik_State_Penalty>
1.4817

> <r_epik_Charging_Adjusted_Penalty>
2.88136

> <i_epik_Tot_Q>
1

> <i_epik_Tot_abs_Q>
1

> <r_epik_Metal_State_Penalty>
1.53574

> <b_epik_Metal_Only>
0

> <s_lp_Force_Field>
OPLS_2005

> <r_lp_Energy>
13.1997

> <b_lp_Chiralities_Consistent>
1

> <s_lp_Variant>
AV-unprocessed.smi:1853-2

> <Gold.Version>
5.8.1

> <Gold.Id.Protein>
6NUR|6NUR_protein|mol2

> <Gold.PLP.Fitness>
55.8670

> <Gold.PLP.PLP>
-49.2772

> <Gold.PLP.part.hbond>
-2.0000

> <Gold.PLP.part.metal>
0.0000

> <Gold.PLP.part.buried>
-6.9175

> <Gold.PLP.part.nonpolar>
-40.3060

> <Gold.PLP.part.repulsive>
0.3604

> <Gold.PLP.ligand.clash>
0.0000

> <Gold.PLP.ligand.torsion>
1.2307

> <Gold.PLP.Chemscore.Hbond>
3.0000

> <Gold.PLP.Chemscore.CHOScore>
0.0000

> <Gold.PLP.Chemscore.Metal>
0.0000

> <Gold.Chemscore.Hbonds>
donor molecule, donor type, donor heavy atom, donor atom, acceptor molecule, acceptor atom, score
      L1  H    12    35       P1  8028  1.00
      L1  H    15    43       P1  8028  2.00

> <Gold.PLP.Chemscore.Internal.Correction>
0.0513

> <Gold.Rescore>
     Score         DG    S(hbond)    S(metal)    S(lipo)     H(rot)  DE(clash)    DE(int)     intcor
     20.02     -21.12       1.97        0.00     131.29       2.46       0.01       1.09       ----

> <Gold.Chemscore.Fitness>
20.0211

> <Gold.Chemscore.DG>
-21.1185

> <Gold.Chemscore.ZeroCoef>
-5.4800

> <Gold.Chemscore.Hbond>
1.9688

> <Gold.Chemscore.Metal>
0.0000

> <Gold.Chemscore.Lipo>
131.2900

> <Gold.Chemscore.Internal_Hbond>
0.0000

> <Gold.Chemscore.DEClash>
0.0097

> <Gold.Chemscore.DEInternal>
1.0877

> <Gold.Chemscore.Rot>
2.4603

> <Gold.Chemscore.Internal.Correction>
   9.000000E+99

> <Gold.Chemscore.Hbonds>
donor molecule, donor type, donor heavy atom, donor atom, acceptor molecule, acceptor atom, score
      L1  H    12    35       P1  8028  1.00
      L1  H    15    43       P1  8028  0.97

> <Gold.Chemscore.Hbond.Weighted>
-6.5758

> <Gold.Chemscore.Metal.Weighted>
-0.0000

> <Gold.Chemscore.Lipo.Weighted>
-15.3609

> <Gold.Chemscore.Internal_Hbond.Weighted>
0.0000

> <Gold.Chemscore.DEClash.Weighted>
0.0097

> <Gold.Chemscore.DEInternal.Weighted>
1.0877

> <Gold.Chemscore.Rot.Weighted>
6.2983

> <Gold.Chemscore.Internal.Correction.Weighted>
   9.000000E+99

> <Gold.Protein.RotatedTorsions>
[ 6907 6896 6895 6894 ] final -150.94 input  -60.11 | X-H torsion
[ 7974 7965 7964 7962 ] final   88.72 input  175.53 | X-H torsion
[ 8008 7997 7996 7995 ] final   12.75 input   59.86 | X-H torsion
[ 10167 10162 10161 10158 ] final -102.21 input  -65.29 | X-H torsion
[ 10718 10713 10712 10709 ] final   94.76 input   66.30 | X-H torsion
[ 10763 10752 10751 10750 ] final -144.07 input  -60.55 | X-H torsion
[ 11005 11000 10999 10996 ] final  -50.06 input  -57.11 | X-H torsion

> <Gold.Protein.ActiveResidues>
 VAL166  LYS551  ARG553  GLY616  TRP617  ASP618  TYR619  PRO620  LYS621  CYS622 
 ASP623  PHE694  ASN695  SER759  ASP760  ASP761  ALA762  ILE779  LEU786  VAL792 
 PHE793  MET794  SER795  GLU796  ALA797  LYS798  CYS799  TRP800  GLU811  SER814 

> <Gold.Protein.RotatedAtoms>
  151.2059  133.4584  159.2596 H   0  0  0  0  0  0  0  0  0  0  0  0  # atno 6907 bound_to 6896
  151.1023  134.9979  159.8465 H   0  0  0  0  0  0  0  0  0  0  0  0  # atno 6908 bound_to 6896
  152.5444  134.1985  159.8755 H   0  0  0  0  0  0  0  0  0  0  0  0  # atno 6909 bound_to 6896
  145.5419  139.2289  143.2561 H   0  0  0  0  0  0  0  0  0  0  0  0  # atno 7974 bound_to 7965
  154.8250  140.2890  155.5761 H   0  0  0  0  0  0  0  0  0  0  0  0  # atno 8008 bound_to 7997
  156.3001  140.2543  156.3095 H   0  0  0  0  0  0  0  0  0  0  0  0  # atno 8009 bound_to 7997
  154.9296  140.0384  157.2030 H   0  0  0  0  0  0  0  0  0  0  0  0  # atno 8010 bound_to 7997
  140.2331  143.3592  152.0869 H   0  0  0  0  0  0  0  0  0  0  0  0  # atno 10167 bound_to 10162
  157.6945  131.0523  150.4235 H   0  0  0  0  0  0  0  0  0  0  0  0  # atno 10718 bound_to 10713
  154.8443  135.3450  154.6288 H   0  0  0  0  0  0  0  0  0  0  0  0  # atno 10763 bound_to 10752
  153.6898  135.6975  153.5098 H   0  0  0  0  0  0  0  0  0  0  0  0  # atno 10764 bound_to 10752
  153.2604  135.4325  155.0843 H   0  0  0  0  0  0  0  0  0  0  0  0  # atno 10765 bound_to 10752
  141.0794  133.6657  156.3675 H   0  0  0  0  0  0  0  0  0  0  0  0  # atno 11005 bound_to 11000
  146.1975  140.6240  142.9117 LP  0  0  0  0  0  0  0  0  0  0  0  0  # atno 17320 bound_to 7965
  144.7572  140.5337  143.6760 LP  0  0  0  0  0  0  0  0  0  0  0  0  # atno 17321 bound_to 7965
  139.5103  144.6882  151.5832 LP  0  0  0  0  0  0  0  0  0  0  0  0  # atno 17342 bound_to 10162
  140.6170  143.9330  150.6496 LP  0  0  0  0  0  0  0  0  0  0  0  0  # atno 17343 bound_to 10162
  156.4608  130.4031  149.6577 LP  0  0  0  0  0  0  0  0  0  0  0  0  # atno 17370 bound_to 10713
  156.3693  130.7522  151.2503 LP  0  0  0  0  0  0  0  0  0  0  0  0  # atno 17371 bound_to 10713
  140.5501  134.6036  157.5405 LP  0  0  0  0  0  0  0  0  0  0  0  0  # atno 17394 bound_to 11000
  139.9607  134.7457  156.0242 LP  0  0  0  0  0  0  0  0  0  0  0  0  # atno 17395 bound_to 11000

$$$$
