AV-unprocessed.smi:598|AV-procd|sdf|3027|dock7
  -GOLD-   2262023543D 1   1.00000     0.00000
 Structure written by MMmdl.
 43 44  0  0  0  0  0  0  0  0  3 V2000
  154.1120  140.7781  160.3237 C   0  0  0  0  0  0  0  0  0  0  0  0
  153.2091  141.5803  159.3720 C   0  0  2  0  0  0  0  0  0  0  0  0
  152.2021  142.4582  160.1422 C   0  0  0  0  0  0  0  0  0  0  0  0
  151.3759  143.3349  159.1878 C   0  0  0  0  0  0  0  0  0  0  0  0
  150.6789  142.4948  158.1074 C   0  0  0  0  0  0  0  0  0  0  0  0
  151.6910  141.6164  157.3421 C   0  0  2  0  0  0  0  0  0  0  0  0
  151.0176  140.8205  156.3212 N   0  0  0  0  0  0  0  0  0  0  0  0
  151.5859  139.9011  155.5232 C   0  0  0  0  0  0  0  0  0  0  0  0
  152.7848  139.6292  155.5655 O   0  0  0  0  0  0  0  0  0  0  0  0
  150.6851  139.1662  154.5145 C   0  0  0  0  0  0  0  0  0  0  0  0
  149.9426  138.0207  155.0731 N   0  0  0  0  0  0  0  0  0  0  0  0
  150.7064  136.9856  155.6478 C   0  0  0  0  0  0  0  0  0  0  0  0
  150.1384  135.8787  156.1650 C   0  0  0  0  0  0  0  0  0  0  0  0
  150.9394  134.8199  156.7388 N   0  3  0  0  0  0  0  0  0  0  0  0
  150.3701  133.8370  157.2026 O   0  0  0  0  0  0  0  0  0  0  0  0
  152.1615  134.9342  156.7449 O   0  5  0  0  0  0  0  0  0  0  0  0
  148.6925  135.7786  156.1182 C   0  0  0  0  0  0  0  0  0  0  0  0
  147.9563  136.7636  155.5672 C   0  0  0  0  0  0  0  0  0  0  0  0
  148.5772  137.9640  154.9982 C   0  0  0  0  0  0  0  0  0  0  0  0
  147.9117  138.8582  154.4767 O   0  0  0  0  0  0  0  0  0  0  0  0
  152.5020  140.7063  158.3017 C   0  0  2  0  0  0  0  0  0  0  0  0
  151.6653  139.5499  158.9007 C   0  0  0  0  0  0  0  0  0  0  0  0
  153.5333  140.1390  160.9905 H   0  0  0  0  0  0  0  0  0  0  0  0
  154.7048  141.4455  160.9497 H   0  0  0  0  0  0  0  0  0  0  0  0
  154.8065  140.1467  159.7691 H   0  0  0  0  0  0  0  0  0  0  0  0
  153.8716  142.2596  158.8328 H   0  0  0  0  0  0  0  0  0  0  0  0
  151.5360  141.8338  160.7384 H   0  0  0  0  0  0  0  0  0  0  0  0
  152.7317  143.0976  160.8492 H   0  0  0  0  0  0  0  0  0  0  0  0
  150.6362  143.9039  159.7515 H   0  0  0  0  0  0  0  0  0  0  0  0
  152.0292  144.0668  158.7112 H   0  0  0  0  0  0  0  0  0  0  0  0
  149.9101  141.8725  158.5661 H   0  0  0  0  0  0  0  0  0  0  0  0
  150.1596  143.1591  157.4157 H   0  0  0  0  0  0  0  0  0  0  0  0
  152.4008  142.2777  156.8407 H   0  0  0  0  0  0  0  0  0  0  0  0
  150.0264  140.9801  156.2151 H   0  0  0  0  0  0  0  0  0  0  0  0
  149.9876  139.8926  154.0947 H   0  0  0  0  0  0  0  0  0  0  0  0
  151.2990  138.8494  153.6696 H   0  0  0  0  0  0  0  0  0  0  0  0
  151.7739  137.1523  155.6249 H   0  0  0  0  0  0  0  0  0  0  0  0
  148.1896  134.9136  156.5249 H   0  0  0  0  0  0  0  0  0  0  0  0
  146.8806  136.6682  155.5426 H   0  0  0  0  0  0  0  0  0  0  0  0
  153.2855  140.2360  157.7051 H   0  0  0  0  0  0  0  0  0  0  0  0
  150.8537  139.9139  159.5297 H   0  0  0  0  0  0  0  0  0  0  0  0
  152.2792  138.8854  159.5074 H   0  0  0  0  0  0  0  0  0  0  0  0
  151.2222  138.9270  158.1235 H   0  0  0  0  0  0  0  0  0  0  0  0
  1  2  1  0  0  0  0
  1 23  1  0  0  0  0
  1 24  1  0  0  0  0
  1 25  1  0  0  0  0
  2 21  1  0  0  0  0
  2  3  1  0  0  0  0
  2 26  1  0  0  0  0
  3  4  1  0  0  0  0
  3 27  1  0  0  0  0
  3 28  1  0  0  0  0
  4  5  1  0  0  0  0
  4 29  1  0  0  0  0
  4 30  1  0  0  0  0
  5  6  1  0  0  0  0
  5 31  1  0  0  0  0
  5 32  1  0  0  0  0
  6  7  1  0  0  0  0
  6 21  1  0  0  0  0
  6 33  1  0  0  0  0
  7  8  1  0  0  0  0
  7 34  1  0  0  0  0
  8  9  2  0  0  0  0
  8 10  1  0  0  0  0
 10 11  1  0  0  0  0
 10 35  1  0  0  0  0
 10 36  1  0  0  0  0
 11 19  1  0  0  0  0
 11 12  1  0  0  0  0
 12 13  2  0  0  0  0
 12 37  1  0  0  0  0
 13 14  1  0  0  0  0
 13 17  1  0  0  0  0
 14 15  2  0  0  0  0
 14 16  1  0  0  0  0
 17 18  2  0  0  0  0
 17 38  1  0  0  0  0
 18 19  1  0  0  0  0
 18 39  1  0  0  0  0
 19 20  2  0  0  0  0
 21 22  1  0  0  0  0
 21 40  1  0  0  0  0
 22 41  1  0  0  0  0
 22 42  1  0  0  0  0
 22 43  1  0  0  0  0
M  CHG  1  14   1
M  CHG  1  16  -1
M  END
> <s_m_source_file>
AV-unprocessed.smi

> <i_m_source_file_index>
598

> <i_lp_mmshare_version>
43012

> <i_f3d_flags>
0

> <s_epik_input>
W0NIM11bQ0BASF0xW0NIMl1bQ0gyXVtDSDJdW0NASF0oW0NASF0xW0NIM10pW05IXUMoPU8pW0NIMl1uMltjSF1jKFtOK10oPU8pW08tXSlbY0hdW2NIXWMyPU8=

> <s_epik_cmdline>
J2VwaWtfcHl0aG9uJywgJy1waCcsICc3LjAnLCAnLXRuJywgJzgnLCAnLW1hJywgJzIwMCcsICctbWV0YWxfYmluZGluZycsICctaW1hZScsICc8aW5maWxlLm1hZT4nLCAnLW9tYWUnLCAnPG91dGZpbGUubWFlPic=

> <r_lp_tautomer_probability>
1

> <r_epik_Ionization_Penalty>
1.91291e-08

> <r_epik_Ionization_Penalty_Charging>
8.21931e-11

> <r_epik_Ionization_Penalty_Neutral>
1.90469e-08

> <r_epik_State_Penalty>
-0

> <r_epik_Charging_Adjusted_Penalty>
8.21931e-11

> <i_epik_Tot_Q>
0

> <i_epik_Tot_abs_Q>
2

> <r_epik_Metal_State_Penalty>
-0

> <b_epik_Metal_Only>
0

> <s_lp_Force_Field>
OPLS_2005

> <r_lp_Energy>
25.0261

> <b_lp_Chiralities_Consistent>
1

> <s_lp_Variant>
AV-unprocessed.smi:598-7

> <Gold.Version>
5.8.1

> <Gold.Id.Protein>
6NUR|6NUR_protein|mol2

> <Gold.PLP.Fitness>
40.9245

> <Gold.PLP.PLP>
-33.0990

> <Gold.PLP.part.hbond>
-3.2391

> <Gold.PLP.part.metal>
0.0000

> <Gold.PLP.part.buried>
-4.3715

> <Gold.PLP.part.nonpolar>
-25.6462

> <Gold.PLP.part.repulsive>
0.2193

> <Gold.PLP.ligand.clash>
0.0000

> <Gold.PLP.ligand.torsion>
0.3684

> <Gold.PLP.Chemscore.Hbond>
2.8480

> <Gold.PLP.Chemscore.CHOScore>
0.0000

> <Gold.PLP.Chemscore.Metal>
0.0000

> <Gold.Chemscore.Hbonds>
donor molecule, donor type, donor heavy atom, donor atom, acceptor molecule, acceptor atom, score
      P1  H  6896  6909       L1    15  0.72
      P1  H  7997  8008       L1     9  1.00
      P1  H 10752 10765       L1    16  1.00

> <Gold.PLP.Chemscore.Internal.Correction>
0.0183

> <Gold.Rescore>
     Score         DG    S(hbond)    S(metal)    S(lipo)     H(rot)  DE(clash)    DE(int)     intcor
     19.88     -20.28       2.67        0.00      83.97       1.54       0.03       0.37       ----

> <Gold.Chemscore.Fitness>
19.8781

> <Gold.Chemscore.DG>
-20.2778

> <Gold.Chemscore.ZeroCoef>
-5.4800

> <Gold.Chemscore.Hbond>
2.6689

> <Gold.Chemscore.Metal>
0.0000

> <Gold.Chemscore.Lipo>
83.9699

> <Gold.Chemscore.Internal_Hbond>
0.0000

> <Gold.Chemscore.DEClash>
0.0311

> <Gold.Chemscore.DEInternal>
0.3686

> <Gold.Chemscore.Rot>
1.5393

> <Gold.Chemscore.Internal.Correction>
   9.000000E+99

> <Gold.Chemscore.Hbonds>
donor molecule, donor type, donor heavy atom, donor atom, acceptor molecule, acceptor atom, score
      P1  H  6896  6909       L1    15  0.41
      P1  H  7997  8008       L1     9  1.00
      P1  H 10752 10765       L1    16  0.94

> <Gold.Chemscore.Hbond.Weighted>
-8.9140

> <Gold.Chemscore.Metal.Weighted>
-0.0000

> <Gold.Chemscore.Lipo.Weighted>
-9.8245

> <Gold.Chemscore.Internal_Hbond.Weighted>
0.0000

> <Gold.Chemscore.DEClash.Weighted>
0.0311

> <Gold.Chemscore.DEInternal.Weighted>
0.3686

> <Gold.Chemscore.Rot.Weighted>
3.9407

> <Gold.Chemscore.Internal.Correction.Weighted>
   9.000000E+99

> <Gold.Protein.RotatedTorsions>
[ 6907 6896 6895 6894 ] final   -5.46 input  -60.11 | X-H torsion
[ 7974 7965 7964 7962 ] final -105.63 input  175.53 | X-H torsion
[ 8008 7997 7996 7995 ] final  -24.85 input   59.86 | X-H torsion
[ 10167 10162 10161 10158 ] final  -77.23 input  -65.29 | X-H torsion
[ 10718 10713 10712 10709 ] final  -57.20 input   66.30 | X-H torsion
[ 10763 10752 10751 10750 ] final -139.72 input  -60.55 | X-H torsion
[ 11005 11000 10999 10996 ] final  -41.84 input  -57.11 | X-H torsion

> <Gold.Protein.ActiveResidues>
 VAL166  LYS551  ARG553  GLY616  TRP617  ASP618  TYR619  PRO620  LYS621  CYS622 
 ASP623  PHE694  ASN695  SER759  ASP760  ASP761  ALA762  ILE779  LEU786  VAL792 
 PHE793  MET794  SER795  GLU796  ALA797  LYS798  CYS799  TRP800  GLU811  SER814 

> <Gold.Protein.RotatedAtoms>
  151.4812  135.1052  159.9777 H   0  0  0  0  0  0  0  0  0  0  0  0  # atno 6907 bound_to 6896
  152.4778  133.8177  159.7047 H   0  0  0  0  0  0  0  0  0  0  0  0  # atno 6908 bound_to 6896
  150.8828  133.7286  159.2953 H   0  0  0  0  0  0  0  0  0  0  0  0  # atno 6909 bound_to 6896
  145.2280  140.9160  143.3221 H   0  0  0  0  0  0  0  0  0  0  0  0  # atno 7974 bound_to 7965
  154.4507  140.1942  156.0527 H   0  0  0  0  0  0  0  0  0  0  0  0  # atno 8008 bound_to 7997
  156.0642  140.3293  155.7470 H   0  0  0  0  0  0  0  0  0  0  0  0  # atno 8009 bound_to 7997
  155.5365  140.0582  157.2869 H   0  0  0  0  0  0  0  0  0  0  0  0  # atno 8010 bound_to 7997
  140.4788  143.2407  151.8090 H   0  0  0  0  0  0  0  0  0  0  0  0  # atno 10167 bound_to 10162
  156.1229  130.4165  150.0409 H   0  0  0  0  0  0  0  0  0  0  0  0  # atno 10718 bound_to 10713
  154.8601  135.3574  154.5591 H   0  0  0  0  0  0  0  0  0  0  0  0  # atno 10763 bound_to 10752
  153.6207  135.7006  153.5316 H   0  0  0  0  0  0  0  0  0  0  0  0  # atno 10764 bound_to 10752
  153.3131  135.4173  155.1313 H   0  0  0  0  0  0  0  0  0  0  0  0  # atno 10765 bound_to 10752
  141.0274  133.6835  156.2512 H   0  0  0  0  0  0  0  0  0  0  0  0  # atno 11005 bound_to 11000
  144.9703  139.3887  143.6312 LP  0  0  0  0  0  0  0  0  0  0  0  0  # atno 17320 bound_to 7965
  146.3360  139.8797  142.8826 LP  0  0  0  0  0  0  0  0  0  0  0  0  # atno 17321 bound_to 7965
  139.4830  144.4799  151.9320 LP  0  0  0  0  0  0  0  0  0  0  0  0  # atno 17342 bound_to 10162
  140.3884  144.2647  150.5902 LP  0  0  0  0  0  0  0  0  0  0  0  0  # atno 17343 bound_to 10162
  156.8342  130.9403  151.3635 LP  0  0  0  0  0  0  0  0  0  0  0  0  # atno 17370 bound_to 10713
  157.6412  130.8807  149.9451 LP  0  0  0  0  0  0  0  0  0  0  0  0  # atno 17371 bound_to 10713
  140.6468  134.5109  157.5574 LP  0  0  0  0  0  0  0  0  0  0  0  0  # atno 17394 bound_to 11000
  139.9185  134.8197  156.1288 LP  0  0  0  0  0  0  0  0  0  0  0  0  # atno 17395 bound_to 11000

$$$$
