AV-unprocessed.smi:2764|AV-procd|sdf|10642|dock3
  -GOLD-   2272015 93D 1   1.00000     0.00000
 Structure written by MMmdl.
 47 49  0  0  0  0  0  0  0  0  2 V2000
  150.9974  141.6552  156.3578 O   0  0  0  0  0  0  0  0  0  0  0  0
  151.4178  140.5895  156.8082 C   0  0  0  0  0  0  0  0  0  0  0  0
  151.9244  140.4090  158.0407 N   0  0  0  0  0  0  0  0  0  0  0  0
  152.0990  141.3737  159.0684 C   0  0  0  0  0  0  0  0  0  0  0  0
  152.9447  140.9721  160.1272 C   0  0  0  0  0  0  0  0  0  0  0  0
  153.1861  141.8579  161.1954 C   0  0  0  0  0  0  0  0  0  0  0  0
  152.5740  143.1237  161.1748 C   0  0  0  0  0  0  0  0  0  0  0  0
  152.7768  144.0095  162.1786 F   0  0  0  0  0  0  0  0  0  0  0  0
  151.7448  143.4454  160.0845 C   0  0  0  0  0  0  0  0  0  0  0  0
  151.5123  142.5969  159.0603 N   0  0  0  0  0  0  0  0  0  0  0  0
  151.4201  139.4439  156.1110 N   0  0  0  0  0  0  0  0  0  0  0  0
  150.9527  139.2894  154.7335 C   0  0  2  0  0  0  0  0  0  0  0  0
  149.4154  139.2417  154.6471 C   0  0  0  0  0  0  0  0  0  0  0  0
  148.8462  137.9459  155.2506 C   0  0  0  0  0  0  0  0  0  0  0  0
  149.4368  136.7386  154.6136 N   0  3  2  0  0  0  0  0  0  0  0  0
  148.8035  135.4881  155.1116 C   0  0  0  0  0  0  0  0  0  0  0  0
  149.4870  134.2009  154.6007 C   0  0  2  0  0  0  0  0  0  0  0  0
  148.5970  133.3979  153.6683 C   0  0  0  0  0  0  0  0  0  0  0  0
  149.2188  132.0123  153.7477 C   0  0  0  0  0  0  0  0  0  0  0  0
  149.5411  131.8735  155.1218 O   0  0  0  0  0  0  0  0  0  0  0  0
  149.8356  133.1544  155.6724 C   0  0  0  0  0  0  0  0  0  0  0  0
  150.9205  136.7379  154.7234 C   0  0  0  0  0  0  0  0  0  0  0  0
  151.5347  138.0104  154.1112 C   0  0  0  0  0  0  0  0  0  0  0  0
  152.2269  139.4738  158.2697 H   0  0  0  0  0  0  0  0  0  0  0  0
  153.4078  139.9960  160.1253 H   0  0  0  0  0  0  0  0  0  0  0  0
  153.8300  141.5707  162.0139 H   0  0  0  0  0  0  0  0  0  0  0  0
  151.2562  144.4071  160.0314 H   0  0  0  0  0  0  0  0  0  0  0  0
  151.7897  138.6194  156.5610 H   0  0  0  0  0  0  0  0  0  0  0  0
  151.3136  140.1439  154.1577 H   0  0  0  0  0  0  0  0  0  0  0  0
  148.9741  140.1089  155.1398 H   0  0  0  0  0  0  0  0  0  0  0  0
  149.1148  139.3079  153.6005 H   0  0  0  0  0  0  0  0  0  0  0  0
  149.0278  137.9173  156.3261 H   0  0  0  0  0  0  0  0  0  0  0  0
  147.7639  137.9435  155.1144 H   0  0  0  0  0  0  0  0  0  0  0  0
  148.7295  135.4988  156.2001 H   0  0  0  0  0  0  0  0  0  0  0  0
  147.7756  135.4651  154.7464 H   0  0  0  0  0  0  0  0  0  0  0  0
  150.3925  134.4595  154.0491 H   0  0  0  0  0  0  0  0  0  0  0  0
  147.5735  133.3658  154.0451 H   0  0  0  0  0  0  0  0  0  0  0  0
  148.5742  133.7934  152.6526 H   0  0  0  0  0  0  0  0  0  0  0  0
  148.5451  131.2246  153.4101 H   0  0  0  0  0  0  0  0  0  0  0  0
  150.1332  131.9633  153.1543 H   0  0  0  0  0  0  0  0  0  0  0  0
  150.8888  133.2058  155.9495 H   0  0  0  0  0  0  0  0  0  0  0  0
  149.2411  133.2837  156.5774 H   0  0  0  0  0  0  0  0  0  0  0  0
  151.2097  136.6425  155.7712 H   0  0  0  0  0  0  0  0  0  0  0  0
  151.3391  135.8791  154.2045 H   0  0  0  0  0  0  0  0  0  0  0  0
  151.3430  138.0162  153.0372 H   0  0  0  0  0  0  0  0  0  0  0  0
  152.6196  137.9943  154.2238 H   0  0  0  0  0  0  0  0  0  0  0  0
  149.2121  136.8037  153.6309 H   0  0  0  0  0  0  0  0  0  0  0  0
  1  2  2  0  0  0  0
  2  3  1  0  0  0  0
  2 11  1  0  0  0  0
  3  4  1  0  0  0  0
  3 24  1  0  0  0  0
  4 10  1  0  0  0  0
  4  5  2  0  0  0  0
  5  6  1  0  0  0  0
  5 25  1  0  0  0  0
  6  7  2  0  0  0  0
  6 26  1  0  0  0  0
  7  8  1  0  0  0  0
  7  9  1  0  0  0  0
  9 10  2  0  0  0  0
  9 27  1  0  0  0  0
 11 12  1  0  0  0  0
 11 28  1  0  0  0  0
 12 23  1  0  0  0  0
 12 13  1  0  0  0  0
 12 29  1  0  0  0  0
 13 14  1  0  0  0  0
 13 30  1  0  0  0  0
 13 31  1  0  0  0  0
 14 15  1  0  0  0  0
 14 32  1  0  0  0  0
 14 33  1  0  0  0  0
 15 16  1  0  0  0  0
 15 22  1  0  0  0  0
 15 47  1  0  0  0  0
 16 17  1  0  0  0  0
 16 34  1  0  0  0  0
 16 35  1  0  0  0  0
 17 21  1  0  0  0  0
 17 18  1  0  0  0  0
 17 36  1  0  0  0  0
 18 19  1  0  0  0  0
 18 37  1  0  0  0  0
 18 38  1  0  0  0  0
 19 20  1  0  0  0  0
 19 39  1  0  0  0  0
 19 40  1  0  0  0  0
 20 21  1  0  0  0  0
 21 41  1  0  0  0  0
 21 42  1  0  0  0  0
 22 23  1  0  0  0  0
 22 43  1  0  0  0  0
 22 44  1  0  0  0  0
 23 45  1  0  0  0  0
 23 46  1  0  0  0  0
M  CHG  1  15   1
M  END
> <s_m_source_file>
AV-unprocessed.smi

> <i_m_source_file_index>
2764

> <i_lp_mmshare_version>
43012

> <i_f3d_flags>
0

> <s_epik_input>
bjFbY0hdYyhGKVtjSF1bY0hdYzFbTkhdQyg9TylbTkhdW0NIXTJbQ0gyXVtDSDJdTihbQ0gyXVtDSDJdMilbQ0gyXVtDQEBIXTNbQ0gyXVtDSDJdT1tDSDJdMw==

> <s_epik_cmdline>
J2VwaWtfcHl0aG9uJywgJy1waCcsICc3LjAnLCAnLXRuJywgJzgnLCAnLW1hJywgJzIwMCcsICctbWV0YWxfYmluZGluZycsICctaW1hZScsICc8aW5maWxlLm1hZT4nLCAnLW9tYWUnLCAnPG91dGZpbGUubWFlPic=

> <r_epik_Ionization_Penalty>
0.0075076

> <r_epik_Ionization_Penalty_Charging>
0.00747775

> <r_epik_Ionization_Penalty_Neutral>
2.98483e-05

> <r_epik_State_Penalty>
0.00558817

> <r_epik_Charging_Adjusted_Penalty>
0.0130659

> <i_epik_Tot_Q>
1

> <i_epik_Tot_abs_Q>
1

> <r_epik_Metal_State_Penalty>
-0

> <b_epik_Metal_Only>
0

> <s_lp_Force_Field>
OPLS_2005

> <r_lp_Energy>
37.0331

> <b_lp_Chiralities_Consistent>
1

> <s_lp_Variant>
AV-unprocessed.smi:2764-3

> <Gold.Version>
5.8.1

> <Gold.Id.Protein>
6NUR|6NUR_protein|mol2

> <Gold.PLP.Fitness>
47.1860

> <Gold.PLP.PLP>
-43.2770

> <Gold.PLP.part.hbond>
-1.0000

> <Gold.PLP.part.metal>
0.0000

> <Gold.PLP.part.buried>
-6.3812

> <Gold.PLP.part.nonpolar>
-35.5792

> <Gold.PLP.part.repulsive>
0.2827

> <Gold.PLP.ligand.clash>
0.0000

> <Gold.PLP.ligand.torsion>
1.0686

> <Gold.PLP.Chemscore.Hbond>
2.0000

> <Gold.PLP.Chemscore.CHOScore>
0.0000

> <Gold.PLP.Chemscore.Metal>
0.0000

> <Gold.Chemscore.Hbonds>
donor molecule, donor type, donor heavy atom, donor atom, acceptor molecule, acceptor atom, score
      L1  H    15    47       P1  7948  2.00

> <Gold.PLP.Chemscore.Internal.Correction>
0.0462

> <Gold.Rescore>
     Score         DG    S(hbond)    S(metal)    S(lipo)     H(rot)  DE(clash)    DE(int)     intcor
     14.05     -16.47       0.98        0.00      98.42       1.49       0.14       2.27       ----

> <Gold.Chemscore.Fitness>
14.0541

> <Gold.Chemscore.DG>
-16.4665

> <Gold.Chemscore.ZeroCoef>
-5.4800

> <Gold.Chemscore.Hbond>
0.9829

> <Gold.Chemscore.Metal>
0.0000

> <Gold.Chemscore.Lipo>
98.4244

> <Gold.Chemscore.Internal_Hbond>
0.0000

> <Gold.Chemscore.DEClash>
0.1374

> <Gold.Chemscore.DEInternal>
2.2749

> <Gold.Chemscore.Rot>
1.4891

> <Gold.Chemscore.Internal.Correction>
   9.000000E+99

> <Gold.Chemscore.Hbonds>
donor molecule, donor type, donor heavy atom, donor atom, acceptor molecule, acceptor atom, score
      L1  H    15    47       P1  7948  0.98

> <Gold.Chemscore.Hbond.Weighted>
-3.2829

> <Gold.Chemscore.Metal.Weighted>
-0.0000

> <Gold.Chemscore.Lipo.Weighted>
-11.5157

> <Gold.Chemscore.Internal_Hbond.Weighted>
0.0000

> <Gold.Chemscore.DEClash.Weighted>
0.1374

> <Gold.Chemscore.DEInternal.Weighted>
2.2749

> <Gold.Chemscore.Rot.Weighted>
3.8121

> <Gold.Chemscore.Internal.Correction.Weighted>
   9.000000E+99

> <Gold.Protein.RotatedTorsions>
[ 6907 6896 6895 6894 ] final  -50.53 input  -60.11 | X-H torsion
[ 7974 7965 7964 7962 ] final   10.38 input  175.53 | X-H torsion
[ 8008 7997 7996 7995 ] final  -90.65 input   59.86 | X-H torsion
[ 10167 10162 10161 10158 ] final   95.15 input  -65.29 | X-H torsion
[ 10718 10713 10712 10709 ] final   23.05 input   66.30 | X-H torsion
[ 10763 10752 10751 10750 ] final -116.86 input  -60.55 | X-H torsion
[ 11005 11000 10999 10996 ] final  -16.91 input  -57.11 | X-H torsion

> <Gold.Protein.ActiveResidues>
 VAL166  LYS551  ARG553  GLY616  TRP617  ASP618  TYR619  PRO620  LYS621  CYS622 
 ASP623  PHE694  ASN695  SER759  ASP760  ASP761  ALA762  ILE779  LEU786  VAL792 
 PHE793  MET794  SER795  GLU796  ALA797  LYS798  CYS799  TRP800  GLU811  SER814 

> <Gold.Protein.RotatedAtoms>
  150.8698  134.8069  159.7145 H   0  0  0  0  0  0  0  0  0  0  0  0  # atno 6907 bound_to 6896
  152.4707  134.4965  159.9721 H   0  0  0  0  0  0  0  0  0  0  0  0  # atno 6908 bound_to 6896
  151.5055  133.3457  159.2911 H   0  0  0  0  0  0  0  0  0  0  0  0  # atno 6909 bound_to 6896
  146.2389  139.9642  142.8455 H   0  0  0  0  0  0  0  0  0  0  0  0  # atno 7974 bound_to 7965
  154.7012  140.0528  157.0460 H   0  0  0  0  0  0  0  0  0  0  0  0  # atno 8008 bound_to 7997
  155.0682  140.3197  155.4620 H   0  0  0  0  0  0  0  0  0  0  0  0  # atno 8009 bound_to 7997
  156.2760  140.2086  156.5810 H   0  0  0  0  0  0  0  0  0  0  0  0  # atno 8010 bound_to 7997
  139.8016  144.6811  150.9758 H   0  0  0  0  0  0  0  0  0  0  0  0  # atno 10167 bound_to 10162
  157.1607  130.6716  149.6043 H   0  0  0  0  0  0  0  0  0  0  0  0  # atno 10718 bound_to 10713
  154.8534  135.4330  154.1888 H   0  0  0  0  0  0  0  0  0  0  0  0  # atno 10763 bound_to 10752
  153.2961  135.6965  153.7253 H   0  0  0  0  0  0  0  0  0  0  0  0  # atno 10764 bound_to 10752
  153.6401  135.3469  155.3043 H   0  0  0  0  0  0  0  0  0  0  0  0  # atno 10765 bound_to 10752
  140.8115  133.8137  155.9568 H   0  0  0  0  0  0  0  0  0  0  0  0  # atno 11005 bound_to 11000
  145.1742  140.9736  143.4304 LP  0  0  0  0  0  0  0  0  0  0  0  0  # atno 17320 bound_to 7965
  145.0001  139.3607  143.6172 LP  0  0  0  0  0  0  0  0  0  0  0  0  # atno 17321 bound_to 7965
  140.7820  143.4276  151.0744 LP  0  0  0  0  0  0  0  0  0  0  0  0  # atno 17342 bound_to 10162
  139.7948  143.8167  152.3156 LP  0  0  0  0  0  0  0  0  0  0  0  0  # atno 17343 bound_to 10162
  155.9754  130.4712  150.6458 LP  0  0  0  0  0  0  0  0  0  0  0  0  # atno 17370 bound_to 10713
  157.4135  131.0827  151.1199 LP  0  0  0  0  0  0  0  0  0  0  0  0  # atno 17371 bound_to 10713
  140.9192  134.2163  157.4937 LP  0  0  0  0  0  0  0  0  0  0  0  0  # atno 17394 bound_to 11000
  139.8714  134.9785  156.4999 LP  0  0  0  0  0  0  0  0  0  0  0  0  # atno 17395 bound_to 11000

$$$$
