AV-unprocessed.smi:2900|AV-procd|sdf|11148|dock7
  -GOLD-   2272016 23D 1   1.00000     0.00000
 Structure written by MMmdl.
 35 36  0  0  0  0  0  0  0  0  1 V2000
  152.8697  139.0806  159.8268 O   0  0  0  0  0  0  0  0  0  0  0  0
  152.6551  140.2861  159.7053 C   0  0  0  0  0  0  0  0  0  0  0  0
  153.5226  141.3154  160.2726 C   0  0  0  0  0  0  0  0  0  0  0  0
  153.2541  142.6305  160.1264 C   0  0  0  0  0  0  0  0  0  0  0  0
  152.0711  143.0417  159.3893 C   0  0  0  0  0  0  0  0  0  0  0  0
  151.6842  144.4835  159.1705 C   0  0  0  0  0  0  0  0  0  0  0  0
  152.5563  145.0988  158.3715 F   0  0  0  0  0  0  0  0  0  0  0  0
  150.4758  144.5524  158.6110 F   0  0  0  0  0  0  0  0  0  0  0  0
  151.6480  145.1306  160.3358 F   0  0  0  0  0  0  0  0  0  0  0  0
  151.2979  142.1344  158.8857 N   0  0  0  0  0  0  0  0  0  0  0  0
  151.5826  140.7865  159.0252 N   0  0  0  0  0  0  0  0  0  0  0  0
  150.6106  139.8968  158.3763 C   0  0  0  0  0  0  0  0  0  0  0  0
  149.6071  140.6534  157.4766 C   0  0  1  0  0  0  0  0  0  0  0  0
  150.3592  141.5150  156.6469 O   0  0  0  0  0  0  0  0  0  0  0  0
  148.7693  139.7278  156.5763 C   0  0  0  0  0  0  0  0  0  0  0  0
  148.5876  140.3572  155.3151 O   0  0  0  0  0  0  0  0  0  0  0  0
  147.6524  141.3651  155.2177 C   0  0  0  0  0  0  0  0  0  0  0  0
  147.5464  142.0205  153.9735 C   0  0  0  0  0  0  0  0  0  0  0  0
  146.6181  143.0624  153.7835 C   0  0  0  0  0  0  0  0  0  0  0  0
  145.7828  143.4620  154.8428 C   0  0  0  0  0  0  0  0  0  0  0  0
  145.8783  142.8176  156.0900 C   0  0  0  0  0  0  0  0  0  0  0  0
  146.8061  141.7747  156.2797 C   0  0  0  0  0  0  0  0  0  0  0  0
  154.4026  141.0143  160.8218 H   0  0  0  0  0  0  0  0  0  0  0  0
  153.9105  143.3735  160.5540 H   0  0  0  0  0  0  0  0  0  0  0  0
  151.1496  139.1527  157.7867 H   0  0  0  0  0  0  0  0  0  0  0  0
  150.0653  139.3236  159.1292 H   0  0  0  0  0  0  0  0  0  0  0  0
  148.9473  141.2624  158.0953 H   0  0  0  0  0  0  0  0  0  0  0  0
  149.8715  141.6618  155.8507 H   0  0  0  0  0  0  0  0  0  0  0  0
  149.2449  138.7505  156.4746 H   0  0  0  0  0  0  0  0  0  0  0  0
  147.7846  139.5752  157.0181 H   0  0  0  0  0  0  0  0  0  0  0  0
  148.1835  141.7203  153.1547 H   0  0  0  0  0  0  0  0  0  0  0  0
  146.5476  143.5546  152.8247 H   0  0  0  0  0  0  0  0  0  0  0  0
  145.0708  144.2613  154.6991 H   0  0  0  0  0  0  0  0  0  0  0  0
  145.2383  143.1235  156.9044 H   0  0  0  0  0  0  0  0  0  0  0  0
  146.8487  141.3058  157.2508 H   0  0  0  0  0  0  0  0  0  0  0  0
  1  2  2  0  0  0  0
  2 11  1  0  0  0  0
  2  3  1  0  0  0  0
  3  4  2  0  0  0  0
  3 23  1  0  0  0  0
  4  5  1  0  0  0  0
  4 24  1  0  0  0  0
  5  6  1  0  0  0  0
  5 10  2  0  0  0  0
  6  7  1  0  0  0  0
  6  8  1  0  0  0  0
  6  9  1  0  0  0  0
 10 11  1  0  0  0  0
 11 12  1  0  0  0  0
 12 13  1  0  0  0  0
 12 25  1  0  0  0  0
 12 26  1  0  0  0  0
 13 14  1  0  0  0  0
 13 15  1  0  0  0  0
 13 27  1  0  0  0  0
 14 28  1  0  0  0  0
 15 16  1  0  0  0  0
 15 29  1  0  0  0  0
 15 30  1  0  0  0  0
 16 17  1  0  0  0  0
 17 22  1  0  0  0  0
 17 18  2  0  0  0  0
 18 19  1  0  0  0  0
 18 31  1  0  0  0  0
 19 20  2  0  0  0  0
 19 32  1  0  0  0  0
 20 21  1  0  0  0  0
 20 33  1  0  0  0  0
 21 22  2  0  0  0  0
 21 34  1  0  0  0  0
 22 35  1  0  0  0  0
M  END
> <s_m_source_file>
AV-unprocessed.smi

> <i_m_source_file_index>
2900

> <i_lp_mmshare_version>
43012

> <i_f3d_flags>
0

> <s_epik_input>
Tz1jMVtjSF1bY0hdYyhDKEYpKEYpRilubjFbQ0gyXVtDQEhdKFtPSF0pW0NIMl1PYzJbY0hdW2NIXVtjSF1bY0hdW2NIXTI=

> <s_epik_cmdline>
J2VwaWtfcHl0aG9uJywgJy1waCcsICc3LjAnLCAnLXRuJywgJzgnLCAnLW1hJywgJzIwMCcsICctbWV0YWxfYmluZGluZycsICctaW1hZScsICc8aW5maWxlLm1hZT4nLCAnLW9tYWUnLCAnPG91dGZpbGUubWFlPic=

> <r_lp_tautomer_probability>
1

> <r_epik_Ionization_Penalty>
1.22578e-07

> <r_epik_Ionization_Penalty_Charging>
5.40425e-09

> <r_epik_Ionization_Penalty_Neutral>
1.17174e-07

> <r_epik_State_Penalty>
-0

> <r_epik_Charging_Adjusted_Penalty>
5.40425e-09

> <i_epik_Tot_Q>
0

> <i_epik_Tot_abs_Q>
0

> <r_epik_Metal_State_Penalty>
-0

> <b_epik_Metal_Only>
0

> <s_lp_Force_Field>
OPLS_2005

> <r_lp_Energy>
32.4131

> <b_lp_Chiralities_Consistent>
1

> <s_lp_Variant>
AV-unprocessed.smi:2900-2

> <Gold.Version>
5.8.1

> <Gold.Id.Protein>
6NUR|6NUR_protein|mol2

> <Gold.PLP.Fitness>
44.2332

> <Gold.PLP.PLP>
-46.0090

> <Gold.PLP.part.hbond>
0.0000

> <Gold.PLP.part.metal>
0.0000

> <Gold.PLP.part.buried>
-8.1020

> <Gold.PLP.part.nonpolar>
-38.9040

> <Gold.PLP.part.repulsive>
0.0455

> <Gold.PLP.ligand.clash>
0.0000

> <Gold.PLP.ligand.torsion>
0.9070

> <Gold.PLP.Chemscore.Hbond>
0.0000

> <Gold.PLP.Chemscore.CHOScore>
0.0000

> <Gold.PLP.Chemscore.Metal>
0.0000

> <Gold.PLP.Chemscore.Internal.Correction>
0.0382

> <Gold.Rescore>
     Score         DG    S(hbond)    S(metal)    S(lipo)     H(rot)  DE(clash)    DE(int)     intcor
      7.76      -8.44       0.00        0.00      82.95       2.63       0.01       0.68       ----

> <Gold.Chemscore.Fitness>
7.7577

> <Gold.Chemscore.DG>
-8.4429

> <Gold.Chemscore.ZeroCoef>
-5.4800

> <Gold.Chemscore.Hbond>
0.0000

> <Gold.Chemscore.Metal>
0.0000

> <Gold.Chemscore.Lipo>
82.9477

> <Gold.Chemscore.Internal_Hbond>
0.0000

> <Gold.Chemscore.DEClash>
0.0052

> <Gold.Chemscore.DEInternal>
0.6800

> <Gold.Chemscore.Rot>
2.6336

> <Gold.Chemscore.Internal.Correction>
   9.000000E+99

> <Gold.Chemscore.Hbond.Weighted>
-0.0000

> <Gold.Chemscore.Metal.Weighted>
-0.0000

> <Gold.Chemscore.Lipo.Weighted>
-9.7049

> <Gold.Chemscore.Internal_Hbond.Weighted>
0.0000

> <Gold.Chemscore.DEClash.Weighted>
0.0052

> <Gold.Chemscore.DEInternal.Weighted>
0.6800

> <Gold.Chemscore.Rot.Weighted>
6.7420

> <Gold.Chemscore.Internal.Correction.Weighted>
   9.000000E+99

> <Gold.Protein.RotatedTorsions>
[ 6907 6896 6895 6894 ] final   26.57 input  -60.11 | X-H torsion
[ 7974 7965 7964 7962 ] final  153.44 input  175.53 | X-H torsion
[ 8008 7997 7996 7995 ] final  150.48 input   59.86 | X-H torsion
[ 10167 10162 10161 10158 ] final   60.77 input  -65.29 | X-H torsion
[ 10718 10713 10712 10709 ] final   63.38 input   66.30 | X-H torsion
[ 10763 10752 10751 10750 ] final  -36.37 input  -60.55 | X-H torsion
[ 11005 11000 10999 10996 ] final   48.02 input  -57.11 | X-H torsion

> <Gold.Protein.ActiveResidues>
 VAL166  LYS551  ARG553  GLY616  TRP617  ASP618  TYR619  PRO620  LYS621  CYS622 
 ASP623  PHE694  ASN695  SER759  ASP760  ASP761  ALA762  ILE779  LEU786  VAL792 
 PHE793  MET794  SER795  GLU796  ALA797  LYS798  CYS799  TRP800  GLU811  SER814 

> <Gold.Protein.RotatedAtoms>
  151.9895  134.9987  160.0560 H   0  0  0  0  0  0  0  0  0  0  0  0  # atno 6907 bound_to 6896
  152.1622  133.4584  159.4875 H   0  0  0  0  0  0  0  0  0  0  0  0  # atno 6908 bound_to 6896
  150.6889  134.1975  159.4352 H   0  0  0  0  0  0  0  0  0  0  0  0  # atno 6909 bound_to 6896
  144.8154  139.6801  143.6123 H   0  0  0  0  0  0  0  0  0  0  0  0  # atno 7974 bound_to 7965
  156.2714  140.2074  156.6023 H   0  0  0  0  0  0  0  0  0  0  0  0  # atno 8008 bound_to 7997
  154.6897  140.0531  157.0374 H   0  0  0  0  0  0  0  0  0  0  0  0  # atno 8009 bound_to 7997
  155.0884  140.3194  155.4584 H   0  0  0  0  0  0  0  0  0  0  0  0  # atno 8010 bound_to 7997
  140.1620  144.4361  150.6704 H   0  0  0  0  0  0  0  0  0  0  0  0  # atno 10167 bound_to 10162
  157.5967  130.9102  149.9708 H   0  0  0  0  0  0  0  0  0  0  0  0  # atno 10718 bound_to 10713
  153.8787  135.6824  153.4768 H   0  0  0  0  0  0  0  0  0  0  0  0  # atno 10763 bound_to 10752
  153.1246  135.4724  154.9249 H   0  0  0  0  0  0  0  0  0  0  0  0  # atno 10764 bound_to 10752
  154.7679  135.3230  154.8200 H   0  0  0  0  0  0  0  0  0  0  0  0  # atno 10765 bound_to 10752
  140.1227  134.4808  155.8584 H   0  0  0  0  0  0  0  0  0  0  0  0  # atno 11005 bound_to 11000
  146.2457  139.6093  142.9461 LP  0  0  0  0  0  0  0  0  0  0  0  0  # atno 17320 bound_to 7965
  145.5226  141.0431  143.2427 LP  0  0  0  0  0  0  0  0  0  0  0  0  # atno 17321 bound_to 7965
  140.6637  143.2260  151.5795 LP  0  0  0  0  0  0  0  0  0  0  0  0  # atno 17342 bound_to 10162
  139.5377  144.2735  152.1285 LP  0  0  0  0  0  0  0  0  0  0  0  0  # atno 17343 bound_to 10162
  156.1031  130.3654  150.0182 LP  0  0  0  0  0  0  0  0  0  0  0  0  # atno 17370 bound_to 10713
  156.8294  130.9387  151.3638 LP  0  0  0  0  0  0  0  0  0  0  0  0  # atno 17371 bound_to 10713
  141.2155  133.6766  156.6920 LP  0  0  0  0  0  0  0  0  0  0  0  0  # atno 17394 bound_to 11000
  140.2944  134.8215  157.4044 LP  0  0  0  0  0  0  0  0  0  0  0  0  # atno 17395 bound_to 11000

$$$$
