AV-unprocessed.smi:2759|AV-procd|sdf|10627|dock3
  -GOLD-   2272015 73D 1   1.00000     0.00000
 Structure written by MMmdl.
 43 44  0  0  0  0  0  0  0  0  1 V2000
  150.6734  144.6464  159.0334 C   0  0  0  0  0  0  0  0  0  0  0  0
  151.1226  143.2033  159.3298 C   0  0  0  0  0  0  0  0  0  0  0  0
  152.6446  143.1946  159.5718 C   0  0  0  0  0  0  0  0  0  0  0  0
  150.7109  142.2038  158.2157 C   0  0  1  0  0  0  0  0  0  0  0  0
  150.8813  142.8340  156.9589 O   0  0  0  0  0  0  0  0  0  0  0  0
  151.5424  140.9020  158.1923 C   0  0  0  0  0  0  0  0  0  0  0  0
  151.3842  140.1277  156.9240 C   0  0  0  0  0  0  0  0  0  0  0  0
  150.2972  139.4849  156.5044 N   0  0  0  0  0  0  0  0  0  0  0  0
  150.7463  138.9439  155.3376 C   0  0  0  0  0  0  0  0  0  0  0  0
  149.8803  138.1139  154.4416 C   0  0  0  0  0  0  0  0  0  0  0  0
  149.4959  136.7798  155.0928 C   0  0  0  0  0  0  0  0  0  0  0  0
  149.7673  136.5530  156.2729 O   0  0  0  0  0  0  0  0  0  0  0  0
  148.8637  135.8975  154.3033 N   0  0  0  0  0  0  0  0  0  0  0  0
  148.4017  134.5760  154.7207 C   0  0  0  0  0  0  0  0  0  0  0  0
  149.5922  133.6608  155.0666 C   0  0  0  0  0  0  0  0  0  0  0  0
  149.3420  132.3435  154.3304 C   0  0  0  0  0  0  0  0  0  0  0  0
  148.5469  132.7479  153.0933 C   0  0  0  0  0  0  0  0  0  0  0  0
  147.6315  133.8678  153.5885 C   0  0  0  0  0  0  0  0  0  0  0  0
  152.0200  139.1805  155.0428 N   0  0  0  0  0  0  0  0  0  0  0  0
  152.4581  139.9748  156.1121 O   0  0  0  0  0  0  0  0  0  0  0  0
  151.0441  144.9860  158.0657 H   0  0  0  0  0  0  0  0  0  0  0  0
  151.0487  145.3359  159.7902 H   0  0  0  0  0  0  0  0  0  0  0  0
  149.5891  144.7482  159.0347 H   0  0  0  0  0  0  0  0  0  0  0  0
  150.6415  142.8954  160.2597 H   0  0  0  0  0  0  0  0  0  0  0  0
  153.1903  143.4640  158.6670 H   0  0  0  0  0  0  0  0  0  0  0  0
  152.9996  142.2161  159.8957 H   0  0  0  0  0  0  0  0  0  0  0  0
  152.9233  143.9057  160.3500 H   0  0  0  0  0  0  0  0  0  0  0  0
  149.6554  141.9565  158.3389 H   0  0  0  0  0  0  0  0  0  0  0  0
  150.2061  143.4874  156.8548 H   0  0  0  0  0  0  0  0  0  0  0  0
  152.5997  141.1166  158.3542 H   0  0  0  0  0  0  0  0  0  0  0  0
  151.2410  140.2353  158.9982 H   0  0  0  0  0  0  0  0  0  0  0  0
  148.9834  138.6801  154.1851 H   0  0  0  0  0  0  0  0  0  0  0  0
  150.4066  137.9127  153.5081 H   0  0  0  0  0  0  0  0  0  0  0  0
  148.6811  136.1620  153.3461 H   0  0  0  0  0  0  0  0  0  0  0  0
  147.7551  134.6701  155.5954 H   0  0  0  0  0  0  0  0  0  0  0  0
  150.5287  134.0936  154.7107 H   0  0  0  0  0  0  0  0  0  0  0  0
  149.6965  133.5112  156.1418 H   0  0  0  0  0  0  0  0  0  0  0  0
  150.2646  131.8169  154.0849 H   0  0  0  0  0  0  0  0  0  0  0  0
  148.7372  131.6835  154.9537 H   0  0  0  0  0  0  0  0  0  0  0  0
  149.2244  133.1356  152.3313 H   0  0  0  0  0  0  0  0  0  0  0  0
  147.9942  131.9153  152.6572 H   0  0  0  0  0  0  0  0  0  0  0  0
  146.7183  133.4316  153.9956 H   0  0  0  0  0  0  0  0  0  0  0  0
  147.3315  134.5365  152.7804 H   0  0  0  0  0  0  0  0  0  0  0  0
  1  2  1  0  0  0  0
  1 21  1  0  0  0  0
  1 22  1  0  0  0  0
  1 23  1  0  0  0  0
  2  3  1  0  0  0  0
  2  4  1  0  0  0  0
  2 24  1  0  0  0  0
  3 25  1  0  0  0  0
  3 26  1  0  0  0  0
  3 27  1  0  0  0  0
  4  5  1  0  0  0  0
  4  6  1  0  0  0  0
  4 28  1  0  0  0  0
  5 29  1  0  0  0  0
  6  7  1  0  0  0  0
  6 30  1  0  0  0  0
  6 31  1  0  0  0  0
  7 20  1  0  0  0  0
  7  8  2  0  0  0  0
  8  9  1  0  0  0  0
  9 10  1  0  0  0  0
  9 19  2  0  0  0  0
 10 11  1  0  0  0  0
 10 32  1  0  0  0  0
 10 33  1  0  0  0  0
 11 12  2  0  0  0  0
 11 13  1  0  0  0  0
 13 14  1  0  0  0  0
 13 34  1  0  0  0  0
 14 18  1  0  0  0  0
 14 15  1  0  0  0  0
 14 35  1  0  0  0  0
 15 16  1  0  0  0  0
 15 36  1  0  0  0  0
 15 37  1  0  0  0  0
 16 17  1  0  0  0  0
 16 38  1  0  0  0  0
 16 39  1  0  0  0  0
 17 18  1  0  0  0  0
 17 40  1  0  0  0  0
 17 41  1  0  0  0  0
 18 42  1  0  0  0  0
 18 43  1  0  0  0  0
 19 20  1  0  0  0  0
M  END
> <s_m_source_file>
AV-unprocessed.smi

> <i_m_source_file_index>
2759

> <i_lp_mmshare_version>
43012

> <i_f3d_flags>
0

> <s_epik_input>
W0NIM11bQ0hdKFtDSDNdKVtDQEhdKFtPSF0pW0NIMl1jMW5jKG5vMSlbQ0gyXUMoPU8pW05IXVtDSF0yW0NIMl1bQ0gyXVtDSDJdW0NIMl0y

> <s_epik_cmdline>
J2VwaWtfcHl0aG9uJywgJy1waCcsICc3LjAnLCAnLXRuJywgJzgnLCAnLW1hJywgJzIwMCcsICctbWV0YWxfYmluZGluZycsICctaW1hZScsICc8aW5maWxlLm1hZT4nLCAnLW9tYWUnLCAnPG91dGZpbGUubWFlPic=

> <r_lp_tautomer_probability>
1

> <r_epik_Ionization_Penalty>
1.20032e-07

> <r_epik_Ionization_Penalty_Charging>
0

> <r_epik_Ionization_Penalty_Neutral>
1.20032e-07

> <r_epik_State_Penalty>
-0

> <r_epik_Charging_Adjusted_Penalty>
0

> <i_epik_Tot_Q>
0

> <i_epik_Tot_abs_Q>
0

> <r_epik_Metal_State_Penalty>
-0

> <b_epik_Metal_Only>
0

> <s_lp_Force_Field>
OPLS_2005

> <r_lp_Energy>
21.2868

> <b_lp_Chiralities_Consistent>
1

> <s_lp_Variant>
AV-unprocessed.smi:2759-2

> <Gold.Version>
5.8.1

> <Gold.Id.Protein>
6NUR|6NUR_protein|mol2

> <Gold.PLP.Fitness>
45.3565

> <Gold.PLP.PLP>
-36.0303

> <Gold.PLP.part.hbond>
-4.5254

> <Gold.PLP.part.metal>
0.0000

> <Gold.PLP.part.buried>
-1.9376

> <Gold.PLP.part.nonpolar>
-29.8069

> <Gold.PLP.part.repulsive>
0.0881

> <Gold.PLP.ligand.clash>
0.0000

> <Gold.PLP.ligand.torsion>
0.7694

> <Gold.PLP.Chemscore.Hbond>
3.6048

> <Gold.PLP.Chemscore.CHOScore>
0.0000

> <Gold.PLP.Chemscore.Metal>
0.0000

> <Gold.Chemscore.Hbonds>
donor molecule, donor type, donor heavy atom, donor atom, acceptor molecule, acceptor atom, score
      L1  H     5    29       P1  8028  0.68
      L1  H    13    34       P1  7948  0.93
      P1  H  7989  7998       L1    19  0.25
      P1  H  7997  8008       L1    20  1.00

> <Gold.PLP.Chemscore.Internal.Correction>
0.0507

> <Gold.Rescore>
     Score         DG    S(hbond)    S(metal)    S(lipo)     H(rot)  DE(clash)    DE(int)     intcor
     15.27     -17.63       2.92        0.00      78.59       2.65       0.62       1.74       ----

> <Gold.Chemscore.Fitness>
15.2675

> <Gold.Chemscore.DG>
-17.6336

> <Gold.Chemscore.ZeroCoef>
-5.4800

> <Gold.Chemscore.Hbond>
2.9203

> <Gold.Chemscore.Metal>
0.0000

> <Gold.Chemscore.Lipo>
78.5887

> <Gold.Chemscore.Internal_Hbond>
0.0000

> <Gold.Chemscore.DEClash>
0.6226

> <Gold.Chemscore.DEInternal>
1.7435

> <Gold.Chemscore.Rot>
2.6543

> <Gold.Chemscore.Internal.Correction>
   9.000000E+99

> <Gold.Chemscore.Hbonds>
donor molecule, donor type, donor heavy atom, donor atom, acceptor molecule, acceptor atom, score
      L1  H     5    29       P1  8028  0.67
      L1  H    13    34       P1  7948  0.86
      P1  H  7989  7998       L1    19  0.01
      P1  H  7997  8008       L1    20  0.94

> <Gold.Chemscore.Hbond.Weighted>
-9.7537

> <Gold.Chemscore.Metal.Weighted>
-0.0000

> <Gold.Chemscore.Lipo.Weighted>
-9.1949

> <Gold.Chemscore.Internal_Hbond.Weighted>
0.0000

> <Gold.Chemscore.DEClash.Weighted>
0.6226

> <Gold.Chemscore.DEInternal.Weighted>
1.7435

> <Gold.Chemscore.Rot.Weighted>
6.7950

> <Gold.Chemscore.Internal.Correction.Weighted>
   9.000000E+99

> <Gold.Protein.RotatedTorsions>
[ 6907 6896 6895 6894 ] final -132.96 input  -60.11 | X-H torsion
[ 7974 7965 7964 7962 ] final    8.01 input  175.53 | X-H torsion
[ 8008 7997 7996 7995 ] final  -43.07 input   59.86 | X-H torsion
[ 10167 10162 10161 10158 ] final   33.43 input  -65.29 | X-H torsion
[ 10718 10713 10712 10709 ] final -167.18 input   66.30 | X-H torsion
[ 10763 10752 10751 10750 ] final   93.51 input  -60.55 | X-H torsion
[ 11005 11000 10999 10996 ] final  -26.04 input  -57.11 | X-H torsion

> <Gold.Protein.ActiveResidues>
 VAL166  LYS551  ARG553  GLY616  TRP617  ASP618  TYR619  PRO620  LYS621  CYS622 
 ASP623  PHE694  ASN695  SER759  ASP760  ASP761  ALA762  ILE779  LEU786  VAL792 
 PHE793  MET794  SER795  GLU796  ALA797  LYS798  CYS799  TRP800  GLU811  SER814 

> <Gold.Protein.RotatedAtoms>
  150.9685  133.6369  159.2741 H   0  0  0  0  0  0  0  0  0  0  0  0  # atno 6907 bound_to 6896
  151.3667  135.0913  159.9462 H   0  0  0  0  0  0  0  0  0  0  0  0  # atno 6908 bound_to 6896
  152.5174  133.9247  159.7606 H   0  0  0  0  0  0  0  0  0  0  0  0  # atno 6909 bound_to 6896
  146.2421  139.9997  142.8417 H   0  0  0  0  0  0  0  0  0  0  0  0  # atno 7974 bound_to 7965
  154.3997  140.1457  156.3459 H   0  0  0  0  0  0  0  0  0  0  0  0  # atno 8008 bound_to 7997
  155.8314  140.3465  155.5553 H   0  0  0  0  0  0  0  0  0  0  0  0  # atno 8009 bound_to 7997
  155.8184  140.0894  157.1854 H   0  0  0  0  0  0  0  0  0  0  0  0  # atno 8010 bound_to 7997
  140.4408  144.1190  150.6174 H   0  0  0  0  0  0  0  0  0  0  0  0  # atno 10167 bound_to 10162
  156.6786  130.9113  151.3054 H   0  0  0  0  0  0  0  0  0  0  0  0  # atno 10718 bound_to 10713
  153.2311  135.4323  155.0596 H   0  0  0  0  0  0  0  0  0  0  0  0  # atno 10763 bound_to 10752
  154.8297  135.3379  154.6786 H   0  0  0  0  0  0  0  0  0  0  0  0  # atno 10764 bound_to 10752
  153.7213  135.7017  153.5068 H   0  0  0  0  0  0  0  0  0  0  0  0  # atno 10765 bound_to 10752
  140.8993  133.7535  156.0523 H   0  0  0  0  0  0  0  0  0  0  0  0  # atno 11005 bound_to 11000
  145.1427  140.9580  143.4479 LP  0  0  0  0  0  0  0  0  0  0  0  0  # atno 17320 bound_to 7965
  145.0280  139.3365  143.6039 LP  0  0  0  0  0  0  0  0  0  0  0  0  # atno 17321 bound_to 7965
  140.4320  143.2564  151.9583 LP  0  0  0  0  0  0  0  0  0  0  0  0  # atno 17342 bound_to 10162
  139.4789  144.5735  151.8050 LP  0  0  0  0  0  0  0  0  0  0  0  0  # atno 17343 bound_to 10162
  157.7052  130.9376  150.0907 LP  0  0  0  0  0  0  0  0  0  0  0  0  # atno 17370 bound_to 10713
  156.1884  130.3653  149.8942 LP  0  0  0  0  0  0  0  0  0  0  0  0  # atno 17371 bound_to 10713
  140.8250  134.3245  157.5369 LP  0  0  0  0  0  0  0  0  0  0  0  0  # atno 17394 bound_to 11000
  139.8740  134.9331  156.3571 LP  0  0  0  0  0  0  0  0  0  0  0  0  # atno 17395 bound_to 11000

$$$$
