AV-unprocessed.smi:861|AV-procd|sdf|3971|dock7
  -GOLD-   22720 1443D 1   1.00000     0.00000
 Structure written by MMmdl.
 43 44  0  0  0  0  0  0  0  0  1 V2000
  152.5084  144.7089  158.6786 C   0  0  0  0  0  0  0  0  0  0  0  0
  151.7438  143.7382  159.5950 C   0  0  0  0  0  0  0  0  0  0  0  0
  152.2198  143.8927  161.0477 C   0  0  0  0  0  0  0  0  0  0  0  0
  151.8621  142.2702  159.1353 C   0  0  0  0  0  0  0  0  0  0  0  0
  151.2812  142.0069  157.7316 C   0  0  0  0  0  0  0  0  0  0  0  0
  151.3416  140.6150  157.2851 N   0  0  0  0  0  0  0  0  0  0  0  0
  150.5280  140.4180  156.0904 C   0  0  0  0  0  0  0  0  0  0  0  0
  150.5681  138.9613  155.6017 C   0  0  0  0  0  0  0  0  0  0  0  0
  150.1456  138.1012  156.6536 O   0  0  0  0  0  0  0  0  0  0  0  0
  150.9517  138.2107  157.8243 C   0  0  2  0  0  0  0  0  0  0  0  0
  150.4204  137.2413  158.8942 C   0  0  0  0  0  0  0  0  0  0  0  0
  148.9854  137.3854  159.1122 N   0  0  0  0  0  0  0  0  0  0  0  0
  148.3130  136.6039  160.0632 C   0  0  0  0  0  0  0  0  0  0  0  0
  148.2940  135.2042  159.9000 C   0  0  0  0  0  0  0  0  0  0  0  0
  147.6174  134.4426  160.8684 C   0  0  0  0  0  0  0  0  0  0  0  0
  147.0119  135.1397  161.9298 C   0  0  0  0  0  0  0  0  0  0  0  0
  147.0640  136.4860  162.0401 N   0  0  0  0  0  0  0  0  0  0  0  0
  147.7098  137.2085  161.1178 N   0  0  0  0  0  0  0  0  0  0  0  0
  150.9035  139.6725  158.3134 C   0  0  0  0  0  0  0  0  0  0  0  0
  153.5683  144.4566  158.6303 H   0  0  0  0  0  0  0  0  0  0  0  0
  152.4291  145.7334  159.0434 H   0  0  0  0  0  0  0  0  0  0  0  0
  152.1159  144.7021  157.6623 H   0  0  0  0  0  0  0  0  0  0  0  0
  150.6891  144.0152  159.5709 H   0  0  0  0  0  0  0  0  0  0  0  0
  153.2708  143.6207  161.1507 H   0  0  0  0  0  0  0  0  0  0  0  0
  151.6438  143.2581  161.7219 H   0  0  0  0  0  0  0  0  0  0  0  0
  152.1065  144.9211  161.3921 H   0  0  0  0  0  0  0  0  0  0  0  0
  152.9071  141.9586  159.1654 H   0  0  0  0  0  0  0  0  0  0  0  0
  151.3397  141.6476  159.8610 H   0  0  0  0  0  0  0  0  0  0  0  0
  150.2502  142.3615  157.6909 H   0  0  0  0  0  0  0  0  0  0  0  0
  151.8349  142.6165  157.0180 H   0  0  0  0  0  0  0  0  0  0  0  0
  149.4938  140.6983  156.2966 H   0  0  0  0  0  0  0  0  0  0  0  0
  150.8754  141.0743  155.2917 H   0  0  0  0  0  0  0  0  0  0  0  0
  149.9057  138.8290  154.7461 H   0  0  0  0  0  0  0  0  0  0  0  0
  151.5728  138.6876  155.2765 H   0  0  0  0  0  0  0  0  0  0  0  0
  151.9835  137.9491  157.5808 H   0  0  0  0  0  0  0  0  0  0  0  0
  150.5837  136.2170  158.5582 H   0  0  0  0  0  0  0  0  0  0  0  0
  150.9793  137.3428  159.8251 H   0  0  0  0  0  0  0  0  0  0  0  0
  148.5449  138.2350  158.7908 H   0  0  0  0  0  0  0  0  0  0  0  0
  148.7794  134.7278  159.0607 H   0  0  0  0  0  0  0  0  0  0  0  0
  147.5644  133.3663  160.8014 H   0  0  0  0  0  0  0  0  0  0  0  0
  146.4781  134.6100  162.7047 H   0  0  0  0  0  0  0  0  0  0  0  0
  151.5341  139.7588  159.1972 H   0  0  0  0  0  0  0  0  0  0  0  0
  149.8878  139.9167  158.6283 H   0  0  0  0  0  0  0  0  0  0  0  0
  1  2  1  0  0  0  0
  1 20  1  0  0  0  0
  1 21  1  0  0  0  0
  1 22  1  0  0  0  0
  2  3  1  0  0  0  0
  2  4  1  0  0  0  0
  2 23  1  0  0  0  0
  3 24  1  0  0  0  0
  3 25  1  0  0  0  0
  3 26  1  0  0  0  0
  4  5  1  0  0  0  0
  4 27  1  0  0  0  0
  4 28  1  0  0  0  0
  5  6  1  0  0  0  0
  5 29  1  0  0  0  0
  5 30  1  0  0  0  0
  6 19  1  0  0  0  0
  6  7  1  0  0  0  0
  7  8  1  0  0  0  0
  7 31  1  0  0  0  0
  7 32  1  0  0  0  0
  8  9  1  0  0  0  0
  8 33  1  0  0  0  0
  8 34  1  0  0  0  0
  9 10  1  0  0  0  0
 10 11  1  0  0  0  0
 10 19  1  0  0  0  0
 10 35  1  0  0  0  0
 11 12  1  0  0  0  0
 11 36  1  0  0  0  0
 11 37  1  0  0  0  0
 12 13  1  0  0  0  0
 12 38  1  0  0  0  0
 13 18  1  0  0  0  0
 13 14  2  0  0  0  0
 14 15  1  0  0  0  0
 14 39  1  0  0  0  0
 15 16  2  0  0  0  0
 15 40  1  0  0  0  0
 16 17  1  0  0  0  0
 16 41  1  0  0  0  0
 17 18  2  0  0  0  0
 19 42  1  0  0  0  0
 19 43  1  0  0  0  0
M  END
> <s_m_source_file>
AV-unprocessed.smi

> <i_m_source_file_index>
861

> <i_lp_mmshare_version>
43012

> <i_f3d_flags>
0

> <s_epik_input>
W0NIM11bQ0hdKFtDSDNdKVtDSDJdW0NIMl1OMVtDSDJdW0NIMl1PW0NASF0oW0NIMl0xKVtDSDJdW05IXWMyW2NIXVtjSF1bY0hdbm4y

> <s_epik_cmdline>
J2VwaWtfcHl0aG9uJywgJy1waCcsICc3LjAnLCAnLXRuJywgJzgnLCAnLW1hJywgJzIwMCcsICctbWV0YWxfYmluZGluZycsICctaW1hZScsICc8aW5maWxlLm1hZT4nLCAnLW9tYWUnLCAnPG91dGZpbGUubWFlPic=

> <r_lp_tautomer_probability>
0.999978

> <r_epik_Ionization_Penalty>
1.1508

> <r_epik_Ionization_Penalty_Charging>
0

> <r_epik_Ionization_Penalty_Neutral>
1.1508

> <r_epik_State_Penalty>
1.22808

> <r_epik_Charging_Adjusted_Penalty>
1.22808

> <i_epik_Tot_Q>
0

> <i_epik_Tot_abs_Q>
0

> <r_epik_Metal_State_Penalty>
1.22149

> <b_epik_Metal_Only>
0

> <s_lp_Force_Field>
OPLS_2005

> <r_lp_Energy>
31.1204

> <b_lp_Chiralities_Consistent>
1

> <s_lp_Variant>
AV-unprocessed.smi:861-6

> <Gold.Version>
5.8.1

> <Gold.Id.Protein>
6NUR|6NUR_protein|mol2

> <Gold.PLP.Fitness>
39.4252

> <Gold.PLP.PLP>
-35.4365

> <Gold.PLP.part.hbond>
-2.0000

> <Gold.PLP.part.metal>
0.0000

> <Gold.PLP.part.buried>
-5.2655

> <Gold.PLP.part.nonpolar>
-28.7055

> <Gold.PLP.part.repulsive>
0.2064

> <Gold.PLP.ligand.clash>
0.0000

> <Gold.PLP.ligand.torsion>
0.7220

> <Gold.PLP.Chemscore.Hbond>
1.7920

> <Gold.PLP.Chemscore.CHOScore>
0.0000

> <Gold.PLP.Chemscore.Metal>
0.0000

> <Gold.Chemscore.Hbonds>
donor molecule, donor type, donor heavy atom, donor atom, acceptor molecule, acceptor atom, score
      P1  H  6931  6943       L1    18  0.91
      P1  H  6934  6947       L1    18  0.86

> <Gold.PLP.Chemscore.Internal.Correction>
0.0567

> <Gold.Rescore>
     Score         DG    S(hbond)    S(metal)    S(lipo)     H(rot)  DE(clash)    DE(int)     intcor
     16.13     -16.88       1.27        0.00      97.52       1.66       0.04       0.71       ----

> <Gold.Chemscore.Fitness>
16.1335

> <Gold.Chemscore.DG>
-16.8807

> <Gold.Chemscore.ZeroCoef>
-5.4800

> <Gold.Chemscore.Hbond>
1.2688

> <Gold.Chemscore.Metal>
0.0000

> <Gold.Chemscore.Lipo>
97.5236

> <Gold.Chemscore.Internal_Hbond>
0.0000

> <Gold.Chemscore.DEClash>
0.0383

> <Gold.Chemscore.DEInternal>
0.7089

> <Gold.Chemscore.Rot>
1.6591

> <Gold.Chemscore.Internal.Correction>
   9.000000E+99

> <Gold.Chemscore.Hbonds>
donor molecule, donor type, donor heavy atom, donor atom, acceptor molecule, acceptor atom, score
      P1  H  6931  6943       L1    18  0.35
      P1  H  6934  6947       L1    18  0.77

> <Gold.Chemscore.Hbond.Weighted>
-4.2379

> <Gold.Chemscore.Metal.Weighted>
-0.0000

> <Gold.Chemscore.Lipo.Weighted>
-11.4103

> <Gold.Chemscore.Internal_Hbond.Weighted>
0.0000

> <Gold.Chemscore.DEClash.Weighted>
0.0383

> <Gold.Chemscore.DEInternal.Weighted>
0.7089

> <Gold.Chemscore.Rot.Weighted>
4.2474

> <Gold.Chemscore.Internal.Correction.Weighted>
   9.000000E+99

> <Gold.Protein.RotatedTorsions>
[ 6907 6896 6895 6894 ] final  143.28 input  -60.11 | X-H torsion
[ 7974 7965 7964 7962 ] final   99.29 input  175.53 | X-H torsion
[ 8008 7997 7996 7995 ] final -120.10 input   59.86 | X-H torsion
[ 10167 10162 10161 10158 ] final  -58.49 input  -65.29 | X-H torsion
[ 10718 10713 10712 10709 ] final -123.58 input   66.30 | X-H torsion
[ 10763 10752 10751 10750 ] final  -47.52 input  -60.55 | X-H torsion
[ 11005 11000 10999 10996 ] final  130.01 input  -57.11 | X-H torsion

> <Gold.Protein.ActiveResidues>
 VAL166  LYS551  ARG553  GLY616  TRP617  ASP618  TYR619  PRO620  LYS621  CYS622 
 ASP623  PHE694  ASN695  SER759  ASP760  ASP761  ALA762  ILE779  LEU786  VAL792 
 PHE793  MET794  SER795  GLU796  ALA797  LYS798  CYS799  TRP800  GLU811  SER814 

> <Gold.Protein.RotatedAtoms>
  152.2082  133.4891  159.5095 H   0  0  0  0  0  0  0  0  0  0  0  0  # atno 6907 bound_to 6896
  150.6984  134.1502  159.4146 H   0  0  0  0  0  0  0  0  0  0  0  0  # atno 6908 bound_to 6896
  151.9421  135.0208  160.0587 H   0  0  0  0  0  0  0  0  0  0  0  0  # atno 6909 bound_to 6896
  145.4009  139.2348  143.3301 H   0  0  0  0  0  0  0  0  0  0  0  0  # atno 7974 bound_to 7965
  155.1263  140.0399  157.2763 H   0  0  0  0  0  0  0  0  0  0  0  0  # atno 8008 bound_to 7997
  154.6576  140.2583  155.7119 H   0  0  0  0  0  0  0  0  0  0  0  0  # atno 8009 bound_to 7997
  156.2605  140.2823  156.1035 H   0  0  0  0  0  0  0  0  0  0  0  0  # atno 8010 bound_to 7997
  140.6194  143.2414  151.5517 H   0  0  0  0  0  0  0  0  0  0  0  0  # atno 10167 bound_to 10162
  156.1514  130.6537  150.9919 H   0  0  0  0  0  0  0  0  0  0  0  0  # atno 10718 bound_to 10713
  154.0627  135.6616  153.4814 H   0  0  0  0  0  0  0  0  0  0  0  0  # atno 10763 bound_to 10752
  153.0421  135.5138  154.7643 H   0  0  0  0  0  0  0  0  0  0  0  0  # atno 10764 bound_to 10752
  154.6685  135.3026  154.9741 H   0  0  0  0  0  0  0  0  0  0  0  0  # atno 10765 bound_to 10752
  139.9648  134.9593  156.9232 H   0  0  0  0  0  0  0  0  0  0  0  0  # atno 11005 bound_to 11000
  146.2752  140.4706  142.8798 LP  0  0  0  0  0  0  0  0  0  0  0  0  # atno 17320 bound_to 7965
  144.8375  140.6805  143.6251 LP  0  0  0  0  0  0  0  0  0  0  0  0  # atno 17321 bound_to 7965
  139.5426  144.2607  152.1380 LP  0  0  0  0  0  0  0  0  0  0  0  0  # atno 17342 bound_to 10162
  140.1824  144.4832  150.6521 LP  0  0  0  0  0  0  0  0  0  0  0  0  # atno 17343 bound_to 10162
  157.6660  131.0871  150.7727 LP  0  0  0  0  0  0  0  0  0  0  0  0  # atno 17370 bound_to 10713
  156.7795  130.4854  149.5403 LP  0  0  0  0  0  0  0  0  0  0  0  0  # atno 17371 bound_to 10713
  140.5421  134.0710  155.7344 LP  0  0  0  0  0  0  0  0  0  0  0  0  # atno 17394 bound_to 11000
  141.1327  133.9275  157.2501 LP  0  0  0  0  0  0  0  0  0  0  0  0  # atno 17395 bound_to 11000

$$$$
