AV-unprocessed.smi:1356|AV-procd|sdf|5540|dock2
  -GOLD-   22720 5133D 1   1.00000     0.00000
 Structure written by MMmdl.
 41 42  0  0  0  0  0  0  0  0  1 V2000
  147.6504  133.1670  152.7821 C   0  0  0  0  0  0  0  0  0  0  0  0
  148.9663  133.4720  153.4649 C   0  0  2  0  0  0  0  0  0  0  0  0
  149.5553  132.5176  154.4752 C   0  0  0  0  0  0  0  0  0  0  0  0
  148.9984  133.8494  154.9343 C   0  0  1  0  0  0  0  0  0  0  0  0
  149.9788  134.8892  155.3690 C   0  0  0  0  0  0  0  0  0  0  0  0
  150.5556  134.8579  156.4569 O   0  0  0  0  0  0  0  0  0  0  0  0
  150.1624  135.8698  154.4720 N   0  0  0  0  0  0  0  0  0  0  0  0
  151.0231  137.0379  154.6541 C   0  0  0  0  0  0  0  0  0  0  0  0
  150.3746  138.3591  154.1822 C   0  0  0  0  0  0  0  0  0  0  0  0
  150.7317  139.5609  155.0629 C   0  0  0  0  0  0  0  0  0  0  0  0
  151.8433  140.0828  154.9760 O   0  0  0  0  0  0  0  0  0  0  0  0
  149.7702  140.0010  155.8887 N   0  0  0  0  0  0  0  0  0  0  0  0
  149.8736  141.1795  156.7397 C   0  0  0  0  0  0  0  0  0  0  0  0
  151.1617  141.1501  157.5798 C   0  0  0  0  0  0  0  0  0  0  0  0
  151.4317  142.4768  158.2633 C   0  0  0  0  0  0  0  0  0  0  0  0
  152.5928  142.6620  159.0438 C   0  0  0  0  0  0  0  0  0  0  0  0
  152.8001  143.9156  159.6510 C   0  0  0  0  0  0  0  0  0  0  0  0
  151.8439  144.9307  159.4550 C   0  0  0  0  0  0  0  0  0  0  0  0
  150.7185  144.6459  158.6561 C   0  0  0  0  0  0  0  0  0  0  0  0
  150.5104  143.4473  158.0694 N   0  0  0  0  0  0  0  0  0  0  0  0
  146.9637  132.6699  153.4678 H   0  0  0  0  0  0  0  0  0  0  0  0
  147.8167  132.5159  151.9237 H   0  0  0  0  0  0  0  0  0  0  0  0
  147.1871  134.0904  152.4341 H   0  0  0  0  0  0  0  0  0  0  0  0
  149.6822  133.9657  152.8097 H   0  0  0  0  0  0  0  0  0  0  0  0
  148.9857  131.6289  154.7385 H   0  0  0  0  0  0  0  0  0  0  0  0
  150.6355  132.3822  154.4640 H   0  0  0  0  0  0  0  0  0  0  0  0
  148.0540  133.8172  155.4761 H   0  0  0  0  0  0  0  0  0  0  0  0
  149.6490  135.8172  153.6039 H   0  0  0  0  0  0  0  0  0  0  0  0
  151.3083  137.1184  155.7041 H   0  0  0  0  0  0  0  0  0  0  0  0
  151.9467  136.8622  154.1017 H   0  0  0  0  0  0  0  0  0  0  0  0
  150.6621  138.5625  153.1495 H   0  0  0  0  0  0  0  0  0  0  0  0
  149.2898  138.2498  154.1764 H   0  0  0  0  0  0  0  0  0  0  0  0
  148.8890  139.5076  155.8969 H   0  0  0  0  0  0  0  0  0  0  0  0
  149.8701  142.0611  156.0980 H   0  0  0  0  0  0  0  0  0  0  0  0
  148.9953  141.2584  157.3826 H   0  0  0  0  0  0  0  0  0  0  0  0
  151.1003  140.3702  158.3405 H   0  0  0  0  0  0  0  0  0  0  0  0
  152.0126  140.8920  156.9476 H   0  0  0  0  0  0  0  0  0  0  0  0
  153.3090  141.8642  159.1741 H   0  0  0  0  0  0  0  0  0  0  0  0
  153.6768  144.0954  160.2556 H   0  0  0  0  0  0  0  0  0  0  0  0
  151.9700  145.9043  159.9050 H   0  0  0  0  0  0  0  0  0  0  0  0
  149.9659  145.4007  158.4833 H   0  0  0  0  0  0  0  0  0  0  0  0
  1  2  1  0  0  0  0
  1 21  1  0  0  0  0
  1 22  1  0  0  0  0
  1 23  1  0  0  0  0
  2  4  1  0  0  0  0
  2  3  1  0  0  0  0
  2 24  1  0  0  0  0
  3  4  1  0  0  0  0
  3 25  1  0  0  0  0
  3 26  1  0  0  0  0
  4  5  1  0  0  0  0
  4 27  1  0  0  0  0
  5  6  2  0  0  0  0
  5  7  1  0  0  0  0
  7  8  1  0  0  0  0
  7 28  1  0  0  0  0
  8  9  1  0  0  0  0
  8 29  1  0  0  0  0
  8 30  1  0  0  0  0
  9 10  1  0  0  0  0
  9 31  1  0  0  0  0
  9 32  1  0  0  0  0
 10 11  2  0  0  0  0
 10 12  1  0  0  0  0
 12 13  1  0  0  0  0
 12 33  1  0  0  0  0
 13 14  1  0  0  0  0
 13 34  1  0  0  0  0
 13 35  1  0  0  0  0
 14 15  1  0  0  0  0
 14 36  1  0  0  0  0
 14 37  1  0  0  0  0
 15 20  1  0  0  0  0
 15 16  2  0  0  0  0
 16 17  1  0  0  0  0
 16 38  1  0  0  0  0
 17 18  2  0  0  0  0
 17 39  1  0  0  0  0
 18 19  1  0  0  0  0
 18 40  1  0  0  0  0
 19 20  2  0  0  0  0
 19 41  1  0  0  0  0
M  END
> <s_m_source_file>
AV-unprocessed.smi

> <i_m_source_file_index>
1356

> <i_lp_mmshare_version>
43012

> <i_f3d_flags>
0

> <s_epik_input>
W0NIM11bQ0BASF0xW0NIMl1bQ0BIXTFDKD1PKVtOSF1bQ0gyXVtDSDJdQyg9TylbTkhdW0NIMl1bQ0gyXWMyW2NIXVtjSF1bY0hdW2NIXW4y

> <s_epik_cmdline>
J2VwaWtfcHl0aG9uJywgJy1waCcsICc3LjAnLCAnLXRuJywgJzgnLCAnLW1hJywgJzIwMCcsICctbWV0YWxfYmluZGluZycsICctaW1hZScsICc8aW5maWxlLm1hZT4nLCAnLW9tYWUnLCAnPG91dGZpbGUubWFlPic=

> <r_epik_Ionization_Penalty>
0.0258005

> <r_epik_Ionization_Penalty_Charging>
0

> <r_epik_Ionization_Penalty_Neutral>
0.0258005

> <r_epik_State_Penalty>
0.0210245

> <r_epik_Charging_Adjusted_Penalty>
0.0210245

> <i_epik_Tot_Q>
0

> <i_epik_Tot_abs_Q>
0

> <r_epik_Metal_State_Penalty>
0.0201445

> <b_epik_Metal_Only>
0

> <s_lp_Force_Field>
OPLS_2005

> <r_lp_Energy>
2.94754

> <b_lp_Chiralities_Consistent>
1

> <s_lp_Variant>
AV-unprocessed.smi:1356-1

> <Gold.Version>
5.8.1

> <Gold.Id.Protein>
6NUR|6NUR_protein|mol2

> <Gold.PLP.Fitness>
48.8139

> <Gold.PLP.PLP>
-42.5592

> <Gold.PLP.part.hbond>
-2.6501

> <Gold.PLP.part.metal>
0.0000

> <Gold.PLP.part.buried>
-4.3266

> <Gold.PLP.part.nonpolar>
-37.2066

> <Gold.PLP.part.repulsive>
0.3552

> <Gold.PLP.ligand.clash>
0.0000

> <Gold.PLP.ligand.torsion>
1.1632

> <Gold.PLP.Chemscore.Hbond>
1.8120

> <Gold.PLP.Chemscore.CHOScore>
1.0000

> <Gold.PLP.Chemscore.Metal>
0.0000

> <Gold.Chemscore.Hbonds>
donor molecule, donor type, donor heavy atom, donor atom, acceptor molecule, acceptor atom, score
      L1  H     7    28       P1  7948  0.90
      P1  H  7989  7998       L1    11  0.91
      L1  C    19    41       P1  8029  1.00

> <Gold.PLP.Chemscore.Internal.Correction>
0.1452

> <Gold.Rescore>
     Score         DG    S(hbond)    S(metal)    S(lipo)     H(rot)  DE(clash)    DE(int)     intcor
     14.69     -17.04       1.62        0.00     100.22       2.18       0.00       2.34       ----

> <Gold.Chemscore.Fitness>
14.6933

> <Gold.Chemscore.DG>
-17.0361

> <Gold.Chemscore.ZeroCoef>
-5.4800

> <Gold.Chemscore.Hbond>
1.6163

> <Gold.Chemscore.Metal>
0.0000

> <Gold.Chemscore.Lipo>
100.2241

> <Gold.Chemscore.Internal_Hbond>
0.0000

> <Gold.Chemscore.DEClash>
0.0000

> <Gold.Chemscore.DEInternal>
2.3428

> <Gold.Chemscore.Rot>
2.1753

> <Gold.Chemscore.Internal.Correction>
   9.000000E+99

> <Gold.Chemscore.Hbonds>
donor molecule, donor type, donor heavy atom, donor atom, acceptor molecule, acceptor atom, score
      L1  H     7    28       P1  7948  0.18
      P1  H  7989  7998       L1    11  0.23

> <Gold.Chemscore.Hbond.Weighted>
-5.3985

> <Gold.Chemscore.Metal.Weighted>
-0.0000

> <Gold.Chemscore.Lipo.Weighted>
-11.7262

> <Gold.Chemscore.Internal_Hbond.Weighted>
0.0000

> <Gold.Chemscore.DEClash.Weighted>
0.0000

> <Gold.Chemscore.DEInternal.Weighted>
2.3428

> <Gold.Chemscore.Rot.Weighted>
5.5687

> <Gold.Chemscore.Internal.Correction.Weighted>
   9.000000E+99

> <Gold.Protein.RotatedTorsions>
[ 6907 6896 6895 6894 ] final -147.67 input  -60.11 | X-H torsion
[ 7974 7965 7964 7962 ] final -153.45 input  175.53 | X-H torsion
[ 8008 7997 7996 7995 ] final   10.65 input   59.86 | X-H torsion
[ 10167 10162 10161 10158 ] final -138.15 input  -65.29 | X-H torsion
[ 10718 10713 10712 10709 ] final  -12.36 input   66.30 | X-H torsion
[ 10763 10752 10751 10750 ] final  -91.84 input  -60.55 | X-H torsion
[ 11005 11000 10999 10996 ] final    3.05 input  -57.11 | X-H torsion

> <Gold.Protein.ActiveResidues>
 VAL166  LYS551  ARG553  GLY616  TRP617  ASP618  TYR619  PRO620  LYS621  CYS622 
 ASP623  PHE694  ASN695  SER759  ASP760  ASP761  ALA762  ILE779  LEU786  VAL792 
 PHE793  MET794  SER795  GLU796  ALA797  LYS798  CYS799  TRP800  GLU811  SER814 

> <Gold.Protein.RotatedAtoms>
  151.1589  133.4858  159.2594 H   0  0  0  0  0  0  0  0  0  0  0  0  # atno 6907 bound_to 6896
  151.1475  135.0210  159.8663 H   0  0  0  0  0  0  0  0  0  0  0  0  # atno 6908 bound_to 6896
  152.5463  134.1477  159.8558 H   0  0  0  0  0  0  0  0  0  0  0  0  # atno 6909 bound_to 6896
  144.7740  140.4523  143.5887 H   0  0  0  0  0  0  0  0  0  0  0  0  # atno 7974 bound_to 7965
  154.7962  140.2844  155.5955 H   0  0  0  0  0  0  0  0  0  0  0  0  # atno 8008 bound_to 7997
  156.2971  140.2595  156.2749 H   0  0  0  0  0  0  0  0  0  0  0  0  # atno 8009 bound_to 7997
  154.9612  140.0377  157.2180 H   0  0  0  0  0  0  0  0  0  0  0  0  # atno 8010 bound_to 7997
  139.8506  143.7203  152.2658 H   0  0  0  0  0  0  0  0  0  0  0  0  # atno 10167 bound_to 10162
  156.6457  130.4940  149.6079 H   0  0  0  0  0  0  0  0  0  0  0  0  # atno 10718 bound_to 10713
  154.6801  135.5253  153.8252 H   0  0  0  0  0  0  0  0  0  0  0  0  # atno 10763 bound_to 10752
  153.0559  135.6550  154.0588 H   0  0  0  0  0  0  0  0  0  0  0  0  # atno 10764 bound_to 10752
  154.0477  135.2972  155.3325 H   0  0  0  0  0  0  0  0  0  0  0  0  # atno 10765 bound_to 10752
  140.5974  133.9868  155.8116 H   0  0  0  0  0  0  0  0  0  0  0  0  # atno 11005 bound_to 11000
  145.6240  139.1527  143.3006 LP  0  0  0  0  0  0  0  0  0  0  0  0  # atno 17320 bound_to 7965
  146.1907  140.6349  142.9147 LP  0  0  0  0  0  0  0  0  0  0  0  0  # atno 17321 bound_to 7965
  139.7469  144.7545  151.0566 LP  0  0  0  0  0  0  0  0  0  0  0  0  # atno 17342 bound_to 10162
  140.7788  143.4906  150.9898 LP  0  0  0  0  0  0  0  0  0  0  0  0  # atno 17343 bound_to 10162
  156.2124  130.6687  151.1283 LP  0  0  0  0  0  0  0  0  0  0  0  0  # atno 17370 bound_to 10713
  157.7157  131.0711  150.6336 LP  0  0  0  0  0  0  0  0  0  0  0  0  # atno 17371 bound_to 10713
  141.0895  133.9939  157.3260 LP  0  0  0  0  0  0  0  0  0  0  0  0  # atno 17394 bound_to 11000
  139.9247  135.0201  156.8192 LP  0  0  0  0  0  0  0  0  0  0  0  0  # atno 17395 bound_to 11000

$$$$
