AV-unprocessed.smi:2146|AV-procd|sdf|8740|dock6
  -GOLD-   2272011513D 1   1.00000     0.00000
 Structure written by MMmdl.
 45 46  0  0  0  0  0  0  0  0  2 V2000
  147.7405  137.8571  154.5709 C   0  0  0  0  0  0  0  0  0  0  0  0
  146.9194  136.5488  154.6898 C   0  0  2  0  0  0  0  0  0  0  0  0
  147.6374  135.5511  155.6341 C   0  0  0  0  0  0  0  0  0  0  0  0
  147.7785  136.0750  156.9881 N   0  0  0  0  0  0  0  0  0  0  0  0
  148.4706  135.4743  157.9666 C   0  0  0  0  0  0  0  0  0  0  0  0
  149.0515  134.3988  157.8134 O   0  0  0  0  0  0  0  0  0  0  0  0
  148.4954  136.2094  159.3152 C   0  0  0  0  0  0  0  0  0  0  0  0
  147.8318  135.4737  160.4052 N   0  0  0  0  0  0  0  0  0  0  0  0
  147.5643  134.1082  160.1849 C   0  0  0  0  0  0  0  0  0  0  0  0
  146.9721  133.3194  161.1024 C   0  0  0  0  0  0  0  0  0  0  0  0
  146.6451  131.8621  160.8149 C   0  0  0  0  0  0  0  0  0  0  0  0
  145.3494  131.6144  161.0083 F   0  0  0  0  0  0  0  0  0  0  0  0
  146.9499  131.5385  159.5574 F   0  0  0  0  0  0  0  0  0  0  0  0
  147.3446  131.0717  161.6278 F   0  0  0  0  0  0  0  0  0  0  0  0
  146.5830  133.9563  162.3452 C   0  0  0  0  0  0  0  0  0  0  0  0
  146.8266  135.2623  162.5701 C   0  0  0  0  0  0  0  0  0  0  0  0
  147.4924  136.1013  161.5711 C   0  0  0  0  0  0  0  0  0  0  0  0
  147.7298  137.2930  161.7690 O   0  0  0  0  0  0  0  0  0  0  0  0
  146.6335  135.9072  153.3633 N   0  3  0  0  0  0  0  0  0  0  0  0
  146.1590  134.5014  153.4942 C   0  0  0  0  0  0  0  0  0  0  0  0
  145.9505  133.8532  152.1160 C   0  0  0  0  0  0  0  0  0  0  0  0
  145.0168  134.6187  151.3700 O   0  0  0  0  0  0  0  0  0  0  0  0
  145.4943  135.9348  151.1374 C   0  0  0  0  0  0  0  0  0  0  0  0
  145.7035  136.6620  152.4771 C   0  0  0  0  0  0  0  0  0  0  0  0
  147.9677  138.2869  155.5461 H   0  0  0  0  0  0  0  0  0  0  0  0
  147.1974  138.6336  154.0321 H   0  0  0  0  0  0  0  0  0  0  0  0
  148.6898  137.6865  154.0618 H   0  0  0  0  0  0  0  0  0  0  0  0
  145.9616  136.8181  155.1381 H   0  0  0  0  0  0  0  0  0  0  0  0
  147.0952  134.6094  155.7049 H   0  0  0  0  0  0  0  0  0  0  0  0
  148.6281  135.3150  155.2421 H   0  0  0  0  0  0  0  0  0  0  0  0
  147.3270  136.9552  157.1925 H   0  0  0  0  0  0  0  0  0  0  0  0
  149.5324  136.4236  159.5805 H   0  0  0  0  0  0  0  0  0  0  0  0
  148.0305  137.1873  159.1813 H   0  0  0  0  0  0  0  0  0  0  0  0
  147.8746  133.7400  159.2179 H   0  0  0  0  0  0  0  0  0  0  0  0
  146.0927  133.3751  163.1123 H   0  0  0  0  0  0  0  0  0  0  0  0
  146.5260  135.7026  163.5095 H   0  0  0  0  0  0  0  0  0  0  0  0
  146.8690  133.8924  154.0496 H   0  0  0  0  0  0  0  0  0  0  0  0
  145.2224  134.4834  154.0536 H   0  0  0  0  0  0  0  0  0  0  0  0
  146.8946  133.7709  151.5747 H   0  0  0  0  0  0  0  0  0  0  0  0
  145.5614  132.8416  152.2326 H   0  0  0  0  0  0  0  0  0  0  0  0
  146.4211  135.9029  150.5622 H   0  0  0  0  0  0  0  0  0  0  0  0
  144.7639  136.4710  150.5310 H   0  0  0  0  0  0  0  0  0  0  0  0
  144.7461  136.7989  152.9824 H   0  0  0  0  0  0  0  0  0  0  0  0
  146.0990  137.6510  152.2489 H   0  0  0  0  0  0  0  0  0  0  0  0
  147.5147  135.8741  152.8704 H   0  0  0  0  0  0  0  0  0  0  0  0
  1  2  1  0  0  0  0
  1 25  1  0  0  0  0
  1 26  1  0  0  0  0
  1 27  1  0  0  0  0
  2  3  1  0  0  0  0
  2 19  1  0  0  0  0
  2 28  1  0  0  0  0
  3  4  1  0  0  0  0
  3 29  1  0  0  0  0
  3 30  1  0  0  0  0
  4  5  1  0  0  0  0
  4 31  1  0  0  0  0
  5  6  2  0  0  0  0
  5  7  1  0  0  0  0
  7  8  1  0  0  0  0
  7 32  1  0  0  0  0
  7 33  1  0  0  0  0
  8 17  1  0  0  0  0
  8  9  1  0  0  0  0
  9 10  2  0  0  0  0
  9 34  1  0  0  0  0
 10 11  1  0  0  0  0
 10 15  1  0  0  0  0
 11 12  1  0  0  0  0
 11 13  1  0  0  0  0
 11 14  1  0  0  0  0
 15 16  2  0  0  0  0
 15 35  1  0  0  0  0
 16 17  1  0  0  0  0
 16 36  1  0  0  0  0
 17 18  2  0  0  0  0
 19 24  1  0  0  0  0
 19 20  1  0  0  0  0
 19 45  1  0  0  0  0
 20 21  1  0  0  0  0
 20 37  1  0  0  0  0
 20 38  1  0  0  0  0
 21 22  1  0  0  0  0
 21 39  1  0  0  0  0
 21 40  1  0  0  0  0
 22 23  1  0  0  0  0
 23 24  1  0  0  0  0
 23 41  1  0  0  0  0
 23 42  1  0  0  0  0
 24 43  1  0  0  0  0
 24 44  1  0  0  0  0
M  CHG  1  19   1
M  END
> <s_m_source_file>
AV-unprocessed.smi

> <i_m_source_file_index>
2146

> <i_lp_mmshare_version>
43012

> <i_f3d_flags>
0

> <s_epik_input>
W0NIMl0xW0NIMl1PW0NIMl1bQ0gyXU4xW0NASF0oW0NIM10pW0NIMl1bTkhdQyg9TylbQ0gyXW4yW2NIXWMoQyhGKShGKUYpW2NIXVtjSF1jMj1P

> <s_epik_cmdline>
J2VwaWtfcHl0aG9uJywgJy1waCcsICc3LjAnLCAnLXRuJywgJzgnLCAnLW1hJywgJzIwMCcsICctbWV0YWxfYmluZGluZycsICctaW1hZScsICc8aW5maWxlLm1hZT4nLCAnLW9tYWUnLCAnPG91dGZpbGUubWFlPic=

> <r_lp_tautomer_probability>
1

> <r_epik_Ionization_Penalty>
0.656654

> <r_epik_Ionization_Penalty_Charging>
0.656653

> <r_epik_Ionization_Penalty_Neutral>
9.12373e-08

> <r_epik_State_Penalty>
0.675641

> <r_epik_Charging_Adjusted_Penalty>
1.33229

> <i_epik_Tot_Q>
1

> <i_epik_Tot_abs_Q>
1

> <r_epik_Metal_State_Penalty>
0.675692

> <b_epik_Metal_Only>
0

> <s_lp_Force_Field>
OPLS_2005

> <r_lp_Energy>
33.6044

> <b_lp_Chiralities_Consistent>
1

> <s_lp_Variant>
AV-unprocessed.smi:2146-3

> <Gold.Version>
5.8.1

> <Gold.Id.Protein>
6NUR|6NUR_protein|mol2

> <Gold.PLP.Fitness>
48.6368

> <Gold.PLP.PLP>
-37.3674

> <Gold.PLP.part.hbond>
-4.0000

> <Gold.PLP.part.metal>
0.0000

> <Gold.PLP.part.buried>
-4.1842

> <Gold.PLP.part.nonpolar>
-29.4124

> <Gold.PLP.part.repulsive>
0.1201

> <Gold.PLP.ligand.clash>
1.2419

> <Gold.PLP.ligand.torsion>
0.5508

> <Gold.PLP.Chemscore.Hbond>
4.5040

> <Gold.PLP.Chemscore.CHOScore>
0.0000

> <Gold.PLP.Chemscore.Metal>
0.0000

> <Gold.Chemscore.Hbonds>
donor molecule, donor type, donor heavy atom, donor atom, acceptor molecule, acceptor atom, score
      L1  H    19    45       P1  7948  2.00
      P1  H  6896  6908       L1     6  0.47
      P1  H  6931  6943       L1    18  0.98
      P1  H  6934  6947       L1    18  0.66

> <Gold.PLP.Chemscore.Internal.Correction>
0.1009

> <Gold.Rescore>
     Score         DG    S(hbond)    S(metal)    S(lipo)     H(rot)  DE(clash)    DE(int)     intcor
     17.00     -18.65       3.56        0.00      58.56       2.18       0.01       1.64       ----

> <Gold.Chemscore.Fitness>
16.9998

> <Gold.Chemscore.DG>
-18.6499

> <Gold.Chemscore.ZeroCoef>
-5.4800

> <Gold.Chemscore.Hbond>
3.5629

> <Gold.Chemscore.Metal>
0.0000

> <Gold.Chemscore.Lipo>
58.5650

> <Gold.Chemscore.Internal_Hbond>
0.0000

> <Gold.Chemscore.DEClash>
0.0126

> <Gold.Chemscore.DEInternal>
1.6374

> <Gold.Chemscore.Rot>
2.1805

> <Gold.Chemscore.Internal.Correction>
   9.000000E+99

> <Gold.Chemscore.Hbonds>
donor molecule, donor type, donor heavy atom, donor atom, acceptor molecule, acceptor atom, score
      L1  H    19    45       P1  7948  1.00
      P1  H  6896  6908       L1     6  0.33
      P1  H  6931  6943       L1    18  0.93
      P1  H  6934  6947       L1    18  0.64

> <Gold.Chemscore.Hbond.Weighted>
-11.9000

> <Gold.Chemscore.Metal.Weighted>
-0.0000

> <Gold.Chemscore.Lipo.Weighted>
-6.8521

> <Gold.Chemscore.Internal_Hbond.Weighted>
0.0000

> <Gold.Chemscore.DEClash.Weighted>
0.0126

> <Gold.Chemscore.DEInternal.Weighted>
1.6374

> <Gold.Chemscore.Rot.Weighted>
5.5822

> <Gold.Chemscore.Internal.Correction.Weighted>
   9.000000E+99

> <Gold.Protein.RotatedTorsions>
[ 6907 6896 6895 6894 ] final  145.46 input  -60.11 | X-H torsion
[ 7974 7965 7964 7962 ] final  117.24 input  175.53 | X-H torsion
[ 8008 7997 7996 7995 ] final  -31.45 input   59.86 | X-H torsion
[ 10167 10162 10161 10158 ] final  -76.15 input  -65.29 | X-H torsion
[ 10718 10713 10712 10709 ] final  123.23 input   66.30 | X-H torsion
[ 10763 10752 10751 10750 ] final   19.60 input  -60.55 | X-H torsion
[ 11005 11000 10999 10996 ] final  -21.57 input  -57.11 | X-H torsion

> <Gold.Protein.ActiveResidues>
 VAL166  LYS551  ARG553  GLY616  TRP617  ASP618  TYR619  PRO620  LYS621  CYS622 
 ASP623  PHE694  ASN695  SER759  ASP760  ASP761  ALA762  ILE779  LEU786  VAL792 
 PHE793  MET794  SER795  GLU796  ALA797  LYS798  CYS799  TRP800  GLU811  SER814 

> <Gold.Protein.RotatedAtoms>
  152.1806  133.4704  159.4955 H   0  0  0  0  0  0  0  0  0  0  0  0  # atno 6907 bound_to 6896
  150.6934  134.1839  159.4268 H   0  0  0  0  0  0  0  0  0  0  0  0  # atno 6908 bound_to 6896
  151.9749  135.0057  160.0605 H   0  0  0  0  0  0  0  0  0  0  0  0  # atno 6909 bound_to 6896
  145.1697  139.3108  143.4474 H   0  0  0  0  0  0  0  0  0  0  0  0  # atno 7974 bound_to 7965
  154.4213  140.1764  156.1569 H   0  0  0  0  0  0  0  0  0  0  0  0  # atno 8008 bound_to 7997
  155.9870  140.3372  155.6692 H   0  0  0  0  0  0  0  0  0  0  0  0  # atno 8009 bound_to 7997
  155.6424  140.0681  157.2605 H   0  0  0  0  0  0  0  0  0  0  0  0  # atno 8010 bound_to 7997
  140.4882  143.2386  151.7950 H   0  0  0  0  0  0  0  0  0  0  0  0  # atno 10167 bound_to 10162
  157.5681  131.1085  150.8417 H   0  0  0  0  0  0  0  0  0  0  0  0  # atno 10718 bound_to 10713
  153.1148  135.6705  153.9437 H   0  0  0  0  0  0  0  0  0  0  0  0  # atno 10763 bound_to 10752
  153.8970  135.3040  155.3449 H   0  0  0  0  0  0  0  0  0  0  0  0  # atno 10764 bound_to 10752
  154.7565  135.5009  153.9462 H   0  0  0  0  0  0  0  0  0  0  0  0  # atno 10765 bound_to 10752
  140.8574  133.7812  156.0035 H   0  0  0  0  0  0  0  0  0  0  0  0  # atno 11005 bound_to 11000
  146.3470  140.1838  142.8589 LP  0  0  0  0  0  0  0  0  0  0  0  0  # atno 17320 bound_to 7965
  145.0245  140.8821  143.5146 LP  0  0  0  0  0  0  0  0  0  0  0  0  # atno 17321 bound_to 7965
  139.4846  144.4684  151.9455 LP  0  0  0  0  0  0  0  0  0  0  0  0  # atno 17342 bound_to 10162
  140.3771  144.2783  150.5913 LP  0  0  0  0  0  0  0  0  0  0  0  0  # atno 17343 bound_to 10162
  156.8896  130.5208  149.5287 LP  0  0  0  0  0  0  0  0  0  0  0  0  # atno 17370 bound_to 10713
  156.0728  130.5757  150.9416 LP  0  0  0  0  0  0  0  0  0  0  0  0  # atno 17371 bound_to 10713
  140.8721  134.2713  157.5185 LP  0  0  0  0  0  0  0  0  0  0  0  0  # atno 17394 bound_to 11000
  139.8706  134.9573  156.4263 LP  0  0  0  0  0  0  0  0  0  0  0  0  # atno 17395 bound_to 11000

$$$$
