AV-unprocessed.smi:1205|AV-procd|sdf|5045|dock6
  -GOLD-   22720 4 73D 1   1.00000     0.00000
 Structure written by MMmdl.
 49 50  0  0  0  0  0  0  0  0  2 V2000
  151.5136  141.8125  157.3556 C   0  0  0  0  0  0  0  0  0  0  0  0
  151.3767  140.5713  156.5237 C   0  0  0  0  0  0  0  0  0  0  0  0
  150.2106  139.7791  156.3140 C   0  0  0  0  0  0  0  0  0  0  0  0
  150.6631  138.7918  155.4819 C   0  0  0  0  0  0  0  0  0  0  0  0
  149.9785  137.7488  154.9417 N   0  0  0  0  0  0  0  0  0  0  0  0
  149.2531  136.8059  155.5679 C   0  0  0  0  0  0  0  0  0  0  0  0
  149.0803  136.7245  156.7843 O   0  0  0  0  0  0  0  0  0  0  0  0
  148.7317  135.9344  154.6927 N   0  0  0  0  0  0  0  0  0  0  0  0
  147.9008  134.7892  155.0511 C   0  0  0  0  0  0  0  0  0  0  0  0
  147.9239  133.6775  153.9705 C   0  0  2  0  0  0  0  0  0  0  0  0
  149.3525  133.2122  153.6289 C   0  0  0  0  0  0  0  0  0  0  0  0
  147.1797  134.0471  152.7309 N   0  3  2  0  0  0  0  0  0  0  0  0
  146.0578  135.0064  152.9218 C   0  0  0  0  0  0  0  0  0  0  0  0
  145.5284  135.4984  151.5659 C   0  0  0  0  0  0  0  0  0  0  0  0
  145.0941  134.3174  150.6877 C   0  0  0  0  0  0  0  0  0  0  0  0
  146.2495  133.3137  150.5299 C   0  0  2  0  0  0  0  0  0  0  0  0
  145.8329  132.1087  149.6753 C   0  0  0  0  0  0  0  0  0  0  0  0
  146.7680  132.8737  151.9141 C   0  0  0  0  0  0  0  0  0  0  0  0
  152.0003  139.0022  155.2274 N   0  0  0  0  0  0  0  0  0  0  0  0
  152.9145  138.2356  154.4033 C   0  0  0  0  0  0  0  0  0  0  0  0
  152.4372  140.1041  155.8744 N   0  0  0  0  0  0  0  0  0  0  0  0
  150.5714  142.0676  157.8409 H   0  0  0  0  0  0  0  0  0  0  0  0
  151.8126  142.6638  156.7437 H   0  0  0  0  0  0  0  0  0  0  0  0
  152.2634  141.6817  158.1360 H   0  0  0  0  0  0  0  0  0  0  0  0
  149.2193  139.9306  156.7137 H   0  0  0  0  0  0  0  0  0  0  0  0
  150.0378  137.6718  153.9370 H   0  0  0  0  0  0  0  0  0  0  0  0
  148.9199  136.0739  153.7104 H   0  0  0  0  0  0  0  0  0  0  0  0
  148.2232  134.4032  156.0191 H   0  0  0  0  0  0  0  0  0  0  0  0
  146.8875  135.1650  155.1908 H   0  0  0  0  0  0  0  0  0  0  0  0
  147.4217  132.7999  154.3802 H   0  0  0  0  0  0  0  0  0  0  0  0
  149.8431  132.7717  154.4971 H   0  0  0  0  0  0  0  0  0  0  0  0
  149.9796  134.0347  153.2859 H   0  0  0  0  0  0  0  0  0  0  0  0
  149.3408  132.4516  152.8476 H   0  0  0  0  0  0  0  0  0  0  0  0
  145.2476  134.5311  153.4762 H   0  0  0  0  0  0  0  0  0  0  0  0
  146.3845  135.8650  153.5075 H   0  0  0  0  0  0  0  0  0  0  0  0
  144.6889  136.1774  151.7178 H   0  0  0  0  0  0  0  0  0  0  0  0
  146.3027  136.0720  151.0547 H   0  0  0  0  0  0  0  0  0  0  0  0
  144.2316  133.8243  151.1385 H   0  0  0  0  0  0  0  0  0  0  0  0
  144.7705  134.6803  149.7114 H   0  0  0  0  0  0  0  0  0  0  0  0
  147.0655  133.8176  150.0094 H   0  0  0  0  0  0  0  0  0  0  0  0
  145.0115  131.5595  150.1369 H   0  0  0  0  0  0  0  0  0  0  0  0
  146.6637  131.4150  149.5420 H   0  0  0  0  0  0  0  0  0  0  0  0
  145.5065  132.4249  148.6841 H   0  0  0  0  0  0  0  0  0  0  0  0
  147.6178  132.2029  151.7804 H   0  0  0  0  0  0  0  0  0  0  0  0
  145.9981  132.3077  152.4402 H   0  0  0  0  0  0  0  0  0  0  0  0
  152.8100  137.1734  154.6259 H   0  0  0  0  0  0  0  0  0  0  0  0
  153.9458  138.5343  154.5959 H   0  0  0  0  0  0  0  0  0  0  0  0
  152.6866  138.4047  153.3507 H   0  0  0  0  0  0  0  0  0  0  0  0
  147.8577  134.5319  152.1604 H   0  0  0  0  0  0  0  0  0  0  0  0
  1  2  1  0  0  0  0
  1 22  1  0  0  0  0
  1 23  1  0  0  0  0
  1 24  1  0  0  0  0
  2 21  2  0  0  0  0
  2  3  1  0  0  0  0
  3  4  2  0  0  0  0
  3 25  1  0  0  0  0
  4  5  1  0  0  0  0
  4 19  1  0  0  0  0
  5  6  1  0  0  0  0
  5 26  1  0  0  0  0
  6  7  2  0  0  0  0
  6  8  1  0  0  0  0
  8  9  1  0  0  0  0
  8 27  1  0  0  0  0
  9 10  1  0  0  0  0
  9 28  1  0  0  0  0
  9 29  1  0  0  0  0
 10 11  1  0  0  0  0
 10 12  1  0  0  0  0
 10 30  1  0  0  0  0
 11 31  1  0  0  0  0
 11 32  1  0  0  0  0
 11 33  1  0  0  0  0
 12 18  1  0  0  0  0
 12 13  1  0  0  0  0
 12 49  1  0  0  0  0
 13 14  1  0  0  0  0
 13 34  1  0  0  0  0
 13 35  1  0  0  0  0
 14 15  1  0  0  0  0
 14 36  1  0  0  0  0
 14 37  1  0  0  0  0
 15 16  1  0  0  0  0
 15 38  1  0  0  0  0
 15 39  1  0  0  0  0
 16 17  1  0  0  0  0
 16 18  1  0  0  0  0
 16 40  1  0  0  0  0
 17 41  1  0  0  0  0
 17 42  1  0  0  0  0
 17 43  1  0  0  0  0
 18 44  1  0  0  0  0
 18 45  1  0  0  0  0
 19 20  1  0  0  0  0
 19 21  1  0  0  0  0
 20 46  1  0  0  0  0
 20 47  1  0  0  0  0
 20 48  1  0  0  0  0
M  CHG  1  12   1
M  END
> <s_m_source_file>
AV-unprocessed.smi

> <i_m_source_file_index>
1205

> <i_lp_mmshare_version>
43012

> <i_f3d_flags>
0

> <s_epik_input>
W0NIM11jMVtjSF1jKG4objEpW0NIM10pW05IXUMoPU8pW05IXVtDSDJdW0NASF0oW0NIM10pTjJbQ0gyXVtDSDJdW0NIMl1bQ0BASF0oW0NIM10pW0NIMl0y

> <s_epik_cmdline>
J2VwaWtfcHl0aG9uJywgJy1waCcsICc3LjAnLCAnLXRuJywgJzgnLCAnLW1hJywgJzIwMCcsICctbWV0YWxfYmluZGluZycsICctaW1hZScsICc8aW5maWxlLm1hZT4nLCAnLW9tYWUnLCAnPG91dGZpbGUubWFlPic=

> <r_lp_tautomer_probability>
1

> <r_epik_Ionization_Penalty>
0.0020309

> <r_epik_Ionization_Penalty_Charging>
0.00195276

> <r_epik_Ionization_Penalty_Neutral>
7.81448e-05

> <r_epik_State_Penalty>
0.00133177

> <r_epik_Charging_Adjusted_Penalty>
0.00328452

> <i_epik_Tot_Q>
1

> <i_epik_Tot_abs_Q>
1

> <r_epik_Metal_State_Penalty>
-0

> <b_epik_Metal_Only>
0

> <s_lp_Force_Field>
OPLS_2005

> <r_lp_Energy>
21.6269

> <b_lp_Chiralities_Consistent>
1

> <s_lp_Variant>
AV-unprocessed.smi:1205-7

> <Gold.Version>
5.8.1

> <Gold.Id.Protein>
6NUR|6NUR_protein|mol2

> <Gold.PLP.Fitness>
44.9351

> <Gold.PLP.PLP>
-35.2536

> <Gold.PLP.part.hbond>
-3.2312

> <Gold.PLP.part.metal>
0.0000

> <Gold.PLP.part.buried>
-2.4891

> <Gold.PLP.part.nonpolar>
-28.9493

> <Gold.PLP.part.repulsive>
0.0231

> <Gold.PLP.ligand.clash>
0.0000

> <Gold.PLP.ligand.torsion>
1.1915

> <Gold.PLP.Chemscore.Hbond>
3.9753

> <Gold.PLP.Chemscore.CHOScore>
0.0000

> <Gold.PLP.Chemscore.Metal>
0.0000

> <Gold.Chemscore.Hbonds>
donor molecule, donor type, donor heavy atom, donor atom, acceptor molecule, acceptor atom, score
      L1  H     8    27       P1  7948  1.00
      L1  H    12    49       P1  7948  1.95
      P1  H  7997  8010       L1    21  1.00

> <Gold.PLP.Chemscore.Internal.Correction>
0.1387

> <Gold.Rescore>
     Score         DG    S(hbond)    S(metal)    S(lipo)     H(rot)  DE(clash)    DE(int)     intcor
     18.99     -20.17       2.84        0.00      76.62       1.47       0.16       1.02       ----

> <Gold.Chemscore.Fitness>
18.9925

> <Gold.Chemscore.DG>
-20.1743

> <Gold.Chemscore.ZeroCoef>
-5.4800

> <Gold.Chemscore.Hbond>
2.8389

> <Gold.Chemscore.Metal>
0.0000

> <Gold.Chemscore.Lipo>
76.6243

> <Gold.Chemscore.Internal_Hbond>
0.0000

> <Gold.Chemscore.DEClash>
0.1600

> <Gold.Chemscore.DEInternal>
1.0218

> <Gold.Chemscore.Rot>
1.4658

> <Gold.Chemscore.Internal.Correction>
   9.000000E+99

> <Gold.Chemscore.Hbonds>
donor molecule, donor type, donor heavy atom, donor atom, acceptor molecule, acceptor atom, score
      L1  H     8    27       P1  7948  0.98
      L1  H    12    49       P1  7948  0.36
      P1  H  7997  8010       L1    21  0.90

> <Gold.Chemscore.Hbond.Weighted>
-9.4818

> <Gold.Chemscore.Metal.Weighted>
-0.0000

> <Gold.Chemscore.Lipo.Weighted>
-8.9650

> <Gold.Chemscore.Internal_Hbond.Weighted>
0.0000

> <Gold.Chemscore.DEClash.Weighted>
0.1600

> <Gold.Chemscore.DEInternal.Weighted>
1.0218

> <Gold.Chemscore.Rot.Weighted>
3.7526

> <Gold.Chemscore.Internal.Correction.Weighted>
   9.000000E+99

> <Gold.Protein.RotatedTorsions>
[ 6907 6896 6895 6894 ] final  -50.65 input  -60.11 | X-H torsion
[ 7974 7965 7964 7962 ] final -112.33 input  175.53 | X-H torsion
[ 8008 7997 7996 7995 ] final   88.72 input   59.86 | X-H torsion
[ 10167 10162 10161 10158 ] final  147.36 input  -65.29 | X-H torsion
[ 10718 10713 10712 10709 ] final  137.00 input   66.30 | X-H torsion
[ 10763 10752 10751 10750 ] final  -79.52 input  -60.55 | X-H torsion
[ 11005 11000 10999 10996 ] final  -64.79 input  -57.11 | X-H torsion

> <Gold.Protein.ActiveResidues>
 VAL166  LYS551  ARG553  GLY616  TRP617  ASP618  TYR619  PRO620  LYS621  CYS622 
 ASP623  PHE694  ASN695  SER759  ASP760  ASP761  ALA762  ILE779  LEU786  VAL792 
 PHE793  MET794  SER795  GLU796  ALA797  LYS798  CYS799  TRP800  GLU811  SER814 

> <Gold.Protein.RotatedAtoms>
  150.8687  134.8056  159.7137 H   0  0  0  0  0  0  0  0  0  0  0  0  # atno 6907 bound_to 6896
  152.4699  134.4982  159.9726 H   0  0  0  0  0  0  0  0  0  0  0  0  # atno 6908 bound_to 6896
  151.5074  133.3453  159.2915 H   0  0  0  0  0  0  0  0  0  0  0  0  # atno 6909 bound_to 6896
  145.1453  140.8800  143.3678 H   0  0  0  0  0  0  0  0  0  0  0  0  # atno 7974 bound_to 7965
  155.9913  140.3368  155.6755 H   0  0  0  0  0  0  0  0  0  0  0  0  # atno 8008 bound_to 7997
  155.6417  140.0696  157.2634 H   0  0  0  0  0  0  0  0  0  0  0  0  # atno 8009 bound_to 7997
  154.4220  140.1741  156.1567 H   0  0  0  0  0  0  0  0  0  0  0  0  # atno 8010 bound_to 7997
  139.4891  144.5761  151.6962 H   0  0  0  0  0  0  0  0  0  0  0  0  # atno 10167 bound_to 10162
  157.4407  131.1057  151.0146 H   0  0  0  0  0  0  0  0  0  0  0  0  # atno 10718 bound_to 10713
  154.5396  135.5693  153.6828 H   0  0  0  0  0  0  0  0  0  0  0  0  # atno 10763 bound_to 10752
  152.9960  135.6224  154.2519 H   0  0  0  0  0  0  0  0  0  0  0  0  # atno 10764 bound_to 10752
  154.2450  135.2861  155.2819 H   0  0  0  0  0  0  0  0  0  0  0  0  # atno 10765 bound_to 10752
  141.1435  133.6671  156.5887 H   0  0  0  0  0  0  0  0  0  0  0  0  # atno 11005 bound_to 11000
  145.0488  139.3198  143.5939 LP  0  0  0  0  0  0  0  0  0  0  0  0  # atno 17320 bound_to 7965
  146.3501  139.9889  142.8688 LP  0  0  0  0  0  0  0  0  0  0  0  0  # atno 17321 bound_to 7965
  140.5358  144.0658  150.6070 LP  0  0  0  0  0  0  0  0  0  0  0  0  # atno 17342 bound_to 10162
  140.3664  143.2879  152.0327 LP  0  0  0  0  0  0  0  0  0  0  0  0  # atno 17343 bound_to 10162
  157.1010  130.5982  149.5460 LP  0  0  0  0  0  0  0  0  0  0  0  0  # atno 17370 bound_to 10713
  155.9948  130.5012  150.7433 LP  0  0  0  0  0  0  0  0  0  0  0  0  # atno 17371 bound_to 10713
  140.3780  134.7548  157.4642 LP  0  0  0  0  0  0  0  0  0  0  0  0  # atno 17394 bound_to 11000
  140.0659  134.5930  155.8695 LP  0  0  0  0  0  0  0  0  0  0  0  0  # atno 17395 bound_to 11000

$$$$
