AV-unprocessed.smi:246|AV-procd|sdf|1880|dock1
  -GOLD-   2262020523D 1   1.00000     0.00000
 Structure written by MMmdl.
 57 60  0  0  0  0  0  0  0  0  1 V2000
  151.4632  144.6710  161.1795 C   0  0  0  0  0  0  0  0  0  0  0  0
  151.7572  145.7415  160.1198 C   0  0  0  0  0  0  0  0  0  0  0  0
  152.1002  145.1660  158.8670 O   0  0  0  0  0  0  0  0  0  0  0  0
  151.2033  144.1603  158.4180 C   0  0  0  0  0  0  0  0  0  0  0  0
  151.9222  142.8088  158.4546 C   0  0  0  0  0  0  0  0  0  0  0  0
  151.9576  142.3377  159.7936 O   0  0  0  0  0  0  0  0  0  0  0  0
  153.2589  141.9840  160.2395 C   0  0  1  0  0  0  0  0  0  0  0  0
  153.3069  141.6420  161.7273 C   0  0  0  0  0  0  0  0  0  0  0  0
  154.5306  140.7342  161.8182 C   0  0  0  0  0  0  0  0  0  0  0  0
  154.6038  140.0206  160.5456 N   0  0  0  0  0  0  0  0  0  0  0  0
  154.4408  138.6784  160.5844 C   0  0  0  0  0  0  0  0  0  0  0  0
  154.1837  137.9850  159.4432 N   0  0  0  0  0  0  0  0  0  0  0  0
  154.0454  136.6563  159.4857 C   0  0  0  0  0  0  0  0  0  0  0  0
  154.1238  135.8419  160.5407 N   0  0  0  0  0  0  0  0  0  0  0  0
  154.3854  136.5369  161.6852 C   0  0  0  0  0  0  0  0  0  0  0  0
  154.5635  137.9443  161.7930 C   0  0  0  0  0  0  0  0  0  0  0  0
  154.8223  138.2933  163.1122 N   0  0  0  0  0  0  0  0  0  0  0  0
  154.7905  137.1555  163.7516 C   0  0  0  0  0  0  0  0  0  0  0  0
  154.5169  136.0516  162.9746 N   0  0  0  0  0  0  0  0  0  0  0  0
  154.4250  134.6737  163.4248 C   0  0  0  0  0  0  0  0  0  0  0  0
  155.3879  134.3287  164.5844 C   0  0  2  0  0  0  0  0  0  0  0  0
  156.6559  134.1568  163.9839 O   0  0  0  0  0  0  0  0  0  0  0  0
  155.0658  133.0242  165.3508 C   0  0  2  0  0  0  0  0  0  0  0  0
  156.1314  132.5430  166.3426 C   0  0  0  0  0  0  0  0  0  0  0  0
  155.9756  131.0297  166.3669 C   0  0  0  0  0  0  0  0  0  0  0  0
  155.0321  130.7385  165.2017 C   0  0  0  0  0  0  0  0  0  0  0  0
  155.0411  131.9346  164.4391 O   0  0  0  0  0  0  0  0  0  0  0  0
  153.7218  140.6790  159.5848 C   0  0  0  0  0  0  0  0  0  0  0  0
  153.9796  142.7716  160.0115 H   0  0  0  0  0  0  0  0  0  0  0  0
  151.2975  145.1307  162.1539 H   0  0  0  0  0  0  0  0  0  0  0  0
  152.2994  143.9783  161.2770 H   0  0  0  0  0  0  0  0  0  0  0  0
  150.5724  144.0921  160.9374 H   0  0  0  0  0  0  0  0  0  0  0  0
  150.9200  146.4332  160.0159 H   0  0  0  0  0  0  0  0  0  0  0  0
  152.6094  146.3363  160.4495 H   0  0  0  0  0  0  0  0  0  0  0  0
  150.2983  144.1236  159.0246 H   0  0  0  0  0  0  0  0  0  0  0  0
  150.9032  144.3807  157.3926 H   0  0  0  0  0  0  0  0  0  0  0  0
  151.3807  142.0892  157.8389 H   0  0  0  0  0  0  0  0  0  0  0  0
  152.9241  142.9087  158.0360 H   0  0  0  0  0  0  0  0  0  0  0  0
  153.3829  142.5184  162.3713 H   0  0  0  0  0  0  0  0  0  0  0  0
  152.4131  141.0850  162.0119 H   0  0  0  0  0  0  0  0  0  0  0  0
  155.4351  141.3352  161.9162 H   0  0  0  0  0  0  0  0  0  0  0  0
  154.4854  140.0783  162.6887 H   0  0  0  0  0  0  0  0  0  0  0  0
  153.8427  136.1775  158.5390 H   0  0  0  0  0  0  0  0  0  0  0  0
  154.9595  137.0908  164.8168 H   0  0  0  0  0  0  0  0  0  0  0  0
  153.3949  134.4566  163.7099 H   0  0  0  0  0  0  0  0  0  0  0  0
  154.6437  134.0439  162.5610 H   0  0  0  0  0  0  0  0  0  0  0  0
  155.4520  135.1671  165.2786 H   0  0  0  0  0  0  0  0  0  0  0  0
  156.8221  134.8939  163.4162 H   0  0  0  0  0  0  0  0  0  0  0  0
  154.1005  133.0989  165.8560 H   0  0  0  0  0  0  0  0  0  0  0  0
  157.1294  132.7935  165.9812 H   0  0  0  0  0  0  0  0  0  0  0  0
  156.0087  132.9822  167.3320 H   0  0  0  0  0  0  0  0  0  0  0  0
  156.9420  130.5443  166.2255 H   0  0  0  0  0  0  0  0  0  0  0  0
  155.5559  130.6762  167.3093 H   0  0  0  0  0  0  0  0  0  0  0  0
  155.3493  129.8828  164.6055 H   0  0  0  0  0  0  0  0  0  0  0  0
  154.0204  130.5485  165.5632 H   0  0  0  0  0  0  0  0  0  0  0  0
  152.8591  140.0476  159.3625 H   0  0  0  0  0  0  0  0  0  0  0  0
  154.2411  140.8676  158.6450 H   0  0  0  0  0  0  0  0  0  0  0  0
  1  2  1  0  0  0  0
  1 30  1  0  0  0  0
  1 31  1  0  0  0  0
  1 32  1  0  0  0  0
  2  3  1  0  0  0  0
  2 33  1  0  0  0  0
  2 34  1  0  0  0  0
  3  4  1  0  0  0  0
  4  5  1  0  0  0  0
  4 35  1  0  0  0  0
  4 36  1  0  0  0  0
  5  6  1  0  0  0  0
  5 37  1  0  0  0  0
  5 38  1  0  0  0  0
  6  7  1  0  0  0  0
  7 29  1  0  0  0  0
  7 28  1  0  0  0  0
  7  8  1  0  0  0  0
  8  9  1  0  0  0  0
  8 39  1  0  0  0  0
  8 40  1  0  0  0  0
  9 10  1  0  0  0  0
  9 41  1  0  0  0  0
  9 42  1  0  0  0  0
 10 11  1  0  0  0  0
 10 28  1  0  0  0  0
 11 16  1  0  0  0  0
 11 12  2  0  0  0  0
 12 13  1  0  0  0  0
 13 14  2  0  0  0  0
 13 43  1  0  0  0  0
 14 15  1  0  0  0  0
 15 19  1  0  0  0  0
 15 16  2  0  0  0  0
 16 17  1  0  0  0  0
 17 18  2  0  0  0  0
 18 19  1  0  0  0  0
 18 44  1  0  0  0  0
 19 20  1  0  0  0  0
 20 21  1  0  0  0  0
 20 45  1  0  0  0  0
 20 46  1  0  0  0  0
 21 22  1  0  0  0  0
 21 23  1  0  0  0  0
 21 47  1  0  0  0  0
 22 48  1  0  0  0  0
 23 27  1  0  0  0  0
 23 24  1  0  0  0  0
 23 49  1  0  0  0  0
 24 25  1  0  0  0  0
 24 50  1  0  0  0  0
 24 51  1  0  0  0  0
 25 26  1  0  0  0  0
 25 52  1  0  0  0  0
 25 53  1  0  0  0  0
 26 27  1  0  0  0  0
 26 54  1  0  0  0  0
 26 55  1  0  0  0  0
 28 56  1  0  0  0  0
 28 57  1  0  0  0  0
M  END
> <s_m_source_file>
AV-unprocessed.smi

> <i_m_source_file_index>
246

> <i_lp_mmshare_version>
43012

> <i_f3d_flags>
0

> <s_epik_input>
W0NIM11bQ0gyXU9bQ0gyXVtDSDJdT1tDQEhdMVtDSDJdW0NIMl1OKFtDSDJdMSljKG5bY0hdbjIpYyhjMjMpbltjSF1uM1tDSDJdW0NASF0oW09IXSlbQ0BASF00W0NIMl1bQ0gyXVtDSDJdTzQ=

> <s_epik_cmdline>
J2VwaWtfcHl0aG9uJywgJy1waCcsICc3LjAnLCAnLXRuJywgJzgnLCAnLW1hJywgJzIwMCcsICctbWV0YWxfYmluZGluZycsICctaW1hZScsICc8aW5maWxlLm1hZT4nLCAnLW9tYWUnLCAnPG91dGZpbGUubWFlPic=

> <r_lp_tautomer_probability>
1

> <r_epik_Ionization_Penalty>
0.0024631

> <r_epik_Ionization_Penalty_Charging>
0

> <r_epik_Ionization_Penalty_Neutral>
0.0024631

> <r_epik_State_Penalty>
0.00162428

> <r_epik_Charging_Adjusted_Penalty>
0.00162428

> <i_epik_Tot_Q>
0

> <i_epik_Tot_abs_Q>
0

> <r_epik_Metal_State_Penalty>
-0

> <b_epik_Metal_Only>
0

> <s_lp_Force_Field>
OPLS_2005

> <r_lp_Energy>
54.9549

> <b_lp_Chiralities_Consistent>
1

> <s_lp_Variant>
AV-unprocessed.smi:246-1

> <Gold.Version>
5.8.1

> <Gold.Id.Protein>
6NUR|6NUR_protein|mol2

> <Gold.PLP.Fitness>
48.5917

> <Gold.PLP.PLP>
-48.6483

> <Gold.PLP.part.hbond>
-1.0000

> <Gold.PLP.part.metal>
0.0000

> <Gold.PLP.part.buried>
-5.0899

> <Gold.PLP.part.nonpolar>
-43.3743

> <Gold.PLP.part.repulsive>
0.0458

> <Gold.PLP.ligand.clash>
0.0000

> <Gold.PLP.ligand.torsion>
1.9587

> <Gold.PLP.Chemscore.Hbond>
0.8954

> <Gold.PLP.Chemscore.CHOScore>
0.0000

> <Gold.PLP.Chemscore.Metal>
0.0000

> <Gold.Chemscore.Hbonds>
donor molecule, donor type, donor heavy atom, donor atom, acceptor molecule, acceptor atom, score
      P1  H  6896  6908       L1    14  0.61

> <Gold.PLP.Chemscore.Internal.Correction>
1.1746

> <Gold.Rescore>
     Score         DG    S(hbond)    S(metal)    S(lipo)     H(rot)  DE(clash)    DE(int)     intcor
      9.24     -14.15       0.67        0.00     128.71       3.37       0.12       4.79       ----

> <Gold.Chemscore.Fitness>
9.2391

> <Gold.Chemscore.DG>
-14.1488

> <Gold.Chemscore.ZeroCoef>
-5.4800

> <Gold.Chemscore.Hbond>
0.6726

> <Gold.Chemscore.Metal>
0.0000

> <Gold.Chemscore.Lipo>
128.7143

> <Gold.Chemscore.Internal_Hbond>
0.0000

> <Gold.Chemscore.DEClash>
0.1202

> <Gold.Chemscore.DEInternal>
4.7895

> <Gold.Chemscore.Rot>
3.3739

> <Gold.Chemscore.Internal.Correction>
   9.000000E+99

> <Gold.Chemscore.Hbonds>
donor molecule, donor type, donor heavy atom, donor atom, acceptor molecule, acceptor atom, score
      P1  H  6896  6908       L1    14  0.10

> <Gold.Chemscore.Hbond.Weighted>
-2.2464

> <Gold.Chemscore.Metal.Weighted>
-0.0000

> <Gold.Chemscore.Lipo.Weighted>
-15.0596

> <Gold.Chemscore.Internal_Hbond.Weighted>
0.0000

> <Gold.Chemscore.DEClash.Weighted>
0.1202

> <Gold.Chemscore.DEInternal.Weighted>
4.7895

> <Gold.Chemscore.Rot.Weighted>
8.6371

> <Gold.Chemscore.Internal.Correction.Weighted>
   9.000000E+99

> <Gold.Protein.RotatedTorsions>
[ 6907 6896 6895 6894 ] final  -49.27 input  -60.11 | X-H torsion
[ 7974 7965 7964 7962 ] final -121.34 input  175.53 | X-H torsion
[ 8008 7997 7996 7995 ] final  133.23 input   59.86 | X-H torsion
[ 10167 10162 10161 10158 ] final -101.71 input  -65.29 | X-H torsion
[ 10718 10713 10712 10709 ] final -100.64 input   66.30 | X-H torsion
[ 10763 10752 10751 10750 ] final -178.86 input  -60.55 | X-H torsion
[ 11005 11000 10999 10996 ] final  117.22 input  -57.11 | X-H torsion

> <Gold.Protein.ActiveResidues>
 VAL166  LYS551  ARG553  GLY616  TRP617  ASP618  TYR619  PRO620  LYS621  CYS622 
 ASP623  PHE694  ASN695  SER759  ASP760  ASP761  ALA762  ILE779  LEU786  VAL792 
 PHE793  MET794  SER795  GLU796  ALA797  LYS798  CYS799  TRP800  GLU811  SER814 

> <Gold.Protein.RotatedAtoms>
  150.8822  134.8214  159.7232 H   0  0  0  0  0  0  0  0  0  0  0  0  # atno 6907 bound_to 6896
  152.4785  134.4779  159.9666 H   0  0  0  0  0  0  0  0  0  0  0  0  # atno 6908 bound_to 6896
  151.4852  133.3498  159.2880 H   0  0  0  0  0  0  0  0  0  0  0  0  # atno 6909 bound_to 6896
  145.0414  140.8147  143.4264 H   0  0  0  0  0  0  0  0  0  0  0  0  # atno 7974 bound_to 7965
  156.2990  140.2526  156.3219 H   0  0  0  0  0  0  0  0  0  0  0  0  # atno 8008 bound_to 7997
  154.9227  140.0400  157.2025 H   0  0  0  0  0  0  0  0  0  0  0  0  # atno 8009 bound_to 7997
  154.8295  140.2873  155.5736 H   0  0  0  0  0  0  0  0  0  0  0  0  # atno 8010 bound_to 7997
  140.2384  143.3556  152.0823 H   0  0  0  0  0  0  0  0  0  0  0  0  # atno 10167 bound_to 10162
  156.0169  130.5337  150.6847 H   0  0  0  0  0  0  0  0  0  0  0  0  # atno 10718 bound_to 10713
  154.5423  135.2807  155.1084 H   0  0  0  0  0  0  0  0  0  0  0  0  # atno 10763 bound_to 10752
  154.2562  135.6330  153.5261 H   0  0  0  0  0  0  0  0  0  0  0  0  # atno 10764 bound_to 10752
  152.9982  135.5594  154.5966 H   0  0  0  0  0  0  0  0  0  0  0  0  # atno 10765 bound_to 10752
  139.9067  134.9607  156.7317 H   0  0  0  0  0  0  0  0  0  0  0  0  # atno 11005 bound_to 11000
  145.1643  139.2440  143.5375 LP  0  0  0  0  0  0  0  0  0  0  0  0  # atno 17320 bound_to 7965
  146.3509  140.1378  142.8595 LP  0  0  0  0  0  0  0  0  0  0  0  0  # atno 17321 bound_to 7965
  139.5085  144.6852  151.5906 LP  0  0  0  0  0  0  0  0  0  0  0  0  # atno 17342 bound_to 10162
  140.6132  143.9397  150.6469 LP  0  0  0  0  0  0  0  0  0  0  0  0  # atno 17343 bound_to 10162
  157.4542  131.0876  151.0814 LP  0  0  0  0  0  0  0  0  0  0  0  0  # atno 17370 bound_to 10713
  157.1321  130.6107  149.5532 LP  0  0  0  0  0  0  0  0  0  0  0  0  # atno 17371 bound_to 10713
  140.6920  133.9382  155.7972 LP  0  0  0  0  0  0  0  0  0  0  0  0  # atno 17394 bound_to 11000
  141.0435  134.0587  157.3873 LP  0  0  0  0  0  0  0  0  0  0  0  0  # atno 17395 bound_to 11000

$$$$
