AV-unprocessed.smi:3303|AV-procd|sdf|12682|dock8
  -GOLD-   2272019 13D 1   1.00000     0.00000
 Structure written by MMmdl.
 44 45  0  0  0  0  0  0  0  0  2 V2000
  148.3004  141.7628  154.6463 C   0  0  0  0  0  0  0  0  0  0  0  0
  148.5531  140.8824  155.8882 C   0  0  1  0  0  0  0  0  0  0  0  0
  148.8418  139.4222  155.4921 C   0  0  0  0  0  0  0  0  0  0  0  0
  150.1701  139.2662  154.8406 N   0  3  2  0  0  0  0  0  0  0  0  0
  150.3499  137.8830  154.3367 C   0  0  0  0  0  0  0  0  0  0  0  0
  151.2875  139.7468  155.7096 C   0  0  1  0  0  0  0  0  0  0  0  0
  152.6634  139.6302  155.0254 C   0  0  0  0  0  0  0  0  0  0  0  0
  151.0497  141.2098  156.1398 C   0  0  0  0  0  0  0  0  0  0  0  0
  149.6824  141.3903  156.8171 C   0  0  1  0  0  0  0  0  0  0  0  0
  149.5240  142.7881  157.2048 N   0  0  0  0  0  0  0  0  0  0  0  0
  150.0840  143.0557  158.5219 C   0  0  0  0  0  0  0  0  0  0  0  0
  151.6025  143.2458  158.4094 C   0  0  0  0  0  0  0  0  0  0  0  0
  152.3288  142.7507  159.6458 C   0  0  0  0  0  0  0  0  0  0  0  0
  152.0637  143.3135  160.9125 C   0  0  0  0  0  0  0  0  0  0  0  0
  152.7589  142.8099  162.0290 C   0  0  0  0  0  0  0  0  0  0  0  0
  153.6864  141.7678  161.8374 C   0  0  0  0  0  0  0  0  0  0  0  0
  153.8784  141.2736  160.5320 C   0  0  0  0  0  0  0  0  0  0  0  0
  153.2171  141.7492  159.4546 N   0  0  0  0  0  0  0  0  0  0  0  0
  149.1743  141.8194  153.9976 H   0  0  0  0  0  0  0  0  0  0  0  0
  148.0288  142.7810  154.9261 H   0  0  0  0  0  0  0  0  0  0  0  0
  147.4780  141.3658  154.0509 H   0  0  0  0  0  0  0  0  0  0  0  0
  147.6225  140.8690  156.4558 H   0  0  0  0  0  0  0  0  0  0  0  0
  148.8039  138.7857  156.3779 H   0  0  0  0  0  0  0  0  0  0  0  0
  148.0565  139.0666  154.8231 H   0  0  0  0  0  0  0  0  0  0  0  0
  150.4859  137.1811  155.1606 H   0  0  0  0  0  0  0  0  0  0  0  0
  151.2075  137.8067  153.6691 H   0  0  0  0  0  0  0  0  0  0  0  0
  149.4798  137.5644  153.7617 H   0  0  0  0  0  0  0  0  0  0  0  0
  151.3041  139.1261  156.6073 H   0  0  0  0  0  0  0  0  0  0  0  0
  153.4440  140.0727  155.6452 H   0  0  0  0  0  0  0  0  0  0  0  0
  152.6753  140.1455  154.0644 H   0  0  0  0  0  0  0  0  0  0  0  0
  152.9531  138.5930  154.8583 H   0  0  0  0  0  0  0  0  0  0  0  0
  151.8380  141.5181  156.8283 H   0  0  0  0  0  0  0  0  0  0  0  0
  151.1328  141.8681  155.2737 H   0  0  0  0  0  0  0  0  0  0  0  0
  149.6875  140.7869  157.7265 H   0  0  0  0  0  0  0  0  0  0  0  0
  149.9949  143.3748  156.5302 H   0  0  0  0  0  0  0  0  0  0  0  0
  149.6350  143.9518  158.9499 H   0  0  0  0  0  0  0  0  0  0  0  0
  149.8634  142.2235  159.1915 H   0  0  0  0  0  0  0  0  0  0  0  0
  151.9863  142.7119  157.5386 H   0  0  0  0  0  0  0  0  0  0  0  0
  151.8382  144.2995  158.2530 H   0  0  0  0  0  0  0  0  0  0  0  0
  151.3437  144.1104  161.0286 H   0  0  0  0  0  0  0  0  0  0  0  0
  152.5829  143.2143  163.0146 H   0  0  0  0  0  0  0  0  0  0  0  0
  154.2367  141.3559  162.6703 H   0  0  0  0  0  0  0  0  0  0  0  0
  154.5811  140.4744  160.3482 H   0  0  0  0  0  0  0  0  0  0  0  0
  150.1577  139.8663  154.0283 H   0  0  0  0  0  0  0  0  0  0  0  0
  1  2  1  0  0  0  0
  1 19  1  0  0  0  0
  1 20  1  0  0  0  0
  1 21  1  0  0  0  0
  2  9  1  0  0  0  0
  2  3  1  0  0  0  0
  2 22  1  0  0  0  0
  3  4  1  0  0  0  0
  3 23  1  0  0  0  0
  3 24  1  0  0  0  0
  4  5  1  0  0  0  0
  4  6  1  0  0  0  0
  4 44  1  0  0  0  0
  5 25  1  0  0  0  0
  5 26  1  0  0  0  0
  5 27  1  0  0  0  0
  6  7  1  0  0  0  0
  6  8  1  0  0  0  0
  6 28  1  0  0  0  0
  7 29  1  0  0  0  0
  7 30  1  0  0  0  0
  7 31  1  0  0  0  0
  8  9  1  0  0  0  0
  8 32  1  0  0  0  0
  8 33  1  0  0  0  0
  9 10  1  0  0  0  0
  9 34  1  0  0  0  0
 10 11  1  0  0  0  0
 10 35  1  0  0  0  0
 11 12  1  0  0  0  0
 11 36  1  0  0  0  0
 11 37  1  0  0  0  0
 12 13  1  0  0  0  0
 12 38  1  0  0  0  0
 12 39  1  0  0  0  0
 13 18  1  0  0  0  0
 13 14  2  0  0  0  0
 14 15  1  0  0  0  0
 14 40  1  0  0  0  0
 15 16  2  0  0  0  0
 15 41  1  0  0  0  0
 16 17  1  0  0  0  0
 16 42  1  0  0  0  0
 17 18  2  0  0  0  0
 17 43  1  0  0  0  0
M  CHG  1   4   1
M  END
> <s_m_source_file>
AV-unprocessed.smi

> <i_m_source_file_index>
3303

> <i_lp_mmshare_version>
43012

> <i_f3d_flags>
0

> <s_epik_input>
W0NIM11bQ0BASF0xW0NIMl1OKFtDSDNdKVtDQEBIXShbQ0gzXSlbQ0gyXVtDQEhdMVtOSF1bQ0gyXVtDSDJdYzJbY0hdW2NIXVtjSF1bY0hdbjI=

> <s_epik_cmdline>
J2VwaWtfcHl0aG9uJywgJy1waCcsICc3LjAnLCAnLXRuJywgJzgnLCAnLW1hJywgJzIwMCcsICctbWV0YWxfYmluZGluZycsICctaW1hZScsICc8aW5maWxlLm1hZT4nLCAnLW9tYWUnLCAnPG91dGZpbGUubWFlPic=

> <r_epik_Ionization_Penalty>
2.31085

> <r_epik_Ionization_Penalty_Charging>
0.000313057

> <r_epik_Ionization_Penalty_Neutral>
2.31054

> <r_epik_State_Penalty>
2.4087

> <r_epik_Charging_Adjusted_Penalty>
2.40902

> <i_epik_Tot_Q>
1

> <i_epik_Tot_abs_Q>
1

> <r_epik_Metal_State_Penalty>
2.30979

> <b_epik_Metal_Only>
0

> <s_lp_Force_Field>
OPLS_2005

> <r_lp_Energy>
24.7509

> <b_lp_Chiralities_Consistent>
1

> <s_lp_Variant>
AV-unprocessed.smi:3303-26

> <Gold.Version>
5.8.1

> <Gold.Id.Protein>
6NUR|6NUR_protein|mol2

> <Gold.PLP.Fitness>
39.4828

> <Gold.PLP.PLP>
-40.1864

> <Gold.PLP.part.hbond>
-0.8955

> <Gold.PLP.part.metal>
0.0000

> <Gold.PLP.part.buried>
-3.7170

> <Gold.PLP.part.nonpolar>
-35.2389

> <Gold.PLP.part.repulsive>
0.0614

> <Gold.PLP.ligand.clash>
0.0000

> <Gold.PLP.ligand.torsion>
0.6672

> <Gold.PLP.Chemscore.Hbond>
0.2080

> <Gold.PLP.Chemscore.CHOScore>
0.0000

> <Gold.PLP.Chemscore.Metal>
0.0000

> <Gold.Chemscore.Hbonds>
donor molecule, donor type, donor heavy atom, donor atom, acceptor molecule, acceptor atom, score
      L1  H    10    35       P1  8028  0.32

> <Gold.PLP.Chemscore.Internal.Correction>
0.0068

> <Gold.Rescore>
     Score         DG    S(hbond)    S(metal)    S(lipo)     H(rot)  DE(clash)    DE(int)     intcor
     16.29     -17.06       0.44        0.00     115.43       1.33       0.02       0.74       ----

> <Gold.Chemscore.Fitness>
16.2935

> <Gold.Chemscore.DG>
-17.0570

> <Gold.Chemscore.ZeroCoef>
-5.4800

> <Gold.Chemscore.Hbond>
0.4398

> <Gold.Chemscore.Metal>
0.0000

> <Gold.Chemscore.Lipo>
115.4335

> <Gold.Chemscore.Internal_Hbond>
0.0000

> <Gold.Chemscore.DEClash>
0.0218

> <Gold.Chemscore.DEInternal>
0.7417

> <Gold.Chemscore.Rot>
1.3272

> <Gold.Chemscore.Internal.Correction>
   9.000000E+99

> <Gold.Chemscore.Hbonds>
donor molecule, donor type, donor heavy atom, donor atom, acceptor molecule, acceptor atom, score
      L1  H    10    35       P1  8028  0.32

> <Gold.Chemscore.Hbond.Weighted>
-1.4689

> <Gold.Chemscore.Metal.Weighted>
-0.0000

> <Gold.Chemscore.Lipo.Weighted>
-13.5057

> <Gold.Chemscore.Internal_Hbond.Weighted>
0.0000

> <Gold.Chemscore.DEClash.Weighted>
0.0218

> <Gold.Chemscore.DEInternal.Weighted>
0.7417

> <Gold.Chemscore.Rot.Weighted>
3.3976

> <Gold.Chemscore.Internal.Correction.Weighted>
   9.000000E+99

> <Gold.Protein.RotatedTorsions>
[ 6907 6896 6895 6894 ] final  -55.22 input  -60.11 | X-H torsion
[ 7974 7965 7964 7962 ] final  -60.16 input  175.53 | X-H torsion
[ 8008 7997 7996 7995 ] final   26.80 input   59.86 | X-H torsion
[ 10167 10162 10161 10158 ] final   37.61 input  -65.29 | X-H torsion
[ 10718 10713 10712 10709 ] final   84.50 input   66.30 | X-H torsion
[ 10763 10752 10751 10750 ] final -164.66 input  -60.55 | X-H torsion
[ 11005 11000 10999 10996 ] final   56.12 input  -57.11 | X-H torsion

> <Gold.Protein.ActiveResidues>
 VAL166  LYS551  ARG553  GLY616  TRP617  ASP618  TYR619  PRO620  LYS621  CYS622 
 ASP623  PHE694  ASN695  SER759  ASP760  ASP761  ALA762  ILE779  LEU786  VAL792 
 PHE793  MET794  SER795  GLU796  ALA797  LYS798  CYS799  TRP800  GLU811  SER814 

> <Gold.Protein.RotatedAtoms>
  150.8270  134.7506  159.6821 H   0  0  0  0  0  0  0  0  0  0  0  0  # atno 6907 bound_to 6896
  152.4380  134.5645  159.9913 H   0  0  0  0  0  0  0  0  0  0  0  0  # atno 6908 bound_to 6896
  151.5815  133.3339  159.3045 H   0  0  0  0  0  0  0  0  0  0  0  0  # atno 6909 bound_to 6896
  145.8188  140.8553  143.0143 H   0  0  0  0  0  0  0  0  0  0  0  0  # atno 7974 bound_to 7965
  155.0330  140.3160  155.4751 H   0  0  0  0  0  0  0  0  0  0  0  0  # atno 8008 bound_to 7997
  156.2870  140.2177  156.5395 H   0  0  0  0  0  0  0  0  0  0  0  0  # atno 8009 bound_to 7997
  154.7354  140.0478  157.0752 H   0  0  0  0  0  0  0  0  0  0  0  0  # atno 8010 bound_to 7997
  140.4016  144.1715  150.6134 H   0  0  0  0  0  0  0  0  0  0  0  0  # atno 10167 bound_to 10162
  157.6899  131.0135  150.2681 H   0  0  0  0  0  0  0  0  0  0  0  0  # atno 10718 bound_to 10713
  154.7007  135.2987  154.9345 H   0  0  0  0  0  0  0  0  0  0  0  0  # atno 10763 bound_to 10752
  154.0279  135.6674  153.4782 H   0  0  0  0  0  0  0  0  0  0  0  0  # atno 10764 bound_to 10752
  153.0679  135.5077  154.8149 H   0  0  0  0  0  0  0  0  0  0  0  0  # atno 10765 bound_to 10752
  140.0554  134.5678  155.9214 H   0  0  0  0  0  0  0  0  0  0  0  0  # atno 11005 bound_to 11000
  144.6750  140.0503  143.7479 LP  0  0  0  0  0  0  0  0  0  0  0  0  # atno 17320 bound_to 7965
  145.9697  139.2861  143.1106 LP  0  0  0  0  0  0  0  0  0  0  0  0  # atno 17321 bound_to 7965
  140.4733  143.2405  151.9058 LP  0  0  0  0  0  0  0  0  0  0  0  0  # atno 17342 bound_to 10162
  139.4784  144.5346  151.8617 LP  0  0  0  0  0  0  0  0  0  0  0  0  # atno 17343 bound_to 10162
  156.3249  130.3791  149.7542 LP  0  0  0  0  0  0  0  0  0  0  0  0  # atno 17370 bound_to 10713
  156.5101  130.8168  151.3165 LP  0  0  0  0  0  0  0  0  0  0  0  0  # atno 17371 bound_to 10713
  141.1949  133.6585  156.5619 LP  0  0  0  0  0  0  0  0  0  0  0  0  # atno 17394 bound_to 11000
  140.3853  134.7488  157.4687 LP  0  0  0  0  0  0  0  0  0  0  0  0  # atno 17395 bound_to 11000

$$$$
