AV-unprocessed.smi:2862|AV-procd|sdf|11009|dock4
  -GOLD-   2272015473D 1   1.00000     0.00000
 Structure written by MMmdl.
 52 54  0  0  0  0  0  0  0  0  1 V2000
  144.1384  135.6372  154.3314 C   0  0  0  0  0  0  0  0  0  0  0  0
  144.2630  136.0151  152.8453 C   0  0  1  0  0  0  0  0  0  0  0  0
  145.4915  136.7666  152.5932 N   0  0  0  0  0  0  0  0  0  0  0  0
  146.0196  137.7485  153.3474 C   0  0  0  0  0  0  0  0  0  0  0  0
  145.5035  138.1447  154.3914 O   0  0  0  0  0  0  0  0  0  0  0  0
  147.3296  138.4038  152.8743 C   0  0  0  0  0  0  0  0  0  0  0  0
  147.7322  139.6077  153.6257 N   0  0  0  0  0  0  0  0  0  0  0  0
  146.8751  140.7230  153.5408 C   0  0  0  0  0  0  0  0  0  0  0  0
  147.1320  141.8716  154.1843 C   0  0  0  0  0  0  0  0  0  0  0  0
  148.3283  141.9541  154.9852 C   0  0  0  0  0  0  0  0  0  0  0  0
  149.1433  140.8808  155.1014 C   0  0  0  0  0  0  0  0  0  0  0  0
  150.4015  140.9306  155.8583 C   0  0  0  0  0  0  0  0  0  0  0  0
  151.4677  140.5197  155.3958 O   0  0  0  0  0  0  0  0  0  0  0  0
  150.3297  141.4953  157.0988 N   0  0  0  0  0  0  0  0  0  0  0  0
  149.0791  141.6054  157.8693 C   0  0  0  0  0  0  0  0  0  0  0  0
  151.5285  141.8965  157.8676 C   0  0  2  0  0  0  0  0  0  0  0  0
  151.8410  140.9019  159.0039 C   0  0  0  0  0  0  0  0  0  0  0  0
  151.5060  143.3305  158.3811 C   0  0  0  0  0  0  0  0  0  0  0  0
  151.9506  144.4807  157.5099 C   0  0  0  0  0  0  0  0  0  0  0  0
  152.7887  144.0617  158.6969 C   0  0  0  0  0  0  0  0  0  0  0  0
  148.8773  139.6160  154.3783 C   0  0  0  0  0  0  0  0  0  0  0  0
  149.5969  138.6154  154.4443 O   0  0  0  0  0  0  0  0  0  0  0  0
  144.0525  134.8124  151.9380 C   0  0  0  0  0  0  0  0  0  0  0  0
  145.1810  133.8553  151.6399 C   0  0  0  0  0  0  0  0  0  0  0  0
  144.6550  134.7682  150.5544 C   0  0  0  0  0  0  0  0  0  0  0  0
  143.1606  135.2029  154.5413 H   0  0  0  0  0  0  0  0  0  0  0  0
  144.2519  136.5129  154.9713 H   0  0  0  0  0  0  0  0  0  0  0  0
  144.8912  134.9066  154.6281 H   0  0  0  0  0  0  0  0  0  0  0  0
  143.4579  136.7191  152.6318 H   0  0  0  0  0  0  0  0  0  0  0  0
  145.9947  136.5157  151.7546 H   0  0  0  0  0  0  0  0  0  0  0  0
  148.1226  137.6545  152.9071 H   0  0  0  0  0  0  0  0  0  0  0  0
  147.2191  138.6423  151.8156 H   0  0  0  0  0  0  0  0  0  0  0  0
  145.9967  140.5819  152.9275 H   0  0  0  0  0  0  0  0  0  0  0  0
  146.4583  142.7123  154.1077 H   0  0  0  0  0  0  0  0  0  0  0  0
  148.5679  142.8857  155.4776 H   0  0  0  0  0  0  0  0  0  0  0  0
  148.3314  140.8684  157.5734 H   0  0  0  0  0  0  0  0  0  0  0  0
  148.6483  142.6003  157.7542 H   0  0  0  0  0  0  0  0  0  0  0  0
  149.2462  141.4386  158.9339 H   0  0  0  0  0  0  0  0  0  0  0  0
  152.3905  141.8242  157.2021 H   0  0  0  0  0  0  0  0  0  0  0  0
  152.8159  141.1133  159.4439 H   0  0  0  0  0  0  0  0  0  0  0  0
  151.8673  139.8769  158.6324 H   0  0  0  0  0  0  0  0  0  0  0  0
  151.1099  140.9472  159.8106 H   0  0  0  0  0  0  0  0  0  0  0  0
  150.6822  143.5451  159.0585 H   0  0  0  0  0  0  0  0  0  0  0  0
  152.3356  144.2500  156.5189 H   0  0  0  0  0  0  0  0  0  0  0  0
  151.3942  145.4124  157.5886 H   0  0  0  0  0  0  0  0  0  0  0  0
  152.7921  144.7145  159.5673 H   0  0  0  0  0  0  0  0  0  0  0  0
  153.7284  143.5526  158.4921 H   0  0  0  0  0  0  0  0  0  0  0  0
  143.0639  134.3651  152.0231 H   0  0  0  0  0  0  0  0  0  0  0  0
  146.1610  134.0816  152.0555 H   0  0  0  0  0  0  0  0  0  0  0  0
  144.9358  132.7973  151.5724 H   0  0  0  0  0  0  0  0  0  0  0  0
  144.0615  134.3167  149.7619 H   0  0  0  0  0  0  0  0  0  0  0  0
  145.2865  135.6000  150.2484 H   0  0  0  0  0  0  0  0  0  0  0  0
  1  2  1  0  0  0  0
  1 26  1  0  0  0  0
  1 27  1  0  0  0  0
  1 28  1  0  0  0  0
  2  3  1  0  0  0  0
  2 23  1  0  0  0  0
  2 29  1  0  0  0  0
  3  4  1  0  0  0  0
  3 30  1  0  0  0  0
  4  5  2  0  0  0  0
  4  6  1  0  0  0  0
  6  7  1  0  0  0  0
  6 31  1  0  0  0  0
  6 32  1  0  0  0  0
  7 21  1  0  0  0  0
  7  8  1  0  0  0  0
  8  9  2  0  0  0  0
  8 33  1  0  0  0  0
  9 10  1  0  0  0  0
  9 34  1  0  0  0  0
 10 11  2  0  0  0  0
 10 35  1  0  0  0  0
 11 12  1  0  0  0  0
 11 21  1  0  0  0  0
 12 13  2  0  0  0  0
 12 14  1  0  0  0  0
 14 15  1  0  0  0  0
 14 16  1  0  0  0  0
 15 36  1  0  0  0  0
 15 37  1  0  0  0  0
 15 38  1  0  0  0  0
 16 17  1  0  0  0  0
 16 18  1  0  0  0  0
 16 39  1  0  0  0  0
 17 40  1  0  0  0  0
 17 41  1  0  0  0  0
 17 42  1  0  0  0  0
 18 20  1  0  0  0  0
 18 19  1  0  0  0  0
 18 43  1  0  0  0  0
 19 20  1  0  0  0  0
 19 44  1  0  0  0  0
 19 45  1  0  0  0  0
 20 46  1  0  0  0  0
 20 47  1  0  0  0  0
 21 22  2  0  0  0  0
 23 25  1  0  0  0  0
 23 24  1  0  0  0  0
 23 48  1  0  0  0  0
 24 25  1  0  0  0  0
 24 49  1  0  0  0  0
 24 50  1  0  0  0  0
 25 51  1  0  0  0  0
 25 52  1  0  0  0  0
M  END
> <s_m_source_file>
AV-unprocessed.smi

> <i_m_source_file_index>
2862

> <i_lp_mmshare_version>
43012

> <i_f3d_flags>
0

> <s_epik_input>
W0NIMl0xW0NIMl1bQ0hdMVtDQEhdKFtDSDNdKVtOSF1DKD1PKVtDSDJdbjJbY0hdW2NIXVtjSF1jKGMyPU8pQyg9TylOKFtDSDNdKVtDQEhdKFtDSDNdKVtDSF0zW0NIMl1bQ0gyXTM=

> <s_epik_cmdline>
J2VwaWtfcHl0aG9uJywgJy1waCcsICc3LjAnLCAnLXRuJywgJzgnLCAnLW1hJywgJzIwMCcsICctbWV0YWxfYmluZGluZycsICctaW1hZScsICc8aW5maWxlLm1hZT4nLCAnLW9tYWUnLCAnPG91dGZpbGUubWFlPic=

> <r_lp_tautomer_probability>
1

> <r_epik_Ionization_Penalty>
4.00841e-08

> <r_epik_Ionization_Penalty_Charging>
2.07773e-08

> <r_epik_Ionization_Penalty_Neutral>
1.93069e-08

> <r_epik_State_Penalty>
-0

> <r_epik_Charging_Adjusted_Penalty>
2.07773e-08

> <i_epik_Tot_Q>
0

> <i_epik_Tot_abs_Q>
0

> <r_epik_Metal_State_Penalty>
-0

> <b_epik_Metal_Only>
0

> <s_lp_Force_Field>
OPLS_2005

> <r_lp_Energy>
60.0482

> <b_lp_Chiralities_Consistent>
1

> <s_lp_Variant>
AV-unprocessed.smi:2862-2

> <Gold.Version>
5.8.1

> <Gold.Id.Protein>
6NUR|6NUR_protein|mol2

> <Gold.PLP.Fitness>
51.2755

> <Gold.PLP.PLP>
-46.1032

> <Gold.PLP.part.hbond>
-1.2756

> <Gold.PLP.part.metal>
0.0000

> <Gold.PLP.part.buried>
0.3007

> <Gold.PLP.part.nonpolar>
-45.4219

> <Gold.PLP.part.repulsive>
0.3640

> <Gold.PLP.ligand.clash>
0.0000

> <Gold.PLP.ligand.torsion>
2.4215

> <Gold.PLP.Chemscore.Hbond>
0.8640

> <Gold.PLP.Chemscore.CHOScore>
1.0000

> <Gold.PLP.Chemscore.Metal>
0.0000

> <Gold.Chemscore.Hbonds>
donor molecule, donor type, donor heavy atom, donor atom, acceptor molecule, acceptor atom, score
      P1  H  7989  7998       L1    13  0.83
      L1  C     8    33       P1 10175  1.00

> <Gold.PLP.Chemscore.Internal.Correction>
4.4233

> <Gold.Rescore>
     Score         DG    S(hbond)    S(metal)    S(lipo)     H(rot)  DE(clash)    DE(int)     intcor
     11.09     -16.33       0.94        0.00     103.75       1.73       0.31       4.92       ----

> <Gold.Chemscore.Fitness>
11.0894

> <Gold.Chemscore.DG>
-16.3267

> <Gold.Chemscore.ZeroCoef>
-5.4800

> <Gold.Chemscore.Hbond>
0.9429

> <Gold.Chemscore.Metal>
0.0000

> <Gold.Chemscore.Lipo>
103.7494

> <Gold.Chemscore.Internal_Hbond>
0.0000

> <Gold.Chemscore.DEClash>
0.3144

> <Gold.Chemscore.DEInternal>
4.9229

> <Gold.Chemscore.Rot>
1.7348

> <Gold.Chemscore.Internal.Correction>
   9.000000E+99

> <Gold.Chemscore.Hbonds>
donor molecule, donor type, donor heavy atom, donor atom, acceptor molecule, acceptor atom, score
      P1  H  7989  7998       L1    13  0.71

> <Gold.Chemscore.Hbond.Weighted>
-3.1491

> <Gold.Chemscore.Metal.Weighted>
-0.0000

> <Gold.Chemscore.Lipo.Weighted>
-12.1387

> <Gold.Chemscore.Internal_Hbond.Weighted>
0.0000

> <Gold.Chemscore.DEClash.Weighted>
0.3144

> <Gold.Chemscore.DEInternal.Weighted>
4.9229

> <Gold.Chemscore.Rot.Weighted>
4.4412

> <Gold.Chemscore.Internal.Correction.Weighted>
   9.000000E+99

> <Gold.Protein.RotatedTorsions>
[ 6907 6896 6895 6894 ] final  -10.56 input  -60.11 | X-H torsion
[ 7974 7965 7964 7962 ] final   18.09 input  175.53 | X-H torsion
[ 8008 7997 7996 7995 ] final  118.27 input   59.86 | X-H torsion
[ 10167 10162 10161 10158 ] final  -64.11 input  -65.29 | X-H torsion
[ 10718 10713 10712 10709 ] final  -12.39 input   66.30 | X-H torsion
[ 10763 10752 10751 10750 ] final -123.41 input  -60.55 | X-H torsion
[ 11005 11000 10999 10996 ] final  -15.46 input  -57.11 | X-H torsion

> <Gold.Protein.ActiveResidues>
 VAL166  LYS551  ARG553  GLY616  TRP617  ASP618  TYR619  PRO620  LYS621  CYS622 
 ASP623  PHE694  ASN695  SER759  ASP760  ASP761  ALA762  ILE779  LEU786  VAL792 
 PHE793  MET794  SER795  GLU796  ALA797  LYS798  CYS799  TRP800  GLU811  SER814 

> <Gold.Protein.RotatedAtoms>
  151.4000  135.0969  159.9552 H   0  0  0  0  0  0  0  0  0  0  0  0  # atno 6907 bound_to 6896
  152.5053  133.8897  159.7398 H   0  0  0  0  0  0  0  0  0  0  0  0  # atno 6908 bound_to 6896
  150.9369  133.6645  159.2827 H   0  0  0  0  0  0  0  0  0  0  0  0  # atno 6909 bound_to 6896
  146.2196  139.8507  142.8623 H   0  0  0  0  0  0  0  0  0  0  0  0  # atno 7974 bound_to 7965
  156.2537  140.2878  156.0808 H   0  0  0  0  0  0  0  0  0  0  0  0  # atno 8008 bound_to 7997
  155.1569  140.0398  157.2851 H   0  0  0  0  0  0  0  0  0  0  0  0  # atno 8009 bound_to 7997
  154.6421  140.2524  155.7317 H   0  0  0  0  0  0  0  0  0  0  0  0  # atno 8010 bound_to 7997
  140.5824  143.2329  151.6315 H   0  0  0  0  0  0  0  0  0  0  0  0  # atno 10167 bound_to 10162
  156.6453  130.4939  149.6080 H   0  0  0  0  0  0  0  0  0  0  0  0  # atno 10718 bound_to 10713
  154.8707  135.4099  154.2940 H   0  0  0  0  0  0  0  0  0  0  0  0  # atno 10763 bound_to 10752
  153.3811  135.7011  153.6570 H   0  0  0  0  0  0  0  0  0  0  0  0  # atno 10764 bound_to 10752
  153.5392  135.3651  155.2682 H   0  0  0  0  0  0  0  0  0  0  0  0  # atno 10765 bound_to 10752
  140.7969  133.8244  155.9432 H   0  0  0  0  0  0  0  0  0  0  0  0  # atno 11005 bound_to 11000
  145.2804  141.0137  143.3720 LP  0  0  0  0  0  0  0  0  0  0  0  0  # atno 17320 bound_to 7965
  144.9154  139.4477  143.6567 LP  0  0  0  0  0  0  0  0  0  0  0  0  # atno 17321 bound_to 7965
  139.5177  144.3306  152.0829 LP  0  0  0  0  0  0  0  0  0  0  0  0  # atno 17342 bound_to 10162
  140.2458  144.4221  150.6241 LP  0  0  0  0  0  0  0  0  0  0  0  0  # atno 17343 bound_to 10162
  156.2126  130.6688  151.1286 LP  0  0  0  0  0  0  0  0  0  0  0  0  # atno 17370 bound_to 10713
  157.7158  131.0710  150.6332 LP  0  0  0  0  0  0  0  0  0  0  0  0  # atno 17371 bound_to 10713
  140.9334  134.1993  157.4848 LP  0  0  0  0  0  0  0  0  0  0  0  0  # atno 17394 bound_to 11000
  139.8725  134.9842  156.5230 LP  0  0  0  0  0  0  0  0  0  0  0  0  # atno 17395 bound_to 11000

$$$$
