AV-unprocessed.smi:1539|AV-procd|sdf|6196|dock6
  -GOLD-   22720 6363D 1   1.00000     0.00000
 Structure written by MMmdl.
 42 43  0  0  0  0  0  0  0  0  2 V2000
  155.8089  136.2939  158.3025 C   0  0  0  0  0  0  0  0  0  0  0  0
  154.8495  136.1062  159.4802 C   0  0  0  0  0  0  0  0  0  0  0  0
  153.6652  135.8769  159.2333 O   0  0  0  0  0  0  0  0  0  0  0  0
  155.3243  136.2098  160.7458 N   0  0  0  0  0  0  0  0  0  0  0  0
  154.4355  136.0986  161.9124 C   0  0  0  0  0  0  0  0  0  0  0  0
  153.7964  137.4584  162.2666 C   0  0  0  0  0  0  0  0  0  0  0  0
  154.8297  138.5665  162.5693 C   0  0  0  0  0  0  0  0  0  0  0  0
  155.6910  138.8389  161.4026 N   0  0  0  0  0  0  0  0  0  0  0  0
  155.3695  139.6654  160.3732 C   0  0  0  0  0  0  0  0  0  0  0  0
  156.0745  139.8082  159.3730 O   0  0  0  0  0  0  0  0  0  0  0  0
  154.1993  140.3124  160.5158 N   0  0  0  0  0  0  0  0  0  0  0  0
  153.6208  141.2224  159.5350 C   0  0  0  0  0  0  0  0  0  0  0  0
  152.3422  141.8881  160.0693 C   0  0  0  0  0  0  0  0  0  0  0  0
  152.0166  143.1057  159.3259 N   0  0  0  0  0  0  0  0  0  0  0  0
  152.5872  144.3436  159.4732 C   0  0  0  0  0  0  0  0  0  0  0  0
  151.9708  145.1679  158.5674 C   0  0  0  0  0  0  0  0  0  0  0  0
  151.0510  144.3986  157.9063 N   0  3  0  0  0  0  0  0  0  0  0  0
  151.0816  143.1438  158.3679 C   0  0  0  0  0  0  0  0  0  0  0  0
  156.9372  138.0507  161.3981 C   0  0  0  0  0  0  0  0  0  0  0  0
  156.7185  136.5451  161.0866 C   0  0  0  0  0  0  0  0  0  0  0  0
  156.3446  137.2402  158.3798 H   0  0  0  0  0  0  0  0  0  0  0  0
  155.2620  136.2996  157.3592 H   0  0  0  0  0  0  0  0  0  0  0  0
  156.5329  135.4800  158.2634 H   0  0  0  0  0  0  0  0  0  0  0  0
  153.6542  135.3583  161.7330 H   0  0  0  0  0  0  0  0  0  0  0  0
  154.9856  135.7227  162.7758 H   0  0  0  0  0  0  0  0  0  0  0  0
  153.1376  137.7751  161.4574 H   0  0  0  0  0  0  0  0  0  0  0  0
  153.1538  137.3277  163.1377 H   0  0  0  0  0  0  0  0  0  0  0  0
  154.3235  139.4731  162.9037 H   0  0  0  0  0  0  0  0  0  0  0  0
  155.4382  138.2611  163.4214 H   0  0  0  0  0  0  0  0  0  0  0  0
  153.6653  140.1423  161.3559 H   0  0  0  0  0  0  0  0  0  0  0  0
  154.3565  141.9765  159.2498 H   0  0  0  0  0  0  0  0  0  0  0  0
  153.3967  140.6522  158.6330 H   0  0  0  0  0  0  0  0  0  0  0  0
  151.4924  141.2067  160.0065 H   0  0  0  0  0  0  0  0  0  0  0  0
  152.4548  142.1651  161.1185 H   0  0  0  0  0  0  0  0  0  0  0  0
  153.3695  144.5397  160.1928 H   0  0  0  0  0  0  0  0  0  0  0  0
  152.1142  146.2165  158.3497 H   0  0  0  0  0  0  0  0  0  0  0  0
  150.4711  142.3242  158.0324 H   0  0  0  0  0  0  0  0  0  0  0  0
  157.6633  138.4539  160.6909 H   0  0  0  0  0  0  0  0  0  0  0  0
  157.4276  138.1529  162.3670 H   0  0  0  0  0  0  0  0  0  0  0  0
  157.0175  135.9613  161.9579 H   0  0  0  0  0  0  0  0  0  0  0  0
  157.4167  136.2237  160.3141 H   0  0  0  0  0  0  0  0  0  0  0  0
  150.4354  144.7292  157.1736 H   0  0  0  0  0  0  0  0  0  0  0  0
  1  2  1  0  0  0  0
  1 21  1  0  0  0  0
  1 22  1  0  0  0  0
  1 23  1  0  0  0  0
  2  3  2  0  0  0  0
  2  4  1  0  0  0  0
  4 20  1  0  0  0  0
  4  5  1  0  0  0  0
  5  6  1  0  0  0  0
  5 24  1  0  0  0  0
  5 25  1  0  0  0  0
  6  7  1  0  0  0  0
  6 26  1  0  0  0  0
  6 27  1  0  0  0  0
  7  8  1  0  0  0  0
  7 28  1  0  0  0  0
  7 29  1  0  0  0  0
  8  9  1  0  0  0  0
  8 19  1  0  0  0  0
  9 10  2  0  0  0  0
  9 11  1  0  0  0  0
 11 12  1  0  0  0  0
 11 30  1  0  0  0  0
 12 13  1  0  0  0  0
 12 31  1  0  0  0  0
 12 32  1  0  0  0  0
 13 14  1  0  0  0  0
 13 33  1  0  0  0  0
 13 34  1  0  0  0  0
 14 18  1  0  0  0  0
 14 15  1  0  0  0  0
 15 16  2  0  0  0  0
 15 35  1  0  0  0  0
 16 17  1  0  0  0  0
 16 36  1  0  0  0  0
 17 18  2  0  0  0  0
 17 42  1  0  0  0  0
 18 37  1  0  0  0  0
 19 20  1  0  0  0  0
 19 38  1  0  0  0  0
 19 39  1  0  0  0  0
 20 40  1  0  0  0  0
 20 41  1  0  0  0  0
M  CHG  1  17   1
M  END
> <s_m_source_file>
AV-unprocessed.smi

> <i_m_source_file_index>
1539

> <i_lp_mmshare_version>
43012

> <i_f3d_flags>
0

> <s_epik_input>
W0NIM11DKD1PKU4xW0NIMl1bQ0gyXVtDSDJdTihbQ0gyXVtDSDJdMSlDKD1PKVtOSF1bQ0gyXVtDSDJdbjJbY0hdW2NIXW5bY0hdMg==

> <s_epik_cmdline>
J2VwaWtfcHl0aG9uJywgJy1waCcsICc3LjAnLCAnLXRuJywgJzgnLCAnLW1hJywgJzIwMCcsICctbWV0YWxfYmluZGluZycsICctaW1hZScsICc8aW5maWxlLm1hZT4nLCAnLW9tYWUnLCAnPG91dGZpbGUubWFlPic=

> <r_lp_tautomer_probability>
1

> <r_epik_Ionization_Penalty>
0.254079

> <r_epik_Ionization_Penalty_Charging>
0

> <r_epik_Ionization_Penalty_Neutral>
0.254079

> <r_epik_State_Penalty>
0.245493

> <r_epik_Charging_Adjusted_Penalty>
0.245493

> <i_epik_Tot_Q>
1

> <i_epik_Tot_abs_Q>
1

> <r_epik_Metal_State_Penalty>
0.535648

> <b_epik_Metal_Only>
0

> <s_lp_Force_Field>
OPLS_2005

> <r_lp_Energy>
43.2206

> <b_lp_Chiralities_Consistent>
1

> <s_lp_Variant>
AV-unprocessed.smi:1539-1

> <Gold.Version>
5.8.1

> <Gold.Id.Protein>
6NUR|6NUR_protein|mol2

> <Gold.PLP.Fitness>
44.5814

> <Gold.PLP.PLP>
-33.3233

> <Gold.PLP.part.hbond>
-3.0000

> <Gold.PLP.part.metal>
0.0000

> <Gold.PLP.part.buried>
-5.1203

> <Gold.PLP.part.nonpolar>
-25.2378

> <Gold.PLP.part.repulsive>
0.1147

> <Gold.PLP.ligand.clash>
0.0000

> <Gold.PLP.ligand.torsion>
0.3802

> <Gold.PLP.Chemscore.Hbond>
4.0000

> <Gold.PLP.Chemscore.CHOScore>
0.0000

> <Gold.PLP.Chemscore.Metal>
0.0000

> <Gold.Chemscore.Hbonds>
donor molecule, donor type, donor heavy atom, donor atom, acceptor molecule, acceptor atom, score
      L1  H    17    42       P1  8028  1.53
      P1  H  6896  6908       L1     3  0.98
      P1  H  7997  8009       L1    10  0.83

> <Gold.PLP.Chemscore.Internal.Correction>
0.0184

> <Gold.Rescore>
     Score         DG    S(hbond)    S(metal)    S(lipo)     H(rot)  DE(clash)    DE(int)     intcor
     18.64     -19.30       2.99        0.00      70.17       1.70       0.20       0.46       ----

> <Gold.Chemscore.Fitness>
18.6439

> <Gold.Chemscore.DG>
-19.3044

> <Gold.Chemscore.ZeroCoef>
-5.4800

> <Gold.Chemscore.Hbond>
2.9869

> <Gold.Chemscore.Metal>
0.0000

> <Gold.Chemscore.Lipo>
70.1671

> <Gold.Chemscore.Internal_Hbond>
0.0000

> <Gold.Chemscore.DEClash>
0.2047

> <Gold.Chemscore.DEInternal>
0.4558

> <Gold.Chemscore.Rot>
1.7036

> <Gold.Chemscore.Internal.Correction>
   9.000000E+99

> <Gold.Chemscore.Hbonds>
donor molecule, donor type, donor heavy atom, donor atom, acceptor molecule, acceptor atom, score
      L1  H    17    42       P1  8028  0.37
      P1  H  6896  6908       L1     3  0.93
      P1  H  7997  8009       L1    10  0.80

> <Gold.Chemscore.Hbond.Weighted>
-9.9762

> <Gold.Chemscore.Metal.Weighted>
-0.0000

> <Gold.Chemscore.Lipo.Weighted>
-8.2095

> <Gold.Chemscore.Internal_Hbond.Weighted>
0.0000

> <Gold.Chemscore.DEClash.Weighted>
0.2047

> <Gold.Chemscore.DEInternal.Weighted>
0.4558

> <Gold.Chemscore.Rot.Weighted>
4.3613

> <Gold.Chemscore.Internal.Correction.Weighted>
   9.000000E+99

> <Gold.Protein.RotatedTorsions>
[ 6907 6896 6895 6894 ] final  -75.35 input  -60.11 | X-H torsion
[ 7974 7965 7964 7962 ] final  129.58 input  175.53 | X-H torsion
[ 8008 7997 7996 7995 ] final   88.97 input   59.86 | X-H torsion
[ 10167 10162 10161 10158 ] final  140.87 input  -65.29 | X-H torsion
[ 10718 10713 10712 10709 ] final -122.07 input   66.30 | X-H torsion
[ 10763 10752 10751 10750 ] final -141.02 input  -60.55 | X-H torsion
[ 11005 11000 10999 10996 ] final  150.96 input  -57.11 | X-H torsion

> <Gold.Protein.ActiveResidues>
 VAL166  LYS551  ARG553  GLY616  TRP617  ASP618  TYR619  PRO620  LYS621  CYS622 
 ASP623  PHE694  ASN695  SER759  ASP760  ASP761  ALA762  ILE779  LEU786  VAL792 
 PHE793  MET794  SER795  GLU796  ALA797  LYS798  CYS799  TRP800  GLU811  SER814 

> <Gold.Protein.RotatedAtoms>
  150.7062  134.4733  159.5435 H   0  0  0  0  0  0  0  0  0  0  0  0  # atno 6907 bound_to 6896
  152.2385  134.8249  160.0473 H   0  0  0  0  0  0  0  0  0  0  0  0  # atno 6908 bound_to 6896
  151.9039  133.3509  159.3877 H   0  0  0  0  0  0  0  0  0  0  0  0  # atno 6909 bound_to 6896
  145.0271  139.4079  143.5168 H   0  0  0  0  0  0  0  0  0  0  0  0  # atno 7974 bound_to 7965
  155.9942  140.3366  155.6782 H   0  0  0  0  0  0  0  0  0  0  0  0  # atno 8008 bound_to 7997
  155.6379  140.0692  157.2646 H   0  0  0  0  0  0  0  0  0  0  0  0  # atno 8009 bound_to 7997
  154.4229  140.1748  156.1529 H   0  0  0  0  0  0  0  0  0  0  0  0  # atno 8010 bound_to 7997
  139.5036  144.6207  151.6057 H   0  0  0  0  0  0  0  0  0  0  0  0  # atno 10167 bound_to 10162
  156.1388  130.6450  150.9739 H   0  0  0  0  0  0  0  0  0  0  0  0  # atno 10718 bound_to 10713
  154.8559  135.3536  154.5800 H   0  0  0  0  0  0  0  0  0  0  0  0  # atno 10763 bound_to 10752
  153.6411  135.6998  153.5246 H   0  0  0  0  0  0  0  0  0  0  0  0  # atno 10764 bound_to 10752
  153.2970  135.4217  155.1177 H   0  0  0  0  0  0  0  0  0  0  0  0  # atno 10765 bound_to 10752
  140.1177  134.8884  157.2027 H   0  0  0  0  0  0  0  0  0  0  0  0  # atno 11005 bound_to 11000
  146.3493  139.9801  142.8696 LP  0  0  0  0  0  0  0  0  0  0  0  0  # atno 17320 bound_to 7965
  145.1819  140.9771  143.4261 LP  0  0  0  0  0  0  0  0  0  0  0  0  # atno 17321 bound_to 7965
  140.5909  143.9782  150.6324 LP  0  0  0  0  0  0  0  0  0  0  0  0  # atno 17342 bound_to 10162
  140.2962  143.3291  152.1016 LP  0  0  0  0  0  0  0  0  0  0  0  0  # atno 17343 bound_to 10162
  157.6557  131.0890  150.7953 LP  0  0  0  0  0  0  0  0  0  0  0  0  # atno 17370 bound_to 10713
  156.8030  130.4927  149.5367 LP  0  0  0  0  0  0  0  0  0  0  0  0  # atno 17371 bound_to 10713
  140.3006  134.3136  155.7291 LP  0  0  0  0  0  0  0  0  0  0  0  0  # atno 17394 bound_to 11000
  141.2145  133.7590  156.9636 LP  0  0  0  0  0  0  0  0  0  0  0  0  # atno 17395 bound_to 11000

$$$$
