AV-unprocessed.smi:1591|AV-procd|sdf|6398|dock5
  -GOLD-   22720 7 33D 1   1.00000     0.00000
 Structure written by MMmdl.
 52 55  0  0  0  0  0  0  0  0  1 V2000
  146.4998  132.0794  158.4108 C   0  0  0  0  0  0  0  0  0  0  0  0
  147.8727  132.1746  159.0940 C   0  0  0  0  0  0  0  0  0  0  0  0
  148.3770  133.6251  159.3004 C   0  0  1  0  0  0  0  0  0  0  0  0
  148.3745  134.3250  158.0159 N   0  0  0  0  0  0  0  0  0  0  0  0
  149.2705  135.2223  157.5713 C   0  0  0  0  0  0  0  0  0  0  0  0
  150.2936  135.5157  158.1879 O   0  0  0  0  0  0  0  0  0  0  0  0
  148.9668  135.9170  156.2324 C   0  0  0  0  0  0  0  0  0  0  0  0
  149.9490  136.9497  155.8581 N   0  0  0  0  0  0  0  0  0  0  0  0
  149.5322  138.2438  155.5795 C   0  0  0  0  0  0  0  0  0  0  0  0
  150.3841  139.2537  155.2822 C   0  0  0  0  0  0  0  0  0  0  0  0
  151.8236  139.0182  155.2416 C   0  0  0  0  0  0  0  0  0  0  0  0
  152.6745  139.8677  154.9880 O   0  0  0  0  0  0  0  0  0  0  0  0
  152.2033  137.7033  155.5233 N   0  0  0  0  0  0  0  0  0  0  0  0
  151.3310  136.6575  155.8275 C   0  0  0  0  0  0  0  0  0  0  0  0
  151.7735  135.5354  156.0689 O   0  0  0  0  0  0  0  0  0  0  0  0
  147.5838  134.4677  160.3550 C   0  0  0  0  0  0  0  0  0  0  0  0
  147.6239  133.7429  161.7348 C   0  0  0  0  0  0  0  0  0  0  0  0
  146.8490  134.5374  162.8051 C   0  0  1  0  0  0  0  0  0  0  0  0
  147.4795  135.9361  162.9625 C   0  0  0  0  0  0  0  0  0  0  0  0
  147.4032  136.6799  161.6138 C   0  0  2  0  0  0  0  0  0  0  0  0
  145.9293  136.8192  161.1806 C   0  0  0  0  0  0  0  0  0  0  0  0
  145.3097  135.4145  161.0288 C   0  0  2  0  0  0  0  0  0  0  0  0
  145.3750  134.6714  162.3773 C   0  0  0  0  0  0  0  0  0  0  0  0
  146.0878  134.6219  159.9558 C   0  0  0  0  0  0  0  0  0  0  0  0
  148.1873  135.8921  160.5428 C   0  0  0  0  0  0  0  0  0  0  0  0
  153.1907  137.4923  155.5069 H   0  0  0  0  0  0  0  0  0  0  0  0
  146.2362  131.0392  158.2187 H   0  0  0  0  0  0  0  0  0  0  0  0
  146.4996  132.6033  157.4548 H   0  0  0  0  0  0  0  0  0  0  0  0
  145.7095  132.5060  159.0287 H   0  0  0  0  0  0  0  0  0  0  0  0
  147.8245  131.6493  160.0477 H   0  0  0  0  0  0  0  0  0  0  0  0
  148.5760  131.6208  158.4742 H   0  0  0  0  0  0  0  0  0  0  0  0
  149.4039  133.5488  159.6625 H   0  0  0  0  0  0  0  0  0  0  0  0
  147.5729  134.1548  157.4261 H   0  0  0  0  0  0  0  0  0  0  0  0
  148.8919  135.1608  155.4487 H   0  0  0  0  0  0  0  0  0  0  0  0
  147.9709  136.3568  156.3008 H   0  0  0  0  0  0  0  0  0  0  0  0
  148.4750  138.4664  155.6082 H   0  0  0  0  0  0  0  0  0  0  0  0
  149.9989  140.2422  155.0782 H   0  0  0  0  0  0  0  0  0  0  0  0
  147.2042  132.7400  161.6449 H   0  0  0  0  0  0  0  0  0  0  0  0
  148.6490  133.6087  162.0784 H   0  0  0  0  0  0  0  0  0  0  0  0
  146.9021  134.0082  163.7569 H   0  0  0  0  0  0  0  0  0  0  0  0
  146.9582  136.5009  163.7363 H   0  0  0  0  0  0  0  0  0  0  0  0
  148.5171  135.8496  163.2884 H   0  0  0  0  0  0  0  0  0  0  0  0
  147.8423  137.6719  161.7245 H   0  0  0  0  0  0  0  0  0  0  0  0
  145.3722  137.4011  161.9161 H   0  0  0  0  0  0  0  0  0  0  0  0
  145.8623  137.3663  160.2394 H   0  0  0  0  0  0  0  0  0  0  0  0
  144.2681  135.5109  160.7210 H   0  0  0  0  0  0  0  0  0  0  0  0
  144.9148  133.6864  162.2900 H   0  0  0  0  0  0  0  0  0  0  0  0
  144.8081  135.2120  163.1363 H   0  0  0  0  0  0  0  0  0  0  0  0
  145.9897  135.1505  159.0084 H   0  0  0  0  0  0  0  0  0  0  0  0
  145.6312  133.6419  159.8106 H   0  0  0  0  0  0  0  0  0  0  0  0
  149.2356  135.8378  160.8384 H   0  0  0  0  0  0  0  0  0  0  0  0
  148.1643  136.4460  159.6043 H   0  0  0  0  0  0  0  0  0  0  0  0
  1  2  1  0  0  0  0
  1 27  1  0  0  0  0
  1 28  1  0  0  0  0
  1 29  1  0  0  0  0
  2  3  1  0  0  0  0
  2 30  1  0  0  0  0
  2 31  1  0  0  0  0
  3  4  1  0  0  0  0
  3 16  1  0  0  0  0
  3 32  1  0  0  0  0
  4  5  1  0  0  0  0
  4 33  1  0  0  0  0
  5  6  2  0  0  0  0
  5  7  1  0  0  0  0
  7  8  1  0  0  0  0
  7 34  1  0  0  0  0
  7 35  1  0  0  0  0
  8 14  1  0  0  0  0
  8  9  1  0  0  0  0
  9 10  2  0  0  0  0
  9 36  1  0  0  0  0
 10 11  1  0  0  0  0
 10 37  1  0  0  0  0
 11 12  2  0  0  0  0
 11 13  1  0  0  0  0
 13 26  1  0  0  0  0
 13 14  1  0  0  0  0
 14 15  2  0  0  0  0
 16 24  1  0  0  0  0
 16 25  1  0  0  0  0
 16 17  1  0  0  0  0
 17 18  1  0  0  0  0
 17 38  1  0  0  0  0
 17 39  1  0  0  0  0
 18 23  1  0  0  0  0
 18 19  1  0  0  0  0
 18 40  1  0  0  0  0
 19 20  1  0  0  0  0
 19 41  1  0  0  0  0
 19 42  1  0  0  0  0
 20 21  1  0  0  0  0
 20 25  1  0  0  0  0
 20 43  1  0  0  0  0
 21 22  1  0  0  0  0
 21 44  1  0  0  0  0
 21 45  1  0  0  0  0
 22 23  1  0  0  0  0
 22 24  1  0  0  0  0
 22 46  1  0  0  0  0
 23 47  1  0  0  0  0
 23 48  1  0  0  0  0
 24 49  1  0  0  0  0
 24 50  1  0  0  0  0
 25 51  1  0  0  0  0
 25 52  1  0  0  0  0
M  END
> <s_m_source_file>
AV-unprocessed.smi

> <i_m_source_file_index>
1591

> <i_lp_mmshare_version>
43012

> <i_f3d_flags>
0

> <s_epik_input>
W0NIMl0xW0NASF0oW0NIMl0yKVtDSDJdW0NASF0oW0NIMl0zKVtDSDJdW0NAQEhdMVtDSDJdQzIzW0NASF0oW0NIMl1bQ0gzXSlbTkhdQyg9TylbQ0gyXW40W2NIXVtjSF1jKD1PKVtuSF1jND1P

> <s_epik_cmdline>
J2VwaWtfcHl0aG9uJywgJy1waCcsICc3LjAnLCAnLXRuJywgJzgnLCAnLW1hJywgJzIwMCcsICctbWV0YWxfYmluZGluZycsICctaW1hZScsICc8aW5maWxlLm1hZT4nLCAnLW9tYWUnLCAnPG91dGZpbGUubWFlPic=

> <r_lp_tautomer_probability>
0.999537

> <r_epik_Ionization_Penalty>
0.00297067

> <r_epik_Ionization_Penalty_Charging>
0.00297065

> <r_epik_Ionization_Penalty_Neutral>
1.95363e-08

> <r_epik_State_Penalty>
0.00208437

> <r_epik_Charging_Adjusted_Penalty>
0.00505502

> <i_epik_Tot_Q>
0

> <i_epik_Tot_abs_Q>
0

> <r_epik_Metal_State_Penalty>
0.36072

> <b_epik_Metal_Only>
0

> <s_lp_Force_Field>
OPLS_2005

> <r_lp_Energy>
36.0514

> <b_lp_Chiralities_Consistent>
1

> <s_lp_Variant>
AV-unprocessed.smi:1591-2

> <Gold.Version>
5.8.1

> <Gold.Id.Protein>
6NUR|6NUR_protein|mol2

> <Gold.PLP.Fitness>
44.0213

> <Gold.PLP.PLP>
-34.9454

> <Gold.PLP.part.hbond>
-3.9396

> <Gold.PLP.part.metal>
0.0000

> <Gold.PLP.part.buried>
-4.2158

> <Gold.PLP.part.nonpolar>
-28.7114

> <Gold.PLP.part.repulsive>
0.2572

> <Gold.PLP.ligand.clash>
0.0000

> <Gold.PLP.ligand.torsion>
0.4360

> <Gold.PLP.Chemscore.Hbond>
3.2756

> <Gold.PLP.Chemscore.CHOScore>
0.0000

> <Gold.PLP.Chemscore.Metal>
0.0000

> <Gold.Chemscore.Hbonds>
donor molecule, donor type, donor heavy atom, donor atom, acceptor molecule, acceptor atom, score
      P1  H  6896  6909       L1     6  0.75
      P1  H  7989  7998       L1    12  0.48
      P1  H  7997  8009       L1    12  1.00
      P1  H 10752 10765       L1    15  0.80

> <Gold.PLP.Chemscore.Internal.Correction>
0.1213

> <Gold.Rescore>
     Score         DG    S(hbond)    S(metal)    S(lipo)     H(rot)  DE(clash)    DE(int)     intcor
     18.04     -18.66       2.65        0.00      81.57       2.04       0.01       0.60       ----

> <Gold.Chemscore.Fitness>
18.0426

> <Gold.Chemscore.DG>
-18.6557

> <Gold.Chemscore.ZeroCoef>
-5.4800

> <Gold.Chemscore.Hbond>
2.6518

> <Gold.Chemscore.Metal>
0.0000

> <Gold.Chemscore.Lipo>
81.5676

> <Gold.Chemscore.Internal_Hbond>
0.0000

> <Gold.Chemscore.DEClash>
0.0089

> <Gold.Chemscore.DEInternal>
0.6042

> <Gold.Chemscore.Rot>
2.0409

> <Gold.Chemscore.Internal.Correction>
   9.000000E+99

> <Gold.Chemscore.Hbonds>
donor molecule, donor type, donor heavy atom, donor atom, acceptor molecule, acceptor atom, score
      P1  H  6896  6909       L1     6  0.71
      P1  H  7989  7998       L1    12  0.10
      P1  H  7997  8009       L1    12  0.94
      P1  H 10752 10765       L1    15  0.11

> <Gold.Chemscore.Hbond.Weighted>
-8.8569

> <Gold.Chemscore.Metal.Weighted>
-0.0000

> <Gold.Chemscore.Lipo.Weighted>
-9.5434

> <Gold.Chemscore.Internal_Hbond.Weighted>
0.0000

> <Gold.Chemscore.DEClash.Weighted>
0.0089

> <Gold.Chemscore.DEInternal.Weighted>
0.6042

> <Gold.Chemscore.Rot.Weighted>
5.2246

> <Gold.Chemscore.Internal.Correction.Weighted>
   9.000000E+99

> <Gold.Protein.RotatedTorsions>
[ 6907 6896 6895 6894 ] final   46.67 input  -60.11 | X-H torsion
[ 7974 7965 7964 7962 ] final   79.50 input  175.53 | X-H torsion
[ 8008 7997 7996 7995 ] final -141.54 input   59.86 | X-H torsion
[ 10167 10162 10161 10158 ] final  167.89 input  -65.29 | X-H torsion
[ 10718 10713 10712 10709 ] final  178.91 input   66.30 | X-H torsion
[ 10763 10752 10751 10750 ] final -169.61 input  -60.55 | X-H torsion
[ 11005 11000 10999 10996 ] final   95.15 input  -57.11 | X-H torsion

> <Gold.Protein.ActiveResidues>
 VAL166  LYS551  ARG553  GLY616  TRP617  ASP618  TYR619  PRO620  LYS621  CYS622 
 ASP623  PHE694  ASN695  SER759  ASP760  ASP761  ALA762  ILE779  LEU786  VAL792 
 PHE793  MET794  SER795  GLU796  ALA797  LYS798  CYS799  TRP800  GLU811  SER814 

> <Gold.Protein.RotatedAtoms>
  152.2591  134.8053  160.0433 H   0  0  0  0  0  0  0  0  0  0  0  0  # atno 6907 bound_to 6896
  151.8706  133.3470  159.3741 H   0  0  0  0  0  0  0  0  0  0  0  0  # atno 6908 bound_to 6896
  150.7110  134.5044  159.5621 H   0  0  0  0  0  0  0  0  0  0  0  0  # atno 6909 bound_to 6896
  145.6633  139.2477  143.1910 H   0  0  0  0  0  0  0  0  0  0  0  0  # atno 7974 bound_to 7965
  155.4795  140.0559  157.2969 H   0  0  0  0  0  0  0  0  0  0  0  0  # atno 8008 bound_to 7997
  154.4666  140.2021  156.0056 H   0  0  0  0  0  0  0  0  0  0  0  0  # atno 8009 bound_to 7997
  156.0984  140.3223  155.7913 H   0  0  0  0  0  0  0  0  0  0  0  0  # atno 8010 bound_to 7997
  139.4955  144.3873  151.9556 H   0  0  0  0  0  0  0  0  0  0  0  0  # atno 10167 bound_to 10162
  156.8835  130.9824  151.3059 H   0  0  0  0  0  0  0  0  0  0  0  0  # atno 10718 bound_to 10713
  154.6504  135.2910  154.9994 H   0  0  0  0  0  0  0  0  0  0  0  0  # atno 10763 bound_to 10752
  154.1089  135.6565  153.4885 H   0  0  0  0  0  0  0  0  0  0  0  0  # atno 10764 bound_to 10752
  153.0373  135.5260  154.7409 H   0  0  0  0  0  0  0  0  0  0  0  0  # atno 10765 bound_to 10752
  139.8791  134.8884  156.3969 H   0  0  0  0  0  0  0  0  0  0  0  0  # atno 11005 bound_to 11000
  146.1107  140.7432  142.9505 LP  0  0  0  0  0  0  0  0  0  0  0  0  # atno 17320 bound_to 7965
  144.7081  140.3934  143.7102 LP  0  0  0  0  0  0  0  0  0  0  0  0  # atno 17321 bound_to 7965
  140.3310  144.3316  150.5987 LP  0  0  0  0  0  0  0  0  0  0  0  0  # atno 17342 bound_to 10162
  140.5645  143.2188  151.7708 LP  0  0  0  0  0  0  0  0  0  0  0  0  # atno 17343 bound_to 10162
  157.6126  130.8594  149.8976 LP  0  0  0  0  0  0  0  0  0  0  0  0  # atno 17370 bound_to 10713
  156.0665  130.3691  150.0868 LP  0  0  0  0  0  0  0  0  0  0  0  0  # atno 17371 bound_to 10713
  140.9294  133.7590  156.0005 LP  0  0  0  0  0  0  0  0  0  0  0  0  # atno 17394 bound_to 11000
  140.8348  134.3135  157.5335 LP  0  0  0  0  0  0  0  0  0  0  0  0  # atno 17395 bound_to 11000

$$$$
