AV-unprocessed.smi:1855|AV-procd|sdf|7532|dock1
  -GOLD-   22720 9243D 1   1.00000     0.00000
 Structure written by MMmdl.
 44 46  0  0  0  0  0  0  0  0  2 V2000
  153.8233  141.5010  161.4444 C   0  0  0  0  0  0  0  0  0  0  0  0
  152.8920  141.2456  160.4040 O   0  0  0  0  0  0  0  0  0  0  0  0
  152.6168  142.2581  159.5075 C   0  0  0  0  0  0  0  0  0  0  0  0
  153.1794  143.5570  159.5886 C   0  0  0  0  0  0  0  0  0  0  0  0
  152.8457  144.5394  158.6382 C   0  0  0  0  0  0  0  0  0  0  0  0
  151.9506  144.2366  157.5978 C   0  0  0  0  0  0  0  0  0  0  0  0
  151.3865  142.9511  157.5079 C   0  0  0  0  0  0  0  0  0  0  0  0
  151.7147  141.9564  158.4620 C   0  0  0  0  0  0  0  0  0  0  0  0
  151.2045  140.6775  158.4377 O   0  0  0  0  0  0  0  0  0  0  0  0
  150.2275  140.3446  157.4624 C   0  0  0  0  0  0  0  0  0  0  0  0
  150.9097  140.2738  156.0883 C   0  0  0  0  0  0  0  0  0  0  0  0
  150.0246  139.6977  155.0623 N   0  0  0  0  0  0  0  0  0  0  0  0
  150.0713  138.4878  154.4323 C   0  0  0  0  0  0  0  0  0  0  0  0
  151.0674  137.3911  154.6461 C   0  0  0  0  0  0  0  0  0  0  0  0
  150.5588  136.0798  154.2622 N   0  0  0  0  0  0  0  0  0  0  0  0
  150.0265  135.1855  155.1072 C   0  0  0  0  0  0  0  0  0  0  0  0
  149.8890  135.3671  156.3155 O   0  0  0  0  0  0  0  0  0  0  0  0
  149.0325  138.4525  153.5500 N   0  3  0  0  0  0  0  0  0  0  0  0
  148.3198  139.6500  153.6088 C   0  0  0  0  0  0  0  0  0  0  0  0
  147.2023  140.0802  152.8999 C   0  0  0  0  0  0  0  0  0  0  0  0
  146.7262  141.3748  153.1938 C   0  0  0  0  0  0  0  0  0  0  0  0
  147.3539  142.1854  154.1616 C   0  0  0  0  0  0  0  0  0  0  0  0
  148.4818  141.7351  154.8780 C   0  0  0  0  0  0  0  0  0  0  0  0
  148.9497  140.4552  154.5792 C   0  0  0  0  0  0  0  0  0  0  0  0
  153.9207  140.6099  162.0644 H   0  0  0  0  0  0  0  0  0  0  0  0
  153.4889  142.3155  162.0883 H   0  0  0  0  0  0  0  0  0  0  0  0
  154.8113  141.7359  161.0464 H   0  0  0  0  0  0  0  0  0  0  0  0
  153.8711  143.8258  160.3722 H   0  0  0  0  0  0  0  0  0  0  0  0
  153.2790  145.5262  158.7073 H   0  0  0  0  0  0  0  0  0  0  0  0
  151.6971  144.9903  156.8668 H   0  0  0  0  0  0  0  0  0  0  0  0
  150.7071  142.7492  156.6938 H   0  0  0  0  0  0  0  0  0  0  0  0
  149.7751  139.3782  157.6913 H   0  0  0  0  0  0  0  0  0  0  0  0
  149.4361  141.0951  157.4471 H   0  0  0  0  0  0  0  0  0  0  0  0
  151.2040  141.2709  155.7623 H   0  0  0  0  0  0  0  0  0  0  0  0
  151.8280  139.6888  156.1373 H   0  0  0  0  0  0  0  0  0  0  0  0
  151.9530  137.6044  154.0474 H   0  0  0  0  0  0  0  0  0  0  0  0
  151.3972  137.3750  155.6854 H   0  0  0  0  0  0  0  0  0  0  0  0
  150.6271  135.8288  153.2865 H   0  0  0  0  0  0  0  0  0  0  0  0
  149.7296  134.2694  154.5737 H   0  0  0  0  0  0  0  0  0  0  0  0
  146.7213  139.4621  152.1564 H   0  0  0  0  0  0  0  0  0  0  0  0
  145.8641  141.7546  152.6653 H   0  0  0  0  0  0  0  0  0  0  0  0
  146.9639  143.1737  154.3576 H   0  0  0  0  0  0  0  0  0  0  0  0
  148.9592  142.3687  155.6106 H   0  0  0  0  0  0  0  0  0  0  0  0
  148.8316  137.6649  152.9475 H   0  0  0  0  0  0  0  0  0  0  0  0
  1  2  1  0  0  0  0
  1 25  1  0  0  0  0
  1 26  1  0  0  0  0
  1 27  1  0  0  0  0
  2  3  1  0  0  0  0
  3  8  1  0  0  0  0
  3  4  2  0  0  0  0
  4  5  1  0  0  0  0
  4 28  1  0  0  0  0
  5  6  2  0  0  0  0
  5 29  1  0  0  0  0
  6  7  1  0  0  0  0
  6 30  1  0  0  0  0
  7  8  2  0  0  0  0
  7 31  1  0  0  0  0
  8  9  1  0  0  0  0
  9 10  1  0  0  0  0
 10 11  1  0  0  0  0
 10 32  1  0  0  0  0
 10 33  1  0  0  0  0
 11 12  1  0  0  0  0
 11 34  1  0  0  0  0
 11 35  1  0  0  0  0
 12 24  1  0  0  0  0
 12 13  1  0  0  0  0
 13 14  1  0  0  0  0
 13 18  2  0  0  0  0
 14 15  1  0  0  0  0
 14 36  1  0  0  0  0
 14 37  1  0  0  0  0
 15 16  1  0  0  0  0
 15 38  1  0  0  0  0
 16 17  2  0  0  0  0
 16 39  1  0  0  0  0
 18 19  1  0  0  0  0
 18 44  1  0  0  0  0
 19 24  2  0  0  0  0
 19 20  1  0  0  0  0
 20 21  2  0  0  0  0
 20 40  1  0  0  0  0
 21 22  1  0  0  0  0
 21 41  1  0  0  0  0
 22 23  2  0  0  0  0
 22 42  1  0  0  0  0
 23 24  1  0  0  0  0
 23 43  1  0  0  0  0
M  CHG  1  18   1
M  END
> <s_m_source_file>
AV-unprocessed.smi

> <i_m_source_file_index>
1855

> <i_lp_mmshare_version>
43012

> <i_f3d_flags>
0

> <s_epik_input>
W0NIM11PYzFbY0hdW2NIXVtjSF1bY0hdYzFPW0NIMl1bQ0gyXW4oYyhuMilbQ0gyXVtOSF1bQ0hdPU8pYyhjMjMpW2NIXVtjSF1bY0hdW2NIXTM=

> <s_epik_cmdline>
J2VwaWtfcHl0aG9uJywgJy1waCcsICc3LjAnLCAnLXRuJywgJzgnLCAnLW1hJywgJzIwMCcsICctbWV0YWxfYmluZGluZycsICctaW1hZScsICc8aW5maWxlLm1hZT4nLCAnLW9tYWUnLCAnPG91dGZpbGUubWFlPic=

> <r_lp_tautomer_probability>
1

> <r_epik_Ionization_Penalty>
1.39865

> <r_epik_Ionization_Penalty_Charging>
1.39865

> <r_epik_Ionization_Penalty_Neutral>
7.38905e-08

> <r_epik_State_Penalty>
1.48061

> <r_epik_Charging_Adjusted_Penalty>
2.87925

> <i_epik_Tot_Q>
1

> <i_epik_Tot_abs_Q>
1

> <r_epik_Metal_State_Penalty>
1.53473

> <b_epik_Metal_Only>
0

> <s_lp_Force_Field>
OPLS_2005

> <r_lp_Energy>
17.0983

> <b_lp_Chiralities_Consistent>
1

> <s_lp_Variant>
AV-unprocessed.smi:1855-2

> <Gold.Version>
5.8.1

> <Gold.Id.Protein>
6NUR|6NUR_protein|mol2

> <Gold.PLP.Fitness>
61.5808

> <Gold.PLP.PLP>
-53.8304

> <Gold.PLP.part.hbond>
-3.9980

> <Gold.PLP.part.metal>
0.0000

> <Gold.PLP.part.buried>
-0.2871

> <Gold.PLP.part.nonpolar>
-51.3068

> <Gold.PLP.part.repulsive>
0.8204

> <Gold.PLP.ligand.clash>
0.0000

> <Gold.PLP.ligand.torsion>
0.7112

> <Gold.PLP.Chemscore.Hbond>
3.0000

> <Gold.PLP.Chemscore.CHOScore>
0.0000

> <Gold.PLP.Chemscore.Metal>
0.0000

> <Gold.Chemscore.Hbonds>
donor molecule, donor type, donor heavy atom, donor atom, acceptor molecule, acceptor atom, score
      L1  H    15    38       P1  7949  0.30
      L1  H    18    44       P1  7948  2.00

> <Gold.PLP.Chemscore.Internal.Correction>
0.1728

> <Gold.Rescore>
     Score         DG    S(hbond)    S(metal)    S(lipo)     H(rot)  DE(clash)    DE(int)     intcor
     16.38     -18.54       1.00        0.00     144.65       2.81       1.45       0.71       ----

> <Gold.Chemscore.Fitness>
16.3786

> <Gold.Chemscore.DG>
-18.5390

> <Gold.Chemscore.ZeroCoef>
-5.4800

> <Gold.Chemscore.Hbond>
0.9971

> <Gold.Chemscore.Metal>
0.0000

> <Gold.Chemscore.Lipo>
144.6525

> <Gold.Chemscore.Internal_Hbond>
0.0000

> <Gold.Chemscore.DEClash>
1.4478

> <Gold.Chemscore.DEInternal>
0.7126

> <Gold.Chemscore.Rot>
2.8108

> <Gold.Chemscore.Internal.Correction>
   9.000000E+99

> <Gold.Chemscore.Hbonds>
donor molecule, donor type, donor heavy atom, donor atom, acceptor molecule, acceptor atom, score
      L1  H    18    44       P1  7948  1.00

> <Gold.Chemscore.Hbond.Weighted>
-3.3302

> <Gold.Chemscore.Metal.Weighted>
-0.0000

> <Gold.Chemscore.Lipo.Weighted>
-16.9243

> <Gold.Chemscore.Internal_Hbond.Weighted>
0.0000

> <Gold.Chemscore.DEClash.Weighted>
1.4478

> <Gold.Chemscore.DEInternal.Weighted>
0.7126

> <Gold.Chemscore.Rot.Weighted>
7.1955

> <Gold.Chemscore.Internal.Correction.Weighted>
   9.000000E+99

> <Gold.Protein.RotatedTorsions>
[ 6907 6896 6895 6894 ] final  -22.50 input  -60.11 | X-H torsion
[ 7974 7965 7964 7962 ] final  -63.25 input  175.53 | X-H torsion
[ 8008 7997 7996 7995 ] final  155.59 input   59.86 | X-H torsion
[ 10167 10162 10161 10158 ] final -167.07 input  -65.29 | X-H torsion
[ 10718 10713 10712 10709 ] final  -58.64 input   66.30 | X-H torsion
[ 10763 10752 10751 10750 ] final -101.38 input  -60.55 | X-H torsion
[ 11005 11000 10999 10996 ] final    7.77 input  -57.11 | X-H torsion

> <Gold.Protein.ActiveResidues>
 VAL166  LYS551  ARG553  GLY616  TRP617  ASP618  TYR619  PRO620  LYS621  CYS622 
 ASP623  PHE694  ASN695  SER759  ASP760  ASP761  ALA762  ILE779  LEU786  VAL792 
 PHE793  MET794  SER795  GLU796  ALA797  LYS798  CYS799  TRP800  GLU811  SER814 

> <Gold.Protein.RotatedAtoms>
  151.2176  135.0506  159.8936 H   0  0  0  0  0  0  0  0  0  0  0  0  # atno 6907 bound_to 6896
  152.5418  134.0676  159.8190 H   0  0  0  0  0  0  0  0  0  0  0  0  # atno 6908 bound_to 6896
  151.0837  133.5321  159.2651 H   0  0  0  0  0  0  0  0  0  0  0  0  # atno 6909 bound_to 6896
  145.7813  140.8760  143.0329 H   0  0  0  0  0  0  0  0  0  0  0  0  # atno 7974 bound_to 7965
  156.2469  140.1935  156.6825 H   0  0  0  0  0  0  0  0  0  0  0  0  # atno 8008 bound_to 7997
  154.6311  140.0595  156.9759 H   0  0  0  0  0  0  0  0  0  0  0  0  # atno 8009 bound_to 7997
  155.1709  140.3268  155.4395 H   0  0  0  0  0  0  0  0  0  0  0  0  # atno 8010 bound_to 7997
  139.6073  144.0886  152.1806 H   0  0  0  0  0  0  0  0  0  0  0  0  # atno 10167 bound_to 10162
  156.1120  130.4174  150.0605 H   0  0  0  0  0  0  0  0  0  0  0  0  # atno 10718 bound_to 10713
  154.7653  135.4900  153.9543 H   0  0  0  0  0  0  0  0  0  0  0  0  # atno 10763 bound_to 10752
  153.1301  135.6751  153.9200 H   0  0  0  0  0  0  0  0  0  0  0  0  # atno 10764 bound_to 10752
  153.8906  135.3121  155.3426 H   0  0  0  0  0  0  0  0  0  0  0  0  # atno 10765 bound_to 10752
  140.5445  134.0342  155.7915 H   0  0  0  0  0  0  0  0  0  0  0  0  # atno 11005 bound_to 11000
  144.6796  139.9993  143.7484 LP  0  0  0  0  0  0  0  0  0  0  0  0  # atno 17320 bound_to 7965
  146.0071  139.3139  143.0893 LP  0  0  0  0  0  0  0  0  0  0  0  0  # atno 17321 bound_to 7965
  140.0497  144.5943  150.7346 LP  0  0  0  0  0  0  0  0  0  0  0  0  # atno 17342 bound_to 10162
  140.7294  143.2672  151.4006 LP  0  0  0  0  0  0  0  0  0  0  0  0  # atno 17343 bound_to 10162
  156.8566  130.9477  151.3621 LP  0  0  0  0  0  0  0  0  0  0  0  0  # atno 17370 bound_to 10713
  157.6301  130.8723  149.9259 LP  0  0  0  0  0  0  0  0  0  0  0  0  # atno 17371 bound_to 10713
  141.1208  133.9465  157.2733 LP  0  0  0  0  0  0  0  0  0  0  0  0  # atno 17394 bound_to 11000
  139.9487  135.0179  156.8929 LP  0  0  0  0  0  0  0  0  0  0  0  0  # atno 17395 bound_to 11000

$$$$
