AV-unprocessed.smi:832|AV-procd|sdf|3878|dock7
  -GOLD-   22720 1333D 1   1.00000     0.00000
 Structure written by MMmdl.
 42 43  0  0  0  0  0  0  0  0  2 V2000
  150.4177  141.7149  156.0218 C   0  0  0  0  0  0  0  0  0  0  0  0
  150.5889  140.3701  155.4028 C   0  0  0  0  0  0  0  0  0  0  0  0
  149.7525  139.2990  155.2588 C   0  0  0  0  0  0  0  0  0  0  0  0
  150.5592  138.3539  154.5711 C   0  0  0  0  0  0  0  0  0  0  0  0
  150.0462  137.0798  154.2170 N   0  0  0  0  0  0  0  0  0  0  0  0
  150.1743  135.9282  154.8978 C   0  0  0  0  0  0  0  0  0  0  0  0
  150.7543  135.8029  155.9768 O   0  0  0  0  0  0  0  0  0  0  0  0
  149.5844  134.9111  154.2523 N   0  0  0  0  0  0  0  0  0  0  0  0
  149.5692  133.5215  154.6999 C   0  0  0  0  0  0  0  0  0  0  0  0
  148.2662  132.7981  154.3082 C   0  0  2  0  0  0  0  0  0  0  0  0
  148.3628  131.2760  154.2223 C   0  0  0  0  0  0  0  0  0  0  0  0
  147.1886  130.9188  153.3191 C   0  0  0  0  0  0  0  0  0  0  0  0
  147.1488  131.9895  152.2987 N   0  3  1  0  0  0  0  0  0  0  0  0
  145.8373  132.1866  151.6183 C   0  0  0  0  0  0  0  0  0  0  0  0
  145.1349  130.8455  151.3310 C   0  0  0  0  0  0  0  0  0  0  0  0
  146.0080  132.9660  150.3002 C   0  0  0  0  0  0  0  0  0  0  0  0
  147.7279  133.2054  152.9265 C   0  0  0  0  0  0  0  0  0  0  0  0
  151.7791  138.8050  154.3222 N   0  0  0  0  0  0  0  0  0  0  0  0
  151.8042  140.0998  154.8539 O   0  0  0  0  0  0  0  0  0  0  0  0
  149.3909  141.8621  156.3569 H   0  0  0  0  0  0  0  0  0  0  0  0
  150.6558  142.5027  155.3070 H   0  0  0  0  0  0  0  0  0  0  0  0
  151.0748  141.8292  156.8840 H   0  0  0  0  0  0  0  0  0  0  0  0
  148.7284  139.2111  155.5901 H   0  0  0  0  0  0  0  0  0  0  0  0
  149.5432  137.0391  153.3429 H   0  0  0  0  0  0  0  0  0  0  0  0
  149.1292  135.1088  153.3730 H   0  0  0  0  0  0  0  0  0  0  0  0
  150.4176  133.0179  154.2358 H   0  0  0  0  0  0  0  0  0  0  0  0
  149.7339  133.4596  155.7773 H   0  0  0  0  0  0  0  0  0  0  0  0
  147.4983  133.0384  155.0458 H   0  0  0  0  0  0  0  0  0  0  0  0
  149.2990  130.9788  153.7472 H   0  0  0  0  0  0  0  0  0  0  0  0
  148.3084  130.7900  155.1971 H   0  0  0  0  0  0  0  0  0  0  0  0
  147.3014  129.9320  152.8692 H   0  0  0  0  0  0  0  0  0  0  0  0
  146.2648  130.9262  153.9003 H   0  0  0  0  0  0  0  0  0  0  0  0
  145.1954  132.7684  152.2819 H   0  0  0  0  0  0  0  0  0  0  0  0
  144.1999  131.0035  150.7923 H   0  0  0  0  0  0  0  0  0  0  0  0
  144.8828  130.3094  152.2458 H   0  0  0  0  0  0  0  0  0  0  0  0
  145.7595  130.1927  150.7202 H   0  0  0  0  0  0  0  0  0  0  0  0
  145.0506  133.0891  149.7930 H   0  0  0  0  0  0  0  0  0  0  0  0
  146.6777  132.4437  149.6160 H   0  0  0  0  0  0  0  0  0  0  0  0
  146.4106  133.9659  150.4599 H   0  0  0  0  0  0  0  0  0  0  0  0
  146.9938  134.0044  153.0391 H   0  0  0  0  0  0  0  0  0  0  0  0
  148.5227  133.5774  152.2787 H   0  0  0  0  0  0  0  0  0  0  0  0
  147.8078  131.7096  151.5860 H   0  0  0  0  0  0  0  0  0  0  0  0
  1  2  1  0  0  0  0
  1 20  1  0  0  0  0
  1 21  1  0  0  0  0
  1 22  1  0  0  0  0
  2 19  1  0  0  0  0
  2  3  2  0  0  0  0
  3  4  1  0  0  0  0
  3 23  1  0  0  0  0
  4  5  1  0  0  0  0
  4 18  2  0  0  0  0
  5  6  1  0  0  0  0
  5 24  1  0  0  0  0
  6  7  2  0  0  0  0
  6  8  1  0  0  0  0
  8  9  1  0  0  0  0
  8 25  1  0  0  0  0
  9 10  1  0  0  0  0
  9 26  1  0  0  0  0
  9 27  1  0  0  0  0
 10 17  1  0  0  0  0
 10 11  1  0  0  0  0
 10 28  1  0  0  0  0
 11 12  1  0  0  0  0
 11 29  1  0  0  0  0
 11 30  1  0  0  0  0
 12 13  1  0  0  0  0
 12 31  1  0  0  0  0
 12 32  1  0  0  0  0
 13 14  1  0  0  0  0
 13 17  1  0  0  0  0
 13 42  1  0  0  0  0
 14 15  1  0  0  0  0
 14 16  1  0  0  0  0
 14 33  1  0  0  0  0
 15 34  1  0  0  0  0
 15 35  1  0  0  0  0
 15 36  1  0  0  0  0
 16 37  1  0  0  0  0
 16 38  1  0  0  0  0
 16 39  1  0  0  0  0
 17 40  1  0  0  0  0
 17 41  1  0  0  0  0
 18 19  1  0  0  0  0
M  CHG  1  13   1
M  END
> <s_m_source_file>
AV-unprocessed.smi

> <i_m_source_file_index>
832

> <i_lp_mmshare_version>
43012

> <i_f3d_flags>
0

> <s_epik_input>
W0NIM11jMVtjSF1jKG5vMSlbTkhdQyg9TylbTkhdW0NIMl1bQ0BASF0yW0NIMl1bQ0gyXU4oW0NIMl0yKVtDSF0oW0NIM10pW0NIM10=

> <s_epik_cmdline>
J2VwaWtfcHl0aG9uJywgJy1waCcsICc3LjAnLCAnLXRuJywgJzgnLCAnLW1hJywgJzIwMCcsICctbWV0YWxfYmluZGluZycsICctaW1hZScsICc8aW5maWxlLm1hZT4nLCAnLW9tYWUnLCAnPG91dGZpbGUubWFlPic=

> <r_lp_tautomer_probability>
1

> <r_epik_Ionization_Penalty>
0.000242791

> <r_epik_Ionization_Penalty_Charging>
0.000220876

> <r_epik_Ionization_Penalty_Neutral>
2.19143e-05

> <r_epik_State_Penalty>
-0

> <r_epik_Charging_Adjusted_Penalty>
0.000220876

> <i_epik_Tot_Q>
1

> <i_epik_Tot_abs_Q>
1

> <r_epik_Metal_State_Penalty>
-0

> <b_epik_Metal_Only>
0

> <s_lp_Force_Field>
OPLS_2005

> <r_lp_Energy>
27.9623

> <b_lp_Chiralities_Consistent>
1

> <s_lp_Variant>
AV-unprocessed.smi:832-3

> <Gold.Version>
5.8.1

> <Gold.Id.Protein>
6NUR|6NUR_protein|mol2

> <Gold.PLP.Fitness>
42.5543

> <Gold.PLP.PLP>
-33.8251

> <Gold.PLP.part.hbond>
-4.9775

> <Gold.PLP.part.metal>
0.0000

> <Gold.PLP.part.buried>
-4.5074

> <Gold.PLP.part.nonpolar>
-26.2922

> <Gold.PLP.part.repulsive>
0.2932

> <Gold.PLP.ligand.clash>
0.0000

> <Gold.PLP.ligand.torsion>
1.4457

> <Gold.PLP.Chemscore.Hbond>
3.8640

> <Gold.PLP.Chemscore.CHOScore>
0.0000

> <Gold.PLP.Chemscore.Metal>
0.0000

> <Gold.Chemscore.Hbonds>
donor molecule, donor type, donor heavy atom, donor atom, acceptor molecule, acceptor atom, score
      L1  H     5    24       P1  7948  1.00
      L1  H     8    25       P1  7948  0.93
      L1  H    13    42       P1 10747  1.00
      P1  H  7989  7998       L1    19  0.80

> <Gold.PLP.Chemscore.Internal.Correction>
0.0286

> <Gold.Rescore>
     Score         DG    S(hbond)    S(metal)    S(lipo)     H(rot)  DE(clash)    DE(int)     intcor
     16.48     -17.96       2.37        0.00      72.11       1.51       0.17       1.32       ----

> <Gold.Chemscore.Fitness>
16.4794

> <Gold.Chemscore.DG>
-17.9632

> <Gold.Chemscore.ZeroCoef>
-5.4800

> <Gold.Chemscore.Hbond>
2.3724

> <Gold.Chemscore.Metal>
0.0000

> <Gold.Chemscore.Lipo>
72.1078

> <Gold.Chemscore.Internal_Hbond>
0.0000

> <Gold.Chemscore.DEClash>
0.1673

> <Gold.Chemscore.DEInternal>
1.3164

> <Gold.Chemscore.Rot>
1.5146

> <Gold.Chemscore.Internal.Correction>
   9.000000E+99

> <Gold.Chemscore.Hbonds>
donor molecule, donor type, donor heavy atom, donor atom, acceptor molecule, acceptor atom, score
      L1  H     5    24       P1  7948  0.80
      L1  H     8    25       P1  7948  0.20
      L1  H    13    42       P1 10747  0.99
      P1  H  7989  7998       L1    19  0.03

> <Gold.Chemscore.Hbond.Weighted>
-7.9239

> <Gold.Chemscore.Metal.Weighted>
-0.0000

> <Gold.Chemscore.Lipo.Weighted>
-8.4366

> <Gold.Chemscore.Internal_Hbond.Weighted>
0.0000

> <Gold.Chemscore.DEClash.Weighted>
0.1673

> <Gold.Chemscore.DEInternal.Weighted>
1.3164

> <Gold.Chemscore.Rot.Weighted>
3.8774

> <Gold.Chemscore.Internal.Correction.Weighted>
   9.000000E+99

> <Gold.Protein.RotatedTorsions>
[ 6907 6896 6895 6894 ] final -104.73 input  -60.11 | X-H torsion
[ 7974 7965 7964 7962 ] final -110.33 input  175.53 | X-H torsion
[ 8008 7997 7996 7995 ] final -120.51 input   59.86 | X-H torsion
[ 10167 10162 10161 10158 ] final -118.62 input  -65.29 | X-H torsion
[ 10718 10713 10712 10709 ] final   95.09 input   66.30 | X-H torsion
[ 10763 10752 10751 10750 ] final -117.08 input  -60.55 | X-H torsion
[ 11005 11000 10999 10996 ] final -173.40 input  -57.11 | X-H torsion

> <Gold.Protein.ActiveResidues>
 VAL166  LYS551  ARG553  GLY616  TRP617  ASP618  TYR619  PRO620  LYS621  CYS622 
 ASP623  PHE694  ASN695  SER759  ASP760  ASP761  ALA762  ILE779  LEU786  VAL792 
 PHE793  MET794  SER795  GLU796  ALA797  LYS798  CYS799  TRP800  GLU811  SER814 

> <Gold.Protein.RotatedAtoms>
  150.7302  134.0233  159.3708 H   0  0  0  0  0  0  0  0  0  0  0  0  # atno 6907 bound_to 6896
  151.8199  135.0653  160.0433 H   0  0  0  0  0  0  0  0  0  0  0  0  # atno 6908 bound_to 6896
  152.3011  133.5620  159.5655 H   0  0  0  0  0  0  0  0  0  0  0  0  # atno 6909 bound_to 6896
  145.1696  140.8919  143.3543 H   0  0  0  0  0  0  0  0  0  0  0  0  # atno 7974 bound_to 7965
  155.1329  140.0400  157.2779 H   0  0  0  0  0  0  0  0  0  0  0  0  # atno 8008 bound_to 7997
  154.6529  140.2573  155.7167 H   0  0  0  0  0  0  0  0  0  0  0  0  # atno 8009 bound_to 7997
  156.2585  140.2832  156.0970 H   0  0  0  0  0  0  0  0  0  0  0  0  # atno 8010 bound_to 7997
  140.0555  143.5018  152.2059 H   0  0  0  0  0  0  0  0  0  0  0  0  # atno 10167 bound_to 10162
  157.6942  131.0534  150.4285 H   0  0  0  0  0  0  0  0  0  0  0  0  # atno 10718 bound_to 10713
  154.8542  135.4322  154.1922 H   0  0  0  0  0  0  0  0  0  0  0  0  # atno 10763 bound_to 10752
  153.2988  135.6967  153.7229 H   0  0  0  0  0  0  0  0  0  0  0  0  # atno 10764 bound_to 10752
  153.6367  135.3475  155.3033 H   0  0  0  0  0  0  0  0  0  0  0  0  # atno 10765 bound_to 10752
  140.4862  134.6028  157.4938 H   0  0  0  0  0  0  0  0  0  0  0  0  # atno 11005 bound_to 11000
  145.0246  139.3394  143.6055 LP  0  0  0  0  0  0  0  0  0  0  0  0  # atno 17320 bound_to 7965
  146.3470  139.9560  142.8723 LP  0  0  0  0  0  0  0  0  0  0  0  0  # atno 17321 bound_to 7965
  139.5926  144.7555  151.3364 LP  0  0  0  0  0  0  0  0  0  0  0  0  # atno 17342 bound_to 10162
  140.7196  143.7171  150.7724 LP  0  0  0  0  0  0  0  0  0  0  0  0  # atno 17343 bound_to 10162
  156.4654  130.4041  149.6550 LP  0  0  0  0  0  0  0  0  0  0  0  0  # atno 17370 bound_to 10713
  156.3650  130.7501  151.2478 LP  0  0  0  0  0  0  0  0  0  0  0  0  # atno 17371 bound_to 10713
  139.9796  134.7158  155.9884 LP  0  0  0  0  0  0  0  0  0  0  0  0  # atno 17394 bound_to 11000
  141.1507  133.6549  156.4003 LP  0  0  0  0  0  0  0  0  0  0  0  0  # atno 17395 bound_to 11000

$$$$
