AV-unprocessed.smi:3164|AV-procd|sdf|12081|dock6
  -GOLD-   2272017513D 1   1.00000     0.00000
 Structure written by MMmdl.
 40 41  0  0  0  0  0  0  0  0  3 V2000
  150.2914  136.8604  154.9236 C   0  0  0  0  0  0  0  0  0  0  0  0
  149.1766  137.6915  154.4129 N   0  3  1  0  0  0  0  0  0  0  0  0
  147.9208  137.5455  155.1864 C   0  0  0  0  0  0  0  0  0  0  0  0
  147.9668  138.3647  156.4893 C   0  0  0  0  0  0  0  0  0  0  0  0
  148.2569  139.7246  156.1881 O   0  0  0  0  0  0  0  0  0  0  0  0
  149.5298  139.8875  155.5701 C   0  0  2  0  0  0  0  0  0  0  0  0
  149.7711  141.3908  155.3642 C   0  0  0  0  0  0  0  0  0  0  0  0
  149.3061  142.1772  156.5251 N   0  3  0  0  0  0  0  0  0  0  0  0
  150.0844  141.9435  157.7569 C   0  0  0  0  0  0  0  0  0  0  0  0
  151.3814  142.7642  157.7563 C   0  0  0  0  0  0  0  0  0  0  0  0
  152.0229  142.8195  159.1295 C   0  0  0  0  0  0  0  0  0  0  0  0
  152.0685  144.0271  159.8583 C   0  0  0  0  0  0  0  0  0  0  0  0
  152.6840  144.0222  161.1252 C   0  0  0  0  0  0  0  0  0  0  0  0
  153.2277  142.8171  161.6102 C   0  0  0  0  0  0  0  0  0  0  0  0
  153.1316  141.6654  160.8042 C   0  0  0  0  0  0  0  0  0  0  0  0
  152.5443  141.6594  159.5877 N   0  0  0  0  0  0  0  0  0  0  0  0
  149.5293  139.1203  154.2286 C   0  0  0  0  0  0  0  0  0  0  0  0
  150.5950  137.1562  155.9277 H   0  0  0  0  0  0  0  0  0  0  0  0
  151.1596  136.9418  154.2689 H   0  0  0  0  0  0  0  0  0  0  0  0
  150.0012  135.8097  154.9542 H   0  0  0  0  0  0  0  0  0  0  0  0
  147.0950  137.9001  154.5682 H   0  0  0  0  0  0  0  0  0  0  0  0
  147.7209  136.4937  155.3947 H   0  0  0  0  0  0  0  0  0  0  0  0
  147.0021  138.3154  156.9945 H   0  0  0  0  0  0  0  0  0  0  0  0
  148.7063  137.9658  157.1852 H   0  0  0  0  0  0  0  0  0  0  0  0
  150.3088  139.4918  156.2241 H   0  0  0  0  0  0  0  0  0  0  0  0
  150.8374  141.5757  155.2267 H   0  0  0  0  0  0  0  0  0  0  0  0
  149.2666  141.7354  154.4603 H   0  0  0  0  0  0  0  0  0  0  0  0
  149.3617  143.1590  156.2921 H   0  0  0  0  0  0  0  0  0  0  0  0
  149.4737  142.2102  158.6207 H   0  0  0  0  0  0  0  0  0  0  0  0
  150.3167  140.8808  157.8409 H   0  0  0  0  0  0  0  0  0  0  0  0
  152.0918  142.3412  157.0447 H   0  0  0  0  0  0  0  0  0  0  0  0
  151.1806  143.7830  157.4211 H   0  0  0  0  0  0  0  0  0  0  0  0
  151.6438  144.9369  159.4602 H   0  0  0  0  0  0  0  0  0  0  0  0
  152.7382  144.9259  161.7141 H   0  0  0  0  0  0  0  0  0  0  0  0
  153.7068  142.7761  162.5772 H   0  0  0  0  0  0  0  0  0  0  0  0
  153.5378  140.7245  161.1451 H   0  0  0  0  0  0  0  0  0  0  0  0
  150.4956  139.2065  153.7297 H   0  0  0  0  0  0  0  0  0  0  0  0
  148.7946  139.5653  153.5557 H   0  0  0  0  0  0  0  0  0  0  0  0
  148.3409  141.9431  156.7105 H   0  0  0  0  0  0  0  0  0  0  0  0
  148.9824  137.3271  153.4904 H   0  0  0  0  0  0  0  0  0  0  0  0
  1  2  1  0  0  0  0
  1 18  1  0  0  0  0
  1 19  1  0  0  0  0
  1 20  1  0  0  0  0
  2 17  1  0  0  0  0
  2  3  1  0  0  0  0
  2 40  1  0  0  0  0
  3  4  1  0  0  0  0
  3 21  1  0  0  0  0
  3 22  1  0  0  0  0
  4  5  1  0  0  0  0
  4 23  1  0  0  0  0
  4 24  1  0  0  0  0
  5  6  1  0  0  0  0
  6  7  1  0  0  0  0
  6 17  1  0  0  0  0
  6 25  1  0  0  0  0
  7  8  1  0  0  0  0
  7 26  1  0  0  0  0
  7 27  1  0  0  0  0
  8  9  1  0  0  0  0
  8 28  1  0  0  0  0
  8 39  1  0  0  0  0
  9 10  1  0  0  0  0
  9 29  1  0  0  0  0
  9 30  1  0  0  0  0
 10 11  1  0  0  0  0
 10 31  1  0  0  0  0
 10 32  1  0  0  0  0
 11 16  1  0  0  0  0
 11 12  2  0  0  0  0
 12 13  1  0  0  0  0
 12 33  1  0  0  0  0
 13 14  2  0  0  0  0
 13 34  1  0  0  0  0
 14 15  1  0  0  0  0
 14 35  1  0  0  0  0
 15 16  2  0  0  0  0
 15 36  1  0  0  0  0
 17 37  1  0  0  0  0
 17 38  1  0  0  0  0
M  CHG  1   2   1
M  CHG  1   8   1
M  END
> <s_m_source_file>
AV-unprocessed.smi

> <i_m_source_file_index>
3164

> <i_lp_mmshare_version>
43012

> <i_f3d_flags>
0

> <s_epik_input>
W0NIM11OMVtDSDJdW0NIMl1PW0NASF0oW0NIMl0xKVtDSDJdW05IXVtDSDJdW0NIMl1jMltjSF1bY0hdW2NIXVtjSF1uMg==

> <s_epik_cmdline>
J2VwaWtfcHl0aG9uJywgJy1waCcsICc3LjAnLCAnLXRuJywgJzgnLCAnLW1hJywgJzIwMCcsICctbWV0YWxfYmluZGluZycsICctaW1hZScsICc8aW5maWxlLm1hZT4nLCAnLW9tYWUnLCAnPG91dGZpbGUubWFlPic=

> <r_epik_Ionization_Penalty>
0.294944

> <r_epik_Ionization_Penalty_Charging>
0.29381

> <r_epik_Ionization_Penalty_Neutral>
0.00113372

> <r_epik_State_Penalty>
0.271365

> <r_epik_Charging_Adjusted_Penalty>
0.565175

> <i_epik_Tot_Q>
2

> <i_epik_Tot_abs_Q>
2

> <r_epik_Metal_State_Penalty>
0.271365

> <b_epik_Metal_Only>
0

> <s_lp_Force_Field>
OPLS_2005

> <r_lp_Energy>
22.4387

> <b_lp_Chiralities_Consistent>
1

> <s_lp_Variant>
AV-unprocessed.smi:3164-3

> <Gold.Version>
5.8.1

> <Gold.Id.Protein>
6NUR|6NUR_protein|mol2

> <Gold.PLP.Fitness>
45.5853

> <Gold.PLP.PLP>
-34.4389

> <Gold.PLP.part.hbond>
-2.0000

> <Gold.PLP.part.metal>
0.0000

> <Gold.PLP.part.buried>
-4.2018

> <Gold.PLP.part.nonpolar>
-27.7689

> <Gold.PLP.part.repulsive>
0.0800

> <Gold.PLP.ligand.clash>
0.0000

> <Gold.PLP.ligand.torsion>
0.4278

> <Gold.PLP.Chemscore.Hbond>
4.0000

> <Gold.PLP.Chemscore.CHOScore>
0.0000

> <Gold.PLP.Chemscore.Metal>
0.0000

> <Gold.Chemscore.Hbonds>
donor molecule, donor type, donor heavy atom, donor atom, acceptor molecule, acceptor atom, score
      L1  H     2    40       P1  7948  2.00
      L1  H     8    28       P1  8028  2.00

> <Gold.PLP.Chemscore.Internal.Correction>
0.0019

> <Gold.Rescore>
     Score         DG    S(hbond)    S(metal)    S(lipo)     H(rot)  DE(clash)    DE(int)     intcor
     19.18     -19.71       1.96        0.00     101.72       1.65       0.03       0.50       ----

> <Gold.Chemscore.Fitness>
19.1793

> <Gold.Chemscore.DG>
-19.7059

> <Gold.Chemscore.ZeroCoef>
-5.4800

> <Gold.Chemscore.Hbond>
1.9572

> <Gold.Chemscore.Metal>
0.0000

> <Gold.Chemscore.Lipo>
101.7196

> <Gold.Chemscore.Internal_Hbond>
0.0000

> <Gold.Chemscore.DEClash>
0.0316

> <Gold.Chemscore.DEInternal>
0.4951

> <Gold.Chemscore.Rot>
1.6454

> <Gold.Chemscore.Internal.Correction>
   9.000000E+99

> <Gold.Chemscore.Hbonds>
donor molecule, donor type, donor heavy atom, donor atom, acceptor molecule, acceptor atom, score
      L1  H     2    40       P1  7948  0.99
      L1  H     8    28       P1  8028  0.99

> <Gold.Chemscore.Hbond.Weighted>
-6.5370

> <Gold.Chemscore.Metal.Weighted>
-0.0000

> <Gold.Chemscore.Lipo.Weighted>
-11.9012

> <Gold.Chemscore.Internal_Hbond.Weighted>
0.0000

> <Gold.Chemscore.DEClash.Weighted>
0.0316

> <Gold.Chemscore.DEInternal.Weighted>
0.4951

> <Gold.Chemscore.Rot.Weighted>
4.2122

> <Gold.Chemscore.Internal.Correction.Weighted>
   9.000000E+99

> <Gold.Protein.RotatedTorsions>
[ 6907 6896 6895 6894 ] final -167.35 input  -60.11 | X-H torsion
[ 7974 7965 7964 7962 ] final   48.97 input  175.53 | X-H torsion
[ 8008 7997 7996 7995 ] final  -49.15 input   59.86 | X-H torsion
[ 10167 10162 10161 10158 ] final  -81.58 input  -65.29 | X-H torsion
[ 10718 10713 10712 10709 ] final   83.80 input   66.30 | X-H torsion
[ 10763 10752 10751 10750 ] final  125.27 input  -60.55 | X-H torsion
[ 11005 11000 10999 10996 ] final  116.22 input  -57.11 | X-H torsion

> <Gold.Protein.ActiveResidues>
 VAL166  LYS551  ARG553  GLY616  TRP617  ASP618  TYR619  PRO620  LYS621  CYS622 
 ASP623  PHE694  ASN695  SER759  ASP760  ASP761  ALA762  ILE779  LEU786  VAL792 
 PHE793  MET794  SER795  GLU796  ALA797  LYS798  CYS799  TRP800  GLU811  SER814 

> <Gold.Protein.RotatedAtoms>
  151.4582  133.3600  159.2804 H   0  0  0  0  0  0  0  0  0  0  0  0  # atno 6907 bound_to 6896
  150.9044  134.8460  159.7393 H   0  0  0  0  0  0  0  0  0  0  0  0  # atno 6908 bound_to 6896
  152.4897  134.4505  159.9625 H   0  0  0  0  0  0  0  0  0  0  0  0  # atno 6909 bound_to 6896
  146.0153  139.4589  142.9931 H   0  0  0  0  0  0  0  0  0  0  0  0  # atno 7974 bound_to 7965
  154.4039  140.1304  156.4456 H   0  0  0  0  0  0  0  0  0  0  0  0  # atno 8008 bound_to 7997
  155.7416  140.3489  155.5087 H   0  0  0  0  0  0  0  0  0  0  0  0  # atno 8009 bound_to 7997
  155.9033  140.1023  157.1324 H   0  0  0  0  0  0  0  0  0  0  0  0  # atno 8010 bound_to 7997
  140.4399  143.2518  151.8640 H   0  0  0  0  0  0  0  0  0  0  0  0  # atno 10167 bound_to 10162
  157.6886  131.0106  150.2577 H   0  0  0  0  0  0  0  0  0  0  0  0  # atno 10718 bound_to 10713
  153.6746  135.3324  155.3162 H   0  0  0  0  0  0  0  0  0  0  0  0  # atno 10763 bound_to 10752
  154.8482  135.4394  154.1669 H   0  0  0  0  0  0  0  0  0  0  0  0  # atno 10764 bound_to 10752
  153.2670  135.6996  153.7596 H   0  0  0  0  0  0  0  0  0  0  0  0  # atno 10765 bound_to 10752
  139.9034  134.9595  156.7165 H   0  0  0  0  0  0  0  0  0  0  0  0  # atno 11005 bound_to 11000
  145.7278  141.0053  143.1368 LP  0  0  0  0  0  0  0  0  0  0  0  0  # atno 17320 bound_to 7965
  144.6968  139.8948  143.7455 LP  0  0  0  0  0  0  0  0  0  0  0  0  # atno 17321 bound_to 7965
  139.4789  144.5240  151.8761 LP  0  0  0  0  0  0  0  0  0  0  0  0  # atno 17342 bound_to 10162
  140.4330  144.2090  150.5888 LP  0  0  0  0  0  0  0  0  0  0  0  0  # atno 17343 bound_to 10162
  156.3162  130.3779  149.7616 LP  0  0  0  0  0  0  0  0  0  0  0  0  # atno 17370 bound_to 10713
  156.5201  130.8211  151.3200 LP  0  0  0  0  0  0  0  0  0  0  0  0  # atno 17371 bound_to 10713
  140.7034  133.9286  155.8039 LP  0  0  0  0  0  0  0  0  0  0  0  0  # atno 17394 bound_to 11000
  141.0354  134.0697  157.3965 LP  0  0  0  0  0  0  0  0  0  0  0  0  # atno 17395 bound_to 11000

$$$$
