AV-unprocessed.smi:3303|AV-procd|sdf|12672|dock5
  -GOLD-   2272019 03D 1   1.00000     0.00000
 Structure written by MMmdl.
 45 46  0  0  0  0  0  0  0  0  3 V2000
  151.4581  139.6072  155.8283 C   0  0  0  0  0  0  0  0  0  0  0  0
  150.3872  140.4047  155.0627 C   0  0  1  0  0  0  0  0  0  0  0  0
  149.3527  139.4430  154.4428 C   0  0  0  0  0  0  0  0  0  0  0  0
  148.3001  140.1618  153.6784 N   0  3  1  0  0  0  0  0  0  0  0  0
  147.4104  139.2051  152.9760 C   0  0  0  0  0  0  0  0  0  0  0  0
  147.5766  141.1557  154.5265 C   0  0  2  0  0  0  0  0  0  0  0  0
  146.4992  141.9323  153.7445 C   0  0  0  0  0  0  0  0  0  0  0  0
  148.5781  142.1488  155.1514 C   0  0  0  0  0  0  0  0  0  0  0  0
  149.6777  141.4416  155.9591 C   0  0  2  0  0  0  0  0  0  0  0  0
  150.6376  142.4460  156.4723 N   0  3  0  0  0  0  0  0  0  0  0  0
  150.9115  142.3573  157.9204 C   0  0  0  0  0  0  0  0  0  0  0  0
  152.3447  142.8050  158.2371 C   0  0  0  0  0  0  0  0  0  0  0  0
  152.6292  142.8031  159.7265 C   0  0  0  0  0  0  0  0  0  0  0  0
  153.4750  141.8290  160.2980 C   0  0  0  0  0  0  0  0  0  0  0  0
  153.6973  141.8673  161.6882 C   0  0  0  0  0  0  0  0  0  0  0  0
  153.0688  142.8725  162.4480 C   0  0  0  0  0  0  0  0  0  0  0  0
  152.2411  143.7982  161.7818 C   0  0  0  0  0  0  0  0  0  0  0  0
  152.0187  143.7685  160.4495 N   0  0  0  0  0  0  0  0  0  0  0  0
  151.0269  139.0745  156.6766 H   0  0  0  0  0  0  0  0  0  0  0  0
  152.2476  140.2551  156.2098 H   0  0  0  0  0  0  0  0  0  0  0  0
  151.9338  138.8691  155.1817 H   0  0  0  0  0  0  0  0  0  0  0  0
  150.8845  140.9331  154.2473 H   0  0  0  0  0  0  0  0  0  0  0  0
  149.8660  138.7475  153.7769 H   0  0  0  0  0  0  0  0  0  0  0  0
  148.8830  138.8403  155.2222 H   0  0  0  0  0  0  0  0  0  0  0  0
  146.7723  138.6721  153.6819 H   0  0  0  0  0  0  0  0  0  0  0  0
  147.9935  138.4672  152.4239 H   0  0  0  0  0  0  0  0  0  0  0  0
  146.7768  139.7083  152.2463 H   0  0  0  0  0  0  0  0  0  0  0  0
  147.0805  140.6131  155.3335 H   0  0  0  0  0  0  0  0  0  0  0  0
  146.0587  142.7154  154.3623 H   0  0  0  0  0  0  0  0  0  0  0  0
  145.6774  141.2890  153.4301 H   0  0  0  0  0  0  0  0  0  0  0  0
  146.9154  142.4095  152.8568 H   0  0  0  0  0  0  0  0  0  0  0  0
  149.0321  142.7503  154.3617 H   0  0  0  0  0  0  0  0  0  0  0  0
  148.0461  142.8468  155.7997 H   0  0  0  0  0  0  0  0  0  0  0  0
  149.2070  140.9208  156.7955 H   0  0  0  0  0  0  0  0  0  0  0  0
  151.5110  142.3329  155.9773 H   0  0  0  0  0  0  0  0  0  0  0  0
  150.1943  142.9795  158.4576 H   0  0  0  0  0  0  0  0  0  0  0  0
  150.7635  141.3292  158.2537 H   0  0  0  0  0  0  0  0  0  0  0  0
  153.0600  142.1513  157.7360 H   0  0  0  0  0  0  0  0  0  0  0  0
  152.5199  143.8086  157.8459 H   0  0  0  0  0  0  0  0  0  0  0  0
  153.9429  141.0688  159.6896 H   0  0  0  0  0  0  0  0  0  0  0  0
  154.3371  141.1382  162.1633 H   0  0  0  0  0  0  0  0  0  0  0  0
  153.2167  142.9325  163.5160 H   0  0  0  0  0  0  0  0  0  0  0  0
  151.7431  144.5817  162.3333 H   0  0  0  0  0  0  0  0  0  0  0  0
  150.2758  143.3682  156.2742 H   0  0  0  0  0  0  0  0  0  0  0  0
  148.7762  140.6854  152.9573 H   0  0  0  0  0  0  0  0  0  0  0  0
  1  2  1  0  0  0  0
  1 19  1  0  0  0  0
  1 20  1  0  0  0  0
  1 21  1  0  0  0  0
  2  9  1  0  0  0  0
  2  3  1  0  0  0  0
  2 22  1  0  0  0  0
  3  4  1  0  0  0  0
  3 23  1  0  0  0  0
  3 24  1  0  0  0  0
  4  5  1  0  0  0  0
  4  6  1  0  0  0  0
  4 45  1  0  0  0  0
  5 25  1  0  0  0  0
  5 26  1  0  0  0  0
  5 27  1  0  0  0  0
  6  7  1  0  0  0  0
  6  8  1  0  0  0  0
  6 28  1  0  0  0  0
  7 29  1  0  0  0  0
  7 30  1  0  0  0  0
  7 31  1  0  0  0  0
  8  9  1  0  0  0  0
  8 32  1  0  0  0  0
  8 33  1  0  0  0  0
  9 10  1  0  0  0  0
  9 34  1  0  0  0  0
 10 11  1  0  0  0  0
 10 35  1  0  0  0  0
 10 44  1  0  0  0  0
 11 12  1  0  0  0  0
 11 36  1  0  0  0  0
 11 37  1  0  0  0  0
 12 13  1  0  0  0  0
 12 38  1  0  0  0  0
 12 39  1  0  0  0  0
 13 18  1  0  0  0  0
 13 14  2  0  0  0  0
 14 15  1  0  0  0  0
 14 40  1  0  0  0  0
 15 16  2  0  0  0  0
 15 41  1  0  0  0  0
 16 17  1  0  0  0  0
 16 42  1  0  0  0  0
 17 18  2  0  0  0  0
 17 43  1  0  0  0  0
M  CHG  1   4   1
M  CHG  1  10   1
M  END
> <s_m_source_file>
AV-unprocessed.smi

> <i_m_source_file_index>
3303

> <i_lp_mmshare_version>
43012

> <i_f3d_flags>
0

> <s_epik_input>
W0NIM11bQ0BASF0xW0NIMl1OKFtDSDNdKVtDQEBIXShbQ0gzXSlbQ0gyXVtDQEhdMVtOSF1bQ0gyXVtDSDJdYzJbY0hdW2NIXVtjSF1bY0hdbjI=

> <s_epik_cmdline>
J2VwaWtfcHl0aG9uJywgJy1waCcsICc3LjAnLCAnLXRuJywgJzgnLCAnLW1hJywgJzIwMCcsICctbWV0YWxfYmluZGluZycsICctaW1hZScsICc8aW5maWxlLm1hZT4nLCAnLW9tYWUnLCAnPG91dGZpbGUubWFlPic=

> <r_epik_Ionization_Penalty>
0.0769462

> <r_epik_Ionization_Penalty_Charging>
0.0759813

> <r_epik_Ionization_Penalty_Neutral>
0.000964829

> <r_epik_State_Penalty>
0.0654373

> <r_epik_Charging_Adjusted_Penalty>
0.141419

> <i_epik_Tot_Q>
2

> <i_epik_Tot_abs_Q>
2

> <r_epik_Metal_State_Penalty>
0.0656439

> <b_epik_Metal_Only>
0

> <s_lp_Force_Field>
OPLS_2005

> <r_lp_Energy>
29.1913

> <b_lp_Chiralities_Consistent>
1

> <s_lp_Variant>
AV-unprocessed.smi:3303-16

> <Gold.Version>
5.8.1

> <Gold.Id.Protein>
6NUR|6NUR_protein|mol2

> <Gold.PLP.Fitness>
47.7387

> <Gold.PLP.PLP>
-42.1211

> <Gold.PLP.part.hbond>
-2.0000

> <Gold.PLP.part.metal>
0.0000

> <Gold.PLP.part.buried>
0.4471

> <Gold.PLP.part.nonpolar>
-40.8688

> <Gold.PLP.part.repulsive>
0.2518

> <Gold.PLP.ligand.clash>
0.0000

> <Gold.PLP.ligand.torsion>
1.0314

> <Gold.PLP.Chemscore.Hbond>
2.5577

> <Gold.PLP.Chemscore.CHOScore>
0.0000

> <Gold.PLP.Chemscore.Metal>
0.0000

> <Gold.Chemscore.Hbonds>
donor molecule, donor type, donor heavy atom, donor atom, acceptor molecule, acceptor atom, score
      L1  H     4    45       P1  7957  0.53
      L1  H    10    44       P1  8028  2.00

> <Gold.PLP.Chemscore.Internal.Correction>
0.0073

> <Gold.Rescore>
     Score         DG    S(hbond)    S(metal)    S(lipo)     H(rot)  DE(clash)    DE(int)     intcor
     20.66     -22.61       1.81        0.00     124.69       1.37       0.94       1.01       ----

> <Gold.Chemscore.Fitness>
20.6622

> <Gold.Chemscore.DG>
-22.6091

> <Gold.Chemscore.ZeroCoef>
-5.4800

> <Gold.Chemscore.Hbond>
1.8142

> <Gold.Chemscore.Metal>
0.0000

> <Gold.Chemscore.Lipo>
124.6855

> <Gold.Chemscore.Internal_Hbond>
0.0000

> <Gold.Chemscore.DEClash>
0.9401

> <Gold.Chemscore.DEInternal>
1.0067

> <Gold.Chemscore.Rot>
1.3744

> <Gold.Chemscore.Internal.Correction>
   9.000000E+99

> <Gold.Chemscore.Hbonds>
donor molecule, donor type, donor heavy atom, donor atom, acceptor molecule, acceptor atom, score
      L1  H     4    45       P1  7957  0.53
      L1  H    10    44       P1  8028  0.92

> <Gold.Chemscore.Hbond.Weighted>
-6.0593

> <Gold.Chemscore.Metal.Weighted>
-0.0000

> <Gold.Chemscore.Lipo.Weighted>
-14.5882

> <Gold.Chemscore.Internal_Hbond.Weighted>
0.0000

> <Gold.Chemscore.DEClash.Weighted>
0.9401

> <Gold.Chemscore.DEInternal.Weighted>
1.0067

> <Gold.Chemscore.Rot.Weighted>
3.5185

> <Gold.Chemscore.Internal.Correction.Weighted>
   9.000000E+99

> <Gold.Protein.RotatedTorsions>
[ 6907 6896 6895 6894 ] final -165.09 input  -60.11 | X-H torsion
[ 7974 7965 7964 7962 ] final  102.89 input  175.53 | X-H torsion
[ 8008 7997 7996 7995 ] final    6.98 input   59.86 | X-H torsion
[ 10167 10162 10161 10158 ] final -135.09 input  -65.29 | X-H torsion
[ 10718 10713 10712 10709 ] final  -84.69 input   66.30 | X-H torsion
[ 10763 10752 10751 10750 ] final -132.72 input  -60.55 | X-H torsion
[ 11005 11000 10999 10996 ] final  -29.11 input  -57.11 | X-H torsion

> <Gold.Protein.ActiveResidues>
 VAL166  LYS551  ARG553  GLY616  TRP617  ASP618  TYR619  PRO620  LYS621  CYS622 
 ASP623  PHE694  ASN695  SER759  ASP760  ASP761  ALA762  ILE779  LEU786  VAL792 
 PHE793  MET794  SER795  GLU796  ALA797  LYS798  CYS799  TRP800  GLU811  SER814 

> <Gold.Protein.RotatedAtoms>
  151.4221  133.3695  159.2757 H   0  0  0  0  0  0  0  0  0  0  0  0  # atno 6907 bound_to 6896
  150.9286  134.8703  159.7547 H   0  0  0  0  0  0  0  0  0  0  0  0  # atno 6908 bound_to 6896
  152.5017  134.4164  159.9518 H   0  0  0  0  0  0  0  0  0  0  0  0  # atno 6909 bound_to 6896
  145.3531  139.2435  143.3547 H   0  0  0  0  0  0  0  0  0  0  0  0  # atno 7974 bound_to 7965
  154.7480  140.2761  155.6317 H   0  0  0  0  0  0  0  0  0  0  0  0  # atno 8008 bound_to 7997
  156.2889  140.2684  156.2152 H   0  0  0  0  0  0  0  0  0  0  0  0  # atno 8009 bound_to 7997
  155.0173  140.0371  157.2413 H   0  0  0  0  0  0  0  0  0  0  0  0  # atno 8010 bound_to 7997
  139.8814  143.6835  152.2626 H   0  0  0  0  0  0  0  0  0  0  0  0  # atno 10167 bound_to 10162
  156.0003  130.4706  150.4449 H   0  0  0  0  0  0  0  0  0  0  0  0  # atno 10718 bound_to 10713
  154.8740  135.3789  154.4455 H   0  0  0  0  0  0  0  0  0  0  0  0  # atno 10763 bound_to 10752
  153.5136  135.7029  153.5773 H   0  0  0  0  0  0  0  0  0  0  0  0  # atno 10764 bound_to 10752
  153.4051  135.3938  155.1980 H   0  0  0  0  0  0  0  0  0  0  0  0  # atno 10765 bound_to 10752
  140.9268  133.7364  156.0879 H   0  0  0  0  0  0  0  0  0  0  0  0  # atno 11005 bound_to 11000
  146.2959  140.4151  142.8722 LP  0  0  0  0  0  0  0  0  0  0  0  0  # atno 17320 bound_to 7965
  144.8702  140.7262  143.6051 LP  0  0  0  0  0  0  0  0  0  0  0  0  # atno 17321 bound_to 7965
  139.7193  144.7606  151.0982 LP  0  0  0  0  0  0  0  0  0  0  0  0  # atno 17342 bound_to 10162
  140.7744  143.5229  150.9515 LP  0  0  0  0  0  0  0  0  0  0  0  0  # atno 17343 bound_to 10162
  157.2487  131.0541  151.2392 LP  0  0  0  0  0  0  0  0  0  0  0  0  # atno 17370 bound_to 10713
  157.3550  130.7101  149.6465 LP  0  0  0  0  0  0  0  0  0  0  0  0  # atno 17371 bound_to 10713
  140.7916  134.3611  157.5463 LP  0  0  0  0  0  0  0  0  0  0  0  0  # atno 17394 bound_to 11000
  139.8787  134.9143  156.3105 LP  0  0  0  0  0  0  0  0  0  0  0  0  # atno 17395 bound_to 11000

$$$$
