AV-unprocessed.smi:664|AV-procd|sdf|3251|dock5
  -GOLD-   22720 0203D 1   1.00000     0.00000
 Structure written by MMmdl.
 31 32  0  0  0  0  0  0  0  0  1 V2000
  147.7337  141.0454  153.5764 C   0  0  0  0  0  0  0  0  0  0  0  0
  149.0017  140.6433  154.2703 C   0  0  0  0  0  0  0  0  0  0  0  0
  149.6204  139.3441  154.0891 C   0  0  0  0  0  0  0  0  0  0  0  0
  150.7634  139.0578  154.7482 C   0  0  0  0  0  0  0  0  0  0  0  0
  151.3982  140.0243  155.6419 C   0  0  0  0  0  0  0  0  0  0  0  0
  152.4401  139.7914  156.2540 O   0  0  0  0  0  0  0  0  0  0  0  0
  150.7274  141.2104  155.7330 N   0  0  0  0  0  0  0  0  0  0  0  0
  151.2272  142.3050  156.5741 C   0  0  0  0  0  0  0  0  0  0  0  0
  150.5173  142.3562  157.9444 C   0  0  2  0  0  0  0  0  0  0  0  0
  149.7764  143.5575  158.0397 O   0  0  0  0  0  0  0  0  0  0  0  0
  151.5225  142.2360  159.0801 C   0  0  0  0  0  0  0  0  0  0  0  0
  151.6946  143.3067  159.9835 C   0  0  0  0  0  0  0  0  0  0  0  0
  152.6157  143.2007  161.0438 C   0  0  0  0  0  0  0  0  0  0  0  0
  153.3692  142.0226  161.2079 C   0  0  0  0  0  0  0  0  0  0  0  0
  153.1994  140.9487  160.3127 C   0  0  0  0  0  0  0  0  0  0  0  0
  154.1193  139.5031  160.5145 Cl  0  0  0  0  0  0  0  0  0  0  0  0
  152.2772  141.0542  159.2529 C   0  0  0  0  0  0  0  0  0  0  0  0
  149.5537  141.5066  155.0585 N   0  0  0  0  0  0  0  0  0  0  0  0
  147.2756  140.1956  153.0700 H   0  0  0  0  0  0  0  0  0  0  0  0
  147.9289  141.8149  152.8292 H   0  0  0  0  0  0  0  0  0  0  0  0
  147.0066  141.4401  154.2871 H   0  0  0  0  0  0  0  0  0  0  0  0
  149.1647  138.6185  153.4316 H   0  0  0  0  0  0  0  0  0  0  0  0
  151.2230  138.0900  154.6120 H   0  0  0  0  0  0  0  0  0  0  0  0
  152.2920  142.1256  156.7359 H   0  0  0  0  0  0  0  0  0  0  0  0
  151.1818  143.2732  156.0716 H   0  0  0  0  0  0  0  0  0  0  0  0
  149.8109  141.5286  158.0254 H   0  0  0  0  0  0  0  0  0  0  0  0
  149.4204  143.7590  157.1880 H   0  0  0  0  0  0  0  0  0  0  0  0
  151.1190  144.2137  159.8686 H   0  0  0  0  0  0  0  0  0  0  0  0
  152.7435  144.0231  161.7322 H   0  0  0  0  0  0  0  0  0  0  0  0
  154.0750  141.9433  162.0218 H   0  0  0  0  0  0  0  0  0  0  0  0
  152.1488  140.2242  158.5732 H   0  0  0  0  0  0  0  0  0  0  0  0
  1  2  1  0  0  0  0
  1 19  1  0  0  0  0
  1 20  1  0  0  0  0
  1 21  1  0  0  0  0
  2 18  2  0  0  0  0
  2  3  1  0  0  0  0
  3  4  2  0  0  0  0
  3 22  1  0  0  0  0
  4  5  1  0  0  0  0
  4 23  1  0  0  0  0
  5  6  2  0  0  0  0
  5  7  1  0  0  0  0
  7  8  1  0  0  0  0
  7 18  1  0  0  0  0
  8  9  1  0  0  0  0
  8 24  1  0  0  0  0
  8 25  1  0  0  0  0
  9 10  1  0  0  0  0
  9 11  1  0  0  0  0
  9 26  1  0  0  0  0
 10 27  1  0  0  0  0
 11 17  1  0  0  0  0
 11 12  2  0  0  0  0
 12 13  1  0  0  0  0
 12 28  1  0  0  0  0
 13 14  2  0  0  0  0
 13 29  1  0  0  0  0
 14 15  1  0  0  0  0
 14 30  1  0  0  0  0
 15 16  1  0  0  0  0
 15 17  2  0  0  0  0
 17 31  1  0  0  0  0
M  END
> <s_m_source_file>
AV-unprocessed.smi

> <i_m_source_file_index>
664

> <i_lp_mmshare_version>
43012

> <i_f3d_flags>
0

> <s_epik_input>
W0NIM11jMVtjSF1bY0hdYyg9TyluKG4xKVtDSDJdW0NASF0oW09IXSljMltjSF1bY0hdW2NIXWMoQ2wpW2NIXTI=

> <s_epik_cmdline>
J2VwaWtfcHl0aG9uJywgJy1waCcsICc3LjAnLCAnLXRuJywgJzgnLCAnLW1hJywgJzIwMCcsICctbWV0YWxfYmluZGluZycsICctaW1hZScsICc8aW5maWxlLm1hZT4nLCAnLW9tYWUnLCAnPG91dGZpbGUubWFlPic=

> <r_lp_tautomer_probability>
1

> <r_epik_Ionization_Penalty>
5.38844e-06

> <r_epik_Ionization_Penalty_Charging>
5.19536e-06

> <r_epik_Ionization_Penalty_Neutral>
1.93084e-07

> <r_epik_State_Penalty>
-0

> <r_epik_Charging_Adjusted_Penalty>
5.19536e-06

> <i_epik_Tot_Q>
0

> <i_epik_Tot_abs_Q>
0

> <r_epik_Metal_State_Penalty>
-0

> <b_epik_Metal_Only>
0

> <s_lp_Force_Field>
OPLS_2005

> <r_lp_Energy>
26.5125

> <b_lp_Chiralities_Consistent>
1

> <s_lp_Variant>
AV-unprocessed.smi:664-1

> <Gold.Version>
5.8.1

> <Gold.Id.Protein>
6NUR|6NUR_protein|mol2

> <Gold.PLP.Fitness>
46.4515

> <Gold.PLP.PLP>
-42.9256

> <Gold.PLP.part.hbond>
-2.9057

> <Gold.PLP.part.metal>
0.0000

> <Gold.PLP.part.buried>
-3.3790

> <Gold.PLP.part.nonpolar>
-36.0506

> <Gold.PLP.part.repulsive>
0.1234

> <Gold.PLP.ligand.clash>
0.2766

> <Gold.PLP.ligand.torsion>
1.1027

> <Gold.PLP.Chemscore.Hbond>
2.0000

> <Gold.PLP.Chemscore.CHOScore>
0.0000

> <Gold.PLP.Chemscore.Metal>
0.0000

> <Gold.Chemscore.Hbonds>
donor molecule, donor type, donor heavy atom, donor atom, acceptor molecule, acceptor atom, score
      L1  H    10    27       P1  8028  1.00
      P1  H  7997  8008       L1     6  1.00

> <Gold.PLP.Chemscore.Internal.Correction>
0.0079

> <Gold.Rescore>
     Score         DG    S(hbond)    S(metal)    S(lipo)     H(rot)  DE(clash)    DE(int)     intcor
     18.94     -20.14       1.85        0.00     112.79       1.84       0.29       0.90       ----

> <Gold.Chemscore.Fitness>
18.9423

> <Gold.Chemscore.DG>
-20.1400

> <Gold.Chemscore.ZeroCoef>
-5.4800

> <Gold.Chemscore.Hbond>
1.8485

> <Gold.Chemscore.Metal>
0.0000

> <Gold.Chemscore.Lipo>
112.7913

> <Gold.Chemscore.Internal_Hbond>
0.0000

> <Gold.Chemscore.DEClash>
0.2948

> <Gold.Chemscore.DEInternal>
0.9029

> <Gold.Chemscore.Rot>
1.8400

> <Gold.Chemscore.Internal.Correction>
   9.000000E+99

> <Gold.Chemscore.Hbonds>
donor molecule, donor type, donor heavy atom, donor atom, acceptor molecule, acceptor atom, score
      L1  H    10    27       P1  8028  0.65
      P1  H  7997  8008       L1     6  1.00

> <Gold.Chemscore.Hbond.Weighted>
-6.1739

> <Gold.Chemscore.Metal.Weighted>
-0.0000

> <Gold.Chemscore.Lipo.Weighted>
-13.1966

> <Gold.Chemscore.Internal_Hbond.Weighted>
0.0000

> <Gold.Chemscore.DEClash.Weighted>
0.2948

> <Gold.Chemscore.DEInternal.Weighted>
0.9029

> <Gold.Chemscore.Rot.Weighted>
4.7105

> <Gold.Chemscore.Internal.Correction.Weighted>
   9.000000E+99

> <Gold.Protein.RotatedTorsions>
[ 6907 6896 6895 6894 ] final  -93.10 input  -60.11 | X-H torsion
[ 7974 7965 7964 7962 ] final  126.83 input  175.53 | X-H torsion
[ 8008 7997 7996 7995 ] final  -42.24 input   59.86 | X-H torsion
[ 10167 10162 10161 10158 ] final  140.33 input  -65.29 | X-H torsion
[ 10718 10713 10712 10709 ] final -148.73 input   66.30 | X-H torsion
[ 10763 10752 10751 10750 ] final  -66.03 input  -60.55 | X-H torsion
[ 11005 11000 10999 10996 ] final  -61.01 input  -57.11 | X-H torsion

> <Gold.Protein.ActiveResidues>
 VAL166  LYS551  ARG553  GLY616  TRP617  ASP618  TYR619  PRO620  LYS621  CYS622 
 ASP623  PHE694  ASN695  SER759  ASP760  ASP761  ALA762  ILE779  LEU786  VAL792 
 PHE793  MET794  SER795  GLU796  ALA797  LYS798  CYS799  TRP800  GLU811  SER814 

> <Gold.Protein.RotatedAtoms>
  150.6917  134.2020  159.4325 H   0  0  0  0  0  0  0  0  0  0  0  0  # atno 6907 bound_to 6896
  151.9986  134.9938  160.0573 H   0  0  0  0  0  0  0  0  0  0  0  0  # atno 6908 bound_to 6896
  152.1600  133.4541  159.4893 H   0  0  0  0  0  0  0  0  0  0  0  0  # atno 6909 bound_to 6896
  145.0573  139.3833  143.5023 H   0  0  0  0  0  0  0  0  0  0  0  0  # atno 7974 bound_to 7965
  154.4000  140.1478  156.3323 H   0  0  0  0  0  0  0  0  0  0  0  0  # atno 8008 bound_to 7997
  155.8432  140.3461  155.5624 H   0  0  0  0  0  0  0  0  0  0  0  0  # atno 8009 bound_to 7997
  155.8064  140.0877  157.1919 H   0  0  0  0  0  0  0  0  0  0  0  0  # atno 8010 bound_to 7997
  139.5052  144.6240  151.5981 H   0  0  0  0  0  0  0  0  0  0  0  0  # atno 10167 bound_to 10162
  156.4241  130.8043  151.2267 H   0  0  0  0  0  0  0  0  0  0  0  0  # atno 10718 bound_to 10713
  154.3539  135.6130  153.5656 H   0  0  0  0  0  0  0  0  0  0  0  0  # atno 10763 bound_to 10752
  152.9797  135.5799  154.4712 H   0  0  0  0  0  0  0  0  0  0  0  0  # atno 10764 bound_to 10752
  154.4438  135.2851  155.1807 H   0  0  0  0  0  0  0  0  0  0  0  0  # atno 10765 bound_to 10752
  141.1308  133.6626  156.5310 H   0  0  0  0  0  0  0  0  0  0  0  0  # atno 11005 bound_to 11000
  146.3522  140.0254  142.8655 LP  0  0  0  0  0  0  0  0  0  0  0  0  # atno 17320 bound_to 7965
  145.1452  140.9593  143.4465 LP  0  0  0  0  0  0  0  0  0  0  0  0  # atno 17321 bound_to 7965
  140.5952  143.9709  150.6349 LP  0  0  0  0  0  0  0  0  0  0  0  0  # atno 17342 bound_to 10162
  140.2903  143.3329  152.1069 LP  0  0  0  0  0  0  0  0  0  0  0  0  # atno 17343 bound_to 10162
  157.7508  131.0219  150.3769 LP  0  0  0  0  0  0  0  0  0  0  0  0  # atno 17370 bound_to 10713
  156.4092  130.3931  149.6903 LP  0  0  0  0  0  0  0  0  0  0  0  0  # atno 17371 bound_to 10713
  140.4216  134.7182  157.4893 LP  0  0  0  0  0  0  0  0  0  0  0  0  # atno 17394 bound_to 11000
  140.0356  134.6342  155.9048 LP  0  0  0  0  0  0  0  0  0  0  0  0  # atno 17395 bound_to 11000

$$$$
