AV-unprocessed.smi:2825|AV-procd|sdf|10889|dock2
  -GOLD-   2272015333D 1   1.00000     0.00000
 Structure written by MMmdl.
 48 49  0  0  0  0  0  0  0  0  1 V2000
  145.3851  145.0797  152.2789 C   0  0  0  0  0  0  0  0  0  0  0  0
  145.0810  144.1949  153.4920 C   0  0  0  0  0  0  0  0  0  0  0  0
  146.3027  143.3846  153.9478 C   0  0  0  0  0  0  0  0  0  0  0  0
  145.8804  142.2220  155.3188 S   0  0  0  0  0  0  0  0  0  0  0  0
  146.5644  142.6628  156.5440 O   0  0  0  0  0  0  0  0  0  0  0  0
  144.4235  142.0157  155.3209 O   0  0  0  0  0  0  0  0  0  0  0  0
  146.6322  140.7435  154.8080 N   0  0  0  0  0  0  0  0  0  0  0  0
  145.8284  139.5176  154.7723 C   0  0  0  0  0  0  0  0  0  0  0  0
  147.7462  140.7925  153.8484 C   0  0  0  0  0  0  0  0  0  0  0  0
  149.0906  140.4929  154.5403 C   0  0  1  0  0  0  0  0  0  0  0  0
  150.0602  140.2293  153.5442 O   0  0  0  0  0  0  0  0  0  0  0  0
  149.5654  141.6794  155.3998 C   0  0  0  0  0  0  0  0  0  0  0  0
  150.6313  141.3102  156.3137 N   0  0  0  0  0  0  0  0  0  0  0  0
  151.4700  140.2631  156.1960 C   0  0  0  0  0  0  0  0  0  0  0  0
  152.3819  140.1033  157.1505 N   0  0  0  0  0  0  0  0  0  0  0  0
  152.1030  141.1727  157.9841 C   0  0  0  0  0  0  0  0  0  0  0  0
  152.7149  141.5782  159.1905 C   0  0  0  0  0  0  0  0  0  0  0  0
  152.2610  142.7223  159.8848 C   0  0  0  0  0  0  0  0  0  0  0  0
  152.9471  143.1213  161.1795 C   0  0  0  0  0  0  0  0  0  0  0  0
  151.1791  143.4820  159.3718 C   0  0  0  0  0  0  0  0  0  0  0  0
  150.6765  144.7174  160.0981 C   0  0  0  0  0  0  0  0  0  0  0  0
  150.5549  143.0896  158.1692 C   0  0  0  0  0  0  0  0  0  0  0  0
  151.0143  141.9483  157.4885 C   0  0  0  0  0  0  0  0  0  0  0  0
  144.4985  145.6357  151.9731 H   0  0  0  0  0  0  0  0  0  0  0  0
  145.7123  144.4814  151.4280 H   0  0  0  0  0  0  0  0  0  0  0  0
  146.1700  145.8021  152.5045 H   0  0  0  0  0  0  0  0  0  0  0  0
  144.7223  144.8192  154.3107 H   0  0  0  0  0  0  0  0  0  0  0  0
  144.2668  143.5153  153.2401 H   0  0  0  0  0  0  0  0  0  0  0  0
  146.7335  142.8161  153.1245 H   0  0  0  0  0  0  0  0  0  0  0  0
  147.0770  144.0573  154.3172 H   0  0  0  0  0  0  0  0  0  0  0  0
  146.4711  138.6379  154.8190 H   0  0  0  0  0  0  0  0  0  0  0  0
  145.2430  139.4786  153.8534 H   0  0  0  0  0  0  0  0  0  0  0  0
  145.1441  139.4811  155.6191 H   0  0  0  0  0  0  0  0  0  0  0  0
  147.5795  140.1044  153.0176 H   0  0  0  0  0  0  0  0  0  0  0  0
  147.7621  141.7904  153.4084 H   0  0  0  0  0  0  0  0  0  0  0  0
  149.0085  139.6145  155.1796 H   0  0  0  0  0  0  0  0  0  0  0  0
  149.6176  140.1078  152.7183 H   0  0  0  0  0  0  0  0  0  0  0  0
  149.9100  142.4995  154.7686 H   0  0  0  0  0  0  0  0  0  0  0  0
  148.7355  142.0697  155.9905 H   0  0  0  0  0  0  0  0  0  0  0  0
  151.4073  139.5805  155.3611 H   0  0  0  0  0  0  0  0  0  0  0  0
  153.5404  141.0000  159.5789 H   0  0  0  0  0  0  0  0  0  0  0  0
  153.4090  144.1039  161.0793 H   0  0  0  0  0  0  0  0  0  0  0  0
  153.7275  142.4105  161.4525 H   0  0  0  0  0  0  0  0  0  0  0  0
  152.2279  143.1580  161.9982 H   0  0  0  0  0  0  0  0  0  0  0  0
  149.8748  145.2065  159.5436 H   0  0  0  0  0  0  0  0  0  0  0  0
  151.4820  145.4406  160.2275 H   0  0  0  0  0  0  0  0  0  0  0  0
  150.2890  144.4496  161.0814 H   0  0  0  0  0  0  0  0  0  0  0  0
  149.7303  143.6594  157.7674 H   0  0  0  0  0  0  0  0  0  0  0  0
  1  2  1  0  0  0  0
  1 24  1  0  0  0  0
  1 25  1  0  0  0  0
  1 26  1  0  0  0  0
  2  3  1  0  0  0  0
  2 27  1  0  0  0  0
  2 28  1  0  0  0  0
  3  4  1  0  0  0  0
  3 29  1  0  0  0  0
  3 30  1  0  0  0  0
  4  5  2  0  0  0  0
  4  6  2  0  0  0  0
  4  7  1  0  0  0  0
  7  8  1  0  0  0  0
  7  9  1  0  0  0  0
  8 31  1  0  0  0  0
  8 32  1  0  0  0  0
  8 33  1  0  0  0  0
  9 10  1  0  0  0  0
  9 34  1  0  0  0  0
  9 35  1  0  0  0  0
 10 11  1  0  0  0  0
 10 12  1  0  0  0  0
 10 36  1  0  0  0  0
 11 37  1  0  0  0  0
 12 13  1  0  0  0  0
 12 38  1  0  0  0  0
 12 39  1  0  0  0  0
 13 23  1  0  0  0  0
 13 14  1  0  0  0  0
 14 15  2  0  0  0  0
 14 40  1  0  0  0  0
 15 16  1  0  0  0  0
 16 23  2  0  0  0  0
 16 17  1  0  0  0  0
 17 18  2  0  0  0  0
 17 41  1  0  0  0  0
 18 19  1  0  0  0  0
 18 20  1  0  0  0  0
 19 42  1  0  0  0  0
 19 43  1  0  0  0  0
 19 44  1  0  0  0  0
 20 21  1  0  0  0  0
 20 22  2  0  0  0  0
 21 45  1  0  0  0  0
 21 46  1  0  0  0  0
 21 47  1  0  0  0  0
 22 23  1  0  0  0  0
 22 48  1  0  0  0  0
M  END
> <s_m_source_file>
AV-unprocessed.smi

> <i_m_source_file_index>
2825

> <i_lp_mmshare_version>
43012

> <i_f3d_flags>
0

> <s_epik_input>
W0NIM11bQ0gyXVtDSDJdUyg9TykoPU8pTihbQ0gzXSlbQ0gyXVtDQEhdKFtPSF0pW0NIMl1uKFtjSF1uMSljKGMxMilbY0hdYyhbQ0gzXSljKFtjSF0yKVtDSDNd

> <s_epik_cmdline>
J2VwaWtfcHl0aG9uJywgJy1waCcsICc3LjAnLCAnLXRuJywgJzgnLCAnLW1hJywgJzIwMCcsICctbWV0YWxfYmluZGluZycsICctaW1hZScsICc8aW5maWxlLm1hZT4nLCAnLW9tYWUnLCAnPG91dGZpbGUubWFlPic=

> <r_epik_Ionization_Penalty>
0.104931

> <r_epik_Ionization_Penalty_Charging>
0

> <r_epik_Ionization_Penalty_Neutral>
0.104931

> <r_epik_State_Penalty>
0.0948201

> <r_epik_Charging_Adjusted_Penalty>
0.0948201

> <i_epik_Tot_Q>
0

> <i_epik_Tot_abs_Q>
0

> <r_epik_Metal_State_Penalty>
0.00010282

> <b_epik_Metal_Only>
0

> <s_lp_Force_Field>
OPLS_2005

> <r_lp_Energy>
7.6372

> <b_lp_Chiralities_Consistent>
1

> <s_lp_Variant>
AV-unprocessed.smi:2825-2

> <Gold.Version>
5.8.1

> <Gold.Id.Protein>
6NUR|6NUR_protein|mol2

> <Gold.PLP.Fitness>
54.0063

> <Gold.PLP.PLP>
-47.7035

> <Gold.PLP.part.hbond>
-2.4682

> <Gold.PLP.part.metal>
0.0000

> <Gold.PLP.part.buried>
-2.8056

> <Gold.PLP.part.nonpolar>
-40.9561

> <Gold.PLP.part.repulsive>
0.3186

> <Gold.PLP.ligand.clash>
0.0000

> <Gold.PLP.ligand.torsion>
2.1207

> <Gold.PLP.Chemscore.Hbond>
2.6560

> <Gold.PLP.Chemscore.CHOScore>
0.0000

> <Gold.PLP.Chemscore.Metal>
0.0000

> <Gold.Chemscore.Hbonds>
donor molecule, donor type, donor heavy atom, donor atom, acceptor molecule, acceptor atom, score
      L1  H    11    37       P1  7957  1.00
      P1  H  7989  7998       L1    11  0.64
      P1  H  7997  8010       L1    15  0.94

> <Gold.PLP.Chemscore.Internal.Correction>
2.5763

> <Gold.Rescore>
     Score         DG    S(hbond)    S(metal)    S(lipo)     H(rot)  DE(clash)    DE(int)     intcor
     18.11     -21.32       2.36        0.00     121.35       2.43       0.23       2.99       ----

> <Gold.Chemscore.Fitness>
18.1072

> <Gold.Chemscore.DG>
-21.3178

> <Gold.Chemscore.ZeroCoef>
-5.4800

> <Gold.Chemscore.Hbond>
2.3561

> <Gold.Chemscore.Metal>
0.0000

> <Gold.Chemscore.Lipo>
121.3454

> <Gold.Chemscore.Internal_Hbond>
0.0000

> <Gold.Chemscore.DEClash>
0.2256

> <Gold.Chemscore.DEInternal>
2.9850

> <Gold.Chemscore.Rot>
2.4332

> <Gold.Chemscore.Internal.Correction>
   9.000000E+99

> <Gold.Chemscore.Hbonds>
donor molecule, donor type, donor heavy atom, donor atom, acceptor molecule, acceptor atom, score
      L1  H    11    37       P1  7957  0.92
      P1  H  7989  7998       L1    11  0.59
      P1  H  7997  8010       L1    15  0.64

> <Gold.Chemscore.Hbond.Weighted>
-7.8694

> <Gold.Chemscore.Metal.Weighted>
-0.0000

> <Gold.Chemscore.Lipo.Weighted>
-14.1974

> <Gold.Chemscore.Internal_Hbond.Weighted>
0.0000

> <Gold.Chemscore.DEClash.Weighted>
0.2256

> <Gold.Chemscore.DEInternal.Weighted>
2.9850

> <Gold.Chemscore.Rot.Weighted>
6.2289

> <Gold.Chemscore.Internal.Correction.Weighted>
   9.000000E+99

> <Gold.Protein.RotatedTorsions>
[ 6907 6896 6895 6894 ] final  -91.17 input  -60.11 | X-H torsion
[ 7974 7965 7964 7962 ] final   24.92 input  175.53 | X-H torsion
[ 8008 7997 7996 7995 ] final   60.03 input   59.86 | X-H torsion
[ 10167 10162 10161 10158 ] final -175.97 input  -65.29 | X-H torsion
[ 10718 10713 10712 10709 ] final   13.14 input   66.30 | X-H torsion
[ 10763 10752 10751 10750 ] final  101.48 input  -60.55 | X-H torsion
[ 11005 11000 10999 10996 ] final   50.84 input  -57.11 | X-H torsion

> <Gold.Protein.ActiveResidues>
 VAL166  LYS551  ARG553  GLY616  TRP617  ASP618  TYR619  PRO620  LYS621  CYS622 
 ASP623  PHE694  ASN695  SER759  ASP760  ASP761  ALA762  ILE779  LEU786  VAL792 
 PHE793  MET794  SER795  GLU796  ALA797  LYS798  CYS799  TRP800  GLU811  SER814 

> <Gold.Protein.RotatedAtoms>
  150.6889  134.2319  159.4437 H   0  0  0  0  0  0  0  0  0  0  0  0  # atno 6907 bound_to 6896
  152.0269  134.9788  160.0581 H   0  0  0  0  0  0  0  0  0  0  0  0  # atno 6908 bound_to 6896
  152.1343  133.4391  159.4772 H   0  0  0  0  0  0  0  0  0  0  0  0  # atno 6909 bound_to 6896
  146.1914  139.7537  142.8829 H   0  0  0  0  0  0  0  0  0  0  0  0  # atno 7974 bound_to 7965
  155.5757  140.3490  155.4527 H   0  0  0  0  0  0  0  0  0  0  0  0  # atno 8008 bound_to 7997
  156.0411  140.1296  157.0180 H   0  0  0  0  0  0  0  0  0  0  0  0  # atno 8009 bound_to 7997
  154.4392  140.1024  156.6224 H   0  0  0  0  0  0  0  0  0  0  0  0  # atno 8010 bound_to 7997
  139.5553  144.2004  152.1149 H   0  0  0  0  0  0  0  0  0  0  0  0  # atno 10167 bound_to 10162
  157.0204  130.6152  149.5720 H   0  0  0  0  0  0  0  0  0  0  0  0  # atno 10718 bound_to 10713
  153.3272  135.4043  155.1465 H   0  0  0  0  0  0  0  0  0  0  0  0  # atno 10763 bound_to 10752
  154.8614  135.3602  154.5518 H   0  0  0  0  0  0  0  0  0  0  0  0  # atno 10764 bound_to 10752
  153.5955  135.7072  153.5465 H   0  0  0  0  0  0  0  0  0  0  0  0  # atno 10765 bound_to 10752
  140.0983  134.5115  155.8786 H   0  0  0  0  0  0  0  0  0  0  0  0  # atno 11005 bound_to 11000
  145.3781  141.0354  143.3193 LP  0  0  0  0  0  0  0  0  0  0  0  0  # atno 17320 bound_to 7965
  144.8494  139.5346  143.6863 LP  0  0  0  0  0  0  0  0  0  0  0  0  # atno 17321 bound_to 7965
  140.1507  144.5117  150.6689 LP  0  0  0  0  0  0  0  0  0  0  0  0  # atno 17342 bound_to 10162
  140.6825  143.2333  151.5347 LP  0  0  0  0  0  0  0  0  0  0  0  0  # atno 17343 bound_to 10162
  156.0104  130.5195  150.7970 LP  0  0  0  0  0  0  0  0  0  0  0  0  # atno 17370 bound_to 10713
  157.5254  131.0934  151.0025 LP  0  0  0  0  0  0  0  0  0  0  0  0  # atno 17371 bound_to 10713
  141.2098  133.6688  156.6467 LP  0  0  0  0  0  0  0  0  0  0  0  0  # atno 17394 bound_to 11000
  140.3255  134.7972  157.4286 LP  0  0  0  0  0  0  0  0  0  0  0  0  # atno 17395 bound_to 11000

$$$$
