AV-unprocessed.smi:3009|AV-procd|sdf|11450|dock4
  -GOLD-   2272016383D 1   1.00000     0.00000
 Structure written by MMmdl.
 44 45  0  0  0  0  0  0  0  0  2 V2000
  145.3972  132.0970  149.1055 C   0  0  0  0  0  0  0  0  0  0  0  0
  145.1347  132.1916  150.6162 C   0  0  0  0  0  0  0  0  0  0  0  0
  143.7797  132.8686  150.8827 C   0  0  0  0  0  0  0  0  0  0  0  0
  146.2964  132.9248  151.3222 C   0  0  0  0  0  0  0  0  0  0  0  0
  147.2726  132.0017  151.9640 N   0  3  2  0  0  0  0  0  0  0  0  0
  146.6325  130.9290  152.7633 C   0  0  0  0  0  0  0  0  0  0  0  0
  146.1590  131.4622  154.1270 C   0  0  0  0  0  0  0  0  0  0  0  0
  147.2623  132.0345  154.8170 O   0  0  0  0  0  0  0  0  0  0  0  0
  147.8262  133.1476  154.1293 C   0  0  1  0  0  0  0  0  0  0  0  0
  148.9629  133.7353  154.9846 C   0  0  0  0  0  0  0  0  0  0  0  0
  149.3937  135.0404  154.4942 N   0  0  0  0  0  0  0  0  0  0  0  0
  150.1416  135.9168  155.1789 C   0  0  0  0  0  0  0  0  0  0  0  0
  150.5500  135.7167  156.3228 O   0  0  0  0  0  0  0  0  0  0  0  0
  150.3781  137.0233  154.4556 N   0  0  0  0  0  0  0  0  0  0  0  0
  151.1337  138.1594  154.8406 C   0  0  0  0  0  0  0  0  0  0  0  0
  152.5391  138.2897  154.6735 C   0  0  0  0  0  0  0  0  0  0  0  0
  152.9738  139.4574  155.1250 N   0  0  0  0  0  0  0  0  0  0  0  0
  151.8591  140.0736  155.5793 N   0  0  0  0  0  0  0  0  0  0  0  0
  150.7153  139.3214  155.4261 C   0  0  0  0  0  0  0  0  0  0  0  0
  148.3418  132.6654  152.7547 C   0  0  0  0  0  0  0  0  0  0  0  0
  151.8948  140.9971  155.9871 H   0  0  0  0  0  0  0  0  0  0  0  0
  145.4572  133.0860  148.6496 H   0  0  0  0  0  0  0  0  0  0  0  0
  144.6020  131.5466  148.6018 H   0  0  0  0  0  0  0  0  0  0  0  0
  146.3343  131.5788  148.8994 H   0  0  0  0  0  0  0  0  0  0  0  0
  145.0763  131.1685  150.9857 H   0  0  0  0  0  0  0  0  0  0  0  0
  143.7723  133.8982  150.5233 H   0  0  0  0  0  0  0  0  0  0  0  0
  143.5422  132.8853  151.9465 H   0  0  0  0  0  0  0  0  0  0  0  0
  142.9717  132.3366  150.3797 H   0  0  0  0  0  0  0  0  0  0  0  0
  146.8104  133.5831  150.6222 H   0  0  0  0  0  0  0  0  0  0  0  0
  145.8678  133.5779  152.0838 H   0  0  0  0  0  0  0  0  0  0  0  0
  145.8071  130.4753  152.2137 H   0  0  0  0  0  0  0  0  0  0  0  0
  147.3649  130.1363  152.9224 H   0  0  0  0  0  0  0  0  0  0  0  0
  145.3604  132.1965  154.0131 H   0  0  0  0  0  0  0  0  0  0  0  0
  145.7555  130.6464  154.7270 H   0  0  0  0  0  0  0  0  0  0  0  0
  147.0633  133.9156  153.9941 H   0  0  0  0  0  0  0  0  0  0  0  0
  148.6700  133.7903  156.0346 H   0  0  0  0  0  0  0  0  0  0  0  0
  149.8303  133.0761  154.9430 H   0  0  0  0  0  0  0  0  0  0  0  0
  149.1073  135.2915  153.5593 H   0  0  0  0  0  0  0  0  0  0  0  0
  149.9825  137.0539  153.5273 H   0  0  0  0  0  0  0  0  0  0  0  0
  153.2437  137.5897  154.2486 H   0  0  0  0  0  0  0  0  0  0  0  0
  149.7445  139.6752  155.7397 H   0  0  0  0  0  0  0  0  0  0  0  0
  149.1430  131.9407  152.9065 H   0  0  0  0  0  0  0  0  0  0  0  0
  148.7866  133.4900  152.1998 H   0  0  0  0  0  0  0  0  0  0  0  0
  147.7315  131.5337  151.1953 H   0  0  0  0  0  0  0  0  0  0  0  0
  1  2  1  0  0  0  0
  1 22  1  0  0  0  0
  1 23  1  0  0  0  0
  1 24  1  0  0  0  0
  2  3  1  0  0  0  0
  2  4  1  0  0  0  0
  2 25  1  0  0  0  0
  3 26  1  0  0  0  0
  3 27  1  0  0  0  0
  3 28  1  0  0  0  0
  4  5  1  0  0  0  0
  4 29  1  0  0  0  0
  4 30  1  0  0  0  0
  5 20  1  0  0  0  0
  5  6  1  0  0  0  0
  5 44  1  0  0  0  0
  6  7  1  0  0  0  0
  6 31  1  0  0  0  0
  6 32  1  0  0  0  0
  7  8  1  0  0  0  0
  7 33  1  0  0  0  0
  7 34  1  0  0  0  0
  8  9  1  0  0  0  0
  9 10  1  0  0  0  0
  9 20  1  0  0  0  0
  9 35  1  0  0  0  0
 10 11  1  0  0  0  0
 10 36  1  0  0  0  0
 10 37  1  0  0  0  0
 11 12  1  0  0  0  0
 11 38  1  0  0  0  0
 12 13  2  0  0  0  0
 12 14  1  0  0  0  0
 14 15  1  0  0  0  0
 14 39  1  0  0  0  0
 15 19  2  0  0  0  0
 15 16  1  0  0  0  0
 16 17  2  0  0  0  0
 16 40  1  0  0  0  0
 17 18  1  0  0  0  0
 18 21  1  0  0  0  0
 18 19  1  0  0  0  0
 19 41  1  0  0  0  0
 20 42  1  0  0  0  0
 20 43  1  0  0  0  0
M  CHG  1   5   1
M  END
> <s_m_source_file>
AV-unprocessed.smi

> <i_m_source_file_index>
3009

> <i_lp_mmshare_version>
43012

> <i_f3d_flags>
0

> <s_epik_input>
W0NIM11bQ0hdKFtDSDNdKVtDSDJdTjFbQ0gyXVtDSDJdT1tDQEhdKFtDSDJdMSlbQ0gyXVtOSF1DKD1PKVtOSF1jMltjSF1uW25IXVtjSF0y

> <s_epik_cmdline>
J2VwaWtfcHl0aG9uJywgJy1waCcsICc3LjAnLCAnLXRuJywgJzgnLCAnLW1hJywgJzIwMCcsICctbWV0YWxfYmluZGluZycsICctaW1hZScsICc8aW5maWxlLm1hZT4nLCAnLW9tYWUnLCAnPG91dGZpbGUubWFlPic=

> <r_lp_tautomer_probability>
0.5

> <r_epik_Ionization_Penalty>
0.0974064

> <r_epik_Ionization_Penalty_Charging>
0.0973651

> <r_epik_Ionization_Penalty_Neutral>
4.13573e-05

> <r_epik_State_Penalty>
0.0874853

> <r_epik_Charging_Adjusted_Penalty>
0.18485

> <i_epik_Tot_Q>
1

> <i_epik_Tot_abs_Q>
1

> <r_epik_Metal_State_Penalty>
0.0874855

> <b_epik_Metal_Only>
0

> <s_lp_Force_Field>
OPLS_2005

> <r_lp_Energy>
22.9615

> <b_lp_Chiralities_Consistent>
1

> <s_lp_Variant>
AV-unprocessed.smi:3009-2

> <Gold.Version>
5.8.1

> <Gold.Id.Protein>
6NUR|6NUR_protein|mol2

> <Gold.PLP.Fitness>
45.9484

> <Gold.PLP.PLP>
-36.9600

> <Gold.PLP.part.hbond>
-5.5248

> <Gold.PLP.part.metal>
0.0000

> <Gold.PLP.part.buried>
-5.1839

> <Gold.PLP.part.nonpolar>
-27.8258

> <Gold.PLP.part.repulsive>
1.6811

> <Gold.PLP.ligand.clash>
0.0000

> <Gold.PLP.ligand.torsion>
1.5485

> <Gold.PLP.Chemscore.Hbond>
4.0000

> <Gold.PLP.Chemscore.CHOScore>
0.0000

> <Gold.PLP.Chemscore.Metal>
0.0000

> <Gold.Chemscore.Hbonds>
donor molecule, donor type, donor heavy atom, donor atom, acceptor molecule, acceptor atom, score
      L1  H     5    44       P1 10747  1.00
      L1  H    11    38       P1  7948  1.00
      L1  H    14    39       P1  7948  0.88
      P1  H  7997  8010       L1    17  1.00

> <Gold.PLP.Chemscore.Internal.Correction>
0.0854

> <Gold.Rescore>
     Score         DG    S(hbond)    S(metal)    S(lipo)     H(rot)  DE(clash)    DE(int)     intcor
     19.60     -21.20       3.20        0.00      82.22       1.80       0.00       1.59       ----

> <Gold.Chemscore.Fitness>
19.6049

> <Gold.Chemscore.DG>
-21.2004

> <Gold.Chemscore.ZeroCoef>
-5.4800

> <Gold.Chemscore.Hbond>
3.2033

> <Gold.Chemscore.Metal>
0.0000

> <Gold.Chemscore.Lipo>
82.2215

> <Gold.Chemscore.Internal_Hbond>
0.0000

> <Gold.Chemscore.DEClash>
0.0030

> <Gold.Chemscore.DEInternal>
1.5925

> <Gold.Chemscore.Rot>
1.7963

> <Gold.Chemscore.Internal.Correction>
   9.000000E+99

> <Gold.Chemscore.Hbonds>
donor molecule, donor type, donor heavy atom, donor atom, acceptor molecule, acceptor atom, score
      L1  H     5    44       P1 10747  0.99
      L1  H    11    38       P1  7948  0.45
      L1  H    14    39       P1  7948  0.29
      P1  H  7997  8010       L1    17  0.78

> <Gold.Chemscore.Hbond.Weighted>
-10.6990

> <Gold.Chemscore.Metal.Weighted>
-0.0000

> <Gold.Chemscore.Lipo.Weighted>
-9.6199

> <Gold.Chemscore.Internal_Hbond.Weighted>
0.0000

> <Gold.Chemscore.DEClash.Weighted>
0.0030

> <Gold.Chemscore.DEInternal.Weighted>
1.5925

> <Gold.Chemscore.Rot.Weighted>
4.5985

> <Gold.Chemscore.Internal.Correction.Weighted>
   9.000000E+99

> <Gold.Protein.RotatedTorsions>
[ 6907 6896 6895 6894 ] final   13.69 input  -60.11 | X-H torsion
[ 7974 7965 7964 7962 ] final   -0.30 input  175.53 | X-H torsion
[ 8008 7997 7996 7995 ] final  106.54 input   59.86 | X-H torsion
[ 10167 10162 10161 10158 ] final   29.25 input  -65.29 | X-H torsion
[ 10718 10713 10712 10709 ] final   41.21 input   66.30 | X-H torsion
[ 10763 10752 10751 10750 ] final  -96.59 input  -60.55 | X-H torsion
[ 11005 11000 10999 10996 ] final -176.59 input  -57.11 | X-H torsion

> <Gold.Protein.ActiveResidues>
 VAL166  LYS551  ARG553  GLY616  TRP617  ASP618  TYR619  PRO620  LYS621  CYS622 
 ASP623  PHE694  ASN695  SER759  ASP760  ASP761  ALA762  ILE779  LEU786  VAL792 
 PHE793  MET794  SER795  GLU796  ALA797  LYS798  CYS799  TRP800  GLU811  SER814 

> <Gold.Protein.RotatedAtoms>
  151.7904  135.0737  160.0386 H   0  0  0  0  0  0  0  0  0  0  0  0  # atno 6907 bound_to 6896
  152.3160  133.5799  159.5721 H   0  0  0  0  0  0  0  0  0  0  0  0  # atno 6908 bound_to 6896
  150.7344  133.9997  159.3676 H   0  0  0  0  0  0  0  0  0  0  0  0  # atno 6909 bound_to 6896
  146.2428  140.1249  142.8339 H   0  0  0  0  0  0  0  0  0  0  0  0  # atno 7974 bound_to 7965
  156.1751  140.3111  155.9044 H   0  0  0  0  0  0  0  0  0  0  0  0  # atno 8008 bound_to 7997
  155.3505  140.0471  157.3063 H   0  0  0  0  0  0  0  0  0  0  0  0  # atno 8009 bound_to 7997
  154.5281  140.2221  155.8863 H   0  0  0  0  0  0  0  0  0  0  0  0  # atno 8010 bound_to 7997
  140.4782  144.0657  150.6257 H   0  0  0  0  0  0  0  0  0  0  0  0  # atno 10167 bound_to 10162
  157.3910  130.7806  149.7269 H   0  0  0  0  0  0  0  0  0  0  0  0  # atno 10718 bound_to 10713
  154.7253  135.5078  153.8877 H   0  0  0  0  0  0  0  0  0  0  0  0  # atno 10763 bound_to 10752
  153.0899  135.6656  153.9882 H   0  0  0  0  0  0  0  0  0  0  0  0  # atno 10764 bound_to 10752
  153.9696  135.3039  155.3407 H   0  0  0  0  0  0  0  0  0  0  0  0  # atno 10765 bound_to 10752
  140.4504  134.6349  157.4798 H   0  0  0  0  0  0  0  0  0  0  0  0  # atno 11005 bound_to 11000
  145.0375  140.8919  143.5072 LP  0  0  0  0  0  0  0  0  0  0  0  0  # atno 17320 bound_to 7965
  145.1324  139.2624  143.5532 LP  0  0  0  0  0  0  0  0  0  0  0  0  # atno 17321 bound_to 7965
  140.3891  143.2762  152.0081 LP  0  0  0  0  0  0  0  0  0  0  0  0  # atno 17342 bound_to 10162
  139.4829  144.6092  151.7465 LP  0  0  0  0  0  0  0  0  0  0  0  0  # atno 17343 bound_to 10162
  155.9798  130.4036  150.3564 LP  0  0  0  0  0  0  0  0  0  0  0  0  # atno 17370 bound_to 10713
  157.1680  131.0361  151.2809 LP  0  0  0  0  0  0  0  0  0  0  0  0  # atno 17371 bound_to 10713
  140.0011  134.6836  155.9529 LP  0  0  0  0  0  0  0  0  0  0  0  0  # atno 17394 bound_to 11000
  141.1666  133.6537  156.4503 LP  0  0  0  0  0  0  0  0  0  0  0  0  # atno 17395 bound_to 11000

$$$$
