AV-unprocessed.smi:1762|AV-procd|sdf|7099|dock2
  -GOLD-   22720 8313D 1   1.00000     0.00000
 Structure written by MMmdl.
 52 53  0  0  0  0  0  0  0  0  1 V2000
  152.5036  139.3913  155.3193 C   0  0  0  0  0  0  0  0  0  0  0  0
  150.9727  139.3289  155.3616 C   0  0  2  0  0  0  0  0  0  0  0  0
  150.4339  137.9590  154.9104 C   0  0  0  0  0  0  0  0  0  0  0  0
  148.9685  137.9129  154.8679 N   0  0  0  0  0  0  0  0  0  0  0  0
  148.4389  136.5671  154.5088 C   0  0  2  0  0  0  0  0  0  0  0  0
  146.9200  136.5685  154.2141 C   0  0  0  0  0  0  0  0  0  0  0  0
  146.1171  136.9179  155.0802 O   0  0  0  0  0  0  0  0  0  0  0  0
  146.5467  136.2055  152.9765 N   0  0  0  0  0  0  0  0  0  0  0  0
  145.1725  136.1838  152.4907 C   0  0  0  0  0  0  0  0  0  0  0  0
  145.0900  135.6116  151.0656 C   0  0  0  0  0  0  0  0  0  0  0  0
  144.9926  134.0981  151.0579 C   0  0  0  0  0  0  0  0  0  0  0  0
  146.0743  133.3058  151.4983 C   0  0  0  0  0  0  0  0  0  0  0  0
  145.9363  131.9048  151.4669 C   0  0  0  0  0  0  0  0  0  0  0  0
  144.7288  131.3528  150.9972 C   0  0  0  0  0  0  0  0  0  0  0  0
  143.7092  132.2303  150.5775 C   0  0  0  0  0  0  0  0  0  0  0  0
  143.8311  133.5752  150.6036 N   0  0  0  0  0  0  0  0  0  0  0  0
  148.8096  135.4227  155.5116 C   0  0  0  0  0  0  0  0  0  0  0  0
  148.7652  134.0142  154.8846 C   0  0  0  0  0  0  0  0  0  0  0  0
  147.9964  135.4526  156.8206 C   0  0  0  0  0  0  0  0  0  0  0  0
  148.4932  139.0074  154.0025 C   0  0  0  0  0  0  0  0  0  0  0  0
  149.0457  140.3901  154.4024 C   0  0  1  0  0  0  0  0  0  0  0  0
  148.3943  140.9618  155.6740 C   0  0  0  0  0  0  0  0  0  0  0  0
  150.4669  140.3471  154.5049 O   0  0  0  0  0  0  0  0  0  0  0  0
  152.9450  138.6408  155.9754 H   0  0  0  0  0  0  0  0  0  0  0  0
  152.8625  140.3682  155.6440 H   0  0  0  0  0  0  0  0  0  0  0  0
  152.8786  139.2168  154.3104 H   0  0  0  0  0  0  0  0  0  0  0  0
  150.6543  139.5245  156.3859 H   0  0  0  0  0  0  0  0  0  0  0  0
  150.8417  137.7068  153.9298 H   0  0  0  0  0  0  0  0  0  0  0  0
  150.8251  137.2239  155.6105 H   0  0  0  0  0  0  0  0  0  0  0  0
  148.9149  136.2906  153.5653 H   0  0  0  0  0  0  0  0  0  0  0  0
  147.2677  135.9379  152.3221 H   0  0  0  0  0  0  0  0  0  0  0  0
  144.5814  135.5731  153.1738 H   0  0  0  0  0  0  0  0  0  0  0  0
  144.7475  137.1884  152.5257 H   0  0  0  0  0  0  0  0  0  0  0  0
  144.2259  136.0243  150.5428 H   0  0  0  0  0  0  0  0  0  0  0  0
  145.9664  135.9131  150.4901 H   0  0  0  0  0  0  0  0  0  0  0  0
  146.9891  133.7594  151.8509 H   0  0  0  0  0  0  0  0  0  0  0  0
  146.7420  131.2653  151.7961 H   0  0  0  0  0  0  0  0  0  0  0  0
  144.5877  130.2828  150.9588 H   0  0  0  0  0  0  0  0  0  0  0  0
  142.7709  131.8414  150.2102 H   0  0  0  0  0  0  0  0  0  0  0  0
  149.8550  135.5517  155.7869 H   0  0  0  0  0  0  0  0  0  0  0  0
  147.7463  133.6946  154.6633 H   0  0  0  0  0  0  0  0  0  0  0  0
  149.1937  133.2744  155.5614 H   0  0  0  0  0  0  0  0  0  0  0  0
  149.3379  133.9771  153.9575 H   0  0  0  0  0  0  0  0  0  0  0  0
  146.9401  135.2477  156.6496 H   0  0  0  0  0  0  0  0  0  0  0  0
  148.0716  136.4193  157.3185 H   0  0  0  0  0  0  0  0  0  0  0  0
  148.3631  134.7014  157.5206 H   0  0  0  0  0  0  0  0  0  0  0  0
  148.7787  138.7991  152.9698 H   0  0  0  0  0  0  0  0  0  0  0  0
  147.4067  139.0869  154.0077 H   0  0  0  0  0  0  0  0  0  0  0  0
  148.8210  141.0860  153.5937 H   0  0  0  0  0  0  0  0  0  0  0  0
  147.3234  141.1054  155.5294 H   0  0  0  0  0  0  0  0  0  0  0  0
  148.8255  141.9297  155.9306 H   0  0  0  0  0  0  0  0  0  0  0  0
  148.5189  140.3014  156.5319 H   0  0  0  0  0  0  0  0  0  0  0  0
  1  2  1  0  0  0  0
  1 24  1  0  0  0  0
  1 25  1  0  0  0  0
  1 26  1  0  0  0  0
  2 23  1  0  0  0  0
  2  3  1  0  0  0  0
  2 27  1  0  0  0  0
  3  4  1  0  0  0  0
  3 28  1  0  0  0  0
  3 29  1  0  0  0  0
  4  5  1  0  0  0  0
  4 20  1  0  0  0  0
  5  6  1  0  0  0  0
  5 17  1  0  0  0  0
  5 30  1  0  0  0  0
  6  7  2  0  0  0  0
  6  8  1  0  0  0  0
  8  9  1  0  0  0  0
  8 31  1  0  0  0  0
  9 10  1  0  0  0  0
  9 32  1  0  0  0  0
  9 33  1  0  0  0  0
 10 11  1  0  0  0  0
 10 34  1  0  0  0  0
 10 35  1  0  0  0  0
 11 16  1  0  0  0  0
 11 12  2  0  0  0  0
 12 13  1  0  0  0  0
 12 36  1  0  0  0  0
 13 14  2  0  0  0  0
 13 37  1  0  0  0  0
 14 15  1  0  0  0  0
 14 38  1  0  0  0  0
 15 16  2  0  0  0  0
 15 39  1  0  0  0  0
 17 18  1  0  0  0  0
 17 19  1  0  0  0  0
 17 40  1  0  0  0  0
 18 41  1  0  0  0  0
 18 42  1  0  0  0  0
 18 43  1  0  0  0  0
 19 44  1  0  0  0  0
 19 45  1  0  0  0  0
 19 46  1  0  0  0  0
 20 21  1  0  0  0  0
 20 47  1  0  0  0  0
 20 48  1  0  0  0  0
 21 22  1  0  0  0  0
 21 23  1  0  0  0  0
 21 49  1  0  0  0  0
 22 50  1  0  0  0  0
 22 51  1  0  0  0  0
 22 52  1  0  0  0  0
M  END
> <s_m_source_file>
AV-unprocessed.smi

> <i_m_source_file_index>
1762

> <i_lp_mmshare_version>
43012

> <i_f3d_flags>
0

> <s_epik_input>
W0NIM11bQ0BASF0xW0NIMl1OKFtDSDJdW0NASF0oTzEpW0NIM10pW0NAQEhdKFtDSF0oW0NIM10pW0NIM10pQyg9TylbTkhdW0NIMl1bQ0gyXWMyW2NIXVtjSF1bY0hdW2NIXW4y

> <s_epik_cmdline>
J2VwaWtfcHl0aG9uJywgJy1waCcsICc3LjAnLCAnLXRuJywgJzgnLCAnLW1hJywgJzIwMCcsICctbWV0YWxfYmluZGluZycsICctaW1hZScsICc8aW5maWxlLm1hZT4nLCAnLW9tYWUnLCAnPG91dGZpbGUubWFlPic=

> <r_epik_Ionization_Penalty>
0.0399736

> <r_epik_Ionization_Penalty_Charging>
0

> <r_epik_Ionization_Penalty_Neutral>
0.0399736

> <r_epik_State_Penalty>
0.0317634

> <r_epik_Charging_Adjusted_Penalty>
0.0317634

> <i_epik_Tot_Q>
0

> <i_epik_Tot_abs_Q>
0

> <r_epik_Metal_State_Penalty>
0.0307795

> <b_epik_Metal_Only>
0

> <s_lp_Force_Field>
OPLS_2005

> <r_lp_Energy>
28.4472

> <b_lp_Chiralities_Consistent>
1

> <s_lp_Variant>
AV-unprocessed.smi:1762-1

> <Gold.Version>
5.8.1

> <Gold.Id.Protein>
6NUR|6NUR_protein|mol2

> <Gold.PLP.Fitness>
40.3172

> <Gold.PLP.PLP>
-32.4736

> <Gold.PLP.part.hbond>
-2.0000

> <Gold.PLP.part.metal>
0.0000

> <Gold.PLP.part.buried>
-0.9905

> <Gold.PLP.part.nonpolar>
-30.8118

> <Gold.PLP.part.repulsive>
0.7317

> <Gold.PLP.ligand.clash>
0.0000

> <Gold.PLP.ligand.torsion>
0.6166

> <Gold.PLP.Chemscore.Hbond>
1.8960

> <Gold.PLP.Chemscore.CHOScore>
1.0000

> <Gold.PLP.Chemscore.Metal>
0.0000

> <Gold.Chemscore.Hbonds>
donor molecule, donor type, donor heavy atom, donor atom, acceptor molecule, acceptor atom, score
      L1  H     8    31       P1  7948  0.90
      P1  H  7989  7998       L1    23  1.00
      L1  C    15    39       P1 10952  0.99

> <Gold.PLP.Chemscore.Internal.Correction>
0.3889

> <Gold.Rescore>
     Score         DG    S(hbond)    S(metal)    S(lipo)     H(rot)  DE(clash)    DE(int)     intcor
     16.25     -19.37       1.87        0.00     100.45       1.60       1.39       1.72       ----

> <Gold.Chemscore.Fitness>
16.2547

> <Gold.Chemscore.DG>
-19.3695

> <Gold.Chemscore.ZeroCoef>
-5.4800

> <Gold.Chemscore.Hbond>
1.8654

> <Gold.Chemscore.Metal>
0.0000

> <Gold.Chemscore.Lipo>
100.4532

> <Gold.Chemscore.Internal_Hbond>
0.0000

> <Gold.Chemscore.DEClash>
1.3930

> <Gold.Chemscore.DEInternal>
1.7218

> <Gold.Chemscore.Rot>
1.5993

> <Gold.Chemscore.Internal.Correction>
   9.000000E+99

> <Gold.Chemscore.Hbonds>
donor molecule, donor type, donor heavy atom, donor atom, acceptor molecule, acceptor atom, score
      L1  H     8    31       P1  7948  0.88
      P1  H  7989  7998       L1    23  0.76

> <Gold.Chemscore.Hbond.Weighted>
-6.2306

> <Gold.Chemscore.Metal.Weighted>
-0.0000

> <Gold.Chemscore.Lipo.Weighted>
-11.7530

> <Gold.Chemscore.Internal_Hbond.Weighted>
0.0000

> <Gold.Chemscore.DEClash.Weighted>
1.3930

> <Gold.Chemscore.DEInternal.Weighted>
1.7218

> <Gold.Chemscore.Rot.Weighted>
4.0941

> <Gold.Chemscore.Internal.Correction.Weighted>
   9.000000E+99

> <Gold.Protein.RotatedTorsions>
[ 6907 6896 6895 6894 ] final -158.37 input  -60.11 | X-H torsion
[ 7974 7965 7964 7962 ] final -127.69 input  175.53 | X-H torsion
[ 8008 7997 7996 7995 ] final    7.53 input   59.86 | X-H torsion
[ 10167 10162 10161 10158 ] final  -36.24 input  -65.29 | X-H torsion
[ 10718 10713 10712 10709 ] final  -64.25 input   66.30 | X-H torsion
[ 10763 10752 10751 10750 ] final  119.67 input  -60.55 | X-H torsion
[ 11005 11000 10999 10996 ] final  -36.02 input  -57.11 | X-H torsion

> <Gold.Protein.ActiveResidues>
 VAL166  LYS551  ARG553  GLY616  TRP617  ASP618  TYR619  PRO620  LYS621  CYS622 
 ASP623  PHE694  ASN695  SER759  ASP760  ASP761  ALA762  ILE779  LEU786  VAL792 
 PHE793  MET794  SER795  GLU796  ALA797  LYS798  CYS799  TRP800  GLU811  SER814 

> <Gold.Protein.RotatedAtoms>
  151.3172  133.4055  159.2651 H   0  0  0  0  0  0  0  0  0  0  0  0  # atno 6907 bound_to 6896
  151.0065  134.9364  159.7993 H   0  0  0  0  0  0  0  0  0  0  0  0  # atno 6908 bound_to 6896
  152.5289  134.3136  159.9175 H   0  0  0  0  0  0  0  0  0  0  0  0  # atno 6909 bound_to 6896
  144.9745  140.7579  143.4650 H   0  0  0  0  0  0  0  0  0  0  0  0  # atno 7974 bound_to 7965
  154.7550  140.2774  155.6261 H   0  0  0  0  0  0  0  0  0  0  0  0  # atno 8008 bound_to 7997
  156.2904  140.2671  156.2240 H   0  0  0  0  0  0  0  0  0  0  0  0  # atno 8009 bound_to 7997
  155.0089  140.0372  157.2381 H   0  0  0  0  0  0  0  0  0  0  0  0  # atno 8010 bound_to 7997
  140.7147  143.3422  151.2333 H   0  0  0  0  0  0  0  0  0  0  0  0  # atno 10167 bound_to 10162
  156.0741  130.4231  150.1393 H   0  0  0  0  0  0  0  0  0  0  0  0  # atno 10718 bound_to 10713
  153.5867  135.3473  155.2895 H   0  0  0  0  0  0  0  0  0  0  0  0  # atno 10763 bound_to 10752
  154.8659  135.4195  154.2561 H   0  0  0  0  0  0  0  0  0  0  0  0  # atno 10764 bound_to 10752
  153.3359  135.7047  153.6978 H   0  0  0  0  0  0  0  0  0  0  0  0  # atno 10765 bound_to 10752
  140.9842  133.7040  156.1736 H   0  0  0  0  0  0  0  0  0  0  0  0  # atno 11005 bound_to 11000
  145.2510  139.2031  143.4942 LP  0  0  0  0  0  0  0  0  0  0  0  0  # atno 17320 bound_to 7965
  146.3391  140.2423  142.8596 LP  0  0  0  0  0  0  0  0  0  0  0  0  # atno 17321 bound_to 7965
  139.6932  143.9656  152.2870 LP  0  0  0  0  0  0  0  0  0  0  0  0  # atno 17342 bound_to 10162
  139.9325  144.6732  150.8348 LP  0  0  0  0  0  0  0  0  0  0  0  0  # atno 17343 bound_to 10162
  156.9438  130.9753  151.3511 LP  0  0  0  0  0  0  0  0  0  0  0  0  # atno 17370 bound_to 10713
  157.5827  130.8388  149.8545 LP  0  0  0  0  0  0  0  0  0  0  0  0  # atno 17371 bound_to 10713
  140.7141  134.4430  157.5579 LP  0  0  0  0  0  0  0  0  0  0  0  0  # atno 17394 bound_to 11000
  139.8963  134.8663  156.2093 LP  0  0  0  0  0  0  0  0  0  0  0  0  # atno 17395 bound_to 11000

$$$$
