AV-unprocessed.smi:1725|AV-procd|sdf|6956|dock3
  -GOLD-   22720 8173D 1   1.00000     0.00000
 Structure written by MMmdl.
 35 36  0  0  0  0  0  0  0  0  2 V2000
  151.3388  144.0499  160.3381 C   0  0  0  0  0  0  0  0  0  0  0  0
  151.9555  143.0887  159.3121 C   0  0  1  0  0  0  0  0  0  0  0  0
  152.5357  142.0066  160.0350 O   0  0  0  0  0  0  0  0  0  0  0  0
  153.5441  142.3695  160.9732 C   0  0  0  0  0  0  0  0  0  0  0  0
  154.4436  141.1898  161.2932 C   0  0  0  0  0  0  0  0  0  0  0  0
  155.4018  140.6445  160.2543 C   0  0  0  0  0  0  0  0  0  0  0  0
  154.2080  139.8285  160.6707 C   0  0  0  0  0  0  0  0  0  0  0  0
  150.8934  142.5648  158.3323 C   0  0  0  0  0  0  0  0  0  0  0  0
  149.7029  142.7828  158.5578 O   0  0  0  0  0  0  0  0  0  0  0  0
  151.3712  141.8872  157.2703 N   0  0  0  0  0  0  0  0  0  0  0  0
  150.6694  141.2371  156.2415 C   0  0  0  0  0  0  0  0  0  0  0  0
  149.3949  141.5361  155.8662 C   0  0  0  0  0  0  0  0  0  0  0  0
  148.7067  140.8135  154.8033 C   0  0  0  0  0  0  0  0  0  0  0  0
  147.2886  141.1055  154.3478 C   0  0  0  0  0  0  0  0  0  0  0  0
  146.4250  140.8311  155.3250 F   0  0  0  0  0  0  0  0  0  0  0  0
  147.1610  142.3948  154.0351 F   0  0  0  0  0  0  0  0  0  0  0  0
  146.9601  140.3789  153.2794 F   0  0  0  0  0  0  0  0  0  0  0  0
  149.4876  139.8157  154.2554 C   0  0  0  0  0  0  0  0  0  0  0  0
  150.7491  139.4508  154.5734 N   0  5  0  0  0  0  0  0  0  0  0  0
  151.3832  140.1314  155.5698 C   0  0  0  0  0  0  0  0  0  0  0  0
  152.5295  139.8451  155.9179 O   0  0  0  0  0  0  0  0  0  0  0  0
  150.8712  144.9042  159.8472 H   0  0  0  0  0  0  0  0  0  0  0  0
  152.1029  144.4361  161.0126 H   0  0  0  0  0  0  0  0  0  0  0  0
  150.5806  143.5563  160.9473 H   0  0  0  0  0  0  0  0  0  0  0  0
  152.7383  143.6215  158.7683 H   0  0  0  0  0  0  0  0  0  0  0  0
  154.1678  143.1777  160.5904 H   0  0  0  0  0  0  0  0  0  0  0  0
  153.0827  142.7185  161.8977 H   0  0  0  0  0  0  0  0  0  0  0  0
  154.8060  141.1862  162.3194 H   0  0  0  0  0  0  0  0  0  0  0  0
  155.3853  141.0878  159.2604 H   0  0  0  0  0  0  0  0  0  0  0  0
  156.3800  140.3158  160.5989 H   0  0  0  0  0  0  0  0  0  0  0  0
  154.3919  138.9544  161.2919 H   0  0  0  0  0  0  0  0  0  0  0  0
  153.3963  139.7244  159.9533 H   0  0  0  0  0  0  0  0  0  0  0  0
  152.3756  141.8636  157.1684 H   0  0  0  0  0  0  0  0  0  0  0  0
  148.8431  142.3136  156.3687 H   0  0  0  0  0  0  0  0  0  0  0  0
  149.0251  139.2196  153.4398 H   0  0  0  0  0  0  0  0  0  0  0  0
  1  2  1  0  0  0  0
  1 22  1  0  0  0  0
  1 23  1  0  0  0  0
  1 24  1  0  0  0  0
  2  3  1  0  0  0  0
  2  8  1  0  0  0  0
  2 25  1  0  0  0  0
  3  4  1  0  0  0  0
  4  5  1  0  0  0  0
  4 26  1  0  0  0  0
  4 27  1  0  0  0  0
  5  7  1  0  0  0  0
  5  6  1  0  0  0  0
  5 28  1  0  0  0  0
  6  7  1  0  0  0  0
  6 29  1  0  0  0  0
  6 30  1  0  0  0  0
  7 31  1  0  0  0  0
  7 32  1  0  0  0  0
  8  9  2  0  0  0  0
  8 10  1  0  0  0  0
 10 11  1  0  0  0  0
 10 33  1  0  0  0  0
 11 20  1  0  0  0  0
 11 12  2  0  0  0  0
 12 13  1  0  0  0  0
 12 34  1  0  0  0  0
 13 14  1  0  0  0  0
 13 18  2  0  0  0  0
 14 15  1  0  0  0  0
 14 16  1  0  0  0  0
 14 17  1  0  0  0  0
 18 19  1  0  0  0  0
 18 35  1  0  0  0  0
 19 20  1  0  0  0  0
 20 21  2  0  0  0  0
M  CHG  1  19  -1
M  END
> <s_m_source_file>
AV-unprocessed.smi

> <i_m_source_file_index>
1725

> <i_lp_mmshare_version>
43012

> <i_f3d_flags>
0

> <s_epik_input>
W0NIMl0xW0NIMl1bQ0hdMVtDSDJdT1tDQEBIXShbQ0gzXSlDKD1PKVtOSF1jMltjSF1jKEMoRikoRilGKVtjSF1bbkhdYzI9Tw==

> <s_epik_cmdline>
J2VwaWtfcHl0aG9uJywgJy1waCcsICc3LjAnLCAnLXRuJywgJzgnLCAnLW1hJywgJzIwMCcsICctbWV0YWxfYmluZGluZycsICctaW1hZScsICc8aW5maWxlLm1hZT4nLCAnLW9tYWUnLCAnPG91dGZpbGUubWFlPic=

> <r_lp_tautomer_probability>
0.999

> <r_epik_Ionization_Penalty>
2.64397

> <r_epik_Ionization_Penalty_Charging>
0.0618254

> <r_epik_Ionization_Penalty_Neutral>
2.58215

> <r_epik_State_Penalty>
2.58023

> <r_epik_Charging_Adjusted_Penalty>
2.64205

> <i_epik_Tot_Q>
-1

> <i_epik_Tot_abs_Q>
1

> <r_epik_Metal_State_Penalty>
0.429101

> <b_epik_Metal_Only>
1

> <s_lp_Force_Field>
OPLS_2005

> <r_lp_Energy>
29.0368

> <b_lp_Chiralities_Consistent>
1

> <s_lp_Variant>
AV-unprocessed.smi:1725-4

> <Gold.Version>
5.8.1

> <Gold.Id.Protein>
6NUR|6NUR_protein|mol2

> <Gold.PLP.Fitness>
43.3967

> <Gold.PLP.PLP>
-41.3689

> <Gold.PLP.part.hbond>
-2.0000

> <Gold.PLP.part.metal>
0.0000

> <Gold.PLP.part.buried>
-2.1490

> <Gold.PLP.part.nonpolar>
-37.1353

> <Gold.PLP.part.repulsive>
0.3130

> <Gold.PLP.ligand.clash>
0.0000

> <Gold.PLP.ligand.torsion>
0.9506

> <Gold.PLP.Chemscore.Hbond>
1.0900

> <Gold.PLP.Chemscore.CHOScore>
0.0000

> <Gold.PLP.Chemscore.Metal>
0.0000

> <Gold.Chemscore.Hbonds>
donor molecule, donor type, donor heavy atom, donor atom, acceptor molecule, acceptor atom, score
      P1  H  7989  7998       L1    19  0.04
      P1  H  7997  8009       L1    21  1.00

> <Gold.PLP.Chemscore.Internal.Correction>
0.6591

> <Gold.Rescore>
     Score         DG    S(hbond)    S(metal)    S(lipo)     H(rot)  DE(clash)    DE(int)     intcor
     12.66     -15.21       1.00        0.00      93.14       1.76       0.53       2.02       ----

> <Gold.Chemscore.Fitness>
12.6643

> <Gold.Chemscore.DG>
-15.2104

> <Gold.Chemscore.ZeroCoef>
-5.4800

> <Gold.Chemscore.Hbond>
0.9997

> <Gold.Chemscore.Metal>
0.0000

> <Gold.Chemscore.Lipo>
93.1438

> <Gold.Chemscore.Internal_Hbond>
0.0000

> <Gold.Chemscore.DEClash>
0.5291

> <Gold.Chemscore.DEInternal>
2.0170

> <Gold.Chemscore.Rot>
1.7604

> <Gold.Chemscore.Internal.Correction>
   9.000000E+99

> <Gold.Chemscore.Hbonds>
donor molecule, donor type, donor heavy atom, donor atom, acceptor molecule, acceptor atom, score
      P1  H  7997  8009       L1    21  1.00

> <Gold.Chemscore.Hbond.Weighted>
-3.3391

> <Gold.Chemscore.Metal.Weighted>
-0.0000

> <Gold.Chemscore.Lipo.Weighted>
-10.8978

> <Gold.Chemscore.Internal_Hbond.Weighted>
0.0000

> <Gold.Chemscore.DEClash.Weighted>
0.5291

> <Gold.Chemscore.DEInternal.Weighted>
2.0170

> <Gold.Chemscore.Rot.Weighted>
4.5065

> <Gold.Chemscore.Internal.Correction.Weighted>
   9.000000E+99

> <Gold.Protein.RotatedTorsions>
[ 6907 6896 6895 6894 ] final -152.04 input  -60.11 | X-H torsion
[ 7974 7965 7964 7962 ] final  151.26 input  175.53 | X-H torsion
[ 8008 7997 7996 7995 ] final -158.80 input   59.86 | X-H torsion
[ 10167 10162 10161 10158 ] final   74.16 input  -65.29 | X-H torsion
[ 10718 10713 10712 10709 ] final  150.12 input   66.30 | X-H torsion
[ 10763 10752 10751 10750 ] final -105.35 input  -60.55 | X-H torsion
[ 11005 11000 10999 10996 ] final  -79.94 input  -57.11 | X-H torsion

> <Gold.Protein.ActiveResidues>
 VAL166  LYS551  ARG553  GLY616  TRP617  ASP618  TYR619  PRO620  LYS621  CYS622 
 ASP623  PHE694  ASN695  SER759  ASP760  ASP761  ALA762  ILE779  LEU786  VAL792 
 PHE793  MET794  SER795  GLU796  ALA797  LYS798  CYS799  TRP800  GLU811  SER814 

> <Gold.Protein.RotatedAtoms>
  151.2219  133.4498  159.2600 H   0  0  0  0  0  0  0  0  0  0  0  0  # atno 6907 bound_to 6896
  151.0877  134.9897  159.8397 H   0  0  0  0  0  0  0  0  0  0  0  0  # atno 6908 bound_to 6896
  152.5431  134.2154  159.8819 H   0  0  0  0  0  0  0  0  0  0  0  0  # atno 6909 bound_to 6896
  144.8305  139.6514  143.6061 H   0  0  0  0  0  0  0  0  0  0  0  0  # atno 7974 bound_to 7965
  155.7530  140.0829  157.2192 H   0  0  0  0  0  0  0  0  0  0  0  0  # atno 8008 bound_to 7997
  154.4010  140.1557  156.2801 H   0  0  0  0  0  0  0  0  0  0  0  0  # atno 8009 bound_to 7997
  155.8912  140.3415  155.5960 H   0  0  0  0  0  0  0  0  0  0  0  0  # atno 8010 bound_to 7997
  140.0167  144.5572  150.7614 H   0  0  0  0  0  0  0  0  0  0  0  0  # atno 10167 bound_to 10162
  157.2875  131.0847  151.1486 H   0  0  0  0  0  0  0  0  0  0  0  0  # atno 10718 bound_to 10713
  154.7941  135.4752  154.0119 H   0  0  0  0  0  0  0  0  0  0  0  0  # atno 10763 bound_to 10752
  153.1676  135.6819  153.8661 H   0  0  0  0  0  0  0  0  0  0  0  0  # atno 10764 bound_to 10752
  153.8254  135.3198  155.3392 H   0  0  0  0  0  0  0  0  0  0  0  0  # atno 10765 bound_to 10752
  141.1668  133.7128  156.8198 H   0  0  0  0  0  0  0  0  0  0  0  0  # atno 11005 bound_to 11000
  146.2608  139.6407  142.9363 LP  0  0  0  0  0  0  0  0  0  0  0  0  # atno 17320 bound_to 7965
  145.4905  141.0438  143.2595 LP  0  0  0  0  0  0  0  0  0  0  0  0  # atno 17321 bound_to 7965
  140.7359  143.2747  151.3780 LP  0  0  0  0  0  0  0  0  0  0  0  0  # atno 17342 bound_to 10162
  139.6167  144.0988  152.2353 LP  0  0  0  0  0  0  0  0  0  0  0  0  # atno 17343 bound_to 10162
  157.2896  130.6789  149.6107 LP  0  0  0  0  0  0  0  0  0  0  0  0  # atno 17370 bound_to 10713
  155.9666  130.4425  150.5383 LP  0  0  0  0  0  0  0  0  0  0  0  0  # atno 17371 bound_to 10713
  140.2127  134.8815  157.3292 LP  0  0  0  0  0  0  0  0  0  0  0  0  # atno 17394 bound_to 11000
  140.2069  134.4186  155.7633 LP  0  0  0  0  0  0  0  0  0  0  0  0  # atno 17395 bound_to 11000

$$$$
