AV-unprocessed.smi:1994|AV-procd|sdf|8075|dock6
  -GOLD-   2272010283D 1   1.00000     0.00000
 Structure written by MMmdl.
 40 42  0  0  0  0  0  0  0  0  2 V2000
  148.8681  140.7844  155.6016 C   0  0  0  0  0  0  0  0  0  0  0  0
  149.8027  141.2376  156.6726 C   0  0  0  0  0  0  0  0  0  0  0  0
  150.2681  142.5070  156.8460 N   0  3  0  0  0  0  0  0  0  0  0  0
  151.1253  142.5497  157.9469 C   0  0  0  0  0  0  0  0  0  0  0  0
  151.8352  143.6059  158.5099 C   0  0  0  0  0  0  0  0  0  0  0  0
  152.6256  143.3061  159.6392 C   0  0  0  0  0  0  0  0  0  0  0  0
  152.6890  141.9995  160.1657 C   0  0  0  0  0  0  0  0  0  0  0  0
  151.9654  140.9365  159.5856 C   0  0  0  0  0  0  0  0  0  0  0  0
  151.1856  141.2424  158.4708 C   0  0  0  0  0  0  0  0  0  0  0  0
  150.3520  140.4688  157.6561 N   0  0  0  0  0  0  0  0  0  0  0  0
  150.2006  139.0343  157.9429 C   0  0  0  0  0  0  0  0  0  0  0  0
  148.8554  138.6926  158.6154 C   0  0  1  0  0  0  0  0  0  0  0  0
  147.8006  138.8663  157.6907 O   0  0  0  0  0  0  0  0  0  0  0  0
  148.8156  137.2509  159.1405 C   0  0  0  0  0  0  0  0  0  0  0  0
  148.0514  137.2249  160.3387 O   0  0  0  0  0  0  0  0  0  0  0  0
  147.6581  136.0017  160.8382 C   0  0  0  0  0  0  0  0  0  0  0  0
  147.8559  134.7678  160.1674 C   0  0  0  0  0  0  0  0  0  0  0  0
  147.4224  133.5613  160.7507 C   0  0  0  0  0  0  0  0  0  0  0  0
  146.7872  133.5712  162.0061 C   0  0  0  0  0  0  0  0  0  0  0  0
  146.5854  134.7906  162.6783 C   0  0  0  0  0  0  0  0  0  0  0  0
  147.0187  135.9977  162.0964 C   0  0  0  0  0  0  0  0  0  0  0  0
  146.8201  137.1648  162.7548 F   0  0  0  0  0  0  0  0  0  0  0  0
  148.4871  141.6371  155.0391 H   0  0  0  0  0  0  0  0  0  0  0  0
  148.0224  140.2518  156.0371 H   0  0  0  0  0  0  0  0  0  0  0  0
  149.3835  140.1155  154.9121 H   0  0  0  0  0  0  0  0  0  0  0  0
  151.7888  144.6074  158.1081 H   0  0  0  0  0  0  0  0  0  0  0  0
  153.1946  144.0942  160.1111 H   0  0  0  0  0  0  0  0  0  0  0  0
  153.3050  141.8081  161.0323 H   0  0  0  0  0  0  0  0  0  0  0  0
  152.0203  139.9384  159.9954 H   0  0  0  0  0  0  0  0  0  0  0  0
  150.3012  138.4939  157.0007 H   0  0  0  0  0  0  0  0  0  0  0  0
  151.0399  138.7210  158.5653 H   0  0  0  0  0  0  0  0  0  0  0  0
  148.6732  139.3736  159.4471 H   0  0  0  0  0  0  0  0  0  0  0  0
  147.9595  138.3057  156.9472 H   0  0  0  0  0  0  0  0  0  0  0  0
  148.3493  136.6016  158.3973 H   0  0  0  0  0  0  0  0  0  0  0  0
  149.8298  136.8894  159.3197 H   0  0  0  0  0  0  0  0  0  0  0  0
  148.3370  134.7200  159.2024 H   0  0  0  0  0  0  0  0  0  0  0  0
  147.5777  132.6262  160.2330 H   0  0  0  0  0  0  0  0  0  0  0  0
  146.4551  132.6454  162.4523 H   0  0  0  0  0  0  0  0  0  0  0  0
  146.0979  134.8008  163.6419 H   0  0  0  0  0  0  0  0  0  0  0  0
  150.0175  143.2861  156.2508 H   0  0  0  0  0  0  0  0  0  0  0  0
  1  2  1  0  0  0  0
  1 23  1  0  0  0  0
  1 24  1  0  0  0  0
  1 25  1  0  0  0  0
  2 10  1  0  0  0  0
  2  3  2  0  0  0  0
  3  4  1  0  0  0  0
  3 40  1  0  0  0  0
  4  9  2  0  0  0  0
  4  5  1  0  0  0  0
  5  6  2  0  0  0  0
  5 26  1  0  0  0  0
  6  7  1  0  0  0  0
  6 27  1  0  0  0  0
  7  8  2  0  0  0  0
  7 28  1  0  0  0  0
  8  9  1  0  0  0  0
  8 29  1  0  0  0  0
  9 10  1  0  0  0  0
 10 11  1  0  0  0  0
 11 12  1  0  0  0  0
 11 30  1  0  0  0  0
 11 31  1  0  0  0  0
 12 13  1  0  0  0  0
 12 14  1  0  0  0  0
 12 32  1  0  0  0  0
 13 33  1  0  0  0  0
 14 15  1  0  0  0  0
 14 34  1  0  0  0  0
 14 35  1  0  0  0  0
 15 16  1  0  0  0  0
 16 21  1  0  0  0  0
 16 17  2  0  0  0  0
 17 18  1  0  0  0  0
 17 36  1  0  0  0  0
 18 19  2  0  0  0  0
 18 37  1  0  0  0  0
 19 20  1  0  0  0  0
 19 38  1  0  0  0  0
 20 21  2  0  0  0  0
 20 39  1  0  0  0  0
 21 22  1  0  0  0  0
M  CHG  1   3   1
M  END
> <s_m_source_file>
AV-unprocessed.smi

> <i_m_source_file_index>
1994

> <i_lp_mmshare_version>
43012

> <i_f3d_flags>
0

> <s_epik_input>
W2NIXTFbY0hdW2NIXVtjSF1jKGMxMiluKGMobjIpW0NIM10pW0NIMl1bQ0BIXShbT0hdKVtDSDJdT2MzW2NIXVtjSF1bY0hdW2NIXWMzRg==

> <s_epik_cmdline>
J2VwaWtfcHl0aG9uJywgJy1waCcsICc3LjAnLCAnLXRuJywgJzgnLCAnLW1hJywgJzIwMCcsICctbWV0YWxfYmluZGluZycsICctaW1hZScsICc8aW5maWxlLm1hZT4nLCAnLW9tYWUnLCAnPG91dGZpbGUubWFlPic=

> <r_lp_tautomer_probability>
1

> <r_epik_Ionization_Penalty>
1.03916

> <r_epik_Ionization_Penalty_Charging>
1.03916

> <r_epik_Ionization_Penalty_Neutral>
2.3993e-06

> <r_epik_State_Penalty>
1.09101

> <r_epik_Charging_Adjusted_Penalty>
2.13018

> <i_epik_Tot_Q>
1

> <i_epik_Tot_abs_Q>
1

> <r_epik_Metal_State_Penalty>
5.08156

> <b_epik_Metal_Only>
0

> <s_lp_Force_Field>
OPLS_2005

> <r_lp_Energy>
18.0159

> <b_lp_Chiralities_Consistent>
1

> <s_lp_Variant>
AV-unprocessed.smi:1994-4

> <Gold.Version>
5.8.1

> <Gold.Id.Protein>
6NUR|6NUR_protein|mol2

> <Gold.PLP.Fitness>
55.7278

> <Gold.PLP.PLP>
-48.0347

> <Gold.PLP.part.hbond>
-3.0000

> <Gold.PLP.part.metal>
0.0000

> <Gold.PLP.part.buried>
-4.2573

> <Gold.PLP.part.nonpolar>
-41.6062

> <Gold.PLP.part.repulsive>
0.0569

> <Gold.PLP.ligand.clash>
0.0000

> <Gold.PLP.ligand.torsion>
0.7936

> <Gold.PLP.Chemscore.Hbond>
3.0832

> <Gold.PLP.Chemscore.CHOScore>
0.0000

> <Gold.PLP.Chemscore.Metal>
0.0000

> <Gold.Chemscore.Hbonds>
donor molecule, donor type, donor heavy atom, donor atom, acceptor molecule, acceptor atom, score
      L1  H     3    40       P1  8028  2.00
      P1  H  6931  6943       L1    15  0.56
      P1  H  6934  6947       L1    15  0.64

> <Gold.PLP.Chemscore.Internal.Correction>
0.0307

> <Gold.Rescore>
     Score         DG    S(hbond)    S(metal)    S(lipo)     H(rot)  DE(clash)    DE(int)     intcor
     18.31     -19.56       2.00        0.00     112.92       2.27       0.32       0.93       ----

> <Gold.Chemscore.Fitness>
18.3115

> <Gold.Chemscore.DG>
-19.5570

> <Gold.Chemscore.ZeroCoef>
-5.4800

> <Gold.Chemscore.Hbond>
1.9996

> <Gold.Chemscore.Metal>
0.0000

> <Gold.Chemscore.Lipo>
112.9153

> <Gold.Chemscore.Internal_Hbond>
0.0000

> <Gold.Chemscore.DEClash>
0.3203

> <Gold.Chemscore.DEInternal>
0.9252

> <Gold.Chemscore.Rot>
2.2706

> <Gold.Chemscore.Internal.Correction>
   9.000000E+99

> <Gold.Chemscore.Hbonds>
donor molecule, donor type, donor heavy atom, donor atom, acceptor molecule, acceptor atom, score
      L1  H     3    40       P1  8028  0.98
      P1  H  6931  6943       L1    15  0.29
      P1  H  6934  6947       L1    15  0.58

> <Gold.Chemscore.Hbond.Weighted>
-6.6787

> <Gold.Chemscore.Metal.Weighted>
-0.0000

> <Gold.Chemscore.Lipo.Weighted>
-13.2111

> <Gold.Chemscore.Internal_Hbond.Weighted>
0.0000

> <Gold.Chemscore.DEClash.Weighted>
0.3203

> <Gold.Chemscore.DEInternal.Weighted>
0.9252

> <Gold.Chemscore.Rot.Weighted>
5.8128

> <Gold.Chemscore.Internal.Correction.Weighted>
   9.000000E+99

> <Gold.Protein.RotatedTorsions>
[ 6907 6896 6895 6894 ] final   59.90 input  -60.11 | X-H torsion
[ 7974 7965 7964 7962 ] final  -28.75 input  175.53 | X-H torsion
[ 8008 7997 7996 7995 ] final  127.23 input   59.86 | X-H torsion
[ 10167 10162 10161 10158 ] final   74.55 input  -65.29 | X-H torsion
[ 10718 10713 10712 10709 ] final  168.15 input   66.30 | X-H torsion
[ 10763 10752 10751 10750 ] final   27.31 input  -60.55 | X-H torsion
[ 11005 11000 10999 10996 ] final  121.68 input  -57.11 | X-H torsion

> <Gold.Protein.ActiveResidues>
 VAL166  LYS551  ARG553  GLY616  TRP617  ASP618  TYR619  PRO620  LYS621  CYS622 
 ASP623  PHE694  ASN695  SER759  ASP760  ASP761  ALA762  ILE779  LEU786  VAL792 
 PHE793  MET794  SER795  GLU796  ALA797  LYS798  CYS799  TRP800  GLU811  SER814 

> <Gold.Protein.RotatedAtoms>
  152.3956  134.6371  160.0090 H   0  0  0  0  0  0  0  0  0  0  0  0  # atno 6907 bound_to 6896
  151.6592  133.3312  159.3178 H   0  0  0  0  0  0  0  0  0  0  0  0  # atno 6908 bound_to 6896
  150.7864  134.6895  159.6534 H   0  0  0  0  0  0  0  0  0  0  0  0  # atno 6909 bound_to 6896
  146.1266  140.5323  142.8712 H   0  0  0  0  0  0  0  0  0  0  0  0  # atno 7974 bound_to 7965
  156.2885  140.2674  156.2239 H   0  0  0  0  0  0  0  0  0  0  0  0  # atno 8008 bound_to 7997
  155.0140  140.0387  157.2429 H   0  0  0  0  0  0  0  0  0  0  0  0  # atno 8009 bound_to 7997
  154.7493  140.2740  155.6311 H   0  0  0  0  0  0  0  0  0  0  0  0  # atno 8010 bound_to 7997
  140.0125  144.5603  150.7647 H   0  0  0  0  0  0  0  0  0  0  0  0  # atno 10167 bound_to 10162
  157.0413  131.0287  151.2712 H   0  0  0  0  0  0  0  0  0  0  0  0  # atno 10718 bound_to 10713
  153.0564  135.6540  154.0566 H   0  0  0  0  0  0  0  0  0  0  0  0  # atno 10763 bound_to 10752
  154.0243  135.2917  155.3378 H   0  0  0  0  0  0  0  0  0  0  0  0  # atno 10764 bound_to 10752
  154.6882  135.5293  153.8423 H   0  0  0  0  0  0  0  0  0  0  0  0  # atno 10765 bound_to 10752
  139.9236  134.9639  156.7994 H   0  0  0  0  0  0  0  0  0  0  0  0  # atno 11005 bound_to 11000
  144.7648  140.5506  143.6710 LP  0  0  0  0  0  0  0  0  0  0  0  0  # atno 17320 bound_to 7965
  145.5352  139.1475  143.3477 LP  0  0  0  0  0  0  0  0  0  0  0  0  # atno 17321 bound_to 7965
  140.7376  143.2767  151.3720 LP  0  0  0  0  0  0  0  0  0  0  0  0  # atno 17342 bound_to 10162
  139.6195  144.0935  152.2378 LP  0  0  0  0  0  0  0  0  0  0  0  0  # atno 17343 bound_to 10162
  157.5102  130.7934  149.7697 LP  0  0  0  0  0  0  0  0  0  0  0  0  # atno 17370 bound_to 10713
  156.0037  130.3866  150.2509 LP  0  0  0  0  0  0  0  0  0  0  0  0  # atno 17371 bound_to 10713
  140.6402  133.9825  155.7704 LP  0  0  0  0  0  0  0  0  0  0  0  0  # atno 17394 bound_to 11000
  141.0776  134.0111  157.3434 LP  0  0  0  0  0  0  0  0  0  0  0  0  # atno 17395 bound_to 11000

$$$$
