AV-unprocessed.smi:2892|AV-procd|sdf|11118|dock2
  -GOLD-   2272015583D 1   1.00000     0.00000
 Structure written by MMmdl.
 42 42  0  0  0  0  0  0  0  0  2 V2000
  155.5546  138.3849  164.8281 C   0  0  0  0  0  0  0  0  0  0  0  0
  154.2158  138.4956  164.0832 C   0  0  0  0  0  0  0  0  0  0  0  0
  153.8601  137.2589  163.2175 C   0  0  2  0  0  0  0  0  0  0  0  0
  154.0530  135.9644  164.0423 C   0  0  0  0  0  0  0  0  0  0  0  0
  154.6749  137.2406  161.8860 C   0  0  2  0  0  0  0  0  0  0  0  0
  154.1014  138.2121  160.9522 N   0  0  0  0  0  0  0  0  0  0  0  0
  154.7056  139.3246  160.5053 C   0  0  0  0  0  0  0  0  0  0  0  0
  155.8323  139.6709  160.8644 O   0  0  0  0  0  0  0  0  0  0  0  0
  153.8999  140.1566  159.4999 C   0  0  0  0  0  0  0  0  0  0  0  0
  153.4977  141.4952  160.0641 C   0  0  0  0  0  0  0  0  0  0  0  0
  153.3893  141.8776  161.4320 C   0  0  0  0  0  0  0  0  0  0  0  0
  153.0015  143.1854  161.3792 C   0  0  0  0  0  0  0  0  0  0  0  0
  152.8872  143.5285  160.0486 N   0  0  0  0  0  0  0  0  0  0  0  0
  152.5095  144.8134  159.4791 C   0  0  0  0  0  0  0  0  0  0  0  0
  151.1075  145.2383  159.9451 C   0  0  0  0  0  0  0  0  0  0  0  0
  152.6229  144.7946  157.9462 C   0  0  0  0  0  0  0  0  0  0  0  0
  153.1862  142.4864  159.2417 N   0  0  0  0  0  0  0  0  0  0  0  0
  154.6079  135.8517  161.2220 C   0  0  0  0  0  0  0  0  0  0  0  0
  153.9561  135.7622  160.1588 O   0  0  0  0  0  0  0  0  0  0  0  0
  155.2108  134.9084  161.7826 O   0  5  0  0  0  0  0  0  0  0  0  0
  155.6960  139.2408  165.4883 H   0  0  0  0  0  0  0  0  0  0  0  0
  156.4034  138.3616  164.1455 H   0  0  0  0  0  0  0  0  0  0  0  0
  155.5896  137.4852  165.4431 H   0  0  0  0  0  0  0  0  0  0  0  0
  153.4500  138.6608  164.8404 H   0  0  0  0  0  0  0  0  0  0  0  0
  154.2141  139.3931  163.4632 H   0  0  0  0  0  0  0  0  0  0  0  0
  152.8012  137.3309  162.9621 H   0  0  0  0  0  0  0  0  0  0  0  0
  155.0983  135.8291  164.3211 H   0  0  0  0  0  0  0  0  0  0  0  0
  153.7387  135.0745  163.4974 H   0  0  0  0  0  0  0  0  0  0  0  0
  153.4649  135.9765  164.9589 H   0  0  0  0  0  0  0  0  0  0  0  0
  155.7164  137.4916  162.0979 H   0  0  0  0  0  0  0  0  0  0  0  0
  153.1840  137.9962  160.5911 H   0  0  0  0  0  0  0  0  0  0  0  0
  154.4979  140.2811  158.5957 H   0  0  0  0  0  0  0  0  0  0  0  0
  153.0100  139.5977  159.2079 H   0  0  0  0  0  0  0  0  0  0  0  0
  153.5765  141.2840  162.3143 H   0  0  0  0  0  0  0  0  0  0  0  0
  152.8013  143.8927  162.1705 H   0  0  0  0  0  0  0  0  0  0  0  0
  153.2206  145.5508  159.8541 H   0  0  0  0  0  0  0  0  0  0  0  0
  150.8600  146.2354  159.5803 H   0  0  0  0  0  0  0  0  0  0  0  0
  151.0464  145.2613  161.0335 H   0  0  0  0  0  0  0  0  0  0  0  0
  150.3395  144.5539  159.5826 H   0  0  0  0  0  0  0  0  0  0  0  0
  152.4131  145.7785  157.5263 H   0  0  0  0  0  0  0  0  0  0  0  0
  151.9209  144.0887  157.5009 H   0  0  0  0  0  0  0  0  0  0  0  0
  153.6266  144.5087  157.6307 H   0  0  0  0  0  0  0  0  0  0  0  0
  1  2  1  0  0  0  0
  1 21  1  0  0  0  0
  1 22  1  0  0  0  0
  1 23  1  0  0  0  0
  2  3  1  0  0  0  0
  2 24  1  0  0  0  0
  2 25  1  0  0  0  0
  3  4  1  0  0  0  0
  3  5  1  0  0  0  0
  3 26  1  0  0  0  0
  4 27  1  0  0  0  0
  4 28  1  0  0  0  0
  4 29  1  0  0  0  0
  5  6  1  0  0  0  0
  5 18  1  0  0  0  0
  5 30  1  0  0  0  0
  6  7  1  0  0  0  0
  6 31  1  0  0  0  0
  7  8  2  0  0  0  0
  7  9  1  0  0  0  0
  9 10  1  0  0  0  0
  9 32  1  0  0  0  0
  9 33  1  0  0  0  0
 10 17  2  0  0  0  0
 10 11  1  0  0  0  0
 11 12  2  0  0  0  0
 11 34  1  0  0  0  0
 12 13  1  0  0  0  0
 12 35  1  0  0  0  0
 13 14  1  0  0  0  0
 13 17  1  0  0  0  0
 14 15  1  0  0  0  0
 14 16  1  0  0  0  0
 14 36  1  0  0  0  0
 15 37  1  0  0  0  0
 15 38  1  0  0  0  0
 15 39  1  0  0  0  0
 16 40  1  0  0  0  0
 16 41  1  0  0  0  0
 16 42  1  0  0  0  0
 18 19  2  0  0  0  0
 18 20  1  0  0  0  0
M  CHG  1  20  -1
M  END
> <s_m_source_file>
AV-unprocessed.smi

> <i_m_source_file_index>
2892

> <i_lp_mmshare_version>
43012

> <i_f3d_flags>
0

> <s_epik_input>
W0NIM11bQ0gyXVtDQEhdKFtDSDNdKVtDQEBIXShDKD1PKVtPSF0pW05IXUMoPU8pW0NIMl1jMVtjSF1bY0hdbihuMSlbQ0hdKFtDSDNdKVtDSDNd

> <s_epik_cmdline>
J2VwaWtfcHl0aG9uJywgJy1waCcsICc3LjAnLCAnLXRuJywgJzgnLCAnLW1hJywgJzIwMCcsICctbWV0YWxfYmluZGluZycsICctaW1hZScsICc8aW5maWxlLm1hZT4nLCAnLW9tYWUnLCAnPG91dGZpbGUubWFlPic=

> <r_lp_tautomer_probability>
1

> <r_epik_Ionization_Penalty>
0.000286846

> <r_epik_Ionization_Penalty_Charging>
0.000224481

> <r_epik_Ionization_Penalty_Neutral>
6.23655e-05

> <r_epik_State_Penalty>
-0

> <r_epik_Charging_Adjusted_Penalty>
0.000224481

> <i_epik_Tot_Q>
-1

> <i_epik_Tot_abs_Q>
1

> <r_epik_Metal_State_Penalty>
-0

> <b_epik_Metal_Only>
0

> <s_lp_Force_Field>
OPLS_2005

> <r_lp_Energy>
15.4928

> <b_lp_Chiralities_Consistent>
1

> <s_lp_Variant>
AV-unprocessed.smi:2892-1

> <Gold.Version>
5.8.1

> <Gold.Id.Protein>
6NUR|6NUR_protein|mol2

> <Gold.PLP.Fitness>
47.5807

> <Gold.PLP.PLP>
-43.4200

> <Gold.PLP.part.hbond>
-1.0000

> <Gold.PLP.part.metal>
0.0000

> <Gold.PLP.part.buried>
-6.6913

> <Gold.PLP.part.nonpolar>
-35.5039

> <Gold.PLP.part.repulsive>
0.0143

> <Gold.PLP.ligand.clash>
0.0009

> <Gold.PLP.ligand.torsion>
0.9806

> <Gold.PLP.Chemscore.Hbond>
2.0000

> <Gold.PLP.Chemscore.CHOScore>
0.0000

> <Gold.PLP.Chemscore.Metal>
0.0000

> <Gold.Chemscore.Hbonds>
donor molecule, donor type, donor heavy atom, donor atom, acceptor molecule, acceptor atom, score
      P1  H  6896  6907       L1    19  2.00

> <Gold.PLP.Chemscore.Internal.Correction>
0.1229

> <Gold.Rescore>
     Score         DG    S(hbond)    S(metal)    S(lipo)     H(rot)  DE(clash)    DE(int)     intcor
     13.16     -15.63       0.99        0.00     110.71       2.39       0.11       2.36       ----

> <Gold.Chemscore.Fitness>
13.1569

> <Gold.Chemscore.DG>
-15.6270

> <Gold.Chemscore.ZeroCoef>
-5.4800

> <Gold.Chemscore.Hbond>
0.9891

> <Gold.Chemscore.Metal>
0.0000

> <Gold.Chemscore.Lipo>
110.7056

> <Gold.Chemscore.Internal_Hbond>
0.0000

> <Gold.Chemscore.DEClash>
0.1051

> <Gold.Chemscore.DEInternal>
2.3650

> <Gold.Chemscore.Rot>
2.3865

> <Gold.Chemscore.Internal.Correction>
   9.000000E+99

> <Gold.Chemscore.Hbonds>
donor molecule, donor type, donor heavy atom, donor atom, acceptor molecule, acceptor atom, score
      P1  H  6896  6907       L1    19  0.99

> <Gold.Chemscore.Hbond.Weighted>
-3.3037

> <Gold.Chemscore.Metal.Weighted>
-0.0000

> <Gold.Chemscore.Lipo.Weighted>
-12.9526

> <Gold.Chemscore.Internal_Hbond.Weighted>
0.0000

> <Gold.Chemscore.DEClash.Weighted>
0.1051

> <Gold.Chemscore.DEInternal.Weighted>
2.3650

> <Gold.Chemscore.Rot.Weighted>
6.1093

> <Gold.Chemscore.Internal.Correction.Weighted>
   9.000000E+99

> <Gold.Protein.RotatedTorsions>
[ 6907 6896 6895 6894 ] final   67.95 input  -60.11 | X-H torsion
[ 7974 7965 7964 7962 ] final -111.20 input  175.53 | X-H torsion
[ 8008 7997 7996 7995 ] final   71.14 input   59.86 | X-H torsion
[ 10167 10162 10161 10158 ] final   57.68 input  -65.29 | X-H torsion
[ 10718 10713 10712 10709 ] final   59.03 input   66.30 | X-H torsion
[ 10763 10752 10751 10750 ] final -170.57 input  -60.55 | X-H torsion
[ 11005 11000 10999 10996 ] final    4.90 input  -57.11 | X-H torsion

> <Gold.Protein.ActiveResidues>
 VAL166  LYS551  ARG553  GLY616  TRP617  ASP618  TYR619  PRO620  LYS621  CYS622 
 ASP623  PHE694  ASN695  SER759  ASP760  ASP761  ALA762  ILE779  LEU786  VAL792 
 PHE793  MET794  SER795  GLU796  ALA797  LYS798  CYS799  TRP800  GLU811  SER814 

> <Gold.Protein.RotatedAtoms>
  152.4587  134.5233  159.9788 H   0  0  0  0  0  0  0  0  0  0  0  0  # atno 6907 bound_to 6896
  151.5288  133.3447  159.2922 H   0  0  0  0  0  0  0  0  0  0  0  0  # atno 6908 bound_to 6896
  150.8541  134.7905  159.7094 H   0  0  0  0  0  0  0  0  0  0  0  0  # atno 6909 bound_to 6896
  145.1590  140.8868  143.3602 H   0  0  0  0  0  0  0  0  0  0  0  0  # atno 7974 bound_to 7965
  155.7494  140.3489  155.5143 H   0  0  0  0  0  0  0  0  0  0  0  0  # atno 8008 bound_to 7997
  155.9019  140.1035  157.1365 H   0  0  0  0  0  0  0  0  0  0  0  0  # atno 8009 bound_to 7997
  154.4045  140.1284  156.4434 H   0  0  0  0  0  0  0  0  0  0  0  0  # atno 8010 bound_to 7997
  140.1954  144.4043  150.6552 H   0  0  0  0  0  0  0  0  0  0  0  0  # atno 10167 bound_to 10162
  157.5643  130.8859  149.9162 H   0  0  0  0  0  0  0  0  0  0  0  0  # atno 10718 bound_to 10713
  154.6401  135.2897  155.0114 H   0  0  0  0  0  0  0  0  0  0  0  0  # atno 10763 bound_to 10752
  154.1244  135.6543  153.4913 H   0  0  0  0  0  0  0  0  0  0  0  0  # atno 10764 bound_to 10752
  153.0322  135.5295  154.7264 H   0  0  0  0  0  0  0  0  0  0  0  0  # atno 10765 bound_to 10752
  140.5767  134.0051  155.8031 H   0  0  0  0  0  0  0  0  0  0  0  0  # atno 11005 bound_to 11000
  145.0351  139.3307  143.6005 LP  0  0  0  0  0  0  0  0  0  0  0  0  # atno 17320 bound_to 7965
  146.3485  139.9703  142.8707 LP  0  0  0  0  0  0  0  0  0  0  0  0  # atno 17321 bound_to 7965
  140.6427  143.2207  151.6254 LP  0  0  0  0  0  0  0  0  0  0  0  0  # atno 17342 bound_to 10162
  139.5239  144.3120  152.0984 LP  0  0  0  0  0  0  0  0  0  0  0  0  # atno 17343 bound_to 10162
  156.0693  130.3687  150.0810 LP  0  0  0  0  0  0  0  0  0  0  0  0  # atno 17370 bound_to 10713
  156.8971  130.9608  151.3581 LP  0  0  0  0  0  0  0  0  0  0  0  0  # atno 17371 bound_to 10713
  141.1022  133.9750  157.3059 LP  0  0  0  0  0  0  0  0  0  0  0  0  # atno 17394 bound_to 11000
  139.9336  135.0198  156.8483 LP  0  0  0  0  0  0  0  0  0  0  0  0  # atno 17395 bound_to 11000

$$$$
