AV-unprocessed.smi:1900|AV-procd|sdf|7710|dock6
  -GOLD-   22720 9453D 1   1.00000     0.00000
 Structure written by MMmdl.
 44 45  0  0  0  0  0  0  0  0  2 V2000
  151.5266  142.6425  158.7836 C   0  0  0  0  0  0  0  0  0  0  0  0
  150.2471  142.7893  157.9524 C   0  0  1  0  0  0  0  0  0  0  0  0
  150.1193  141.6887  156.8819 C   0  0  0  0  0  0  0  0  0  0  0  0
  148.8362  141.8171  156.1505 N   0  3  1  0  0  0  0  0  0  0  0  0
  148.6988  140.8066  155.0714 C   0  0  0  0  0  0  0  0  0  0  0  0
  147.4400  141.0233  154.2139 C   0  0  0  0  0  0  0  0  0  0  0  0
  147.2451  139.9065  153.1750 C   0  0  0  0  0  0  0  0  0  0  0  0
  145.8749  139.4062  153.1678 N   0  0  0  0  0  0  0  0  0  0  0  0
  145.5115  138.1550  153.4841 C   0  0  0  0  0  0  0  0  0  0  0  0
  146.3118  137.2751  153.8027 O   0  0  0  0  0  0  0  0  0  0  0  0
  144.1798  137.9981  153.4068 N   0  0  0  0  0  0  0  0  0  0  0  0
  143.4353  136.8200  153.6684 C   0  0  0  0  0  0  0  0  0  0  0  0
  142.0197  136.7664  153.7836 C   0  0  0  0  0  0  0  0  0  0  0  0
  141.6005  135.5332  154.0286 N   0  0  0  0  0  0  0  0  0  0  0  0
  142.7351  134.7989  154.0696 N   0  0  0  0  0  0  0  0  0  0  0  0
  143.8762  135.5401  153.8559 C   0  0  0  0  0  0  0  0  0  0  0  0
  147.6988  141.8259  157.1036 C   0  0  0  0  0  0  0  0  0  0  0  0
  147.8932  142.9217  158.1688 C   0  0  1  0  0  0  0  0  0  0  0  0
  146.7783  142.9092  159.2205 C   0  0  0  0  0  0  0  0  0  0  0  0
  149.1331  142.7096  158.8345 O   0  0  0  0  0  0  0  0  0  0  0  0
  142.7147  133.8040  154.2430 H   0  0  0  0  0  0  0  0  0  0  0  0
  152.4141  142.7120  158.1542 H   0  0  0  0  0  0  0  0  0  0  0  0
  151.5560  141.6820  159.2988 H   0  0  0  0  0  0  0  0  0  0  0  0
  151.5932  143.4266  159.5383 H   0  0  0  0  0  0  0  0  0  0  0  0
  150.2562  143.7699  157.4730 H   0  0  0  0  0  0  0  0  0  0  0  0
  150.9512  141.7625  156.1801 H   0  0  0  0  0  0  0  0  0  0  0  0
  150.1764  140.7021  157.3450 H   0  0  0  0  0  0  0  0  0  0  0  0
  149.5683  140.8726  154.4157 H   0  0  0  0  0  0  0  0  0  0  0  0
  148.7097  139.8025  155.4981 H   0  0  0  0  0  0  0  0  0  0  0  0
  146.5530  141.0725  154.8452 H   0  0  0  0  0  0  0  0  0  0  0  0
  147.5140  141.9864  153.7072 H   0  0  0  0  0  0  0  0  0  0  0  0
  147.5177  140.2572  152.1781 H   0  0  0  0  0  0  0  0  0  0  0  0
  147.9073  139.0705  153.4012 H   0  0  0  0  0  0  0  0  0  0  0  0
  145.1502  140.0633  152.9176 H   0  0  0  0  0  0  0  0  0  0  0  0
  143.6395  138.8083  153.1411 H   0  0  0  0  0  0  0  0  0  0  0  0
  141.2971  137.5647  153.7003 H   0  0  0  0  0  0  0  0  0  0  0  0
  144.8613  135.0978  153.8564 H   0  0  0  0  0  0  0  0  0  0  0  0
  146.7630  142.0036  156.5751 H   0  0  0  0  0  0  0  0  0  0  0  0
  147.6162  140.8478  157.5804 H   0  0  0  0  0  0  0  0  0  0  0  0
  147.9059  143.9023  157.6896 H   0  0  0  0  0  0  0  0  0  0  0  0
  145.8036  143.0764  158.7614 H   0  0  0  0  0  0  0  0  0  0  0  0
  146.9339  143.6923  159.9630 H   0  0  0  0  0  0  0  0  0  0  0  0
  146.7412  141.9547  159.7464 H   0  0  0  0  0  0  0  0  0  0  0  0
  148.8554  142.7216  155.7011 H   0  0  0  0  0  0  0  0  0  0  0  0
  1  2  1  0  0  0  0
  1 22  1  0  0  0  0
  1 23  1  0  0  0  0
  1 24  1  0  0  0  0
  2 20  1  0  0  0  0
  2  3  1  0  0  0  0
  2 25  1  0  0  0  0
  3  4  1  0  0  0  0
  3 26  1  0  0  0  0
  3 27  1  0  0  0  0
  4  5  1  0  0  0  0
  4 17  1  0  0  0  0
  4 44  1  0  0  0  0
  5  6  1  0  0  0  0
  5 28  1  0  0  0  0
  5 29  1  0  0  0  0
  6  7  1  0  0  0  0
  6 30  1  0  0  0  0
  6 31  1  0  0  0  0
  7  8  1  0  0  0  0
  7 32  1  0  0  0  0
  7 33  1  0  0  0  0
  8  9  1  0  0  0  0
  8 34  1  0  0  0  0
  9 10  2  0  0  0  0
  9 11  1  0  0  0  0
 11 12  1  0  0  0  0
 11 35  1  0  0  0  0
 12 16  2  0  0  0  0
 12 13  1  0  0  0  0
 13 14  2  0  0  0  0
 13 36  1  0  0  0  0
 14 15  1  0  0  0  0
 15 21  1  0  0  0  0
 15 16  1  0  0  0  0
 16 37  1  0  0  0  0
 17 18  1  0  0  0  0
 17 38  1  0  0  0  0
 17 39  1  0  0  0  0
 18 19  1  0  0  0  0
 18 20  1  0  0  0  0
 18 40  1  0  0  0  0
 19 41  1  0  0  0  0
 19 42  1  0  0  0  0
 19 43  1  0  0  0  0
M  CHG  1   4   1
M  END
> <s_m_source_file>
AV-unprocessed.smi

> <i_m_source_file_index>
1900

> <i_lp_mmshare_version>
43012

> <i_f3d_flags>
0

> <s_epik_input>
W0NIM11bQ0BASF0xW0NIMl1OKFtDSDJdW0NASF0oTzEpW0NIM10pW0NIMl1bQ0gyXVtDSDJdW05IXUMoPU8pW05IXWMyW2NIXW5bbkhdW2NIXTI=

> <s_epik_cmdline>
J2VwaWtfcHl0aG9uJywgJy1waCcsICc3LjAnLCAnLXRuJywgJzgnLCAnLW1hJywgJzIwMCcsICctbWV0YWxfYmluZGluZycsICctaW1hZScsICc8aW5maWxlLm1hZT4nLCAnLW9tYWUnLCAnPG91dGZpbGUubWFlPic=

> <r_lp_tautomer_probability>
0.5

> <r_epik_Ionization_Penalty>
0.270543

> <r_epik_Ionization_Penalty_Charging>
0.270496

> <r_epik_Ionization_Penalty_Neutral>
4.67091e-05

> <r_epik_State_Penalty>
0.262618

> <r_epik_Charging_Adjusted_Penalty>
0.533114

> <i_epik_Tot_Q>
1

> <i_epik_Tot_abs_Q>
1

> <r_epik_Metal_State_Penalty>
0.262618

> <b_epik_Metal_Only>
0

> <s_lp_Force_Field>
OPLS_2005

> <r_lp_Energy>
18.2287

> <b_lp_Chiralities_Consistent>
1

> <s_lp_Variant>
AV-unprocessed.smi:1900-2

> <Gold.Version>
5.8.1

> <Gold.Id.Protein>
6NUR|6NUR_protein|mol2

> <Gold.PLP.Fitness>
38.7808

> <Gold.PLP.PLP>
-24.5296

> <Gold.PLP.part.hbond>
-5.3595

> <Gold.PLP.part.metal>
0.0000

> <Gold.PLP.part.buried>
-3.2917

> <Gold.PLP.part.nonpolar>
-15.9715

> <Gold.PLP.part.repulsive>
0.4114

> <Gold.PLP.ligand.clash>
0.0000

> <Gold.PLP.ligand.torsion>
0.3833

> <Gold.PLP.Chemscore.Hbond>
4.9920

> <Gold.PLP.Chemscore.CHOScore>
0.0000

> <Gold.PLP.Chemscore.Metal>
0.0000

> <Gold.Chemscore.Hbonds>
donor molecule, donor type, donor heavy atom, donor atom, acceptor molecule, acceptor atom, score
      L1  H     4    44       P1  8028  2.00
      L1  H     8    34       P1 10175  1.00
      L1  H    11    35       P1 10175  0.96
      L1  H    15    21       P1 10957  0.81

> <Gold.PLP.Chemscore.Internal.Correction>
0.0419

> <Gold.Rescore>
     Score         DG    S(hbond)    S(metal)    S(lipo)     H(rot)  DE(clash)    DE(int)     intcor
     18.86     -20.33       4.24        0.00      48.23       1.93       0.00       1.47       ----

> <Gold.Chemscore.Fitness>
18.8573

> <Gold.Chemscore.DG>
-20.3307

> <Gold.Chemscore.ZeroCoef>
-5.4800

> <Gold.Chemscore.Hbond>
4.2396

> <Gold.Chemscore.Metal>
0.0000

> <Gold.Chemscore.Lipo>
48.2321

> <Gold.Chemscore.Internal_Hbond>
0.0000

> <Gold.Chemscore.DEClash>
0.0000

> <Gold.Chemscore.DEInternal>
1.4734

> <Gold.Chemscore.Rot>
1.9347

> <Gold.Chemscore.Internal.Correction>
   9.000000E+99

> <Gold.Chemscore.Hbonds>
donor molecule, donor type, donor heavy atom, donor atom, acceptor molecule, acceptor atom, score
      L1  H     4    44       P1  8028  0.95
      L1  H     8    34       P1 10175  0.96
      L1  H    11    35       P1 10175  0.92
      L1  H    15    21       P1 10957  0.80

> <Gold.Chemscore.Hbond.Weighted>
-14.1604

> <Gold.Chemscore.Metal.Weighted>
-0.0000

> <Gold.Chemscore.Lipo.Weighted>
-5.6432

> <Gold.Chemscore.Internal_Hbond.Weighted>
0.0000

> <Gold.Chemscore.DEClash.Weighted>
0.0000

> <Gold.Chemscore.DEInternal.Weighted>
1.4734

> <Gold.Chemscore.Rot.Weighted>
4.9528

> <Gold.Chemscore.Internal.Correction.Weighted>
   9.000000E+99

> <Gold.Protein.RotatedTorsions>
[ 6907 6896 6895 6894 ] final  143.62 input  -60.11 | X-H torsion
[ 7974 7965 7964 7962 ] final  -95.72 input  175.53 | X-H torsion
[ 8008 7997 7996 7995 ] final   63.96 input   59.86 | X-H torsion
[ 10167 10162 10161 10158 ] final -153.97 input  -65.29 | X-H torsion
[ 10718 10713 10712 10709 ] final   43.77 input   66.30 | X-H torsion
[ 10763 10752 10751 10750 ] final  -68.68 input  -60.55 | X-H torsion
[ 11005 11000 10999 10996 ] final -175.84 input  -57.11 | X-H torsion

> <Gold.Protein.ActiveResidues>
 VAL166  LYS551  ARG553  GLY616  TRP617  ASP618  TYR619  PRO620  LYS621  CYS622 
 ASP623  PHE694  ASN695  SER759  ASP760  ASP761  ALA762  ILE779  LEU786  VAL792 
 PHE793  MET794  SER795  GLU796  ALA797  LYS798  CYS799  TRP800  GLU811  SER814 

> <Gold.Protein.RotatedAtoms>
  152.2040  133.4861  159.5073 H   0  0  0  0  0  0  0  0  0  0  0  0  # atno 6907 bound_to 6896
  150.6975  134.1554  159.4165 H   0  0  0  0  0  0  0  0  0  0  0  0  # atno 6908 bound_to 6896
  151.9472  135.0186  160.0590 H   0  0  0  0  0  0  0  0  0  0  0  0  # atno 6909 bound_to 6896
  145.3564  140.9485  143.2525 H   0  0  0  0  0  0  0  0  0  0  0  0  # atno 7974 bound_to 7965
  155.6384  140.3496  155.4706 H   0  0  0  0  0  0  0  0  0  0  0  0  # atno 8008 bound_to 7997
  155.9946  140.1200  157.0629 H   0  0  0  0  0  0  0  0  0  0  0  0  # atno 8009 bound_to 7997
  154.4229  140.1112  156.5599 H   0  0  0  0  0  0  0  0  0  0  0  0  # atno 8010 bound_to 7997
  139.7052  143.9198  152.2445 H   0  0  0  0  0  0  0  0  0  0  0  0  # atno 10167 bound_to 10162
  157.4195  130.7961  149.7502 H   0  0  0  0  0  0  0  0  0  0  0  0  # atno 10718 bound_to 10713
  154.3925  135.6049  153.5851 H   0  0  0  0  0  0  0  0  0  0  0  0  # atno 10763 bound_to 10752
  152.9787  135.5887  154.4280 H   0  0  0  0  0  0  0  0  0  0  0  0  # atno 10764 bound_to 10752
  154.4066  135.2843  155.2041 H   0  0  0  0  0  0  0  0  0  0  0  0  # atno 10765 bound_to 10752
  140.4588  134.6274  157.4833 H   0  0  0  0  0  0  0  0  0  0  0  0  # atno 11005 bound_to 11000
  144.8679  139.5081  143.6781 LP  0  0  0  0  0  0  0  0  0  0  0  0  # atno 17320 bound_to 7965
  146.2946  139.7240  142.9136 LP  0  0  0  0  0  0  0  0  0  0  0  0  # atno 17321 bound_to 7965
  139.9052  144.6889  150.8622 LP  0  0  0  0  0  0  0  0  0  0  0  0  # atno 17342 bound_to 10162
  140.7720  143.3484  151.2064 LP  0  0  0  0  0  0  0  0  0  0  0  0  # atno 17343 bound_to 10162
  155.9876  130.3965  150.3157 LP  0  0  0  0  0  0  0  0  0  0  0  0  # atno 17370 bound_to 10713
  157.1304  131.0270  151.2971 LP  0  0  0  0  0  0  0  0  0  0  0  0  # atno 17371 bound_to 10713
  139.9959  134.6912  155.9611 LP  0  0  0  0  0  0  0  0  0  0  0  0  # atno 17394 bound_to 11000
  141.1631  133.6538  156.4385 LP  0  0  0  0  0  0  0  0  0  0  0  0  # atno 17395 bound_to 11000

$$$$
