AV-unprocessed.smi:1632|AV-procd|sdf|6528|dock3
  -GOLD-   22720 7203D 1   1.00000     0.00000
 Structure written by MMmdl.
 42 44  0  0  0  0  0  0  0  0  1 V2000
  151.7587  136.8295  153.8405 O   0  0  0  0  0  0  0  0  0  0  0  0
  151.0128  138.0000  154.0974 C   0  0  0  0  0  0  0  0  0  0  0  0
  151.8537  139.0154  154.8841 C   0  0  0  0  0  0  0  0  0  0  0  0
  151.8050  138.7983  156.4060 C   0  0  0  0  0  0  0  0  0  0  0  0
  151.9706  140.0761  157.1805 C   0  0  0  0  0  0  0  0  0  0  0  0
  152.8808  140.1662  158.1517 N   0  0  0  0  0  0  0  0  0  0  0  0
  152.7217  141.4584  158.6079 C   0  0  0  0  0  0  0  0  0  0  0  0
  153.4041  142.1640  159.6246 C   0  0  0  0  0  0  0  0  0  0  0  0
  153.0591  143.4987  159.9217 C   0  0  0  0  0  0  0  0  0  0  0  0
  152.0281  144.1442  159.2087 C   0  0  0  0  0  0  0  0  0  0  0  0
  151.3353  143.4577  158.1933 C   0  0  0  0  0  0  0  0  0  0  0  0
  151.6852  142.1258  157.8990 C   0  0  0  0  0  0  0  0  0  0  0  0
  151.2108  141.1891  156.9845 N   0  0  0  0  0  0  0  0  0  0  0  0
  150.1116  141.4201  156.0532 C   0  0  0  0  0  0  0  0  0  0  0  0
  148.7506  140.9549  156.6080 C   0  0  2  0  0  0  0  0  0  0  0  0
  148.6374  139.5658  156.3733 O   0  0  0  0  0  0  0  0  0  0  0  0
  147.5740  141.7295  156.0267 C   0  0  0  0  0  0  0  0  0  0  0  0
  146.7066  142.4485  156.8792 C   0  0  0  0  0  0  0  0  0  0  0  0
  145.6263  143.1779  156.3464 C   0  0  0  0  0  0  0  0  0  0  0  0
  145.4041  143.1921  154.9566 C   0  0  0  0  0  0  0  0  0  0  0  0
  146.2602  142.4725  154.1012 C   0  0  0  0  0  0  0  0  0  0  0  0
  147.3402  141.7402  154.6323 C   0  0  0  0  0  0  0  0  0  0  0  0
  148.1480  141.0473  153.7939 F   0  0  0  0  0  0  0  0  0  0  0  0
  151.7540  136.6674  152.9095 H   0  0  0  0  0  0  0  0  0  0  0  0
  150.7055  138.4292  153.1436 H   0  0  0  0  0  0  0  0  0  0  0  0
  150.1038  137.7420  154.6411 H   0  0  0  0  0  0  0  0  0  0  0  0
  152.8859  138.9942  154.5318 H   0  0  0  0  0  0  0  0  0  0  0  0
  151.4824  140.0142  154.6613 H   0  0  0  0  0  0  0  0  0  0  0  0
  150.8696  138.3058  156.6562 H   0  0  0  0  0  0  0  0  0  0  0  0
  152.5966  138.1125  156.7093 H   0  0  0  0  0  0  0  0  0  0  0  0
  154.1943  141.6772  160.1769 H   0  0  0  0  0  0  0  0  0  0  0  0
  153.5869  144.0288  160.7008 H   0  0  0  0  0  0  0  0  0  0  0  0
  151.7689  145.1663  159.4426 H   0  0  0  0  0  0  0  0  0  0  0  0
  150.5449  143.9498  157.6465 H   0  0  0  0  0  0  0  0  0  0  0  0
  150.0784  142.4600  155.7360 H   0  0  0  0  0  0  0  0  0  0  0  0
  150.3395  140.8564  155.1473 H   0  0  0  0  0  0  0  0  0  0  0  0
  148.7533  141.0718  157.6920 H   0  0  0  0  0  0  0  0  0  0  0  0
  149.4304  139.2676  155.9545 H   0  0  0  0  0  0  0  0  0  0  0  0
  146.8681  142.4434  157.9473 H   0  0  0  0  0  0  0  0  0  0  0  0
  144.9679  143.7256  157.0044 H   0  0  0  0  0  0  0  0  0  0  0  0
  144.5753  143.7507  154.5471 H   0  0  0  0  0  0  0  0  0  0  0  0
  146.0862  142.4788  153.0355 H   0  0  0  0  0  0  0  0  0  0  0  0
  1  2  1  0  0  0  0
  1 24  1  0  0  0  0
  2  3  1  0  0  0  0
  2 25  1  0  0  0  0
  2 26  1  0  0  0  0
  3  4  1  0  0  0  0
  3 27  1  0  0  0  0
  3 28  1  0  0  0  0
  4  5  1  0  0  0  0
  4 29  1  0  0  0  0
  4 30  1  0  0  0  0
  5 13  1  0  0  0  0
  5  6  2  0  0  0  0
  6  7  1  0  0  0  0
  7 12  2  0  0  0  0
  7  8  1  0  0  0  0
  8  9  2  0  0  0  0
  8 31  1  0  0  0  0
  9 10  1  0  0  0  0
  9 32  1  0  0  0  0
 10 11  2  0  0  0  0
 10 33  1  0  0  0  0
 11 12  1  0  0  0  0
 11 34  1  0  0  0  0
 12 13  1  0  0  0  0
 13 14  1  0  0  0  0
 14 15  1  0  0  0  0
 14 35  1  0  0  0  0
 14 36  1  0  0  0  0
 15 16  1  0  0  0  0
 15 17  1  0  0  0  0
 15 37  1  0  0  0  0
 16 38  1  0  0  0  0
 17 22  1  0  0  0  0
 17 18  2  0  0  0  0
 18 19  1  0  0  0  0
 18 39  1  0  0  0  0
 19 20  2  0  0  0  0
 19 40  1  0  0  0  0
 20 21  1  0  0  0  0
 20 41  1  0  0  0  0
 21 22  2  0  0  0  0
 21 42  1  0  0  0  0
 22 23  1  0  0  0  0
M  END
> <s_m_source_file>
AV-unprocessed.smi

> <i_m_source_file_index>
1632

> <i_lp_mmshare_version>
43012

> <i_f3d_flags>
0

> <s_epik_input>
W09IXVtDSDJdW0NIMl1bQ0gyXWMobjEpbihjKGMxMilbY0hdW2NIXVtjSF1bY0hdMilbQ0gyXVtDQEhdKFtPSF0pYzNbY0hdW2NIXVtjSF1bY0hdYzNG

> <s_epik_cmdline>
J2VwaWtfcHl0aG9uJywgJy1waCcsICc3LjAnLCAnLXRuJywgJzgnLCAnLW1hJywgJzIwMCcsICctbWV0YWxfYmluZGluZycsICctaW1hZScsICc8aW5maWxlLm1hZT4nLCAnLW9tYWUnLCAnPG91dGZpbGUubWFlPic=

> <r_epik_Ionization_Penalty>
0.182561

> <r_epik_Ionization_Penalty_Charging>
0

> <r_epik_Ionization_Penalty_Neutral>
0.182561

> <r_epik_State_Penalty>
0.172086

> <r_epik_Charging_Adjusted_Penalty>
0.172086

> <i_epik_Tot_Q>
0

> <i_epik_Tot_abs_Q>
0

> <r_epik_Metal_State_Penalty>
0.000199649

> <b_epik_Metal_Only>
0

> <s_lp_Force_Field>
OPLS_2005

> <r_lp_Energy>
12.9461

> <b_lp_Chiralities_Consistent>
1

> <s_lp_Variant>
AV-unprocessed.smi:1632-1

> <Gold.Version>
5.8.1

> <Gold.Id.Protein>
6NUR|6NUR_protein|mol2

> <Gold.PLP.Fitness>
56.4251

> <Gold.PLP.PLP>
-49.6778

> <Gold.PLP.part.hbond>
-3.0000

> <Gold.PLP.part.metal>
0.0000

> <Gold.PLP.part.buried>
-5.4256

> <Gold.PLP.part.nonpolar>
-41.1038

> <Gold.PLP.part.repulsive>
0.0000

> <Gold.PLP.ligand.clash>
0.0000

> <Gold.PLP.ligand.torsion>
1.0421

> <Gold.PLP.Chemscore.Hbond>
2.9277

> <Gold.PLP.Chemscore.CHOScore>
0.0000

> <Gold.PLP.Chemscore.Metal>
0.0000

> <Gold.Chemscore.Hbonds>
donor molecule, donor type, donor heavy atom, donor atom, acceptor molecule, acceptor atom, score
      L1  H     1    24       P1  7949  1.00
      P1  H  7997  8009       L1     6  0.89
      P1  H 10752 10764       L1     1  0.99

> <Gold.PLP.Chemscore.Internal.Correction>
0.0483

> <Gold.Rescore>
     Score         DG    S(hbond)    S(metal)    S(lipo)     H(rot)  DE(clash)    DE(int)     intcor
     15.66     -17.88       1.86        0.00     120.22       3.07       0.11       2.11       ----

> <Gold.Chemscore.Fitness>
15.6562

> <Gold.Chemscore.DG>
-17.8752

> <Gold.Chemscore.ZeroCoef>
-5.4800

> <Gold.Chemscore.Hbond>
1.8562

> <Gold.Chemscore.Metal>
0.0000

> <Gold.Chemscore.Lipo>
120.2165

> <Gold.Chemscore.Internal_Hbond>
0.0000

> <Gold.Chemscore.DEClash>
0.1056

> <Gold.Chemscore.DEInternal>
2.1134

> <Gold.Chemscore.Rot>
3.0741

> <Gold.Chemscore.Internal.Correction>
   9.000000E+99

> <Gold.Chemscore.Hbonds>
donor molecule, donor type, donor heavy atom, donor atom, acceptor molecule, acceptor atom, score
      L1  H     1    24       P1  7949  0.98
      P1  H  7997  8009       L1     6  0.13
      P1  H 10752 10764       L1     1  0.32

> <Gold.Chemscore.Hbond.Weighted>
-6.1997

> <Gold.Chemscore.Metal.Weighted>
-0.0000

> <Gold.Chemscore.Lipo.Weighted>
-14.0653

> <Gold.Chemscore.Internal_Hbond.Weighted>
0.0000

> <Gold.Chemscore.DEClash.Weighted>
0.1056

> <Gold.Chemscore.DEInternal.Weighted>
2.1134

> <Gold.Chemscore.Rot.Weighted>
7.8698

> <Gold.Chemscore.Internal.Correction.Weighted>
   9.000000E+99

> <Gold.Protein.RotatedTorsions>
[ 6907 6896 6895 6894 ] final  168.24 input  -60.11 | X-H torsion
[ 7974 7965 7964 7962 ] final   50.35 input  175.53 | X-H torsion
[ 8008 7997 7996 7995 ] final  154.69 input   59.86 | X-H torsion
[ 10167 10162 10161 10158 ] final   97.08 input  -65.29 | X-H torsion
[ 10718 10713 10712 10709 ] final  -31.62 input   66.30 | X-H torsion
[ 10763 10752 10751 10750 ] final  -68.91 input  -60.55 | X-H torsion
[ 11005 11000 10999 10996 ] final -152.57 input  -57.11 | X-H torsion

> <Gold.Protein.ActiveResidues>
 VAL166  LYS551  ARG553  GLY616  TRP617  ASP618  TYR619  PRO620  LYS621  CYS622 
 ASP623  PHE694  ASN695  SER759  ASP760  ASP761  ALA762  ILE779  LEU786  VAL792 
 PHE793  MET794  SER795  GLU796  ALA797  LYS798  CYS799  TRP800  GLU811  SER814 

> <Gold.Protein.RotatedAtoms>
  151.8508  133.3439  159.3672 H   0  0  0  0  0  0  0  0  0  0  0  0  # atno 6907 bound_to 6896
  150.7207  134.5301  159.5705 H   0  0  0  0  0  0  0  0  0  0  0  0  # atno 6908 bound_to 6896
  152.2794  134.7846  160.0450 H   0  0  0  0  0  0  0  0  0  0  0  0  # atno 6909 bound_to 6896
  146.0020  139.4450  143.0009 H   0  0  0  0  0  0  0  0  0  0  0  0  # atno 7974 bound_to 7965
  156.2518  140.1960  156.6685 H   0  0  0  0  0  0  0  0  0  0  0  0  # atno 8008 bound_to 7997
  154.6411  140.0583  156.9872 H   0  0  0  0  0  0  0  0  0  0  0  0  # atno 8009 bound_to 7997
  155.1562  140.3256  155.4423 H   0  0  0  0  0  0  0  0  0  0  0  0  # atno 8010 bound_to 7997
  139.7834  144.6879  150.9991 H   0  0  0  0  0  0  0  0  0  0  0  0  # atno 10167 bound_to 10162
  156.3850  130.4362  149.7439 H   0  0  0  0  0  0  0  0  0  0  0  0  # atno 10718 bound_to 10713
  154.3958  135.6042  153.5869 H   0  0  0  0  0  0  0  0  0  0  0  0  # atno 10763 bound_to 10752
  152.9787  135.5894  154.4243 H   0  0  0  0  0  0  0  0  0  0  0  0  # atno 10764 bound_to 10752
  154.4034  135.2843  155.2060 H   0  0  0  0  0  0  0  0  0  0  0  0  # atno 10765 bound_to 10752
  140.7175  134.3764  157.5188 H   0  0  0  0  0  0  0  0  0  0  0  0  # atno 11005 bound_to 11000
  145.7473  140.9986  143.1269 LP  0  0  0  0  0  0  0  0  0  0  0  0  # atno 17320 bound_to 7965
  144.6923  139.9171  143.7466 LP  0  0  0  0  0  0  0  0  0  0  0  0  # atno 17321 bound_to 7965
  140.7819  143.4458  151.0485 LP  0  0  0  0  0  0  0  0  0  0  0  0  # atno 17342 bound_to 10162
  139.8138  143.7915  152.3173 LP  0  0  0  0  0  0  0  0  0  0  0  0  # atno 17343 bound_to 10162
  156.4515  130.7909  151.2930 LP  0  0  0  0  0  0  0  0  0  0  0  0  # atno 17370 bound_to 10713
  157.7495  131.0094  150.3265 LP  0  0  0  0  0  0  0  0  0  0  0  0  # atno 17371 bound_to 10713
  139.8856  134.8932  156.2632 LP  0  0  0  0  0  0  0  0  0  0  0  0  # atno 17394 bound_to 11000
  141.0032  133.7139  156.0993 LP  0  0  0  0  0  0  0  0  0  0  0  0  # atno 17395 bound_to 11000

$$$$
