AV-unprocessed.smi:1406|AV-procd|sdf|5724|dock7
  -GOLD-   22720 5353D 1   1.00000     0.00000
 Structure written by MMmdl.
 41 43  0  0  0  0  0  0  0  0  2 V2000
  150.4170  131.9979  154.6364 C   0  0  0  0  0  0  0  0  0  0  0  0
  149.9123  133.2378  153.8708 C   0  0  1  0  0  0  0  0  0  0  0  0
  148.4319  133.1227  153.4769 C   0  0  0  0  0  0  0  0  0  0  0  0
  147.7662  132.1436  153.8158 O   0  0  0  0  0  0  0  0  0  0  0  0
  147.9287  134.1361  152.7545 N   0  0  0  0  0  0  0  0  0  0  0  0
  146.5536  134.2277  152.2735 C   0  0  1  0  0  0  0  0  0  0  0  0
  146.0833  135.6643  152.0803 C   0  0  0  0  0  0  0  0  0  0  0  0
  144.8872  135.4884  151.1436 C   0  0  0  0  0  0  0  0  0  0  0  0
  145.2226  134.3431  150.2669 N   0  3  2  0  0  0  0  0  0  0  0  0
  144.0637  133.5025  149.8786 C   0  0  0  0  0  0  0  0  0  0  0  0
  144.5111  132.3524  148.9578 C   0  0  0  0  0  0  0  0  0  0  0  0
  145.7082  131.5579  149.5210 C   0  0  0  0  0  0  0  0  0  0  0  0
  146.1671  132.0798  150.8916 C   0  0  0  0  0  0  0  0  0  0  0  0
  146.3708  133.6122  150.8751 C   0  0  2  0  0  0  0  0  0  0  0  0
  150.1428  134.4756  154.6055 N   0  0  0  0  0  0  0  0  0  0  0  0
  150.8966  135.5312  154.2906 C   0  0  0  0  0  0  0  0  0  0  0  0
  150.8385  136.5181  155.1734 N   0  0  0  0  0  0  0  0  0  0  0  0
  149.9618  135.9725  156.0676 C   0  0  0  0  0  0  0  0  0  0  0  0
  149.5051  134.7563  155.7695 N   0  0  0  0  0  0  0  0  0  0  0  0
  150.2744  131.0899  154.0495 H   0  0  0  0  0  0  0  0  0  0  0  0
  149.8984  131.8607  155.5862 H   0  0  0  0  0  0  0  0  0  0  0  0
  151.4824  132.0824  154.8517 H   0  0  0  0  0  0  0  0  0  0  0  0
  150.4933  133.3020  152.9492 H   0  0  0  0  0  0  0  0  0  0  0  0
  148.5452  134.9017  152.5232 H   0  0  0  0  0  0  0  0  0  0  0  0
  145.8726  133.7487  152.9805 H   0  0  0  0  0  0  0  0  0  0  0  0
  145.8183  136.1555  153.0171 H   0  0  0  0  0  0  0  0  0  0  0  0
  146.8568  136.2588  151.5909 H   0  0  0  0  0  0  0  0  0  0  0  0
  143.9994  135.2570  151.7347 H   0  0  0  0  0  0  0  0  0  0  0  0
  144.6749  136.3863  150.5629 H   0  0  0  0  0  0  0  0  0  0  0  0
  143.5824  133.1024  150.7726 H   0  0  0  0  0  0  0  0  0  0  0  0
  143.3204  134.1189  149.3719 H   0  0  0  0  0  0  0  0  0  0  0  0
  143.6703  131.6811  148.7801 H   0  0  0  0  0  0  0  0  0  0  0  0
  144.7812  132.7578  147.9818 H   0  0  0  0  0  0  0  0  0  0  0  0
  145.4550  130.4998  149.5956 H   0  0  0  0  0  0  0  0  0  0  0  0
  146.5404  131.6198  148.8186 H   0  0  0  0  0  0  0  0  0  0  0  0
  145.4262  131.8090  151.6453 H   0  0  0  0  0  0  0  0  0  0  0  0
  147.0901  131.5798  151.1857 H   0  0  0  0  0  0  0  0  0  0  0  0
  147.2390  133.8491  150.2576 H   0  0  0  0  0  0  0  0  0  0  0  0
  151.4974  135.5809  153.3944 H   0  0  0  0  0  0  0  0  0  0  0  0
  149.6441  136.4900  156.9607 H   0  0  0  0  0  0  0  0  0  0  0  0
  145.5825  134.7370  149.4092 H   0  0  0  0  0  0  0  0  0  0  0  0
  1  2  1  0  0  0  0
  1 20  1  0  0  0  0
  1 21  1  0  0  0  0
  1 22  1  0  0  0  0
  2  3  1  0  0  0  0
  2 15  1  0  0  0  0
  2 23  1  0  0  0  0
  3  4  2  0  0  0  0
  3  5  1  0  0  0  0
  5  6  1  0  0  0  0
  5 24  1  0  0  0  0
  6 14  1  0  0  0  0
  6  7  1  0  0  0  0
  6 25  1  0  0  0  0
  7  8  1  0  0  0  0
  7 26  1  0  0  0  0
  7 27  1  0  0  0  0
  8  9  1  0  0  0  0
  8 28  1  0  0  0  0
  8 29  1  0  0  0  0
  9 14  1  0  0  0  0
  9 10  1  0  0  0  0
  9 41  1  0  0  0  0
 10 11  1  0  0  0  0
 10 30  1  0  0  0  0
 10 31  1  0  0  0  0
 11 12  1  0  0  0  0
 11 32  1  0  0  0  0
 11 33  1  0  0  0  0
 12 13  1  0  0  0  0
 12 34  1  0  0  0  0
 12 35  1  0  0  0  0
 13 14  1  0  0  0  0
 13 36  1  0  0  0  0
 13 37  1  0  0  0  0
 14 38  1  0  0  0  0
 15 19  1  0  0  0  0
 15 16  1  0  0  0  0
 16 17  2  0  0  0  0
 16 39  1  0  0  0  0
 17 18  1  0  0  0  0
 18 19  2  0  0  0  0
 18 40  1  0  0  0  0
M  CHG  1   9   1
M  END
> <s_m_source_file>
AV-unprocessed.smi

> <i_m_source_file_index>
1406

> <i_lp_mmshare_version>
43012

> <i_f3d_flags>
0

> <s_epik_input>
bjFbY0hdbltjSF1uMVtDQEhdKFtDSDNdKUMoPU8pW05IXVtDQEhdKFtDSDJdW0NIMl0yKVtDQEBIXShOMjMpW0NIMl1bQ0gyXVtDSDJdW0NIMl0z

> <s_epik_cmdline>
J2VwaWtfcHl0aG9uJywgJy1waCcsICc3LjAnLCAnLXRuJywgJzgnLCAnLW1hJywgJzIwMCcsICctbWV0YWxfYmluZGluZycsICctaW1hZScsICc8aW5maWxlLm1hZT4nLCAnLW9tYWUnLCAnPG91dGZpbGUubWFlPic=

> <r_lp_tautomer_probability>
1

> <r_epik_Ionization_Penalty>
0.00197066

> <r_epik_Ionization_Penalty_Charging>
0.00196223

> <r_epik_Ionization_Penalty_Neutral>
8.43107e-06

> <r_epik_State_Penalty>
0.00133866

> <r_epik_Charging_Adjusted_Penalty>
0.00330089

> <i_epik_Tot_Q>
1

> <i_epik_Tot_abs_Q>
1

> <r_epik_Metal_State_Penalty>
-0

> <b_epik_Metal_Only>
0

> <s_lp_Force_Field>
OPLS_2005

> <r_lp_Energy>
45.3415

> <b_lp_Chiralities_Consistent>
1

> <s_lp_Variant>
AV-unprocessed.smi:1406-16

> <Gold.Version>
5.8.1

> <Gold.Id.Protein>
6NUR|6NUR_protein|mol2

> <Gold.PLP.Fitness>
39.6029

> <Gold.PLP.PLP>
-31.3466

> <Gold.PLP.part.hbond>
-2.0000

> <Gold.PLP.part.metal>
0.0000

> <Gold.PLP.part.buried>
0.2704

> <Gold.PLP.part.nonpolar>
-29.0879

> <Gold.PLP.part.repulsive>
0.2291

> <Gold.PLP.ligand.clash>
0.0000

> <Gold.PLP.ligand.torsion>
0.4231

> <Gold.PLP.Chemscore.Hbond>
2.0000

> <Gold.PLP.Chemscore.CHOScore>
1.0000

> <Gold.PLP.Chemscore.Metal>
0.0000

> <Gold.Chemscore.Hbonds>
donor molecule, donor type, donor heavy atom, donor atom, acceptor molecule, acceptor atom, score
      L1  H     5    24       P1  7948  0.86
      L1  H     9    41       P1  7921  1.00
      L1  C    16    39       P1  7949  0.82

> <Gold.PLP.Chemscore.Internal.Correction>
0.1026

> <Gold.Rescore>
     Score         DG    S(hbond)    S(metal)    S(lipo)     H(rot)  DE(clash)    DE(int)     intcor
     15.67     -16.38       1.95        0.00      78.74       1.89       0.18       0.52       ----

> <Gold.Chemscore.Fitness>
15.6731

> <Gold.Chemscore.DG>
-16.3750

> <Gold.Chemscore.ZeroCoef>
-5.4800

> <Gold.Chemscore.Hbond>
1.9495

> <Gold.Chemscore.Metal>
0.0000

> <Gold.Chemscore.Lipo>
78.7447

> <Gold.Chemscore.Internal_Hbond>
0.0000

> <Gold.Chemscore.DEClash>
0.1799

> <Gold.Chemscore.DEInternal>
0.5221

> <Gold.Chemscore.Rot>
1.8865

> <Gold.Chemscore.Internal.Correction>
   9.000000E+99

> <Gold.Chemscore.Hbonds>
donor molecule, donor type, donor heavy atom, donor atom, acceptor molecule, acceptor atom, score
      L1  H     5    24       P1  7948  0.19
      L1  H     9    41       P1  7921  0.97

> <Gold.Chemscore.Hbond.Weighted>
-6.5114

> <Gold.Chemscore.Metal.Weighted>
-0.0000

> <Gold.Chemscore.Lipo.Weighted>
-9.2131

> <Gold.Chemscore.Internal_Hbond.Weighted>
0.0000

> <Gold.Chemscore.DEClash.Weighted>
0.1799

> <Gold.Chemscore.DEInternal.Weighted>
0.5221

> <Gold.Chemscore.Rot.Weighted>
4.8295

> <Gold.Chemscore.Internal.Correction.Weighted>
   9.000000E+99

> <Gold.Protein.RotatedTorsions>
[ 6907 6896 6895 6894 ] final  -76.69 input  -60.11 | X-H torsion
[ 7974 7965 7964 7962 ] final -166.71 input  175.53 | X-H torsion
[ 8008 7997 7996 7995 ] final  -24.81 input   59.86 | X-H torsion
[ 10167 10162 10161 10158 ] final -117.99 input  -65.29 | X-H torsion
[ 10718 10713 10712 10709 ] final   96.82 input   66.30 | X-H torsion
[ 10763 10752 10751 10750 ] final  -33.36 input  -60.55 | X-H torsion
[ 11005 11000 10999 10996 ] final   10.05 input  -57.11 | X-H torsion

> <Gold.Protein.ActiveResidues>
 VAL166  LYS551  ARG553  GLY616  TRP617  ASP618  TYR619  PRO620  LYS621  CYS622 
 ASP623  PHE694  ASN695  SER759  ASP760  ASP761  ALA762  ILE779  LEU786  VAL792 
 PHE793  MET794  SER795  GLU796  ALA797  LYS798  CYS799  TRP800  GLU811  SER814 

> <Gold.Protein.RotatedAtoms>
  150.7020  134.4535  159.5346 H   0  0  0  0  0  0  0  0  0  0  0  0  # atno 6907 bound_to 6896
  152.2223  134.8398  160.0493 H   0  0  0  0  0  0  0  0  0  0  0  0  # atno 6908 bound_to 6896
  151.9244  133.3559  159.3945 H   0  0  0  0  0  0  0  0  0  0  0  0  # atno 6909 bound_to 6896
  144.7239  140.2627  143.6262 H   0  0  0  0  0  0  0  0  0  0  0  0  # atno 7974 bound_to 7965
  154.4509  140.1943  156.0521 H   0  0  0  0  0  0  0  0  0  0  0  0  # atno 8008 bound_to 7997
  156.0646  140.3292  155.7475 H   0  0  0  0  0  0  0  0  0  0  0  0  # atno 8009 bound_to 7997
  155.5358  140.0582  157.2870 H   0  0  0  0  0  0  0  0  0  0  0  0  # atno 8010 bound_to 7997
  140.0624  143.4955  152.2025 H   0  0  0  0  0  0  0  0  0  0  0  0  # atno 10167 bound_to 10162
  157.6921  131.0590  150.4549 H   0  0  0  0  0  0  0  0  0  0  0  0  # atno 10718 bound_to 10713
  153.8289  135.6868  153.4817 H   0  0  0  0  0  0  0  0  0  0  0  0  # atno 10763 bound_to 10752
  153.1523  135.4613  154.9653 H   0  0  0  0  0  0  0  0  0  0  0  0  # atno 10764 bound_to 10752
  154.7895  135.3297  154.7754 H   0  0  0  0  0  0  0  0  0  0  0  0  # atno 10765 bound_to 10752
  140.5188  134.0579  155.7839 H   0  0  0  0  0  0  0  0  0  0  0  0  # atno 11005 bound_to 11000
  145.8120  139.2007  143.1987 LP  0  0  0  0  0  0  0  0  0  0  0  0  # atno 17320 bound_to 7965
  146.0588  140.7993  142.9745 LP  0  0  0  0  0  0  0  0  0  0  0  0  # atno 17321 bound_to 7965
  139.5886  144.7541  151.3458 LP  0  0  0  0  0  0  0  0  0  0  0  0  # atno 17342 bound_to 10162
  140.7165  143.7251  150.7666 LP  0  0  0  0  0  0  0  0  0  0  0  0  # atno 17343 bound_to 10162
  156.4898  130.4092  149.6413 LP  0  0  0  0  0  0  0  0  0  0  0  0  # atno 17370 bound_to 10713
  156.3428  130.7391  151.2339 LP  0  0  0  0  0  0  0  0  0  0  0  0  # atno 17371 bound_to 10713
  141.1345  133.9245  157.2463 LP  0  0  0  0  0  0  0  0  0  0  0  0  # atno 17394 bound_to 11000
  139.9617  135.0152  156.9279 LP  0  0  0  0  0  0  0  0  0  0  0  0  # atno 17395 bound_to 11000

$$$$
