AV-unprocessed.smi:526|AV-procd|sdf|2812|dock10
  -GOLD-   2262023293D 1   1.00000     0.00000
 Structure written by MMmdl.
 30 30  0  0  0  0  0  0  0  0  2 V2000
  152.4756  143.3367  162.2953 C   0  0  0  0  0  0  0  0  0  0  0  0
  152.1247  143.7814  161.0772 C   0  0  0  0  0  0  0  0  0  0  0  0
  151.5781  145.1798  160.8599 C   0  0  0  0  0  0  0  0  0  0  0  0
  152.2521  142.9172  159.8360 C   0  0  0  0  0  0  0  0  0  0  0  0
  151.0824  143.4066  158.5296 S   0  0  0  0  0  0  0  0  0  0  0  0
  151.1565  142.0402  157.3175 C   0  0  0  0  0  0  0  0  0  0  0  0
  150.2138  142.1684  156.3066 N   0  0  0  0  0  0  0  0  0  0  0  0
  150.1408  141.1963  155.3264 C   0  0  0  0  0  0  0  0  0  0  0  0
  149.0648  141.4342  154.2815 C   0  0  0  0  0  0  0  0  0  0  0  0
  150.9809  140.1336  155.3311 C   0  0  0  0  0  0  0  0  0  0  0  0
  150.9349  139.0320  154.2702 C   0  0  0  0  0  0  0  0  0  0  0  0
  150.7243  137.6146  154.8166 C   0  0  0  0  0  0  0  0  0  0  0  0
  149.6927  137.4306  155.4983 O   0  0  0  0  0  0  0  0  0  0  0  0
  151.5794  136.7396  154.5531 O   0  5  0  0  0  0  0  0  0  0  0  0
  151.9837  140.0400  156.4135 C   0  0  0  0  0  0  0  0  0  0  0  0
  152.7892  139.1118  156.4695 O   0  0  0  0  0  0  0  0  0  0  0  0
  151.9961  141.0502  157.3880 N   0  0  0  0  0  0  0  0  0  0  0  0
  149.5690  142.9427  156.2511 H   0  0  0  0  0  0  0  0  0  0  0  0
  152.3799  143.9633  163.1700 H   0  0  0  0  0  0  0  0  0  0  0  0
  152.8651  142.3392  162.4376 H   0  0  0  0  0  0  0  0  0  0  0  0
  150.5872  145.1324  160.4078 H   0  0  0  0  0  0  0  0  0  0  0  0
  152.2304  145.7488  160.1974 H   0  0  0  0  0  0  0  0  0  0  0  0
  151.4950  145.7250  161.8007 H   0  0  0  0  0  0  0  0  0  0  0  0
  153.2679  142.9905  159.4454 H   0  0  0  0  0  0  0  0  0  0  0  0
  152.0834  141.8760  160.1133 H   0  0  0  0  0  0  0  0  0  0  0  0
  149.5053  141.4793  153.2853 H   0  0  0  0  0  0  0  0  0  0  0  0
  148.5355  142.3718  154.4553 H   0  0  0  0  0  0  0  0  0  0  0  0
  148.3322  140.6272  154.2989 H   0  0  0  0  0  0  0  0  0  0  0  0
  151.8711  139.0404  153.7120 H   0  0  0  0  0  0  0  0  0  0  0  0
  150.1621  139.2402  153.5296 H   0  0  0  0  0  0  0  0  0  0  0  0
  1  2  2  0  0  0  0
  1 19  1  0  0  0  0
  1 20  1  0  0  0  0
  2  3  1  0  0  0  0
  2  4  1  0  0  0  0
  3 21  1  0  0  0  0
  3 22  1  0  0  0  0
  3 23  1  0  0  0  0
  4 24  1  0  0  0  0
  4 25  1  0  0  0  0
  4  5  1  0  0  0  0
  5  6  1  0  0  0  0
  6 17  2  0  0  0  0
  6  7  1  0  0  0  0
  7  8  1  0  0  0  0
  7 18  1  0  0  0  0
  8 10  2  0  0  0  0
  8  9  1  0  0  0  0
  9 26  1  0  0  0  0
  9 27  1  0  0  0  0
  9 28  1  0  0  0  0
 10 15  1  0  0  0  0
 10 11  1  0  0  0  0
 11 12  1  0  0  0  0
 11 29  1  0  0  0  0
 11 30  1  0  0  0  0
 12 13  2  0  0  0  0
 12 14  1  0  0  0  0
 15 17  1  0  0  0  0
 15 16  2  0  0  0  0
M  CHG  1  14  -1
M  END
> <s_m_source_file>
AV-unprocessed.smi

> <i_m_source_file_index>
526

> <i_lp_mmshare_version>
43012

> <i_f3d_flags>
0

> <s_epik_input>
W0NIMl09QyhbQ0gzXSlbQ0gyXVNjMW5jKFtDSDNdKWMoYyg9TylbbkhdMSlbQ0gyXUMoPU8pW09IXQ==

> <s_epik_cmdline>
J2VwaWtfcHl0aG9uJywgJy1waCcsICc3LjAnLCAnLXRuJywgJzgnLCAnLW1hJywgJzIwMCcsICctbWV0YWxfYmluZGluZycsICctaW1hZScsICc8aW5maWxlLm1hZT4nLCAnLW9tYWUnLCAnPG91dGZpbGUubWFlPic=

> <r_lp_tautomer_probability>
0.273662

> <r_epik_Ionization_Penalty>
0.012426

> <r_epik_Ionization_Penalty_Charging>
0.012254

> <r_epik_Ionization_Penalty_Neutral>
0.000171952

> <r_epik_State_Penalty>
0.787696

> <r_epik_Charging_Adjusted_Penalty>
0.79995

> <i_epik_Tot_Q>
-1

> <i_epik_Tot_abs_Q>
1

> <r_epik_Metal_State_Penalty>
0.901144

> <b_epik_Metal_Only>
0

> <s_lp_Force_Field>
OPLS_2005

> <r_lp_Energy>
7.99396

> <b_lp_Chiralities_Consistent>
1

> <s_lp_Variant>
AV-unprocessed.smi:526-2

> <Gold.Version>
5.8.1

> <Gold.Id.Protein>
6NUR|6NUR_protein|mol2

> <Gold.PLP.Fitness>
49.0137

> <Gold.PLP.PLP>
-37.8962

> <Gold.PLP.part.hbond>
-3.0000

> <Gold.PLP.part.metal>
0.0000

> <Gold.PLP.part.buried>
-1.4281

> <Gold.PLP.part.nonpolar>
-32.4097

> <Gold.PLP.part.repulsive>
0.3011

> <Gold.PLP.ligand.clash>
0.0000

> <Gold.PLP.ligand.torsion>
0.4472

> <Gold.PLP.Chemscore.Hbond>
4.0000

> <Gold.PLP.Chemscore.CHOScore>
0.0000

> <Gold.PLP.Chemscore.Metal>
0.0000

> <Gold.Chemscore.Hbonds>
donor molecule, donor type, donor heavy atom, donor atom, acceptor molecule, acceptor atom, score
      L1  H     7    18       P1  8028  1.00
      P1  H  7997  8008       L1    16  1.00
      P1  H 10752 10764       L1    14  2.00

> <Gold.PLP.Chemscore.Internal.Correction>
0.0121

> <Gold.Rescore>
     Score         DG    S(hbond)    S(metal)    S(lipo)     H(rot)  DE(clash)    DE(int)     intcor
     15.56     -17.68       2.24        0.00      91.47       2.34       0.45       1.66       ----

> <Gold.Chemscore.Fitness>
15.5598

> <Gold.Chemscore.DG>
-17.6764

> <Gold.Chemscore.ZeroCoef>
-5.4800

> <Gold.Chemscore.Hbond>
2.2424

> <Gold.Chemscore.Metal>
0.0000

> <Gold.Chemscore.Lipo>
91.4720

> <Gold.Chemscore.Internal_Hbond>
0.0000

> <Gold.Chemscore.DEClash>
0.4538

> <Gold.Chemscore.DEInternal>
1.6627

> <Gold.Chemscore.Rot>
2.3420

> <Gold.Chemscore.Internal.Correction>
   9.000000E+99

> <Gold.Chemscore.Hbonds>
donor molecule, donor type, donor heavy atom, donor atom, acceptor molecule, acceptor atom, score
      L1  H     7    18       P1  8028  0.96
      P1  H  7997  8008       L1    16  0.30
      P1  H 10752 10764       L1    14  0.99

> <Gold.Chemscore.Hbond.Weighted>
-7.4897

> <Gold.Chemscore.Metal.Weighted>
-0.0000

> <Gold.Chemscore.Lipo.Weighted>
-10.7022

> <Gold.Chemscore.Internal_Hbond.Weighted>
0.0000

> <Gold.Chemscore.DEClash.Weighted>
0.4538

> <Gold.Chemscore.DEInternal.Weighted>
1.6627

> <Gold.Chemscore.Rot.Weighted>
5.9955

> <Gold.Chemscore.Internal.Correction.Weighted>
   9.000000E+99

> <Gold.Protein.RotatedTorsions>
[ 6907 6896 6895 6894 ] final  117.86 input  -60.11 | X-H torsion
[ 7974 7965 7964 7962 ] final -115.75 input  175.53 | X-H torsion
[ 8008 7997 7996 7995 ] final  -63.42 input   59.86 | X-H torsion
[ 10167 10162 10161 10158 ] final  117.71 input  -65.29 | X-H torsion
[ 10718 10713 10712 10709 ] final  120.66 input   66.30 | X-H torsion
[ 10763 10752 10751 10750 ] final  -60.37 input  -60.55 | X-H torsion
[ 11005 11000 10999 10996 ] final   78.55 input  -57.11 | X-H torsion

> <Gold.Protein.ActiveResidues>
 VAL166  LYS551  ARG553  GLY616  TRP617  ASP618  TYR619  PRO620  LYS621  CYS622 
 ASP623  PHE694  ASN695  SER759  ASP760  ASP761  ALA762  ILE779  LEU786  VAL792 
 PHE793  MET794  SER795  GLU796  ALA797  LYS798  CYS799  TRP800  GLU811  SER814 

> <Gold.Protein.RotatedAtoms>
  152.4583  133.7768  159.6828 H   0  0  0  0  0  0  0  0  0  0  0  0  # atno 6907 bound_to 6896
  150.8517  133.7767  159.3029 H   0  0  0  0  0  0  0  0  0  0  0  0  # atno 6908 bound_to 6896
  151.5361  135.1071  159.9966 H   0  0  0  0  0  0  0  0  0  0  0  0  # atno 6909 bound_to 6896
  145.1047  140.8574  143.3905 H   0  0  0  0  0  0  0  0  0  0  0  0  # atno 7974 bound_to 7965
  154.4554  140.0975  156.6740 H   0  0  0  0  0  0  0  0  0  0  0  0  # atno 8008 bound_to 7997
  155.5156  140.3477  155.4378 H   0  0  0  0  0  0  0  0  0  0  0  0  # atno 8009 bound_to 7997
  156.0766  140.1362  156.9753 H   0  0  0  0  0  0  0  0  0  0  0  0  # atno 8010 bound_to 7997
  139.6160  144.7092  151.2737 H   0  0  0  0  0  0  0  0  0  0  0  0  # atno 10167 bound_to 10162
  157.5875  131.1068  150.8066 H   0  0  0  0  0  0  0  0  0  0  0  0  # atno 10718 bound_to 10713
  154.2682  135.6295  153.5300 H   0  0  0  0  0  0  0  0  0  0  0  0  # atno 10763 bound_to 10752
  152.9884  135.5604  154.5630 H   0  0  0  0  0  0  0  0  0  0  0  0  # atno 10764 bound_to 10752
  154.5194  135.2881  155.1251 H   0  0  0  0  0  0  0  0  0  0  0  0  # atno 10765 bound_to 10752
  139.9208  134.7772  156.1664 H   0  0  0  0  0  0  0  0  0  0  0  0  # atno 11005 bound_to 11000
  145.0915  139.2887  143.5732 LP  0  0  0  0  0  0  0  0  0  0  0  0  # atno 17320 bound_to 7965
  146.3528  140.0454  142.8640 LP  0  0  0  0  0  0  0  0  0  0  0  0  # atno 17321 bound_to 7965
  140.7351  143.6746  150.8053 LP  0  0  0  0  0  0  0  0  0  0  0  0  # atno 17342 bound_to 10162
  140.0348  143.5406  152.2744 LP  0  0  0  0  0  0  0  0  0  0  0  0  # atno 17343 bound_to 10162
  156.8496  130.5076  149.5313 LP  0  0  0  0  0  0  0  0  0  0  0  0  # atno 17370 bound_to 10713
  156.0925  130.5907  150.9758 LP  0  0  0  0  0  0  0  0  0  0  0  0  # atno 17371 bound_to 10713
  141.0727  133.6789  156.2173 LP  0  0  0  0  0  0  0  0  0  0  0  0  # atno 17394 bound_to 11000
  140.6480  134.5096  157.5575 LP  0  0  0  0  0  0  0  0  0  0  0  0  # atno 17395 bound_to 11000

$$$$
