AV-unprocessed.smi:37|AV-procd|sdf|325|dock2
  -GOLD-   2262016153D 1   1.00000     0.00000
 Structure written by MMmdl.
 43 44  0  0  0  0  0  0  0  0  2 V2000
  147.3619  134.4584  162.6422 C   0  0  0  0  0  0  0  0  0  0  0  0
  147.7643  135.8949  162.2813 C   0  0  0  0  0  0  0  0  0  0  0  0
  147.4953  136.1987  160.8108 C   0  0  0  0  0  0  0  0  0  0  0  0
  146.8857  137.2119  160.4681 O   0  0  0  0  0  0  0  0  0  0  0  0
  147.9677  135.2390  159.9929 O   0  0  0  0  0  0  0  0  0  0  0  0
  147.3750  135.0109  158.7209 C   0  0  0  0  0  0  0  0  0  0  0  0
  148.2755  134.0867  157.8855 C   0  0  2  0  0  0  0  0  0  0  0  0
  149.5396  134.7256  157.7229 O   0  0  0  0  0  0  0  0  0  0  0  0
  149.8589  134.8020  156.3701 C   0  0  2  0  0  0  0  0  0  0  0  0
  150.7084  136.0240  156.0834 N   0  0  0  0  0  0  0  0  0  0  0  0
  150.5267  136.6735  154.8758 C   0  0  0  0  0  0  0  0  0  0  0  0
  151.2541  137.7589  154.5428 C   0  0  0  0  0  0  0  0  0  0  0  0
  151.0450  138.3688  153.3634 F   0  0  0  0  0  0  0  0  0  0  0  0
  152.2645  138.2630  155.4698 C   0  0  0  0  0  0  0  0  0  0  0  0
  152.9155  139.2621  155.1682 O   0  0  0  0  0  0  0  0  0  0  0  0
  152.4429  137.5913  156.6433 N   0  5  0  0  0  0  0  0  0  0  0  0
  151.7154  136.4865  156.9819 C   0  0  0  0  0  0  0  0  0  0  0  0
  151.8982  135.8702  158.0309 O   0  0  0  0  0  0  0  0  0  0  0  0
  148.5597  134.6821  155.5584 C   0  0  2  0  0  0  0  0  0  0  0  0
  147.5645  136.3855  155.2535 Br  0  0  0  0  0  0  0  0  0  0  0  0
  147.7314  133.7989  156.4740 C   0  0  1  0  0  0  0  0  0  0  0  0
  147.9473  132.4243  156.1746 O   0  0  0  0  0  0  0  0  0  0  0  0
  147.6483  131.9344  154.9568 C   0  0  0  0  0  0  0  0  0  0  0  0
  147.1402  132.5613  154.0273 O   0  0  0  0  0  0  0  0  0  0  0  0
  148.0015  130.4558  154.8162 C   0  0  0  0  0  0  0  0  0  0  0  0
  149.0121  130.2061  153.6889 C   0  0  0  0  0  0  0  0  0  0  0  0
  147.5517  134.2591  163.6967 H   0  0  0  0  0  0  0  0  0  0  0  0
  147.9238  133.7263  162.0608 H   0  0  0  0  0  0  0  0  0  0  0  0
  146.3005  134.2874  162.4591 H   0  0  0  0  0  0  0  0  0  0  0  0
  147.2117  136.6040  162.8983 H   0  0  0  0  0  0  0  0  0  0  0  0
  148.8235  136.0508  162.4882 H   0  0  0  0  0  0  0  0  0  0  0  0
  146.3624  134.6122  158.7933 H   0  0  0  0  0  0  0  0  0  0  0  0
  147.2897  135.9761  158.2215 H   0  0  0  0  0  0  0  0  0  0  0  0
  148.4324  133.1578  158.4361 H   0  0  0  0  0  0  0  0  0  0  0  0
  150.5133  133.9512  156.1730 H   0  0  0  0  0  0  0  0  0  0  0  0
  149.7814  136.3114  154.1828 H   0  0  0  0  0  0  0  0  0  0  0  0
  148.7559  134.2384  154.5821 H   0  0  0  0  0  0  0  0  0  0  0  0
  146.6716  134.0387  156.3960 H   0  0  0  0  0  0  0  0  0  0  0  0
  148.4015  130.0972  155.7647 H   0  0  0  0  0  0  0  0  0  0  0  0
  147.0877  129.8921  154.6256 H   0  0  0  0  0  0  0  0  0  0  0  0
  149.2158  129.1402  153.5860 H   0  0  0  0  0  0  0  0  0  0  0  0
  149.9618  130.7053  153.8845 H   0  0  0  0  0  0  0  0  0  0  0  0
  148.6338  130.5641  152.7310 H   0  0  0  0  0  0  0  0  0  0  0  0
  1  2  1  0  0  0  0
  1 27  1  0  0  0  0
  1 28  1  0  0  0  0
  1 29  1  0  0  0  0
  2  3  1  0  0  0  0
  2 30  1  0  0  0  0
  2 31  1  0  0  0  0
  3  4  2  0  0  0  0
  3  5  1  0  0  0  0
  5  6  1  0  0  0  0
  6  7  1  0  0  0  0
  6 32  1  0  0  0  0
  6 33  1  0  0  0  0
  7 21  1  0  0  0  0
  7  8  1  0  0  0  0
  7 34  1  0  0  0  0
  8  9  1  0  0  0  0
  9 10  1  0  0  0  0
  9 19  1  0  0  0  0
  9 35  1  0  0  0  0
 10 17  1  0  0  0  0
 10 11  1  0  0  0  0
 11 12  2  0  0  0  0
 11 36  1  0  0  0  0
 12 13  1  0  0  0  0
 12 14  1  0  0  0  0
 14 15  2  0  0  0  0
 14 16  1  0  0  0  0
 16 17  1  0  0  0  0
 17 18  2  0  0  0  0
 19 20  1  0  0  0  0
 19 21  1  0  0  0  0
 19 37  1  0  0  0  0
 21 22  1  0  0  0  0
 21 38  1  0  0  0  0
 22 23  1  0  0  0  0
 23 24  2  0  0  0  0
 23 25  1  0  0  0  0
 25 26  1  0  0  0  0
 25 39  1  0  0  0  0
 25 40  1  0  0  0  0
 26 41  1  0  0  0  0
 26 42  1  0  0  0  0
 26 43  1  0  0  0  0
M  CHG  1  16  -1
M  END
> <s_m_source_file>
AV-unprocessed.smi

> <i_m_source_file_index>
37

> <i_lp_mmshare_version>
43012

> <i_f3d_flags>
0

> <s_epik_input>
W0NIM11bQ0gyXUMoPU8pT1tDSDJdW0NAQEhdMU9bQ0BASF0objJbY0hdYyhGKWMoPU8pW25IXWMyPU8pW0NAQEhdKEJyKVtDQEhdMU9DKD1PKVtDSDJdW0NIM10=

> <s_epik_cmdline>
J2VwaWtfcHl0aG9uJywgJy1waCcsICc3LjAnLCAnLXRuJywgJzgnLCAnLW1hJywgJzIwMCcsICctbWV0YWxfYmluZGluZycsICctaW1hZScsICc8aW5maWxlLm1hZT4nLCAnLW9tYWUnLCAnPG91dGZpbGUubWFlPic=

> <r_epik_Ionization_Penalty>
1.08158

> <r_epik_Ionization_Penalty_Charging>
9.05154e-09

> <r_epik_Ionization_Penalty_Neutral>
1.08158

> <r_epik_State_Penalty>
1.13706

> <r_epik_Charging_Adjusted_Penalty>
1.13706

> <i_epik_Tot_Q>
-1

> <i_epik_Tot_abs_Q>
1

> <r_epik_Metal_State_Penalty>
0.00343535

> <b_epik_Metal_Only>
0

> <s_epik_Chemistry_Notes>
This compound has an ester and may undergo hydrolysis at high or low pH. This compound contains an acetal/aminal-like group ( X-CH(R)-Y where X, Y are N, S, or O) that may be acid/base labile, releasing an aldehyde.

> <s_lp_Force_Field>
OPLS_2005

> <r_lp_Energy>
32.7064

> <b_lp_Chiralities_Consistent>
1

> <s_lp_Variant>
AV-unprocessed.smi:37-23

> <Gold.Version>
5.8.1

> <Gold.Id.Protein>
6NUR|6NUR_protein|mol2

> <Gold.PLP.Fitness>
39.4421

> <Gold.PLP.PLP>
-29.5889

> <Gold.PLP.part.hbond>
-4.1865

> <Gold.PLP.part.metal>
0.0000

> <Gold.PLP.part.buried>
-4.2134

> <Gold.PLP.part.nonpolar>
-20.9675

> <Gold.PLP.part.repulsive>
0.0505

> <Gold.PLP.ligand.clash>
0.0000

> <Gold.PLP.ligand.torsion>
1.1324

> <Gold.PLP.Chemscore.Hbond>
3.1893

> <Gold.PLP.Chemscore.CHOScore>
0.7858

> <Gold.PLP.Chemscore.Metal>
0.0000

> <Gold.Chemscore.Hbonds>
donor molecule, donor type, donor heavy atom, donor atom, acceptor molecule, acceptor atom, score
      P1  H  6896  6908       L1     8  0.93
      P1  H  6896  6909       L1    18  0.06
      P1  H  6934  6947       L1     4  1.00
      P1  H  7997  8009       L1    15  1.00
      L1  C    11    36       P1  7948  1.00

> <Gold.PLP.Chemscore.Internal.Correction>
0.1927

> <Gold.Rescore>
     Score         DG    S(hbond)    S(metal)    S(lipo)     H(rot)  DE(clash)    DE(int)     intcor
      8.86     -13.07       2.97        0.00      51.55       3.27       0.62       3.60       ----

> <Gold.Chemscore.Fitness>
8.8567

> <Gold.Chemscore.DG>
-13.0748

> <Gold.Chemscore.ZeroCoef>
-5.4800

> <Gold.Chemscore.Hbond>
2.9721

> <Gold.Chemscore.Metal>
0.0000

> <Gold.Chemscore.Lipo>
51.5507

> <Gold.Chemscore.Internal_Hbond>
0.0000

> <Gold.Chemscore.DEClash>
0.6186

> <Gold.Chemscore.DEInternal>
3.5995

> <Gold.Chemscore.Rot>
3.2669

> <Gold.Chemscore.Internal.Correction>
   9.000000E+99

> <Gold.Chemscore.Hbonds>
donor molecule, donor type, donor heavy atom, donor atom, acceptor molecule, acceptor atom, score
      P1  H  6896  6908       L1     8  0.48
      P1  H  6896  6909       L1    18  0.07
      P1  H  6934  6947       L1     4  1.00
      P1  H  7997  8009       L1    15  0.99

> <Gold.Chemscore.Hbond.Weighted>
-9.9267

> <Gold.Chemscore.Metal.Weighted>
-0.0000

> <Gold.Chemscore.Lipo.Weighted>
-6.0314

> <Gold.Chemscore.Internal_Hbond.Weighted>
0.0000

> <Gold.Chemscore.DEClash.Weighted>
0.6186

> <Gold.Chemscore.DEInternal.Weighted>
3.5995

> <Gold.Chemscore.Rot.Weighted>
8.3634

> <Gold.Chemscore.Internal.Correction.Weighted>
   9.000000E+99

> <Gold.Protein.RotatedTorsions>
[ 6907 6896 6895 6894 ] final  147.65 input  -60.11 | X-H torsion
[ 7974 7965 7964 7962 ] final    6.93 input  175.53 | X-H torsion
[ 8008 7997 7996 7995 ] final -138.33 input   59.86 | X-H torsion
[ 10167 10162 10161 10158 ] final   -5.57 input  -65.29 | X-H torsion
[ 10718 10713 10712 10709 ] final  157.38 input   66.30 | X-H torsion
[ 10763 10752 10751 10750 ] final   11.97 input  -60.55 | X-H torsion
[ 11005 11000 10999 10996 ] final   73.48 input  -57.11 | X-H torsion

> <Gold.Protein.ActiveResidues>
 VAL166  LYS551  ARG553  GLY616  TRP617  ASP618  TYR619  PRO620  LYS621  CYS622 
 ASP623  PHE694  ASN695  SER759  ASP760  ASP761  ALA762  ILE779  LEU786  VAL792 
 PHE793  MET794  SER795  GLU796  ALA797  LYS798  CYS799  TRP800  GLU811  SER814 

> <Gold.Protein.RotatedAtoms>
  152.1519  133.4527  159.4817 H   0  0  0  0  0  0  0  0  0  0  0  0  # atno 6907 bound_to 6896
  150.6896  134.2178  159.4394 H   0  0  0  0  0  0  0  0  0  0  0  0  # atno 6908 bound_to 6896
  152.0075  134.9894  160.0618 H   0  0  0  0  0  0  0  0  0  0  0  0  # atno 6909 bound_to 6896
  146.2431  140.0159  142.8402 H   0  0  0  0  0  0  0  0  0  0  0  0  # atno 7974 bound_to 7965
  155.4265  140.0522  157.3022 H   0  0  0  0  0  0  0  0  0  0  0  0  # atno 8008 bound_to 7997
  154.4879  140.2108  155.9573 H   0  0  0  0  0  0  0  0  0  0  0  0  # atno 8009 bound_to 7997
  156.1301  140.3173  155.8340 H   0  0  0  0  0  0  0  0  0  0  0  0  # atno 8010 bound_to 7997
  140.6968  143.6293  150.8538 H   0  0  0  0  0  0  0  0  0  0  0  0  # atno 10167 bound_to 10162
  157.1923  131.0657  151.2072 H   0  0  0  0  0  0  0  0  0  0  0  0  # atno 10718 bound_to 10713
  153.1870  135.6836  153.8402 H   0  0  0  0  0  0  0  0  0  0  0  0  # atno 10763 bound_to 10752
  153.7714  135.3195  155.3353 H   0  0  0  0  0  0  0  0  0  0  0  0  # atno 10764 bound_to 10752
  154.8095  135.4727  154.0575 H   0  0  0  0  0  0  0  0  0  0  0  0  # atno 10765 bound_to 10752
  139.9438  134.7351  156.1032 H   0  0  0  0  0  0  0  0  0  0  0  0  # atno 11005 bound_to 11000
  145.1285  140.9504  143.4558 LP  0  0  0  0  0  0  0  0  0  0  0  0  # atno 17320 bound_to 7965
  145.0411  139.3259  143.5976 LP  0  0  0  0  0  0  0  0  0  0  0  0  # atno 17321 bound_to 7965
  140.0011  143.5743  152.2875 LP  0  0  0  0  0  0  0  0  0  0  0  0  # atno 17342 bound_to 10162
  139.6433  144.7656  151.2295 LP  0  0  0  0  0  0  0  0  0  0  0  0  # atno 17343 bound_to 10162
  157.3848  130.7250  149.6656 LP  0  0  0  0  0  0  0  0  0  0  0  0  # atno 17370 bound_to 10713
  155.9710  130.4162  150.4221 LP  0  0  0  0  0  0  0  0  0  0  0  0  # atno 17371 bound_to 10713
  141.1081  133.6653  156.2913 LP  0  0  0  0  0  0  0  0  0  0  0  0  # atno 17394 bound_to 11000
  140.5886  134.5673  157.5495 LP  0  0  0  0  0  0  0  0  0  0  0  0  # atno 17395 bound_to 11000

$$$$
