AV-unprocessed.smi:2477|AV-procd|sdf|9759|dock5
  -GOLD-   2272013403D 1   1.00000     0.00000
 Structure written by MMmdl.
 51 53  0  0  0  0  0  0  0  0  1 V2000
  145.4115  131.4994  150.7696 C   0  0  0  0  0  0  0  0  0  0  0  0
  144.9738  132.7798  151.3321 N   0  0  0  0  0  0  0  0  0  0  0  0
  143.5946  132.9684  151.5227 C   0  0  0  0  0  0  0  0  0  0  0  0
  143.1043  134.1081  152.0293 C   0  0  0  0  0  0  0  0  0  0  0  0
  144.0307  135.1570  152.3825 C   0  0  0  0  0  0  0  0  0  0  0  0
  145.3675  134.9924  152.2164 C   0  0  0  0  0  0  0  0  0  0  0  0
  146.3398  135.9592  152.5279 N   0  0  0  0  0  0  0  0  0  0  0  0
  146.2096  137.1241  153.1891 C   0  0  0  0  0  0  0  0  0  0  0  0
  145.1684  137.5678  153.6719 O   0  0  0  0  0  0  0  0  0  0  0  0
  147.3934  137.7458  153.2919 N   0  0  0  0  0  0  0  0  0  0  0  0
  147.6391  138.9972  154.0058 C   0  0  2  0  0  0  0  0  0  0  0  0
  147.0693  140.1630  153.1735 C   0  0  0  0  0  0  0  0  0  0  0  0
  147.3672  141.5254  153.8187 C   0  0  0  0  0  0  0  0  0  0  0  0
  148.8734  141.7085  154.0542 C   0  0  0  0  0  0  0  0  0  0  0  0
  149.4384  140.5599  154.9020 C   0  0  0  0  0  0  0  0  0  0  0  0
  149.1533  139.1897  154.2612 C   0  0  1  0  0  0  0  0  0  0  0  0
  149.6113  138.1991  155.1748 O   0  0  0  0  0  0  0  0  0  0  0  0
  150.7620  137.4755  154.7533 C   0  0  0  0  0  0  0  0  0  0  0  0
  151.2613  136.6498  155.9396 C   0  0  0  0  0  0  0  0  0  0  0  0
  152.1199  137.6067  156.7776 C   0  0  0  0  0  0  0  0  0  0  0  0
  152.4702  138.7905  155.8625 C   0  0  0  0  0  0  0  0  0  0  0  0
  151.9260  138.4315  154.4771 C   0  0  0  0  0  0  0  0  0  0  0  0
  145.8969  133.7351  151.6519 C   0  0  0  0  0  0  0  0  0  0  0  0
  147.1023  133.5420  151.4735 O   0  0  0  0  0  0  0  0  0  0  0  0
  144.5808  130.8246  150.5612 H   0  0  0  0  0  0  0  0  0  0  0  0
  146.0803  130.9856  151.4616 H   0  0  0  0  0  0  0  0  0  0  0  0
  145.9462  131.6549  149.8316 H   0  0  0  0  0  0  0  0  0  0  0  0
  142.9671  132.1378  151.2347 H   0  0  0  0  0  0  0  0  0  0  0  0
  142.0415  134.2383  152.1714 H   0  0  0  0  0  0  0  0  0  0  0  0
  143.6107  136.0717  152.7673 H   0  0  0  0  0  0  0  0  0  0  0  0
  147.2770  135.7113  152.2457 H   0  0  0  0  0  0  0  0  0  0  0  0
  148.1961  137.3046  152.8681 H   0  0  0  0  0  0  0  0  0  0  0  0
  147.1181  138.9868  154.9652 H   0  0  0  0  0  0  0  0  0  0  0  0
  147.4947  140.1427  152.1690 H   0  0  0  0  0  0  0  0  0  0  0  0
  145.9919  140.0437  153.0537 H   0  0  0  0  0  0  0  0  0  0  0  0
  146.9896  142.3280  153.1844 H   0  0  0  0  0  0  0  0  0  0  0  0
  146.8354  141.6049  154.7677 H   0  0  0  0  0  0  0  0  0  0  0  0
  149.3938  141.7477  153.0964 H   0  0  0  0  0  0  0  0  0  0  0  0
  149.0601  142.6622  154.5483 H   0  0  0  0  0  0  0  0  0  0  0  0
  150.5127  140.6923  155.0342 H   0  0  0  0  0  0  0  0  0  0  0  0
  148.9993  140.5961  155.8998 H   0  0  0  0  0  0  0  0  0  0  0  0
  149.6894  139.1385  153.3108 H   0  0  0  0  0  0  0  0  0  0  0  0
  150.5315  136.8358  153.9001 H   0  0  0  0  0  0  0  0  0  0  0  0
  150.4484  136.2005  156.5113 H   0  0  0  0  0  0  0  0  0  0  0  0
  151.8870  135.8358  155.5719 H   0  0  0  0  0  0  0  0  0  0  0  0
  151.5618  137.9600  157.6455 H   0  0  0  0  0  0  0  0  0  0  0  0
  153.0144  137.1042  157.1477 H   0  0  0  0  0  0  0  0  0  0  0  0
  151.9759  139.6917  156.2280 H   0  0  0  0  0  0  0  0  0  0  0  0
  153.5415  138.9923  155.8383 H   0  0  0  0  0  0  0  0  0  0  0  0
  152.6959  137.9047  153.9117 H   0  0  0  0  0  0  0  0  0  0  0  0
  151.6409  139.3093  153.8971 H   0  0  0  0  0  0  0  0  0  0  0  0
  1  2  1  0  0  0  0
  1 25  1  0  0  0  0
  1 26  1  0  0  0  0
  1 27  1  0  0  0  0
  2 23  1  0  0  0  0
  2  3  1  0  0  0  0
  3  4  2  0  0  0  0
  3 28  1  0  0  0  0
  4  5  1  0  0  0  0
  4 29  1  0  0  0  0
  5  6  2  0  0  0  0
  5 30  1  0  0  0  0
  6  7  1  0  0  0  0
  6 23  1  0  0  0  0
  7  8  1  0  0  0  0
  7 31  1  0  0  0  0
  8  9  2  0  0  0  0
  8 10  1  0  0  0  0
 10 11  1  0  0  0  0
 10 32  1  0  0  0  0
 11 16  1  0  0  0  0
 11 12  1  0  0  0  0
 11 33  1  0  0  0  0
 12 13  1  0  0  0  0
 12 34  1  0  0  0  0
 12 35  1  0  0  0  0
 13 14  1  0  0  0  0
 13 36  1  0  0  0  0
 13 37  1  0  0  0  0
 14 15  1  0  0  0  0
 14 38  1  0  0  0  0
 14 39  1  0  0  0  0
 15 16  1  0  0  0  0
 15 40  1  0  0  0  0
 15 41  1  0  0  0  0
 16 17  1  0  0  0  0
 16 42  1  0  0  0  0
 17 18  1  0  0  0  0
 18 22  1  0  0  0  0
 18 19  1  0  0  0  0
 18 43  1  0  0  0  0
 19 20  1  0  0  0  0
 19 44  1  0  0  0  0
 19 45  1  0  0  0  0
 20 21  1  0  0  0  0
 20 46  1  0  0  0  0
 20 47  1  0  0  0  0
 21 22  1  0  0  0  0
 21 48  1  0  0  0  0
 21 49  1  0  0  0  0
 22 50  1  0  0  0  0
 22 51  1  0  0  0  0
 23 24  2  0  0  0  0
M  END
> <s_m_source_file>
AV-unprocessed.smi

> <i_m_source_file_index>
2477

> <i_lp_mmshare_version>
43012

> <i_f3d_flags>
0

> <s_epik_input>
W0NIM11uMVtjSF1bY0hdW2NIXWMoYzE9TylbTkhdQyg9TylbTkhdW0NAQEhdMltDSDJdW0NIMl1bQ0gyXVtDSDJdW0NASF0yT1tDSF0zW0NIMl1bQ0gyXVtDSDJdW0NIMl0z

> <s_epik_cmdline>
J2VwaWtfcHl0aG9uJywgJy1waCcsICc3LjAnLCAnLXRuJywgJzgnLCAnLW1hJywgJzIwMCcsICctbWV0YWxfYmluZGluZycsICctaW1hZScsICc8aW5maWxlLm1hZT4nLCAnLW9tYWUnLCAnPG91dGZpbGUubWFlPic=

> <r_lp_tautomer_probability>
1

> <r_epik_Ionization_Penalty>
2.40753e-05

> <r_epik_Ionization_Penalty_Charging>
4.84018e-06

> <r_epik_Ionization_Penalty_Neutral>
1.92352e-05

> <r_epik_State_Penalty>
-0

> <r_epik_Charging_Adjusted_Penalty>
4.84018e-06

> <i_epik_Tot_Q>
0

> <i_epik_Tot_abs_Q>
0

> <r_epik_Metal_State_Penalty>
-0

> <b_epik_Metal_Only>
0

> <s_lp_Force_Field>
OPLS_2005

> <r_lp_Energy>
41.4176

> <b_lp_Chiralities_Consistent>
1

> <s_lp_Variant>
AV-unprocessed.smi:2477-1

> <Gold.Version>
5.8.1

> <Gold.Id.Protein>
6NUR|6NUR_protein|mol2

> <Gold.PLP.Fitness>
45.0747

> <Gold.PLP.PLP>
-40.9177

> <Gold.PLP.part.hbond>
-2.0000

> <Gold.PLP.part.metal>
0.0000

> <Gold.PLP.part.buried>
-2.3844

> <Gold.PLP.part.nonpolar>
-35.7872

> <Gold.PLP.part.repulsive>
0.5484

> <Gold.PLP.ligand.clash>
0.0000

> <Gold.PLP.ligand.torsion>
0.9523

> <Gold.PLP.Chemscore.Hbond>
2.0000

> <Gold.PLP.Chemscore.CHOScore>
0.0000

> <Gold.PLP.Chemscore.Metal>
0.0000

> <Gold.Chemscore.Hbonds>
donor molecule, donor type, donor heavy atom, donor atom, acceptor molecule, acceptor atom, score
      L1  H     7    31       P1  7948  0.99
      L1  H    10    32       P1  7948  1.00

> <Gold.PLP.Chemscore.Internal.Correction>
0.0616

> <Gold.Rescore>
     Score         DG    S(hbond)    S(metal)    S(lipo)     H(rot)  DE(clash)    DE(int)     intcor
     17.99     -20.66       1.94        0.00     104.14       1.36       0.70       1.97       ----

> <Gold.Chemscore.Fitness>
17.9885

> <Gold.Chemscore.DG>
-20.6582

> <Gold.Chemscore.ZeroCoef>
-5.4800

> <Gold.Chemscore.Hbond>
1.9361

> <Gold.Chemscore.Metal>
0.0000

> <Gold.Chemscore.Lipo>
104.1360

> <Gold.Chemscore.Internal_Hbond>
0.0000

> <Gold.Chemscore.DEClash>
0.6959

> <Gold.Chemscore.DEInternal>
1.9739

> <Gold.Chemscore.Rot>
1.3564

> <Gold.Chemscore.Internal.Correction>
   9.000000E+99

> <Gold.Chemscore.Hbonds>
donor molecule, donor type, donor heavy atom, donor atom, acceptor molecule, acceptor atom, score
      L1  H     7    31       P1  7948  0.94
      L1  H    10    32       P1  7948  0.98

> <Gold.Chemscore.Hbond.Weighted>
-6.4667

> <Gold.Chemscore.Metal.Weighted>
-0.0000

> <Gold.Chemscore.Lipo.Weighted>
-12.1839

> <Gold.Chemscore.Internal_Hbond.Weighted>
0.0000

> <Gold.Chemscore.DEClash.Weighted>
0.6959

> <Gold.Chemscore.DEInternal.Weighted>
1.9739

> <Gold.Chemscore.Rot.Weighted>
3.4724

> <Gold.Chemscore.Internal.Correction.Weighted>
   9.000000E+99

> <Gold.Protein.RotatedTorsions>
[ 6907 6896 6895 6894 ] final  161.15 input  -60.11 | X-H torsion
[ 7974 7965 7964 7962 ] final -151.20 input  175.53 | X-H torsion
[ 8008 7997 7996 7995 ] final   77.52 input   59.86 | X-H torsion
[ 10167 10162 10161 10158 ] final  -88.22 input  -65.29 | X-H torsion
[ 10718 10713 10712 10709 ] final -127.35 input   66.30 | X-H torsion
[ 10763 10752 10751 10750 ] final   10.15 input  -60.55 | X-H torsion
[ 11005 11000 10999 10996 ] final   73.10 input  -57.11 | X-H torsion

> <Gold.Protein.ActiveResidues>
 VAL166  LYS551  ARG553  GLY616  TRP617  ASP618  TYR619  PRO620  LYS621  CYS622 
 ASP623  PHE694  ASN695  SER759  ASP760  ASP761  ALA762  ILE779  LEU786  VAL792 
 PHE793  MET794  SER795  GLU796  ALA797  LYS798  CYS799  TRP800  GLU811  SER814 

> <Gold.Protein.RotatedAtoms>
  151.9599  133.3692  159.4031 H   0  0  0  0  0  0  0  0  0  0  0  0  # atno 6907 bound_to 6896
  150.6966  134.4251  159.5232 H   0  0  0  0  0  0  0  0  0  0  0  0  # atno 6908 bound_to 6896
  152.1938  134.8648  160.0565 H   0  0  0  0  0  0  0  0  0  0  0  0  # atno 6909 bound_to 6896
  144.7864  140.4830  143.5803 H   0  0  0  0  0  0  0  0  0  0  0  0  # atno 7974 bound_to 7965
  155.8428  140.3461  155.5643 H   0  0  0  0  0  0  0  0  0  0  0  0  # atno 8008 bound_to 7997
  155.8122  140.0900  157.1917 H   0  0  0  0  0  0  0  0  0  0  0  0  # atno 8009 bound_to 7997
  154.4005  140.1445  156.3388 H   0  0  0  0  0  0  0  0  0  0  0  0  # atno 8010 bound_to 7997
  140.3768  143.2768  151.9433 H   0  0  0  0  0  0  0  0  0  0  0  0  # atno 10167 bound_to 10162
  156.1849  130.6757  151.0352 H   0  0  0  0  0  0  0  0  0  0  0  0  # atno 10718 bound_to 10713
  153.2063  135.6863  153.8168 H   0  0  0  0  0  0  0  0  0  0  0  0  # atno 10763 bound_to 10752
  153.7416  135.3237  155.3306 H   0  0  0  0  0  0  0  0  0  0  0  0  # atno 10764 bound_to 10752
  154.8199  135.4660  154.0852 H   0  0  0  0  0  0  0  0  0  0  0  0  # atno 10765 bound_to 10752
  139.9457  134.7318  156.0986 H   0  0  0  0  0  0  0  0  0  0  0  0  # atno 11005 bound_to 11000
  145.5911  139.1496  143.3181 LP  0  0  0  0  0  0  0  0  0  0  0  0  # atno 17320 bound_to 7965
  146.2097  140.6037  142.9065 LP  0  0  0  0  0  0  0  0  0  0  0  0  # atno 17321 bound_to 7965
  139.4799  144.5856  151.7859 LP  0  0  0  0  0  0  0  0  0  0  0  0  # atno 17342 bound_to 10162
  140.4978  144.1214  150.5964 LP  0  0  0  0  0  0  0  0  0  0  0  0  # atno 17343 bound_to 10162
  157.6892  131.0815  150.7155 LP  0  0  0  0  0  0  0  0  0  0  0  0  # atno 17370 bound_to 10713
  156.7212  130.4681  149.5522 LP  0  0  0  0  0  0  0  0  0  0  0  0  # atno 17371 bound_to 10713
  141.1106  133.6644  156.2970 LP  0  0  0  0  0  0  0  0  0  0  0  0  # atno 17394 bound_to 11000
  140.5841  134.5716  157.5486 LP  0  0  0  0  0  0  0  0  0  0  0  0  # atno 17395 bound_to 11000

$$$$
