AV-unprocessed.smi:1641|AV-procd|sdf|6561|dock5
  -GOLD-   22720 7243D 1   1.00000     0.00000
 Structure written by MMmdl.
 42 43  0  0  0  0  0  0  0  0  2 V2000
  153.6352  137.2920  156.7673 C   0  0  0  0  0  0  0  0  0  0  0  0
  152.7090  138.0201  155.8546 C   0  0  0  0  0  0  0  0  0  0  0  0
  152.8474  139.3200  155.5660 N   0  0  0  0  0  0  0  0  0  0  0  0
  151.8618  139.7744  154.7010 N   0  0  0  0  0  0  0  0  0  0  0  0
  151.0066  138.8000  154.3618 C   0  0  0  0  0  0  0  0  0  0  0  0
  149.8973  138.9908  153.4961 N   0  0  0  0  0  0  0  0  0  0  0  0
  148.6126  138.6535  153.7045 C   0  0  0  0  0  0  0  0  0  0  0  0
  148.1691  138.1284  154.7262 O   0  0  0  0  0  0  0  0  0  0  0  0
  147.8494  138.9575  152.6448 N   0  0  0  0  0  0  0  0  0  0  0  0
  146.4146  138.7113  152.5585 C   0  0  0  0  0  0  0  0  0  0  0  0
  146.0877  137.6252  151.5149 C   0  0  0  0  0  0  0  0  0  0  0  0
  146.1645  136.2562  152.0813 N   0  3  1  0  0  0  0  0  0  0  0  0
  145.4957  136.1516  153.3984 C   0  0  0  0  0  0  0  0  0  0  0  0
  145.6956  134.7466  153.9937 C   0  0  1  0  0  0  0  0  0  0  0  0
  144.9422  134.5717  155.3167 C   0  0  0  0  0  0  0  0  0  0  0  0
  145.2069  133.7693  153.0785 O   0  0  0  0  0  0  0  0  0  0  0  0
  145.8072  133.8046  151.7837 C   0  0  2  0  0  0  0  0  0  0  0  0
  147.2593  133.2945  151.7993 C   0  0  0  0  0  0  0  0  0  0  0  0
  145.6549  135.2073  151.1636 C   0  0  0  0  0  0  0  0  0  0  0  0
  151.3433  137.2316  155.0745 S   0  0  0  0  0  0  0  0  0  0  0  0
  154.4068  137.9617  157.1485 H   0  0  0  0  0  0  0  0  0  0  0  0
  154.1163  136.4724  156.2335 H   0  0  0  0  0  0  0  0  0  0  0  0
  153.0797  136.8834  157.6116 H   0  0  0  0  0  0  0  0  0  0  0  0
  150.1115  139.4213  152.6087 H   0  0  0  0  0  0  0  0  0  0  0  0
  148.2893  139.3926  151.8466 H   0  0  0  0  0  0  0  0  0  0  0  0
  146.0414  138.4438  153.5474 H   0  0  0  0  0  0  0  0  0  0  0  0
  145.9260  139.6469  152.2853 H   0  0  0  0  0  0  0  0  0  0  0  0
  145.0758  137.8044  151.1480 H   0  0  0  0  0  0  0  0  0  0  0  0
  146.7461  137.6966  150.6476 H   0  0  0  0  0  0  0  0  0  0  0  0
  145.9055  136.8977  154.0806 H   0  0  0  0  0  0  0  0  0  0  0  0
  144.4323  136.3702  153.2855 H   0  0  0  0  0  0  0  0  0  0  0  0
  146.7555  134.5768  154.1837 H   0  0  0  0  0  0  0  0  0  0  0  0
  145.2861  135.2883  156.0631 H   0  0  0  0  0  0  0  0  0  0  0  0
  145.0943  133.5711  155.7222 H   0  0  0  0  0  0  0  0  0  0  0  0
  143.8697  134.7166  155.1829 H   0  0  0  0  0  0  0  0  0  0  0  0
  145.2364  133.1077  151.1693 H   0  0  0  0  0  0  0  0  0  0  0  0
  147.6473  133.2040  150.7845 H   0  0  0  0  0  0  0  0  0  0  0  0
  147.3202  132.3096  152.2628 H   0  0  0  0  0  0  0  0  0  0  0  0
  147.9283  133.9619  152.3419 H   0  0  0  0  0  0  0  0  0  0  0  0
  144.6015  135.4006  150.9539 H   0  0  0  0  0  0  0  0  0  0  0  0
  146.1740  135.2395  150.2063 H   0  0  0  0  0  0  0  0  0  0  0  0
  147.1427  136.0630  152.2423 H   0  0  0  0  0  0  0  0  0  0  0  0
  1  2  1  0  0  0  0
  1 21  1  0  0  0  0
  1 22  1  0  0  0  0
  1 23  1  0  0  0  0
  2 20  1  0  0  0  0
  2  3  2  0  0  0  0
  3  4  1  0  0  0  0
  4  5  2  0  0  0  0
  5  6  1  0  0  0  0
  5 20  1  0  0  0  0
  6  7  1  0  0  0  0
  6 24  1  0  0  0  0
  7  8  2  0  0  0  0
  7  9  1  0  0  0  0
  9 10  1  0  0  0  0
  9 25  1  0  0  0  0
 10 11  1  0  0  0  0
 10 26  1  0  0  0  0
 10 27  1  0  0  0  0
 11 12  1  0  0  0  0
 11 28  1  0  0  0  0
 11 29  1  0  0  0  0
 12 19  1  0  0  0  0
 12 13  1  0  0  0  0
 12 42  1  0  0  0  0
 13 14  1  0  0  0  0
 13 30  1  0  0  0  0
 13 31  1  0  0  0  0
 14 15  1  0  0  0  0
 14 16  1  0  0  0  0
 14 32  1  0  0  0  0
 15 33  1  0  0  0  0
 15 34  1  0  0  0  0
 15 35  1  0  0  0  0
 16 17  1  0  0  0  0
 17 18  1  0  0  0  0
 17 19  1  0  0  0  0
 17 36  1  0  0  0  0
 18 37  1  0  0  0  0
 18 38  1  0  0  0  0
 18 39  1  0  0  0  0
 19 40  1  0  0  0  0
 19 41  1  0  0  0  0
M  CHG  1  12   1
M  END
> <s_m_source_file>
AV-unprocessed.smi

> <i_m_source_file_index>
1641

> <i_lp_mmshare_version>
43012

> <i_f3d_flags>
0

> <s_epik_input>
W0NIM11jMW5uYyhzMSlbTkhdQyg9TylbTkhdW0NIMl1bQ0gyXU4yW0NIMl1bQ0BASF0oW0NIM10pT1tDQEBIXShbQ0gzXSlbQ0gyXTI=

> <s_epik_cmdline>
J2VwaWtfcHl0aG9uJywgJy1waCcsICc3LjAnLCAnLXRuJywgJzgnLCAnLW1hJywgJzIwMCcsICctbWV0YWxfYmluZGluZycsICctaW1hZScsICc8aW5maWxlLm1hZT4nLCAnLW9tYWUnLCAnPG91dGZpbGUubWFlPic=

> <r_lp_tautomer_probability>
1

> <r_epik_Ionization_Penalty>
0.700114

> <r_epik_Ionization_Penalty_Charging>
0.695697

> <r_epik_Ionization_Penalty_Neutral>
0.00441638

> <r_epik_State_Penalty>
0.717972

> <r_epik_Charging_Adjusted_Penalty>
1.41367

> <i_epik_Tot_Q>
1

> <i_epik_Tot_abs_Q>
1

> <r_epik_Metal_State_Penalty>
1.06958

> <b_epik_Metal_Only>
0

> <s_lp_Force_Field>
OPLS_2005

> <r_lp_Energy>
15.7554

> <b_lp_Chiralities_Consistent>
1

> <s_lp_Variant>
AV-unprocessed.smi:1641-6

> <Gold.Version>
5.8.1

> <Gold.Id.Protein>
6NUR|6NUR_protein|mol2

> <Gold.PLP.Fitness>
44.8980

> <Gold.PLP.PLP>
-28.2932

> <Gold.PLP.part.hbond>
-5.7672

> <Gold.PLP.part.metal>
0.0000

> <Gold.PLP.part.buried>
0.4497

> <Gold.PLP.part.nonpolar>
-22.6608

> <Gold.PLP.part.repulsive>
0.4952

> <Gold.PLP.ligand.clash>
0.0000

> <Gold.PLP.ligand.torsion>
0.7094

> <Gold.PLP.Chemscore.Hbond>
6.0000

> <Gold.PLP.Chemscore.CHOScore>
0.0000

> <Gold.PLP.Chemscore.Metal>
0.0000

> <Gold.Chemscore.Hbonds>
donor molecule, donor type, donor heavy atom, donor atom, acceptor molecule, acceptor atom, score
      L1  H     6    24       P1  7957  1.00
      L1  H     9    25       P1  7957  1.00
      L1  H    12    42       P1  7948  2.00
      P1  H  7989  7998       L1     4  0.98
      P1  H  7997  8008       L1     3  1.00

> <Gold.PLP.Chemscore.Internal.Correction>
0.0237

> <Gold.Rescore>
     Score         DG    S(hbond)    S(metal)    S(lipo)     H(rot)  DE(clash)    DE(int)     intcor
     21.55     -22.29       4.64        0.00      47.10       1.64       0.13       0.60       ----

> <Gold.Chemscore.Fitness>
21.5545

> <Gold.Chemscore.DG>
-22.2855

> <Gold.Chemscore.ZeroCoef>
-5.4800

> <Gold.Chemscore.Hbond>
4.6357

> <Gold.Chemscore.Metal>
0.0000

> <Gold.Chemscore.Lipo>
47.0953

> <Gold.Chemscore.Internal_Hbond>
0.0000

> <Gold.Chemscore.DEClash>
0.1329

> <Gold.Chemscore.DEInternal>
0.5981

> <Gold.Chemscore.Rot>
1.6358

> <Gold.Chemscore.Internal.Correction>
   9.000000E+99

> <Gold.Chemscore.Hbonds>
donor molecule, donor type, donor heavy atom, donor atom, acceptor molecule, acceptor atom, score
      L1  H     6    24       P1  7957  0.84
      L1  H     9    25       P1  7957  0.94
      L1  H    12    42       P1  7948  0.97
      P1  H  7989  7998       L1     4  0.37
      P1  H  7997  8008       L1     3  0.96

> <Gold.Chemscore.Hbond.Weighted>
-15.4831

> <Gold.Chemscore.Metal.Weighted>
-0.0000

> <Gold.Chemscore.Lipo.Weighted>
-5.5101

> <Gold.Chemscore.Internal_Hbond.Weighted>
0.0000

> <Gold.Chemscore.DEClash.Weighted>
0.1329

> <Gold.Chemscore.DEInternal.Weighted>
0.5981

> <Gold.Chemscore.Rot.Weighted>
4.1878

> <Gold.Chemscore.Internal.Correction.Weighted>
   9.000000E+99

> <Gold.Protein.RotatedTorsions>
[ 6907 6896 6895 6894 ] final   17.65 input  -60.11 | X-H torsion
[ 7974 7965 7964 7962 ] final   55.34 input  175.53 | X-H torsion
[ 8008 7997 7996 7995 ] final  -29.42 input   59.86 | X-H torsion
[ 10167 10162 10161 10158 ] final  -11.35 input  -65.29 | X-H torsion
[ 10718 10713 10712 10709 ] final   -9.63 input   66.30 | X-H torsion
[ 10763 10752 10751 10750 ] final  -73.46 input  -60.55 | X-H torsion
[ 11005 11000 10999 10996 ] final  -48.72 input  -57.11 | X-H torsion

> <Gold.Protein.ActiveResidues>
 VAL166  LYS551  ARG553  GLY616  TRP617  ASP618  TYR619  PRO620  LYS621  CYS622 
 ASP623  PHE694  ASN695  SER759  ASP760  ASP761  ALA762  ILE779  LEU786  VAL792 
 PHE793  MET794  SER795  GLU796  ALA797  LYS798  CYS799  TRP800  GLU811  SER814 

> <Gold.Protein.RotatedAtoms>
  151.8529  135.0551  160.0460 H   0  0  0  0  0  0  0  0  0  0  0  0  # atno 6907 bound_to 6896
  152.2722  133.5388  159.5454 H   0  0  0  0  0  0  0  0  0  0  0  0  # atno 6908 bound_to 6896
  150.7156  134.0598  159.3869 H   0  0  0  0  0  0  0  0  0  0  0  0  # atno 6909 bound_to 6896
  145.9514  139.3976  143.0303 H   0  0  0  0  0  0  0  0  0  0  0  0  # atno 7974 bound_to 7965
  154.4291  140.1819  156.1245 H   0  0  0  0  0  0  0  0  0  0  0  0  # atno 8008 bound_to 7997
  156.0117  140.3350  155.6922 H   0  0  0  0  0  0  0  0  0  0  0  0  # atno 8009 bound_to 7997
  155.6102  140.0649  157.2699 H   0  0  0  0  0  0  0  0  0  0  0  0  # atno 8010 bound_to 7997
  140.7136  143.5649  150.9155 H   0  0  0  0  0  0  0  0  0  0  0  0  # atno 10167 bound_to 10162
  156.6852  130.5049  149.5959 H   0  0  0  0  0  0  0  0  0  0  0  0  # atno 10718 bound_to 10713
  154.4597  135.5896  153.6247 H   0  0  0  0  0  0  0  0  0  0  0  0  # atno 10763 bound_to 10752
  152.9822  135.6041  154.3501 H   0  0  0  0  0  0  0  0  0  0  0  0  # atno 10764 bound_to 10752
  154.3372  135.2842  155.2420 H   0  0  0  0  0  0  0  0  0  0  0  0  # atno 10765 bound_to 10752
  141.0717  133.6677  156.3482 H   0  0  0  0  0  0  0  0  0  0  0  0  # atno 11005 bound_to 11000
  145.8166  140.9700  143.0921 LP  0  0  0  0  0  0  0  0  0  0  0  0  # atno 17320 bound_to 7965
  144.6796  139.9988  143.7484 LP  0  0  0  0  0  0  0  0  0  0  0  0  # atno 17321 bound_to 7965
  139.9374  143.6421  152.3062 LP  0  0  0  0  0  0  0  0  0  0  0  0  # atno 17342 bound_to 10162
  139.6894  144.7648  151.1466 LP  0  0  0  0  0  0  0  0  0  0  0  0  # atno 17343 bound_to 10162
  156.1838  130.6516  151.0982 LP  0  0  0  0  0  0  0  0  0  0  0  0  # atno 17370 bound_to 10713
  157.7029  131.0768  150.6762 LP  0  0  0  0  0  0  0  0  0  0  0  0  # atno 17371 bound_to 10713
  140.5659  134.5888  157.5445 LP  0  0  0  0  0  0  0  0  0  0  0  0  # atno 17394 bound_to 11000
  139.9530  134.7583  156.0404 LP  0  0  0  0  0  0  0  0  0  0  0  0  # atno 17395 bound_to 11000

$$$$
