AV-unprocessed.smi:1088|AV-procd|sdf|4730|dock10
  -GOLD-   22720 3263D 1   1.00000     0.00000
 Structure written by MMmdl.
 48 49  0  0  0  0  0  0  0  0  2 V2000
  147.3061  140.1071  153.3943 C   0  0  0  0  0  0  0  0  0  0  0  0
  148.5403  140.1825  154.0860 O   0  0  0  0  0  0  0  0  0  0  0  0
  149.2753  138.9723  154.0184 C   0  0  0  0  0  0  0  0  0  0  0  0
  148.5371  137.8956  154.8260 C   0  0  0  0  0  0  0  0  0  0  0  0
  149.1174  136.5466  154.6128 N   0  3  2  0  0  0  0  0  0  0  0  0
  148.3682  135.4191  155.2149 C   0  0  0  0  0  0  0  0  0  0  0  0
  149.4004  134.3326  155.5473 C   0  0  0  0  0  0  0  0  0  0  0  0
  150.7165  134.8451  154.9639 C   0  0  0  0  0  0  0  0  0  0  0  0
  150.5488  136.3691  154.9562 C   0  0  2  0  0  0  0  0  0  0  0  0
  150.9462  137.0273  156.3043 C   0  0  0  0  0  0  0  0  0  0  0  0
  151.3727  138.4114  156.1370 N   0  0  0  0  0  0  0  0  0  0  0  0
  150.7724  139.4831  156.6815 C   0  0  0  0  0  0  0  0  0  0  0  0
  149.7824  139.3918  157.4062 O   0  0  0  0  0  0  0  0  0  0  0  0
  151.3450  140.8760  156.3679 C   0  0  0  0  0  0  0  0  0  0  0  0
  151.7820  141.6421  157.5450 N   0  0  0  0  0  0  0  0  0  0  0  0
  151.2210  142.8803  157.8002 C   0  0  0  0  0  0  0  0  0  0  0  0
  151.5771  143.6585  158.8453 C   0  0  0  0  0  0  0  0  0  0  0  0
  152.5979  143.2223  159.7904 C   0  0  0  0  0  0  0  0  0  0  0  0
  152.9678  143.9101  160.7425 O   0  0  0  0  0  0  0  0  0  0  0  0
  153.1432  141.9450  159.5159 N   0  0  0  0  0  0  0  0  0  0  0  0
  154.1776  141.4289  160.3885 C   0  0  0  0  0  0  0  0  0  0  0  0
  152.7778  141.1430  158.4119 C   0  0  0  0  0  0  0  0  0  0  0  0
  153.3113  140.0529  158.1933 O   0  0  0  0  0  0  0  0  0  0  0  0
  146.7817  141.0589  153.4765 H   0  0  0  0  0  0  0  0  0  0  0  0
  146.6645  139.3320  153.8154 H   0  0  0  0  0  0  0  0  0  0  0  0
  147.4594  139.8979  152.3348 H   0  0  0  0  0  0  0  0  0  0  0  0
  149.3564  138.6535  152.9785 H   0  0  0  0  0  0  0  0  0  0  0  0
  150.2902  139.1147  154.3918 H   0  0  0  0  0  0  0  0  0  0  0  0
  148.5943  138.1485  155.8856 H   0  0  0  0  0  0  0  0  0  0  0  0
  147.4803  137.8921  154.5560 H   0  0  0  0  0  0  0  0  0  0  0  0
  147.8505  135.7321  156.1229 H   0  0  0  0  0  0  0  0  0  0  0  0
  147.6183  135.0584  154.5101 H   0  0  0  0  0  0  0  0  0  0  0  0
  149.4899  134.2268  156.6293 H   0  0  0  0  0  0  0  0  0  0  0  0
  149.1252  133.3582  155.1426 H   0  0  0  0  0  0  0  0  0  0  0  0
  151.5893  134.4931  155.5144 H   0  0  0  0  0  0  0  0  0  0  0  0
  150.8179  134.4890  153.9376 H   0  0  0  0  0  0  0  0  0  0  0  0
  151.1509  136.8063  154.1586 H   0  0  0  0  0  0  0  0  0  0  0  0
  150.1174  137.0080  157.0131 H   0  0  0  0  0  0  0  0  0  0  0  0
  151.7639  136.4787  156.7727 H   0  0  0  0  0  0  0  0  0  0  0  0
  152.1855  138.5718  155.5595 H   0  0  0  0  0  0  0  0  0  0  0  0
  152.1882  140.7475  155.6878 H   0  0  0  0  0  0  0  0  0  0  0  0
  150.6028  141.4404  155.8009 H   0  0  0  0  0  0  0  0  0  0  0  0
  150.4624  143.2502  157.1256 H   0  0  0  0  0  0  0  0  0  0  0  0
  151.1028  144.6192  158.9824 H   0  0  0  0  0  0  0  0  0  0  0  0
  153.9800  140.3707  160.5681 H   0  0  0  0  0  0  0  0  0  0  0  0
  154.1652  141.9456  161.3479 H   0  0  0  0  0  0  0  0  0  0  0  0
  155.1283  141.5772  159.8747 H   0  0  0  0  0  0  0  0  0  0  0  0
  149.0788  136.3866  153.6159 H   0  0  0  0  0  0  0  0  0  0  0  0
  1  2  1  0  0  0  0
  1 24  1  0  0  0  0
  1 25  1  0  0  0  0
  1 26  1  0  0  0  0
  2  3  1  0  0  0  0
  3  4  1  0  0  0  0
  3 27  1  0  0  0  0
  3 28  1  0  0  0  0
  4  5  1  0  0  0  0
  4 29  1  0  0  0  0
  4 30  1  0  0  0  0
  5  9  1  0  0  0  0
  5  6  1  0  0  0  0
  5 48  1  0  0  0  0
  6  7  1  0  0  0  0
  6 31  1  0  0  0  0
  6 32  1  0  0  0  0
  7  8  1  0  0  0  0
  7 33  1  0  0  0  0
  7 34  1  0  0  0  0
  8  9  1  0  0  0  0
  8 35  1  0  0  0  0
  8 36  1  0  0  0  0
  9 10  1  0  0  0  0
  9 37  1  0  0  0  0
 10 11  1  0  0  0  0
 10 38  1  0  0  0  0
 10 39  1  0  0  0  0
 11 12  1  0  0  0  0
 11 40  1  0  0  0  0
 12 13  2  0  0  0  0
 12 14  1  0  0  0  0
 14 15  1  0  0  0  0
 14 41  1  0  0  0  0
 14 42  1  0  0  0  0
 15 22  1  0  0  0  0
 15 16  1  0  0  0  0
 16 17  2  0  0  0  0
 16 43  1  0  0  0  0
 17 18  1  0  0  0  0
 17 44  1  0  0  0  0
 18 19  2  0  0  0  0
 18 20  1  0  0  0  0
 20 21  1  0  0  0  0
 20 22  1  0  0  0  0
 21 45  1  0  0  0  0
 21 46  1  0  0  0  0
 21 47  1  0  0  0  0
 22 23  2  0  0  0  0
M  CHG  1   5   1
M  END
> <s_m_source_file>
AV-unprocessed.smi

> <i_m_source_file_index>
1088

> <i_lp_mmshare_version>
43012

> <i_f3d_flags>
0

> <s_epik_input>
W0NIM11PW0NIMl1bQ0gyXU4xW0NIMl1bQ0gyXVtDSDJdW0NASF0xW0NIMl1bTkhdQyg9TylbQ0gyXW4yW2NIXVtjSF1jKD1PKW4oW0NIM10pYzI9Tw==

> <s_epik_cmdline>
J2VwaWtfcHl0aG9uJywgJy1waCcsICc3LjAnLCAnLXRuJywgJzgnLCAnLW1hJywgJzIwMCcsICctbWV0YWxfYmluZGluZycsICctaW1hZScsICc8aW5maWxlLm1hZT4nLCAnLW9tYWUnLCAnPG91dGZpbGUubWFlPic=

> <r_lp_tautomer_probability>
1

> <r_epik_Ionization_Penalty>
0.0127388

> <r_epik_Ionization_Penalty_Charging>
0.0127387

> <r_epik_Ionization_Penalty_Neutral>
8.26414e-08

> <r_epik_State_Penalty>
0.00987716

> <r_epik_Charging_Adjusted_Penalty>
0.0226159

> <i_epik_Tot_Q>
1

> <i_epik_Tot_abs_Q>
1

> <r_epik_Metal_State_Penalty>
0.00987836

> <b_epik_Metal_Only>
0

> <s_lp_Force_Field>
OPLS_2005

> <r_lp_Energy>
40.6263

> <b_lp_Chiralities_Consistent>
1

> <s_lp_Variant>
AV-unprocessed.smi:1088-3

> <Gold.Version>
5.8.1

> <Gold.Id.Protein>
6NUR|6NUR_protein|mol2

> <Gold.PLP.Fitness>
46.4693

> <Gold.PLP.PLP>
-35.3134

> <Gold.PLP.part.hbond>
-2.0000

> <Gold.PLP.part.metal>
0.0000

> <Gold.PLP.part.buried>
-2.7468

> <Gold.PLP.part.nonpolar>
-29.6943

> <Gold.PLP.part.repulsive>
0.2649

> <Gold.PLP.ligand.clash>
0.0000

> <Gold.PLP.ligand.torsion>
0.3910

> <Gold.PLP.Chemscore.Hbond>
2.9600

> <Gold.PLP.Chemscore.CHOScore>
1.0000

> <Gold.PLP.Chemscore.Metal>
0.0000

> <Gold.Chemscore.Hbonds>
donor molecule, donor type, donor heavy atom, donor atom, acceptor molecule, acceptor atom, score
      L1  H     5    48       P1  7948  2.00
      P1  H  7997  8010       L1    23  1.00
      L1  C    16    43       P1  8028  0.83

> <Gold.PLP.Chemscore.Internal.Correction>
0.0578

> <Gold.Rescore>
     Score         DG    S(hbond)    S(metal)    S(lipo)     H(rot)  DE(clash)    DE(int)     intcor
     12.47     -13.76       1.94        0.00      71.61       2.57       0.05       1.23       ----

> <Gold.Chemscore.Fitness>
12.4728

> <Gold.Chemscore.DG>
-13.7551

> <Gold.Chemscore.ZeroCoef>
-5.4800

> <Gold.Chemscore.Hbond>
1.9382

> <Gold.Chemscore.Metal>
0.0000

> <Gold.Chemscore.Lipo>
71.6117

> <Gold.Chemscore.Internal_Hbond>
0.0000

> <Gold.Chemscore.DEClash>
0.0540

> <Gold.Chemscore.DEInternal>
1.2283

> <Gold.Chemscore.Rot>
2.5692

> <Gold.Chemscore.Internal.Correction>
   9.000000E+99

> <Gold.Chemscore.Hbonds>
donor molecule, donor type, donor heavy atom, donor atom, acceptor molecule, acceptor atom, score
      L1  H     5    48       P1  7948  0.98
      P1  H  7997  8010       L1    23  0.89

> <Gold.Chemscore.Hbond.Weighted>
-6.4737

> <Gold.Chemscore.Metal.Weighted>
-0.0000

> <Gold.Chemscore.Lipo.Weighted>
-8.3786

> <Gold.Chemscore.Internal_Hbond.Weighted>
0.0000

> <Gold.Chemscore.DEClash.Weighted>
0.0540

> <Gold.Chemscore.DEInternal.Weighted>
1.2283

> <Gold.Chemscore.Rot.Weighted>
6.5772

> <Gold.Chemscore.Internal.Correction.Weighted>
   9.000000E+99

> <Gold.Protein.RotatedTorsions>
[ 6907 6896 6895 6894 ] final  -54.94 input  -60.11 | X-H torsion
[ 7974 7965 7964 7962 ] final   97.38 input  175.53 | X-H torsion
[ 8008 7997 7996 7995 ] final   33.88 input   59.86 | X-H torsion
[ 10167 10162 10161 10158 ] final    0.58 input  -65.29 | X-H torsion
[ 10718 10713 10712 10709 ] final  -52.63 input   66.30 | X-H torsion
[ 10763 10752 10751 10750 ] final  138.84 input  -60.55 | X-H torsion
[ 11005 11000 10999 10996 ] final  122.80 input  -57.11 | X-H torsion

> <Gold.Protein.ActiveResidues>
 VAL166  LYS551  ARG553  GLY616  TRP617  ASP618  TYR619  PRO620  LYS621  CYS622 
 ASP623  PHE694  ASN695  SER759  ASP760  ASP761  ALA762  ILE779  LEU786  VAL792 
 PHE793  MET794  SER795  GLU796  ALA797  LYS798  CYS799  TRP800  GLU811  SER814 

> <Gold.Protein.RotatedAtoms>
  150.8295  134.7541  159.6840 H   0  0  0  0  0  0  0  0  0  0  0  0  # atno 6907 bound_to 6896
  152.4401  134.5605  159.9902 H   0  0  0  0  0  0  0  0  0  0  0  0  # atno 6908 bound_to 6896
  151.5769  133.3345  159.3036 H   0  0  0  0  0  0  0  0  0  0  0  0  # atno 6909 bound_to 6896
  145.4263  139.2315  143.3168 H   0  0  0  0  0  0  0  0  0  0  0  0  # atno 7974 bound_to 7965
  155.1459  140.3270  155.4442 H   0  0  0  0  0  0  0  0  0  0  0  0  # atno 8008 bound_to 7997
  156.2590  140.1985  156.6522 H   0  0  0  0  0  0  0  0  0  0  0  0  # atno 8009 bound_to 7997
  154.6509  140.0558  156.9940 H   0  0  0  0  0  0  0  0  0  0  0  0  # atno 8010 bound_to 7997
  140.6722  143.7017  150.7947 H   0  0  0  0  0  0  0  0  0  0  0  0  # atno 10167 bound_to 10162
  156.1604  130.4150  149.9802 H   0  0  0  0  0  0  0  0  0  0  0  0  # atno 10718 bound_to 10713
  153.8962  135.3027  155.3448 H   0  0  0  0  0  0  0  0  0  0  0  0  # atno 10763 bound_to 10752
  154.7692  135.4894  153.9618 H   0  0  0  0  0  0  0  0  0  0  0  0  # atno 10764 bound_to 10752
  153.1270  135.6795  153.9340 H   0  0  0  0  0  0  0  0  0  0  0  0  # atno 10765 bound_to 10752
  139.9284  134.9641  156.8163 H   0  0  0  0  0  0  0  0  0  0  0  0  # atno 11005 bound_to 11000
  146.2630  140.4994  142.8845 LP  0  0  0  0  0  0  0  0  0  0  0  0  # atno 17320 bound_to 7965
  144.8212  140.6553  143.6352 LP  0  0  0  0  0  0  0  0  0  0  0  0  # atno 17321 bound_to 7965
  140.0704  143.5067  152.2583 LP  0  0  0  0  0  0  0  0  0  0  0  0  # atno 17342 bound_to 10162
  139.5996  144.7578  151.3204 LP  0  0  0  0  0  0  0  0  0  0  0  0  # atno 17343 bound_to 10162
  156.7632  130.9159  151.3642 LP  0  0  0  0  0  0  0  0  0  0  0  0  # atno 17370 bound_to 10713
  157.6728  130.9067  150.0080 LP  0  0  0  0  0  0  0  0  0  0  0  0  # atno 17371 bound_to 10713
  140.6271  133.9940  155.7644 LP  0  0  0  0  0  0  0  0  0  0  0  0  # atno 17394 bound_to 11000
  141.0857  133.9994  157.3317 LP  0  0  0  0  0  0  0  0  0  0  0  0  # atno 17395 bound_to 11000

$$$$
