AV-unprocessed.smi:2729|AV-procd|sdf|10527|dock6
  -GOLD-   2272014573D 1   1.00000     0.00000
 Structure written by MMmdl.
 33 34  0  0  0  0  0  0  0  0  1 V2000
  153.8446  137.5252  160.9746 C   0  0  0  0  0  0  0  0  0  0  0  0
  154.8147  138.6570  161.3735 C   0  0  2  0  0  0  0  0  0  0  0  0
  154.1836  139.9694  161.1738 N   0  0  0  0  0  0  0  0  0  0  0  0
  153.7207  140.5078  160.0338 C   0  0  0  0  0  0  0  0  0  0  0  0
  153.7457  139.9374  158.9439 O   0  0  0  0  0  0  0  0  0  0  0  0
  153.2176  141.7343  160.2540 N   0  0  0  0  0  0  0  0  0  0  0  0
  152.6552  142.6412  159.3158 C   0  0  0  0  0  0  0  0  0  0  0  0
  152.8119  144.0474  159.3745 C   0  0  0  0  0  0  0  0  0  0  0  0
  152.1852  144.8422  158.3956 C   0  0  0  0  0  0  0  0  0  0  0  0
  151.4206  144.2043  157.3997 C   0  0  0  0  0  0  0  0  0  0  0  0
  151.2517  142.8667  157.3394 N   0  0  0  0  0  0  0  0  0  0  0  0
  151.8547  142.1112  158.2818 C   0  0  0  0  0  0  0  0  0  0  0  0
  156.1573  138.5596  160.6007 C   0  0  0  0  0  0  0  0  0  0  0  0
  157.2129  139.4293  161.2936 C   0  0  0  0  0  0  0  0  0  0  0  0
  156.8028  139.3744  163.0761 S   0  0  0  0  0  0  0  0  0  0  0  0
  157.7233  138.4600  163.7687 O   0  0  0  0  0  0  0  0  0  0  0  0
  156.5928  140.7479  163.5588 O   0  0  0  0  0  0  0  0  0  0  0  0
  155.1789  138.5463  162.8679 C   0  0  0  0  0  0  0  0  0  0  0  0
  154.2726  136.5452  161.1875 H   0  0  0  0  0  0  0  0  0  0  0  0
  153.6091  137.5436  159.9107 H   0  0  0  0  0  0  0  0  0  0  0  0
  152.9055  137.5981  161.5243 H   0  0  0  0  0  0  0  0  0  0  0  0
  154.1023  140.5385  162.0037 H   0  0  0  0  0  0  0  0  0  0  0  0
  153.1883  142.0362  161.2170 H   0  0  0  0  0  0  0  0  0  0  0  0
  153.3823  144.5307  160.1522 H   0  0  0  0  0  0  0  0  0  0  0  0
  152.2844  145.9173  158.4110 H   0  0  0  0  0  0  0  0  0  0  0  0
  150.9264  144.7845  156.6346 H   0  0  0  0  0  0  0  0  0  0  0  0
  151.6947  141.0456  158.2035 H   0  0  0  0  0  0  0  0  0  0  0  0
  156.5018  137.5250  160.6334 H   0  0  0  0  0  0  0  0  0  0  0  0
  156.0669  138.8101  159.5440 H   0  0  0  0  0  0  0  0  0  0  0  0
  158.2312  139.0772  161.1279 H   0  0  0  0  0  0  0  0  0  0  0  0
  157.1420  140.4650  160.9605 H   0  0  0  0  0  0  0  0  0  0  0  0
  154.4403  138.9896  163.5371 H   0  0  0  0  0  0  0  0  0  0  0  0
  155.3116  137.5036  163.1593 H   0  0  0  0  0  0  0  0  0  0  0  0
  1  2  1  0  0  0  0
  1 19  1  0  0  0  0
  1 20  1  0  0  0  0
  1 21  1  0  0  0  0
  2 18  1  0  0  0  0
  2  3  1  0  0  0  0
  2 13  1  0  0  0  0
  3  4  1  0  0  0  0
  3 22  1  0  0  0  0
  4  5  2  0  0  0  0
  4  6  1  0  0  0  0
  6  7  1  0  0  0  0
  6 23  1  0  0  0  0
  7 12  1  0  0  0  0
  7  8  2  0  0  0  0
  8  9  1  0  0  0  0
  8 24  1  0  0  0  0
  9 10  2  0  0  0  0
  9 25  1  0  0  0  0
 10 11  1  0  0  0  0
 10 26  1  0  0  0  0
 11 12  2  0  0  0  0
 12 27  1  0  0  0  0
 13 14  1  0  0  0  0
 13 28  1  0  0  0  0
 13 29  1  0  0  0  0
 14 15  1  0  0  0  0
 14 30  1  0  0  0  0
 14 31  1  0  0  0  0
 15 16  2  0  0  0  0
 15 17  2  0  0  0  0
 15 18  1  0  0  0  0
 18 32  1  0  0  0  0
 18 33  1  0  0  0  0
M  END
> <s_m_source_file>
AV-unprocessed.smi

> <i_m_source_file_index>
2729

> <i_lp_mmshare_version>
43012

> <i_f3d_flags>
0

> <s_epik_input>
Tz1TKD1PKShbQ0gyXTEpW0NIMl1bQ0gyXVtDQEBdMShbQ0gzXSlbTkhdQyg9TylbTkhdYzJbY0hdW2NIXVtjSF1uW2NIXTI=

> <s_epik_cmdline>
J2VwaWtfcHl0aG9uJywgJy1waCcsICc3LjAnLCAnLXRuJywgJzgnLCAnLW1hJywgJzIwMCcsICctbWV0YWxfYmluZGluZycsICctaW1hZScsICc8aW5maWxlLm1hZT4nLCAnLW9tYWUnLCAnPG91dGZpbGUubWFlPic=

> <r_epik_Ionization_Penalty>
0.00438887

> <r_epik_Ionization_Penalty_Charging>
0

> <r_epik_Ionization_Penalty_Neutral>
0.00438887

> <r_epik_State_Penalty>
0.00314315

> <r_epik_Charging_Adjusted_Penalty>
0.00314315

> <i_epik_Tot_Q>
0

> <i_epik_Tot_abs_Q>
0

> <r_epik_Metal_State_Penalty>
-0

> <b_epik_Metal_Only>
0

> <s_lp_Force_Field>
OPLS_2005

> <r_lp_Energy>
5.04322

> <b_lp_Chiralities_Consistent>
1

> <s_lp_Variant>
AV-unprocessed.smi:2729-2

> <Gold.Version>
5.8.1

> <Gold.Id.Protein>
6NUR|6NUR_protein|mol2

> <Gold.PLP.Fitness>
35.3424

> <Gold.PLP.PLP>
-29.8938

> <Gold.PLP.part.hbond>
-2.0000

> <Gold.PLP.part.metal>
0.0000

> <Gold.PLP.part.buried>
-3.3222

> <Gold.PLP.part.nonpolar>
-24.6264

> <Gold.PLP.part.repulsive>
0.1677

> <Gold.PLP.ligand.clash>
0.0000

> <Gold.PLP.ligand.torsion>
0.2832

> <Gold.PLP.Chemscore.Hbond>
1.0000

> <Gold.PLP.Chemscore.CHOScore>
1.0000

> <Gold.PLP.Chemscore.Metal>
0.0000

> <Gold.Chemscore.Hbonds>
donor molecule, donor type, donor heavy atom, donor atom, acceptor molecule, acceptor atom, score
      P1  H  7997  8008       L1     5  0.99
      L1  C    10    26       P1  8028  1.00

> <Gold.PLP.Chemscore.Internal.Correction>
0.0150

> <Gold.Rescore>
     Score         DG    S(hbond)    S(metal)    S(lipo)     H(rot)  DE(clash)    DE(int)     intcor
     13.36     -16.07       0.97        0.00      84.79       1.00       1.28       1.44       ----

> <Gold.Chemscore.Fitness>
13.3566

> <Gold.Chemscore.DG>
-16.0748

> <Gold.Chemscore.ZeroCoef>
-5.4800

> <Gold.Chemscore.Hbond>
0.9685

> <Gold.Chemscore.Metal>
0.0000

> <Gold.Chemscore.Lipo>
84.7856

> <Gold.Chemscore.Internal_Hbond>
0.0000

> <Gold.Chemscore.DEClash>
1.2798

> <Gold.Chemscore.DEInternal>
1.4384

> <Gold.Chemscore.Rot>
1.0000

> <Gold.Chemscore.Internal.Correction>
   9.000000E+99

> <Gold.Chemscore.Hbonds>
donor molecule, donor type, donor heavy atom, donor atom, acceptor molecule, acceptor atom, score
      P1  H  7997  8008       L1     5  0.90

> <Gold.Chemscore.Hbond.Weighted>
-3.2349

> <Gold.Chemscore.Metal.Weighted>
-0.0000

> <Gold.Chemscore.Lipo.Weighted>
-9.9199

> <Gold.Chemscore.Internal_Hbond.Weighted>
0.0000

> <Gold.Chemscore.DEClash.Weighted>
1.2798

> <Gold.Chemscore.DEInternal.Weighted>
1.4384

> <Gold.Chemscore.Rot.Weighted>
2.5600

> <Gold.Chemscore.Internal.Correction.Weighted>
   9.000000E+99

> <Gold.Protein.RotatedTorsions>
[ 6907 6896 6895 6894 ] final  139.59 input  -60.11 | X-H torsion
[ 7974 7965 7964 7962 ] final -130.64 input  175.53 | X-H torsion
[ 8008 7997 7996 7995 ] final -105.28 input   59.86 | X-H torsion
[ 10167 10162 10161 10158 ] final -123.60 input  -65.29 | X-H torsion
[ 10718 10713 10712 10709 ] final -117.69 input   66.30 | X-H torsion
[ 10763 10752 10751 10750 ] final   95.22 input  -60.55 | X-H torsion
[ 11005 11000 10999 10996 ] final -148.30 input  -57.11 | X-H torsion

> <Gold.Protein.ActiveResidues>
 VAL166  LYS551  ARG553  GLY616  TRP617  ASP618  TYR619  PRO620  LYS621  CYS622 
 ASP623  PHE694  ASN695  SER759  ASP760  ASP761  ALA762  ILE779  LEU786  VAL792 
 PHE793  MET794  SER795  GLU796  ALA797  LYS798  CYS799  TRP800  GLU811  SER814 

> <Gold.Protein.RotatedAtoms>
  152.2531  133.5232  159.5336 H   0  0  0  0  0  0  0  0  0  0  0  0  # atno 6907 bound_to 6896
  150.7100  134.0933  159.3948 H   0  0  0  0  0  0  0  0  0  0  0  0  # atno 6908 bound_to 6896
  151.8853  135.0438  160.0543 H   0  0  0  0  0  0  0  0  0  0  0  0  # atno 6909 bound_to 6896
  144.9455  140.7287  143.4820 H   0  0  0  0  0  0  0  0  0  0  0  0  # atno 7974 bound_to 7965
  154.8975  140.0414  157.1874 H   0  0  0  0  0  0  0  0  0  0  0  0  # atno 8008 bound_to 7997
  154.8478  140.2924  155.5597 H   0  0  0  0  0  0  0  0  0  0  0  0  # atno 8009 bound_to 7997
  156.2995  140.2470  156.3431 H   0  0  0  0  0  0  0  0  0  0  0  0  # atno 8010 bound_to 7997
  140.0017  143.5533  152.2300 H   0  0  0  0  0  0  0  0  0  0  0  0  # atno 10167 bound_to 10162
  156.1052  130.6204  150.9196 H   0  0  0  0  0  0  0  0  0  0  0  0  # atno 10718 bound_to 10713
  153.2507  135.4261  155.0794 H   0  0  0  0  0  0  0  0  0  0  0  0  # atno 10763 bound_to 10752
  154.8380  135.3425  154.6517 H   0  0  0  0  0  0  0  0  0  0  0  0  # atno 10764 bound_to 10752
  153.6938  135.7032  153.5139 H   0  0  0  0  0  0  0  0  0  0  0  0  # atno 10765 bound_to 10752
  140.7627  134.3280  157.5097 H   0  0  0  0  0  0  0  0  0  0  0  0  # atno 11005 bound_to 11000
  145.2924  139.1879  143.4733 LP  0  0  0  0  0  0  0  0  0  0  0  0  # atno 17320 bound_to 7965
  146.3302  140.2903  142.8615 LP  0  0  0  0  0  0  0  0  0  0  0  0  # atno 17321 bound_to 7965
  139.6267  144.7638  151.2624 LP  0  0  0  0  0  0  0  0  0  0  0  0  # atno 17342 bound_to 10162
  140.7416  143.6552  150.8213 LP  0  0  0  0  0  0  0  0  0  0  0  0  # atno 17343 bound_to 10162
  157.6227  131.0928  150.8591 LP  0  0  0  0  0  0  0  0  0  0  0  0  # atno 17370 bound_to 10713
  156.8712  130.5146  149.5296 LP  0  0  0  0  0  0  0  0  0  0  0  0  # atno 17371 bound_to 10713
  139.8768  134.9212  156.3269 LP  0  0  0  0  0  0  0  0  0  0  0  0  # atno 17394 bound_to 11000
  140.9648  133.7365  156.0451 LP  0  0  0  0  0  0  0  0  0  0  0  0  # atno 17395 bound_to 11000

$$$$
