AV-unprocessed.smi:2399|AV-procd|sdf|9499|dock6
  -GOLD-   2272013133D 1   1.00000     0.00000
 Structure written by MMmdl.
 53 55  0  0  0  0  0  0  0  0  2 V2000
  153.9185  139.3749  160.3797 C   0  0  0  0  0  0  0  0  0  0  0  0
  153.1009  139.8623  159.3259 O   0  0  0  0  0  0  0  0  0  0  0  0
  152.7642  141.2019  159.3259 C   0  0  0  0  0  0  0  0  0  0  0  0
  153.2263  142.1273  160.2964 C   0  0  0  0  0  0  0  0  0  0  0  0
  152.8290  143.4730  160.2122 C   0  0  0  0  0  0  0  0  0  0  0  0
  151.9801  143.8503  159.1568 C   0  0  0  0  0  0  0  0  0  0  0  0
  151.5153  145.2831  159.0028 C   0  0  0  0  0  0  0  0  0  0  0  0
  151.5358  142.9804  158.2279 N   0  0  0  0  0  0  0  0  0  0  0  0
  151.9110  141.6792  158.2976 C   0  0  0  0  0  0  0  0  0  0  0  0
  151.4806  140.7019  157.3585 N   0  0  0  0  0  0  0  0  0  0  0  0
  150.9953  139.4713  157.5970 C   0  0  0  0  0  0  0  0  0  0  0  0
  150.8268  138.9724  158.7103 O   0  0  0  0  0  0  0  0  0  0  0  0
  150.6987  138.8370  156.4532 N   0  0  0  0  0  0  0  0  0  0  0  0
  150.1359  137.4931  156.3630 C   0  0  2  0  0  0  0  0  0  0  0  0
  151.0544  136.5940  155.5241 C   0  0  0  0  0  0  0  0  0  0  0  0
  150.4476  135.1925  155.3419 C   0  0  0  0  0  0  0  0  0  0  0  0
  149.0928  135.2570  154.7256 N   0  3  1  0  0  0  0  0  0  0  0  0
  148.5176  133.9125  154.4297 C   0  0  0  0  0  0  0  0  0  0  0  0
  149.5245  132.9187  153.8332 C   0  0  0  0  0  0  0  0  0  0  0  0
  148.6632  131.8321  153.1871 C   0  0  0  0  0  0  0  0  0  0  0  0
  147.3529  132.5191  152.7822 C   0  0  0  0  0  0  0  0  0  0  0  0
  147.4142  133.9388  153.3597 C   0  0  0  0  0  0  0  0  0  0  0  0
  148.1786  136.1071  155.5383 C   0  0  0  0  0  0  0  0  0  0  0  0
  148.7387  137.5263  155.7224 C   0  0  0  0  0  0  0  0  0  0  0  0
  154.1030  138.3114  160.2287 H   0  0  0  0  0  0  0  0  0  0  0  0
  153.4315  139.4902  161.3490 H   0  0  0  0  0  0  0  0  0  0  0  0
  154.8864  139.8775  160.3987 H   0  0  0  0  0  0  0  0  0  0  0  0
  153.8778  141.8326  161.1049 H   0  0  0  0  0  0  0  0  0  0  0  0
  153.1699  144.1939  160.9406 H   0  0  0  0  0  0  0  0  0  0  0  0
  151.7306  145.8661  159.8988 H   0  0  0  0  0  0  0  0  0  0  0  0
  150.4400  145.3202  158.8250 H   0  0  0  0  0  0  0  0  0  0  0  0
  152.0194  145.7539  158.1586 H   0  0  0  0  0  0  0  0  0  0  0  0
  151.5447  140.9815  156.3909 H   0  0  0  0  0  0  0  0  0  0  0  0
  150.8706  139.3207  155.5837 H   0  0  0  0  0  0  0  0  0  0  0  0
  150.0610  137.0674  157.3660 H   0  0  0  0  0  0  0  0  0  0  0  0
  151.2247  137.0447  154.5451 H   0  0  0  0  0  0  0  0  0  0  0  0
  152.0321  136.5115  156.0008 H   0  0  0  0  0  0  0  0  0  0  0  0
  151.1269  134.6128  154.7183 H   0  0  0  0  0  0  0  0  0  0  0  0
  150.3864  134.6808  156.3039 H   0  0  0  0  0  0  0  0  0  0  0  0
  148.1101  133.4882  155.3494 H   0  0  0  0  0  0  0  0  0  0  0  0
  150.1269  133.4089  153.0669 H   0  0  0  0  0  0  0  0  0  0  0  0
  150.2036  132.5002  154.5768 H   0  0  0  0  0  0  0  0  0  0  0  0
  149.1651  131.3640  152.3397 H   0  0  0  0  0  0  0  0  0  0  0  0
  148.4531  131.0482  153.9158 H   0  0  0  0  0  0  0  0  0  0  0  0
  147.2339  132.5464  151.6984 H   0  0  0  0  0  0  0  0  0  0  0  0
  146.5016  131.9718  153.1887 H   0  0  0  0  0  0  0  0  0  0  0  0
  146.4488  134.2516  153.7587 H   0  0  0  0  0  0  0  0  0  0  0  0
  147.6838  134.6360  152.5647 H   0  0  0  0  0  0  0  0  0  0  0  0
  147.2034  136.1889  155.0599 H   0  0  0  0  0  0  0  0  0  0  0  0
  148.0148  135.6399  156.5107 H   0  0  0  0  0  0  0  0  0  0  0  0
  148.0546  138.1101  156.3396 H   0  0  0  0  0  0  0  0  0  0  0  0
  148.7847  138.0272  154.7542 H   0  0  0  0  0  0  0  0  0  0  0  0
  149.2044  135.7217  153.8358 H   0  0  0  0  0  0  0  0  0  0  0  0
  1  2  1  0  0  0  0
  1 25  1  0  0  0  0
  1 26  1  0  0  0  0
  1 27  1  0  0  0  0
  2  3  1  0  0  0  0
  3  9  1  0  0  0  0
  3  4  2  0  0  0  0
  4  5  1  0  0  0  0
  4 28  1  0  0  0  0
  5  6  2  0  0  0  0
  5 29  1  0  0  0  0
  6  7  1  0  0  0  0
  6  8  1  0  0  0  0
  7 30  1  0  0  0  0
  7 31  1  0  0  0  0
  7 32  1  0  0  0  0
  8  9  2  0  0  0  0
  9 10  1  0  0  0  0
 10 11  1  0  0  0  0
 10 33  1  0  0  0  0
 11 12  2  0  0  0  0
 11 13  1  0  0  0  0
 13 14  1  0  0  0  0
 13 34  1  0  0  0  0
 14 24  1  0  0  0  0
 14 15  1  0  0  0  0
 14 35  1  0  0  0  0
 15 16  1  0  0  0  0
 15 36  1  0  0  0  0
 15 37  1  0  0  0  0
 16 17  1  0  0  0  0
 16 38  1  0  0  0  0
 16 39  1  0  0  0  0
 17 18  1  0  0  0  0
 17 23  1  0  0  0  0
 17 53  1  0  0  0  0
 18 22  1  0  0  0  0
 18 19  1  0  0  0  0
 18 40  1  0  0  0  0
 19 20  1  0  0  0  0
 19 41  1  0  0  0  0
 19 42  1  0  0  0  0
 20 21  1  0  0  0  0
 20 43  1  0  0  0  0
 20 44  1  0  0  0  0
 21 22  1  0  0  0  0
 21 45  1  0  0  0  0
 21 46  1  0  0  0  0
 22 47  1  0  0  0  0
 22 48  1  0  0  0  0
 23 24  1  0  0  0  0
 23 49  1  0  0  0  0
 23 50  1  0  0  0  0
 24 51  1  0  0  0  0
 24 52  1  0  0  0  0
M  CHG  1  17   1
M  END
> <s_m_source_file>
AV-unprocessed.smi

> <i_m_source_file_index>
2399

> <i_lp_mmshare_version>
43012

> <i_f3d_flags>
0

> <s_epik_input>
W0NIM11PYzFbY0hdW2NIXWMoW0NIM10pbmMxW05IXUMoPU8pW05IXVtDSF0yW0NIMl1bQ0gyXU4oW0NIMl1bQ0gyXTIpW0NIXTNbQ0gyXVtDSDJdW0NIMl1bQ0gyXTM=

> <s_epik_cmdline>
J2VwaWtfcHl0aG9uJywgJy1waCcsICc3LjAnLCAnLXRuJywgJzgnLCAnLW1hJywgJzIwMCcsICctbWV0YWxfYmluZGluZycsICctaW1hZScsICc8aW5maWxlLm1hZT4nLCAnLW9tYWUnLCAnPG91dGZpbGUubWFlPic=

> <r_lp_tautomer_probability>
1

> <r_epik_Ionization_Penalty>
0.00183805

> <r_epik_Ionization_Penalty_Charging>
0.00179121

> <r_epik_Ionization_Penalty_Neutral>
4.68398e-05

> <r_epik_State_Penalty>
0.00121448

> <r_epik_Charging_Adjusted_Penalty>
0.0030057

> <i_epik_Tot_Q>
1

> <i_epik_Tot_abs_Q>
1

> <r_epik_Metal_State_Penalty>
-0

> <b_epik_Metal_Only>
0

> <s_lp_Force_Field>
OPLS_2005

> <r_lp_Energy>
41.4811

> <b_lp_Chiralities_Consistent>
1

> <s_lp_Variant>
AV-unprocessed.smi:2399-1

> <Gold.Version>
5.8.1

> <Gold.Id.Protein>
6NUR|6NUR_protein|mol2

> <Gold.PLP.Fitness>
43.9707

> <Gold.PLP.PLP>
-39.2616

> <Gold.PLP.part.hbond>
-1.0000

> <Gold.PLP.part.metal>
0.0000

> <Gold.PLP.part.buried>
-3.7809

> <Gold.PLP.part.nonpolar>
-33.8205

> <Gold.PLP.part.repulsive>
0.1558

> <Gold.PLP.ligand.clash>
0.0000

> <Gold.PLP.ligand.torsion>
0.6763

> <Gold.PLP.Chemscore.Hbond>
2.0000

> <Gold.PLP.Chemscore.CHOScore>
0.0000

> <Gold.PLP.Chemscore.Metal>
0.0000

> <Gold.Chemscore.Hbonds>
donor molecule, donor type, donor heavy atom, donor atom, acceptor molecule, acceptor atom, score
      L1  H    17    53       P1  7948  2.00

> <Gold.PLP.Chemscore.Internal.Correction>
0.0617

> <Gold.Rescore>
     Score         DG    S(hbond)    S(metal)    S(lipo)     H(rot)  DE(clash)    DE(int)     intcor
     15.09     -16.72       1.00        0.00      97.89       1.38       0.05       1.59       ----

> <Gold.Chemscore.Fitness>
15.0857

> <Gold.Chemscore.DG>
-16.7222

> <Gold.Chemscore.ZeroCoef>
-5.4800

> <Gold.Chemscore.Hbond>
0.9968

> <Gold.Chemscore.Metal>
0.0000

> <Gold.Chemscore.Lipo>
97.8868

> <Gold.Chemscore.Internal_Hbond>
0.0000

> <Gold.Chemscore.DEClash>
0.0473

> <Gold.Chemscore.DEInternal>
1.5893

> <Gold.Chemscore.Rot>
1.3828

> <Gold.Chemscore.Internal.Correction>
   9.000000E+99

> <Gold.Chemscore.Hbonds>
donor molecule, donor type, donor heavy atom, donor atom, acceptor molecule, acceptor atom, score
      L1  H    17    53       P1  7948  0.69

> <Gold.Chemscore.Hbond.Weighted>
-3.3293

> <Gold.Chemscore.Metal.Weighted>
-0.0000

> <Gold.Chemscore.Lipo.Weighted>
-11.4528

> <Gold.Chemscore.Internal_Hbond.Weighted>
0.0000

> <Gold.Chemscore.DEClash.Weighted>
0.0473

> <Gold.Chemscore.DEInternal.Weighted>
1.5893

> <Gold.Chemscore.Rot.Weighted>
3.5399

> <Gold.Chemscore.Internal.Correction.Weighted>
   9.000000E+99

> <Gold.Protein.RotatedTorsions>
[ 6907 6896 6895 6894 ] final   51.06 input  -60.11 | X-H torsion
[ 7974 7965 7964 7962 ] final   20.86 input  175.53 | X-H torsion
[ 8008 7997 7996 7995 ] final  -43.80 input   59.86 | X-H torsion
[ 10167 10162 10161 10158 ] final -106.39 input  -65.29 | X-H torsion
[ 10718 10713 10712 10709 ] final   93.53 input   66.30 | X-H torsion
[ 10763 10752 10751 10750 ] final  -55.05 input  -60.55 | X-H torsion
[ 11005 11000 10999 10996 ] final -116.15 input  -57.11 | X-H torsion

> <Gold.Protein.ActiveResidues>
 VAL166  LYS551  ARG553  GLY616  TRP617  ASP618  TYR619  PRO620  LYS621  CYS622 
 ASP623  PHE694  ASN695  SER759  ASP760  ASP761  ALA762  ILE779  LEU786  VAL792 
 PHE793  MET794  SER795  GLU796  ALA797  LYS798  CYS799  TRP800  GLU811  SER814 

> <Gold.Protein.RotatedAtoms>
  152.3086  134.7525  160.0341 H   0  0  0  0  0  0  0  0  0  0  0  0  # atno 6907 bound_to 6896
  151.8013  133.3365  159.3536 H   0  0  0  0  0  0  0  0  0  0  0  0  # atno 6908 bound_to 6896
  150.7309  134.5681  159.5920 H   0  0  0  0  0  0  0  0  0  0  0  0  # atno 6909 bound_to 6896
  146.2095  139.8110  142.8700 H   0  0  0  0  0  0  0  0  0  0  0  0  # atno 7974 bound_to 7965
  154.3997  140.1438  156.3578 H   0  0  0  0  0  0  0  0  0  0  0  0  # atno 8008 bound_to 7997
  155.8209  140.3469  155.5493 H   0  0  0  0  0  0  0  0  0  0  0  0  # atno 8009 bound_to 7997
  155.8288  140.0909  157.1795 H   0  0  0  0  0  0  0  0  0  0  0  0  # atno 8010 bound_to 7997
  140.1882  143.3912  152.1227 H   0  0  0  0  0  0  0  0  0  0  0  0  # atno 10167 bound_to 10162
  157.6954  131.0481  150.4048 H   0  0  0  0  0  0  0  0  0  0  0  0  # atno 10718 bound_to 10713
  154.1846  135.6437  153.5043 H   0  0  0  0  0  0  0  0  0  0  0  0  # atno 10763 bound_to 10752
  153.0050  135.5414  154.6479 H   0  0  0  0  0  0  0  0  0  0  0  0  # atno 10764 bound_to 10752
  154.5852  135.2929  155.0665 H   0  0  0  0  0  0  0  0  0  0  0  0  # atno 10765 bound_to 10752
  141.0441  133.9790  157.2946 H   0  0  0  0  0  0  0  0  0  0  0  0  # atno 11005 bound_to 11000
  145.3196  141.0240  143.3508 LP  0  0  0  0  0  0  0  0  0  0  0  0  # atno 17320 bound_to 7965
  144.8876  139.4818  143.6693 LP  0  0  0  0  0  0  0  0  0  0  0  0  # atno 17321 bound_to 7965
  139.5267  144.7110  151.5204 LP  0  0  0  0  0  0  0  0  0  0  0  0  # atno 17342 bound_to 10162
  140.6473  143.8768  150.6750 LP  0  0  0  0  0  0  0  0  0  0  0  0  # atno 17343 bound_to 10162
  156.4438  130.3997  149.6680 LP  0  0  0  0  0  0  0  0  0  0  0  0  # atno 17370 bound_to 10713
  156.3854  130.7600  151.2597 LP  0  0  0  0  0  0  0  0  0  0  0  0  # atno 17371 bound_to 10713
  139.9298  135.0200  156.8362 LP  0  0  0  0  0  0  0  0  0  0  0  0  # atno 17394 bound_to 11000
  140.6179  134.0021  155.7605 LP  0  0  0  0  0  0  0  0  0  0  0  0  # atno 17395 bound_to 11000

$$$$
