AV-unprocessed.smi:702|AV-procd|sdf|3420|dock1
  -GOLD-   22720 0403D 1   1.00000     0.00000
 Structure written by MMmdl.
 51 53  0  0  0  0  0  0  0  0  3 V2000
  144.7963  135.9966  151.2101 C   0  0  0  0  0  0  0  0  0  0  0  0
  145.5905  135.4607  152.4233 C   0  0  2  0  0  0  0  0  0  0  0  0
  146.6357  136.4329  152.7587 N   0  0  0  0  0  0  0  0  0  0  0  0
  146.4649  137.6068  153.3851 C   0  0  0  0  0  0  0  0  0  0  0  0
  145.3796  138.0001  153.8095 O   0  0  0  0  0  0  0  0  0  0  0  0
  147.6255  138.2806  153.4720 N   0  0  0  0  0  0  0  0  0  0  0  0
  147.8713  139.5765  154.0055 C   0  0  0  0  0  0  0  0  0  0  0  0
  146.8234  140.5207  153.9219 C   0  0  0  0  0  0  0  0  0  0  0  0
  147.0150  141.8224  154.4281 C   0  0  0  0  0  0  0  0  0  0  0  0
  148.1990  142.1606  154.9814 N   0  3  0  0  0  0  0  0  0  0  0  0
  149.2342  141.2987  155.0726 C   0  0  0  0  0  0  0  0  0  0  0  0
  149.1022  139.9830  154.5823 C   0  0  0  0  0  0  0  0  0  0  0  0
  146.1958  134.0130  152.2877 C   0  0  0  0  0  0  0  0  0  0  0  0
  147.4630  133.9021  153.1105 N   0  3  0  0  0  0  0  0  0  0  0  0
  147.2901  134.0889  154.5818 C   0  0  0  0  0  0  0  0  0  0  0  0
  148.6559  134.1621  155.2829 C   0  0  0  0  0  0  0  0  0  0  0  0
  149.3855  132.9713  155.0288 O   0  0  0  0  0  0  0  0  0  0  0  0
  149.6368  132.7992  153.6421 C   0  0  0  0  0  0  0  0  0  0  0  0
  148.3050  132.6881  152.8807 C   0  0  0  0  0  0  0  0  0  0  0  0
  145.1652  132.9220  152.7037 C   0  0  0  0  0  0  0  0  0  0  0  0
  144.6741  132.2638  151.4127 C   0  0  0  0  0  0  0  0  0  0  0  0
  145.8777  132.3412  150.4813 C   0  0  0  0  0  0  0  0  0  0  0  0
  146.4749  133.7172  150.7787 C   0  0  0  0  0  0  0  0  0  0  0  0
  143.9791  135.3333  150.9301 H   0  0  0  0  0  0  0  0  0  0  0  0
  145.4107  136.1582  150.3260 H   0  0  0  0  0  0  0  0  0  0  0  0
  144.3430  136.9586  151.4525 H   0  0  0  0  0  0  0  0  0  0  0  0
  144.8402  135.4521  153.2110 H   0  0  0  0  0  0  0  0  0  0  0  0
  147.5685  136.2033  152.4473 H   0  0  0  0  0  0  0  0  0  0  0  0
  148.4198  137.8430  153.0280 H   0  0  0  0  0  0  0  0  0  0  0  0
  145.8747  140.2522  153.4794 H   0  0  0  0  0  0  0  0  0  0  0  0
  146.2625  142.5973  154.4064 H   0  0  0  0  0  0  0  0  0  0  0  0
  150.1340  141.6857  155.5283 H   0  0  0  0  0  0  0  0  0  0  0  0
  149.9511  139.3215  154.6535 H   0  0  0  0  0  0  0  0  0  0  0  0
  146.7550  135.0008  154.8269 H   0  0  0  0  0  0  0  0  0  0  0  0
  146.7114  133.2670  155.0038 H   0  0  0  0  0  0  0  0  0  0  0  0
  149.2208  135.0331  154.9461 H   0  0  0  0  0  0  0  0  0  0  0  0
  148.5202  134.2678  156.3593 H   0  0  0  0  0  0  0  0  0  0  0  0
  150.2357  133.6283  153.2616 H   0  0  0  0  0  0  0  0  0  0  0  0
  150.2252  131.8921  153.5021 H   0  0  0  0  0  0  0  0  0  0  0  0
  147.7795  131.7912  153.2079 H   0  0  0  0  0  0  0  0  0  0  0  0
  148.5504  132.5364  151.8329 H   0  0  0  0  0  0  0  0  0  0  0  0
  145.6236  132.1425  153.3101 H   0  0  0  0  0  0  0  0  0  0  0  0
  144.3431  133.3136  153.3032 H   0  0  0  0  0  0  0  0  0  0  0  0
  144.3297  131.2411  151.5688 H   0  0  0  0  0  0  0  0  0  0  0  0
  143.8443  132.8325  150.9919 H   0  0  0  0  0  0  0  0  0  0  0  0
  146.5920  131.5561  150.7315 H   0  0  0  0  0  0  0  0  0  0  0  0
  145.6044  132.2203  149.4327 H   0  0  0  0  0  0  0  0  0  0  0  0
  145.9656  134.4263  150.1309 H   0  0  0  0  0  0  0  0  0  0  0  0
  147.5187  133.8076  150.4821 H   0  0  0  0  0  0  0  0  0  0  0  0
  148.0323  134.6782  152.8049 H   0  0  0  0  0  0  0  0  0  0  0  0
  148.3176  143.1079  155.3422 H   0  0  0  0  0  0  0  0  0  0  0  0
  1  2  1  0  0  0  0
  1 24  1  0  0  0  0
  1 25  1  0  0  0  0
  1 26  1  0  0  0  0
  2  3  1  0  0  0  0
  2 13  1  0  0  0  0
  2 27  1  0  0  0  0
  3  4  1  0  0  0  0
  3 28  1  0  0  0  0
  4  5  2  0  0  0  0
  4  6  1  0  0  0  0
  6  7  1  0  0  0  0
  6 29  1  0  0  0  0
  7 12  1  0  0  0  0
  7  8  2  0  0  0  0
  8  9  1  0  0  0  0
  8 30  1  0  0  0  0
  9 10  2  0  0  0  0
  9 31  1  0  0  0  0
 10 11  1  0  0  0  0
 10 51  1  0  0  0  0
 11 12  2  0  0  0  0
 11 32  1  0  0  0  0
 12 33  1  0  0  0  0
 13 23  1  0  0  0  0
 13 14  1  0  0  0  0
 13 20  1  0  0  0  0
 14 19  1  0  0  0  0
 14 15  1  0  0  0  0
 14 50  1  0  0  0  0
 15 16  1  0  0  0  0
 15 34  1  0  0  0  0
 15 35  1  0  0  0  0
 16 17  1  0  0  0  0
 16 36  1  0  0  0  0
 16 37  1  0  0  0  0
 17 18  1  0  0  0  0
 18 19  1  0  0  0  0
 18 38  1  0  0  0  0
 18 39  1  0  0  0  0
 19 40  1  0  0  0  0
 19 41  1  0  0  0  0
 20 21  1  0  0  0  0
 20 42  1  0  0  0  0
 20 43  1  0  0  0  0
 21 22  1  0  0  0  0
 21 44  1  0  0  0  0
 21 45  1  0  0  0  0
 22 23  1  0  0  0  0
 22 46  1  0  0  0  0
 22 47  1  0  0  0  0
 23 48  1  0  0  0  0
 23 49  1  0  0  0  0
M  CHG  1  10   1
M  CHG  1  14   1
M  END
> <s_m_source_file>
AV-unprocessed.smi

> <i_m_source_file_index>
702

> <i_lp_mmshare_version>
43012

> <i_f3d_flags>
0

> <s_epik_input>
W0NIMl0xW0NIMl1PW0NIMl1bQ0gyXU4xQzIoW0NIMl1bQ0gyXVtDSDJdW0NIMl0yKVtDQEhdKFtDSDNdKVtOSF1DKD1PKVtOSF1jM1tjSF1bY0hdbltjSF1bY0hdMw==

> <s_epik_cmdline>
J2VwaWtfcHl0aG9uJywgJy1waCcsICc3LjAnLCAnLXRuJywgJzgnLCAnLW1hJywgJzIwMCcsICctbWV0YWxfYmluZGluZycsICctaW1hZScsICc8aW5maWxlLm1hZT4nLCAnLW9tYWUnLCAnPG91dGZpbGUubWFlPic=

> <r_epik_Ionization_Penalty>
1.42147

> <r_epik_Ionization_Penalty_Charging>
1.42145

> <r_epik_Ionization_Penalty_Neutral>
1.94713e-05

> <r_epik_State_Penalty>
1.44789

> <r_epik_Charging_Adjusted_Penalty>
2.86934

> <i_epik_Tot_Q>
2

> <i_epik_Tot_abs_Q>
2

> <r_epik_Metal_State_Penalty>
1.5401

> <b_epik_Metal_Only>
0

> <s_lp_Force_Field>
OPLS_2005

> <r_lp_Energy>
70.747

> <b_lp_Chiralities_Consistent>
1

> <s_lp_Variant>
AV-unprocessed.smi:702-5

> <Gold.Version>
5.8.1

> <Gold.Id.Protein>
6NUR|6NUR_protein|mol2

> <Gold.PLP.Fitness>
51.6432

> <Gold.PLP.PLP>
-37.9072

> <Gold.PLP.part.hbond>
-3.7067

> <Gold.PLP.part.metal>
0.0000

> <Gold.PLP.part.buried>
-4.7689

> <Gold.PLP.part.nonpolar>
-31.0073

> <Gold.PLP.part.repulsive>
0.7023

> <Gold.PLP.ligand.clash>
0.0000

> <Gold.PLP.ligand.torsion>
1.7709

> <Gold.PLP.Chemscore.Hbond>
5.6928

> <Gold.PLP.Chemscore.CHOScore>
0.0000

> <Gold.PLP.Chemscore.Metal>
0.0000

> <Gold.Chemscore.Hbonds>
donor molecule, donor type, donor heavy atom, donor atom, acceptor molecule, acceptor atom, score
      L1  H     3    28       P1  7948  0.91
      L1  H     6    29       P1  7948  0.84
      L1  H    10    51       P1  8028  2.00
      L1  H    14    50       P1  7948  2.00

> <Gold.PLP.Chemscore.Internal.Correction>
0.1995

> <Gold.Rescore>
     Score         DG    S(hbond)    S(metal)    S(lipo)     H(rot)  DE(clash)    DE(int)     intcor
     21.26     -24.76       3.65        0.00      92.83       1.48       0.23       3.27       ----

> <Gold.Chemscore.Fitness>
21.2582

> <Gold.Chemscore.DG>
-24.7609

> <Gold.Chemscore.ZeroCoef>
-5.4800

> <Gold.Chemscore.Hbond>
3.6541

> <Gold.Chemscore.Metal>
0.0000

> <Gold.Chemscore.Lipo>
92.8346

> <Gold.Chemscore.Internal_Hbond>
0.0000

> <Gold.Chemscore.DEClash>
0.2320

> <Gold.Chemscore.DEInternal>
3.2707

> <Gold.Chemscore.Rot>
1.4787

> <Gold.Chemscore.Internal.Correction>
   9.000000E+99

> <Gold.Chemscore.Hbonds>
donor molecule, donor type, donor heavy atom, donor atom, acceptor molecule, acceptor atom, score
      L1  H     3    28       P1  7948  0.87
      L1  H     6    29       P1  7948  0.77
      L1  H    10    51       P1  8028  0.98
      L1  H    14    50       P1  7948  0.71

> <Gold.Chemscore.Hbond.Weighted>
-12.2046

> <Gold.Chemscore.Metal.Weighted>
-0.0000

> <Gold.Chemscore.Lipo.Weighted>
-10.8617

> <Gold.Chemscore.Internal_Hbond.Weighted>
0.0000

> <Gold.Chemscore.DEClash.Weighted>
0.2320

> <Gold.Chemscore.DEInternal.Weighted>
3.2707

> <Gold.Chemscore.Rot.Weighted>
3.7854

> <Gold.Chemscore.Internal.Correction.Weighted>
   9.000000E+99

> <Gold.Protein.RotatedTorsions>
[ 6907 6896 6895 6894 ] final  136.12 input  -60.11 | X-H torsion
[ 7974 7965 7964 7962 ] final   -3.94 input  175.53 | X-H torsion
[ 8008 7997 7996 7995 ] final -130.93 input   59.86 | X-H torsion
[ 10167 10162 10161 10158 ] final  -13.39 input  -65.29 | X-H torsion
[ 10718 10713 10712 10709 ] final  110.13 input   66.30 | X-H torsion
[ 10763 10752 10751 10750 ] final  -57.38 input  -60.55 | X-H torsion
[ 11005 11000 10999 10996 ] final  -54.99 input  -57.11 | X-H torsion

> <Gold.Protein.ActiveResidues>
 VAL166  LYS551  ARG553  GLY616  TRP617  ASP618  TYR619  PRO620  LYS621  CYS622 
 ASP623  PHE694  ASN695  SER759  ASP760  ASP761  ALA762  ILE779  LEU786  VAL792 
 PHE793  MET794  SER795  GLU796  ALA797  LYS798  CYS799  TRP800  GLU811  SER814 

> <Gold.Protein.RotatedAtoms>
  152.2929  133.5579  159.5568 H   0  0  0  0  0  0  0  0  0  0  0  0  # atno 6907 bound_to 6896
  150.7243  134.0403  159.3772 H   0  0  0  0  0  0  0  0  0  0  0  0  # atno 6908 bound_to 6896
  151.8307  135.0622  160.0487 H   0  0  0  0  0  0  0  0  0  0  0  0  # atno 6909 bound_to 6896
  146.2381  140.1796  142.8332 H   0  0  0  0  0  0  0  0  0  0  0  0  # atno 7974 bound_to 7965
  155.3040  140.0454  157.3031 H   0  0  0  0  0  0  0  0  0  0  0  0  # atno 8008 bound_to 7997
  154.5471  140.2306  155.8513 H   0  0  0  0  0  0  0  0  0  0  0  0  # atno 8009 bound_to 7997
  156.1933  140.3045  155.9383 H   0  0  0  0  0  0  0  0  0  0  0  0  # atno 8010 bound_to 7997
  140.7181  143.5431  150.9386 H   0  0  0  0  0  0  0  0  0  0  0  0  # atno 10167 bound_to 10162
  157.6509  131.0927  150.6556 H   0  0  0  0  0  0  0  0  0  0  0  0  # atno 10718 bound_to 10713
  154.2215  135.6377  153.5146 H   0  0  0  0  0  0  0  0  0  0  0  0  # atno 10763 bound_to 10752
  152.9968  135.5498  154.6109 H   0  0  0  0  0  0  0  0  0  0  0  0  # atno 10764 bound_to 10752
  154.5570  135.2906  155.0929 H   0  0  0  0  0  0  0  0  0  0  0  0  # atno 10765 bound_to 10752
  141.1053  133.6614  156.4403 H   0  0  0  0  0  0  0  0  0  0  0  0  # atno 11005 bound_to 11000
  144.9945  140.8577  143.5319 LP  0  0  0  0  0  0  0  0  0  0  0  0  # atno 17320 bound_to 7965
  145.1807  139.2353  143.5294 LP  0  0  0  0  0  0  0  0  0  0  0  0  # atno 17321 bound_to 7965
  139.9154  143.6670  152.3107 LP  0  0  0  0  0  0  0  0  0  0  0  0  # atno 17342 bound_to 10162
  139.7068  144.7627  151.1180 LP  0  0  0  0  0  0  0  0  0  0  0  0  # atno 17343 bound_to 10162
  156.6867  130.4583  149.5612 LP  0  0  0  0  0  0  0  0  0  0  0  0  # atno 17370 bound_to 10713
  156.1890  130.6548  151.1040 LP  0  0  0  0  0  0  0  0  0  0  0  0  # atno 17371 bound_to 10713
  140.4919  134.6567  157.5214 LP  0  0  0  0  0  0  0  0  0  0  0  0  # atno 17394 bound_to 11000
  139.9920  134.6970  155.9673 LP  0  0  0  0  0  0  0  0  0  0  0  0  # atno 17395 bound_to 11000

$$$$
