AV-unprocessed.smi:1807|AV-procd|sdf|7304|dock2
  -GOLD-   22720 8563D 1   1.00000     0.00000
 Structure written by MMmdl.
 44 45  0  0  0  0  0  0  0  0  1 V2000
  151.0727  140.3541  157.8549 C   0  0  0  0  0  0  0  0  0  0  0  0
  151.1292  141.8740  158.0910 C   0  0  1  0  0  0  0  0  0  0  0  0
  152.3124  142.2332  159.0128 C   0  0  0  0  0  0  0  0  0  0  0  0
  152.3979  143.7443  159.2745 C   0  0  0  0  0  0  0  0  0  0  0  0
  152.4881  144.5269  157.9573 C   0  0  0  0  0  0  0  0  0  0  0  0
  151.3063  144.1926  157.0357 C   0  0  0  0  0  0  0  0  0  0  0  0
  151.2046  142.6763  156.7679 C   0  0  2  0  0  0  0  0  0  0  0  0
  150.0348  142.3967  155.9385 N   0  0  0  0  0  0  0  0  0  0  0  0
  149.8443  141.2875  155.2090 C   0  0  0  0  0  0  0  0  0  0  0  0
  150.6762  140.3835  155.1197 O   0  0  0  0  0  0  0  0  0  0  0  0
  148.5145  141.2000  154.4514 C   0  0  0  0  0  0  0  0  0  0  0  0
  147.7814  139.9772  154.7599 N   0  0  0  0  0  0  0  0  0  0  0  0
  147.1480  139.2697  153.7295 C   0  0  0  0  0  0  0  0  0  0  0  0
  147.1967  139.7029  152.3766 C   0  0  0  0  0  0  0  0  0  0  0  0
  146.4824  138.7438  151.7156 C   0  0  0  0  0  0  0  0  0  0  0  0
  146.0531  137.8242  152.6531 N   0  0  0  0  0  0  0  0  0  0  0  0
  145.2675  136.6213  152.4425 C   0  0  0  0  0  0  0  0  0  0  0  0
  145.7586  135.8482  151.2164 C   0  0  0  0  0  0  0  0  0  0  0  0
  145.5972  136.4270  150.0237 N   0  0  0  0  0  0  0  0  0  0  0  0
  146.2788  134.7420  151.3430 O   0  0  0  0  0  0  0  0  0  0  0  0
  146.4583  138.1514  153.8998 N   0  0  0  0  0  0  0  0  0  0  0  0
  151.9582  140.0075  157.3221 H   0  0  0  0  0  0  0  0  0  0  0  0
  150.1991  140.0652  157.2701 H   0  0  0  0  0  0  0  0  0  0  0  0
  151.0213  139.8123  158.7995 H   0  0  0  0  0  0  0  0  0  0  0  0
  150.2112  142.1594  158.6073 H   0  0  0  0  0  0  0  0  0  0  0  0
  152.2184  141.7060  159.9627 H   0  0  0  0  0  0  0  0  0  0  0  0
  153.2457  141.8909  158.5631 H   0  0  0  0  0  0  0  0  0  0  0  0
  151.5214  144.0697  159.8360 H   0  0  0  0  0  0  0  0  0  0  0  0
  153.2650  143.9646  159.8978 H   0  0  0  0  0  0  0  0  0  0  0  0
  152.5096  145.5978  158.1608 H   0  0  0  0  0  0  0  0  0  0  0  0
  153.4250  144.2884  157.4523 H   0  0  0  0  0  0  0  0  0  0  0  0
  150.3814  144.5503  157.4906 H   0  0  0  0  0  0  0  0  0  0  0  0
  151.4163  144.7339  156.0952 H   0  0  0  0  0  0  0  0  0  0  0  0
  152.1023  142.3574  156.2338 H   0  0  0  0  0  0  0  0  0  0  0  0
  149.2985  143.0873  155.9459 H   0  0  0  0  0  0  0  0  0  0  0  0
  147.8935  142.0747  154.6526 H   0  0  0  0  0  0  0  0  0  0  0  0
  148.7273  141.2104  153.3825 H   0  0  0  0  0  0  0  0  0  0  0  0
  147.4830  139.8258  155.7125 H   0  0  0  0  0  0  0  0  0  0  0  0
  147.6822  140.5711  151.9565 H   0  0  0  0  0  0  0  0  0  0  0  0
  146.2483  138.6381  150.6666 H   0  0  0  0  0  0  0  0  0  0  0  0
  145.3334  135.9842  153.3260 H   0  0  0  0  0  0  0  0  0  0  0  0
  144.2197  136.9031  152.3281 H   0  0  0  0  0  0  0  0  0  0  0  0
  145.9099  135.9579  149.1863 H   0  0  0  0  0  0  0  0  0  0  0  0
  145.1654  137.3381  149.9654 H   0  0  0  0  0  0  0  0  0  0  0  0
  1  2  1  0  0  0  0
  1 22  1  0  0  0  0
  1 23  1  0  0  0  0
  1 24  1  0  0  0  0
  2  7  1  0  0  0  0
  2  3  1  0  0  0  0
  2 25  1  0  0  0  0
  3  4  1  0  0  0  0
  3 26  1  0  0  0  0
  3 27  1  0  0  0  0
  4  5  1  0  0  0  0
  4 28  1  0  0  0  0
  4 29  1  0  0  0  0
  5  6  1  0  0  0  0
  5 30  1  0  0  0  0
  5 31  1  0  0  0  0
  6  7  1  0  0  0  0
  6 32  1  0  0  0  0
  6 33  1  0  0  0  0
  7  8  1  0  0  0  0
  7 34  1  0  0  0  0
  8  9  1  0  0  0  0
  8 35  1  0  0  0  0
  9 10  2  0  0  0  0
  9 11  1  0  0  0  0
 11 12  1  0  0  0  0
 11 36  1  0  0  0  0
 11 37  1  0  0  0  0
 12 13  1  0  0  0  0
 12 38  1  0  0  0  0
 13 21  2  0  0  0  0
 13 14  1  0  0  0  0
 14 15  2  0  0  0  0
 14 39  1  0  0  0  0
 15 16  1  0  0  0  0
 15 40  1  0  0  0  0
 16 17  1  0  0  0  0
 16 21  1  0  0  0  0
 17 18  1  0  0  0  0
 17 41  1  0  0  0  0
 17 42  1  0  0  0  0
 18 19  1  0  0  0  0
 18 20  2  0  0  0  0
 19 43  1  0  0  0  0
 19 44  1  0  0  0  0
M  END
> <s_m_source_file>
AV-unprocessed.smi

> <i_m_source_file_index>
1807

> <i_lp_mmshare_version>
43012

> <i_f3d_flags>
0

> <s_epik_input>
W0NIM11bQ0BASF0xW0NIMl1bQ0gyXVtDSDJdW0NIMl1bQ0BIXTFbTkhdQyg9TylbQ0gyXVtOSF1jMltjSF1bY0hdbihuMilbQ0gyXUMoPU8pW05IMl0=

> <s_epik_cmdline>
J2VwaWtfcHl0aG9uJywgJy1waCcsICc3LjAnLCAnLXRuJywgJzgnLCAnLW1hJywgJzIwMCcsICctbWV0YWxfYmluZGluZycsICctaW1hZScsICc8aW5maWxlLm1hZT4nLCAnLW9tYWUnLCAnPG91dGZpbGUubWFlPic=

> <r_lp_tautomer_probability>
1

> <r_epik_Ionization_Penalty>
0.000167642

> <r_epik_Ionization_Penalty_Charging>
0

> <r_epik_Ionization_Penalty_Neutral>
0.000167642

> <r_epik_State_Penalty>
-0

> <r_epik_Charging_Adjusted_Penalty>
0

> <i_epik_Tot_Q>
0

> <i_epik_Tot_abs_Q>
0

> <r_epik_Metal_State_Penalty>
-0

> <b_epik_Metal_Only>
0

> <s_lp_Force_Field>
OPLS_2005

> <r_lp_Energy>
6.04908

> <b_lp_Chiralities_Consistent>
1

> <s_lp_Variant>
AV-unprocessed.smi:1807-4

> <Gold.Version>
5.8.1

> <Gold.Id.Protein>
6NUR|6NUR_protein|mol2

> <Gold.PLP.Fitness>
55.0213

> <Gold.PLP.PLP>
-42.0844

> <Gold.PLP.part.hbond>
-4.0000

> <Gold.PLP.part.metal>
0.0000

> <Gold.PLP.part.buried>
0.2659

> <Gold.PLP.part.nonpolar>
-40.5765

> <Gold.PLP.part.repulsive>
0.9541

> <Gold.PLP.ligand.clash>
0.0000

> <Gold.PLP.ligand.torsion>
0.6650

> <Gold.PLP.Chemscore.Hbond>
3.8640

> <Gold.PLP.Chemscore.CHOScore>
0.8854

> <Gold.PLP.Chemscore.Metal>
0.0000

> <Gold.Chemscore.Hbonds>
donor molecule, donor type, donor heavy atom, donor atom, acceptor molecule, acceptor atom, score
      L1  H     8    35       P1  8028  0.93
      L1  H    19    43       P1  7921  1.00
      L1  H    19    44       P1 10171  1.00
      P1  H  7989  7998       L1    10  1.00
      L1  C    15    40       P1 10171  0.86

> <Gold.PLP.Chemscore.Internal.Correction>
0.0188

> <Gold.Rescore>
     Score         DG    S(hbond)    S(metal)    S(lipo)     H(rot)  DE(clash)    DE(int)     intcor
     18.85     -21.34       3.26        0.00     100.14       2.64       1.74       0.76       ----

> <Gold.Chemscore.Fitness>
18.8485

> <Gold.Chemscore.DG>
-21.3444

> <Gold.Chemscore.ZeroCoef>
-5.4800

> <Gold.Chemscore.Hbond>
3.2628

> <Gold.Chemscore.Metal>
0.0000

> <Gold.Chemscore.Lipo>
100.1449

> <Gold.Chemscore.Internal_Hbond>
0.0000

> <Gold.Chemscore.DEClash>
1.7378

> <Gold.Chemscore.DEInternal>
0.7581

> <Gold.Chemscore.Rot>
2.6369

> <Gold.Chemscore.Internal.Correction>
   9.000000E+99

> <Gold.Chemscore.Hbonds>
donor molecule, donor type, donor heavy atom, donor atom, acceptor molecule, acceptor atom, score
      L1  H     8    35       P1  8028  0.90
      L1  H    19    43       P1  7921  0.99
      L1  H    19    44       P1 10171  0.99
      P1  H  7989  7998       L1    10  0.34

> <Gold.Chemscore.Hbond.Weighted>
-10.8978

> <Gold.Chemscore.Metal.Weighted>
-0.0000

> <Gold.Chemscore.Lipo.Weighted>
-11.7170

> <Gold.Chemscore.Internal_Hbond.Weighted>
0.0000

> <Gold.Chemscore.DEClash.Weighted>
1.7378

> <Gold.Chemscore.DEInternal.Weighted>
0.7581

> <Gold.Chemscore.Rot.Weighted>
6.7504

> <Gold.Chemscore.Internal.Correction.Weighted>
   9.000000E+99

> <Gold.Protein.RotatedTorsions>
[ 6907 6896 6895 6894 ] final -123.60 input  -60.11 | X-H torsion
[ 7974 7965 7964 7962 ] final  144.97 input  175.53 | X-H torsion
[ 8008 7997 7996 7995 ] final  -75.18 input   59.86 | X-H torsion
[ 10167 10162 10161 10158 ] final  -74.05 input  -65.29 | X-H torsion
[ 10718 10713 10712 10709 ] final  -55.95 input   66.30 | X-H torsion
[ 10763 10752 10751 10750 ] final    0.17 input  -60.55 | X-H torsion
[ 11005 11000 10999 10996 ] final   73.11 input  -57.11 | X-H torsion

> <Gold.Protein.ActiveResidues>
 VAL166  LYS551  ARG553  GLY616  TRP617  ASP618  TYR619  PRO620  LYS621  CYS622 
 ASP623  PHE694  ASN695  SER759  ASP760  ASP761  ALA762  ILE779  LEU786  VAL792 
 PHE793  MET794  SER795  GLU796  ALA797  LYS798  CYS799  TRP800  GLU811  SER814 

> <Gold.Protein.RotatedAtoms>
  150.8687  133.7537  159.2968 H   0  0  0  0  0  0  0  0  0  0  0  0  # atno 6907 bound_to 6896
  151.5156  135.1064  159.9875 H   0  0  0  0  0  0  0  0  0  0  0  0  # atno 6908 bound_to 6896
  152.4679  133.7920  159.6962 H   0  0  0  0  0  0  0  0  0  0  0  0  # atno 6909 bound_to 6896
  144.8791  139.5727  143.5851 H   0  0  0  0  0  0  0  0  0  0  0  0  # atno 7974 bound_to 7965
  154.5395  140.0748  156.8485 H   0  0  0  0  0  0  0  0  0  0  0  0  # atno 8008 bound_to 7997
  155.3210  140.3396  155.4223 H   0  0  0  0  0  0  0  0  0  0  0  0  # atno 8009 bound_to 7997
  156.1860  140.1669  156.8170 H   0  0  0  0  0  0  0  0  0  0  0  0  # atno 8010 bound_to 7997
  140.5060  143.2353  151.7674 H   0  0  0  0  0  0  0  0  0  0  0  0  # atno 10167 bound_to 10162
  156.1327  130.4158  150.0240 H   0  0  0  0  0  0  0  0  0  0  0  0  # atno 10718 bound_to 10713
  153.3241  135.6971  153.7004 H   0  0  0  0  0  0  0  0  0  0  0  0  # atno 10763 bound_to 10752
  153.5832  135.3494  155.2883 H   0  0  0  0  0  0  0  0  0  0  0  0  # atno 10764 bound_to 10752
  154.8604  135.4300  154.2413 H   0  0  0  0  0  0  0  0  0  0  0  0  # atno 10765 bound_to 10752
  139.9456  134.7318  156.0987 H   0  0  0  0  0  0  0  0  0  0  0  0  # atno 11005 bound_to 11000
  146.2982  139.7344  142.9111 LP  0  0  0  0  0  0  0  0  0  0  0  0  # atno 17320 bound_to 7965
  145.3988  141.0382  143.3082 LP  0  0  0  0  0  0  0  0  0  0  0  0  # atno 17321 bound_to 7965
  139.4883  144.4457  151.9713 LP  0  0  0  0  0  0  0  0  0  0  0  0  # atno 17342 bound_to 10162
  140.3548  144.3045  150.5943 LP  0  0  0  0  0  0  0  0  0  0  0  0  # atno 17343 bound_to 10162
  156.8148  130.9337  151.3643 LP  0  0  0  0  0  0  0  0  0  0  0  0  # atno 17370 bound_to 10713
  157.6503  130.8879  149.9620 LP  0  0  0  0  0  0  0  0  0  0  0  0  # atno 17371 bound_to 10713
  141.1106  133.6644  156.2969 LP  0  0  0  0  0  0  0  0  0  0  0  0  # atno 17394 bound_to 11000
  140.5842  134.5715  157.5486 LP  0  0  0  0  0  0  0  0  0  0  0  0  # atno 17395 bound_to 11000

$$$$
