AV-unprocessed.smi:186|AV-procd|sdf|1467|dock10
  -GOLD-   2262019283D 1   1.00000     0.00000
 Structure written by MMmdl.
 48 51  0  0  0  0  0  0  0  0  1 V2000
  146.5935  130.8371  152.7582 C   0  0  0  0  0  0  0  0  0  0  0  0
  147.3582  131.7375  151.9761 O   0  0  0  0  0  0  0  0  0  0  0  0
  147.1156  133.0938  152.3173 C   0  0  0  0  0  0  0  0  0  0  0  0
  147.7113  133.3937  153.6939 C   0  0  0  0  0  0  0  0  0  0  0  0
  147.3793  132.7379  154.6819 O   0  0  0  0  0  0  0  0  0  0  0  0
  148.5966  134.3993  153.7439 N   0  0  0  0  0  0  0  0  0  0  0  0
  149.2777  134.8393  154.9547 C   0  0  0  0  0  0  0  0  0  0  0  0
  149.0150  136.3032  155.3181 C   0  0  0  0  0  0  0  0  0  0  0  0
  150.4359  136.3501  155.6419 N   0  0  0  0  0  0  0  0  0  0  0  0
  151.0822  137.5944  155.3944 C   0  0  0  0  0  0  0  0  0  0  0  0
  152.0891  137.6555  154.4820 N   0  0  0  0  0  0  0  0  0  0  0  0
  152.7253  138.8031  154.2314 C   0  0  0  0  0  0  0  0  0  0  0  0
  152.5296  140.0007  154.7823 N   0  0  0  0  0  0  0  0  0  0  0  0
  151.5408  139.9528  155.7187 C   0  0  0  0  0  0  0  0  0  0  0  0
  150.7755  138.8066  156.0786 C   0  0  0  0  0  0  0  0  0  0  0  0
  149.8588  139.1472  157.0666 N   0  0  0  0  0  0  0  0  0  0  0  0
  150.0663  140.4187  157.2736 C   0  0  0  0  0  0  0  0  0  0  0  0
  151.0694  140.9808  156.5171 N   0  0  0  0  0  0  0  0  0  0  0  0
  151.5143  142.3665  156.5461 C   0  0  0  0  0  0  0  0  0  0  0  0
  150.9367  143.1963  157.7215 C   0  0  2  0  0  0  0  0  0  0  0  0
  149.5395  143.3454  157.5486 O   0  0  0  0  0  0  0  0  0  0  0  0
  151.5701  144.5809  157.8843 C   0  0  0  0  0  0  0  0  0  0  0  0
  152.5518  144.3804  159.0301 C   0  0  0  0  0  0  0  0  0  0  0  0
  151.8393  143.5097  159.8898 O   0  0  0  0  0  0  0  0  0  0  0  0
  151.2150  142.5217  159.0802 C   0  0  0  0  0  0  0  0  0  0  0  0
  150.7245  135.2660  154.7075 C   0  0  0  0  0  0  0  0  0  0  0  0
  146.8167  129.8123  152.4615 H   0  0  0  0  0  0  0  0  0  0  0  0
  145.5248  131.0032  152.6171 H   0  0  0  0  0  0  0  0  0  0  0  0
  146.8269  130.9393  153.8188 H   0  0  0  0  0  0  0  0  0  0  0  0
  147.5656  133.7553  151.5751 H   0  0  0  0  0  0  0  0  0  0  0  0
  146.0431  133.2935  152.3415 H   0  0  0  0  0  0  0  0  0  0  0  0
  148.8147  134.8895  152.8887 H   0  0  0  0  0  0  0  0  0  0  0  0
  149.1743  134.1592  155.8038 H   0  0  0  0  0  0  0  0  0  0  0  0
  148.7458  136.9311  154.4663 H   0  0  0  0  0  0  0  0  0  0  0  0
  148.3556  136.4450  156.1747 H   0  0  0  0  0  0  0  0  0  0  0  0
  153.5041  138.7539  153.4849 H   0  0  0  0  0  0  0  0  0  0  0  0
  149.4927  140.9833  157.9943 H   0  0  0  0  0  0  0  0  0  0  0  0
  152.6045  142.3697  156.5875 H   0  0  0  0  0  0  0  0  0  0  0  0
  151.2457  142.8280  155.5947 H   0  0  0  0  0  0  0  0  0  0  0  0
  149.3836  143.7725  156.7203 H   0  0  0  0  0  0  0  0  0  0  0  0
  152.0520  144.9663  156.9876 H   0  0  0  0  0  0  0  0  0  0  0  0
  150.8231  145.3153  158.1906 H   0  0  0  0  0  0  0  0  0  0  0  0
  153.4668  143.8965  158.6849 H   0  0  0  0  0  0  0  0  0  0  0  0
  152.8166  145.3131  159.5284 H   0  0  0  0  0  0  0  0  0  0  0  0
  150.3169  142.1394  159.5673 H   0  0  0  0  0  0  0  0  0  0  0  0
  151.9064  141.6848  158.9704 H   0  0  0  0  0  0  0  0  0  0  0  0
  151.4746  134.5593  155.0633 H   0  0  0  0  0  0  0  0  0  0  0  0
  150.9131  135.6070  153.6874 H   0  0  0  0  0  0  0  0  0  0  0  0
  1  2  1  0  0  0  0
  1 27  1  0  0  0  0
  1 28  1  0  0  0  0
  1 29  1  0  0  0  0
  2  3  1  0  0  0  0
  3  4  1  0  0  0  0
  3 30  1  0  0  0  0
  3 31  1  0  0  0  0
  4  5  2  0  0  0  0
  4  6  1  0  0  0  0
  6  7  1  0  0  0  0
  6 32  1  0  0  0  0
  7 26  1  0  0  0  0
  7  8  1  0  0  0  0
  7 33  1  0  0  0  0
  8  9  1  0  0  0  0
  8 34  1  0  0  0  0
  8 35  1  0  0  0  0
  9 10  1  0  0  0  0
  9 26  1  0  0  0  0
 10 15  1  0  0  0  0
 10 11  2  0  0  0  0
 11 12  1  0  0  0  0
 12 13  2  0  0  0  0
 12 36  1  0  0  0  0
 13 14  1  0  0  0  0
 14 18  1  0  0  0  0
 14 15  2  0  0  0  0
 15 16  1  0  0  0  0
 16 17  2  0  0  0  0
 17 18  1  0  0  0  0
 17 37  1  0  0  0  0
 18 19  1  0  0  0  0
 19 20  1  0  0  0  0
 19 38  1  0  0  0  0
 19 39  1  0  0  0  0
 20 25  1  0  0  0  0
 20 21  1  0  0  0  0
 20 22  1  0  0  0  0
 21 40  1  0  0  0  0
 22 23  1  0  0  0  0
 22 41  1  0  0  0  0
 22 42  1  0  0  0  0
 23 24  1  0  0  0  0
 23 43  1  0  0  0  0
 23 44  1  0  0  0  0
 24 25  1  0  0  0  0
 25 45  1  0  0  0  0
 25 46  1  0  0  0  0
 26 47  1  0  0  0  0
 26 48  1  0  0  0  0
M  END
> <s_m_source_file>
AV-unprocessed.smi

> <i_m_source_file_index>
186

> <i_lp_mmshare_version>
43012

> <i_f3d_flags>
0

> <s_epik_input>
W0NIM11PW0NIMl1DKD1PKVtOSF1bQ0hdMVtDSDJdTihbQ0gyXTEpYyhuW2NIXW4yKWMoYzIzKW5bY0hdbjNbQ0gyXVtDQEBdNChbT0hdKVtDSDJdW0NIMl1PW0NIMl00

> <s_epik_cmdline>
J2VwaWtfcHl0aG9uJywgJy1waCcsICc3LjAnLCAnLXRuJywgJzgnLCAnLW1hJywgJzIwMCcsICctbWV0YWxfYmluZGluZycsICctaW1hZScsICc8aW5maWxlLm1hZT4nLCAnLW9tYWUnLCAnPG91dGZpbGUubWFlPic=

> <r_lp_tautomer_probability>
1

> <r_epik_Ionization_Penalty>
0.00138671

> <r_epik_Ionization_Penalty_Charging>
0

> <r_epik_Ionization_Penalty_Neutral>
0.00138671

> <r_epik_State_Penalty>
0.000746021

> <r_epik_Charging_Adjusted_Penalty>
0.000746021

> <i_epik_Tot_Q>
0

> <i_epik_Tot_abs_Q>
0

> <r_epik_Metal_State_Penalty>
-0

> <b_epik_Metal_Only>
0

> <s_lp_Force_Field>
OPLS_2005

> <r_lp_Energy>
43.6542

> <b_lp_Chiralities_Consistent>
1

> <s_lp_Variant>
AV-unprocessed.smi:186-2

> <Gold.Version>
5.8.1

> <Gold.Id.Protein>
6NUR|6NUR_protein|mol2

> <Gold.PLP.Fitness>
49.3445

> <Gold.PLP.PLP>
-37.9579

> <Gold.PLP.part.hbond>
-4.8699

> <Gold.PLP.part.metal>
0.0000

> <Gold.PLP.part.buried>
-8.2867

> <Gold.PLP.part.nonpolar>
-26.8981

> <Gold.PLP.part.repulsive>
1.4425

> <Gold.PLP.ligand.clash>
0.4496

> <Gold.PLP.ligand.torsion>
0.4583

> <Gold.PLP.Chemscore.Hbond>
4.0801

> <Gold.PLP.Chemscore.CHOScore>
0.0000

> <Gold.PLP.Chemscore.Metal>
0.0000

> <Gold.Chemscore.Hbonds>
donor molecule, donor type, donor heavy atom, donor atom, acceptor molecule, acceptor atom, score
      L1  H     6    32       P1  7948  0.85
      L1  H    21    40       P1  8028  0.91
      P1  H  7989  7998       L1    13  0.53
      P1  H  7997  8009       L1    13  0.49
      P1  H 10752 10763       L1    11  0.51

> <Gold.PLP.Chemscore.Internal.Correction>
0.5127

> <Gold.Rescore>
     Score         DG    S(hbond)    S(metal)    S(lipo)     H(rot)  DE(clash)    DE(int)     intcor
     12.38     -17.51       3.31        0.00      81.78       3.36       1.79       3.34       ----

> <Gold.Chemscore.Fitness>
12.3779

> <Gold.Chemscore.DG>
-17.5052

> <Gold.Chemscore.ZeroCoef>
-5.4800

> <Gold.Chemscore.Hbond>
3.3125

> <Gold.Chemscore.Metal>
0.0000

> <Gold.Chemscore.Lipo>
81.7799

> <Gold.Chemscore.Internal_Hbond>
0.0000

> <Gold.Chemscore.DEClash>
1.7917

> <Gold.Chemscore.DEInternal>
3.3356

> <Gold.Chemscore.Rot>
3.3620

> <Gold.Chemscore.Internal.Correction>
   9.000000E+99

> <Gold.Chemscore.Hbonds>
donor molecule, donor type, donor heavy atom, donor atom, acceptor molecule, acceptor atom, score
      L1  H     6    32       P1  7948  0.14
      L1  H    21    40       P1  8028  0.83
      P1  H  7989  7998       L1    13  0.05
      P1  H  7997  8009       L1    13  0.07
      P1  H 10752 10763       L1    11  0.33

> <Gold.Chemscore.Hbond.Weighted>
-11.0637

> <Gold.Chemscore.Metal.Weighted>
-0.0000

> <Gold.Chemscore.Lipo.Weighted>
-9.5682

> <Gold.Chemscore.Internal_Hbond.Weighted>
0.0000

> <Gold.Chemscore.DEClash.Weighted>
1.7917

> <Gold.Chemscore.DEInternal.Weighted>
3.3356

> <Gold.Chemscore.Rot.Weighted>
8.6067

> <Gold.Chemscore.Internal.Correction.Weighted>
   9.000000E+99

> <Gold.Protein.RotatedTorsions>
[ 6907 6896 6895 6894 ] final  -31.16 input  -60.11 | X-H torsion
[ 7974 7965 7964 7962 ] final   29.76 input  175.53 | X-H torsion
[ 8008 7997 7996 7995 ] final -136.32 input   59.86 | X-H torsion
[ 10167 10162 10161 10158 ] final   92.72 input  -65.29 | X-H torsion
[ 10718 10713 10712 10709 ] final -105.39 input   66.30 | X-H torsion
[ 10763 10752 10751 10750 ] final   44.47 input  -60.55 | X-H torsion
[ 11005 11000 10999 10996 ] final   29.44 input  -57.11 | X-H torsion

> <Gold.Protein.ActiveResidues>
 VAL166  LYS551  ARG553  GLY616  TRP617  ASP618  TYR619  PRO620  LYS621  CYS622 
 ASP623  PHE694  ASN695  SER759  ASP760  ASP761  ALA762  ILE779  LEU786  VAL792 
 PHE793  MET794  SER795  GLU796  ALA797  LYS798  CYS799  TRP800  GLU811  SER814 

> <Gold.Protein.RotatedAtoms>
  151.0958  134.9943  159.8424 H   0  0  0  0  0  0  0  0  0  0  0  0  # atno 6907 bound_to 6896
  152.5433  134.2009  159.8722 H   0  0  0  0  0  0  0  0  0  0  0  0  # atno 6908 bound_to 6896
  151.2049  133.4545  159.2630 H   0  0  0  0  0  0  0  0  0  0  0  0  # atno 6909 bound_to 6896
  146.1652  139.6878  142.9006 H   0  0  0  0  0  0  0  0  0  0  0  0  # atno 7974 bound_to 7965
  155.3934  140.0501  157.3040 H   0  0  0  0  0  0  0  0  0  0  0  0  # atno 8008 bound_to 7997
  154.5025  140.2162  155.9278 H   0  0  0  0  0  0  0  0  0  0  0  0  # atno 8009 bound_to 7997
  156.1485  140.3140  155.8615 H   0  0  0  0  0  0  0  0  0  0  0  0  # atno 8010 bound_to 7997
  139.8250  144.6714  150.9471 H   0  0  0  0  0  0  0  0  0  0  0  0  # atno 10167 bound_to 10162
  156.0344  130.5561  150.7533 H   0  0  0  0  0  0  0  0  0  0  0  0  # atno 10718 bound_to 10713
  152.9841  135.6070  154.3279 H   0  0  0  0  0  0  0  0  0  0  0  0  # atno 10763 bound_to 10752
  154.2984  135.2773  155.2624 H   0  0  0  0  0  0  0  0  0  0  0  0  # atno 10764 bound_to 10752
  154.4888  135.5898  153.6500 H   0  0  0  0  0  0  0  0  0  0  0  0  # atno 10765 bound_to 10752
  140.3049  134.2714  155.7746 H   0  0  0  0  0  0  0  0  0  0  0  0  # atno 11005 bound_to 11000
  145.4485  141.0427  143.2817 LP  0  0  0  0  0  0  0  0  0  0  0  0  # atno 17320 bound_to 7965
  144.8082  139.6010  143.7041 LP  0  0  0  0  0  0  0  0  0  0  0  0  # atno 17321 bound_to 7965
  140.7811  143.4055  151.1077 LP  0  0  0  0  0  0  0  0  0  0  0  0  # atno 17342 bound_to 10162
  139.7713  143.8490  152.3121 LP  0  0  0  0  0  0  0  0  0  0  0  0  # atno 17343 bound_to 10162
  157.5071  131.0923  151.0243 LP  0  0  0  0  0  0  0  0  0  0  0  0  # atno 17370 bound_to 10713
  157.0608  130.5825  149.5385 LP  0  0  0  0  0  0  0  0  0  0  0  0  # atno 17371 bound_to 10713
  141.2120  133.7670  156.9822 LP  0  0  0  0  0  0  0  0  0  0  0  0  # atno 17394 bound_to 11000
  140.1076  134.9497  157.2017 LP  0  0  0  0  0  0  0  0  0  0  0  0  # atno 17395 bound_to 11000

$$$$
