AV-unprocessed.smi:668|AV-procd|sdf|3259|dock9
  -GOLD-   22720 0213D 1   1.00000     0.00000
 Structure written by MMmdl.
 38 39  0  0  0  0  0  0  0  0  1 V2000
  153.5073  136.8545  157.0758 C   0  0  0  0  0  0  0  0  0  0  0  0
  152.8882  135.5804  157.2146 O   0  0  0  0  0  0  0  0  0  0  0  0
  151.8862  135.2389  156.3295 C   0  0  0  0  0  0  0  0  0  0  0  0
  151.2717  133.9778  156.4612 C   0  0  0  0  0  0  0  0  0  0  0  0
  150.2423  133.6247  155.5680 C   0  0  0  0  0  0  0  0  0  0  0  0
  149.8549  134.5512  154.5711 C   0  0  0  0  0  0  0  0  0  0  0  0
  148.8409  134.3057  153.6070 N   0  0  0  0  0  0  0  0  0  0  0  0
  147.8395  133.4116  153.6655 C   0  0  0  0  0  0  0  0  0  0  0  0
  147.6375  132.6294  154.5942 O   0  0  0  0  0  0  0  0  0  0  0  0
  147.0575  133.4878  152.5799 N   0  0  0  0  0  0  0  0  0  0  0  0
  145.8619  132.6801  152.3508 C   0  0  2  0  0  0  0  0  0  0  0  0
  146.1466  131.1738  152.4585 C   0  0  0  0  0  0  0  0  0  0  0  0
  145.1842  130.5259  151.4684 C   0  0  0  0  0  0  0  0  0  0  0  0
  145.1362  131.5106  150.3021 C   0  0  0  0  0  0  0  0  0  0  0  0
  145.2958  132.9125  150.9251 C   0  0  1  0  0  0  0  0  0  0  0  0
  143.9741  133.6976  150.9479 C   0  0  0  0  0  0  0  0  0  0  0  0
  143.3349  133.8486  149.7850 N   0  0  0  0  0  0  0  0  0  0  0  0
  143.5331  134.1573  151.9996 O   0  0  0  0  0  0  0  0  0  0  0  0
  150.5467  135.7783  154.5105 C   0  0  0  0  0  0  0  0  0  0  0  0
  151.5318  136.1244  155.3657 N   0  0  0  0  0  0  0  0  0  0  0  0
  154.2674  136.9721  157.8480 H   0  0  0  0  0  0  0  0  0  0  0  0
  152.7848  137.6628  157.1980 H   0  0  0  0  0  0  0  0  0  0  0  0
  154.0004  136.9579  156.1080 H   0  0  0  0  0  0  0  0  0  0  0  0
  151.5855  133.2915  157.2338 H   0  0  0  0  0  0  0  0  0  0  0  0
  149.7825  132.6527  155.6570 H   0  0  0  0  0  0  0  0  0  0  0  0
  148.8294  134.9368  152.8192 H   0  0  0  0  0  0  0  0  0  0  0  0
  147.2968  134.1599  151.8660 H   0  0  0  0  0  0  0  0  0  0  0  0
  145.1120  132.9398  153.1017 H   0  0  0  0  0  0  0  0  0  0  0  0
  147.1717  130.9576  152.1528 H   0  0  0  0  0  0  0  0  0  0  0  0
  146.0189  130.7968  153.4737 H   0  0  0  0  0  0  0  0  0  0  0  0
  145.5013  129.5279  151.1643 H   0  0  0  0  0  0  0  0  0  0  0  0
  144.1949  130.4397  151.9198 H   0  0  0  0  0  0  0  0  0  0  0  0
  145.9731  131.3175  149.6295 H   0  0  0  0  0  0  0  0  0  0  0  0
  144.2245  131.3939  149.7139 H   0  0  0  0  0  0  0  0  0  0  0  0
  146.0129  133.4668  150.3158 H   0  0  0  0  0  0  0  0  0  0  0  0
  142.4638  134.3576  149.7489 H   0  0  0  0  0  0  0  0  0  0  0  0
  143.7285  133.4523  148.9437 H   0  0  0  0  0  0  0  0  0  0  0  0
  150.2971  136.5116  153.7574 H   0  0  0  0  0  0  0  0  0  0  0  0
  1  2  1  0  0  0  0
  1 21  1  0  0  0  0
  1 22  1  0  0  0  0
  1 23  1  0  0  0  0
  2  3  1  0  0  0  0
  3 20  1  0  0  0  0
  3  4  2  0  0  0  0
  4  5  1  0  0  0  0
  4 24  1  0  0  0  0
  5  6  2  0  0  0  0
  5 25  1  0  0  0  0
  6  7  1  0  0  0  0
  6 19  1  0  0  0  0
  7  8  1  0  0  0  0
  7 26  1  0  0  0  0
  8  9  2  0  0  0  0
  8 10  1  0  0  0  0
 10 11  1  0  0  0  0
 10 27  1  0  0  0  0
 11 15  1  0  0  0  0
 11 12  1  0  0  0  0
 11 28  1  0  0  0  0
 12 13  1  0  0  0  0
 12 29  1  0  0  0  0
 12 30  1  0  0  0  0
 13 14  1  0  0  0  0
 13 31  1  0  0  0  0
 13 32  1  0  0  0  0
 14 15  1  0  0  0  0
 14 33  1  0  0  0  0
 14 34  1  0  0  0  0
 15 16  1  0  0  0  0
 15 35  1  0  0  0  0
 16 17  1  0  0  0  0
 16 18  2  0  0  0  0
 17 36  1  0  0  0  0
 17 37  1  0  0  0  0
 19 20  2  0  0  0  0
 19 38  1  0  0  0  0
M  END
> <s_m_source_file>
AV-unprocessed.smi

> <i_m_source_file_index>
668

> <i_lp_mmshare_version>
43012

> <i_f3d_flags>
0

> <s_epik_input>
W0NIM11PYzFbY0hdW2NIXWMoW2NIXW4xKVtOSF1DKD1PKVtOSF1bQ0BASF0yW0NIMl1bQ0gyXVtDSDJdW0NASF0yQyg9TylbTkgyXQ==

> <s_epik_cmdline>
J2VwaWtfcHl0aG9uJywgJy1waCcsICc3LjAnLCAnLXRuJywgJzgnLCAnLW1hJywgJzIwMCcsICctbWV0YWxfYmluZGluZycsICctaW1hZScsICc8aW5maWxlLm1hZT4nLCAnLW9tYWUnLCAnPG91dGZpbGUubWFlPic=

> <r_lp_tautomer_probability>
1

> <r_epik_Ionization_Penalty>
9.0916e-05

> <r_epik_Ionization_Penalty_Charging>
0

> <r_epik_Ionization_Penalty_Neutral>
9.0916e-05

> <r_epik_State_Penalty>
-0

> <r_epik_Charging_Adjusted_Penalty>
0

> <i_epik_Tot_Q>
0

> <i_epik_Tot_abs_Q>
0

> <r_epik_Metal_State_Penalty>
-0

> <b_epik_Metal_Only>
0

> <s_lp_Force_Field>
OPLS_2005

> <r_lp_Energy>
16.4016

> <b_lp_Chiralities_Consistent>
1

> <s_lp_Variant>
AV-unprocessed.smi:668-1

> <Gold.Version>
5.8.1

> <Gold.Id.Protein>
6NUR|6NUR_protein|mol2

> <Gold.PLP.Fitness>
37.5771

> <Gold.PLP.PLP>
-27.9415

> <Gold.PLP.part.hbond>
-4.0000

> <Gold.PLP.part.metal>
0.0000

> <Gold.PLP.part.buried>
-3.4047

> <Gold.PLP.part.nonpolar>
-21.3534

> <Gold.PLP.part.repulsive>
0.2923

> <Gold.PLP.ligand.clash>
0.0000

> <Gold.PLP.ligand.torsion>
0.1801

> <Gold.PLP.Chemscore.Hbond>
2.4800

> <Gold.PLP.Chemscore.CHOScore>
0.8505

> <Gold.PLP.Chemscore.Metal>
0.0000

> <Gold.Chemscore.Hbonds>
donor molecule, donor type, donor heavy atom, donor atom, acceptor molecule, acceptor atom, score
      L1  H     7    26       P1  7948  0.85
      L1  H    17    36       P1 10186  0.84
      P1  H 10752 10763       L1    20  0.15
      L1  C    19    38       P1  7948  0.61
      L1  C    19    38       P1  7949  0.15

> <Gold.PLP.Chemscore.Internal.Correction>
0.0042

> <Gold.Rescore>
     Score         DG    S(hbond)    S(metal)    S(lipo)     H(rot)  DE(clash)    DE(int)     intcor
     12.11     -14.49       1.79        0.00      66.77       1.86       0.16       2.22       ----

> <Gold.Chemscore.Fitness>
12.1094

> <Gold.Chemscore.DG>
-14.4873

> <Gold.Chemscore.ZeroCoef>
-5.4800

> <Gold.Chemscore.Hbond>
1.7873

> <Gold.Chemscore.Metal>
0.0000

> <Gold.Chemscore.Lipo>
66.7671

> <Gold.Chemscore.Internal_Hbond>
0.0000

> <Gold.Chemscore.DEClash>
0.1613

> <Gold.Chemscore.DEInternal>
2.2167

> <Gold.Chemscore.Rot>
1.8648

> <Gold.Chemscore.Internal.Correction>
   9.000000E+99

> <Gold.Chemscore.Hbonds>
donor molecule, donor type, donor heavy atom, donor atom, acceptor molecule, acceptor atom, score
      L1  H     7    26       P1  7948  0.14
      L1  H    17    36       P1 10186  0.78

> <Gold.Chemscore.Hbond.Weighted>
-5.9695

> <Gold.Chemscore.Metal.Weighted>
-0.0000

> <Gold.Chemscore.Lipo.Weighted>
-7.8117

> <Gold.Chemscore.Internal_Hbond.Weighted>
0.0000

> <Gold.Chemscore.DEClash.Weighted>
0.1613

> <Gold.Chemscore.DEInternal.Weighted>
2.2167

> <Gold.Chemscore.Rot.Weighted>
4.7739

> <Gold.Chemscore.Internal.Correction.Weighted>
   9.000000E+99

> <Gold.Protein.RotatedTorsions>
[ 6907 6896 6895 6894 ] final   -9.91 input  -60.11 | X-H torsion
[ 7974 7965 7964 7962 ] final -123.99 input  175.53 | X-H torsion
[ 8008 7997 7996 7995 ] final  113.48 input   59.86 | X-H torsion
[ 10167 10162 10161 10158 ] final  -10.00 input  -65.29 | X-H torsion
[ 10718 10713 10712 10709 ] final  -51.80 input   66.30 | X-H torsion
[ 10763 10752 10751 10750 ] final   61.59 input  -60.55 | X-H torsion
[ 11005 11000 10999 10996 ] final  -16.28 input  -57.11 | X-H torsion

> <Gold.Protein.ActiveResidues>
 VAL166  LYS551  ARG553  GLY616  TRP617  ASP618  TYR619  PRO620  LYS621  CYS622 
 ASP623  PHE694  ASN695  SER759  ASP760  ASP761  ALA762  ILE779  LEU786  VAL792 
 PHE793  MET794  SER795  GLU796  ALA797  LYS798  CYS799  TRP800  GLU811  SER814 

> <Gold.Protein.RotatedAtoms>
  151.4103  135.0984  159.9582 H   0  0  0  0  0  0  0  0  0  0  0  0  # atno 6907 bound_to 6896
  152.5022  133.8803  159.7353 H   0  0  0  0  0  0  0  0  0  0  0  0  # atno 6908 bound_to 6896
  150.9297  133.6725  159.2842 H   0  0  0  0  0  0  0  0  0  0  0  0  # atno 6909 bound_to 6896
  145.0128  140.7921  143.4428 H   0  0  0  0  0  0  0  0  0  0  0  0  # atno 7974 bound_to 7965
  156.2261  140.2978  156.0070 H   0  0  0  0  0  0  0  0  0  0  0  0  # atno 8008 bound_to 7997
  155.2353  140.0420  157.2985 H   0  0  0  0  0  0  0  0  0  0  0  0  # atno 8009 bound_to 7997
  154.5917  140.2403  155.7919 H   0  0  0  0  0  0  0  0  0  0  0  0  # atno 8010 bound_to 7997
  140.7102  143.5796  150.9006 H   0  0  0  0  0  0  0  0  0  0  0  0  # atno 10167 bound_to 10162
  156.1677  130.4149  149.9694 H   0  0  0  0  0  0  0  0  0  0  0  0  # atno 10718 bound_to 10713
  152.9955  135.5495  154.6058 H   0  0  0  0  0  0  0  0  0  0  0  0  # atno 10763 bound_to 10752
  154.5390  135.2818  155.1115 H   0  0  0  0  0  0  0  0  0  0  0  0  # atno 10764 bound_to 10752
  154.2400  135.6418  153.5256 H   0  0  0  0  0  0  0  0  0  0  0  0  # atno 10765 bound_to 10752
  140.8052  133.8183  155.9509 H   0  0  0  0  0  0  0  0  0  0  0  0  # atno 11005 bound_to 11000
  145.2000  139.2257  143.5198 LP  0  0  0  0  0  0  0  0  0  0  0  0  # atno 17320 bound_to 7965
  146.3473  140.1815  142.8589 LP  0  0  0  0  0  0  0  0  0  0  0  0  # atno 17321 bound_to 7965
  139.9522  143.6259  152.3026 LP  0  0  0  0  0  0  0  0  0  0  0  0  # atno 17342 bound_to 10162
  139.6782  144.7657  151.1657 LP  0  0  0  0  0  0  0  0  0  0  0  0  # atno 17343 bound_to 10162
  156.7504  130.9113  151.3637 LP  0  0  0  0  0  0  0  0  0  0  0  0  # atno 17370 bound_to 10713
  157.6780  130.9113  150.0198 LP  0  0  0  0  0  0  0  0  0  0  0  0  # atno 17371 bound_to 10713
  140.9254  134.2089  157.4899 LP  0  0  0  0  0  0  0  0  0  0  0  0  # atno 17394 bound_to 11000
  139.8718  134.9810  156.5099 LP  0  0  0  0  0  0  0  0  0  0  0  0  # atno 17395 bound_to 11000

$$$$
