AV-unprocessed.smi:2702|AV-procd|sdf|10433|dock6
  -GOLD-   2272014473D 1   1.00000     0.00000
 Structure written by MMmdl.
 47 48  0  0  0  0  0  0  0  0  1 V2000
  151.8372  143.7501  158.2209 C   0  0  0  0  0  0  0  0  0  0  0  0
  151.2014  142.5627  157.7825 O   0  0  0  0  0  0  0  0  0  0  0  0
  150.8905  142.5912  156.3995 C   0  0  0  0  0  0  0  0  0  0  0  0
  150.8432  141.1850  155.8362 C   0  0  0  0  0  0  0  0  0  0  0  0
  149.7383  140.6897  155.2313 C   0  0  0  0  0  0  0  0  0  0  0  0
  149.7268  139.3275  154.6984 C   0  0  0  0  0  0  0  0  0  0  0  0
  148.7416  138.8410  154.1420 O   0  0  0  0  0  0  0  0  0  0  0  0
  150.8918  138.6343  154.8664 N   0  0  0  0  0  0  0  0  0  0  0  0
  151.0303  137.2475  154.3859 C   0  0  0  0  0  0  0  0  0  0  0  0
  150.2366  136.2428  155.2322 C   0  0  0  0  0  0  0  0  0  0  0  0
  150.4181  136.1693  156.4481 O   0  0  0  0  0  0  0  0  0  0  0  0
  149.3532  135.4826  154.5671 N   0  0  0  0  0  0  0  0  0  0  0  0
  148.5086  134.4329  155.1413 C   0  0  1  0  0  0  0  0  0  0  0  0
  147.3204  134.1484  154.2041 C   0  0  0  0  0  0  0  0  0  0  0  0
  147.7651  133.4538  152.9088 C   0  0  0  0  0  0  0  0  0  0  0  0
  148.5481  132.1700  153.2145 C   0  0  0  0  0  0  0  0  0  0  0  0
  149.7627  132.4328  154.1286 C   0  0  2  0  0  0  0  0  0  0  0  0
  150.5161  131.1153  154.3834 C   0  0  0  0  0  0  0  0  0  0  0  0
  149.3188  133.1417  155.4390 C   0  0  1  0  0  0  0  0  0  0  0  0
  150.4903  133.4140  156.4047 C   0  0  0  0  0  0  0  0  0  0  0  0
  152.0182  139.2032  155.4934 C   0  0  0  0  0  0  0  0  0  0  0  0
  152.0027  140.4125  155.9569 N   0  0  0  0  0  0  0  0  0  0  0  0
  152.0562  143.6763  159.2861 H   0  0  0  0  0  0  0  0  0  0  0  0
  151.1969  144.6198  158.0679 H   0  0  0  0  0  0  0  0  0  0  0  0
  152.7790  143.9109  157.6944 H   0  0  0  0  0  0  0  0  0  0  0  0
  149.9326  143.0900  156.2418 H   0  0  0  0  0  0  0  0  0  0  0  0
  151.6456  143.1610  155.8558 H   0  0  0  0  0  0  0  0  0  0  0  0
  148.8500  141.2981  155.1412 H   0  0  0  0  0  0  0  0  0  0  0  0
  150.7084  137.1448  153.3482 H   0  0  0  0  0  0  0  0  0  0  0  0
  152.0858  136.9686  154.3816 H   0  0  0  0  0  0  0  0  0  0  0  0
  149.2752  135.6228  153.5702 H   0  0  0  0  0  0  0  0  0  0  0  0
  148.0875  134.7900  156.0826 H   0  0  0  0  0  0  0  0  0  0  0  0
  146.6014  133.5114  154.7209 H   0  0  0  0  0  0  0  0  0  0  0  0
  146.7921  135.0737  153.9708 H   0  0  0  0  0  0  0  0  0  0  0  0
  146.8936  133.2194  152.2970 H   0  0  0  0  0  0  0  0  0  0  0  0
  148.3832  134.1289  152.3160 H   0  0  0  0  0  0  0  0  0  0  0  0
  147.8828  131.4460  153.6872 H   0  0  0  0  0  0  0  0  0  0  0  0
  148.8764  131.7174  152.2781 H   0  0  0  0  0  0  0  0  0  0  0  0
  150.4444  133.0958  153.5940 H   0  0  0  0  0  0  0  0  0  0  0  0
  149.9199  130.4260  154.9820 H   0  0  0  0  0  0  0  0  0  0  0  0
  151.4594  131.2830  154.9026 H   0  0  0  0  0  0  0  0  0  0  0  0
  150.7572  130.6154  153.4449 H   0  0  0  0  0  0  0  0  0  0  0  0
  148.6413  132.4629  155.9598 H   0  0  0  0  0  0  0  0  0  0  0  0
  151.2931  133.9688  155.9184 H   0  0  0  0  0  0  0  0  0  0  0  0
  150.9150  132.4886  156.7925 H   0  0  0  0  0  0  0  0  0  0  0  0
  150.1602  133.9951  157.2661 H   0  0  0  0  0  0  0  0  0  0  0  0
  152.8968  138.5592  155.5555 H   0  0  0  0  0  0  0  0  0  0  0  0
  1  2  1  0  0  0  0
  1 23  1  0  0  0  0
  1 24  1  0  0  0  0
  1 25  1  0  0  0  0
  2  3  1  0  0  0  0
  3  4  1  0  0  0  0
  3 26  1  0  0  0  0
  3 27  1  0  0  0  0
  4 22  1  0  0  0  0
  4  5  2  0  0  0  0
  5  6  1  0  0  0  0
  5 28  1  0  0  0  0
  6  7  2  0  0  0  0
  6  8  1  0  0  0  0
  8  9  1  0  0  0  0
  8 21  1  0  0  0  0
  9 10  1  0  0  0  0
  9 29  1  0  0  0  0
  9 30  1  0  0  0  0
 10 11  2  0  0  0  0
 10 12  1  0  0  0  0
 12 13  1  0  0  0  0
 12 31  1  0  0  0  0
 13 19  1  0  0  0  0
 13 14  1  0  0  0  0
 13 32  1  0  0  0  0
 14 15  1  0  0  0  0
 14 33  1  0  0  0  0
 14 34  1  0  0  0  0
 15 16  1  0  0  0  0
 15 35  1  0  0  0  0
 15 36  1  0  0  0  0
 16 17  1  0  0  0  0
 16 37  1  0  0  0  0
 16 38  1  0  0  0  0
 17 18  1  0  0  0  0
 17 19  1  0  0  0  0
 17 39  1  0  0  0  0
 18 40  1  0  0  0  0
 18 41  1  0  0  0  0
 18 42  1  0  0  0  0
 19 20  1  0  0  0  0
 19 43  1  0  0  0  0
 20 44  1  0  0  0  0
 20 45  1  0  0  0  0
 20 46  1  0  0  0  0
 21 22  2  0  0  0  0
 21 47  1  0  0  0  0
M  END
> <s_m_source_file>
AV-unprocessed.smi

> <i_m_source_file_index>
2702

> <i_lp_mmshare_version>
43012

> <i_f3d_flags>
0

> <s_epik_input>
W0NIM11PW0NIMl1jMVtjSF1jKD1PKW4oW2NIXW4xKVtDSDJdQyg9TylbTkhdW0NAQEhdMltDSDJdW0NIMl1bQ0gyXVtDQEBIXShbQ0gzXSlbQ0BIXTJbQ0gzXQ==

> <s_epik_cmdline>
J2VwaWtfcHl0aG9uJywgJy1waCcsICc3LjAnLCAnLXRuJywgJzgnLCAnLW1hJywgJzIwMCcsICctbWV0YWxfYmluZGluZycsICctaW1hZScsICc8aW5maWxlLm1hZT4nLCAnLW9tYWUnLCAnPG91dGZpbGUubWFlPic=

> <r_lp_tautomer_probability>
1

> <r_epik_Ionization_Penalty>
1.22164e-06

> <r_epik_Ionization_Penalty_Charging>
3.17988e-07

> <r_epik_Ionization_Penalty_Neutral>
9.03656e-07

> <r_epik_State_Penalty>
-0

> <r_epik_Charging_Adjusted_Penalty>
3.17988e-07

> <i_epik_Tot_Q>
0

> <i_epik_Tot_abs_Q>
0

> <r_epik_Metal_State_Penalty>
-0

> <b_epik_Metal_Only>
0

> <s_lp_Force_Field>
OPLS_2005

> <r_lp_Energy>
16.6041

> <b_lp_Chiralities_Consistent>
1

> <s_lp_Variant>
AV-unprocessed.smi:2702-4

> <Gold.Version>
5.8.1

> <Gold.Id.Protein>
6NUR|6NUR_protein|mol2

> <Gold.PLP.Fitness>
39.2836

> <Gold.PLP.PLP>
-37.3529

> <Gold.PLP.part.hbond>
-1.4983

> <Gold.PLP.part.metal>
0.0000

> <Gold.PLP.part.buried>
-2.0938

> <Gold.PLP.part.nonpolar>
-32.8225

> <Gold.PLP.part.repulsive>
0.2659

> <Gold.PLP.ligand.clash>
0.0000

> <Gold.PLP.ligand.torsion>
0.5435

> <Gold.PLP.Chemscore.Hbond>
1.0000

> <Gold.PLP.Chemscore.CHOScore>
0.0000

> <Gold.PLP.Chemscore.Metal>
0.0000

> <Gold.Chemscore.Hbonds>
donor molecule, donor type, donor heavy atom, donor atom, acceptor molecule, acceptor atom, score
      L1  H    12    31       P1  7948  1.00

> <Gold.PLP.Chemscore.Internal.Correction>
0.0177

> <Gold.Rescore>
     Score         DG    S(hbond)    S(metal)    S(lipo)     H(rot)  DE(clash)    DE(int)     intcor
     10.94     -12.70       0.98        0.00      75.84       1.93       0.03       1.74       ----

> <Gold.Chemscore.Fitness>
10.9357

> <Gold.Chemscore.DG>
-12.7032

> <Gold.Chemscore.ZeroCoef>
-5.4800

> <Gold.Chemscore.Hbond>
0.9841

> <Gold.Chemscore.Metal>
0.0000

> <Gold.Chemscore.Lipo>
75.8389

> <Gold.Chemscore.Internal_Hbond>
0.0000

> <Gold.Chemscore.DEClash>
0.0251

> <Gold.Chemscore.DEInternal>
1.7425

> <Gold.Chemscore.Rot>
1.9284

> <Gold.Chemscore.Internal.Correction>
   9.000000E+99

> <Gold.Chemscore.Hbonds>
donor molecule, donor type, donor heavy atom, donor atom, acceptor molecule, acceptor atom, score
      L1  H    12    31       P1  7948  0.50

> <Gold.Chemscore.Hbond.Weighted>
-3.2869

> <Gold.Chemscore.Metal.Weighted>
-0.0000

> <Gold.Chemscore.Lipo.Weighted>
-8.8731

> <Gold.Chemscore.Internal_Hbond.Weighted>
0.0000

> <Gold.Chemscore.DEClash.Weighted>
0.0251

> <Gold.Chemscore.DEInternal.Weighted>
1.7425

> <Gold.Chemscore.Rot.Weighted>
4.9368

> <Gold.Chemscore.Internal.Correction.Weighted>
   9.000000E+99

> <Gold.Protein.RotatedTorsions>
[ 6907 6896 6895 6894 ] final  118.45 input  -60.11 | X-H torsion
[ 7974 7965 7964 7962 ] final  -58.03 input  175.53 | X-H torsion
[ 8008 7997 7996 7995 ] final -108.13 input   59.86 | X-H torsion
[ 10167 10162 10161 10158 ] final   45.67 input  -65.29 | X-H torsion
[ 10718 10713 10712 10709 ] final  179.11 input   66.30 | X-H torsion
[ 10763 10752 10751 10750 ] final  103.23 input  -60.55 | X-H torsion
[ 11005 11000 10999 10996 ] final -143.35 input  -57.11 | X-H torsion

> <Gold.Protein.ActiveResidues>
 VAL166  LYS551  ARG553  GLY616  TRP617  ASP618  TYR619  PRO620  LYS621  CYS622 
 ASP623  PHE694  ASN695  SER759  ASP760  ASP761  ALA762  ILE779  LEU786  VAL792 
 PHE793  MET794  SER795  GLU796  ALA797  LYS798  CYS799  TRP800  GLU811  SER814 

> <Gold.Protein.RotatedAtoms>
  152.4542  133.7689  159.6787 H   0  0  0  0  0  0  0  0  0  0  0  0  # atno 6907 bound_to 6896
  150.8463  133.7847  159.3048 H   0  0  0  0  0  0  0  0  0  0  0  0  # atno 6908 bound_to 6896
  151.5456  135.1071  159.9989 H   0  0  0  0  0  0  0  0  0  0  0  0  # atno 6909 bound_to 6896
  145.8441  140.8397  143.0019 H   0  0  0  0  0  0  0  0  0  0  0  0  # atno 7974 bound_to 7965
  154.9396  140.0403  157.2090 H   0  0  0  0  0  0  0  0  0  0  0  0  # atno 8008 bound_to 7997
  154.8081  140.2863  155.5851 H   0  0  0  0  0  0  0  0  0  0  0  0  # atno 8009 bound_to 7997
  156.2969  140.2542  156.2964 H   0  0  0  0  0  0  0  0  0  0  0  0  # atno 8010 bound_to 7997
  140.3218  144.2696  150.6181 H   0  0  0  0  0  0  0  0  0  0  0  0  # atno 10167 bound_to 10162
  156.8806  130.9814  151.3062 H   0  0  0  0  0  0  0  0  0  0  0  0  # atno 10718 bound_to 10713
  153.3499  135.3984  155.1638 H   0  0  0  0  0  0  0  0  0  0  0  0  # atno 10763 bound_to 10752
  154.8660  135.3654  154.5236 H   0  0  0  0  0  0  0  0  0  0  0  0  # atno 10764 bound_to 10752
  153.5687  135.7079  153.5574 H   0  0  0  0  0  0  0  0  0  0  0  0  # atno 10765 bound_to 10752
  140.8134  134.2718  157.4931 H   0  0  0  0  0  0  0  0  0  0  0  0  # atno 11005 bound_to 11000
  144.6732  140.0855  143.7467 LP  0  0  0  0  0  0  0  0  0  0  0  0  # atno 17320 bound_to 7965
  145.9432  139.2683  143.1256 LP  0  0  0  0  0  0  0  0  0  0  0  0  # atno 17321 bound_to 7965
  140.5477  143.2212  151.7980 LP  0  0  0  0  0  0  0  0  0  0  0  0  # atno 17342 bound_to 10162
  139.4873  144.4518  151.9645 LP  0  0  0  0  0  0  0  0  0  0  0  0  # atno 17343 bound_to 10162
  157.6142  130.8606  149.9002 LP  0  0  0  0  0  0  0  0  0  0  0  0  # atno 17370 bound_to 10713
  156.0679  130.3689  150.0838 LP  0  0  0  0  0  0  0  0  0  0  0  0  # atno 17371 bound_to 10713
  139.8712  134.9495  156.4029 LP  0  0  0  0  0  0  0  0  0  0  0  0  # atno 17394 bound_to 11000
  140.9175  133.7668  155.9865 LP  0  0  0  0  0  0  0  0  0  0  0  0  # atno 17395 bound_to 11000

$$$$
