AV-unprocessed.smi:1802|AV-procd|sdf|7277|dock6
  -GOLD-   22720 8533D 1   1.00000     0.00000
 Structure written by MMmdl.
 40 41  0  0  0  0  0  0  0  0  3 V2000
  146.4799  129.2071  151.3264 C   0  0  0  0  0  0  0  0  0  0  0  0
  145.7320  130.3018  152.1077 C   0  0  2  0  0  0  0  0  0  0  0  0
  144.7180  131.0700  151.2396 C   0  0  0  0  0  0  0  0  0  0  0  0
  145.4248  132.0397  150.2821 C   0  0  0  0  0  0  0  0  0  0  0  0
  146.3870  132.9658  151.0431 C   0  0  0  0  0  0  0  0  0  0  0  0
  147.3715  132.1831  151.8335 N   0  3  1  0  0  0  0  0  0  0  0  0
  148.4053  133.0462  152.4577 C   0  0  0  0  0  0  0  0  0  0  0  0
  148.0058  133.5092  153.8686 C   0  0  0  0  0  0  0  0  0  0  0  0
  149.2234  133.7006  154.7812 C   0  0  0  0  0  0  0  0  0  0  0  0
  150.0551  134.7948  154.2999 N   0  0  0  0  0  0  0  0  0  0  0  0
  150.3365  135.9091  154.9877 C   0  0  0  0  0  0  0  0  0  0  0  0
  149.8712  136.0663  156.1188 O   0  0  0  0  0  0  0  0  0  0  0  0
  151.1387  136.7702  154.3221 N   0  5  0  0  0  0  0  0  0  0  0  0
  151.2373  138.0469  154.7280 C   0  0  0  0  0  0  0  0  0  0  0  0
  150.3757  138.9952  154.3267 N   0  0  0  0  0  0  0  0  0  0  0  0
  150.6506  140.2454  154.8640 N   0  0  0  0  0  0  0  0  0  0  0  0
  151.7130  140.2057  155.6678 C   0  0  0  0  0  0  0  0  0  0  0  0
  152.4715  138.6376  155.8446 S   0  0  0  0  0  0  0  0  0  0  0  0
  146.6974  131.2812  152.8070 C   0  0  0  0  0  0  0  0  0  0  0  0
  147.0971  129.6228  150.5299 H   0  0  0  0  0  0  0  0  0  0  0  0
  145.7818  128.5037  150.8722 H   0  0  0  0  0  0  0  0  0  0  0  0
  147.1350  128.6366  151.9851 H   0  0  0  0  0  0  0  0  0  0  0  0
  145.1667  129.7888  152.8872 H   0  0  0  0  0  0  0  0  0  0  0  0
  144.0876  130.3771  150.6811 H   0  0  0  0  0  0  0  0  0  0  0  0
  144.0480  131.6364  151.8877 H   0  0  0  0  0  0  0  0  0  0  0  0
  145.9737  131.4812  149.5231 H   0  0  0  0  0  0  0  0  0  0  0  0
  144.6847  132.6350  149.7464 H   0  0  0  0  0  0  0  0  0  0  0  0
  146.9085  133.6007  150.3258 H   0  0  0  0  0  0  0  0  0  0  0  0
  145.8297  133.6283  151.7072 H   0  0  0  0  0  0  0  0  0  0  0  0
  149.3378  132.4864  152.5434 H   0  0  0  0  0  0  0  0  0  0  0  0
  148.6180  133.8997  151.8123 H   0  0  0  0  0  0  0  0  0  0  0  0
  147.4534  134.4475  153.8205 H   0  0  0  0  0  0  0  0  0  0  0  0
  147.3315  132.7759  154.3133 H   0  0  0  0  0  0  0  0  0  0  0  0
  148.9033  133.9174  155.8013 H   0  0  0  0  0  0  0  0  0  0  0  0
  149.8116  132.7819  154.8137 H   0  0  0  0  0  0  0  0  0  0  0  0
  150.4535  134.7035  153.3769 H   0  0  0  0  0  0  0  0  0  0  0  0
  152.0496  141.1045  156.1624 H   0  0  0  0  0  0  0  0  0  0  0  0
  146.1472  131.8872  153.5288 H   0  0  0  0  0  0  0  0  0  0  0  0
  147.4309  130.7143  153.3793 H   0  0  0  0  0  0  0  0  0  0  0  0
  147.8558  131.5935  151.1718 H   0  0  0  0  0  0  0  0  0  0  0  0
  1  2  1  0  0  0  0
  1 20  1  0  0  0  0
  1 21  1  0  0  0  0
  1 22  1  0  0  0  0
  2 19  1  0  0  0  0
  2  3  1  0  0  0  0
  2 23  1  0  0  0  0
  3  4  1  0  0  0  0
  3 24  1  0  0  0  0
  3 25  1  0  0  0  0
  4  5  1  0  0  0  0
  4 26  1  0  0  0  0
  4 27  1  0  0  0  0
  5  6  1  0  0  0  0
  5 28  1  0  0  0  0
  5 29  1  0  0  0  0
  6  7  1  0  0  0  0
  6 19  1  0  0  0  0
  6 40  1  0  0  0  0
  7  8  1  0  0  0  0
  7 30  1  0  0  0  0
  7 31  1  0  0  0  0
  8  9  1  0  0  0  0
  8 32  1  0  0  0  0
  8 33  1  0  0  0  0
  9 10  1  0  0  0  0
  9 34  1  0  0  0  0
  9 35  1  0  0  0  0
 10 11  1  0  0  0  0
 10 36  1  0  0  0  0
 11 12  2  0  0  0  0
 11 13  1  0  0  0  0
 13 14  1  0  0  0  0
 14 18  1  0  0  0  0
 14 15  2  0  0  0  0
 15 16  1  0  0  0  0
 16 17  2  0  0  0  0
 17 18  1  0  0  0  0
 17 37  1  0  0  0  0
 19 38  1  0  0  0  0
 19 39  1  0  0  0  0
M  CHG  1   6   1
M  CHG  1  13  -1
M  END
> <s_m_source_file>
AV-unprocessed.smi

> <i_m_source_file_index>
1802

> <i_lp_mmshare_version>
43012

> <i_f3d_flags>
0

> <s_epik_input>
W0NIM11bQ0BASF0xW0NIMl1bQ0gyXVtDSDJdTihbQ0gyXTEpW0NIMl1bQ0gyXVtDSDJdW05IXUMoPU8pW05IXWMybm5bY0hdczI=

> <s_epik_cmdline>
J2VwaWtfcHl0aG9uJywgJy1waCcsICc3LjAnLCAnLXRuJywgJzgnLCAnLW1hJywgJzIwMCcsICctbWV0YWxfYmluZGluZycsICctaW1hZScsICc8aW5maWxlLm1hZT4nLCAnLW9tYWUnLCAnPG91dGZpbGUubWFlPic=

> <r_lp_tautomer_probability>
1

> <r_epik_Ionization_Penalty>
3.29702

> <r_epik_Ionization_Penalty_Charging>
3.26059

> <r_epik_Ionization_Penalty_Neutral>
0.0364294

> <r_epik_State_Penalty>
3.25788

> <r_epik_Charging_Adjusted_Penalty>
6.51847

> <i_epik_Tot_Q>
0

> <i_epik_Tot_abs_Q>
2

> <r_epik_Metal_State_Penalty>
0.477639

> <b_epik_Metal_Only>
1

> <s_lp_Force_Field>
OPLS_2005

> <r_lp_Energy>
14.2366

> <b_lp_Chiralities_Consistent>
1

> <s_lp_Variant>
AV-unprocessed.smi:1802-7

> <Gold.Version>
5.8.1

> <Gold.Id.Protein>
6NUR|6NUR_protein|mol2

> <Gold.PLP.Fitness>
45.6837

> <Gold.PLP.PLP>
-36.2927

> <Gold.PLP.part.hbond>
-3.9185

> <Gold.PLP.part.metal>
0.0000

> <Gold.PLP.part.buried>
-4.6454

> <Gold.PLP.part.nonpolar>
-28.6640

> <Gold.PLP.part.repulsive>
1.4002

> <Gold.PLP.ligand.clash>
0.0000

> <Gold.PLP.ligand.torsion>
1.3388

> <Gold.PLP.Chemscore.Hbond>
4.0000

> <Gold.PLP.Chemscore.CHOScore>
0.0000

> <Gold.PLP.Chemscore.Metal>
0.0000

> <Gold.Chemscore.Hbonds>
donor molecule, donor type, donor heavy atom, donor atom, acceptor molecule, acceptor atom, score
      L1  H     6    40       P1 10747  1.00
      P1  H  7989  7998       L1    16  0.54
      P1  H 10752 10765       L1    13  1.12

> <Gold.PLP.Chemscore.Internal.Correction>
0.0685

> <Gold.Rescore>
     Score         DG    S(hbond)    S(metal)    S(lipo)     H(rot)  DE(clash)    DE(int)     intcor
     16.94     -18.25       2.42        0.00      82.41       1.94       0.07       1.24       ----

> <Gold.Chemscore.Fitness>
16.9381

> <Gold.Chemscore.DG>
-18.2491

> <Gold.Chemscore.ZeroCoef>
-5.4800

> <Gold.Chemscore.Hbond>
2.4217

> <Gold.Chemscore.Metal>
0.0000

> <Gold.Chemscore.Lipo>
82.4147

> <Gold.Chemscore.Internal_Hbond>
0.0000

> <Gold.Chemscore.DEClash>
0.0737

> <Gold.Chemscore.DEInternal>
1.2372

> <Gold.Chemscore.Rot>
1.9383

> <Gold.Chemscore.Internal.Correction>
   9.000000E+99

> <Gold.Chemscore.Hbonds>
donor molecule, donor type, donor heavy atom, donor atom, acceptor molecule, acceptor atom, score
      L1  H     6    40       P1 10747  0.99
      P1  H  7989  7998       L1    16  0.01
      P1  H 10752 10765       L1    13  0.07

> <Gold.Chemscore.Hbond.Weighted>
-8.0886

> <Gold.Chemscore.Metal.Weighted>
-0.0000

> <Gold.Chemscore.Lipo.Weighted>
-9.6425

> <Gold.Chemscore.Internal_Hbond.Weighted>
0.0000

> <Gold.Chemscore.DEClash.Weighted>
0.0737

> <Gold.Chemscore.DEInternal.Weighted>
1.2372

> <Gold.Chemscore.Rot.Weighted>
4.9620

> <Gold.Chemscore.Internal.Correction.Weighted>
   9.000000E+99

> <Gold.Protein.RotatedTorsions>
[ 6907 6896 6895 6894 ] final   -7.14 input  -60.11 | X-H torsion
[ 7974 7965 7964 7962 ] final -146.75 input  175.53 | X-H torsion
[ 8008 7997 7996 7995 ] final  -92.54 input   59.86 | X-H torsion
[ 10167 10162 10161 10158 ] final  149.65 input  -65.29 | X-H torsion
[ 10718 10713 10712 10709 ] final -127.31 input   66.30 | X-H torsion
[ 10763 10752 10751 10750 ] final  179.01 input  -60.55 | X-H torsion
[ 11005 11000 10999 10996 ] final   78.69 input  -57.11 | X-H torsion

> <Gold.Protein.ActiveResidues>
 VAL166  LYS551  ARG553  GLY616  TRP617  ASP618  TYR619  PRO620  LYS621  CYS622 
 ASP623  PHE694  ASN695  SER759  ASP760  ASP761  ALA762  ILE779  LEU786  VAL792 
 PHE793  MET794  SER795  GLU796  ALA797  LYS798  CYS799  TRP800  GLU811  SER814 

> <Gold.Protein.RotatedAtoms>
  151.4544  135.1033  159.9706 H   0  0  0  0  0  0  0  0  0  0  0  0  # atno 6907 bound_to 6896
  152.4876  133.8411  159.7163 H   0  0  0  0  0  0  0  0  0  0  0  0  # atno 6908 bound_to 6896
  150.9000  133.7071  159.2908 H   0  0  0  0  0  0  0  0  0  0  0  0  # atno 6909 bound_to 6896
  144.8139  140.5416  143.5624 H   0  0  0  0  0  0  0  0  0  0  0  0  # atno 7974 bound_to 7965
  154.7244  140.0508  157.0669 H   0  0  0  0  0  0  0  0  0  0  0  0  # atno 8008 bound_to 7997
  155.0384  140.3166  155.4714 H   0  0  0  0  0  0  0  0  0  0  0  0  # atno 8009 bound_to 7997
  156.2825  140.2137  156.5507 H   0  0  0  0  0  0  0  0  0  0  0  0  # atno 8010 bound_to 7997
  139.4859  144.5585  151.7275 H   0  0  0  0  0  0  0  0  0  0  0  0  # atno 10167 bound_to 10162
  156.1845  130.6754  151.0347 H   0  0  0  0  0  0  0  0  0  0  0  0  # atno 10718 bound_to 10713
  154.5151  135.2790  155.1310 H   0  0  0  0  0  0  0  0  0  0  0  0  # atno 10763 bound_to 10752
  154.2890  135.6270  153.5381 H   0  0  0  0  0  0  0  0  0  0  0  0  # atno 10764 bound_to 10752
  152.9926  135.5669  154.5626 H   0  0  0  0  0  0  0  0  0  0  0  0  # atno 10765 bound_to 10752
  139.9202  134.7783  156.1682 H   0  0  0  0  0  0  0  0  0  0  0  0  # atno 11005 bound_to 11000
  145.5260  139.1476  143.3526 LP  0  0  0  0  0  0  0  0  0  0  0  0  # atno 17320 bound_to 7965
  146.2440  140.5401  142.8922 LP  0  0  0  0  0  0  0  0  0  0  0  0  # atno 17321 bound_to 7965
  140.5150  144.0967  150.6006 LP  0  0  0  0  0  0  0  0  0  0  0  0  # atno 17342 bound_to 10162
  140.3905  143.2755  152.0065 LP  0  0  0  0  0  0  0  0  0  0  0  0  # atno 17343 bound_to 10162
  157.6890  131.0816  150.7162 LP  0  0  0  0  0  0  0  0  0  0  0  0  # atno 17370 bound_to 10713
  156.7219  130.4683  149.5520 LP  0  0  0  0  0  0  0  0  0  0  0  0  # atno 17371 bound_to 10713
  141.0716  133.6794  156.2153 LP  0  0  0  0  0  0  0  0  0  0  0  0  # atno 17394 bound_to 11000
  140.6496  134.5080  157.5576 LP  0  0  0  0  0  0  0  0  0  0  0  0  # atno 17395 bound_to 11000

$$$$
