AV-unprocessed.smi:215|AV-procd|sdf|1654|dock4
  -GOLD-   2262020 43D 1   1.00000     0.00000
 Structure written by MMmdl.
 59 62  0  0  0  0  0  0  0  0  2 V2000
  148.7470  135.9183  154.7819 C   0  0  0  0  0  0  0  0  0  0  0  0
  147.8730  137.1738  154.5873 C   0  0  2  0  0  0  0  0  0  0  0  0
  146.5481  136.9599  153.8303 C   0  0  2  0  0  0  0  0  0  0  0  0
  146.5724  135.8745  152.7982 N   0  3  1  0  0  0  0  0  0  0  0  0
  146.4648  134.5298  153.4166 C   0  0  0  0  0  0  0  0  0  0  0  0
  145.6429  136.0604  151.6467 C   0  0  0  0  0  0  0  0  0  0  0  0
  145.5735  134.8355  150.7170 C   0  0  0  0  0  0  0  0  0  0  0  0
  144.6736  135.0739  149.6556 O   0  0  0  0  0  0  0  0  0  0  0  0
  146.2234  138.3593  153.2845 C   0  0  0  0  0  0  0  0  0  0  0  0
  147.5738  139.0783  153.1681 C   0  0  0  0  0  0  0  0  0  0  0  0
  148.5461  138.2776  153.9044 N   0  0  0  0  0  0  0  0  0  0  0  0
  149.5760  138.9539  154.4774 C   0  0  0  0  0  0  0  0  0  0  0  0
  150.8586  138.5887  154.2139 N   0  0  0  0  0  0  0  0  0  0  0  0
  151.8787  139.2408  154.7784 C   0  0  0  0  0  0  0  0  0  0  0  0
  151.8434  140.2750  155.6196 N   0  0  0  0  0  0  0  0  0  0  0  0
  150.5603  140.6531  155.8846 C   0  0  0  0  0  0  0  0  0  0  0  0
  149.3794  140.0480  155.3679 C   0  0  0  0  0  0  0  0  0  0  0  0
  148.2584  140.6989  155.8701 N   0  0  0  0  0  0  0  0  0  0  0  0
  148.7485  141.6283  156.6447 C   0  0  0  0  0  0  0  0  0  0  0  0
  150.1231  141.6920  156.6873 N   0  0  0  0  0  0  0  0  0  0  0  0
  150.9209  142.5888  157.4712 C   0  0  0  0  0  0  0  0  0  0  0  0
  152.3387  142.2168  157.9123 C   0  0  0  0  0  0  0  0  0  0  0  0
  152.1379  143.0221  159.2153 C   0  0  0  0  0  0  0  0  0  0  0  0
  152.6944  142.3595  160.4864 C   0  0  0  0  0  0  0  0  0  0  0  0
  151.9712  142.7603  161.6325 O   0  0  0  0  0  0  0  0  0  0  0  0
  152.6092  144.4894  159.1605 C   0  0  0  0  0  0  0  0  0  0  0  0
  152.0280  145.2585  160.1942 O   0  0  0  0  0  0  0  0  0  0  0  0
  150.6298  142.8054  158.9578 C   0  0  0  0  0  0  0  0  0  0  0  0
  147.6013  137.5389  155.5791 H   0  0  0  0  0  0  0  0  0  0  0  0
  145.7984  136.6779  154.5713 H   0  0  0  0  0  0  0  0  0  0  0  0
  148.1688  135.1077  155.2259 H   0  0  0  0  0  0  0  0  0  0  0  0
  149.5889  136.1122  155.4455 H   0  0  0  0  0  0  0  0  0  0  0  0
  149.1584  135.5598  153.8394 H   0  0  0  0  0  0  0  0  0  0  0  0
  145.4725  134.3695  153.8392 H   0  0  0  0  0  0  0  0  0  0  0  0
  147.1967  134.4074  154.2156 H   0  0  0  0  0  0  0  0  0  0  0  0
  146.6593  133.7372  152.6959 H   0  0  0  0  0  0  0  0  0  0  0  0
  144.6445  136.2970  152.0159 H   0  0  0  0  0  0  0  0  0  0  0  0
  145.9539  136.9092  151.0403 H   0  0  0  0  0  0  0  0  0  0  0  0
  146.5488  134.5566  150.3207 H   0  0  0  0  0  0  0  0  0  0  0  0
  145.2115  133.9740  151.2790 H   0  0  0  0  0  0  0  0  0  0  0  0
  145.1710  135.2157  148.8640 H   0  0  0  0  0  0  0  0  0  0  0  0
  145.6623  138.3555  152.3499 H   0  0  0  0  0  0  0  0  0  0  0  0
  145.6118  138.8880  154.0165 H   0  0  0  0  0  0  0  0  0  0  0  0
  147.8821  139.1346  152.1239 H   0  0  0  0  0  0  0  0  0  0  0  0
  147.5093  140.0976  153.5522 H   0  0  0  0  0  0  0  0  0  0  0  0
  152.8642  138.8844  154.5168 H   0  0  0  0  0  0  0  0  0  0  0  0
  148.1145  142.3029  157.2019 H   0  0  0  0  0  0  0  0  0  0  0  0
  150.9195  143.5395  156.9358 H   0  0  0  0  0  0  0  0  0  0  0  0
  152.4546  141.1460  158.0913 H   0  0  0  0  0  0  0  0  0  0  0  0
  153.1278  142.5906  157.2591 H   0  0  0  0  0  0  0  0  0  0  0  0
  152.6739  141.2718  160.4155 H   0  0  0  0  0  0  0  0  0  0  0  0
  153.7379  142.6348  160.6406 H   0  0  0  0  0  0  0  0  0  0  0  0
  152.5526  142.7359  162.3772 H   0  0  0  0  0  0  0  0  0  0  0  0
  153.6942  144.5637  159.2363 H   0  0  0  0  0  0  0  0  0  0  0  0
  152.3418  144.9544  158.2114 H   0  0  0  0  0  0  0  0  0  0  0  0
  151.2435  145.6658  159.8600 H   0  0  0  0  0  0  0  0  0  0  0  0
  149.9945  143.6658  159.1696 H   0  0  0  0  0  0  0  0  0  0  0  0
  150.2384  141.9070  159.4388 H   0  0  0  0  0  0  0  0  0  0  0  0
  147.5010  135.9156  152.4019 H   0  0  0  0  0  0  0  0  0  0  0  0
  1  2  1  0  0  0  0
  1 31  1  0  0  0  0
  1 32  1  0  0  0  0
  1 33  1  0  0  0  0
  2 29  1  0  0  0  0
  2 11  1  0  0  0  0
  2  3  1  0  0  0  0
  3 30  1  0  0  0  0
  3  4  1  0  0  0  0
  3  9  1  0  0  0  0
  4  5  1  0  0  0  0
  4  6  1  0  0  0  0
  4 59  1  0  0  0  0
  5 34  1  0  0  0  0
  5 35  1  0  0  0  0
  5 36  1  0  0  0  0
  6  7  1  0  0  0  0
  6 37  1  0  0  0  0
  6 38  1  0  0  0  0
  7  8  1  0  0  0  0
  7 39  1  0  0  0  0
  7 40  1  0  0  0  0
  8 41  1  0  0  0  0
  9 10  1  0  0  0  0
  9 42  1  0  0  0  0
  9 43  1  0  0  0  0
 10 11  1  0  0  0  0
 10 44  1  0  0  0  0
 10 45  1  0  0  0  0
 11 12  1  0  0  0  0
 12 17  1  0  0  0  0
 12 13  2  0  0  0  0
 13 14  1  0  0  0  0
 14 15  2  0  0  0  0
 14 46  1  0  0  0  0
 15 16  1  0  0  0  0
 16 20  1  0  0  0  0
 16 17  2  0  0  0  0
 17 18  1  0  0  0  0
 18 19  2  0  0  0  0
 19 20  1  0  0  0  0
 19 47  1  0  0  0  0
 20 21  1  0  0  0  0
 21 28  1  0  0  0  0
 21 22  1  0  0  0  0
 21 48  1  0  0  0  0
 22 23  1  0  0  0  0
 22 49  1  0  0  0  0
 22 50  1  0  0  0  0
 23 24  1  0  0  0  0
 23 26  1  0  0  0  0
 23 28  1  0  0  0  0
 24 25  1  0  0  0  0
 24 51  1  0  0  0  0
 24 52  1  0  0  0  0
 25 53  1  0  0  0  0
 26 27  1  0  0  0  0
 26 54  1  0  0  0  0
 26 55  1  0  0  0  0
 27 56  1  0  0  0  0
 28 57  1  0  0  0  0
 28 58  1  0  0  0  0
M  CHG  1   4   1
M  END
> <s_m_source_file>
AV-unprocessed.smi

> <i_m_source_file_index>
215

> <i_lp_mmshare_version>
43012

> <i_f3d_flags>
0

> <s_epik_input>
W09IXVtDSDJdW0NIMl1OKFtDSDNdKVtDQEBIXShbQ0BIXTFbQ0gzXSlbQ0gyXVtDSDJdTjFjKG5bY0hdbjIpYyhjMjMpbltjSF1uM1tDSF0oW0NIMl00KVtDSDJdQzQoW0NIMl1bT0hdKVtDSDJdW09IXQ==

> <s_epik_cmdline>
J2VwaWtfcHl0aG9uJywgJy1waCcsICc3LjAnLCAnLXRuJywgJzgnLCAnLW1hJywgJzIwMCcsICctbWV0YWxfYmluZGluZycsICctaW1hZScsICc8aW5maWxlLm1hZT4nLCAnLW9tYWUnLCAnPG91dGZpbGUubWFlPic=

> <r_lp_tautomer_probability>
1

> <r_epik_Ionization_Penalty>
0.0036237

> <r_epik_Ionization_Penalty_Charging>
0.0032725

> <r_epik_Ionization_Penalty_Neutral>
0.000351196

> <r_epik_State_Penalty>
-0

> <r_epik_Charging_Adjusted_Penalty>
0.0032725

> <i_epik_Tot_Q>
1

> <i_epik_Tot_abs_Q>
1

> <r_epik_Metal_State_Penalty>
-0

> <b_epik_Metal_Only>
0

> <s_lp_Force_Field>
OPLS_2005

> <r_lp_Energy>
70.2974

> <b_lp_Chiralities_Consistent>
1

> <s_lp_Variant>
AV-unprocessed.smi:215-5

> <Gold.Version>
5.8.1

> <Gold.Id.Protein>
6NUR|6NUR_protein|mol2

> <Gold.PLP.Fitness>
51.2603

> <Gold.PLP.PLP>
-42.4631

> <Gold.PLP.part.hbond>
-3.8842

> <Gold.PLP.part.metal>
0.0000

> <Gold.PLP.part.buried>
-5.3582

> <Gold.PLP.part.nonpolar>
-33.9819

> <Gold.PLP.part.repulsive>
1.3681

> <Gold.PLP.ligand.clash>
0.0000

> <Gold.PLP.ligand.torsion>
1.7581

> <Gold.PLP.Chemscore.Hbond>
3.6661

> <Gold.PLP.Chemscore.CHOScore>
0.1118

> <Gold.PLP.Chemscore.Metal>
0.0000

> <Gold.Chemscore.Hbonds>
donor molecule, donor type, donor heavy atom, donor atom, acceptor molecule, acceptor atom, score
      L1  H     4    59       P1  7948  2.00
      L1  H     8    41       P1  7921  1.00
      P1  H  6933  6945       L1    25  0.32

> <Gold.PLP.Chemscore.Internal.Correction>
0.9797

> <Gold.Rescore>
     Score         DG    S(hbond)    S(metal)    S(lipo)     H(rot)  DE(clash)    DE(int)     intcor
      8.40     -11.65       2.28        0.00      92.85       4.81       0.53       2.72       ----

> <Gold.Chemscore.Fitness>
8.4019

> <Gold.Chemscore.DG>
-11.6519

> <Gold.Chemscore.ZeroCoef>
-5.4800

> <Gold.Chemscore.Hbond>
2.2819

> <Gold.Chemscore.Metal>
0.0000

> <Gold.Chemscore.Lipo>
92.8499

> <Gold.Chemscore.Internal_Hbond>
0.0000

> <Gold.Chemscore.DEClash>
0.5280

> <Gold.Chemscore.DEInternal>
2.7221

> <Gold.Chemscore.Rot>
4.8098

> <Gold.Chemscore.Internal.Correction>
   9.000000E+99

> <Gold.Chemscore.Hbonds>
donor molecule, donor type, donor heavy atom, donor atom, acceptor molecule, acceptor atom, score
      L1  H     4    59       P1  7948  0.97
      L1  H     8    41       P1  7921  0.98
      P1  H  6933  6945       L1    25  0.21

> <Gold.Chemscore.Hbond.Weighted>
-7.6215

> <Gold.Chemscore.Metal.Weighted>
-0.0000

> <Gold.Chemscore.Lipo.Weighted>
-10.8634

> <Gold.Chemscore.Internal_Hbond.Weighted>
0.0000

> <Gold.Chemscore.DEClash.Weighted>
0.5280

> <Gold.Chemscore.DEInternal.Weighted>
2.7221

> <Gold.Chemscore.Rot.Weighted>
12.3130

> <Gold.Chemscore.Internal.Correction.Weighted>
   9.000000E+99

> <Gold.Protein.RotatedTorsions>
[ 6907 6896 6895 6894 ] final  108.72 input  -60.11 | X-H torsion
[ 7974 7965 7964 7962 ] final   -4.49 input  175.53 | X-H torsion
[ 8008 7997 7996 7995 ] final -126.38 input   59.86 | X-H torsion
[ 10167 10162 10161 10158 ] final  101.86 input  -65.29 | X-H torsion
[ 10718 10713 10712 10709 ] final  -64.15 input   66.30 | X-H torsion
[ 10763 10752 10751 10750 ] final   40.56 input  -60.55 | X-H torsion
[ 11005 11000 10999 10996 ] final  153.74 input  -57.11 | X-H torsion

> <Gold.Protein.ActiveResidues>
 VAL166  LYS551  ARG553  GLY616  TRP617  ASP618  TYR619  PRO620  LYS621  CYS622 
 ASP623  PHE694  ASN695  SER759  ASP760  ASP761  ALA762  ILE779  LEU786  VAL792 
 PHE793  MET794  SER795  GLU796  ALA797  LYS798  CYS799  TRP800  GLU811  SER814 

> <Gold.Protein.RotatedAtoms>
  152.5099  133.9048  159.7458 H   0  0  0  0  0  0  0  0  0  0  0  0  # atno 6907 bound_to 6896
  150.9455  133.6599  159.2789 H   0  0  0  0  0  0  0  0  0  0  0  0  # atno 6908 bound_to 6896
  151.3896  135.0959  159.9574 H   0  0  0  0  0  0  0  0  0  0  0  0  # atno 6909 bound_to 6896
  146.2371  140.1879  142.8332 H   0  0  0  0  0  0  0  0  0  0  0  0  # atno 7974 bound_to 7965
  155.2287  140.0424  157.2959 H   0  0  0  0  0  0  0  0  0  0  0  0  # atno 8008 bound_to 7997
  154.5902  140.2425  155.7901 H   0  0  0  0  0  0  0  0  0  0  0  0  # atno 8009 bound_to 7997
  156.2254  140.2956  156.0063 H   0  0  0  0  0  0  0  0  0  0  0  0  # atno 8010 bound_to 7997
  139.7401  144.7013  151.0589 H   0  0  0  0  0  0  0  0  0  0  0  0  # atno 10167 bound_to 10162
  156.0747  130.4230  150.1379 H   0  0  0  0  0  0  0  0  0  0  0  0  # atno 10718 bound_to 10713
  152.9933  135.6188  154.2645 H   0  0  0  0  0  0  0  0  0  0  0  0  # atno 10763 bound_to 10752
  154.2380  135.2789  155.2866 H   0  0  0  0  0  0  0  0  0  0  0  0  # atno 10764 bound_to 10752
  154.5393  135.5765  153.6883 H   0  0  0  0  0  0  0  0  0  0  0  0  # atno 10765 bound_to 10752
  140.1426  134.8729  157.2350 H   0  0  0  0  0  0  0  0  0  0  0  0  # atno 11005 bound_to 11000
  144.9882  140.8522  143.5356 LP  0  0  0  0  0  0  0  0  0  0  0  0  # atno 17320 bound_to 7965
  145.1881  139.2315  143.5257 LP  0  0  0  0  0  0  0  0  0  0  0  0  # atno 17321 bound_to 7965
  140.7784  143.4935  150.9862 LP  0  0  0  0  0  0  0  0  0  0  0  0  # atno 17342 bound_to 10162
  139.8623  143.7298  152.3172 LP  0  0  0  0  0  0  0  0  0  0  0  0  # atno 17343 bound_to 10162
  156.9423  130.9748  151.3514 LP  0  0  0  0  0  0  0  0  0  0  0  0  # atno 17370 bound_to 10713
  157.5836  130.8394  149.8557 LP  0  0  0  0  0  0  0  0  0  0  0  0  # atno 17371 bound_to 10713
  140.2704  134.3467  155.7375 LP  0  0  0  0  0  0  0  0  0  0  0  0  # atno 17394 bound_to 11000
  141.2188  133.7420  156.9213 LP  0  0  0  0  0  0  0  0  0  0  0  0  # atno 17395 bound_to 11000

$$$$
