AV-unprocessed.smi:1750|AV-procd|sdf|7055|dock8
  -GOLD-   22720 8273D 1   1.00000     0.00000
 Structure written by MMmdl.
 35 36  0  0  0  0  0  0  0  0  2 V2000
  143.5886  135.7134  162.3615 C   0  0  0  0  0  0  0  0  0  0  0  0
  144.1658  134.4764  161.6648 C   0  0  0  0  0  0  0  0  0  0  0  0
  145.5965  134.1569  162.1207 C   0  0  0  0  0  0  0  0  0  0  0  0
  146.6136  135.0346  161.4711 C   0  0  0  0  0  0  0  0  0  0  0  0
  146.6126  136.3640  161.5985 N   0  0  0  0  0  0  0  0  0  0  0  0
  147.6389  136.9587  160.8790 N   0  0  0  0  0  0  0  0  0  0  0  0
  148.3842  136.0760  160.1986 C   0  0  0  0  0  0  0  0  0  0  0  0
  149.4282  136.4468  159.4391 N   0  5  0  0  0  0  0  0  0  0  0  0
  149.4246  137.6532  158.8276 C   0  0  0  0  0  0  0  0  0  0  0  0
  148.4363  138.2486  158.3919 O   0  0  0  0  0  0  0  0  0  0  0  0
  150.6401  138.2034  158.7097 N   0  0  0  0  0  0  0  0  0  0  0  0
  150.9247  139.4898  158.0877 C   0  0  0  0  0  0  0  0  0  0  0  0
  151.3846  140.5081  159.1398 C   0  0  1  0  0  0  0  0  0  0  0  0
  152.8322  140.3197  159.5921 C   0  0  0  0  0  0  0  0  0  0  0  0
  153.2620  141.7138  160.0254 C   0  0  0  0  0  0  0  0  0  0  0  0
  152.1491  142.6283  159.5067 C   0  0  0  0  0  0  0  0  0  0  0  0
  151.4045  141.8225  158.6054 O   0  0  0  0  0  0  0  0  0  0  0  0
  147.8709  134.4040  160.4210 S   0  0  0  0  0  0  0  0  0  0  0  0
  142.5773  135.9198  162.0109 H   0  0  0  0  0  0  0  0  0  0  0  0
  144.1967  136.5965  162.1635 H   0  0  0  0  0  0  0  0  0  0  0  0
  143.5441  135.5711  163.4416 H   0  0  0  0  0  0  0  0  0  0  0  0
  143.5197  133.6201  161.8622 H   0  0  0  0  0  0  0  0  0  0  0  0
  144.1526  134.6314  160.5853 H   0  0  0  0  0  0  0  0  0  0  0  0
  145.6789  134.2657  163.2030 H   0  0  0  0  0  0  0  0  0  0  0  0
  145.8397  133.1188  161.8922 H   0  0  0  0  0  0  0  0  0  0  0  0
  151.4255  137.6908  159.0831 H   0  0  0  0  0  0  0  0  0  0  0  0
  151.7076  139.3648  157.3381 H   0  0  0  0  0  0  0  0  0  0  0  0
  150.0343  139.8482  157.5692 H   0  0  0  0  0  0  0  0  0  0  0  0
  150.7221  140.4854  160.0078 H   0  0  0  0  0  0  0  0  0  0  0  0
  152.9275  139.5794  160.3870 H   0  0  0  0  0  0  0  0  0  0  0  0
  153.4502  139.9932  158.7545 H   0  0  0  0  0  0  0  0  0  0  0  0
  153.3551  141.7917  161.1090 H   0  0  0  0  0  0  0  0  0  0  0  0
  154.2264  141.9710  159.5861 H   0  0  0  0  0  0  0  0  0  0  0  0
  151.4996  142.9437  160.3245 H   0  0  0  0  0  0  0  0  0  0  0  0
  152.5343  143.5212  159.0140 H   0  0  0  0  0  0  0  0  0  0  0  0
  1  2  1  0  0  0  0
  1 19  1  0  0  0  0
  1 20  1  0  0  0  0
  1 21  1  0  0  0  0
  2  3  1  0  0  0  0
  2 22  1  0  0  0  0
  2 23  1  0  0  0  0
  3  4  1  0  0  0  0
  3 24  1  0  0  0  0
  3 25  1  0  0  0  0
  4 18  1  0  0  0  0
  4  5  2  0  0  0  0
  5  6  1  0  0  0  0
  6  7  2  0  0  0  0
  7  8  1  0  0  0  0
  7 18  1  0  0  0  0
  8  9  1  0  0  0  0
  9 10  2  0  0  0  0
  9 11  1  0  0  0  0
 11 12  1  0  0  0  0
 11 26  1  0  0  0  0
 12 13  1  0  0  0  0
 12 27  1  0  0  0  0
 12 28  1  0  0  0  0
 13 17  1  0  0  0  0
 13 14  1  0  0  0  0
 13 29  1  0  0  0  0
 14 15  1  0  0  0  0
 14 30  1  0  0  0  0
 14 31  1  0  0  0  0
 15 16  1  0  0  0  0
 15 32  1  0  0  0  0
 15 33  1  0  0  0  0
 16 17  1  0  0  0  0
 16 34  1  0  0  0  0
 16 35  1  0  0  0  0
M  CHG  1   8  -1
M  END
> <s_m_source_file>
AV-unprocessed.smi

> <i_m_source_file_index>
1750

> <i_lp_mmshare_version>
43012

> <i_f3d_flags>
0

> <s_epik_input>
W0NIM11bQ0gyXVtDSDJdYzFubmMoczEpW05IXUMoPU8pW05IXVtDSDJdW0NAQEhdMltDSDJdW0NIMl1bQ0gyXU8y

> <s_epik_cmdline>
J2VwaWtfcHl0aG9uJywgJy1waCcsICc3LjAnLCAnLXRuJywgJzgnLCAnLW1hJywgJzIwMCcsICctbWV0YWxfYmluZGluZycsICctaW1hZScsICc8aW5maWxlLm1hZT4nLCAnLW9tYWUnLCAnPG91dGZpbGUubWFlPic=

> <r_lp_tautomer_probability>
1

> <r_epik_Ionization_Penalty>
4.22484

> <r_epik_Ionization_Penalty_Charging>
4.21437

> <r_epik_Ionization_Penalty_Neutral>
0.0104685

> <r_epik_State_Penalty>
4.21389

> <r_epik_Charging_Adjusted_Penalty>
8.42826

> <i_epik_Tot_Q>
-1

> <i_epik_Tot_abs_Q>
1

> <r_epik_Metal_State_Penalty>
0.69377

> <b_epik_Metal_Only>
1

> <s_lp_Force_Field>
OPLS_2005

> <r_lp_Energy>
10.9062

> <b_lp_Chiralities_Consistent>
1

> <s_lp_Variant>
AV-unprocessed.smi:1750-4

> <Gold.Version>
5.8.1

> <Gold.Id.Protein>
6NUR|6NUR_protein|mol2

> <Gold.PLP.Fitness>
42.1984

> <Gold.PLP.PLP>
-32.3206

> <Gold.PLP.part.hbond>
-3.5846

> <Gold.PLP.part.metal>
0.0000

> <Gold.PLP.part.buried>
-5.6687

> <Gold.PLP.part.nonpolar>
-23.8041

> <Gold.PLP.part.repulsive>
0.1557

> <Gold.PLP.ligand.clash>
0.0000

> <Gold.PLP.ligand.torsion>
0.6347

> <Gold.PLP.Chemscore.Hbond>
3.6975

> <Gold.PLP.Chemscore.CHOScore>
0.0000

> <Gold.PLP.Chemscore.Metal>
0.0000

> <Gold.Chemscore.Hbonds>
donor molecule, donor type, donor heavy atom, donor atom, acceptor molecule, acceptor atom, score
      P1  H  6896  6908       L1     8  1.50
      P1  H  6931  6943       L1     6  0.64
      P1  H  6934  6947       L1     6  0.76

> <Gold.PLP.Chemscore.Internal.Correction>
0.0546

> <Gold.Rescore>
     Score         DG    S(hbond)    S(metal)    S(lipo)     H(rot)  DE(clash)    DE(int)     intcor
     14.22     -16.07       1.87        0.00      72.04       1.59       0.01       1.84       ----

> <Gold.Chemscore.Fitness>
14.2158

> <Gold.Chemscore.DG>
-16.0709

> <Gold.Chemscore.ZeroCoef>
-5.4800

> <Gold.Chemscore.Hbond>
1.8676

> <Gold.Chemscore.Metal>
0.0000

> <Gold.Chemscore.Lipo>
72.0450

> <Gold.Chemscore.Internal_Hbond>
0.0000

> <Gold.Chemscore.DEClash>
0.0106

> <Gold.Chemscore.DEInternal>
1.8445

> <Gold.Chemscore.Rot>
1.5922

> <Gold.Chemscore.Internal.Correction>
   9.000000E+99

> <Gold.Chemscore.Hbonds>
donor molecule, donor type, donor heavy atom, donor atom, acceptor molecule, acceptor atom, score
      P1  H  6896  6908       L1     8  0.33
      P1  H  6931  6943       L1     6  0.33
      P1  H  6934  6947       L1     6  0.36

> <Gold.Chemscore.Hbond.Weighted>
-6.2377

> <Gold.Chemscore.Metal.Weighted>
-0.0000

> <Gold.Chemscore.Lipo.Weighted>
-8.4293

> <Gold.Chemscore.Internal_Hbond.Weighted>
0.0000

> <Gold.Chemscore.DEClash.Weighted>
0.0106

> <Gold.Chemscore.DEInternal.Weighted>
1.8445

> <Gold.Chemscore.Rot.Weighted>
4.0761

> <Gold.Chemscore.Internal.Correction.Weighted>
   9.000000E+99

> <Gold.Protein.RotatedTorsions>
[ 6907 6896 6895 6894 ] final -165.82 input  -60.11 | X-H torsion
[ 7974 7965 7964 7962 ] final   61.36 input  175.53 | X-H torsion
[ 8008 7997 7996 7995 ] final -140.31 input   59.86 | X-H torsion
[ 10167 10162 10161 10158 ] final -143.44 input  -65.29 | X-H torsion
[ 10718 10713 10712 10709 ] final  -45.74 input   66.30 | X-H torsion
[ 10763 10752 10751 10750 ] final -147.11 input  -60.55 | X-H torsion
[ 11005 11000 10999 10996 ] final   -4.59 input  -57.11 | X-H torsion

> <Gold.Protein.ActiveResidues>
 VAL166  LYS551  ARG553  GLY616  TRP617  ASP618  TYR619  PRO620  LYS621  CYS622 
 ASP623  PHE694  ASN695  SER759  ASP760  ASP761  ALA762  ILE779  LEU786  VAL792 
 PHE793  MET794  SER795  GLU796  ALA797  LYS798  CYS799  TRP800  GLU811  SER814 

> <Gold.Protein.RotatedAtoms>
  151.4337  133.3663  159.2771 H   0  0  0  0  0  0  0  0  0  0  0  0  # atno 6907 bound_to 6896
  150.9207  134.8626  159.7497 H   0  0  0  0  0  0  0  0  0  0  0  0  # atno 6908 bound_to 6896
  152.4980  134.4274  159.9553 H   0  0  0  0  0  0  0  0  0  0  0  0  # atno 6909 bound_to 6896
  145.8856  139.3474  143.0680 H   0  0  0  0  0  0  0  0  0  0  0  0  # atno 7974 bound_to 7965
  155.4593  140.0544  157.2992 H   0  0  0  0  0  0  0  0  0  0  0  0  # atno 8008 bound_to 7997
  154.4744  140.2054  155.9869 H   0  0  0  0  0  0  0  0  0  0  0  0  # atno 8009 bound_to 7997
  156.1108  140.3204  155.8075 H   0  0  0  0  0  0  0  0  0  0  0  0  # atno 8010 bound_to 7997
  139.7993  143.7855  152.2657 H   0  0  0  0  0  0  0  0  0  0  0  0  # atno 10167 bound_to 10162
  156.2253  130.4169  149.8942 H   0  0  0  0  0  0  0  0  0  0  0  0  # atno 10718 bound_to 10713
  154.8302  135.3369  154.6767 H   0  0  0  0  0  0  0  0  0  0  0  0  # atno 10763 bound_to 10752
  153.7388  135.6947  153.4976 H   0  0  0  0  0  0  0  0  0  0  0  0  # atno 10764 bound_to 10752
  153.2259  135.4433  155.0493 H   0  0  0  0  0  0  0  0  0  0  0  0  # atno 10765 bound_to 10752
  140.6820  133.9145  155.8561 H   0  0  0  0  0  0  0  0  0  0  0  0  # atno 11005 bound_to 11000
  145.8970  140.9267  143.0522 LP  0  0  0  0  0  0  0  0  0  0  0  0  # atno 17320 bound_to 7965
  144.6728  140.0982  143.7462 LP  0  0  0  0  0  0  0  0  0  0  0  0  # atno 17321 bound_to 7965
  139.7971  144.7388  150.9876 LP  0  0  0  0  0  0  0  0  0  0  0  0  # atno 17342 bound_to 10162
  140.7820  143.4383  151.0590 LP  0  0  0  0  0  0  0  0  0  0  0  0  # atno 17343 bound_to 10162
  156.6574  130.8768  151.3541 LP  0  0  0  0  0  0  0  0  0  0  0  0  # atno 17370 bound_to 10713
  157.7107  130.9437  150.1081 LP  0  0  0  0  0  0  0  0  0  0  0  0  # atno 17371 bound_to 10713
  141.0310  134.0756  157.4014 LP  0  0  0  0  0  0  0  0  0  0  0  0  # atno 17394 bound_to 11000
  139.8949  135.0138  156.6974 LP  0  0  0  0  0  0  0  0  0  0  0  0  # atno 17395 bound_to 11000

$$$$
