AV-unprocessed.smi:311|AV-procd|sdf|2302|dock3
  -GOLD-   2262022203D 1   1.00000     0.00000
 Structure written by MMmdl.
 44 46  0  0  0  0  0  0  0  0  2 V2000
  146.8746  134.0121  162.5213 C   0  0  0  0  0  0  0  0  0  0  0  0
  147.3584  135.1536  161.6743 C   0  0  0  0  0  0  0  0  0  0  0  0
  147.6077  136.3249  162.2355 N   0  0  0  0  0  0  0  0  0  0  0  0
  148.0300  137.1637  161.1995 O   0  0  0  0  0  0  0  0  0  0  0  0
  148.0194  136.4553  160.0418 C   0  0  0  0  0  0  0  0  0  0  0  0
  148.4376  137.1834  158.8097 C   0  0  0  0  0  0  0  0  0  0  0  0
  147.6083  135.1711  160.2721 C   0  0  0  0  0  0  0  0  0  0  0  0
  147.4522  134.0387  159.2867 C   0  0  0  0  0  0  0  0  0  0  0  0
  148.2527  134.2852  158.0018 C   0  0  0  0  0  0  0  0  0  0  0  0
  149.4739  134.4458  158.0277 O   0  0  0  0  0  0  0  0  0  0  0  0
  147.5389  134.3073  156.8667 N   0  0  0  0  0  0  0  0  0  0  0  0
  148.0963  134.5332  155.5374 C   0  0  1  0  0  0  0  0  0  0  0  0
  149.4076  133.7700  155.2650 C   0  0  0  0  0  0  0  0  0  0  0  0
  149.3176  133.3139  153.7947 C   0  0  0  0  0  0  0  0  0  0  0  0
  148.0626  133.8958  153.2814 N   0  3  1  0  0  0  0  0  0  0  0  0
  147.4240  133.2199  152.1310 C   0  0  0  0  0  0  0  0  0  0  0  0
  146.1796  134.0218  151.6976 C   0  0  0  0  0  0  0  0  0  0  0  0
  145.2186  134.2733  152.8782 C   0  0  0  0  0  0  0  0  0  0  0  0
  145.9610  134.8916  154.0788 C   0  0  0  0  0  0  0  0  0  0  0  0
  147.1676  134.0116  154.4425 C   0  0  2  0  0  0  0  0  0  0  0  0
  146.0747  133.4664  162.0207 H   0  0  0  0  0  0  0  0  0  0  0  0
  146.4867  134.3570  163.4807 H   0  0  0  0  0  0  0  0  0  0  0  0
  147.6819  133.3080  162.7225 H   0  0  0  0  0  0  0  0  0  0  0  0
  148.0057  136.7244  157.9201 H   0  0  0  0  0  0  0  0  0  0  0  0
  149.5224  137.1720  158.7050 H   0  0  0  0  0  0  0  0  0  0  0  0
  148.1107  138.2228  158.8423 H   0  0  0  0  0  0  0  0  0  0  0  0
  147.7832  133.0942  159.7200 H   0  0  0  0  0  0  0  0  0  0  0  0
  146.4031  133.8985  159.0229 H   0  0  0  0  0  0  0  0  0  0  0  0
  146.5410  134.1656  156.9305 H   0  0  0  0  0  0  0  0  0  0  0  0
  148.2627  135.6016  155.3834 H   0  0  0  0  0  0  0  0  0  0  0  0
  150.2751  134.4073  155.4406 H   0  0  0  0  0  0  0  0  0  0  0  0
  149.5044  132.8994  155.9156 H   0  0  0  0  0  0  0  0  0  0  0  0
  150.1690  133.6491  153.2019 H   0  0  0  0  0  0  0  0  0  0  0  0
  149.2761  132.2248  153.7430 H   0  0  0  0  0  0  0  0  0  0  0  0
  148.1339  133.1510  151.3060 H   0  0  0  0  0  0  0  0  0  0  0  0
  147.1463  132.2009  152.4051 H   0  0  0  0  0  0  0  0  0  0  0  0
  146.4956  134.9800  151.2829 H   0  0  0  0  0  0  0  0  0  0  0  0
  145.6577  133.4983  150.8959 H   0  0  0  0  0  0  0  0  0  0  0  0
  144.4020  134.9250  152.5655 H   0  0  0  0  0  0  0  0  0  0  0  0
  144.7621  133.3300  153.1807 H   0  0  0  0  0  0  0  0  0  0  0  0
  146.2920  135.9011  153.8308 H   0  0  0  0  0  0  0  0  0  0  0  0
  145.2870  134.9827  154.9313 H   0  0  0  0  0  0  0  0  0  0  0  0
  146.8199  133.0115  154.7130 H   0  0  0  0  0  0  0  0  0  0  0  0
  148.2809  134.8391  152.9936 H   0  0  0  0  0  0  0  0  0  0  0  0
  1  2  1  0  0  0  0
  1 21  1  0  0  0  0
  1 22  1  0  0  0  0
  1 23  1  0  0  0  0
  2  7  1  0  0  0  0
  2  3  2  0  0  0  0
  3  4  1  0  0  0  0
  4  5  1  0  0  0  0
  5  6  1  0  0  0  0
  5  7  2  0  0  0  0
  6 24  1  0  0  0  0
  6 25  1  0  0  0  0
  6 26  1  0  0  0  0
  7  8  1  0  0  0  0
  8  9  1  0  0  0  0
  8 27  1  0  0  0  0
  8 28  1  0  0  0  0
  9 10  2  0  0  0  0
  9 11  1  0  0  0  0
 11 12  1  0  0  0  0
 11 29  1  0  0  0  0
 12 20  1  0  0  0  0
 12 13  1  0  0  0  0
 12 30  1  0  0  0  0
 13 14  1  0  0  0  0
 13 31  1  0  0  0  0
 13 32  1  0  0  0  0
 14 15  1  0  0  0  0
 14 33  1  0  0  0  0
 14 34  1  0  0  0  0
 15 20  1  0  0  0  0
 15 16  1  0  0  0  0
 15 44  1  0  0  0  0
 16 17  1  0  0  0  0
 16 35  1  0  0  0  0
 16 36  1  0  0  0  0
 17 18  1  0  0  0  0
 17 37  1  0  0  0  0
 17 38  1  0  0  0  0
 18 19  1  0  0  0  0
 18 39  1  0  0  0  0
 18 40  1  0  0  0  0
 19 20  1  0  0  0  0
 19 41  1  0  0  0  0
 19 42  1  0  0  0  0
 20 43  1  0  0  0  0
M  CHG  1  15   1
M  END
> <s_m_source_file>
AV-unprocessed.smi

> <i_m_source_file_index>
311

> <i_lp_mmshare_version>
43012

> <i_f3d_flags>
0

> <s_epik_input>
W0NIM11jMW5vYyhbQ0gzXSljMVtDSDJdQyg9TylbTkhdW0NASF0oW0NIMl1bQ0gyXTIpW0NAQEhdKE4yMylbQ0gyXVtDSDJdW0NIMl1bQ0gyXTM=

> <s_epik_cmdline>
J2VwaWtfcHl0aG9uJywgJy1waCcsICc3LjAnLCAnLXRuJywgJzgnLCAnLW1hJywgJzIwMCcsICctbWV0YWxfYmluZGluZycsICctaW1hZScsICc8aW5maWxlLm1hZT4nLCAnLW9tYWUnLCAnPG91dGZpbGUubWFlPic=

> <r_epik_Ionization_Penalty>
0.00173669

> <r_epik_Ionization_Penalty_Charging>
0.0017366

> <r_epik_Ionization_Penalty_Neutral>
9.2145e-08

> <r_epik_State_Penalty>
0.00117499

> <r_epik_Charging_Adjusted_Penalty>
0.00291159

> <i_epik_Tot_Q>
1

> <i_epik_Tot_abs_Q>
1

> <r_epik_Metal_State_Penalty>
-0

> <b_epik_Metal_Only>
0

> <s_lp_Force_Field>
OPLS_2005

> <r_lp_Energy>
29.9852

> <b_lp_Chiralities_Consistent>
1

> <s_lp_Variant>
AV-unprocessed.smi:311-6

> <Gold.Version>
5.8.1

> <Gold.Id.Protein>
6NUR|6NUR_protein|mol2

> <Gold.PLP.Fitness>
43.2434

> <Gold.PLP.PLP>
-30.1383

> <Gold.PLP.part.hbond>
-4.0000

> <Gold.PLP.part.metal>
0.0000

> <Gold.PLP.part.buried>
-3.4983

> <Gold.PLP.part.nonpolar>
-21.9158

> <Gold.PLP.part.repulsive>
0.0001

> <Gold.PLP.ligand.clash>
0.0000

> <Gold.PLP.ligand.torsion>
0.5339

> <Gold.PLP.Chemscore.Hbond>
4.7200

> <Gold.PLP.Chemscore.CHOScore>
0.0000

> <Gold.PLP.Chemscore.Metal>
0.0000

> <Gold.Chemscore.Hbonds>
donor molecule, donor type, donor heavy atom, donor atom, acceptor molecule, acceptor atom, score
      L1  H    15    44       P1  7948  2.00
      P1  H  6896  6907       L1    10  1.00
      P1  H  6931  6943       L1     4  1.00
      P1  H  6934  6947       L1     4  0.65

> <Gold.PLP.Chemscore.Internal.Correction>
0.0130

> <Gold.Rescore>
     Score         DG    S(hbond)    S(metal)    S(lipo)     H(rot)  DE(clash)    DE(int)     intcor
     16.66     -19.49       3.05        0.00      62.37       1.36       0.02       2.82       ----

> <Gold.Chemscore.Fitness>
16.6592

> <Gold.Chemscore.DG>
-19.4942

> <Gold.Chemscore.ZeroCoef>
-5.4800

> <Gold.Chemscore.Hbond>
3.0510

> <Gold.Chemscore.Metal>
0.0000

> <Gold.Chemscore.Lipo>
62.3682

> <Gold.Chemscore.Internal_Hbond>
0.0000

> <Gold.Chemscore.DEClash>
0.0174

> <Gold.Chemscore.DEInternal>
2.8176

> <Gold.Chemscore.Rot>
1.3567

> <Gold.Chemscore.Internal.Correction>
   9.000000E+99

> <Gold.Chemscore.Hbonds>
donor molecule, donor type, donor heavy atom, donor atom, acceptor molecule, acceptor atom, score
      L1  H    15    44       P1  7948  0.73
      P1  H  6896  6907       L1    10  0.99
      P1  H  6931  6943       L1     4  0.53
      P1  H  6934  6947       L1     4  0.49

> <Gold.Chemscore.Hbond.Weighted>
-10.1903

> <Gold.Chemscore.Metal.Weighted>
-0.0000

> <Gold.Chemscore.Lipo.Weighted>
-7.2971

> <Gold.Chemscore.Internal_Hbond.Weighted>
0.0000

> <Gold.Chemscore.DEClash.Weighted>
0.0174

> <Gold.Chemscore.DEInternal.Weighted>
2.8176

> <Gold.Chemscore.Rot.Weighted>
3.4731

> <Gold.Chemscore.Internal.Correction.Weighted>
   9.000000E+99

> <Gold.Protein.RotatedTorsions>
[ 6907 6896 6895 6894 ] final -106.27 input  -60.11 | X-H torsion
[ 7974 7965 7964 7962 ] final -131.49 input  175.53 | X-H torsion
[ 8008 7997 7996 7995 ] final  108.65 input   59.86 | X-H torsion
[ 10167 10162 10161 10158 ] final  -82.67 input  -65.29 | X-H torsion
[ 10718 10713 10712 10709 ] final  -87.53 input   66.30 | X-H torsion
[ 10763 10752 10751 10750 ] final  134.24 input  -60.55 | X-H torsion
[ 11005 11000 10999 10996 ] final  -14.79 input  -57.11 | X-H torsion

> <Gold.Protein.ActiveResidues>
 VAL166  LYS551  ARG553  GLY616  TRP617  ASP618  TYR619  PRO620  LYS621  CYS622 
 ASP623  PHE694  ASN695  SER759  ASP760  ASP761  ALA762  ILE779  LEU786  VAL792 
 PHE793  MET794  SER795  GLU796  ALA797  LYS798  CYS799  TRP800  GLU811  SER814 

> <Gold.Protein.RotatedAtoms>
  150.7380  134.0002  159.3635 H   0  0  0  0  0  0  0  0  0  0  0  0  # atno 6907 bound_to 6896
  151.7955  135.0721  160.0402 H   0  0  0  0  0  0  0  0  0  0  0  0  # atno 6908 bound_to 6896
  152.3177  133.5784  159.5760 H   0  0  0  0  0  0  0  0  0  0  0  0  # atno 6909 bound_to 6896
  144.9374  140.7199  143.4868 H   0  0  0  0  0  0  0  0  0  0  0  0  # atno 7974 bound_to 7965
  156.1919  140.3072  155.9350 H   0  0  0  0  0  0  0  0  0  0  0  0  # atno 8008 bound_to 7997
  155.3154  140.0453  157.3054 H   0  0  0  0  0  0  0  0  0  0  0  0  # atno 8009 bound_to 7997
  154.5463  140.2277  155.8568 H   0  0  0  0  0  0  0  0  0  0  0  0  # atno 8010 bound_to 7997
  140.4298  143.2553  151.8775 H   0  0  0  0  0  0  0  0  0  0  0  0  # atno 10167 bound_to 10162
  155.9985  130.4803  150.4881 H   0  0  0  0  0  0  0  0  0  0  0  0  # atno 10718 bound_to 10713
  153.8203  135.3117  155.3409 H   0  0  0  0  0  0  0  0  0  0  0  0  # atno 10763 bound_to 10752
  154.8015  135.4724  154.0291 H   0  0  0  0  0  0  0  0  0  0  0  0  # atno 10764 bound_to 10752
  153.1697  135.6875  153.8714 H   0  0  0  0  0  0  0  0  0  0  0  0  # atno 10765 bound_to 10752
  140.7900  133.8295  155.9371 H   0  0  0  0  0  0  0  0  0  0  0  0  # atno 11005 bound_to 11000
  145.3045  139.1839  143.4672 LP  0  0  0  0  0  0  0  0  0  0  0  0  # atno 17320 bound_to 7965
  146.3272  140.3040  142.8622 LP  0  0  0  0  0  0  0  0  0  0  0  0  # atno 17321 bound_to 7965
  139.4784  144.5347  151.8616 LP  0  0  0  0  0  0  0  0  0  0  0  0  # atno 17342 bound_to 10162
  140.4440  144.1947  150.5893 LP  0  0  0  0  0  0  0  0  0  0  0  0  # atno 17343 bound_to 10162
  157.2879  131.0620  151.2154 LP  0  0  0  0  0  0  0  0  0  0  0  0  # atno 17370 bound_to 10713
  157.3177  130.6921  149.6251 LP  0  0  0  0  0  0  0  0  0  0  0  0  # atno 17371 bound_to 10713
  140.9398  134.1915  157.4805 LP  0  0  0  0  0  0  0  0  0  0  0  0  # atno 17394 bound_to 11000
  139.8732  134.9867  156.5337 LP  0  0  0  0  0  0  0  0  0  0  0  0  # atno 17395 bound_to 11000

$$$$
