AV-unprocessed.smi:1576|AV-procd|sdf|6346|dock1
  -GOLD-   22720 6563D 1   1.00000     0.00000
 Structure written by MMmdl.
 46 48  0  0  0  0  0  0  0  0  2 V2000
  146.4764  138.1128  155.1664 O   0  0  0  0  0  0  0  0  0  0  0  0
  147.2505  137.6901  154.3084 C   0  0  0  0  0  0  0  0  0  0  0  0
  148.5535  138.0082  154.2177 N   0  0  0  0  0  0  0  0  0  0  0  0
  149.3020  138.8949  155.0384 C   0  0  0  0  0  0  0  0  0  0  0  0
  150.6744  139.0608  154.7515 C   0  0  0  0  0  0  0  0  0  0  0  0
  151.4514  139.9413  155.5317 C   0  0  0  0  0  0  0  0  0  0  0  0
  150.8382  140.6556  156.5859 C   0  0  0  0  0  0  0  0  0  0  0  0
  151.5264  141.5525  157.4131 N   0  0  0  0  0  0  0  0  0  0  0  0
  151.0310  142.9220  157.3008 C   0  0  0  0  0  0  0  0  0  0  0  0
  151.9391  143.8971  158.0703 C   0  0  0  0  0  0  0  0  0  0  0  0
  152.1116  143.4511  159.5314 C   0  0  0  0  0  0  0  0  0  0  0  0
  152.6029  141.9956  159.5900 C   0  0  0  0  0  0  0  0  0  0  0  0
  151.6749  141.0705  158.7839 C   0  0  0  0  0  0  0  0  0  0  0  0
  149.5200  140.4808  156.8219 N   0  3  0  0  0  0  0  0  0  0  0  0
  148.7411  139.6463  156.1003 C   0  0  0  0  0  0  0  0  0  0  0  0
  146.8935  136.8242  153.3465 N   0  0  0  0  0  0  0  0  0  0  0  0
  145.5694  136.2293  153.1464 C   0  0  1  0  0  0  0  0  0  0  0  0
  144.8621  136.7276  151.8534 C   0  0  0  0  0  0  0  0  0  0  0  0
  144.6473  135.5642  150.8782 C   0  0  0  0  0  0  0  0  0  0  0  0
  144.4264  134.0988  151.9386 S   0  0  0  0  0  0  0  0  0  0  0  0
  143.0662  134.1232  152.4977 O   0  0  0  0  0  0  0  0  0  0  0  0
  144.9560  132.8997  151.2718 O   0  0  0  0  0  0  0  0  0  0  0  0
  145.5917  134.6838  153.2172 C   0  0  0  0  0  0  0  0  0  0  0  0
  149.0819  137.5203  153.5092 H   0  0  0  0  0  0  0  0  0  0  0  0
  151.1354  138.5134  153.9421 H   0  0  0  0  0  0  0  0  0  0  0  0
  152.5035  140.0645  155.3196 H   0  0  0  0  0  0  0  0  0  0  0  0
  150.9832  143.2119  156.2502 H   0  0  0  0  0  0  0  0  0  0  0  0
  150.0148  142.9751  157.6942 H   0  0  0  0  0  0  0  0  0  0  0  0
  152.9153  143.9467  157.5860 H   0  0  0  0  0  0  0  0  0  0  0  0
  151.5230  144.9041  158.0319 H   0  0  0  0  0  0  0  0  0  0  0  0
  152.8137  144.1076  160.0459 H   0  0  0  0  0  0  0  0  0  0  0  0
  151.1593  143.5383  160.0563 H   0  0  0  0  0  0  0  0  0  0  0  0
  153.6163  141.9356  159.1904 H   0  0  0  0  0  0  0  0  0  0  0  0
  152.6581  141.6593  160.6258 H   0  0  0  0  0  0  0  0  0  0  0  0
  150.6959  141.0224  159.2629 H   0  0  0  0  0  0  0  0  0  0  0  0
  152.0780  140.0569  158.7762 H   0  0  0  0  0  0  0  0  0  0  0  0
  147.7033  139.6271  156.3972 H   0  0  0  0  0  0  0  0  0  0  0  0
  147.6074  136.5381  152.6923 H   0  0  0  0  0  0  0  0  0  0  0  0
  144.9697  136.5817  153.9863 H   0  0  0  0  0  0  0  0  0  0  0  0
  143.8829  137.1202  152.1304 H   0  0  0  0  0  0  0  0  0  0  0  0
  145.3885  137.5531  151.3728 H   0  0  0  0  0  0  0  0  0  0  0  0
  143.7846  135.6978  150.2255 H   0  0  0  0  0  0  0  0  0  0  0  0
  145.5336  135.4050  150.2640 H   0  0  0  0  0  0  0  0  0  0  0  0
  146.5712  134.2716  152.9752 H   0  0  0  0  0  0  0  0  0  0  0  0
  145.2921  134.2991  154.1925 H   0  0  0  0  0  0  0  0  0  0  0  0
  149.0895  141.0089  157.5814 H   0  0  0  0  0  0  0  0  0  0  0  0
  1  2  2  0  0  0  0
  2  3  1  0  0  0  0
  2 16  1  0  0  0  0
  3  4  1  0  0  0  0
  3 24  1  0  0  0  0
  4 15  1  0  0  0  0
  4  5  2  0  0  0  0
  5  6  1  0  0  0  0
  5 25  1  0  0  0  0
  6  7  2  0  0  0  0
  6 26  1  0  0  0  0
  7  8  1  0  0  0  0
  7 14  1  0  0  0  0
  8 13  1  0  0  0  0
  8  9  1  0  0  0  0
  9 10  1  0  0  0  0
  9 27  1  0  0  0  0
  9 28  1  0  0  0  0
 10 11  1  0  0  0  0
 10 29  1  0  0  0  0
 10 30  1  0  0  0  0
 11 12  1  0  0  0  0
 11 31  1  0  0  0  0
 11 32  1  0  0  0  0
 12 13  1  0  0  0  0
 12 33  1  0  0  0  0
 12 34  1  0  0  0  0
 13 35  1  0  0  0  0
 13 36  1  0  0  0  0
 14 15  2  0  0  0  0
 14 46  1  0  0  0  0
 15 37  1  0  0  0  0
 16 17  1  0  0  0  0
 16 38  1  0  0  0  0
 17 23  1  0  0  0  0
 17 18  1  0  0  0  0
 17 39  1  0  0  0  0
 18 19  1  0  0  0  0
 18 40  1  0  0  0  0
 18 41  1  0  0  0  0
 19 20  1  0  0  0  0
 19 42  1  0  0  0  0
 19 43  1  0  0  0  0
 20 21  2  0  0  0  0
 20 22  2  0  0  0  0
 20 23  1  0  0  0  0
 23 44  1  0  0  0  0
 23 45  1  0  0  0  0
M  CHG  1  14   1
M  END
> <s_m_source_file>
AV-unprocessed.smi

> <i_m_source_file_index>
1576

> <i_lp_mmshare_version>
43012

> <i_f3d_flags>
0

> <s_epik_input>
Tz1TMSg9TylbQ0gyXVtDSDJdW0NASF0oW0NIMl0xKVtOSF1DKD1PKVtOSF1jMltjSF1bY0hdYyhuW2NIXTIpTjNbQ0gyXVtDSDJdW0NIMl1bQ0gyXVtDSDJdMw==

> <s_epik_cmdline>
J2VwaWtfcHl0aG9uJywgJy1waCcsICc3LjAnLCAnLXRuJywgJzgnLCAnLW1hJywgJzIwMCcsICctbWV0YWxfYmluZGluZycsICctaW1hZScsICc8aW5maWxlLm1hZT4nLCAnLW9tYWUnLCAnPG91dGZpbGUubWFlPic=

> <r_lp_tautomer_probability>
0.999994

> <r_epik_Ionization_Penalty>
1.19724

> <r_epik_Ionization_Penalty_Charging>
1.19722

> <r_epik_Ionization_Penalty_Neutral>
2.11505e-05

> <r_epik_State_Penalty>
1.26251

> <r_epik_Charging_Adjusted_Penalty>
2.45973

> <i_epik_Tot_Q>
1

> <i_epik_Tot_abs_Q>
1

> <r_epik_Metal_State_Penalty>
1.33857

> <b_epik_Metal_Only>
0

> <s_lp_Force_Field>
OPLS_2005

> <r_lp_Energy>
28.6197

> <b_lp_Chiralities_Consistent>
1

> <s_lp_Variant>
AV-unprocessed.smi:1576-4

> <Gold.Version>
5.8.1

> <Gold.Id.Protein>
6NUR|6NUR_protein|mol2

> <Gold.PLP.Fitness>
39.6334

> <Gold.PLP.PLP>
-34.0748

> <Gold.PLP.part.hbond>
-1.9928

> <Gold.PLP.part.metal>
0.0000

> <Gold.PLP.part.buried>
-2.5695

> <Gold.PLP.part.nonpolar>
-31.3040

> <Gold.PLP.part.repulsive>
0.4019

> <Gold.PLP.ligand.clash>
0.0000

> <Gold.PLP.ligand.torsion>
0.1231

> <Gold.PLP.Chemscore.Hbond>
1.8723

> <Gold.PLP.Chemscore.CHOScore>
0.0000

> <Gold.PLP.Chemscore.Metal>
0.0000

> <Gold.Chemscore.Hbonds>
donor molecule, donor type, donor heavy atom, donor atom, acceptor molecule, acceptor atom, score
      L1  H     3    24       P1  7948  0.83
      L1  H    16    38       P1  7948  1.00

> <Gold.PLP.Chemscore.Internal.Correction>
0.1879

> <Gold.Rescore>
     Score         DG    S(hbond)    S(metal)    S(lipo)     H(rot)  DE(clash)    DE(int)     intcor
     17.37     -19.05       1.90        0.00      89.15       1.25       0.28       1.41       ----

> <Gold.Chemscore.Fitness>
17.3682

> <Gold.Chemscore.DG>
-19.0524

> <Gold.Chemscore.ZeroCoef>
-5.4800

> <Gold.Chemscore.Hbond>
1.8967

> <Gold.Chemscore.Metal>
0.0000

> <Gold.Chemscore.Lipo>
89.1512

> <Gold.Chemscore.Internal_Hbond>
0.0000

> <Gold.Chemscore.DEClash>
0.2762

> <Gold.Chemscore.DEInternal>
1.4080

> <Gold.Chemscore.Rot>
1.2473

> <Gold.Chemscore.Internal.Correction>
   9.000000E+99

> <Gold.Chemscore.Hbonds>
donor molecule, donor type, donor heavy atom, donor atom, acceptor molecule, acceptor atom, score
      L1  H     3    24       P1  7948  0.77
      L1  H    16    38       P1  7948  0.99

> <Gold.Chemscore.Hbond.Weighted>
-6.3349

> <Gold.Chemscore.Metal.Weighted>
-0.0000

> <Gold.Chemscore.Lipo.Weighted>
-10.4307

> <Gold.Chemscore.Internal_Hbond.Weighted>
0.0000

> <Gold.Chemscore.DEClash.Weighted>
0.2762

> <Gold.Chemscore.DEInternal.Weighted>
1.4080

> <Gold.Chemscore.Rot.Weighted>
3.1931

> <Gold.Chemscore.Internal.Correction.Weighted>
   9.000000E+99

> <Gold.Protein.RotatedTorsions>
[ 6907 6896 6895 6894 ] final  -47.18 input  -60.11 | X-H torsion
[ 7974 7965 7964 7962 ] final  -11.12 input  175.53 | X-H torsion
[ 8008 7997 7996 7995 ] final  162.25 input   59.86 | X-H torsion
[ 10167 10162 10161 10158 ] final   75.11 input  -65.29 | X-H torsion
[ 10718 10713 10712 10709 ] final   80.67 input   66.30 | X-H torsion
[ 10763 10752 10751 10750 ] final  -61.95 input  -60.55 | X-H torsion
[ 11005 11000 10999 10996 ] final   17.99 input  -57.11 | X-H torsion

> <Gold.Protein.ActiveResidues>
 VAL166  LYS551  ARG553  GLY616  TRP617  ASP618  TYR619  PRO620  LYS621  CYS622 
 ASP623  PHE694  ASN695  SER759  ASP760  ASP761  ALA762  ILE779  LEU786  VAL792 
 PHE793  MET794  SER795  GLU796  ALA797  LYS798  CYS799  TRP800  GLU811  SER814 

> <Gold.Protein.RotatedAtoms>
  150.9034  134.8448  159.7375 H   0  0  0  0  0  0  0  0  0  0  0  0  # atno 6907 bound_to 6896
  152.4905  134.4467  159.9571 H   0  0  0  0  0  0  0  0  0  0  0  0  # atno 6908 bound_to 6896
  151.4517  133.3576  159.2831 H   0  0  0  0  0  0  0  0  0  0  0  0  # atno 6909 bound_to 6896
  146.2198  140.2864  142.8365 H   0  0  0  0  0  0  0  0  0  0  0  0  # atno 7974 bound_to 7965
  156.2045  140.1755  156.7830 H   0  0  0  0  0  0  0  0  0  0  0  0  # atno 8008 bound_to 7997
  154.5636  140.0695  156.8887 H   0  0  0  0  0  0  0  0  0  0  0  0  # atno 8009 bound_to 7997
  155.2802  140.3348  155.4261 H   0  0  0  0  0  0  0  0  0  0  0  0  # atno 8010 bound_to 7997
  140.0064  144.5647  150.7694 H   0  0  0  0  0  0  0  0  0  0  0  0  # atno 10167 bound_to 10162
  157.6812  130.9969  150.2113 H   0  0  0  0  0  0  0  0  0  0  0  0  # atno 10718 bound_to 10713
  154.2924  135.6251  153.5390 H   0  0  0  0  0  0  0  0  0  0  0  0  # atno 10763 bound_to 10752
  152.9851  135.5659  154.5375 H   0  0  0  0  0  0  0  0  0  0  0  0  # atno 10764 bound_to 10752
  154.4989  135.2871  155.1413 H   0  0  0  0  0  0  0  0  0  0  0  0  # atno 10765 bound_to 10752
  140.4297  134.1432  155.7679 H   0  0  0  0  0  0  0  0  0  0  0  0  # atno 11005 bound_to 11000
  144.9159  140.7811  143.5778 LP  0  0  0  0  0  0  0  0  0  0  0  0  # atno 17320 bound_to 7965
  145.2798  139.1923  143.4797 LP  0  0  0  0  0  0  0  0  0  0  0  0  # atno 17321 bound_to 7965
  140.7398  143.2797  151.3636 LP  0  0  0  0  0  0  0  0  0  0  0  0  # atno 17342 bound_to 10162
  139.6235  144.0860  152.2413 LP  0  0  0  0  0  0  0  0  0  0  0  0  # atno 17343 bound_to 10162
  156.2783  130.3730  149.7961 LP  0  0  0  0  0  0  0  0  0  0  0  0  # atno 17370 bound_to 10713
  156.5657  130.8403  151.3342 LP  0  0  0  0  0  0  0  0  0  0  0  0  # atno 17371 bound_to 10713
  141.1750  133.8532  157.1449 LP  0  0  0  0  0  0  0  0  0  0  0  0  # atno 17394 bound_to 11000
  140.0142  134.9974  157.0459 LP  0  0  0  0  0  0  0  0  0  0  0  0  # atno 17395 bound_to 11000

$$$$
