AV-unprocessed.smi:2195|AV-procd|sdf|8904|dock10
  -GOLD-   2272012123D 1   1.00000     0.00000
 Structure written by MMmdl.
 39 41  0  0  0  0  0  0  0  0  1 V2000
  152.6667  143.7953  161.7806 C   0  0  0  0  0  0  0  0  0  0  0  0
  152.2007  143.3897  160.3976 C   0  0  0  0  0  0  0  0  0  0  0  0
  151.8690  144.3673  159.4387 C   0  0  0  0  0  0  0  0  0  0  0  0
  151.4386  143.9794  158.1555 C   0  0  0  0  0  0  0  0  0  0  0  0
  151.3339  142.6169  157.8091 C   0  0  0  0  0  0  0  0  0  0  0  0
  150.9067  142.3298  156.5310 O   0  0  0  0  0  0  0  0  0  0  0  0
  150.1886  141.1215  156.3137 C   0  0  0  0  0  0  0  0  0  0  0  0
  149.8531  140.9733  154.8206 C   0  0  2  0  0  0  0  0  0  0  0  0
  149.1795  142.1341  154.3752 O   0  0  0  0  0  0  0  0  0  0  0  0
  149.0558  139.6967  154.4891 C   0  0  0  0  0  0  0  0  0  0  0  0
  149.8604  138.4951  154.6180 N   0  0  0  0  0  0  0  0  0  0  0  0
  151.1842  138.3811  154.3979 C   0  0  0  0  0  0  0  0  0  0  0  0
  151.7306  137.1815  154.5744 N   0  0  0  0  0  0  0  0  0  0  0  0
  150.6333  136.4285  154.9556 C   0  0  0  0  0  0  0  0  0  0  0  0
  150.5331  135.0597  155.2924 C   0  0  0  0  0  0  0  0  0  0  0  0
  149.2888  134.5022  155.6536 C   0  0  0  0  0  0  0  0  0  0  0  0
  148.1280  135.3024  155.6832 C   0  0  0  0  0  0  0  0  0  0  0  0
  148.2031  136.6688  155.3516 C   0  0  0  0  0  0  0  0  0  0  0  0
  149.4465  137.2214  154.9925 C   0  0  0  0  0  0  0  0  0  0  0  0
  151.6671  141.6381  158.7791 C   0  0  0  0  0  0  0  0  0  0  0  0
  152.0969  142.0253  160.0635 C   0  0  0  0  0  0  0  0  0  0  0  0
  152.7486  144.8789  161.8716 H   0  0  0  0  0  0  0  0  0  0  0  0
  153.6444  143.3616  161.9917 H   0  0  0  0  0  0  0  0  0  0  0  0
  151.9632  143.4416  162.5346 H   0  0  0  0  0  0  0  0  0  0  0  0
  151.9432  145.4174  159.6809 H   0  0  0  0  0  0  0  0  0  0  0  0
  151.1881  144.7366  157.4270 H   0  0  0  0  0  0  0  0  0  0  0  0
  150.7564  140.2569  156.6620 H   0  0  0  0  0  0  0  0  0  0  0  0
  149.2567  141.1563  156.8806 H   0  0  0  0  0  0  0  0  0  0  0  0
  150.7965  140.9439  154.2739 H   0  0  0  0  0  0  0  0  0  0  0  0
  149.2850  142.8110  155.0262 H   0  0  0  0  0  0  0  0  0  0  0  0
  148.1985  139.6062  155.1573 H   0  0  0  0  0  0  0  0  0  0  0  0
  148.6568  139.7404  153.4751 H   0  0  0  0  0  0  0  0  0  0  0  0
  151.7801  139.2274  154.0886 H   0  0  0  0  0  0  0  0  0  0  0  0
  151.4153  134.4372  155.2723 H   0  0  0  0  0  0  0  0  0  0  0  0
  149.2246  133.4547  155.9086 H   0  0  0  0  0  0  0  0  0  0  0  0
  147.1795  134.8658  155.9604 H   0  0  0  0  0  0  0  0  0  0  0  0
  147.3156  137.2839  155.3716 H   0  0  0  0  0  0  0  0  0  0  0  0
  151.6008  140.5827  158.5634 H   0  0  0  0  0  0  0  0  0  0  0  0
  152.3479  141.2696  160.7934 H   0  0  0  0  0  0  0  0  0  0  0  0
  1  2  1  0  0  0  0
  1 22  1  0  0  0  0
  1 23  1  0  0  0  0
  1 24  1  0  0  0  0
  2 21  1  0  0  0  0
  2  3  2  0  0  0  0
  3  4  1  0  0  0  0
  3 25  1  0  0  0  0
  4  5  2  0  0  0  0
  4 26  1  0  0  0  0
  5  6  1  0  0  0  0
  5 20  1  0  0  0  0
  6  7  1  0  0  0  0
  7  8  1  0  0  0  0
  7 27  1  0  0  0  0
  7 28  1  0  0  0  0
  8  9  1  0  0  0  0
  8 10  1  0  0  0  0
  8 29  1  0  0  0  0
  9 30  1  0  0  0  0
 10 11  1  0  0  0  0
 10 31  1  0  0  0  0
 10 32  1  0  0  0  0
 11 19  1  0  0  0  0
 11 12  1  0  0  0  0
 12 13  2  0  0  0  0
 12 33  1  0  0  0  0
 13 14  1  0  0  0  0
 14 19  2  0  0  0  0
 14 15  1  0  0  0  0
 15 16  2  0  0  0  0
 15 34  1  0  0  0  0
 16 17  1  0  0  0  0
 16 35  1  0  0  0  0
 17 18  2  0  0  0  0
 17 36  1  0  0  0  0
 18 19  1  0  0  0  0
 18 37  1  0  0  0  0
 20 21  2  0  0  0  0
 20 38  1  0  0  0  0
 21 39  1  0  0  0  0
M  END
> <s_m_source_file>
AV-unprocessed.smi

> <i_m_source_file_index>
2195

> <i_lp_mmshare_version>
43012

> <i_f3d_flags>
0

> <s_epik_input>
W0NIM11jMVtjSF1bY0hdYyhbY0hdW2NIXTEpT1tDSDJdW0NASF0oW09IXSlbQ0gyXW4oW2NIXW4yKWMoYzIzKVtjSF1bY0hdW2NIXVtjSF0z

> <s_epik_cmdline>
J2VwaWtfcHl0aG9uJywgJy1waCcsICc3LjAnLCAnLXRuJywgJzgnLCAnLW1hJywgJzIwMCcsICctbWV0YWxfYmluZGluZycsICctaW1hZScsICc8aW5maWxlLm1hZT4nLCAnLW9tYWUnLCAnPG91dGZpbGUubWFlPic=

> <r_lp_tautomer_probability>
1

> <r_epik_Ionization_Penalty>
0.0609831

> <r_epik_Ionization_Penalty_Charging>
0

> <r_epik_Ionization_Penalty_Neutral>
0.0609831

> <r_epik_State_Penalty>
0.0529032

> <r_epik_Charging_Adjusted_Penalty>
0.0529032

> <i_epik_Tot_Q>
0

> <i_epik_Tot_abs_Q>
0

> <r_epik_Metal_State_Penalty>
5.53344e-05

> <b_epik_Metal_Only>
0

> <s_lp_Force_Field>
OPLS_2005

> <r_lp_Energy>
15.928

> <b_lp_Chiralities_Consistent>
1

> <s_lp_Variant>
AV-unprocessed.smi:2195-1

> <Gold.Version>
5.8.1

> <Gold.Id.Protein>
6NUR|6NUR_protein|mol2

> <Gold.PLP.Fitness>
47.8637

> <Gold.PLP.PLP>
-43.0094

> <Gold.PLP.part.hbond>
-3.2070

> <Gold.PLP.part.metal>
0.0000

> <Gold.PLP.part.buried>
-4.4793

> <Gold.PLP.part.nonpolar>
-35.4996

> <Gold.PLP.part.repulsive>
0.2499

> <Gold.PLP.ligand.clash>
0.0000

> <Gold.PLP.ligand.torsion>
0.8410

> <Gold.PLP.Chemscore.Hbond>
2.1583

> <Gold.PLP.Chemscore.CHOScore>
0.0000

> <Gold.PLP.Chemscore.Metal>
0.0000

> <Gold.Chemscore.Hbonds>
donor molecule, donor type, donor heavy atom, donor atom, acceptor molecule, acceptor atom, score
      L1  H     9    30       P1  8028  0.94
      P1  H  8011  8017       L1     9  0.22
      P1  H 10752 10765       L1    13  0.94

> <Gold.PLP.Chemscore.Internal.Correction>
0.0614

> <Gold.Rescore>
     Score         DG    S(hbond)    S(metal)    S(lipo)     H(rot)  DE(clash)    DE(int)     intcor
     16.65     -17.89       1.39        0.00     114.24       2.19       0.41       0.83       ----

> <Gold.Chemscore.Fitness>
16.6474

> <Gold.Chemscore.DG>
-17.8939

> <Gold.Chemscore.ZeroCoef>
-5.4800

> <Gold.Chemscore.Hbond>
1.3916

> <Gold.Chemscore.Metal>
0.0000

> <Gold.Chemscore.Lipo>
114.2421

> <Gold.Chemscore.Internal_Hbond>
0.0000

> <Gold.Chemscore.DEClash>
0.4147

> <Gold.Chemscore.DEInternal>
0.8319

> <Gold.Chemscore.Rot>
2.1877

> <Gold.Chemscore.Internal.Correction>
   9.000000E+99

> <Gold.Chemscore.Hbonds>
donor molecule, donor type, donor heavy atom, donor atom, acceptor molecule, acceptor atom, score
      L1  H     9    30       P1  8028  0.84
      P1  H  8011  8017       L1     9  0.12
      P1  H 10752 10765       L1    13  0.20

> <Gold.Chemscore.Hbond.Weighted>
-4.6480

> <Gold.Chemscore.Metal.Weighted>
-0.0000

> <Gold.Chemscore.Lipo.Weighted>
-13.3663

> <Gold.Chemscore.Internal_Hbond.Weighted>
0.0000

> <Gold.Chemscore.DEClash.Weighted>
0.4147

> <Gold.Chemscore.DEInternal.Weighted>
0.8319

> <Gold.Chemscore.Rot.Weighted>
5.6005

> <Gold.Chemscore.Internal.Correction.Weighted>
   9.000000E+99

> <Gold.Protein.RotatedTorsions>
[ 6907 6896 6895 6894 ] final   68.10 input  -60.11 | X-H torsion
[ 7974 7965 7964 7962 ] final  -81.52 input  175.53 | X-H torsion
[ 8008 7997 7996 7995 ] final  -18.94 input   59.86 | X-H torsion
[ 10167 10162 10161 10158 ] final -108.98 input  -65.29 | X-H torsion
[ 10718 10713 10712 10709 ] final  144.48 input   66.30 | X-H torsion
[ 10763 10752 10751 10750 ] final  153.60 input  -60.55 | X-H torsion
[ 11005 11000 10999 10996 ] final   35.67 input  -57.11 | X-H torsion

> <Gold.Protein.ActiveResidues>
 VAL166  LYS551  ARG553  GLY616  TRP617  ASP618  TYR619  PRO620  LYS621  CYS622 
 ASP623  PHE694  ASN695  SER759  ASP760  ASP761  ALA762  ILE779  LEU786  VAL792 
 PHE793  MET794  SER795  GLU796  ALA797  LYS798  CYS799  TRP800  GLU811  SER814 

> <Gold.Protein.RotatedAtoms>
  152.4597  134.5211  159.9782 H   0  0  0  0  0  0  0  0  0  0  0  0  # atno 6907 bound_to 6896
  151.5263  133.3451  159.2918 H   0  0  0  0  0  0  0  0  0  0  0  0  # atno 6908 bound_to 6896
  150.8555  134.7923  159.7105 H   0  0  0  0  0  0  0  0  0  0  0  0  # atno 6909 bound_to 6896
  145.5456  140.9504  143.1527 H   0  0  0  0  0  0  0  0  0  0  0  0  # atno 7974 bound_to 7965
  154.4871  140.2102  155.9632 H   0  0  0  0  0  0  0  0  0  0  0  0  # atno 8008 bound_to 7997
  156.1251  140.3206  155.8234 H   0  0  0  0  0  0  0  0  0  0  0  0  # atno 8009 bound_to 7997
  155.4398  140.0509  157.3002 H   0  0  0  0  0  0  0  0  0  0  0  0  # atno 8010 bound_to 7997
  140.1603  143.4126  152.1430 H   0  0  0  0  0  0  0  0  0  0  0  0  # atno 10167 bound_to 10162
  157.3566  131.0959  151.0952 H   0  0  0  0  0  0  0  0  0  0  0  0  # atno 10718 bound_to 10713
  154.1387  135.2822  155.3166 H   0  0  0  0  0  0  0  0  0  0  0  0  # atno 10763 bound_to 10752
  154.6302  135.5437  153.7676 H   0  0  0  0  0  0  0  0  0  0  0  0  # atno 10764 bound_to 10752
  153.0257  135.6461  154.1535 H   0  0  0  0  0  0  0  0  0  0  0  0  # atno 10765 bound_to 10752
  140.2403  134.3423  155.7928 H   0  0  0  0  0  0  0  0  0  0  0  0  # atno 11005 bound_to 11000
  144.7555  139.7085  143.7256 LP  0  0  0  0  0  0  0  0  0  0  0  0  # atno 17320 bound_to 7965
  146.1952  139.5214  142.9779 LP  0  0  0  0  0  0  0  0  0  0  0  0  # atno 17321 bound_to 7965
  139.5384  144.7233  151.4815 LP  0  0  0  0  0  0  0  0  0  0  0  0  # atno 17342 bound_to 10162
  140.6647  143.8423  150.6928 LP  0  0  0  0  0  0  0  0  0  0  0  0  # atno 17343 bound_to 10162
  157.2108  130.6437  149.5773 LP  0  0  0  0  0  0  0  0  0  0  0  0  # atno 17370 bound_to 10713
  155.9730  130.4660  150.6276 LP  0  0  0  0  0  0  0  0  0  0  0  0  # atno 17371 bound_to 10713
  141.2211  133.7295  156.8874 LP  0  0  0  0  0  0  0  0  0  0  0  0  # atno 17394 bound_to 11000
  140.1660  134.9133  157.2774 LP  0  0  0  0  0  0  0  0  0  0  0  0  # atno 17395 bound_to 11000

$$$$
