AV-unprocessed.smi:1222|AV-procd|sdf|5125|dock4
  -GOLD-   22720 4183D 1   1.00000     0.00000
 Structure written by MMmdl.
 35 37  0  0  0  0  0  0  0  0  2 V2000
  154.9701  138.7257  162.0238 O   0  0  0  0  0  0  0  0  0  0  0  0
  155.3762  139.5745  162.8206 C   0  0  0  0  0  0  0  0  0  0  0  0
  156.3570  139.4049  163.7368 N   0  5  0  0  0  0  0  0  0  0  0  0
  156.1505  139.7600  165.0155 C   0  0  0  0  0  0  0  0  0  0  0  0
  155.4765  140.8606  165.3689 N   0  0  0  0  0  0  0  0  0  0  0  0
  155.3780  141.0313  166.7511 C   0  0  0  0  0  0  0  0  0  0  0  0
  155.9821  140.0319  167.4669 C   0  0  0  0  0  0  0  0  0  0  0  0
  156.6987  138.8404  166.4199 S   0  0  0  0  0  0  0  0  0  0  0  0
  154.8351  140.8018  162.8344 N   0  0  0  0  0  0  0  0  0  0  0  0
  153.7590  141.2923  161.9754 C   0  0  0  0  0  0  0  0  0  0  0  0
  154.2625  141.4566  160.5328 C   0  0  0  0  0  0  0  0  0  0  0  0
  153.1894  142.1140  159.6471 C   0  0  0  0  0  0  0  0  0  0  0  0
  152.8092  143.4185  160.1911 N   0  0  0  0  0  0  0  0  0  0  0  0
  151.8208  144.0224  159.3125 C   0  0  0  0  0  0  0  0  0  0  0  0
  152.1497  145.3697  158.7110 C   0  0  0  0  0  0  0  0  0  0  0  0
  151.1138  145.2648  159.8042 C   0  0  0  0  0  0  0  0  0  0  0  0
  152.2196  143.2513  161.5201 C   0  0  0  0  0  0  0  0  0  0  0  0
  153.2503  142.6471  162.4900 C   0  0  0  0  0  0  0  0  0  0  0  0
  154.8580  141.8945  167.1388 H   0  0  0  0  0  0  0  0  0  0  0  0
  156.0486  139.9235  168.5389 H   0  0  0  0  0  0  0  0  0  0  0  0
  155.2070  141.4559  163.5074 H   0  0  0  0  0  0  0  0  0  0  0  0
  152.9183  140.5964  161.9692 H   0  0  0  0  0  0  0  0  0  0  0  0
  155.1675  142.0664  160.5187 H   0  0  0  0  0  0  0  0  0  0  0  0
  154.5374  140.4851  160.1208 H   0  0  0  0  0  0  0  0  0  0  0  0
  153.5802  142.2408  158.6367 H   0  0  0  0  0  0  0  0  0  0  0  0
  152.3137  141.4672  159.5726 H   0  0  0  0  0  0  0  0  0  0  0  0
  151.2201  143.3684  158.6822 H   0  0  0  0  0  0  0  0  0  0  0  0
  153.1051  145.8239  158.9678 H   0  0  0  0  0  0  0  0  0  0  0  0
  151.7963  145.5673  157.7013 H   0  0  0  0  0  0  0  0  0  0  0  0
  150.0706  145.3919  159.5226 H   0  0  0  0  0  0  0  0  0  0  0  0
  151.3809  145.6480  160.7874 H   0  0  0  0  0  0  0  0  0  0  0  0
  151.8914  144.2204  161.8973 H   0  0  0  0  0  0  0  0  0  0  0  0
  151.3359  142.6137  161.4628 H   0  0  0  0  0  0  0  0  0  0  0  0
  152.8018  142.5262  163.4767 H   0  0  0  0  0  0  0  0  0  0  0  0
  154.0845  143.3402  162.6111 H   0  0  0  0  0  0  0  0  0  0  0  0
  1  2  2  0  0  0  0
  2  3  1  0  0  0  0
  2  9  1  0  0  0  0
  3  4  1  0  0  0  0
  4  8  1  0  0  0  0
  4  5  2  0  0  0  0
  5  6  1  0  0  0  0
  6  7  2  0  0  0  0
  6 19  1  0  0  0  0
  7  8  1  0  0  0  0
  7 20  1  0  0  0  0
  9 10  1  0  0  0  0
  9 21  1  0  0  0  0
 10 18  1  0  0  0  0
 10 11  1  0  0  0  0
 10 22  1  0  0  0  0
 11 12  1  0  0  0  0
 11 23  1  0  0  0  0
 11 24  1  0  0  0  0
 12 13  1  0  0  0  0
 12 25  1  0  0  0  0
 12 26  1  0  0  0  0
 13 14  1  0  0  0  0
 13 17  1  0  0  0  0
 14 16  1  0  0  0  0
 14 15  1  0  0  0  0
 14 27  1  0  0  0  0
 15 16  1  0  0  0  0
 15 28  1  0  0  0  0
 15 29  1  0  0  0  0
 16 30  1  0  0  0  0
 16 31  1  0  0  0  0
 17 18  1  0  0  0  0
 17 32  1  0  0  0  0
 17 33  1  0  0  0  0
 18 34  1  0  0  0  0
 18 35  1  0  0  0  0
M  CHG  1   3  -1
M  END
> <s_m_source_file>
AV-unprocessed.smi

> <i_m_source_file_index>
1222

> <i_lp_mmshare_version>
43012

> <i_f3d_flags>
0

> <s_epik_input>
czFbY0hdW2NIXW5jMVtOSF1DKD1PKVtOSF1bQ0hdMltDSDJdW0NIMl1OKFtDSDJdW0NIMl0yKVtDSF0zW0NIMl1bQ0gyXTM=

> <s_epik_cmdline>
J2VwaWtfcHl0aG9uJywgJy1waCcsICc3LjAnLCAnLXRuJywgJzgnLCAnLW1hJywgJzIwMCcsICctbWV0YWxfYmluZGluZycsICctaW1hZScsICc8aW5maWxlLm1hZT4nLCAnLW9tYWUnLCAnPG91dGZpbGUubWFlPic=

> <r_lp_tautomer_probability>
0.999

> <r_epik_Ionization_Penalty>
8.0332

> <r_epik_Ionization_Penalty_Charging>
5.90974

> <r_epik_Ionization_Penalty_Neutral>
2.12346

> <r_epik_State_Penalty>
6.94233

> <r_epik_Charging_Adjusted_Penalty>
12.8521

> <i_epik_Tot_Q>
-1

> <i_epik_Tot_abs_Q>
1

> <r_epik_Metal_State_Penalty>
2.92331

> <b_epik_Metal_Only>
1

> <s_lp_Force_Field>
OPLS_2005

> <r_lp_Energy>
17.9204

> <b_lp_Chiralities_Consistent>
1

> <s_lp_Variant>
AV-unprocessed.smi:1222-6

> <Gold.Version>
5.8.1

> <Gold.Id.Protein>
6NUR|6NUR_protein|mol2

> <Gold.PLP.Fitness>
39.3438

> <Gold.PLP.PLP>
-41.4459

> <Gold.PLP.part.hbond>
-1.0000

> <Gold.PLP.part.metal>
0.0000

> <Gold.PLP.part.buried>
-7.2188

> <Gold.PLP.part.nonpolar>
-32.5603

> <Gold.PLP.part.repulsive>
0.0000

> <Gold.PLP.ligand.clash>
0.0000

> <Gold.PLP.ligand.torsion>
1.6475

> <Gold.PLP.Chemscore.Hbond>
0.0000

> <Gold.PLP.Chemscore.CHOScore>
0.0000

> <Gold.PLP.Chemscore.Metal>
0.0000

> <Gold.PLP.Chemscore.Internal.Correction>
1.1928

> <Gold.Rescore>
     Score         DG    S(hbond)    S(metal)    S(lipo)     H(rot)  DE(clash)    DE(int)     intcor
     13.44     -14.94       0.00        0.00     107.76       1.23       0.09       1.41       ----

> <Gold.Chemscore.Fitness>
13.4408

> <Gold.Chemscore.DG>
-14.9373

> <Gold.Chemscore.ZeroCoef>
-5.4800

> <Gold.Chemscore.Hbond>
0.0000

> <Gold.Chemscore.Metal>
0.0000

> <Gold.Chemscore.Lipo>
107.7613

> <Gold.Chemscore.Internal_Hbond>
0.0000

> <Gold.Chemscore.DEClash>
0.0898

> <Gold.Chemscore.DEInternal>
1.4067

> <Gold.Chemscore.Rot>
1.2308

> <Gold.Chemscore.Internal.Correction>
   9.000000E+99

> <Gold.Chemscore.Hbond.Weighted>
-0.0000

> <Gold.Chemscore.Metal.Weighted>
-0.0000

> <Gold.Chemscore.Lipo.Weighted>
-12.6081

> <Gold.Chemscore.Internal_Hbond.Weighted>
0.0000

> <Gold.Chemscore.DEClash.Weighted>
0.0898

> <Gold.Chemscore.DEInternal.Weighted>
1.4067

> <Gold.Chemscore.Rot.Weighted>
3.1508

> <Gold.Chemscore.Internal.Correction.Weighted>
   9.000000E+99

> <Gold.Protein.RotatedTorsions>
[ 6907 6896 6895 6894 ] final -124.50 input  -60.11 | X-H torsion
[ 7974 7965 7964 7962 ] final    2.15 input  175.53 | X-H torsion
[ 8008 7997 7996 7995 ] final -159.99 input   59.86 | X-H torsion
[ 10167 10162 10161 10158 ] final -173.40 input  -65.29 | X-H torsion
[ 10718 10713 10712 10709 ] final  152.47 input   66.30 | X-H torsion
[ 10763 10752 10751 10750 ] final  -38.93 input  -60.55 | X-H torsion
[ 11005 11000 10999 10996 ] final -133.43 input  -57.11 | X-H torsion

> <Gold.Protein.ActiveResidues>
 VAL166  LYS551  ARG553  GLY616  TRP617  ASP618  TYR619  PRO620  LYS621  CYS622 
 ASP623  PHE694  ASN695  SER759  ASP760  ASP761  ALA762  ILE779  LEU786  VAL792 
 PHE793  MET794  SER795  GLU796  ALA797  LYS798  CYS799  TRP800  GLU811  SER814 

> <Gold.Protein.RotatedAtoms>
  150.8774  133.7419  159.2942 H   0  0  0  0  0  0  0  0  0  0  0  0  # atno 6907 bound_to 6896
  151.5011  135.1060  159.9839 H   0  0  0  0  0  0  0  0  0  0  0  0  # atno 6908 bound_to 6896
  152.4737  133.8043  159.7025 H   0  0  0  0  0  0  0  0  0  0  0  0  # atno 6909 bound_to 6896
  146.2443  140.0879  142.8353 H   0  0  0  0  0  0  0  0  0  0  0  0  # atno 7974 bound_to 7965
  155.7707  140.0851  157.2109 H   0  0  0  0  0  0  0  0  0  0  0  0  # atno 8008 bound_to 7997
  154.3996  140.1526  156.2996 H   0  0  0  0  0  0  0  0  0  0  0  0  # atno 8009 bound_to 7997
  155.8750  140.3423  155.5850 H   0  0  0  0  0  0  0  0  0  0  0  0  # atno 8010 bound_to 7997
  139.5690  144.1686  152.1356 H   0  0  0  0  0  0  0  0  0  0  0  0  # atno 10167 bound_to 10162
  157.2573  131.0791  151.1689 H   0  0  0  0  0  0  0  0  0  0  0  0  # atno 10718 bound_to 10713
  153.9210  135.6782  153.4748 H   0  0  0  0  0  0  0  0  0  0  0  0  # atno 10763 bound_to 10752
  153.1028  135.4819  154.8895 H   0  0  0  0  0  0  0  0  0  0  0  0  # atno 10764 bound_to 10752
  154.7478  135.3177  154.8570 H   0  0  0  0  0  0  0  0  0  0  0  0  # atno 10765 bound_to 10752
  140.9081  134.1603  157.4410 H   0  0  0  0  0  0  0  0  0  0  0  0  # atno 11005 bound_to 11000
  145.0676  140.9132  143.4901 LP  0  0  0  0  0  0  0  0  0  0  0  0  # atno 17320 bound_to 7965
  145.1007  139.2825  143.5688 LP  0  0  0  0  0  0  0  0  0  0  0  0  # atno 17321 bound_to 7965
  140.1215  144.5369  150.6860 LP  0  0  0  0  0  0  0  0  0  0  0  0  # atno 17342 bound_to 10162
  140.6974  143.2413  151.4961 LP  0  0  0  0  0  0  0  0  0  0  0  0  # atno 17343 bound_to 10162
  157.3213  130.6938  149.6271 LP  0  0  0  0  0  0  0  0  0  0  0  0  # atno 17370 bound_to 10713
  155.9664  130.4334  150.5007 LP  0  0  0  0  0  0  0  0  0  0  0  0  # atno 17371 bound_to 10713
  139.8753  134.9925  156.5599 LP  0  0  0  0  0  0  0  0  0  0  0  0  # atno 17394 bound_to 11000
  140.8145  133.8403  155.8840 LP  0  0  0  0  0  0  0  0  0  0  0  0  # atno 17395 bound_to 11000

$$$$
