AV-unprocessed.smi:237|AV-procd|sdf|1818|dock1
  -GOLD-   2262020413D 1   1.00000     0.00000
 Structure written by MMmdl.
 53 56  0  0  0  0  0  0  0  0  1 V2000
  150.2177  139.5727  154.6079 C   0  0  0  0  0  0  0  0  0  0  0  0
  151.0669  140.2433  155.6896 C   0  0  0  0  0  0  0  0  0  0  0  0
  150.4040  140.0922  156.9348 O   0  0  0  0  0  0  0  0  0  0  0  0
  151.2397  140.2164  158.0798 C   0  0  0  0  0  0  0  0  0  0  0  0
  152.0945  141.5125  158.1183 C   0  0  1  0  0  0  0  0  0  0  0  0
  151.1547  142.7253  157.9286 C   0  0  0  0  0  0  0  0  0  0  0  0
  151.9044  144.0605  158.0240 C   0  0  0  0  0  0  0  0  0  0  0  0
  152.6614  144.1354  159.3539 C   0  0  0  0  0  0  0  0  0  0  0  0
  153.5968  142.9283  159.4968 C   0  0  0  0  0  0  0  0  0  0  0  0
  152.8645  141.6668  159.3653 N   0  0  0  0  0  0  0  0  0  0  0  0
  153.6533  140.6116  159.6743 C   0  0  0  0  0  0  0  0  0  0  0  0
  153.8360  139.6116  158.7711 N   0  0  0  0  0  0  0  0  0  0  0  0
  154.5913  138.5563  159.0895 C   0  0  0  0  0  0  0  0  0  0  0  0
  155.2390  138.3064  160.2297 N   0  0  0  0  0  0  0  0  0  0  0  0
  155.0592  139.3121  161.1341 C   0  0  0  0  0  0  0  0  0  0  0  0
  154.2853  140.4894  160.9390 C   0  0  0  0  0  0  0  0  0  0  0  0
  154.3144  141.2766  162.0819 N   0  0  0  0  0  0  0  0  0  0  0  0
  155.0663  140.6019  162.9082 C   0  0  0  0  0  0  0  0  0  0  0  0
  155.5716  139.4182  162.4158 N   0  0  0  0  0  0  0  0  0  0  0  0
  156.4291  138.4714  163.1156 C   0  0  0  0  0  0  0  0  0  0  0  0
  155.7966  137.8224  164.3711 C   0  0  0  0  0  0  0  0  0  0  0  0
  154.5302  137.0741  163.9327 C   0  0  0  0  0  0  0  0  0  0  0  0
  153.7787  136.6374  165.0471 O   0  0  0  0  0  0  0  0  0  0  0  0
  156.7291  137.0694  165.3364 C   0  0  0  0  0  0  0  0  0  0  0  0
  156.7706  138.1842  166.2520 O   0  0  0  0  0  0  0  0  0  0  0  0
  155.6183  138.7451  165.5890 C   0  0  0  0  0  0  0  0  0  0  0  0
  150.6933  139.6556  153.6306 H   0  0  0  0  0  0  0  0  0  0  0  0
  149.2327  140.0353  154.5419 H   0  0  0  0  0  0  0  0  0  0  0  0
  150.0763  138.5132  154.8227 H   0  0  0  0  0  0  0  0  0  0  0  0
  152.0536  139.7821  155.7142 H   0  0  0  0  0  0  0  0  0  0  0  0
  151.1992  141.3006  155.4561 H   0  0  0  0  0  0  0  0  0  0  0  0
  150.6152  140.1445  158.9716 H   0  0  0  0  0  0  0  0  0  0  0  0
  151.8997  139.3487  158.1091 H   0  0  0  0  0  0  0  0  0  0  0  0
  152.7971  141.5160  157.2853 H   0  0  0  0  0  0  0  0  0  0  0  0
  150.6513  142.6610  156.9633 H   0  0  0  0  0  0  0  0  0  0  0  0
  150.3701  142.7023  158.6866 H   0  0  0  0  0  0  0  0  0  0  0  0
  152.6048  144.1527  157.1930 H   0  0  0  0  0  0  0  0  0  0  0  0
  151.2053  144.8930  157.9403 H   0  0  0  0  0  0  0  0  0  0  0  0
  153.2334  145.0617  159.4106 H   0  0  0  0  0  0  0  0  0  0  0  0
  151.9533  144.1527  160.1835 H   0  0  0  0  0  0  0  0  0  0  0  0
  154.3763  142.9835  158.7349 H   0  0  0  0  0  0  0  0  0  0  0  0
  154.0957  142.9659  160.4665 H   0  0  0  0  0  0  0  0  0  0  0  0
  154.6863  137.8020  158.3227 H   0  0  0  0  0  0  0  0  0  0  0  0
  155.2736  140.9546  163.9078 H   0  0  0  0  0  0  0  0  0  0  0  0
  156.7204  137.7008  162.4010 H   0  0  0  0  0  0  0  0  0  0  0  0
  157.3496  138.9967  163.3718 H   0  0  0  0  0  0  0  0  0  0  0  0
  153.8870  137.7156  163.3291 H   0  0  0  0  0  0  0  0  0  0  0  0
  154.7779  136.2124  163.3123 H   0  0  0  0  0  0  0  0  0  0  0  0
  154.0448  135.7570  165.2640 H   0  0  0  0  0  0  0  0  0  0  0  0
  156.2706  136.1914  165.7943 H   0  0  0  0  0  0  0  0  0  0  0  0
  157.7068  136.8170  164.9299 H   0  0  0  0  0  0  0  0  0  0  0  0
  155.7247  139.8078  165.3763 H   0  0  0  0  0  0  0  0  0  0  0  0
  154.7033  138.5621  166.1549 H   0  0  0  0  0  0  0  0  0  0  0  0
  1  2  1  0  0  0  0
  1 27  1  0  0  0  0
  1 28  1  0  0  0  0
  1 29  1  0  0  0  0
  2  3  1  0  0  0  0
  2 30  1  0  0  0  0
  2 31  1  0  0  0  0
  3  4  1  0  0  0  0
  4  5  1  0  0  0  0
  4 32  1  0  0  0  0
  4 33  1  0  0  0  0
  5 10  1  0  0  0  0
  5  6  1  0  0  0  0
  5 34  1  0  0  0  0
  6  7  1  0  0  0  0
  6 35  1  0  0  0  0
  6 36  1  0  0  0  0
  7  8  1  0  0  0  0
  7 37  1  0  0  0  0
  7 38  1  0  0  0  0
  8  9  1  0  0  0  0
  8 39  1  0  0  0  0
  8 40  1  0  0  0  0
  9 10  1  0  0  0  0
  9 41  1  0  0  0  0
  9 42  1  0  0  0  0
 10 11  1  0  0  0  0
 11 16  1  0  0  0  0
 11 12  2  0  0  0  0
 12 13  1  0  0  0  0
 13 14  2  0  0  0  0
 13 43  1  0  0  0  0
 14 15  1  0  0  0  0
 15 19  1  0  0  0  0
 15 16  2  0  0  0  0
 16 17  1  0  0  0  0
 17 18  2  0  0  0  0
 18 19  1  0  0  0  0
 18 44  1  0  0  0  0
 19 20  1  0  0  0  0
 20 21  1  0  0  0  0
 20 45  1  0  0  0  0
 20 46  1  0  0  0  0
 21 26  1  0  0  0  0
 21 22  1  0  0  0  0
 21 24  1  0  0  0  0
 22 23  1  0  0  0  0
 22 47  1  0  0  0  0
 22 48  1  0  0  0  0
 23 49  1  0  0  0  0
 24 25  1  0  0  0  0
 24 50  1  0  0  0  0
 24 51  1  0  0  0  0
 25 26  1  0  0  0  0
 26 52  1  0  0  0  0
 26 53  1  0  0  0  0
M  END
> <s_m_source_file>
AV-unprocessed.smi

> <i_m_source_file_index>
237

> <i_lp_mmshare_version>
43012

> <i_f3d_flags>
0

> <s_epik_input>
W0NIM11bQ0gyXU9bQ0gyXVtDQEBIXTFbQ0gyXVtDSDJdW0NIMl1bQ0gyXU4xYyhuW2NIXW4yKWMoYzIzKW5bY0hdbjNbQ0gyXUM0KFtDSDJdW09IXSlbQ0gyXU9bQ0gyXTQ=

> <s_epik_cmdline>
J2VwaWtfcHl0aG9uJywgJy1waCcsICc3LjAnLCAnLXRuJywgJzgnLCAnLW1hJywgJzIwMCcsICctbWV0YWxfYmluZGluZycsICctaW1hZScsICc8aW5maWxlLm1hZT4nLCAnLW9tYWUnLCAnPG91dGZpbGUubWFlPic=

> <r_lp_tautomer_probability>
1

> <r_epik_Ionization_Penalty>
0.00358373

> <r_epik_Ionization_Penalty_Charging>
0

> <r_epik_Ionization_Penalty_Neutral>
0.00358373

> <r_epik_State_Penalty>
0.00240903

> <r_epik_Charging_Adjusted_Penalty>
0.00240903

> <i_epik_Tot_Q>
0

> <i_epik_Tot_abs_Q>
0

> <r_epik_Metal_State_Penalty>
-0

> <b_epik_Metal_Only>
0

> <s_lp_Force_Field>
OPLS_2005

> <r_lp_Energy>
39.3208

> <b_lp_Chiralities_Consistent>
1

> <s_lp_Variant>
AV-unprocessed.smi:237-2

> <Gold.Version>
5.8.1

> <Gold.Id.Protein>
6NUR|6NUR_protein|mol2

> <Gold.PLP.Fitness>
52.1497

> <Gold.PLP.PLP>
-49.4507

> <Gold.PLP.part.hbond>
-4.5045

> <Gold.PLP.part.metal>
0.0000

> <Gold.PLP.part.buried>
-5.3361

> <Gold.PLP.part.nonpolar>
-39.6248

> <Gold.PLP.part.repulsive>
0.0689

> <Gold.PLP.ligand.clash>
0.0000

> <Gold.PLP.ligand.torsion>
0.4632

> <Gold.PLP.Chemscore.Hbond>
1.0000

> <Gold.PLP.Chemscore.CHOScore>
0.0000

> <Gold.PLP.Chemscore.Metal>
0.0000

> <Gold.Chemscore.Hbonds>
donor molecule, donor type, donor heavy atom, donor atom, acceptor molecule, acceptor atom, score
      P1  H  7997  8009       L1    12  0.85

> <Gold.PLP.Chemscore.Internal.Correction>
0.6253

> <Gold.Rescore>
     Score         DG    S(hbond)    S(metal)    S(lipo)     H(rot)  DE(clash)    DE(int)     intcor
      9.19     -11.46       0.36        0.00     107.97       3.06       0.28       1.99       ----

> <Gold.Chemscore.Fitness>
9.1925

> <Gold.Chemscore.DG>
-11.4637

> <Gold.Chemscore.ZeroCoef>
-5.4800

> <Gold.Chemscore.Hbond>
0.3563

> <Gold.Chemscore.Metal>
0.0000

> <Gold.Chemscore.Lipo>
107.9695

> <Gold.Chemscore.Internal_Hbond>
0.0000

> <Gold.Chemscore.DEClash>
0.2849

> <Gold.Chemscore.DEInternal>
1.9863

> <Gold.Chemscore.Rot>
3.0620

> <Gold.Chemscore.Internal.Correction>
   9.000000E+99

> <Gold.Chemscore.Hbonds>
donor molecule, donor type, donor heavy atom, donor atom, acceptor molecule, acceptor atom, score
      P1  H  7997  8009       L1    12  0.14

> <Gold.Chemscore.Hbond.Weighted>
-1.1900

> <Gold.Chemscore.Metal.Weighted>
-0.0000

> <Gold.Chemscore.Lipo.Weighted>
-12.6324

> <Gold.Chemscore.Internal_Hbond.Weighted>
0.0000

> <Gold.Chemscore.DEClash.Weighted>
0.2849

> <Gold.Chemscore.DEInternal.Weighted>
1.9863

> <Gold.Chemscore.Rot.Weighted>
7.8388

> <Gold.Chemscore.Internal.Correction.Weighted>
   9.000000E+99

> <Gold.Protein.RotatedTorsions>
[ 6907 6896 6895 6894 ] final -156.70 input  -60.11 | X-H torsion
[ 7974 7965 7964 7962 ] final  -54.72 input  175.53 | X-H torsion
[ 8008 7997 7996 7995 ] final  148.24 input   59.86 | X-H torsion
[ 10167 10162 10161 10158 ] final    8.02 input  -65.29 | X-H torsion
[ 10718 10713 10712 10709 ] final  -71.06 input   66.30 | X-H torsion
[ 10763 10752 10751 10750 ] final -126.24 input  -60.55 | X-H torsion
[ 11005 11000 10999 10996 ] final   74.30 input  -57.11 | X-H torsion

> <Gold.Protein.ActiveResidues>
 VAL166  LYS551  ARG553  GLY616  TRP617  ASP618  TYR619  PRO620  LYS621  CYS622 
 ASP623  PHE694  ASN695  SER759  ASP760  ASP761  ALA762  ILE779  LEU786  VAL792 
 PHE793  MET794  SER795  GLU796  ALA797  LYS798  CYS799  TRP800  GLU811  SER814 

> <Gold.Protein.RotatedAtoms>
  151.2916  133.4163  159.2633 H   0  0  0  0  0  0  0  0  0  0  0  0  # atno 6907 bound_to 6896
  151.0272  134.9513  159.8102 H   0  0  0  0  0  0  0  0  0  0  0  0  # atno 6908 bound_to 6896
  152.5338  134.2878  159.9084 H   0  0  0  0  0  0  0  0  0  0  0  0  # atno 6909 bound_to 6896
  145.8824  140.8134  142.9833 H   0  0  0  0  0  0  0  0  0  0  0  0  # atno 7974 bound_to 7965
  156.2798  140.2134  156.5666 H   0  0  0  0  0  0  0  0  0  0  0  0  # atno 8008 bound_to 7997
  154.7169  140.0507  157.0626 H   0  0  0  0  0  0  0  0  0  0  0  0  # atno 8009 bound_to 7997
  155.0530  140.3158  155.4689 H   0  0  0  0  0  0  0  0  0  0  0  0  # atno 8010 bound_to 7997
  140.6338  143.7933  150.7331 H   0  0  0  0  0  0  0  0  0  0  0  0  # atno 10167 bound_to 10162
  156.0379  130.4344  150.2388 H   0  0  0  0  0  0  0  0  0  0  0  0  # atno 10718 bound_to 10713
  154.8744  135.4002  154.3399 H   0  0  0  0  0  0  0  0  0  0  0  0  # atno 10763 bound_to 10752
  153.4200  135.7023  153.6306 H   0  0  0  0  0  0  0  0  0  0  0  0  # atno 10764 bound_to 10752
  153.4972  135.3735  155.2492 H   0  0  0  0  0  0  0  0  0  0  0  0  # atno 10765 bound_to 10752
  139.9397  134.7421  156.1132 H   0  0  0  0  0  0  0  0  0  0  0  0  # atno 11005 bound_to 11000
  144.6727  140.1404  143.7437 LP  0  0  0  0  0  0  0  0  0  0  0  0  # atno 17320 bound_to 7965
  145.9007  139.2429  143.1495 LP  0  0  0  0  0  0  0  0  0  0  0  0  # atno 17321 bound_to 7965
  140.1550  143.4325  152.2106 LP  0  0  0  0  0  0  0  0  0  0  0  0  # atno 17342 bound_to 10162
  139.5550  144.7366  151.4321 LP  0  0  0  0  0  0  0  0  0  0  0  0  # atno 17343 bound_to 10162
  157.0486  131.0056  151.3261 LP  0  0  0  0  0  0  0  0  0  0  0  0  # atno 17370 bound_to 10713
  157.5157  130.7966  149.7753 LP  0  0  0  0  0  0  0  0  0  0  0  0  # atno 17371 bound_to 10713
  141.1027  133.6671  156.2791 LP  0  0  0  0  0  0  0  0  0  0  0  0  # atno 17394 bound_to 11000
  140.5983  134.5581  157.5513 LP  0  0  0  0  0  0  0  0  0  0  0  0  # atno 17395 bound_to 11000

$$$$
