AV-unprocessed.smi:3155|AV-procd|sdf|12027|dock5
  -GOLD-   2272017443D 1   1.00000     0.00000
 Structure written by MMmdl.
 37 38  0  0  0  0  0  0  0  0  1 V2000
  150.6740  139.2746  154.8284 C   0  0  0  0  0  0  0  0  0  0  0  0
  150.4459  140.2393  156.0007 C   0  0  2  0  0  0  0  0  0  0  0  0
  149.8189  141.5627  155.5022 C   0  0  0  0  0  0  0  0  0  0  0  0
  148.5188  141.4019  154.8748 N   0  0  0  0  0  0  0  0  0  0  0  0
  148.1845  140.6242  153.7859 C   0  0  0  0  0  0  0  0  0  0  0  0
  146.8458  140.7808  153.5689 C   0  0  0  0  0  0  0  0  0  0  0  0
  146.4383  141.6705  154.6017 C   0  0  0  0  0  0  0  0  0  0  0  0
  147.4396  142.0331  155.3869 N   0  0  0  0  0  0  0  0  0  0  0  0
  151.7489  140.4738  156.6174 N   0  0  0  0  0  0  0  0  0  0  0  0
  151.6910  141.4066  157.7502 C   0  0  0  0  0  0  0  0  0  0  0  0
  152.6526  140.9944  158.8698 C   0  0  0  0  0  0  0  0  0  0  0  0
  153.3439  139.9875  158.7144 O   0  0  0  0  0  0  0  0  0  0  0  0
  152.7118  141.7434  159.9916 N   0  0  0  0  0  0  0  0  0  0  0  0
  153.5782  141.4272  161.1254 C   0  0  0  0  0  0  0  0  0  0  0  0
  153.1330  142.3530  162.2575 C   0  0  0  0  0  0  0  0  0  0  0  0
  152.5212  143.5481  161.5405 C   0  0  0  0  0  0  0  0  0  0  0  0
  151.9387  142.9563  160.2573 C   0  0  0  0  0  0  0  0  0  0  0  0
  149.7336  139.0357  154.3308 H   0  0  0  0  0  0  0  0  0  0  0  0
  151.1097  138.3346  155.1694 H   0  0  0  0  0  0  0  0  0  0  0  0
  151.3443  139.7016  154.0815 H   0  0  0  0  0  0  0  0  0  0  0  0
  149.7723  139.7415  156.7006 H   0  0  0  0  0  0  0  0  0  0  0  0
  149.7260  142.2740  156.3243 H   0  0  0  0  0  0  0  0  0  0  0  0
  150.4776  142.0289  154.7680 H   0  0  0  0  0  0  0  0  0  0  0  0
  148.9204  140.0361  153.2575 H   0  0  0  0  0  0  0  0  0  0  0  0
  146.2476  140.3255  152.7936 H   0  0  0  0  0  0  0  0  0  0  0  0
  145.4509  142.0582  154.8045 H   0  0  0  0  0  0  0  0  0  0  0  0
  152.4085  140.7717  155.9133 H   0  0  0  0  0  0  0  0  0  0  0  0
  151.9095  142.4234  157.4283 H   0  0  0  0  0  0  0  0  0  0  0  0
  150.6781  141.4217  158.1558 H   0  0  0  0  0  0  0  0  0  0  0  0
  153.5052  140.3789  161.4197 H   0  0  0  0  0  0  0  0  0  0  0  0
  154.6135  141.6303  160.8477 H   0  0  0  0  0  0  0  0  0  0  0  0
  152.3680  141.8563  162.8558 H   0  0  0  0  0  0  0  0  0  0  0  0
  153.9503  142.6307  162.9238 H   0  0  0  0  0  0  0  0  0  0  0  0
  151.7756  144.0679  162.1427 H   0  0  0  0  0  0  0  0  0  0  0  0
  153.3059  144.2630  161.2899 H   0  0  0  0  0  0  0  0  0  0  0  0
  151.9984  143.6727  159.4377 H   0  0  0  0  0  0  0  0  0  0  0  0
  150.8916  142.6875  160.4036 H   0  0  0  0  0  0  0  0  0  0  0  0
  1  2  1  0  0  0  0
  1 18  1  0  0  0  0
  1 19  1  0  0  0  0
  1 20  1  0  0  0  0
  2  3  1  0  0  0  0
  2  9  1  0  0  0  0
  2 21  1  0  0  0  0
  3  4  1  0  0  0  0
  3 22  1  0  0  0  0
  3 23  1  0  0  0  0
  4  8  1  0  0  0  0
  4  5  1  0  0  0  0
  5  6  2  0  0  0  0
  5 24  1  0  0  0  0
  6  7  1  0  0  0  0
  6 25  1  0  0  0  0
  7  8  2  0  0  0  0
  7 26  1  0  0  0  0
  9 10  1  0  0  0  0
  9 27  1  0  0  0  0
 10 11  1  0  0  0  0
 10 28  1  0  0  0  0
 10 29  1  0  0  0  0
 11 12  2  0  0  0  0
 11 13  1  0  0  0  0
 13 17  1  0  0  0  0
 13 14  1  0  0  0  0
 14 15  1  0  0  0  0
 14 30  1  0  0  0  0
 14 31  1  0  0  0  0
 15 16  1  0  0  0  0
 15 32  1  0  0  0  0
 15 33  1  0  0  0  0
 16 17  1  0  0  0  0
 16 34  1  0  0  0  0
 16 35  1  0  0  0  0
 17 36  1  0  0  0  0
 17 37  1  0  0  0  0
M  END
> <s_m_source_file>
AV-unprocessed.smi

> <i_m_source_file_index>
3155

> <i_lp_mmshare_version>
43012

> <i_f3d_flags>
0

> <s_epik_input>
bjFbY0hdW2NIXVtjSF1uMVtDSDJdW0NAQEhdKFtDSDNdKVtOSF1bQ0gyXUMoPU8pTjJbQ0gyXVtDSDJdW0NIMl1bQ0gyXTI=

> <s_epik_cmdline>
J2VwaWtfcHl0aG9uJywgJy1waCcsICc3LjAnLCAnLXRuJywgJzgnLCAnLW1hJywgJzIwMCcsICctbWV0YWxfYmluZGluZycsICctaW1hZScsICc8aW5maWxlLm1hZT4nLCAnLW9tYWUnLCAnPG91dGZpbGUubWFlPic=

> <r_lp_tautomer_probability>
1

> <r_epik_Ionization_Penalty>
1.00455

> <r_epik_Ionization_Penalty_Charging>
0

> <r_epik_Ionization_Penalty_Neutral>
1.00455

> <r_epik_State_Penalty>
1.05336

> <r_epik_Charging_Adjusted_Penalty>
1.05336

> <i_epik_Tot_Q>
0

> <i_epik_Tot_abs_Q>
0

> <r_epik_Metal_State_Penalty>
1.05331

> <b_epik_Metal_Only>
0

> <s_lp_Force_Field>
OPLS_2005

> <r_lp_Energy>
30.8586

> <b_lp_Chiralities_Consistent>
1

> <s_lp_Variant>
AV-unprocessed.smi:3155-3

> <Gold.Version>
5.8.1

> <Gold.Id.Protein>
6NUR|6NUR_protein|mol2

> <Gold.PLP.Fitness>
45.6707

> <Gold.PLP.PLP>
-40.1699

> <Gold.PLP.part.hbond>
-1.0000

> <Gold.PLP.part.metal>
0.0000

> <Gold.PLP.part.buried>
-1.6249

> <Gold.PLP.part.nonpolar>
-37.8651

> <Gold.PLP.part.repulsive>
0.7621

> <Gold.PLP.ligand.clash>
0.0000

> <Gold.PLP.ligand.torsion>
0.2619

> <Gold.PLP.Chemscore.Hbond>
1.0000

> <Gold.PLP.Chemscore.CHOScore>
0.9830

> <Gold.PLP.Chemscore.Metal>
0.0000

> <Gold.Chemscore.Hbonds>
donor molecule, donor type, donor heavy atom, donor atom, acceptor molecule, acceptor atom, score
      P1  H  7997  8009       L1    12  0.88
      L1  C     5    24       P1  7957  1.00

> <Gold.PLP.Chemscore.Internal.Correction>
0.0756

> <Gold.Rescore>
     Score         DG    S(hbond)    S(metal)    S(lipo)     H(rot)  DE(clash)    DE(int)     intcor
     14.32     -14.79       0.92        0.00      91.94       1.77       0.17       0.30       ----

> <Gold.Chemscore.Fitness>
14.3223

> <Gold.Chemscore.DG>
-14.7932

> <Gold.Chemscore.ZeroCoef>
-5.4800

> <Gold.Chemscore.Hbond>
0.9238

> <Gold.Chemscore.Metal>
0.0000

> <Gold.Chemscore.Lipo>
91.9394

> <Gold.Chemscore.Internal_Hbond>
0.0000

> <Gold.Chemscore.DEClash>
0.1667

> <Gold.Chemscore.DEInternal>
0.3043

> <Gold.Chemscore.Rot>
1.7693

> <Gold.Chemscore.Internal.Correction>
   9.000000E+99

> <Gold.Chemscore.Hbonds>
donor molecule, donor type, donor heavy atom, donor atom, acceptor molecule, acceptor atom, score
      P1  H  7997  8009       L1    12  0.75

> <Gold.Chemscore.Hbond.Weighted>
-3.0856

> <Gold.Chemscore.Metal.Weighted>
-0.0000

> <Gold.Chemscore.Lipo.Weighted>
-10.7569

> <Gold.Chemscore.Internal_Hbond.Weighted>
0.0000

> <Gold.Chemscore.DEClash.Weighted>
0.1667

> <Gold.Chemscore.DEInternal.Weighted>
0.3043

> <Gold.Chemscore.Rot.Weighted>
4.5294

> <Gold.Chemscore.Internal.Correction.Weighted>
   9.000000E+99

> <Gold.Protein.RotatedTorsions>
[ 6907 6896 6895 6894 ] final   98.85 input  -60.11 | X-H torsion
[ 7974 7965 7964 7962 ] final -144.79 input  175.53 | X-H torsion
[ 8008 7997 7996 7995 ] final  148.68 input   59.86 | X-H torsion
[ 10167 10162 10161 10158 ] final    5.55 input  -65.29 | X-H torsion
[ 10718 10713 10712 10709 ] final  110.34 input   66.30 | X-H torsion
[ 10763 10752 10751 10750 ] final -137.04 input  -60.55 | X-H torsion
[ 11005 11000 10999 10996 ] final   83.36 input  -57.11 | X-H torsion

> <Gold.Protein.ActiveResidues>
 VAL166  LYS551  ARG553  GLY616  TRP617  ASP618  TYR619  PRO620  LYS621  CYS622 
 ASP623  PHE694  ASN695  SER759  ASP760  ASP761  ALA762  ILE779  LEU786  VAL792 
 PHE793  MET794  SER795  GLU796  ALA797  LYS798  CYS799  TRP800  GLU811  SER814 

> <Gold.Protein.RotatedAtoms>
  152.5402  134.0517  159.8112 H   0  0  0  0  0  0  0  0  0  0  0  0  # atno 6907 bound_to 6896
  151.0658  133.5499  159.2638 H   0  0  0  0  0  0  0  0  0  0  0  0  # atno 6908 bound_to 6896
  151.2380  135.0587  159.9068 H   0  0  0  0  0  0  0  0  0  0  0  0  # atno 6909 bound_to 6896
  144.8273  140.5666  143.5539 H   0  0  0  0  0  0  0  0  0  0  0  0  # atno 7974 bound_to 7965
  156.2782  140.2122  156.5737 H   0  0  0  0  0  0  0  0  0  0  0  0  # atno 8008 bound_to 7997
  154.7115  140.0511  157.0577 H   0  0  0  0  0  0  0  0  0  0  0  0  # atno 8009 bound_to 7997
  155.0600  140.3165  155.4667 H   0  0  0  0  0  0  0  0  0  0  0  0  # atno 8010 bound_to 7997
  140.6476  143.7624  150.7523 H   0  0  0  0  0  0  0  0  0  0  0  0  # atno 10167 bound_to 10162
  157.6499  131.0931  150.6587 H   0  0  0  0  0  0  0  0  0  0  0  0  # atno 10718 bound_to 10713
  154.8671  135.3654  154.5159 H   0  0  0  0  0  0  0  0  0  0  0  0  # atno 10763 bound_to 10752
  153.5791  135.7019  153.5476 H   0  0  0  0  0  0  0  0  0  0  0  0  # atno 10764 bound_to 10752
  153.3473  135.4081  155.1581 H   0  0  0  0  0  0  0  0  0  0  0  0  # atno 10765 bound_to 10752
  139.9034  134.8139  156.2298 H   0  0  0  0  0  0  0  0  0  0  0  0  # atno 11005 bound_to 11000
  145.4973  139.1485  143.3677 LP  0  0  0  0  0  0  0  0  0  0  0  0  # atno 17320 bound_to 7965
  146.2577  140.5112  142.8866 LP  0  0  0  0  0  0  0  0  0  0  0  0  # atno 17321 bound_to 7965
  140.1269  143.4561  152.2279 LP  0  0  0  0  0  0  0  0  0  0  0  0  # atno 17342 bound_to 10162
  139.5688  144.7450  151.3949 LP  0  0  0  0  0  0  0  0  0  0  0  0  # atno 17343 bound_to 10162
  156.6900  130.4592  149.5603 LP  0  0  0  0  0  0  0  0  0  0  0  0  # atno 17370 bound_to 10713
  156.1869  130.6535  151.1016 LP  0  0  0  0  0  0  0  0  0  0  0  0  # atno 17371 bound_to 10713
  141.0352  133.6967  156.1501 LP  0  0  0  0  0  0  0  0  0  0  0  0  # atno 17394 bound_to 11000
  140.7037  134.4536  157.5585 LP  0  0  0  0  0  0  0  0  0  0  0  0  # atno 17395 bound_to 11000

$$$$
