AV-unprocessed.smi:1815|AV-procd|sdf|7358|dock1
  -GOLD-   22720 9 13D 1   1.00000     0.00000
 Structure written by MMmdl.
 38 39  0  0  0  0  0  0  0  0  2 V2000
  152.6321  144.7122  158.1836 C   0  0  0  0  0  0  0  0  0  0  0  0
  152.2771  143.5103  159.0649 C   0  0  1  0  0  0  0  0  0  0  0  0
  151.3649  142.5047  158.3380 C   0  0  0  0  0  0  0  0  0  0  0  0
  151.0898  141.3271  159.1531 N   0  0  0  0  0  0  0  0  0  0  0  0
  150.2145  140.3947  158.4443 C   0  0  0  0  0  0  0  0  0  0  0  0
  150.9330  139.4132  157.5048 C   0  0  0  0  0  0  0  0  0  0  0  0
  149.9785  138.8005  156.5912 N   0  0  0  0  0  0  0  0  0  0  0  0
  149.8115  139.1405  155.3062 C   0  0  0  0  0  0  0  0  0  0  0  0
  150.5000  140.0379  154.8145 O   0  0  0  0  0  0  0  0  0  0  0  0
  148.8577  138.4213  154.6715 N   0  5  0  0  0  0  0  0  0  0  0  0
  147.9685  139.0374  153.8756 C   0  0  0  0  0  0  0  0  0  0  0  0
  147.0762  138.3750  153.1307 N   0  0  0  0  0  0  0  0  0  0  0  0
  146.2442  139.2117  152.3849 C   0  0  0  0  0  0  0  0  0  0  0  0
  146.5029  140.5433  152.5732 C   0  0  0  0  0  0  0  0  0  0  0  0
  147.8068  140.7874  153.7001 S   0  0  0  0  0  0  0  0  0  0  0  0
  152.3583  140.7184  159.5465 C   0  0  0  0  0  0  0  0  0  0  0  0
  153.2780  141.7196  160.2721 C   0  0  1  0  0  0  0  0  0  0  0  0
  154.6444  141.1133  160.6092 C   0  0  0  0  0  0  0  0  0  0  0  0
  153.4865  142.8553  159.4369 O   0  0  0  0  0  0  0  0  0  0  0  0
  151.7357  145.2518  157.8775 H   0  0  0  0  0  0  0  0  0  0  0  0
  153.1594  144.3986  157.2821 H   0  0  0  0  0  0  0  0  0  0  0  0
  153.2746  145.4113  158.7192 H   0  0  0  0  0  0  0  0  0  0  0  0
  151.7781  143.8712  159.9660 H   0  0  0  0  0  0  0  0  0  0  0  0
  150.4275  142.9950  158.0730 H   0  0  0  0  0  0  0  0  0  0  0  0
  151.8333  142.2019  157.3999 H   0  0  0  0  0  0  0  0  0  0  0  0
  149.6667  139.8031  159.1794 H   0  0  0  0  0  0  0  0  0  0  0  0
  149.4596  140.9504  157.8855 H   0  0  0  0  0  0  0  0  0  0  0  0
  151.6968  139.9206  156.9152 H   0  0  0  0  0  0  0  0  0  0  0  0
  151.4311  138.6366  158.0874 H   0  0  0  0  0  0  0  0  0  0  0  0
  149.3986  138.0606  156.9585 H   0  0  0  0  0  0  0  0  0  0  0  0
  145.4931  138.7727  151.7453 H   0  0  0  0  0  0  0  0  0  0  0  0
  146.0093  141.3904  152.1219 H   0  0  0  0  0  0  0  0  0  0  0  0
  152.1807  139.8697  160.2059 H   0  0  0  0  0  0  0  0  0  0  0  0
  152.8684  140.3283  158.6643 H   0  0  0  0  0  0  0  0  0  0  0  0
  152.8017  142.0461  161.1982 H   0  0  0  0  0  0  0  0  0  0  0  0
  154.5387  140.2449  161.2597 H   0  0  0  0  0  0  0  0  0  0  0  0
  155.2762  141.8383  161.1229 H   0  0  0  0  0  0  0  0  0  0  0  0
  155.1683  140.7952  159.7076 H   0  0  0  0  0  0  0  0  0  0  0  0
  1  2  1  0  0  0  0
  1 20  1  0  0  0  0
  1 21  1  0  0  0  0
  1 22  1  0  0  0  0
  2 19  1  0  0  0  0
  2  3  1  0  0  0  0
  2 23  1  0  0  0  0
  3  4  1  0  0  0  0
  3 24  1  0  0  0  0
  3 25  1  0  0  0  0
  4  5  1  0  0  0  0
  4 16  1  0  0  0  0
  5  6  1  0  0  0  0
  5 26  1  0  0  0  0
  5 27  1  0  0  0  0
  6  7  1  0  0  0  0
  6 28  1  0  0  0  0
  6 29  1  0  0  0  0
  7  8  1  0  0  0  0
  7 30  1  0  0  0  0
  8  9  2  0  0  0  0
  8 10  1  0  0  0  0
 10 11  1  0  0  0  0
 11 15  1  0  0  0  0
 11 12  2  0  0  0  0
 12 13  1  0  0  0  0
 13 14  2  0  0  0  0
 13 31  1  0  0  0  0
 14 15  1  0  0  0  0
 14 32  1  0  0  0  0
 16 17  1  0  0  0  0
 16 33  1  0  0  0  0
 16 34  1  0  0  0  0
 17 18  1  0  0  0  0
 17 19  1  0  0  0  0
 17 35  1  0  0  0  0
 18 36  1  0  0  0  0
 18 37  1  0  0  0  0
 18 38  1  0  0  0  0
M  CHG  1  10  -1
M  END
> <s_m_source_file>
AV-unprocessed.smi

> <i_m_source_file_index>
1815

> <i_lp_mmshare_version>
43012

> <i_f3d_flags>
0

> <s_epik_input>
W0NIM11bQ0BASF0xW0NIMl1OKFtDSDJdW0NASF0oTzEpW0NIM10pW0NIMl1bQ0gyXVtOSF1DKD1PKVtOSF1jMm5bY0hdW2NIXXMy

> <s_epik_cmdline>
J2VwaWtfcHl0aG9uJywgJy1waCcsICc3LjAnLCAnLXRuJywgJzgnLCAnLW1hJywgJzIwMCcsICctbWV0YWxfYmluZGluZycsICctaW1hZScsICc8aW5maWxlLm1hZT4nLCAnLW9tYWUnLCAnPG91dGZpbGUubWFlPic=

> <r_lp_tautomer_probability>
0.999

> <r_epik_Ionization_Penalty>
7.22374

> <r_epik_Ionization_Penalty_Charging>
5.82415

> <r_epik_Ionization_Penalty_Neutral>
1.39959

> <r_epik_State_Penalty>
6.03347

> <r_epik_Charging_Adjusted_Penalty>
11.8576

> <i_epik_Tot_Q>
-1

> <i_epik_Tot_abs_Q>
1

> <r_epik_Metal_State_Penalty>
2.01024

> <b_epik_Metal_Only>
1

> <s_lp_Force_Field>
OPLS_2005

> <r_lp_Energy>
15.5459

> <b_lp_Chiralities_Consistent>
1

> <s_lp_Variant>
AV-unprocessed.smi:1815-9

> <Gold.Version>
5.8.1

> <Gold.Id.Protein>
6NUR|6NUR_protein|mol2

> <Gold.PLP.Fitness>
35.8937

> <Gold.PLP.PLP>
-31.2099

> <Gold.PLP.part.hbond>
-1.1644

> <Gold.PLP.part.metal>
0.0000

> <Gold.PLP.part.buried>
1.3086

> <Gold.PLP.part.nonpolar>
-32.7315

> <Gold.PLP.part.repulsive>
1.7017

> <Gold.PLP.ligand.clash>
0.0000

> <Gold.PLP.ligand.torsion>
0.8210

> <Gold.PLP.Chemscore.Hbond>
1.0000

> <Gold.PLP.Chemscore.CHOScore>
1.0950

> <Gold.PLP.Chemscore.Metal>
0.0000

> <Gold.Chemscore.Hbonds>
donor molecule, donor type, donor heavy atom, donor atom, acceptor molecule, acceptor atom, score
      P1  H  7989  7998       L1     9  1.00
      L1  C    13    31       P1 10171  1.00
      L1  C    13    31       P1 10175  0.25
      L1  C    14    32       P1 10175  0.05

> <Gold.PLP.Chemscore.Internal.Correction>
0.0410

> <Gold.Rescore>
     Score         DG    S(hbond)    S(metal)    S(lipo)     H(rot)  DE(clash)    DE(int)     intcor
     12.67     -16.24       0.99        0.00      97.93       1.57       1.64       1.93       ----

> <Gold.Chemscore.Fitness>
12.6709

> <Gold.Chemscore.DG>
-16.2433

> <Gold.Chemscore.ZeroCoef>
-5.4800

> <Gold.Chemscore.Hbond>
0.9937

> <Gold.Chemscore.Metal>
0.0000

> <Gold.Chemscore.Lipo>
97.9255

> <Gold.Chemscore.Internal_Hbond>
0.0000

> <Gold.Chemscore.DEClash>
1.6435

> <Gold.Chemscore.DEInternal>
1.9289

> <Gold.Chemscore.Rot>
1.5676

> <Gold.Chemscore.Internal.Correction>
   9.000000E+99

> <Gold.Chemscore.Hbonds>
donor molecule, donor type, donor heavy atom, donor atom, acceptor molecule, acceptor atom, score
      P1  H  7989  7998       L1     9  0.99

> <Gold.Chemscore.Hbond.Weighted>
-3.3190

> <Gold.Chemscore.Metal.Weighted>
-0.0000

> <Gold.Chemscore.Lipo.Weighted>
-11.4573

> <Gold.Chemscore.Internal_Hbond.Weighted>
0.0000

> <Gold.Chemscore.DEClash.Weighted>
1.6435

> <Gold.Chemscore.DEInternal.Weighted>
1.9289

> <Gold.Chemscore.Rot.Weighted>
4.0130

> <Gold.Chemscore.Internal.Correction.Weighted>
   9.000000E+99

> <Gold.Protein.RotatedTorsions>
[ 6907 6896 6895 6894 ] final   77.14 input  -60.11 | X-H torsion
[ 7974 7965 7964 7962 ] final   83.67 input  175.53 | X-H torsion
[ 8008 7997 7996 7995 ] final  -56.16 input   59.86 | X-H torsion
[ 10167 10162 10161 10158 ] final  -47.99 input  -65.29 | X-H torsion
[ 10718 10713 10712 10709 ] final -120.38 input   66.30 | X-H torsion
[ 10763 10752 10751 10750 ] final   97.90 input  -60.55 | X-H torsion
[ 11005 11000 10999 10996 ] final   92.37 input  -57.11 | X-H torsion

> <Gold.Protein.ActiveResidues>
 VAL166  LYS551  ARG553  GLY616  TRP617  ASP618  TYR619  PRO620  LYS621  CYS622 
 ASP623  PHE694  ASN695  SER759  ASP760  ASP761  ALA762  ILE779  LEU786  VAL792 
 PHE793  MET794  SER795  GLU796  ALA797  LYS798  CYS799  TRP800  GLU811  SER814 

> <Gold.Protein.RotatedAtoms>
  152.5104  134.3863  159.9368 H   0  0  0  0  0  0  0  0  0  0  0  0  # atno 6907 bound_to 6896
  151.3821  133.3811  159.2719 H   0  0  0  0  0  0  0  0  0  0  0  0  # atno 6908 bound_to 6896
  150.9496  134.8918  159.7722 H   0  0  0  0  0  0  0  0  0  0  0  0  # atno 6909 bound_to 6896
  145.6088  139.2365  143.2204 H   0  0  0  0  0  0  0  0  0  0  0  0  # atno 7974 bound_to 7965
  154.4220  140.1136  156.5593 H   0  0  0  0  0  0  0  0  0  0  0  0  # atno 8008 bound_to 7997
  155.6328  140.3496  155.4669 H   0  0  0  0  0  0  0  0  0  0  0  0  # atno 8009 bound_to 7997
  155.9934  140.1184  157.0606 H   0  0  0  0  0  0  0  0  0  0  0  0  # atno 8010 bound_to 7997
  140.6751  143.2760  151.4006 H   0  0  0  0  0  0  0  0  0  0  0  0  # atno 10167 bound_to 10162
  156.1253  130.6354  150.9533 H   0  0  0  0  0  0  0  0  0  0  0  0  # atno 10718 bound_to 10713
  153.2825  135.4167  155.1092 H   0  0  0  0  0  0  0  0  0  0  0  0  # atno 10763 bound_to 10752
  154.8494  135.3498  154.6092 H   0  0  0  0  0  0  0  0  0  0  0  0  # atno 10764 bound_to 10752
  153.6513  135.7052  153.5265 H   0  0  0  0  0  0  0  0  0  0  0  0  # atno 10765 bound_to 10752
  139.8824  134.8729  156.3563 H   0  0  0  0  0  0  0  0  0  0  0  0  # atno 11005 bound_to 11000
  146.1520  140.6912  142.9317 LP  0  0  0  0  0  0  0  0  0  0  0  0  # atno 17320 bound_to 7965
  144.7278  140.4580  143.6960 LP  0  0  0  0  0  0  0  0  0  0  0  0  # atno 17321 bound_to 7965
  139.6039  144.1238  152.2228 LP  0  0  0  0  0  0  0  0  0  0  0  0  # atno 17342 bound_to 10162
  140.0631  144.5841  150.7248 LP  0  0  0  0  0  0  0  0  0  0  0  0  # atno 17343 bound_to 10162
  157.6435  131.0907  150.8202 LP  0  0  0  0  0  0  0  0  0  0  0  0  # atno 17370 bound_to 10713
  156.8293  130.5010  149.5333 LP  0  0  0  0  0  0  0  0  0  0  0  0  # atno 17371 bound_to 10713
  140.9559  133.7420  156.0335 LP  0  0  0  0  0  0  0  0  0  0  0  0  # atno 17394 bound_to 11000
  140.8048  134.3467  157.5429 LP  0  0  0  0  0  0  0  0  0  0  0  0  # atno 17395 bound_to 11000

$$$$
