AV-unprocessed.smi:1308|AV-procd|sdf|5443|dock9
  -GOLD-   22720 5 13D 1   1.00000     0.00000
 Structure written by MMmdl.
 44 44  0  0  0  0  0  0  0  0  2 V2000
  146.3755  137.0047  162.2306 C   0  0  0  0  0  0  0  0  0  0  0  0
  146.9634  137.0822  160.8380 C   0  0  0  0  0  0  0  0  0  0  0  0
  146.2025  137.3735  159.8533 N   0  0  0  0  0  0  0  0  0  0  0  0
  146.7452  137.4533  158.5600 C   0  0  0  0  0  0  0  0  0  0  0  0
  145.7725  137.8366  157.4583 C   0  0  0  0  0  0  0  0  0  0  0  0
  148.0702  137.2191  158.3343 C   0  0  0  0  0  0  0  0  0  0  0  0
  148.7155  137.3280  156.9514 C   0  0  0  0  0  0  0  0  0  0  0  0
  149.8391  138.3597  156.8508 C   0  0  0  0  0  0  0  0  0  0  0  0
  150.9658  138.0087  156.5019 O   0  0  0  0  0  0  0  0  0  0  0  0
  149.4972  139.6322  157.1173 N   0  0  0  0  0  0  0  0  0  0  0  0
  150.2862  140.8374  156.8571 C   0  0  1  0  0  0  0  0  0  0  0  0
  149.6705  141.7015  155.7424 C   0  0  0  0  0  0  0  0  0  0  0  0
  150.5603  141.6391  158.1503 C   0  0  0  0  0  0  0  0  0  0  0  0
  151.2297  143.0084  157.9046 C   0  0  0  0  0  0  0  0  0  0  0  0
  151.6945  143.7216  159.1895 C   0  0  0  0  0  0  0  0  0  0  0  0
  152.2137  145.1432  158.9172 C   0  0  0  0  0  0  0  0  0  0  0  0
  152.7602  142.8876  159.9172 C   0  0  0  0  0  0  0  0  0  0  0  0
  148.9125  136.8844  159.4968 C   0  0  0  0  0  0  0  0  0  0  0  0
  150.1169  136.6787  159.3524 O   0  0  0  0  0  0  0  0  0  0  0  0
  148.3111  136.8273  160.7187 N   0  5  0  0  0  0  0  0  0  0  0  0
  145.3348  137.3316  162.2373 H   0  0  0  0  0  0  0  0  0  0  0  0
  146.9367  137.6417  162.9152 H   0  0  0  0  0  0  0  0  0  0  0  0
  146.4159  135.9795  162.5995 H   0  0  0  0  0  0  0  0  0  0  0  0
  145.7540  137.0763  156.6775 H   0  0  0  0  0  0  0  0  0  0  0  0
  146.0575  138.7895  157.0120 H   0  0  0  0  0  0  0  0  0  0  0  0
  144.7587  137.9420  157.8462 H   0  0  0  0  0  0  0  0  0  0  0  0
  149.0969  136.3641  156.6139 H   0  0  0  0  0  0  0  0  0  0  0  0
  147.9410  137.5867  156.2290 H   0  0  0  0  0  0  0  0  0  0  0  0
  148.5446  139.7893  157.4151 H   0  0  0  0  0  0  0  0  0  0  0  0
  151.2473  140.4786  156.4874 H   0  0  0  0  0  0  0  0  0  0  0  0
  150.3446  142.5115  155.4635 H   0  0  0  0  0  0  0  0  0  0  0  0
  148.7284  142.1545  156.0503 H   0  0  0  0  0  0  0  0  0  0  0  0
  149.4807  141.1099  154.8463 H   0  0  0  0  0  0  0  0  0  0  0  0
  149.6149  141.7894  158.6715 H   0  0  0  0  0  0  0  0  0  0  0  0
  151.1814  141.0481  158.8241 H   0  0  0  0  0  0  0  0  0  0  0  0
  152.1021  142.8696  157.2667 H   0  0  0  0  0  0  0  0  0  0  0  0
  150.5529  143.6542  157.3439 H   0  0  0  0  0  0  0  0  0  0  0  0
  150.8376  143.7996  159.8601 H   0  0  0  0  0  0  0  0  0  0  0  0
  153.0501  145.1323  158.2176 H   0  0  0  0  0  0  0  0  0  0  0  0
  152.5573  145.6170  159.8371 H   0  0  0  0  0  0  0  0  0  0  0  0
  151.4363  145.7821  158.4991 H   0  0  0  0  0  0  0  0  0  0  0  0
  153.6521  142.7600  159.3033 H   0  0  0  0  0  0  0  0  0  0  0  0
  152.3827  141.8947  160.1649 H   0  0  0  0  0  0  0  0  0  0  0  0
  153.0625  143.3631  160.8506 H   0  0  0  0  0  0  0  0  0  0  0  0
  1  2  1  0  0  0  0
  1 21  1  0  0  0  0
  1 22  1  0  0  0  0
  1 23  1  0  0  0  0
  2 20  1  0  0  0  0
  2  3  2  0  0  0  0
  3  4  1  0  0  0  0
  4  5  1  0  0  0  0
  4  6  2  0  0  0  0
  5 24  1  0  0  0  0
  5 25  1  0  0  0  0
  5 26  1  0  0  0  0
  6  7  1  0  0  0  0
  6 18  1  0  0  0  0
  7  8  1  0  0  0  0
  7 27  1  0  0  0  0
  7 28  1  0  0  0  0
  8  9  2  0  0  0  0
  8 10  1  0  0  0  0
 10 11  1  0  0  0  0
 10 29  1  0  0  0  0
 11 12  1  0  0  0  0
 11 13  1  0  0  0  0
 11 30  1  0  0  0  0
 12 31  1  0  0  0  0
 12 32  1  0  0  0  0
 12 33  1  0  0  0  0
 13 14  1  0  0  0  0
 13 34  1  0  0  0  0
 13 35  1  0  0  0  0
 14 15  1  0  0  0  0
 14 36  1  0  0  0  0
 14 37  1  0  0  0  0
 15 16  1  0  0  0  0
 15 17  1  0  0  0  0
 15 38  1  0  0  0  0
 16 39  1  0  0  0  0
 16 40  1  0  0  0  0
 16 41  1  0  0  0  0
 17 42  1  0  0  0  0
 17 43  1  0  0  0  0
 17 44  1  0  0  0  0
 18 19  2  0  0  0  0
 18 20  1  0  0  0  0
M  CHG  1  20  -1
M  END
> <s_m_source_file>
AV-unprocessed.smi

> <i_m_source_file_index>
1308

> <i_lp_mmshare_version>
43012

> <i_f3d_flags>
0

> <s_epik_input>
W0NIM11jMW5jKFtDSDNdKWMoYyg9TylbbkhdMSlbQ0gyXUMoPU8pW05IXVtDQEhdKFtDSDNdKVtDSDJdW0NIMl1bQ0hdKFtDSDNdKVtDSDNd

> <s_epik_cmdline>
J2VwaWtfcHl0aG9uJywgJy1waCcsICc3LjAnLCAnLXRuJywgJzgnLCAnLW1hJywgJzIwMCcsICctbWV0YWxfYmluZGluZycsICctaW1hZScsICc8aW5maWxlLm1hZT4nLCAnLW9tYWUnLCAnPG91dGZpbGUubWFlPic=

> <r_lp_tautomer_probability>
0.839158

> <r_epik_Ionization_Penalty>
6.61719

> <r_epik_Ionization_Penalty_Charging>
7.20681e-08

> <r_epik_Ionization_Penalty_Neutral>
6.61719

> <r_epik_State_Penalty>
4.43758

> <r_epik_Charging_Adjusted_Penalty>
4.43758

> <i_epik_Tot_Q>
-1

> <i_epik_Tot_abs_Q>
1

> <r_epik_Metal_State_Penalty>
0.801586

> <b_epik_Metal_Only>
1

> <s_lp_Force_Field>
OPLS_2005

> <r_lp_Energy>
8.11692

> <b_lp_Chiralities_Consistent>
1

> <s_lp_Variant>
AV-unprocessed.smi:1308-6

> <Gold.Version>
5.8.1

> <Gold.Id.Protein>
6NUR|6NUR_protein|mol2

> <Gold.PLP.Fitness>
38.7553

> <Gold.PLP.PLP>
-29.9645

> <Gold.PLP.part.hbond>
-2.5842

> <Gold.PLP.part.metal>
0.0000

> <Gold.PLP.part.buried>
-3.1498

> <Gold.PLP.part.nonpolar>
-25.0201

> <Gold.PLP.part.repulsive>
0.0336

> <Gold.PLP.ligand.clash>
0.0000

> <Gold.PLP.ligand.torsion>
0.1421

> <Gold.PLP.Chemscore.Hbond>
3.0000

> <Gold.PLP.Chemscore.CHOScore>
0.0000

> <Gold.PLP.Chemscore.Metal>
0.0000

> <Gold.Chemscore.Hbonds>
donor molecule, donor type, donor heavy atom, donor atom, acceptor molecule, acceptor atom, score
      P1  H  6896  6909       L1    19  1.00
      P1  H  6931  6943       L1    20  1.95

> <Gold.PLP.Chemscore.Internal.Correction>
0.0749

> <Gold.Rescore>
     Score         DG    S(hbond)    S(metal)    S(lipo)     H(rot)  DE(clash)    DE(int)     intcor
     12.98     -13.12       1.03        0.00      77.63       1.91       0.01       0.13       ----

> <Gold.Chemscore.Fitness>
12.9810

> <Gold.Chemscore.DG>
-13.1199

> <Gold.Chemscore.ZeroCoef>
-5.4800

> <Gold.Chemscore.Hbond>
1.0335

> <Gold.Chemscore.Metal>
0.0000

> <Gold.Chemscore.Lipo>
77.6282

> <Gold.Chemscore.Internal_Hbond>
0.0000

> <Gold.Chemscore.DEClash>
0.0073

> <Gold.Chemscore.DEInternal>
0.1316

> <Gold.Chemscore.Rot>
1.9118

> <Gold.Chemscore.Internal.Correction>
   9.000000E+99

> <Gold.Chemscore.Hbonds>
donor molecule, donor type, donor heavy atom, donor atom, acceptor molecule, acceptor atom, score
      P1  H  6896  6909       L1    19  0.98
      P1  H  6931  6943       L1    20  0.17

> <Gold.Chemscore.Hbond.Weighted>
-3.4517

> <Gold.Chemscore.Metal.Weighted>
-0.0000

> <Gold.Chemscore.Lipo.Weighted>
-9.0825

> <Gold.Chemscore.Internal_Hbond.Weighted>
0.0000

> <Gold.Chemscore.DEClash.Weighted>
0.0073

> <Gold.Chemscore.DEInternal.Weighted>
0.1316

> <Gold.Chemscore.Rot.Weighted>
4.8943

> <Gold.Chemscore.Internal.Correction.Weighted>
   9.000000E+99

> <Gold.Protein.RotatedTorsions>
[ 6907 6896 6895 6894 ] final   97.18 input  -60.11 | X-H torsion
[ 7974 7965 7964 7962 ] final -177.05 input  175.53 | X-H torsion
[ 8008 7997 7996 7995 ] final -115.65 input   59.86 | X-H torsion
[ 10167 10162 10161 10158 ] final  150.41 input  -65.29 | X-H torsion
[ 10718 10713 10712 10709 ] final   42.03 input   66.30 | X-H torsion
[ 10763 10752 10751 10750 ] final   94.50 input  -60.55 | X-H torsion
[ 11005 11000 10999 10996 ] final  158.05 input  -57.11 | X-H torsion

> <Gold.Protein.ActiveResidues>
 VAL166  LYS551  ARG553  GLY616  TRP617  ASP618  TYR619  PRO620  LYS621  CYS622 
 ASP623  PHE694  ASN695  SER759  ASP760  ASP761  ALA762  ILE779  LEU786  VAL792 
 PHE793  MET794  SER795  GLU796  ALA797  LYS798  CYS799  TRP800  GLU811  SER814 

> <Gold.Protein.RotatedAtoms>
  152.5426  134.0773  159.8219 H   0  0  0  0  0  0  0  0  0  0  0  0  # atno 6907 bound_to 6896
  151.0880  133.5331  159.2624 H   0  0  0  0  0  0  0  0  0  0  0  0  # atno 6908 bound_to 6896
  151.2133  135.0498  159.8974 H   0  0  0  0  0  0  0  0  0  0  0  0  # atno 6909 bound_to 6896
  144.7127  140.1077  143.6413 H   0  0  0  0  0  0  0  0  0  0  0  0  # atno 7974 bound_to 7965
  155.0554  140.0393  157.2558 H   0  0  0  0  0  0  0  0  0  0  0  0  # atno 8008 bound_to 7997
  154.7103  140.2691  155.6611 H   0  0  0  0  0  0  0  0  0  0  0  0  # atno 8009 bound_to 7997
  156.2787  140.2723  156.1742 H   0  0  0  0  0  0  0  0  0  0  0  0  # atno 8010 bound_to 7997
  139.4850  144.5524  151.7377 H   0  0  0  0  0  0  0  0  0  0  0  0  # atno 10167 bound_to 10162
  157.4002  130.7856  149.7342 H   0  0  0  0  0  0  0  0  0  0  0  0  # atno 10718 bound_to 10713
  153.2424  135.4287  155.0711 H   0  0  0  0  0  0  0  0  0  0  0  0  # atno 10763 bound_to 10752
  154.8346  135.3406  154.6631 H   0  0  0  0  0  0  0  0  0  0  0  0  # atno 10764 bound_to 10752
  153.7054  135.7026  153.5108 H   0  0  0  0  0  0  0  0  0  0  0  0  # atno 10765 bound_to 10752
  140.1828  134.8463  157.2823 H   0  0  0  0  0  0  0  0  0  0  0  0  # atno 11005 bound_to 11000
  145.9482  139.2715  143.1228 LP  0  0  0  0  0  0  0  0  0  0  0  0  # atno 17320 bound_to 7965
  145.9351  140.9020  143.0336 LP  0  0  0  0  0  0  0  0  0  0  0  0  # atno 17321 bound_to 7965
  140.5080  144.1068  150.5988 LP  0  0  0  0  0  0  0  0  0  0  0  0  # atno 17342 bound_to 10162
  140.3984  143.2716  151.9977 LP  0  0  0  0  0  0  0  0  0  0  0  0  # atno 17343 bound_to 10162
  155.9821  130.4013  150.3434 LP  0  0  0  0  0  0  0  0  0  0  0  0  # atno 17370 bound_to 10713
  157.1561  131.0333  151.2863 LP  0  0  0  0  0  0  0  0  0  0  0  0  # atno 17371 bound_to 10713
  140.2248  134.3980  155.7549 LP  0  0  0  0  0  0  0  0  0  0  0  0  # atno 17394 bound_to 11000
  141.2223  133.7184  156.8547 LP  0  0  0  0  0  0  0  0  0  0  0  0  # atno 17395 bound_to 11000

$$$$
