AV-unprocessed.smi:1987|AV-procd|sdf|8057|dock2
  -GOLD-   2272010263D 1   1.00000     0.00000
 Structure written by MMmdl.
 37 39  0  0  0  0  0  0  0  0  2 V2000
  149.6148  136.2540  156.4844 O   0  0  0  0  0  0  0  0  0  0  0  0
  149.5178  136.3040  155.2589 C   0  0  0  0  0  0  0  0  0  0  0  0
  149.7585  137.6205  154.5220 C   0  0  0  0  0  0  0  0  0  0  0  0
  151.0881  138.1197  154.8213 N   0  0  0  0  0  0  0  0  0  0  0  0
  151.4982  139.3093  155.2664 C   0  0  0  0  0  0  0  0  0  0  0  0
  152.8077  139.3322  155.4630 N   0  0  0  0  0  0  0  0  0  0  0  0
  153.2038  138.0564  155.0992 N   0  0  0  0  0  0  0  0  0  0  0  0
  152.1880  137.3318  154.7185 N   0  0  0  0  0  0  0  0  0  0  0  0
  149.2563  135.2352  154.4910 N   0  0  0  0  0  0  0  0  0  0  0  0
  149.2111  133.8551  154.9578 C   0  0  0  0  0  0  0  0  0  0  0  0
  148.7367  132.8984  153.8448 C   0  0  1  0  0  0  0  0  0  0  0  0
  147.6934  131.8767  154.2914 C   0  0  0  0  0  0  0  0  0  0  0  0
  146.9907  131.4599  152.9917 C   0  0  0  0  0  0  0  0  0  0  0  0
  147.3047  132.4976  151.9814 N   0  3  1  0  0  0  0  0  0  0  0  0
  146.1401  132.9632  151.1997 C   0  0  0  0  0  0  0  0  0  0  0  0
  145.5215  131.8878  150.3394 C   0  0  0  0  0  0  0  0  0  0  0  0
  146.3780  132.9646  149.7084 C   0  0  0  0  0  0  0  0  0  0  0  0
  148.0367  133.5796  152.6676 C   0  0  0  0  0  0  0  0  0  0  0  0
  149.6539  137.4797  153.4448 H   0  0  0  0  0  0  0  0  0  0  0  0
  149.0230  138.3657  154.8279 H   0  0  0  0  0  0  0  0  0  0  0  0
  150.8416  140.1447  155.4609 H   0  0  0  0  0  0  0  0  0  0  0  0
  149.1748  135.3803  153.4946 H   0  0  0  0  0  0  0  0  0  0  0  0
  150.1906  133.5526  155.3312 H   0  0  0  0  0  0  0  0  0  0  0  0
  148.5279  133.8134  155.8066 H   0  0  0  0  0  0  0  0  0  0  0  0
  149.5962  132.3505  153.4550 H   0  0  0  0  0  0  0  0  0  0  0  0
  148.1327  131.0313  154.8216 H   0  0  0  0  0  0  0  0  0  0  0  0
  146.9708  132.3477  154.9593 H   0  0  0  0  0  0  0  0  0  0  0  0
  147.3705  130.5031  152.6323 H   0  0  0  0  0  0  0  0  0  0  0  0
  145.9166  131.3496  153.1497 H   0  0  0  0  0  0  0  0  0  0  0  0
  145.5204  133.7310  151.6600 H   0  0  0  0  0  0  0  0  0  0  0  0
  145.9360  130.8826  150.3932 H   0  0  0  0  0  0  0  0  0  0  0  0
  144.4487  131.9392  150.1652 H   0  0  0  0  0  0  0  0  0  0  0  0
  145.8693  133.7251  149.1197 H   0  0  0  0  0  0  0  0  0  0  0  0
  147.3618  132.6752  149.3429 H   0  0  0  0  0  0  0  0  0  0  0  0
  147.3320  134.3281  153.0346 H   0  0  0  0  0  0  0  0  0  0  0  0
  148.7344  134.0753  151.9912 H   0  0  0  0  0  0  0  0  0  0  0  0
  147.9562  132.0756  151.3352 H   0  0  0  0  0  0  0  0  0  0  0  0
  1  2  2  0  0  0  0
  2  3  1  0  0  0  0
  2  9  1  0  0  0  0
  3  4  1  0  0  0  0
  3 19  1  0  0  0  0
  3 20  1  0  0  0  0
  4  8  1  0  0  0  0
  4  5  1  0  0  0  0
  5  6  2  0  0  0  0
  5 21  1  0  0  0  0
  6  7  1  0  0  0  0
  7  8  2  0  0  0  0
  9 10  1  0  0  0  0
  9 22  1  0  0  0  0
 10 11  1  0  0  0  0
 10 23  1  0  0  0  0
 10 24  1  0  0  0  0
 11 18  1  0  0  0  0
 11 12  1  0  0  0  0
 11 25  1  0  0  0  0
 12 13  1  0  0  0  0
 12 26  1  0  0  0  0
 12 27  1  0  0  0  0
 13 14  1  0  0  0  0
 13 28  1  0  0  0  0
 13 29  1  0  0  0  0
 14 15  1  0  0  0  0
 14 18  1  0  0  0  0
 14 37  1  0  0  0  0
 15 17  1  0  0  0  0
 15 16  1  0  0  0  0
 15 30  1  0  0  0  0
 16 17  1  0  0  0  0
 16 31  1  0  0  0  0
 16 32  1  0  0  0  0
 17 33  1  0  0  0  0
 17 34  1  0  0  0  0
 18 35  1  0  0  0  0
 18 36  1  0  0  0  0
M  CHG  1  14   1
M  END
> <s_m_source_file>
AV-unprocessed.smi

> <i_m_source_file_index>
1987

> <i_lp_mmshare_version>
43012

> <i_f3d_flags>
0

> <s_epik_input>
bjFubltjSF1uMVtDSDJdQyg9TylbTkhdW0NIMl1bQ0BASF0yW0NIMl1bQ0gyXU4oW0NIMl0yKVtDSF0zW0NIMl1bQ0gyXTM=

> <s_epik_cmdline>
J2VwaWtfcHl0aG9uJywgJy1waCcsICc3LjAnLCAnLXRuJywgJzgnLCAnLW1hJywgJzIwMCcsICctbWV0YWxfYmluZGluZycsICctaW1hZScsICc8aW5maWxlLm1hZT4nLCAnLW9tYWUnLCAnPG91dGZpbGUubWFlPic=

> <r_lp_tautomer_probability>
1

> <r_epik_Ionization_Penalty>
0.000242849

> <r_epik_Ionization_Penalty_Charging>
0.000241326

> <r_epik_Ionization_Penalty_Neutral>
1.52322e-06

> <r_epik_State_Penalty>
-0

> <r_epik_Charging_Adjusted_Penalty>
0.000241326

> <i_epik_Tot_Q>
1

> <i_epik_Tot_abs_Q>
1

> <r_epik_Metal_State_Penalty>
-0

> <b_epik_Metal_Only>
0

> <s_lp_Force_Field>
OPLS_2005

> <r_lp_Energy>
37.5901

> <b_lp_Chiralities_Consistent>
1

> <s_lp_Variant>
AV-unprocessed.smi:1987-4

> <Gold.Version>
5.8.1

> <Gold.Id.Protein>
6NUR|6NUR_protein|mol2

> <Gold.PLP.Fitness>
43.8768

> <Gold.PLP.PLP>
-35.5043

> <Gold.PLP.part.hbond>
-5.2987

> <Gold.PLP.part.metal>
0.0000

> <Gold.PLP.part.buried>
-3.8945

> <Gold.PLP.part.nonpolar>
-26.6778

> <Gold.PLP.part.repulsive>
0.2265

> <Gold.PLP.ligand.clash>
0.0609

> <Gold.PLP.ligand.torsion>
1.4144

> <Gold.PLP.Chemscore.Hbond>
3.3260

> <Gold.PLP.Chemscore.CHOScore>
0.0000

> <Gold.PLP.Chemscore.Metal>
0.0000

> <Gold.Chemscore.Hbonds>
donor molecule, donor type, donor heavy atom, donor atom, acceptor molecule, acceptor atom, score
      L1  H     9    22       P1  7948  1.00
      L1  H    14    37       P1 10747  1.00
      P1  H  7997  8010       L1     6  1.00
      P1  H 10752 10765       L1     8  0.80

> <Gold.PLP.Chemscore.Internal.Correction>
1.2843

> <Gold.Rescore>
     Score         DG    S(hbond)    S(metal)    S(lipo)     H(rot)  DE(clash)    DE(int)     intcor
     12.57     -13.98       2.51        0.00      58.35       2.62       0.00       1.41       ----

> <Gold.Chemscore.Fitness>
12.5702

> <Gold.Chemscore.DG>
-13.9807

> <Gold.Chemscore.ZeroCoef>
-5.4800

> <Gold.Chemscore.Hbond>
2.5125

> <Gold.Chemscore.Metal>
0.0000

> <Gold.Chemscore.Lipo>
58.3544

> <Gold.Chemscore.Internal_Hbond>
0.0000

> <Gold.Chemscore.DEClash>
0.0048

> <Gold.Chemscore.DEInternal>
1.4057

> <Gold.Chemscore.Rot>
2.6244

> <Gold.Chemscore.Internal.Correction>
   9.000000E+99

> <Gold.Chemscore.Hbonds>
donor molecule, donor type, donor heavy atom, donor atom, acceptor molecule, acceptor atom, score
      L1  H     9    22       P1  7948  0.40
      L1  H    14    37       P1 10747  1.00
      P1  H  7997  8010       L1     6  0.50
      P1  H 10752 10765       L1     8  0.32

> <Gold.Chemscore.Hbond.Weighted>
-8.3918

> <Gold.Chemscore.Metal.Weighted>
-0.0000

> <Gold.Chemscore.Lipo.Weighted>
-6.8275

> <Gold.Chemscore.Internal_Hbond.Weighted>
0.0000

> <Gold.Chemscore.DEClash.Weighted>
0.0048

> <Gold.Chemscore.DEInternal.Weighted>
1.4057

> <Gold.Chemscore.Rot.Weighted>
6.7186

> <Gold.Chemscore.Internal.Correction.Weighted>
   9.000000E+99

> <Gold.Protein.RotatedTorsions>
[ 6907 6896 6895 6894 ] final  -38.36 input  -60.11 | X-H torsion
[ 7974 7965 7964 7962 ] final -162.26 input  175.53 | X-H torsion
[ 8008 7997 7996 7995 ] final   86.01 input   59.86 | X-H torsion
[ 10167 10162 10161 10158 ] final -128.54 input  -65.29 | X-H torsion
[ 10718 10713 10712 10709 ] final   70.20 input   66.30 | X-H torsion
[ 10763 10752 10751 10750 ] final  173.15 input  -60.55 | X-H torsion
[ 11005 11000 10999 10996 ] final  -26.87 input  -57.11 | X-H torsion

> <Gold.Protein.ActiveResidues>
 VAL166  LYS551  ARG553  GLY616  TRP617  ASP618  TYR619  PRO620  LYS621  CYS622 
 ASP623  PHE694  ASN695  SER759  ASP760  ASP761  ALA762  ILE779  LEU786  VAL792 
 PHE793  MET794  SER795  GLU796  ALA797  LYS798  CYS799  TRP800  GLU811  SER814 

> <Gold.Protein.RotatedAtoms>
  151.0033  134.9339  159.7966 H   0  0  0  0  0  0  0  0  0  0  0  0  # atno 6907 bound_to 6896
  152.5284  134.3125  159.9128 H   0  0  0  0  0  0  0  0  0  0  0  0  # atno 6908 bound_to 6896
  151.3130  133.4031  159.2682 H   0  0  0  0  0  0  0  0  0  0  0  0  # atno 6909 bound_to 6896
  144.7363  140.3279  143.6158 H   0  0  0  0  0  0  0  0  0  0  0  0  # atno 7974 bound_to 7965
  155.9574  140.3396  155.6460 H   0  0  0  0  0  0  0  0  0  0  0  0  # atno 8008 bound_to 7997
  155.6843  140.0741  157.2491 H   0  0  0  0  0  0  0  0  0  0  0  0  # atno 8009 bound_to 7997
  154.4135  140.1669  156.2004 H   0  0  0  0  0  0  0  0  0  0  0  0  # atno 8010 bound_to 7997
  139.9492  143.6075  152.2480 H   0  0  0  0  0  0  0  0  0  0  0  0  # atno 10167 bound_to 10162
  157.6387  130.9465  150.0618 H   0  0  0  0  0  0  0  0  0  0  0  0  # atno 10718 bound_to 10713
  154.4361  135.2761  155.1879 H   0  0  0  0  0  0  0  0  0  0  0  0  # atno 10763 bound_to 10752
  154.3765  135.6097  153.5771 H   0  0  0  0  0  0  0  0  0  0  0  0  # atno 10764 bound_to 10752
  152.9838  135.5870  154.4680 H   0  0  0  0  0  0  0  0  0  0  0  0  # atno 10765 bound_to 10752
  140.9068  133.7487  156.0617 H   0  0  0  0  0  0  0  0  0  0  0  0  # atno 11005 bound_to 11000
  145.7502  139.1791  143.2326 LP  0  0  0  0  0  0  0  0  0  0  0  0  # atno 17320 bound_to 7965
  146.1067  140.7479  142.9523 LP  0  0  0  0  0  0  0  0  0  0  0  0  # atno 17321 bound_to 7965
  139.6642  144.7662  151.1904 LP  0  0  0  0  0  0  0  0  0  0  0  0  # atno 17342 bound_to 10162
  140.7588  143.5963  150.8745 LP  0  0  0  0  0  0  0  0  0  0  0  0  # atno 17343 bound_to 10162
  156.1648  130.3645  149.9247 LP  0  0  0  0  0  0  0  0  0  0  0  0  # atno 17370 bound_to 10713
  156.7237  130.9016  151.3620 LP  0  0  0  0  0  0  0  0  0  0  0  0  # atno 17371 bound_to 10713
  140.8161  134.3343  157.5396 LP  0  0  0  0  0  0  0  0  0  0  0  0  # atno 17394 bound_to 11000
  139.8751  134.9282  156.3445 LP  0  0  0  0  0  0  0  0  0  0  0  0  # atno 17395 bound_to 11000

$$$$
