AV-unprocessed.smi:2528|AV-procd|sdf|9951|dock1
  -GOLD-   2272013593D 1   1.00000     0.00000
 Structure written by MMmdl.
 44 46  0  0  0  0  0  0  0  0  2 V2000
  152.9695  139.5486  157.1777 O   0  0  0  0  0  0  0  0  0  0  0  0
  151.9032  139.9252  156.6908 C   0  0  0  0  0  0  0  0  0  0  0  0
  151.1877  139.1917  155.8258 N   0  0  0  0  0  0  0  0  0  0  0  0
  151.5469  137.8553  155.3626 C   0  0  0  0  0  0  0  0  0  0  0  0
  150.3102  137.0632  154.9023 C   0  0  1  0  0  0  0  0  0  0  0  0
  150.6156  135.5621  154.7502 C   0  0  0  0  0  0  0  0  0  0  0  0
  149.3912  134.8188  154.3626 N   0  3  1  0  0  0  0  0  0  0  0  0
  149.6160  133.3682  154.1296 C   0  0  0  0  0  0  0  0  0  0  0  0
  149.7840  132.5849  155.4455 C   0  0  0  0  0  0  0  0  0  0  0  0
  148.5988  132.8304  156.3889 C   0  0  0  0  0  0  0  0  0  0  0  0
  148.4009  134.3355  156.6186 C   0  0  0  0  0  0  0  0  0  0  0  0
  148.2473  135.0864  155.2777 C   0  0  1  0  0  0  0  0  0  0  0  0
  148.0581  136.6047  155.4640 C   0  0  0  0  0  0  0  0  0  0  0  0
  149.2787  137.2080  155.8732 O   0  0  0  0  0  0  0  0  0  0  0  0
  151.2983  141.0971  156.9524 N   0  0  0  0  0  0  0  0  0  0  0  0
  151.7344  142.1351  157.8185 C   0  0  0  0  0  0  0  0  0  0  0  0
  151.3025  143.4326  157.4619 C   0  0  0  0  0  0  0  0  0  0  0  0
  151.6798  144.5315  158.2579 C   0  0  0  0  0  0  0  0  0  0  0  0
  152.4832  144.3046  159.3894 C   0  0  0  0  0  0  0  0  0  0  0  0
  152.8726  142.9825  159.6720 C   0  0  0  0  0  0  0  0  0  0  0  0
  152.5100  141.9274  158.9121 N   0  0  0  0  0  0  0  0  0  0  0  0
  150.3263  139.5805  155.4711 H   0  0  0  0  0  0  0  0  0  0  0  0
  152.2361  137.9765  154.5265 H   0  0  0  0  0  0  0  0  0  0  0  0
  152.0932  137.3083  156.1331 H   0  0  0  0  0  0  0  0  0  0  0  0
  149.9717  137.4644  153.9447 H   0  0  0  0  0  0  0  0  0  0  0  0
  151.3811  135.4159  153.9875 H   0  0  0  0  0  0  0  0  0  0  0  0
  151.0209  135.1701  155.6831 H   0  0  0  0  0  0  0  0  0  0  0  0
  148.7586  132.9745  153.5824 H   0  0  0  0  0  0  0  0  0  0  0  0
  150.4839  133.2239  153.4848 H   0  0  0  0  0  0  0  0  0  0  0  0
  149.8705  131.5192  155.2318 H   0  0  0  0  0  0  0  0  0  0  0  0
  150.7135  132.8711  155.9384 H   0  0  0  0  0  0  0  0  0  0  0  0
  147.6927  132.4021  155.9583 H   0  0  0  0  0  0  0  0  0  0  0  0
  148.7621  132.3218  157.3395 H   0  0  0  0  0  0  0  0  0  0  0  0
  147.5171  134.4948  157.2372 H   0  0  0  0  0  0  0  0  0  0  0  0
  149.2427  134.7352  157.1852 H   0  0  0  0  0  0  0  0  0  0  0  0
  147.3498  134.7027  154.7904 H   0  0  0  0  0  0  0  0  0  0  0  0
  147.7135  137.0665  154.5373 H   0  0  0  0  0  0  0  0  0  0  0  0
  147.2928  136.8047  156.2144 H   0  0  0  0  0  0  0  0  0  0  0  0
  150.4185  141.2630  156.4868 H   0  0  0  0  0  0  0  0  0  0  0  0
  150.6857  143.5893  156.5889 H   0  0  0  0  0  0  0  0  0  0  0  0
  151.3580  145.5306  158.0035 H   0  0  0  0  0  0  0  0  0  0  0  0
  152.7935  145.1219  160.0235 H   0  0  0  0  0  0  0  0  0  0  0  0
  153.4912  142.7659  160.5303 H   0  0  0  0  0  0  0  0  0  0  0  0
  149.1236  135.2036  153.4679 H   0  0  0  0  0  0  0  0  0  0  0  0
  1  2  2  0  0  0  0
  2  3  1  0  0  0  0
  2 15  1  0  0  0  0
  3  4  1  0  0  0  0
  3 22  1  0  0  0  0
  4  5  1  0  0  0  0
  4 23  1  0  0  0  0
  4 24  1  0  0  0  0
  5 14  1  0  0  0  0
  5  6  1  0  0  0  0
  5 25  1  0  0  0  0
  6  7  1  0  0  0  0
  6 26  1  0  0  0  0
  6 27  1  0  0  0  0
  7 12  1  0  0  0  0
  7  8  1  0  0  0  0
  7 44  1  0  0  0  0
  8  9  1  0  0  0  0
  8 28  1  0  0  0  0
  8 29  1  0  0  0  0
  9 10  1  0  0  0  0
  9 30  1  0  0  0  0
  9 31  1  0  0  0  0
 10 11  1  0  0  0  0
 10 32  1  0  0  0  0
 10 33  1  0  0  0  0
 11 12  1  0  0  0  0
 11 34  1  0  0  0  0
 11 35  1  0  0  0  0
 12 13  1  0  0  0  0
 12 36  1  0  0  0  0
 13 14  1  0  0  0  0
 13 37  1  0  0  0  0
 13 38  1  0  0  0  0
 15 16  1  0  0  0  0
 15 39  1  0  0  0  0
 16 21  1  0  0  0  0
 16 17  2  0  0  0  0
 17 18  1  0  0  0  0
 17 40  1  0  0  0  0
 18 19  2  0  0  0  0
 18 41  1  0  0  0  0
 19 20  1  0  0  0  0
 19 42  1  0  0  0  0
 20 21  2  0  0  0  0
 20 43  1  0  0  0  0
M  CHG  1   7   1
M  END
> <s_m_source_file>
AV-unprocessed.smi

> <i_m_source_file_index>
2528

> <i_lp_mmshare_version>
43012

> <i_f3d_flags>
0

> <s_epik_input>
bjFbY0hdW2NIXVtjSF1bY0hdYzFbTkhdQyg9TylbTkhdW0NIMl1bQ0BIXShbQ0gyXTIpT1tDSDJdW0NAQEhdKE4yMylbQ0gyXVtDSDJdW0NIMl1bQ0gyXTM=

> <s_epik_cmdline>
J2VwaWtfcHl0aG9uJywgJy1waCcsICc3LjAnLCAnLXRuJywgJzgnLCAnLW1hJywgJzIwMCcsICctbWV0YWxfYmluZGluZycsICctaW1hZScsICc8aW5maWxlLm1hZT4nLCAnLW9tYWUnLCAnPG91dGZpbGUubWFlPic=

> <r_epik_Ionization_Penalty>
0.0932337

> <r_epik_Ionization_Penalty_Charging>
0.0931942

> <r_epik_Ionization_Penalty_Neutral>
3.9565e-05

> <r_epik_State_Penalty>
0.0834605

> <r_epik_Charging_Adjusted_Penalty>
0.176655

> <i_epik_Tot_Q>
1

> <i_epik_Tot_abs_Q>
1

> <r_epik_Metal_State_Penalty>
0.0834607

> <b_epik_Metal_Only>
0

> <s_lp_Force_Field>
OPLS_2005

> <r_lp_Energy>
26.7775

> <b_lp_Chiralities_Consistent>
1

> <s_lp_Variant>
AV-unprocessed.smi:2528-4

> <Gold.Version>
5.8.1

> <Gold.Id.Protein>
6NUR|6NUR_protein|mol2

> <Gold.PLP.Fitness>
41.2209

> <Gold.PLP.PLP>
-33.0983

> <Gold.PLP.part.hbond>
-2.0000

> <Gold.PLP.part.metal>
0.0000

> <Gold.PLP.part.buried>
-5.1047

> <Gold.PLP.part.nonpolar>
-27.0931

> <Gold.PLP.part.repulsive>
0.2504

> <Gold.PLP.ligand.clash>
0.0000

> <Gold.PLP.ligand.torsion>
0.4393

> <Gold.PLP.Chemscore.Hbond>
3.0000

> <Gold.PLP.Chemscore.CHOScore>
0.0000

> <Gold.PLP.Chemscore.Metal>
0.0000

> <Gold.Chemscore.Hbonds>
donor molecule, donor type, donor heavy atom, donor atom, acceptor molecule, acceptor atom, score
      L1  H     7    44       P1  7948  2.00
      P1  H  7997  8008       L1     1  1.00

> <Gold.PLP.Chemscore.Internal.Correction>
0.0012

> <Gold.Rescore>
     Score         DG    S(hbond)    S(metal)    S(lipo)     H(rot)  DE(clash)    DE(int)     intcor
     16.86     -18.48       1.88        0.00      85.48       1.29       0.07       1.56       ----

> <Gold.Chemscore.Fitness>
16.8590

> <Gold.Chemscore.DG>
-18.4797

> <Gold.Chemscore.ZeroCoef>
-5.4800

> <Gold.Chemscore.Hbond>
1.8844

> <Gold.Chemscore.Metal>
0.0000

> <Gold.Chemscore.Lipo>
85.4754

> <Gold.Chemscore.Internal_Hbond>
0.0000

> <Gold.Chemscore.DEClash>
0.0652

> <Gold.Chemscore.DEInternal>
1.5556

> <Gold.Chemscore.Rot>
1.2870

> <Gold.Chemscore.Internal.Correction>
   9.000000E+99

> <Gold.Chemscore.Hbonds>
donor molecule, donor type, donor heavy atom, donor atom, acceptor molecule, acceptor atom, score
      L1  H     7    44       P1  7948  0.35
      P1  H  7997  8008       L1     1  0.98

> <Gold.Chemscore.Hbond.Weighted>
-6.2940

> <Gold.Chemscore.Metal.Weighted>
-0.0000

> <Gold.Chemscore.Lipo.Weighted>
-10.0006

> <Gold.Chemscore.Internal_Hbond.Weighted>
0.0000

> <Gold.Chemscore.DEClash.Weighted>
0.0652

> <Gold.Chemscore.DEInternal.Weighted>
1.5556

> <Gold.Chemscore.Rot.Weighted>
3.2948

> <Gold.Chemscore.Internal.Correction.Weighted>
   9.000000E+99

> <Gold.Protein.RotatedTorsions>
[ 6907 6896 6895 6894 ] final  138.43 input  -60.11 | X-H torsion
[ 7974 7965 7964 7962 ] final  125.10 input  175.53 | X-H torsion
[ 8008 7997 7996 7995 ] final  -63.92 input   59.86 | X-H torsion
[ 10167 10162 10161 10158 ] final  -77.78 input  -65.29 | X-H torsion
[ 10718 10713 10712 10709 ] final -154.70 input   66.30 | X-H torsion
[ 10763 10752 10751 10750 ] final -151.83 input  -60.55 | X-H torsion
[ 11005 11000 10999 10996 ] final   51.91 input  -57.11 | X-H torsion

> <Gold.Protein.ActiveResidues>
 VAL166  LYS551  ARG553  GLY616  TRP617  ASP618  TYR619  PRO620  LYS621  CYS622 
 ASP623  PHE694  ASN695  SER759  ASP760  ASP761  ALA762  ILE779  LEU786  VAL792 
 PHE793  MET794  SER795  GLU796  ALA797  LYS798  CYS799  TRP800  GLU811  SER814 

> <Gold.Protein.RotatedAtoms>
  152.2666  133.5345  159.5413 H   0  0  0  0  0  0  0  0  0  0  0  0  # atno 6907 bound_to 6896
  150.7144  134.0756  159.3888 H   0  0  0  0  0  0  0  0  0  0  0  0  # atno 6908 bound_to 6896
  151.8672  135.0503  160.0526 H   0  0  0  0  0  0  0  0  0  0  0  0  # atno 6909 bound_to 6896
  145.0768  139.3687  143.4929 H   0  0  0  0  0  0  0  0  0  0  0  0  # atno 7974 bound_to 7965
  154.4582  140.0964  156.6817 H   0  0  0  0  0  0  0  0  0  0  0  0  # atno 8008 bound_to 7997
  155.5075  140.3475  155.4364 H   0  0  0  0  0  0  0  0  0  0  0  0  # atno 8009 bound_to 7997
  156.0819  140.1375  156.9691 H   0  0  0  0  0  0  0  0  0  0  0  0  # atno 8010 bound_to 7997
  140.4740  143.2419  151.8161 H   0  0  0  0  0  0  0  0  0  0  0  0  # atno 10167 bound_to 10162
  156.5028  130.8399  151.2616 H   0  0  0  0  0  0  0  0  0  0  0  0  # atno 10718 bound_to 10713
  154.8033  135.3251  154.7495 H   0  0  0  0  0  0  0  0  0  0  0  0  # atno 10763 bound_to 10752
  153.8158  135.6892  153.4838 H   0  0  0  0  0  0  0  0  0  0  0  0  # atno 10764 bound_to 10752
  153.1763  135.4604  154.9913 H   0  0  0  0  0  0  0  0  0  0  0  0  # atno 10765 bound_to 10752
  140.0893  134.5231  155.8868 H   0  0  0  0  0  0  0  0  0  0  0  0  # atno 11005 bound_to 11000
  146.3530  140.0539  142.8634 LP  0  0  0  0  0  0  0  0  0  0  0  0  # atno 17320 bound_to 7965
  145.1226  140.9471  143.4591 LP  0  0  0  0  0  0  0  0  0  0  0  0  # atno 17321 bound_to 7965
  139.4823  144.4856  151.9251 LP  0  0  0  0  0  0  0  0  0  0  0  0  # atno 17342 bound_to 10162
  140.3941  144.2577  150.5897 LP  0  0  0  0  0  0  0  0  0  0  0  0  # atno 17343 bound_to 10162
  157.7460  130.9976  150.2821 LP  0  0  0  0  0  0  0  0  0  0  0  0  # atno 17370 bound_to 10713
  156.3316  130.3801  149.7486 LP  0  0  0  0  0  0  0  0  0  0  0  0  # atno 17371 bound_to 10713
  141.2073  133.6662  156.6295 LP  0  0  0  0  0  0  0  0  0  0  0  0  # atno 17394 bound_to 11000
  140.3375  134.7877  157.4373 LP  0  0  0  0  0  0  0  0  0  0  0  0  # atno 17395 bound_to 11000

$$$$
