AV-unprocessed.smi:155|AV-procd|sdf|1276|dock9
  -GOLD-   2262018543D 1   1.00000     0.00000
 Structure written by MMmdl.
 63 66  0  0  0  0  0  0  0  0  2 V2000
  144.3456  133.8079  151.8522 C   0  0  0  0  0  0  0  0  0  0  0  0
  143.7439  134.3666  153.0854 N   0  3  0  0  0  0  0  0  0  0  0  0
  142.6436  135.3052  152.7727 C   0  0  0  0  0  0  0  0  0  0  0  0
  144.7445  134.9610  154.0067 C   0  0  0  0  0  0  0  0  0  0  0  0
  146.0763  134.1813  154.0029 C   0  0  0  0  0  0  0  0  0  0  0  0
  146.9830  134.6360  155.0579 N   0  0  0  0  0  0  0  0  0  0  0  0
  148.1490  133.7544  155.2208 C   0  0  0  0  0  0  0  0  0  0  0  0
  149.3396  134.0693  154.2911 C   0  0  0  0  0  0  0  0  0  0  0  0
  150.3156  135.0916  154.9046 C   0  0  0  0  0  0  0  0  0  0  0  0
  149.7407  136.4316  155.0326 N   0  0  0  0  0  0  0  0  0  0  0  0
  150.5905  137.4855  155.1298 C   0  0  0  0  0  0  0  0  0  0  0  0
  151.8388  137.3951  154.5978 N   0  0  0  0  0  0  0  0  0  0  0  0
  152.6881  138.4228  154.6897 C   0  0  0  0  0  0  0  0  0  0  0  0
  152.4977  139.6151  155.2578 N   0  0  0  0  0  0  0  0  0  0  0  0
  151.2445  139.7153  155.7858 C   0  0  0  0  0  0  0  0  0  0  0  0
  150.2373  138.7094  155.7661 C   0  0  0  0  0  0  0  0  0  0  0  0
  149.0861  139.1809  156.3873 N   0  0  0  0  0  0  0  0  0  0  0  0
  149.3973  140.3925  156.7586 C   0  0  0  0  0  0  0  0  0  0  0  0
  150.6708  140.7971  156.4300 N   0  0  0  0  0  0  0  0  0  0  0  0
  151.2649  142.0923  156.7059 C   0  0  0  0  0  0  0  0  0  0  0  0
  151.4661  142.3513  158.2138 C   0  0  1  0  0  0  0  0  0  0  0  0
  151.6691  141.0914  158.8210 O   0  0  0  0  0  0  0  0  0  0  0  0
  152.6686  143.2713  158.5539 C   0  0  2  0  0  0  0  0  0  0  0  0
  152.9351  143.4360  160.0528 C   0  0  0  0  0  0  0  0  0  0  0  0
  151.9578  144.5179  160.4756 C   0  0  0  0  0  0  0  0  0  0  0  0
  151.6873  145.2894  159.1823 C   0  0  0  0  0  0  0  0  0  0  0  0
  152.4267  144.6188  158.1674 O   0  0  0  0  0  0  0  0  0  0  0  0
  148.4529  136.5730  155.7103 C   0  0  0  0  0  0  0  0  0  0  0  0
  147.3161  136.0443  154.8204 C   0  0  0  0  0  0  0  0  0  0  0  0
  144.8204  134.5912  151.2598 H   0  0  0  0  0  0  0  0  0  0  0  0
  143.5814  133.3341  151.2352 H   0  0  0  0  0  0  0  0  0  0  0  0
  145.0962  133.0509  152.0762 H   0  0  0  0  0  0  0  0  0  0  0  0
  143.0190  136.1898  152.2564 H   0  0  0  0  0  0  0  0  0  0  0  0
  142.1382  135.6279  153.6835 H   0  0  0  0  0  0  0  0  0  0  0  0
  141.8981  134.8280  152.1357 H   0  0  0  0  0  0  0  0  0  0  0  0
  144.9019  136.0062  153.7343 H   0  0  0  0  0  0  0  0  0  0  0  0
  144.3416  134.9639  155.0198 H   0  0  0  0  0  0  0  0  0  0  0  0
  145.9012  133.1070  154.0756 H   0  0  0  0  0  0  0  0  0  0  0  0
  146.5743  134.3440  153.0473 H   0  0  0  0  0  0  0  0  0  0  0  0
  148.4826  133.8156  156.2570 H   0  0  0  0  0  0  0  0  0  0  0  0
  147.8533  132.7151  155.0897 H   0  0  0  0  0  0  0  0  0  0  0  0
  149.8959  133.1443  154.1375 H   0  0  0  0  0  0  0  0  0  0  0  0
  149.0103  134.3795  153.2988 H   0  0  0  0  0  0  0  0  0  0  0  0
  150.6527  134.7489  155.8838 H   0  0  0  0  0  0  0  0  0  0  0  0
  151.2004  135.1425  154.2682 H   0  0  0  0  0  0  0  0  0  0  0  0
  153.6591  138.2673  154.2433 H   0  0  0  0  0  0  0  0  0  0  0  0
  148.6983  141.0337  157.2756 H   0  0  0  0  0  0  0  0  0  0  0  0
  152.2236  142.1328  156.1867 H   0  0  0  0  0  0  0  0  0  0  0  0
  150.6406  142.8701  156.2643 H   0  0  0  0  0  0  0  0  0  0  0  0
  150.5475  142.7655  158.6306 H   0  0  0  0  0  0  0  0  0  0  0  0
  152.5349  141.0776  159.1993 H   0  0  0  0  0  0  0  0  0  0  0  0
  153.5606  142.9053  158.0440 H   0  0  0  0  0  0  0  0  0  0  0  0
  152.8263  142.5159  160.6275 H   0  0  0  0  0  0  0  0  0  0  0  0
  153.9549  143.7947  160.1985 H   0  0  0  0  0  0  0  0  0  0  0  0
  151.0338  144.0733  160.8469 H   0  0  0  0  0  0  0  0  0  0  0  0
  152.3658  145.1520  161.2630 H   0  0  0  0  0  0  0  0  0  0  0  0
  150.6250  145.2747  158.9359 H   0  0  0  0  0  0  0  0  0  0  0  0
  152.0045  146.3302  159.2492 H   0  0  0  0  0  0  0  0  0  0  0  0
  148.4752  136.0659  156.6755 H   0  0  0  0  0  0  0  0  0  0  0  0
  148.2548  137.6193  155.9414 H   0  0  0  0  0  0  0  0  0  0  0  0
  147.5561  136.2190  153.7699 H   0  0  0  0  0  0  0  0  0  0  0  0
  146.4158  136.6256  155.0232 H   0  0  0  0  0  0  0  0  0  0  0  0
  143.3192  133.5958  153.5815 H   0  0  0  0  0  0  0  0  0  0  0  0
  1  2  1  0  0  0  0
  1 30  1  0  0  0  0
  1 31  1  0  0  0  0
  1 32  1  0  0  0  0
  2  3  1  0  0  0  0
  2  4  1  0  0  0  0
  2 63  1  0  0  0  0
  3 33  1  0  0  0  0
  3 34  1  0  0  0  0
  3 35  1  0  0  0  0
  4  5  1  0  0  0  0
  4 36  1  0  0  0  0
  4 37  1  0  0  0  0
  5  6  1  0  0  0  0
  5 38  1  0  0  0  0
  5 39  1  0  0  0  0
  6 29  1  0  0  0  0
  6  7  1  0  0  0  0
  7  8  1  0  0  0  0
  7 40  1  0  0  0  0
  7 41  1  0  0  0  0
  8  9  1  0  0  0  0
  8 42  1  0  0  0  0
  8 43  1  0  0  0  0
  9 10  1  0  0  0  0
  9 44  1  0  0  0  0
  9 45  1  0  0  0  0
 10 11  1  0  0  0  0
 10 28  1  0  0  0  0
 11 16  1  0  0  0  0
 11 12  2  0  0  0  0
 12 13  1  0  0  0  0
 13 14  2  0  0  0  0
 13 46  1  0  0  0  0
 14 15  1  0  0  0  0
 15 19  1  0  0  0  0
 15 16  2  0  0  0  0
 16 17  1  0  0  0  0
 17 18  2  0  0  0  0
 18 19  1  0  0  0  0
 18 47  1  0  0  0  0
 19 20  1  0  0  0  0
 20 21  1  0  0  0  0
 20 48  1  0  0  0  0
 20 49  1  0  0  0  0
 21 22  1  0  0  0  0
 21 23  1  0  0  0  0
 21 50  1  0  0  0  0
 22 51  1  0  0  0  0
 23 27  1  0  0  0  0
 23 24  1  0  0  0  0
 23 52  1  0  0  0  0
 24 25  1  0  0  0  0
 24 53  1  0  0  0  0
 24 54  1  0  0  0  0
 25 26  1  0  0  0  0
 25 55  1  0  0  0  0
 25 56  1  0  0  0  0
 26 27  1  0  0  0  0
 26 57  1  0  0  0  0
 26 58  1  0  0  0  0
 28 29  1  0  0  0  0
 28 59  1  0  0  0  0
 28 60  1  0  0  0  0
 29 61  1  0  0  0  0
 29 62  1  0  0  0  0
M  CHG  1   2   1
M  END
> <s_m_source_file>
AV-unprocessed.smi

> <i_m_source_file_index>
155

> <i_lp_mmshare_version>
43012

> <i_f3d_flags>
0

> <s_epik_input>
W0NIM11OKFtDSDNdKVtDSDJdW0NIMl1OMVtDSDJdW0NIMl1bQ0gyXU4oW0NIMl1bQ0gyXTEpYyhuW2NIXW4yKWMoYzIzKW5bY0hdbjNbQ0gyXVtDQEhdKFtPSF0pW0NAQEhdNFtDSDJdW0NIMl1bQ0gyXU80

> <s_epik_cmdline>
J2VwaWtfcHl0aG9uJywgJy1waCcsICc3LjAnLCAnLXRuJywgJzgnLCAnLW1hJywgJzIwMCcsICctbWV0YWxfYmluZGluZycsICctaW1hZScsICc8aW5maWxlLm1hZT4nLCAnLW9tYWUnLCAnPG91dGZpbGUubWFlPic=

> <r_lp_tautomer_probability>
1

> <r_epik_Ionization_Penalty>
0.0599493

> <r_epik_Ionization_Penalty_Charging>
0.00816363

> <r_epik_Ionization_Penalty_Neutral>
0.0517857

> <r_epik_State_Penalty>
0.460607

> <r_epik_Charging_Adjusted_Penalty>
0.468771

> <i_epik_Tot_Q>
1

> <i_epik_Tot_abs_Q>
1

> <r_epik_Metal_State_Penalty>
0.45965

> <b_epik_Metal_Only>
0

> <s_lp_Force_Field>
OPLS_2005

> <r_lp_Energy>
58.8836

> <b_lp_Chiralities_Consistent>
1

> <s_lp_Variant>
AV-unprocessed.smi:155-10

> <Gold.Version>
5.8.1

> <Gold.Id.Protein>
6NUR|6NUR_protein|mol2

> <Gold.PLP.Fitness>
58.4146

> <Gold.PLP.PLP>
-47.9875

> <Gold.PLP.part.hbond>
-3.8146

> <Gold.PLP.part.metal>
0.0000

> <Gold.PLP.part.buried>
-9.6769

> <Gold.PLP.part.nonpolar>
-36.3690

> <Gold.PLP.part.repulsive>
0.2273

> <Gold.PLP.ligand.clash>
0.0000

> <Gold.PLP.ligand.torsion>
0.8779

> <Gold.PLP.Chemscore.Hbond>
3.9326

> <Gold.PLP.Chemscore.CHOScore>
0.0000

> <Gold.PLP.Chemscore.Metal>
0.0000

> <Gold.Chemscore.Hbonds>
donor molecule, donor type, donor heavy atom, donor atom, acceptor molecule, acceptor atom, score
      L1  H     2    63       P1 10957  0.75
      P1  H  7989  7998       L1    14  0.06
      P1  H  7997  8009       L1    14  0.78
      P1  H 10752 10765       L1    12  0.87

> <Gold.PLP.Chemscore.Internal.Correction>
0.3853

> <Gold.Rescore>
     Score         DG    S(hbond)    S(metal)    S(lipo)     H(rot)  DE(clash)    DE(int)     intcor
     14.24     -16.46       1.77        0.00     102.45       2.71       0.01       2.21       ----

> <Gold.Chemscore.Fitness>
14.2432

> <Gold.Chemscore.DG>
-16.4619

> <Gold.Chemscore.ZeroCoef>
-5.4800

> <Gold.Chemscore.Hbond>
1.7749

> <Gold.Chemscore.Metal>
0.0000

> <Gold.Chemscore.Lipo>
102.4472

> <Gold.Chemscore.Internal_Hbond>
0.0000

> <Gold.Chemscore.DEClash>
0.0112

> <Gold.Chemscore.DEInternal>
2.2075

> <Gold.Chemscore.Rot>
2.7080

> <Gold.Chemscore.Internal.Correction>
   9.000000E+99

> <Gold.Chemscore.Hbonds>
donor molecule, donor type, donor heavy atom, donor atom, acceptor molecule, acceptor atom, score
      L1  H     2    63       P1 10957  0.37
      P1  H  7997  8009       L1    14  0.39
      P1  H 10752 10765       L1    12  0.52

> <Gold.Chemscore.Hbond.Weighted>
-5.9282

> <Gold.Chemscore.Metal.Weighted>
-0.0000

> <Gold.Chemscore.Lipo.Weighted>
-11.9863

> <Gold.Chemscore.Internal_Hbond.Weighted>
0.0000

> <Gold.Chemscore.DEClash.Weighted>
0.0112

> <Gold.Chemscore.DEInternal.Weighted>
2.2075

> <Gold.Chemscore.Rot.Weighted>
6.9326

> <Gold.Chemscore.Internal.Correction.Weighted>
   9.000000E+99

> <Gold.Protein.RotatedTorsions>
[ 6907 6896 6895 6894 ] final   96.78 input  -60.11 | X-H torsion
[ 7974 7965 7964 7962 ] final   -7.99 input  175.53 | X-H torsion
[ 8008 7997 7996 7995 ] final -142.96 input   59.86 | X-H torsion
[ 10167 10162 10161 10158 ] final -133.56 input  -65.29 | X-H torsion
[ 10718 10713 10712 10709 ] final   72.35 input   66.30 | X-H torsion
[ 10763 10752 10751 10750 ] final  163.39 input  -60.55 | X-H torsion
[ 11005 11000 10999 10996 ] final  -46.50 input  -57.11 | X-H torsion

> <Gold.Protein.ActiveResidues>
 VAL166  LYS551  ARG553  GLY616  TRP617  ASP618  TYR619  PRO620  LYS621  CYS622 
 ASP623  PHE694  ASN695  SER759  ASP760  ASP761  ALA762  ILE779  LEU786  VAL792 
 PHE793  MET794  SER795  GLU796  ALA797  LYS798  CYS799  TRP800  GLU811  SER814 

> <Gold.Protein.RotatedAtoms>
  152.5431  134.0834  159.8245 H   0  0  0  0  0  0  0  0  0  0  0  0  # atno 6907 bound_to 6896
  151.0933  133.5292  159.2621 H   0  0  0  0  0  0  0  0  0  0  0  0  # atno 6908 bound_to 6896
  151.2074  135.0476  159.8951 H   0  0  0  0  0  0  0  0  0  0  0  0  # atno 6909 bound_to 6896
  146.2292  140.2402  142.8343 H   0  0  0  0  0  0  0  0  0  0  0  0  # atno 7974 bound_to 7965
  155.5028  140.0577  157.2936 H   0  0  0  0  0  0  0  0  0  0  0  0  # atno 8008 bound_to 7997
  154.4581  140.1983  156.0272 H   0  0  0  0  0  0  0  0  0  0  0  0  # atno 8009 bound_to 7997
  156.0837  140.3243  155.7731 H   0  0  0  0  0  0  0  0  0  0  0  0  # atno 8010 bound_to 7997
  139.8970  143.6654  152.2602 H   0  0  0  0  0  0  0  0  0  0  0  0  # atno 10167 bound_to 10162
  157.6497  130.9574  150.0917 H   0  0  0  0  0  0  0  0  0  0  0  0  # atno 10718 bound_to 10713
  154.2929  135.2760  155.2646 H   0  0  0  0  0  0  0  0  0  0  0  0  # atno 10763 bound_to 10752
  154.5117  135.5780  153.6613 H   0  0  0  0  0  0  0  0  0  0  0  0  # atno 10764 bound_to 10752
  152.9911  135.6182  154.3095 H   0  0  0  0  0  0  0  0  0  0  0  0  # atno 10765 bound_to 10752
  141.0582  133.6718  156.3163 H   0  0  0  0  0  0  0  0  0  0  0  0  # atno 11005 bound_to 11000
  144.9490  140.8159  143.5583 LP  0  0  0  0  0  0  0  0  0  0  0  0  # atno 17320 bound_to 7965
  145.2361  139.2093  143.5017 LP  0  0  0  0  0  0  0  0  0  0  0  0  # atno 17321 bound_to 7965
  139.7059  144.7628  151.1194 LP  0  0  0  0  0  0  0  0  0  0  0  0  # atno 17342 bound_to 10162
  140.7715  143.5395  150.9329 LP  0  0  0  0  0  0  0  0  0  0  0  0  # atno 17343 bound_to 10162
  156.1864  130.3652  149.8967 LP  0  0  0  0  0  0  0  0  0  0  0  0  # atno 17370 bound_to 10713
  156.6907  130.8894  151.3588 LP  0  0  0  0  0  0  0  0  0  0  0  0  # atno 17371 bound_to 10713
  140.5921  134.5640  157.5501 LP  0  0  0  0  0  0  0  0  0  0  0  0  # atno 17394 bound_to 11000
  139.9409  134.7788  156.0681 LP  0  0  0  0  0  0  0  0  0  0  0  0  # atno 17395 bound_to 11000

$$$$
