AV-unprocessed.smi:1822|AV-procd|sdf|7390|dock1
  -GOLD-   22720 9 53D 1   1.00000     0.00000
 Structure written by MMmdl.
 46 47  0  0  0  0  0  0  0  0  1 V2000
  146.7413  143.5187  153.7681 C   0  0  0  0  0  0  0  0  0  0  0  0
  147.8912  142.8120  154.3118 N   0  0  0  0  0  0  0  0  0  0  0  0
  148.2703  141.5772  153.9431 C   0  0  0  0  0  0  0  0  0  0  0  0
  147.6548  140.9396  153.0868 O   0  0  0  0  0  0  0  0  0  0  0  0
  149.4559  141.0859  154.6496 C   0  0  0  0  0  0  0  0  0  0  0  0
  150.2044  141.8902  155.6039 C   0  0  0  0  0  0  0  0  0  0  0  0
  151.2872  141.3841  156.2262 C   0  0  0  0  0  0  0  0  0  0  0  0
  151.7555  140.0186  155.9734 C   0  0  0  0  0  0  0  0  0  0  0  0
  152.7441  139.5521  156.5395 O   0  0  0  0  0  0  0  0  0  0  0  0
  151.0261  139.2979  155.0687 N   0  0  0  0  0  0  0  0  0  0  0  0
  151.3984  137.9130  154.7330 C   0  0  0  0  0  0  0  0  0  0  0  0
  150.4826  136.8832  155.4069 C   0  0  0  0  0  0  0  0  0  0  0  0
  150.4468  136.8266  156.6373 O   0  0  0  0  0  0  0  0  0  0  0  0
  149.7606  136.1062  154.5727 N   0  0  0  0  0  0  0  0  0  0  0  0
  148.8862  135.1367  154.9017 C   0  0  0  0  0  0  0  0  0  0  0  0
  148.6134  134.7721  156.0475 O   0  0  0  0  0  0  0  0  0  0  0  0
  148.3281  134.6032  153.8049 N   0  0  0  0  0  0  0  0  0  0  0  0
  147.3844  133.4893  153.7925 C   0  0  0  0  0  0  0  0  0  0  0  0
  148.1414  132.1772  153.5123 C   0  0  0  0  0  0  0  0  0  0  0  0
  147.1809  130.9805  153.4201 C   0  0  0  0  0  0  0  0  0  0  0  0
  146.0914  131.2200  152.3635 C   0  0  0  0  0  0  0  0  0  0  0  0
  145.3273  132.5238  152.6419 C   0  0  0  0  0  0  0  0  0  0  0  0
  146.2838  133.7237  152.7367 C   0  0  0  0  0  0  0  0  0  0  0  0
  149.8937  139.8321  154.4221 C   0  0  0  0  0  0  0  0  0  0  0  0
  146.6343  144.4860  154.2590 H   0  0  0  0  0  0  0  0  0  0  0  0
  145.8238  142.9516  153.9293 H   0  0  0  0  0  0  0  0  0  0  0  0
  146.8619  143.6910  152.6980 H   0  0  0  0  0  0  0  0  0  0  0  0
  148.4337  143.2888  155.0175 H   0  0  0  0  0  0  0  0  0  0  0  0
  149.9143  142.9046  155.8348 H   0  0  0  0  0  0  0  0  0  0  0  0
  151.8270  142.0002  156.9305 H   0  0  0  0  0  0  0  0  0  0  0  0
  151.3795  137.7658  153.6514 H   0  0  0  0  0  0  0  0  0  0  0  0
  152.4279  137.7040  155.0277 H   0  0  0  0  0  0  0  0  0  0  0  0
  149.8958  136.2701  153.5860 H   0  0  0  0  0  0  0  0  0  0  0  0
  148.5698  134.9997  152.9087 H   0  0  0  0  0  0  0  0  0  0  0  0
  146.9179  133.4060  154.7762 H   0  0  0  0  0  0  0  0  0  0  0  0
  148.6991  132.2637  152.5786 H   0  0  0  0  0  0  0  0  0  0  0  0
  148.8777  131.9956  154.2960 H   0  0  0  0  0  0  0  0  0  0  0  0
  147.7380  130.0745  153.1801 H   0  0  0  0  0  0  0  0  0  0  0  0
  146.7163  130.8096  154.3920 H   0  0  0  0  0  0  0  0  0  0  0  0
  146.5460  131.2669  151.3731 H   0  0  0  0  0  0  0  0  0  0  0  0
  145.3979  130.3788  152.3462 H   0  0  0  0  0  0  0  0  0  0  0  0
  144.5901  132.6975  151.8575 H   0  0  0  0  0  0  0  0  0  0  0  0
  144.7696  132.4280  153.5743 H   0  0  0  0  0  0  0  0  0  0  0  0
  145.7155  134.6229  152.9779 H   0  0  0  0  0  0  0  0  0  0  0  0
  146.7392  133.8999  151.7612 H   0  0  0  0  0  0  0  0  0  0  0  0
  149.4136  139.1527  153.7313 H   0  0  0  0  0  0  0  0  0  0  0  0
  1  2  1  0  0  0  0
  1 25  1  0  0  0  0
  1 26  1  0  0  0  0
  1 27  1  0  0  0  0
  2  3  1  0  0  0  0
  2 28  1  0  0  0  0
  3  4  2  0  0  0  0
  3  5  1  0  0  0  0
  5 24  2  0  0  0  0
  5  6  1  0  0  0  0
  6  7  2  0  0  0  0
  6 29  1  0  0  0  0
  7  8  1  0  0  0  0
  7 30  1  0  0  0  0
  8  9  2  0  0  0  0
  8 10  1  0  0  0  0
 10 11  1  0  0  0  0
 10 24  1  0  0  0  0
 11 12  1  0  0  0  0
 11 31  1  0  0  0  0
 11 32  1  0  0  0  0
 12 13  2  0  0  0  0
 12 14  1  0  0  0  0
 14 15  1  0  0  0  0
 14 33  1  0  0  0  0
 15 16  2  0  0  0  0
 15 17  1  0  0  0  0
 17 18  1  0  0  0  0
 17 34  1  0  0  0  0
 18 23  1  0  0  0  0
 18 19  1  0  0  0  0
 18 35  1  0  0  0  0
 19 20  1  0  0  0  0
 19 36  1  0  0  0  0
 19 37  1  0  0  0  0
 20 21  1  0  0  0  0
 20 38  1  0  0  0  0
 20 39  1  0  0  0  0
 21 22  1  0  0  0  0
 21 40  1  0  0  0  0
 21 41  1  0  0  0  0
 22 23  1  0  0  0  0
 22 42  1  0  0  0  0
 22 43  1  0  0  0  0
 23 44  1  0  0  0  0
 23 45  1  0  0  0  0
 24 46  1  0  0  0  0
M  END
> <s_m_source_file>
AV-unprocessed.smi

> <i_m_source_file_index>
1822

> <i_lp_mmshare_version>
43012

> <i_f3d_flags>
0

> <s_epik_input>
W0NIM11bTkhdQyg9TyljMVtjSF1bY0hdYyg9TyluKFtjSF0xKVtDSDJdQyg9TylbTkhdQyg9TylbTkhdW0NIXTJbQ0gyXVtDSDJdW0NIMl1bQ0gyXVtDSDJdMg==

> <s_epik_cmdline>
J2VwaWtfcHl0aG9uJywgJy1waCcsICc3LjAnLCAnLXRuJywgJzgnLCAnLW1hJywgJzIwMCcsICctbWV0YWxfYmluZGluZycsICctaW1hZScsICc8aW5maWxlLm1hZT4nLCAnLW9tYWUnLCAnPG91dGZpbGUubWFlPic=

> <r_lp_tautomer_probability>
1

> <r_epik_Ionization_Penalty>
3.30797e-05

> <r_epik_Ionization_Penalty_Charging>
3.7169e-08

> <r_epik_Ionization_Penalty_Neutral>
3.30425e-05

> <r_epik_State_Penalty>
-0

> <r_epik_Charging_Adjusted_Penalty>
3.7169e-08

> <i_epik_Tot_Q>
0

> <i_epik_Tot_abs_Q>
0

> <r_epik_Metal_State_Penalty>
-0

> <b_epik_Metal_Only>
0

> <s_lp_Force_Field>
OPLS_2005

> <r_lp_Energy>
24.3679

> <b_lp_Chiralities_Consistent>
1

> <s_lp_Variant>
AV-unprocessed.smi:1822-1

> <Gold.Version>
5.8.1

> <Gold.Id.Protein>
6NUR|6NUR_protein|mol2

> <Gold.PLP.Fitness>
55.4621

> <Gold.PLP.PLP>
-44.6506

> <Gold.PLP.part.hbond>
-4.1041

> <Gold.PLP.part.metal>
0.0000

> <Gold.PLP.part.buried>
-4.2805

> <Gold.PLP.part.nonpolar>
-36.9182

> <Gold.PLP.part.repulsive>
0.4104

> <Gold.PLP.ligand.clash>
0.0000

> <Gold.PLP.ligand.torsion>
0.5402

> <Gold.PLP.Chemscore.Hbond>
3.7344

> <Gold.PLP.Chemscore.CHOScore>
0.2178

> <Gold.PLP.Chemscore.Metal>
0.0000

> <Gold.Chemscore.Hbonds>
donor molecule, donor type, donor heavy atom, donor atom, acceptor molecule, acceptor atom, score
      L1  H     2    28       P1  8028  0.90
      L1  H    14    33       P1  7948  0.75
      L1  H    17    34       P1  7948  1.00
      P1  H  7997  8010       L1     9  1.00
      L1  C    24    46       P1  7957  0.33

> <Gold.PLP.Chemscore.Internal.Correction>
0.0352

> <Gold.Rescore>
     Score         DG    S(hbond)    S(metal)    S(lipo)     H(rot)  DE(clash)    DE(int)     intcor
     16.09     -18.74       2.58        0.00      75.02       1.62       1.06       1.59       ----

> <Gold.Chemscore.Fitness>
16.0929

> <Gold.Chemscore.DG>
-18.7421

> <Gold.Chemscore.ZeroCoef>
-5.4800

> <Gold.Chemscore.Hbond>
2.5805

> <Gold.Chemscore.Metal>
0.0000

> <Gold.Chemscore.Lipo>
75.0245

> <Gold.Chemscore.Internal_Hbond>
0.0000

> <Gold.Chemscore.DEClash>
1.0635

> <Gold.Chemscore.DEInternal>
1.5858

> <Gold.Chemscore.Rot>
1.6151

> <Gold.Chemscore.Internal.Correction>
   9.000000E+99

> <Gold.Chemscore.Hbonds>
donor molecule, donor type, donor heavy atom, donor atom, acceptor molecule, acceptor atom, score
      L1  H     2    28       P1  8028  0.87
      L1  H    14    33       P1  7948  0.13
      L1  H    17    34       P1  7948  0.54
      P1  H  7997  8010       L1     9  1.00

> <Gold.Chemscore.Hbond.Weighted>
-8.6188

> <Gold.Chemscore.Metal.Weighted>
-0.0000

> <Gold.Chemscore.Lipo.Weighted>
-8.7779

> <Gold.Chemscore.Internal_Hbond.Weighted>
0.0000

> <Gold.Chemscore.DEClash.Weighted>
1.0635

> <Gold.Chemscore.DEInternal.Weighted>
1.5858

> <Gold.Chemscore.Rot.Weighted>
4.1346

> <Gold.Chemscore.Internal.Correction.Weighted>
   9.000000E+99

> <Gold.Protein.RotatedTorsions>
[ 6907 6896 6895 6894 ] final   22.44 input  -60.11 | X-H torsion
[ 7974 7965 7964 7962 ] final -158.94 input  175.53 | X-H torsion
[ 8008 7997 7996 7995 ] final   69.38 input   59.86 | X-H torsion
[ 10167 10162 10161 10158 ] final  -25.06 input  -65.29 | X-H torsion
[ 10718 10713 10712 10709 ] final -168.89 input   66.30 | X-H torsion
[ 10763 10752 10751 10750 ] final   46.07 input  -60.55 | X-H torsion
[ 11005 11000 10999 10996 ] final   -4.41 input  -57.11 | X-H torsion

> <Gold.Protein.ActiveResidues>
 VAL166  LYS551  ARG553  GLY616  TRP617  ASP618  TYR619  PRO620  LYS621  CYS622 
 ASP623  PHE694  ASN695  SER759  ASP760  ASP761  ALA762  ILE779  LEU786  VAL792 
 PHE793  MET794  SER795  GLU796  ALA797  LYS798  CYS799  TRP800  GLU811  SER814 

> <Gold.Protein.RotatedAtoms>
  151.9271  135.0273  160.0526 H   0  0  0  0  0  0  0  0  0  0  0  0  # atno 6907 bound_to 6896
  152.2150  133.4935  159.5139 H   0  0  0  0  0  0  0  0  0  0  0  0  # atno 6908 bound_to 6896
  150.6985  134.1334  159.4121 H   0  0  0  0  0  0  0  0  0  0  0  0  # atno 6909 bound_to 6896
  144.7485  140.3756  143.6066 H   0  0  0  0  0  0  0  0  0  0  0  0  # atno 7974 bound_to 7965
  155.7227  140.3493  155.5023 H   0  0  0  0  0  0  0  0  0  0  0  0  # atno 8008 bound_to 7997
  155.9254  140.1074  157.1195 H   0  0  0  0  0  0  0  0  0  0  0  0  # atno 8009 bound_to 7997
  154.4076  140.1241  156.4721 H   0  0  0  0  0  0  0  0  0  0  0  0  # atno 8010 bound_to 7997
  140.7287  143.4298  151.0819 H   0  0  0  0  0  0  0  0  0  0  0  0  # atno 10167 bound_to 10162
  156.7035  130.9206  151.3082 H   0  0  0  0  0  0  0  0  0  0  0  0  # atno 10718 bound_to 10713
  152.9815  135.6019  154.3540 H   0  0  0  0  0  0  0  0  0  0  0  0  # atno 10763 bound_to 10752
  154.3227  135.2769  155.2513 H   0  0  0  0  0  0  0  0  0  0  0  0  # atno 10764 bound_to 10752
  154.4673  135.5951  153.6352 H   0  0  0  0  0  0  0  0  0  0  0  0  # atno 10765 bound_to 10752
  140.6800  133.9162  155.8549 H   0  0  0  0  0  0  0  0  0  0  0  0  # atno 11005 bound_to 11000
  145.7032  139.1666  143.2581 LP  0  0  0  0  0  0  0  0  0  0  0  0  # atno 17320 bound_to 7965
  146.1401  140.7070  142.9371 LP  0  0  0  0  0  0  0  0  0  0  0  0  # atno 17321 bound_to 7965
  139.7954  143.8159  152.3157 LP  0  0  0  0  0  0  0  0  0  0  0  0  # atno 17342 bound_to 10162
  139.8157  144.7317  150.9638 LP  0  0  0  0  0  0  0  0  0  0  0  0  # atno 17343 bound_to 10162
  157.6964  130.9286  150.0656 LP  0  0  0  0  0  0  0  0  0  0  0  0  # atno 17370 bound_to 10713
  156.1712  130.3646  149.9163 LP  0  0  0  0  0  0  0  0  0  0  0  0  # atno 17371 bound_to 10713
  141.0325  134.0736  157.3998 LP  0  0  0  0  0  0  0  0  0  0  0  0  # atno 17394 bound_to 11000
  139.8955  135.0141  156.7003 LP  0  0  0  0  0  0  0  0  0  0  0  0  # atno 17395 bound_to 11000

$$$$
