AV-unprocessed.smi:1692|AV-procd|sdf|6784|dock3
  -GOLD-   22720 7543D 1   1.00000     0.00000
 Structure written by MMmdl.
 45 46  0  0  0  0  0  0  0  0  1 V2000
  151.9517  139.8573  157.1445 C   0  0  0  0  0  0  0  0  0  0  0  0
  152.1461  139.6872  155.6282 C   0  0  1  0  0  0  0  0  0  0  0  0
  152.1135  138.2151  155.1692 C   0  0  0  0  0  0  0  0  0  0  0  0
  150.7659  137.6489  155.1768 N   0  0  0  0  0  0  0  0  0  0  0  0
  150.7355  136.2652  154.7047 C   0  0  0  0  0  0  0  0  0  0  0  0
  150.0498  135.2669  155.6531 C   0  0  0  0  0  0  0  0  0  0  0  0
  149.6530  133.9664  154.9357 C   0  0  0  0  0  0  0  0  0  0  0  0
  148.7882  134.2237  153.7896 N   0  0  0  0  0  0  0  0  0  0  0  0
  147.7663  133.4438  153.4073 C   0  0  0  0  0  0  0  0  0  0  0  0
  147.4439  132.4118  153.9967 O   0  0  0  0  0  0  0  0  0  0  0  0
  147.1584  133.9382  152.3142 N   0  0  0  0  0  0  0  0  0  0  0  0
  146.0384  133.4099  151.6179 C   0  0  0  0  0  0  0  0  0  0  0  0
  145.8705  132.0109  151.7274 C   0  0  0  0  0  0  0  0  0  0  0  0
  144.7905  131.3889  151.0711 C   0  0  0  0  0  0  0  0  0  0  0  0
  143.9047  132.1829  150.3214 C   0  0  0  0  0  0  0  0  0  0  0  0
  144.1427  133.5685  150.2645 C   0  0  0  0  0  0  0  0  0  0  0  0
  145.1772  134.1666  150.8924 N   0  0  0  0  0  0  0  0  0  0  0  0
  149.8938  138.4927  154.3694 C   0  0  0  0  0  0  0  0  0  0  0  0
  149.8731  139.9478  154.8705 C   0  0  2  0  0  0  0  0  0  0  0  0
  149.0219  140.8542  153.9754 C   0  0  0  0  0  0  0  0  0  0  0  0
  151.2040  140.4609  154.8839 O   0  0  0  0  0  0  0  0  0  0  0  0
  152.7448  139.3523  157.6959 H   0  0  0  0  0  0  0  0  0  0  0  0
  151.0038  139.4420  157.4858 H   0  0  0  0  0  0  0  0  0  0  0  0
  151.9750  140.9107  157.4233 H   0  0  0  0  0  0  0  0  0  0  0  0
  153.1305  140.0899  155.3882 H   0  0  0  0  0  0  0  0  0  0  0  0
  152.5255  138.1521  154.1609 H   0  0  0  0  0  0  0  0  0  0  0  0
  152.7771  137.6345  155.8091 H   0  0  0  0  0  0  0  0  0  0  0  0
  150.2013  136.2344  153.7540 H   0  0  0  0  0  0  0  0  0  0  0  0
  151.7496  135.9255  154.4890 H   0  0  0  0  0  0  0  0  0  0  0  0
  150.7128  135.0273  156.4842 H   0  0  0  0  0  0  0  0  0  0  0  0
  149.1609  135.7283  156.0860 H   0  0  0  0  0  0  0  0  0  0  0  0
  150.5454  133.4539  154.5752 H   0  0  0  0  0  0  0  0  0  0  0  0
  149.1609  133.2819  155.6287 H   0  0  0  0  0  0  0  0  0  0  0  0
  148.9850  135.0528  153.2483 H   0  0  0  0  0  0  0  0  0  0  0  0
  147.5389  134.7935  151.9378 H   0  0  0  0  0  0  0  0  0  0  0  0
  146.5605  131.4153  152.3075 H   0  0  0  0  0  0  0  0  0  0  0  0
  144.6453  130.3210  151.1422 H   0  0  0  0  0  0  0  0  0  0  0  0
  143.0653  131.7423  149.8042 H   0  0  0  0  0  0  0  0  0  0  0  0
  143.4858  134.2140  149.7005 H   0  0  0  0  0  0  0  0  0  0  0  0
  150.2199  138.4698  153.3280 H   0  0  0  0  0  0  0  0  0  0  0  0
  148.8786  138.0946  154.3854 H   0  0  0  0  0  0  0  0  0  0  0  0
  149.4616  139.9799  155.8798 H   0  0  0  0  0  0  0  0  0  0  0  0
  147.9854  140.5172  153.9486 H   0  0  0  0  0  0  0  0  0  0  0  0
  149.3981  140.8643  152.9521 H   0  0  0  0  0  0  0  0  0  0  0  0
  149.0278  141.8805  154.3429 H   0  0  0  0  0  0  0  0  0  0  0  0
  1  2  1  0  0  0  0
  1 22  1  0  0  0  0
  1 23  1  0  0  0  0
  1 24  1  0  0  0  0
  2 21  1  0  0  0  0
  2  3  1  0  0  0  0
  2 25  1  0  0  0  0
  3  4  1  0  0  0  0
  3 26  1  0  0  0  0
  3 27  1  0  0  0  0
  4  5  1  0  0  0  0
  4 18  1  0  0  0  0
  5  6  1  0  0  0  0
  5 28  1  0  0  0  0
  5 29  1  0  0  0  0
  6  7  1  0  0  0  0
  6 30  1  0  0  0  0
  6 31  1  0  0  0  0
  7  8  1  0  0  0  0
  7 32  1  0  0  0  0
  7 33  1  0  0  0  0
  8  9  1  0  0  0  0
  8 34  1  0  0  0  0
  9 10  2  0  0  0  0
  9 11  1  0  0  0  0
 11 12  1  0  0  0  0
 11 35  1  0  0  0  0
 12 17  1  0  0  0  0
 12 13  2  0  0  0  0
 13 14  1  0  0  0  0
 13 36  1  0  0  0  0
 14 15  2  0  0  0  0
 14 37  1  0  0  0  0
 15 16  1  0  0  0  0
 15 38  1  0  0  0  0
 16 17  2  0  0  0  0
 16 39  1  0  0  0  0
 18 19  1  0  0  0  0
 18 40  1  0  0  0  0
 18 41  1  0  0  0  0
 19 20  1  0  0  0  0
 19 21  1  0  0  0  0
 19 42  1  0  0  0  0
 20 43  1  0  0  0  0
 20 44  1  0  0  0  0
 20 45  1  0  0  0  0
M  END
> <s_m_source_file>
AV-unprocessed.smi

> <i_m_source_file_index>
1692

> <i_lp_mmshare_version>
43012

> <i_f3d_flags>
0

> <s_epik_input>
W0NIM11bQ0BASF0xW0NIMl1OKFtDSDJdW0NASF0oTzEpW0NIM10pW0NIMl1bQ0gyXVtDSDJdW05IXUMoPU8pW05IXWMyW2NIXVtjSF1bY0hdW2NIXW4y

> <s_epik_cmdline>
J2VwaWtfcHl0aG9uJywgJy1waCcsICc3LjAnLCAnLXRuJywgJzgnLCAnLW1hJywgJzIwMCcsICctbWV0YWxfYmluZGluZycsICctaW1hZScsICc8aW5maWxlLm1hZT4nLCAnLW9tYWUnLCAnPG91dGZpbGUubWFlPic=

> <r_epik_Ionization_Penalty>
0.594711

> <r_epik_Ionization_Penalty_Charging>
0

> <r_epik_Ionization_Penalty_Neutral>
0.594711

> <r_epik_State_Penalty>
0.608529

> <r_epik_Charging_Adjusted_Penalty>
0.608529

> <i_epik_Tot_Q>
0

> <i_epik_Tot_abs_Q>
0

> <r_epik_Metal_State_Penalty>
0.608528

> <b_epik_Metal_Only>
0

> <s_lp_Force_Field>
OPLS_2005

> <r_lp_Energy>
25.6838

> <b_lp_Chiralities_Consistent>
1

> <s_lp_Variant>
AV-unprocessed.smi:1692-7

> <Gold.Version>
5.8.1

> <Gold.Id.Protein>
6NUR|6NUR_protein|mol2

> <Gold.PLP.Fitness>
49.7051

> <Gold.PLP.PLP>
-39.9042

> <Gold.PLP.part.hbond>
-3.0000

> <Gold.PLP.part.metal>
0.0000

> <Gold.PLP.part.buried>
-4.3619

> <Gold.PLP.part.nonpolar>
-32.9068

> <Gold.PLP.part.repulsive>
0.3996

> <Gold.PLP.ligand.clash>
0.0000

> <Gold.PLP.ligand.torsion>
1.1172

> <Gold.PLP.Chemscore.Hbond>
3.0000

> <Gold.PLP.Chemscore.CHOScore>
1.0000

> <Gold.PLP.Chemscore.Metal>
0.0000

> <Gold.Chemscore.Hbonds>
donor molecule, donor type, donor heavy atom, donor atom, acceptor molecule, acceptor atom, score
      L1  H     8    34       P1  7948  1.00
      L1  H    11    35       P1  7948  1.00
      P1  H  7989  7998       L1    21  0.93
      L1  C    16    39       P1 10186  1.00

> <Gold.PLP.Chemscore.Internal.Correction>
0.0354

> <Gold.Rescore>
     Score         DG    S(hbond)    S(metal)    S(lipo)     H(rot)  DE(clash)    DE(int)     intcor
     14.67     -17.28       1.82        0.00      86.53       1.73       0.12       2.49       ----

> <Gold.Chemscore.Fitness>
14.6668

> <Gold.Chemscore.DG>
-17.2756

> <Gold.Chemscore.ZeroCoef>
-5.4800

> <Gold.Chemscore.Hbond>
1.8240

> <Gold.Chemscore.Metal>
0.0000

> <Gold.Chemscore.Lipo>
86.5258

> <Gold.Chemscore.Internal_Hbond>
0.0000

> <Gold.Chemscore.DEClash>
0.1153

> <Gold.Chemscore.DEInternal>
2.4934

> <Gold.Chemscore.Rot>
1.7266

> <Gold.Chemscore.Internal.Correction>
   9.000000E+99

> <Gold.Chemscore.Hbonds>
donor molecule, donor type, donor heavy atom, donor atom, acceptor molecule, acceptor atom, score
      L1  H     8    34       P1  7948  0.25
      L1  H    11    35       P1  7948  0.66
      P1  H  7989  7998       L1    21  0.62

> <Gold.Chemscore.Hbond.Weighted>
-6.0921

> <Gold.Chemscore.Metal.Weighted>
-0.0000

> <Gold.Chemscore.Lipo.Weighted>
-10.1235

> <Gold.Chemscore.Internal_Hbond.Weighted>
0.0000

> <Gold.Chemscore.DEClash.Weighted>
0.1153

> <Gold.Chemscore.DEInternal.Weighted>
2.4934

> <Gold.Chemscore.Rot.Weighted>
4.4200

> <Gold.Chemscore.Internal.Correction.Weighted>
   9.000000E+99

> <Gold.Protein.RotatedTorsions>
[ 6907 6896 6895 6894 ] final   40.36 input  -60.11 | X-H torsion
[ 7974 7965 7964 7962 ] final  -42.75 input  175.53 | X-H torsion
[ 8008 7997 7996 7995 ] final  -31.06 input   59.86 | X-H torsion
[ 10167 10162 10161 10158 ] final  -41.14 input  -65.29 | X-H torsion
[ 10718 10713 10712 10709 ] final  -29.21 input   66.30 | X-H torsion
[ 10763 10752 10751 10750 ] final -169.65 input  -60.55 | X-H torsion
[ 11005 11000 10999 10996 ] final  102.81 input  -57.11 | X-H torsion

> <Gold.Protein.ActiveResidues>
 VAL166  LYS551  ARG553  GLY616  TRP617  ASP618  TYR619  PRO620  LYS621  CYS622 
 ASP623  PHE694  ASN695  SER759  ASP760  ASP761  ALA762  ILE779  LEU786  VAL792 
 PHE793  MET794  SER795  GLU796  ALA797  LYS798  CYS799  TRP800  GLU811  SER814 

> <Gold.Protein.RotatedAtoms>
  152.1815  134.8750  160.0525 H   0  0  0  0  0  0  0  0  0  0  0  0  # atno 6907 bound_to 6896
  151.9673  133.3709  159.4066 H   0  0  0  0  0  0  0  0  0  0  0  0  # atno 6908 bound_to 6896
  150.6918  134.4101  159.5201 H   0  0  0  0  0  0  0  0  0  0  0  0  # atno 6909 bound_to 6896
  146.0085  140.6991  142.9236 H   0  0  0  0  0  0  0  0  0  0  0  0  # atno 7974 bound_to 7965
  154.4227  140.1774  156.1506 H   0  0  0  0  0  0  0  0  0  0  0  0  # atno 8008 bound_to 7997
  155.9918  140.3368  155.6736 H   0  0  0  0  0  0  0  0  0  0  0  0  # atno 8009 bound_to 7997
  155.6361  140.0675  157.2624 H   0  0  0  0  0  0  0  0  0  0  0  0  # atno 8010 bound_to 7997
  140.7012  143.3112  151.3023 H   0  0  0  0  0  0  0  0  0  0  0  0  # atno 10167 bound_to 10162
  156.4154  130.4416  149.7222 H   0  0  0  0  0  0  0  0  0  0  0  0  # atno 10718 bound_to 10713
  154.6500  135.2910  154.9999 H   0  0  0  0  0  0  0  0  0  0  0  0  # atno 10763 bound_to 10752
  154.1095  135.6564  153.4886 H   0  0  0  0  0  0  0  0  0  0  0  0  # atno 10764 bound_to 10752
  153.0371  135.5262  154.7403 H   0  0  0  0  0  0  0  0  0  0  0  0  # atno 10765 bound_to 10752
  139.8780  134.9239  156.5115 H   0  0  0  0  0  0  0  0  0  0  0  0  # atno 11005 bound_to 11000
  144.6944  140.3357  143.7208 LP  0  0  0  0  0  0  0  0  0  0  0  0  # atno 17320 bound_to 7965
  145.7378  139.1755  143.2393 LP  0  0  0  0  0  0  0  0  0  0  0  0  # atno 17321 bound_to 7965
  139.6535  144.0318  152.2643 LP  0  0  0  0  0  0  0  0  0  0  0  0  # atno 17342 bound_to 10162
  139.9862  144.6394  150.7855 LP  0  0  0  0  0  0  0  0  0  0  0  0  # atno 17343 bound_to 10162
  156.4184  130.7756  151.2773 LP  0  0  0  0  0  0  0  0  0  0  0  0  # atno 17370 bound_to 10713
  157.7508  131.0190  150.3650 LP  0  0  0  0  0  0  0  0  0  0  0  0  # atno 17371 bound_to 10713
  140.8517  133.8127  155.9175 LP  0  0  0  0  0  0  0  0  0  0  0  0  # atno 17394 bound_to 11000
  140.9138  134.2227  157.4969 LP  0  0  0  0  0  0  0  0  0  0  0  0  # atno 17395 bound_to 11000

$$$$
