AV-unprocessed.smi:3284|AV-procd|sdf|12576|dock9
  -GOLD-   2272018503D 1   1.00000     0.00000
 Structure written by MMmdl.
 45 46  0  0  0  0  0  0  0  0  3 V2000
  152.0409  139.1311  154.8428 C   0  0  0  0  0  0  0  0  0  0  0  0
  150.5297  139.2377  154.7245 C   0  0  0  0  0  0  0  0  0  0  0  0
  149.7779  138.1435  154.4923 C   0  0  0  0  0  0  0  0  0  0  0  0
  148.2704  138.1503  154.3089 C   0  0  0  0  0  0  0  0  0  0  0  0
  147.6323  139.5199  154.5941 C   0  0  0  0  0  0  0  0  0  0  0  0
  148.5334  140.6722  154.1174 C   0  0  1  0  0  0  0  0  0  0  0  0
  147.8162  142.0317  154.1802 C   0  0  0  0  0  0  0  0  0  0  0  0
  149.9108  140.6374  154.8382 C   0  0  1  0  0  0  0  0  0  0  0  0
  149.8384  141.1281  156.3081 C   0  0  0  0  0  0  0  0  0  0  0  0
  150.4722  142.4465  156.5048 N   0  3  0  0  0  0  0  0  0  0  0  0
  150.6402  142.8307  157.9211 C   0  0  0  0  0  0  0  0  0  0  0  0
  152.1196  143.0160  158.2953 C   0  0  0  0  0  0  0  0  0  0  0  0
  152.3690  143.0842  159.7736 C   0  0  0  0  0  0  0  0  0  0  0  0
  152.7418  142.0522  160.5408 N   0  3  0  0  0  0  0  0  0  0  0  0
  152.8817  142.4497  161.8427 C   0  0  0  0  0  0  0  0  0  0  0  0
  152.5774  143.7851  161.8739 C   0  0  0  0  0  0  0  0  0  0  0  0
  152.2656  144.1483  160.5888 N   0  0  0  0  0  0  0  0  0  0  0  0
  151.8772  145.4859  160.1367 C   0  0  0  0  0  0  0  0  0  0  0  0
  152.5295  139.9039  154.2491 H   0  0  0  0  0  0  0  0  0  0  0  0
  152.3933  138.1645  154.4808 H   0  0  0  0  0  0  0  0  0  0  0  0
  152.3646  139.2245  155.8779 H   0  0  0  0  0  0  0  0  0  0  0  0
  150.2546  137.1788  154.3959 H   0  0  0  0  0  0  0  0  0  0  0  0
  148.0668  137.8586  153.2781 H   0  0  0  0  0  0  0  0  0  0  0  0
  147.8225  137.3871  154.9458 H   0  0  0  0  0  0  0  0  0  0  0  0
  146.6574  139.5704  154.1077 H   0  0  0  0  0  0  0  0  0  0  0  0
  147.4400  139.6197  155.6626 H   0  0  0  0  0  0  0  0  0  0  0  0
  148.7325  140.4963  153.0586 H   0  0  0  0  0  0  0  0  0  0  0  0
  147.4313  142.2464  155.1771 H   0  0  0  0  0  0  0  0  0  0  0  0
  146.9648  142.0490  153.4992 H   0  0  0  0  0  0  0  0  0  0  0  0
  148.4829  142.8442  153.8896 H   0  0  0  0  0  0  0  0  0  0  0  0
  150.5616  141.3209  154.2907 H   0  0  0  0  0  0  0  0  0  0  0  0
  148.8031  141.2247  156.6323 H   0  0  0  0  0  0  0  0  0  0  0  0
  150.3137  140.4041  156.9704 H   0  0  0  0  0  0  0  0  0  0  0  0
  151.3828  142.4243  156.0677 H   0  0  0  0  0  0  0  0  0  0  0  0
  150.0851  143.7486  158.1193 H   0  0  0  0  0  0  0  0  0  0  0  0
  150.2044  142.0527  158.5488 H   0  0  0  0  0  0  0  0  0  0  0  0
  152.7069  142.1755  157.9235 H   0  0  0  0  0  0  0  0  0  0  0  0
  152.5305  143.9140  157.8344 H   0  0  0  0  0  0  0  0  0  0  0  0
  153.1805  141.7708  162.6284 H   0  0  0  0  0  0  0  0  0  0  0  0
  152.5627  144.4863  162.6963 H   0  0  0  0  0  0  0  0  0  0  0  0
  151.8933  146.1750  160.9818 H   0  0  0  0  0  0  0  0  0  0  0  0
  150.8703  145.4499  159.7225 H   0  0  0  0  0  0  0  0  0  0  0  0
  152.5808  145.8329  159.3794 H   0  0  0  0  0  0  0  0  0  0  0  0
  149.9071  143.1432  156.0410 H   0  0  0  0  0  0  0  0  0  0  0  0
  152.9063  141.1117  160.2036 H   0  0  0  0  0  0  0  0  0  0  0  0
  1  2  1  0  0  0  0
  1 19  1  0  0  0  0
  1 20  1  0  0  0  0
  1 21  1  0  0  0  0
  2  8  1  0  0  0  0
  2  3  2  0  0  0  0
  3  4  1  0  0  0  0
  3 22  1  0  0  0  0
  4  5  1  0  0  0  0
  4 23  1  0  0  0  0
  4 24  1  0  0  0  0
  5  6  1  0  0  0  0
  5 25  1  0  0  0  0
  5 26  1  0  0  0  0
  6  7  1  0  0  0  0
  6  8  1  0  0  0  0
  6 27  1  0  0  0  0
  7 28  1  0  0  0  0
  7 29  1  0  0  0  0
  7 30  1  0  0  0  0
  8  9  1  0  0  0  0
  8 31  1  0  0  0  0
  9 10  1  0  0  0  0
  9 32  1  0  0  0  0
  9 33  1  0  0  0  0
 10 11  1  0  0  0  0
 10 34  1  0  0  0  0
 10 44  1  0  0  0  0
 11 12  1  0  0  0  0
 11 35  1  0  0  0  0
 11 36  1  0  0  0  0
 12 13  1  0  0  0  0
 12 37  1  0  0  0  0
 12 38  1  0  0  0  0
 13 17  1  0  0  0  0
 13 14  2  0  0  0  0
 14 15  1  0  0  0  0
 14 45  1  0  0  0  0
 15 16  2  0  0  0  0
 15 39  1  0  0  0  0
 16 17  1  0  0  0  0
 16 40  1  0  0  0  0
 17 18  1  0  0  0  0
 18 41  1  0  0  0  0
 18 42  1  0  0  0  0
 18 43  1  0  0  0  0
M  CHG  1  10   1
M  CHG  1  14   1
M  END
> <s_m_source_file>
AV-unprocessed.smi

> <i_m_source_file_index>
3284

> <i_lp_mmshare_version>
43012

> <i_f3d_flags>
0

> <s_epik_input>
W0NIM11DMT1bQ0hdW0NIMl1bQ0gyXVtDQEBIXShbQ0gzXSlbQ0BIXTFbQ0gyXVtOSF1bQ0gyXVtDSDJdYzJuW2NIXVtjSF1uMltDSDNd

> <s_epik_cmdline>
J2VwaWtfcHl0aG9uJywgJy1waCcsICc3LjAnLCAnLXRuJywgJzgnLCAnLW1hJywgJzIwMCcsICctbWV0YWxfYmluZGluZycsICctaW1hZScsICc8aW5maWxlLm1hZT4nLCAnLW9tYWUnLCAnPG91dGZpbGUubWFlPic=

> <r_lp_tautomer_probability>
1

> <r_epik_Ionization_Penalty>
0.892846

> <r_epik_Ionization_Penalty_Charging>
0.00275802

> <r_epik_Ionization_Penalty_Neutral>
0.890088

> <r_epik_State_Penalty>
0.485211

> <r_epik_Charging_Adjusted_Penalty>
0.487969

> <i_epik_Tot_Q>
2

> <i_epik_Tot_abs_Q>
2

> <r_epik_Metal_State_Penalty>
4.22898

> <b_epik_Metal_Only>
0

> <s_lp_Force_Field>
OPLS_2005

> <r_lp_Energy>
25.5845

> <b_lp_Chiralities_Consistent>
1

> <s_lp_Variant>
AV-unprocessed.smi:3284-5

> <Gold.Version>
5.8.1

> <Gold.Id.Protein>
6NUR|6NUR_protein|mol2

> <Gold.PLP.Fitness>
49.0450

> <Gold.PLP.PLP>
-45.9985

> <Gold.PLP.part.hbond>
-1.0000

> <Gold.PLP.part.metal>
0.0000

> <Gold.PLP.part.buried>
-3.4183

> <Gold.PLP.part.nonpolar>
-40.7959

> <Gold.PLP.part.repulsive>
0.1557

> <Gold.PLP.ligand.clash>
0.0000

> <Gold.PLP.ligand.torsion>
1.4896

> <Gold.PLP.Chemscore.Hbond>
2.0000

> <Gold.PLP.Chemscore.CHOScore>
0.0000

> <Gold.PLP.Chemscore.Metal>
0.0000

> <Gold.Chemscore.Hbonds>
donor molecule, donor type, donor heavy atom, donor atom, acceptor molecule, acceptor atom, score
      L1  H    10    44       P1  8028  2.00

> <Gold.PLP.Chemscore.Internal.Correction>
0.0258

> <Gold.Rescore>
     Score         DG    S(hbond)    S(metal)    S(lipo)     H(rot)  DE(clash)    DE(int)     intcor
     15.88     -17.37       0.99        0.00     110.50       1.70       0.05       1.43       ----

> <Gold.Chemscore.Fitness>
15.8848

> <Gold.Chemscore.DG>
-17.3684

> <Gold.Chemscore.ZeroCoef>
-5.4800

> <Gold.Chemscore.Hbond>
0.9915

> <Gold.Chemscore.Metal>
0.0000

> <Gold.Chemscore.Lipo>
110.4971

> <Gold.Chemscore.Internal_Hbond>
0.0000

> <Gold.Chemscore.DEClash>
0.0538

> <Gold.Chemscore.DEInternal>
1.4299

> <Gold.Chemscore.Rot>
1.6997

> <Gold.Chemscore.Internal.Correction>
   9.000000E+99

> <Gold.Chemscore.Hbonds>
donor molecule, donor type, donor heavy atom, donor atom, acceptor molecule, acceptor atom, score
      L1  H    10    44       P1  8028  1.00

> <Gold.Chemscore.Hbond.Weighted>
-3.3115

> <Gold.Chemscore.Metal.Weighted>
-0.0000

> <Gold.Chemscore.Lipo.Weighted>
-12.9282

> <Gold.Chemscore.Internal_Hbond.Weighted>
0.0000

> <Gold.Chemscore.DEClash.Weighted>
0.0538

> <Gold.Chemscore.DEInternal.Weighted>
1.4299

> <Gold.Chemscore.Rot.Weighted>
4.3512

> <Gold.Chemscore.Internal.Correction.Weighted>
   9.000000E+99

> <Gold.Protein.RotatedTorsions>
[ 6907 6896 6895 6894 ] final  -97.56 input  -60.11 | X-H torsion
[ 7974 7965 7964 7962 ] final   42.77 input  175.53 | X-H torsion
[ 8008 7997 7996 7995 ] final  119.06 input   59.86 | X-H torsion
[ 10167 10162 10161 10158 ] final -174.80 input  -65.29 | X-H torsion
[ 10718 10713 10712 10709 ] final   -8.72 input   66.30 | X-H torsion
[ 10763 10752 10751 10750 ] final  112.53 input  -60.55 | X-H torsion
[ 11005 11000 10999 10996 ] final -163.07 input  -57.11 | X-H torsion

> <Gold.Protein.ActiveResidues>
 VAL166  LYS551  ARG553  GLY616  TRP617  ASP618  TYR619  PRO620  LYS621  CYS622 
 ASP623  PHE694  ASN695  SER759  ASP760  ASP761  ALA762  ILE779  LEU786  VAL792 
 PHE793  MET794  SER795  GLU796  ALA797  LYS798  CYS799  TRP800  GLU811  SER814 

> <Gold.Protein.RotatedAtoms>
  150.7020  134.1329  159.4076 H   0  0  0  0  0  0  0  0  0  0  0  0  # atno 6907 bound_to 6896
  151.9315  135.0252  160.0539 H   0  0  0  0  0  0  0  0  0  0  0  0  # atno 6908 bound_to 6896
  152.2172  133.4920  159.5179 H   0  0  0  0  0  0  0  0  0  0  0  0  # atno 6909 bound_to 6896
  146.0712  139.5262  142.9596 H   0  0  0  0  0  0  0  0  0  0  0  0  # atno 7974 bound_to 7965
  156.2577  140.2861  156.0932 H   0  0  0  0  0  0  0  0  0  0  0  0  # atno 8008 bound_to 7997
  155.1440  140.0396  157.2823 H   0  0  0  0  0  0  0  0  0  0  0  0  # atno 8009 bound_to 7997
  154.6509  140.2544  155.7222 H   0  0  0  0  0  0  0  0  0  0  0  0  # atno 8010 bound_to 7997
  139.5614  144.1859  152.1245 H   0  0  0  0  0  0  0  0  0  0  0  0  # atno 10167 bound_to 10162
  156.6985  130.5086  149.5923 H   0  0  0  0  0  0  0  0  0  0  0  0  # atno 10718 bound_to 10713
  153.4792  135.3683  155.2433 H   0  0  0  0  0  0  0  0  0  0  0  0  # atno 10763 bound_to 10752
  154.8755  135.3950  154.3720 H   0  0  0  0  0  0  0  0  0  0  0  0  # atno 10764 bound_to 10752
  153.4321  135.7082  153.6289 H   0  0  0  0  0  0  0  0  0  0  0  0  # atno 10765 bound_to 10752
  140.6022  134.4936  157.5206 H   0  0  0  0  0  0  0  0  0  0  0  0  # atno 11005 bound_to 11000
  145.6388  141.0289  143.1823 LP  0  0  0  0  0  0  0  0  0  0  0  0  # atno 17320 bound_to 7965
  144.7233  139.7959  143.7374 LP  0  0  0  0  0  0  0  0  0  0  0  0  # atno 17321 bound_to 7965
  140.1374  144.5233  150.6765 LP  0  0  0  0  0  0  0  0  0  0  0  0  # atno 17342 bound_to 10162
  140.6895  143.2368  151.5171 LP  0  0  0  0  0  0  0  0  0  0  0  0  # atno 17343 bound_to 10162
  156.1746  130.6459  151.0878 LP  0  0  0  0  0  0  0  0  0  0  0  0  # atno 17370 bound_to 10713
  157.6982  131.0786  150.6904 LP  0  0  0  0  0  0  0  0  0  0  0  0  # atno 17371 bound_to 10713
  139.9227  134.8116  156.1160 LP  0  0  0  0  0  0  0  0  0  0  0  0  # atno 17394 bound_to 11000
  141.0865  133.6732  156.2446 LP  0  0  0  0  0  0  0  0  0  0  0  0  # atno 17395 bound_to 11000

$$$$
