AV-unprocessed.smi:2889|AV-procd|sdf|11113|dock2
  -GOLD-   2272015583D 1   1.00000     0.00000
 Structure written by MMmdl.
 35 36  0  0  0  0  0  0  0  0  2 V2000
  154.3279  140.7484  161.6851 C   0  0  0  0  0  0  0  0  0  0  0  0
  153.6027  139.7689  160.3394 S   0  0  0  0  0  0  0  0  0  0  0  0
  152.4114  140.9455  159.6085 C   0  0  1  0  0  0  0  0  0  0  0  0
  153.1121  142.2949  159.2913 C   0  0  0  0  0  0  0  0  0  0  0  0
  152.1425  143.3602  158.7383 C   0  0  0  0  0  0  0  0  0  0  0  0
  151.3939  142.7969  157.5134 C   0  0  0  0  0  0  0  0  0  0  0  0
  150.6913  141.4462  157.8091 C   0  0  0  0  0  0  0  0  0  0  0  0
  151.6271  140.3587  158.3947 C   0  0  1  0  0  0  0  0  0  0  0  0
  152.5412  139.8836  157.3631 N   0  5  0  0  0  0  0  0  0  0  0  0
  151.9861  138.9365  156.1697 S   0  0  0  0  0  0  0  0  0  0  0  0
  151.5499  139.6997  154.9881 O   0  0  0  0  0  0  0  0  0  0  0  0
  152.8648  137.7793  155.9348 O   0  0  0  0  0  0  0  0  0  0  0  0
  150.4547  138.2617  156.9510 C   0  0  0  0  0  0  0  0  0  0  0  0
  150.5089  136.7587  157.0041 C   0  0  0  0  0  0  0  0  0  0  0  0
  150.6782  135.8415  155.9296 C   0  0  0  0  0  0  0  0  0  0  0  0
  150.6604  134.6228  156.5430 C   0  0  0  0  0  0  0  0  0  0  0  0
  150.4793  134.7667  157.8801 O   0  0  0  0  0  0  0  0  0  0  0  0
  150.3792  136.1333  158.1645 N   0  0  0  0  0  0  0  0  0  0  0  0
  155.1279  140.1849  162.1646 H   0  0  0  0  0  0  0  0  0  0  0  0
  153.5804  140.9857  162.4418 H   0  0  0  0  0  0  0  0  0  0  0  0
  154.7441  141.6791  161.3000 H   0  0  0  0  0  0  0  0  0  0  0  0
  151.6835  141.1556  160.3931 H   0  0  0  0  0  0  0  0  0  0  0  0
  153.5814  142.6806  160.1968 H   0  0  0  0  0  0  0  0  0  0  0  0
  153.9269  142.1412  158.5804 H   0  0  0  0  0  0  0  0  0  0  0  0
  151.4251  143.6402  159.5107 H   0  0  0  0  0  0  0  0  0  0  0  0
  152.6857  144.2663  158.4688 H   0  0  0  0  0  0  0  0  0  0  0  0
  150.6533  143.5231  157.1772 H   0  0  0  0  0  0  0  0  0  0  0  0
  152.0933  142.6824  156.6828 H   0  0  0  0  0  0  0  0  0  0  0  0
  149.8869  141.6285  158.5226 H   0  0  0  0  0  0  0  0  0  0  0  0
  150.2049  141.0757  156.9057 H   0  0  0  0  0  0  0  0  0  0  0  0
  150.9978  139.5482  158.7640 H   0  0  0  0  0  0  0  0  0  0  0  0
  150.3858  138.6817  157.9545 H   0  0  0  0  0  0  0  0  0  0  0  0
  149.5903  138.6142  156.3890 H   0  0  0  0  0  0  0  0  0  0  0  0
  150.8087  136.0492  154.8778 H   0  0  0  0  0  0  0  0  0  0  0  0
  150.7571  133.6093  156.1828 H   0  0  0  0  0  0  0  0  0  0  0  0
  1  2  1  0  0  0  0
  1 19  1  0  0  0  0
  1 20  1  0  0  0  0
  1 21  1  0  0  0  0
  2  3  1  0  0  0  0
  3  8  1  0  0  0  0
  3  4  1  0  0  0  0
  3 22  1  0  0  0  0
  4  5  1  0  0  0  0
  4 23  1  0  0  0  0
  4 24  1  0  0  0  0
  5  6  1  0  0  0  0
  5 25  1  0  0  0  0
  5 26  1  0  0  0  0
  6  7  1  0  0  0  0
  6 27  1  0  0  0  0
  6 28  1  0  0  0  0
  7  8  1  0  0  0  0
  7 29  1  0  0  0  0
  7 30  1  0  0  0  0
  8  9  1  0  0  0  0
  8 31  1  0  0  0  0
  9 10  1  0  0  0  0
 10 11  2  0  0  0  0
 10 12  2  0  0  0  0
 10 13  1  0  0  0  0
 13 14  1  0  0  0  0
 13 32  1  0  0  0  0
 13 33  1  0  0  0  0
 14 18  2  0  0  0  0
 14 15  1  0  0  0  0
 15 16  2  0  0  0  0
 15 34  1  0  0  0  0
 16 17  1  0  0  0  0
 16 35  1  0  0  0  0
 17 18  1  0  0  0  0
M  CHG  1   9  -1
M  END
> <s_m_source_file>
AV-unprocessed.smi

> <i_m_source_file_index>
2889

> <i_lp_mmshare_version>
43012

> <i_f3d_flags>
0

> <s_epik_input>
W0NIM11TW0NAQEhdMVtDSDJdW0NIMl1bQ0gyXVtDSDJdW0NASF0xW05IXVMoPU8pKD1PKVtDSDJdYzJbY0hdW2NIXW9uMg==

> <s_epik_cmdline>
J2VwaWtfcHl0aG9uJywgJy1waCcsICc3LjAnLCAnLXRuJywgJzgnLCAnLW1hJywgJzIwMCcsICctbWV0YWxfYmluZGluZycsICctaW1hZScsICc8aW5maWxlLm1hZT4nLCAnLW9tYWUnLCAnPG91dGZpbGUubWFlPic=

> <r_lp_tautomer_probability>
1

> <r_epik_Ionization_Penalty>
4.65467

> <r_epik_Ionization_Penalty_Charging>
4.65467

> <r_epik_Ionization_Penalty_Neutral>
2.71476e-10

> <r_epik_State_Penalty>
4.65444

> <r_epik_Charging_Adjusted_Penalty>
9.30911

> <i_epik_Tot_Q>
-1

> <i_epik_Tot_abs_Q>
1

> <r_epik_Metal_State_Penalty>
0.901484

> <b_epik_Metal_Only>
1

> <s_lp_Force_Field>
OPLS_2005

> <r_lp_Energy>
11.2119

> <b_lp_Chiralities_Consistent>
1

> <s_lp_Variant>
AV-unprocessed.smi:2889-6

> <Gold.Version>
5.8.1

> <Gold.Id.Protein>
6NUR|6NUR_protein|mol2

> <Gold.PLP.Fitness>
41.6457

> <Gold.PLP.PLP>
-31.9048

> <Gold.PLP.part.hbond>
-4.2285

> <Gold.PLP.part.metal>
0.0000

> <Gold.PLP.part.buried>
-5.7140

> <Gold.PLP.part.nonpolar>
-22.6216

> <Gold.PLP.part.repulsive>
0.0679

> <Gold.PLP.ligand.clash>
0.0000

> <Gold.PLP.ligand.torsion>
0.8166

> <Gold.PLP.Chemscore.Hbond>
3.4449

> <Gold.PLP.Chemscore.CHOScore>
0.0000

> <Gold.PLP.Chemscore.Metal>
0.0000

> <Gold.Chemscore.Hbonds>
donor molecule, donor type, donor heavy atom, donor atom, acceptor molecule, acceptor atom, score
      P1  H  6896  6908       L1    17  0.45
      P1  H  7989  7998       L1    11  1.00
      P1  H  7997  8008       L1     9  1.90

> <Gold.PLP.Chemscore.Internal.Correction>
1.0395

> <Gold.Rescore>
     Score         DG    S(hbond)    S(metal)    S(lipo)     H(rot)  DE(clash)    DE(int)     intcor
     15.92     -18.21       2.21        0.00      79.24       1.53       0.17       2.12       ----

> <Gold.Chemscore.Fitness>
15.9240

> <Gold.Chemscore.DG>
-18.2131

> <Gold.Chemscore.ZeroCoef>
-5.4800

> <Gold.Chemscore.Hbond>
2.2103

> <Gold.Chemscore.Metal>
0.0000

> <Gold.Chemscore.Lipo>
79.2394

> <Gold.Chemscore.Internal_Hbond>
0.0000

> <Gold.Chemscore.DEClash>
0.1739

> <Gold.Chemscore.DEInternal>
2.1152

> <Gold.Chemscore.Rot>
1.5314

> <Gold.Chemscore.Internal.Correction>
   9.000000E+99

> <Gold.Chemscore.Hbonds>
donor molecule, donor type, donor heavy atom, donor atom, acceptor molecule, acceptor atom, score
      P1  H  6896  6908       L1    17  0.34
      P1  H  7989  7998       L1    11  0.99
      P1  H  7997  8008       L1     9  0.21

> <Gold.Chemscore.Hbond.Weighted>
-7.3825

> <Gold.Chemscore.Metal.Weighted>
-0.0000

> <Gold.Chemscore.Lipo.Weighted>
-9.2710

> <Gold.Chemscore.Internal_Hbond.Weighted>
0.0000

> <Gold.Chemscore.DEClash.Weighted>
0.1739

> <Gold.Chemscore.DEInternal.Weighted>
2.1152

> <Gold.Chemscore.Rot.Weighted>
3.9205

> <Gold.Chemscore.Internal.Correction.Weighted>
   9.000000E+99

> <Gold.Protein.RotatedTorsions>
[ 6907 6896 6895 6894 ] final  123.14 input  -60.11 | X-H torsion
[ 7974 7965 7964 7962 ] final  -10.34 input  175.53 | X-H torsion
[ 8008 7997 7996 7995 ] final  -67.77 input   59.86 | X-H torsion
[ 10167 10162 10161 10158 ] final   57.31 input  -65.29 | X-H torsion
[ 10718 10713 10712 10709 ] final  -68.33 input   66.30 | X-H torsion
[ 10763 10752 10751 10750 ] final  -96.45 input  -60.55 | X-H torsion
[ 11005 11000 10999 10996 ] final  -11.09 input  -57.11 | X-H torsion

> <Gold.Protein.ActiveResidues>
 VAL166  LYS551  ARG553  GLY616  TRP617  ASP618  TYR619  PRO620  LYS621  CYS622 
 ASP623  PHE694  ASN695  SER759  ASP760  ASP761  ALA762  ILE779  LEU786  VAL792 
 PHE793  MET794  SER795  GLU796  ALA797  LYS798  CYS799  TRP800  GLU811  SER814 

> <Gold.Protein.RotatedAtoms>
  152.4186  133.7079  159.6461 H   0  0  0  0  0  0  0  0  0  0  0  0  # atno 6907 bound_to 6896
  150.8063  133.8494  159.3210 H   0  0  0  0  0  0  0  0  0  0  0  0  # atno 6908 bound_to 6896
  151.6217  135.1033  160.0154 H   0  0  0  0  0  0  0  0  0  0  0  0  # atno 6909 bound_to 6896
  146.2223  140.2750  142.8359 H   0  0  0  0  0  0  0  0  0  0  0  0  # atno 7974 bound_to 7965
  154.4822  140.0886  156.7404 H   0  0  0  0  0  0  0  0  0  0  0  0  # atno 8008 bound_to 7997
  155.4441  140.3455  155.4275 H   0  0  0  0  0  0  0  0  0  0  0  0  # atno 8009 bound_to 7997
  156.1208  140.1473  156.9195 H   0  0  0  0  0  0  0  0  0  0  0  0  # atno 8010 bound_to 7997
  140.1993  144.4004  150.6536 H   0  0  0  0  0  0  0  0  0  0  0  0  # atno 10167 bound_to 10162
  156.0511  130.4293  150.1985 H   0  0  0  0  0  0  0  0  0  0  0  0  # atno 10718 bound_to 10713
  154.7240  135.5083  153.8857 H   0  0  0  0  0  0  0  0  0  0  0  0  # atno 10763 bound_to 10752
  153.0888  135.6653  153.9904 H   0  0  0  0  0  0  0  0  0  0  0  0  # atno 10764 bound_to 10752
  153.9720  135.3037  155.3406 H   0  0  0  0  0  0  0  0  0  0  0  0  # atno 10765 bound_to 10752
  140.7516  133.8588  155.9049 H   0  0  0  0  0  0  0  0  0  0  0  0  # atno 11005 bound_to 11000
  144.9239  140.7900  143.5731 LP  0  0  0  0  0  0  0  0  0  0  0  0  # atno 17320 bound_to 7965
  145.2689  139.1962  143.4852 LP  0  0  0  0  0  0  0  0  0  0  0  0  # atno 17321 bound_to 7965
  140.6401  143.2202  151.6309 LP  0  0  0  0  0  0  0  0  0  0  0  0  # atno 17342 bound_to 10162
  139.5223  144.3165  152.0947 LP  0  0  0  0  0  0  0  0  0  0  0  0  # atno 17343 bound_to 10162
  157.0069  130.9939  151.3376 LP  0  0  0  0  0  0  0  0  0  0  0  0  # atno 17370 bound_to 10713
  157.5437  130.8136  149.8060 LP  0  0  0  0  0  0  0  0  0  0  0  0  # atno 17371 bound_to 10713
  140.9746  134.1486  157.4547 LP  0  0  0  0  0  0  0  0  0  0  0  0  # atno 17394 bound_to 11000
  139.8786  134.9990  156.5931 LP  0  0  0  0  0  0  0  0  0  0  0  0  # atno 17395 bound_to 11000

$$$$
