AV-unprocessed.smi:290|AV-procd|sdf|2231|dock6
  -GOLD-   2262022 93D 1   1.00000     0.00000
 Structure written by MMmdl.
 59 62  0  0  0  0  0  0  0  0  2 V2000
  152.6746  144.8330  158.3377 C   0  0  0  0  0  0  0  0  0  0  0  0
  152.0249  143.7552  159.2135 C   0  0  2  0  0  0  0  0  0  0  0  0
  153.0473  143.0911  159.9456 O   0  0  0  0  0  0  0  0  0  0  0  0
  152.5184  141.8592  160.3950 C   0  0  0  0  0  0  0  0  0  0  0  0
  151.8015  141.3561  159.1519 C   0  0  0  0  0  0  0  0  0  0  0  0
  151.2104  142.6200  158.5203 C   0  0  1  0  0  0  0  0  0  0  0  0
  149.8698  142.7225  158.9660 O   0  0  0  0  0  0  0  0  0  0  0  0
  151.2506  142.5101  156.9662 C   0  0  0  0  0  0  0  0  0  0  0  0
  150.1817  141.7333  156.3485 N   0  0  0  0  0  0  0  0  0  0  0  0
  148.8879  142.1412  156.1203 C   0  0  0  0  0  0  0  0  0  0  0  0
  148.1231  141.2650  155.5306 N   0  0  0  0  0  0  0  0  0  0  0  0
  148.9583  140.1804  155.2856 C   0  0  0  0  0  0  0  0  0  0  0  0
  148.7955  138.9020  154.6683 C   0  0  0  0  0  0  0  0  0  0  0  0
  147.6456  138.4253  154.1199 N   0  0  0  0  0  0  0  0  0  0  0  0
  146.8704  139.2579  153.2147 C   0  0  0  0  0  0  0  0  0  0  0  0
  146.2967  138.2918  152.1871 C   0  0  0  0  0  0  0  0  0  0  0  0
  146.1364  136.9718  152.9583 C   0  0  1  0  0  0  0  0  0  0  0  0
  146.1021  135.7939  152.0380 N   0  3  1  0  0  0  0  0  0  0  0  0
  145.8383  134.4944  152.7035 C   0  0  0  0  0  0  0  0  0  0  0  0
  145.2019  135.9945  150.8696 C   0  0  0  0  0  0  0  0  0  0  0  0
  143.7291  135.7416  151.2310 C   0  0  0  0  0  0  0  0  0  0  0  0
  143.3524  134.4418  150.8273 O   0  0  0  0  0  0  0  0  0  0  0  0
  147.3362  137.0092  153.9416 C   0  0  2  0  0  0  0  0  0  0  0  0
  147.0273  136.3571  155.3074 C   0  0  0  0  0  0  0  0  0  0  0  0
  149.8878  138.0951  154.6177 N   0  0  0  0  0  0  0  0  0  0  0  0
  151.0575  138.4988  155.1188 C   0  0  0  0  0  0  0  0  0  0  0  0
  151.3531  139.6539  155.7138 N   0  0  0  0  0  0  0  0  0  0  0  0
  150.2619  140.4684  155.7872 C   0  0  0  0  0  0  0  0  0  0  0  0
  145.2064  137.0107  153.5285 H   0  0  0  0  0  0  0  0  0  0  0  0
  148.1929  136.5326  153.4667 H   0  0  0  0  0  0  0  0  0  0  0  0
  151.9198  145.4528  157.8570 H   0  0  0  0  0  0  0  0  0  0  0  0
  153.3229  144.4043  157.5741 H   0  0  0  0  0  0  0  0  0  0  0  0
  153.2874  145.4981  158.9464 H   0  0  0  0  0  0  0  0  0  0  0  0
  151.4013  144.2606  159.9540 H   0  0  0  0  0  0  0  0  0  0  0  0
  153.3013  141.1817  160.7359 H   0  0  0  0  0  0  0  0  0  0  0  0
  151.8189  142.0274  161.2154 H   0  0  0  0  0  0  0  0  0  0  0  0
  152.5431  140.9137  158.4850 H   0  0  0  0  0  0  0  0  0  0  0  0
  151.0632  140.5834  159.3715 H   0  0  0  0  0  0  0  0  0  0  0  0
  149.3137  142.8676  158.2155 H   0  0  0  0  0  0  0  0  0  0  0  0
  151.2762  143.5002  156.5106 H   0  0  0  0  0  0  0  0  0  0  0  0
  152.1869  142.0348  156.6703 H   0  0  0  0  0  0  0  0  0  0  0  0
  148.5211  143.1156  156.4079 H   0  0  0  0  0  0  0  0  0  0  0  0
  146.0736  139.7436  153.7791 H   0  0  0  0  0  0  0  0  0  0  0  0
  147.4692  140.0312  152.7316 H   0  0  0  0  0  0  0  0  0  0  0  0
  145.3677  138.6670  151.7588 H   0  0  0  0  0  0  0  0  0  0  0  0
  147.0136  138.1653  151.3740 H   0  0  0  0  0  0  0  0  0  0  0  0
  144.8859  134.5145  153.2343 H   0  0  0  0  0  0  0  0  0  0  0  0
  146.6294  134.2382  153.4072 H   0  0  0  0  0  0  0  0  0  0  0  0
  145.7971  133.6811  151.9797 H   0  0  0  0  0  0  0  0  0  0  0  0
  145.3273  137.0074  150.4842 H   0  0  0  0  0  0  0  0  0  0  0  0
  145.4643  135.3377  150.0412 H   0  0  0  0  0  0  0  0  0  0  0  0
  143.5413  135.8637  152.2973 H   0  0  0  0  0  0  0  0  0  0  0  0
  143.0926  136.4589  150.7121 H   0  0  0  0  0  0  0  0  0  0  0  0
  142.6410  134.5120  150.2081 H   0  0  0  0  0  0  0  0  0  0  0  0
  146.8169  135.2932  155.2252 H   0  0  0  0  0  0  0  0  0  0  0  0
  146.1619  136.8256  155.7770 H   0  0  0  0  0  0  0  0  0  0  0  0
  147.8608  136.4586  156.0016 H   0  0  0  0  0  0  0  0  0  0  0  0
  151.8727  137.7960  155.0291 H   0  0  0  0  0  0  0  0  0  0  0  0
  147.0350  135.7292  151.6554 H   0  0  0  0  0  0  0  0  0  0  0  0
  1  2  1  0  0  0  0
  1 31  1  0  0  0  0
  1 32  1  0  0  0  0
  1 33  1  0  0  0  0
  2  6  1  0  0  0  0
  2  3  1  0  0  0  0
  2 34  1  0  0  0  0
  3  4  1  0  0  0  0
  4  5  1  0  0  0  0
  4 35  1  0  0  0  0
  4 36  1  0  0  0  0
  5  6  1  0  0  0  0
  5 37  1  0  0  0  0
  5 38  1  0  0  0  0
  6  7  1  0  0  0  0
  6  8  1  0  0  0  0
  7 39  1  0  0  0  0
  8  9  1  0  0  0  0
  8 40  1  0  0  0  0
  8 41  1  0  0  0  0
  9 28  1  0  0  0  0
  9 10  1  0  0  0  0
 10 11  2  0  0  0  0
 10 42  1  0  0  0  0
 11 12  1  0  0  0  0
 12 28  2  0  0  0  0
 12 13  1  0  0  0  0
 13 14  1  0  0  0  0
 13 25  2  0  0  0  0
 14 23  1  0  0  0  0
 14 15  1  0  0  0  0
 15 16  1  0  0  0  0
 15 43  1  0  0  0  0
 15 44  1  0  0  0  0
 16 17  1  0  0  0  0
 16 45  1  0  0  0  0
 16 46  1  0  0  0  0
 17 29  1  0  0  0  0
 17 18  1  0  0  0  0
 17 23  1  0  0  0  0
 18 19  1  0  0  0  0
 18 20  1  0  0  0  0
 18 59  1  0  0  0  0
 19 47  1  0  0  0  0
 19 48  1  0  0  0  0
 19 49  1  0  0  0  0
 20 21  1  0  0  0  0
 20 50  1  0  0  0  0
 20 51  1  0  0  0  0
 21 22  1  0  0  0  0
 21 52  1  0  0  0  0
 21 53  1  0  0  0  0
 22 54  1  0  0  0  0
 23 30  1  0  0  0  0
 23 24  1  0  0  0  0
 24 55  1  0  0  0  0
 24 56  1  0  0  0  0
 24 57  1  0  0  0  0
 25 26  1  0  0  0  0
 26 27  2  0  0  0  0
 26 58  1  0  0  0  0
 27 28  1  0  0  0  0
M  CHG  1  18   1
M  END
> <s_m_source_file>
AV-unprocessed.smi

> <i_m_source_file_index>
290

> <i_lp_mmshare_version>
43012

> <i_f3d_flags>
0

> <s_epik_input>
W0NIMl0xW0NIMl1PW0NAQEhdKFtDSDNdKVtDQEBdMShbT0hdKVtDSDJdbihbY0hdbjIpYyhjMjMpbltjSF1uYzNONFtDSDJdW0NIMl1bQ0BIXShbQ0BIXTRbQ0gzXSlOKFtDSDNdKVtDSDJdW0NIMl1bT0hd

> <s_epik_cmdline>
J2VwaWtfcHl0aG9uJywgJy1waCcsICc3LjAnLCAnLXRuJywgJzgnLCAnLW1hJywgJzIwMCcsICctbWV0YWxfYmluZGluZycsICctaW1hZScsICc8aW5maWxlLm1hZT4nLCAnLW9tYWUnLCAnPG91dGZpbGUubWFlPic=

> <r_lp_tautomer_probability>
1

> <r_epik_Ionization_Penalty>
0.0036983

> <r_epik_Ionization_Penalty_Charging>
0.0032725

> <r_epik_Ionization_Penalty_Neutral>
0.000425798

> <r_epik_State_Penalty>
-0

> <r_epik_Charging_Adjusted_Penalty>
0.0032725

> <i_epik_Tot_Q>
1

> <i_epik_Tot_abs_Q>
1

> <r_epik_Metal_State_Penalty>
-0

> <b_epik_Metal_Only>
0

> <s_lp_Force_Field>
OPLS_2005

> <r_lp_Energy>
63.0436

> <b_lp_Chiralities_Consistent>
1

> <s_lp_Variant>
AV-unprocessed.smi:290-17

> <Gold.Version>
5.8.1

> <Gold.Id.Protein>
6NUR|6NUR_protein|mol2

> <Gold.PLP.Fitness>
48.7653

> <Gold.PLP.PLP>
-40.2694

> <Gold.PLP.part.hbond>
-3.0000

> <Gold.PLP.part.metal>
0.0000

> <Gold.PLP.part.buried>
-1.6040

> <Gold.PLP.part.nonpolar>
-37.7580

> <Gold.PLP.part.repulsive>
0.2862

> <Gold.PLP.ligand.clash>
0.0000

> <Gold.PLP.ligand.torsion>
1.5785

> <Gold.PLP.Chemscore.Hbond>
2.8880

> <Gold.PLP.Chemscore.CHOScore>
0.8778

> <Gold.PLP.Chemscore.Metal>
0.0000

> <Gold.Chemscore.Hbonds>
donor molecule, donor type, donor heavy atom, donor atom, acceptor molecule, acceptor atom, score
      L1  H    18    59       P1  7948  1.92
      L1  H    22    54       P1 10186  1.00
      L1  C    10    42       P1  8028  0.41

> <Gold.PLP.Chemscore.Internal.Correction>
0.3554

> <Gold.Rescore>
     Score         DG    S(hbond)    S(metal)    S(lipo)     H(rot)  DE(clash)    DE(int)     intcor
     10.68     -14.99       1.89        0.00     100.72       3.35       2.69       1.62       ----

> <Gold.Chemscore.Fitness>
10.6803

> <Gold.Chemscore.DG>
-14.9928

> <Gold.Chemscore.ZeroCoef>
-5.4800

> <Gold.Chemscore.Hbond>
1.8890

> <Gold.Chemscore.Metal>
0.0000

> <Gold.Chemscore.Lipo>
100.7201

> <Gold.Chemscore.Internal_Hbond>
0.0000

> <Gold.Chemscore.DEClash>
2.6940

> <Gold.Chemscore.DEInternal>
1.6186

> <Gold.Chemscore.Rot>
3.3518

> <Gold.Chemscore.Internal.Correction>
   9.000000E+99

> <Gold.Chemscore.Hbonds>
donor molecule, donor type, donor heavy atom, donor atom, acceptor molecule, acceptor atom, score
      L1  H    18    59       P1  7948  0.91
      L1  H    22    54       P1 10186  0.65

> <Gold.Chemscore.Hbond.Weighted>
-6.3091

> <Gold.Chemscore.Metal.Weighted>
-0.0000

> <Gold.Chemscore.Lipo.Weighted>
-11.7842

> <Gold.Chemscore.Internal_Hbond.Weighted>
0.0000

> <Gold.Chemscore.DEClash.Weighted>
2.6940

> <Gold.Chemscore.DEInternal.Weighted>
1.6186

> <Gold.Chemscore.Rot.Weighted>
8.5806

> <Gold.Chemscore.Internal.Correction.Weighted>
   9.000000E+99

> <Gold.Protein.RotatedTorsions>
[ 6907 6896 6895 6894 ] final  -88.19 input  -60.11 | X-H torsion
[ 7974 7965 7964 7962 ] final  -69.55 input  175.53 | X-H torsion
[ 8008 7997 7996 7995 ] final  -14.85 input   59.86 | X-H torsion
[ 10167 10162 10161 10158 ] final -141.00 input  -65.29 | X-H torsion
[ 10718 10713 10712 10709 ] final -120.58 input   66.30 | X-H torsion
[ 10763 10752 10751 10750 ] final -161.44 input  -60.55 | X-H torsion
[ 11005 11000 10999 10996 ] final  -67.54 input  -57.11 | X-H torsion

> <Gold.Protein.ActiveResidues>
 VAL166  LYS551  ARG553  GLY616  TRP617  ASP618  TYR619  PRO620  LYS621  CYS622 
 ASP623  PHE694  ASN695  SER759  ASP760  ASP761  ALA762  ILE779  LEU786  VAL792 
 PHE793  MET794  SER795  GLU796  ALA797  LYS798  CYS799  TRP800  GLU811  SER814 

> <Gold.Protein.RotatedAtoms>
  150.6868  134.2780  159.4615 H   0  0  0  0  0  0  0  0  0  0  0  0  # atno 6907 bound_to 6896
  152.0697  134.9539  160.0584 H   0  0  0  0  0  0  0  0  0  0  0  0  # atno 6908 bound_to 6896
  152.0934  133.4177  159.4591 H   0  0  0  0  0  0  0  0  0  0  0  0  # atno 6909 bound_to 6896
  145.7024  140.9111  143.0724 H   0  0  0  0  0  0  0  0  0  0  0  0  # atno 7974 bound_to 7965
  154.5177  140.2212  155.9034 H   0  0  0  0  0  0  0  0  0  0  0  0  # atno 8008 bound_to 7997
  156.1626  140.3139  155.8799 H   0  0  0  0  0  0  0  0  0  0  0  0  # atno 8009 bound_to 7997
  155.3720  140.0467  157.3036 H   0  0  0  0  0  0  0  0  0  0  0  0  # atno 8010 bound_to 7997
  139.8227  143.7552  152.2666 H   0  0  0  0  0  0  0  0  0  0  0  0  # atno 10167 bound_to 10162
  156.1269  130.6366  150.9558 H   0  0  0  0  0  0  0  0  0  0  0  0  # atno 10718 bound_to 10713
  154.7303  135.3045  154.8903 H   0  0  0  0  0  0  0  0  0  0  0  0  # atno 10763 bound_to 10752
  153.9748  135.6737  153.4752 H   0  0  0  0  0  0  0  0  0  0  0  0  # atno 10764 bound_to 10752
  153.0912  135.4958  154.8614 H   0  0  0  0  0  0  0  0  0  0  0  0  # atno 10765 bound_to 10752
  141.1510  133.6721  156.6309 H   0  0  0  0  0  0  0  0  0  0  0  0  # atno 11005 bound_to 11000
  144.6965  139.8965  143.7456 LP  0  0  0  0  0  0  0  0  0  0  0  0  # atno 17320 bound_to 7965
  146.0786  139.3774  143.0478 LP  0  0  0  0  0  0  0  0  0  0  0  0  # atno 17321 bound_to 7965
  139.7735  144.7469  151.0190 LP  0  0  0  0  0  0  0  0  0  0  0  0  # atno 17342 bound_to 10162
  140.7812  143.4619  151.0266 LP  0  0  0  0  0  0  0  0  0  0  0  0  # atno 17343 bound_to 10162
  157.6450  131.0905  150.8171 LP  0  0  0  0  0  0  0  0  0  0  0  0  # atno 17370 bound_to 10713
  156.8261  130.5000  149.5337 LP  0  0  0  0  0  0  0  0  0  0  0  0  # atno 17371 bound_to 10713
  140.3467  134.7803  157.4437 LP  0  0  0  0  0  0  0  0  0  0  0  0  # atno 17394 bound_to 11000
  140.0893  134.5622  155.8460 LP  0  0  0  0  0  0  0  0  0  0  0  0  # atno 17395 bound_to 11000

$$$$
