AV-unprocessed.smi:3330|AV-procd|sdf|12802|dock2
  -GOLD-   2272019163D 1   1.00000     0.00000
 Structure written by MMmdl.
 39 40  0  0  0  0  0  0  0  0  2 V2000
  149.1276  143.8732  159.0750 C   0  0  0  0  0  0  0  0  0  0  0  0
  150.4114  143.0555  158.8163 C   0  0  1  0  0  0  0  0  0  0  0  0
  150.5685  142.7894  157.3674 N   0  3  0  0  0  0  0  0  0  0  0  0
  150.1164  141.4597  156.9092 C   0  0  0  0  0  0  0  0  0  0  0  0
  150.2036  141.3550  155.3789 C   0  0  0  0  0  0  0  0  0  0  0  0
  150.4843  139.9820  154.9510 N   0  0  0  0  0  0  0  0  0  0  0  0
  151.6410  139.3454  155.1753 C   0  0  0  0  0  0  0  0  0  0  0  0
  152.6339  139.7821  155.7560 O   0  0  0  0  0  0  0  0  0  0  0  0
  151.5491  137.9587  154.5768 C   0  0  0  0  0  0  0  0  0  0  0  0
  150.2115  138.0286  154.0286 N   0  0  0  0  0  0  0  0  0  0  0  0
  149.6257  139.2107  154.2595 C   0  0  0  0  0  0  0  0  0  0  0  0
  148.4957  139.5273  153.8910 O   0  0  0  0  0  0  0  0  0  0  0  0
  151.6884  143.7527  159.3579 C   0  0  2  0  0  0  0  0  0  0  0  0
  152.3668  144.6481  158.3024 C   0  0  0  0  0  0  0  0  0  0  0  0
  152.6518  142.8018  159.8992 N   0  0  0  0  0  0  0  0  0  0  0  0
  153.1000  142.6864  161.1992 C   0  0  0  0  0  0  0  0  0  0  0  0
  153.9940  141.6551  161.2336 C   0  0  0  0  0  0  0  0  0  0  0  0
  154.0307  141.1944  159.8883 C   0  0  0  0  0  0  0  0  0  0  0  0
  153.2265  141.8808  159.0925 N   0  0  0  0  0  0  0  0  0  0  0  0
  148.9549  144.0308  160.1397 H   0  0  0  0  0  0  0  0  0  0  0  0
  148.2403  143.3691  158.6934 H   0  0  0  0  0  0  0  0  0  0  0  0
  149.1815  144.8535  158.6006 H   0  0  0  0  0  0  0  0  0  0  0  0
  150.3122  142.0962  159.3273 H   0  0  0  0  0  0  0  0  0  0  0  0
  150.0819  143.5058  156.8478 H   0  0  0  0  0  0  0  0  0  0  0  0
  150.7364  140.6898  157.3705 H   0  0  0  0  0  0  0  0  0  0  0  0
  149.0901  141.2855  157.2321 H   0  0  0  0  0  0  0  0  0  0  0  0
  149.2709  141.6993  154.9282 H   0  0  0  0  0  0  0  0  0  0  0  0
  150.9778  142.0263  155.0024 H   0  0  0  0  0  0  0  0  0  0  0  0
  152.2966  137.8041  153.7982 H   0  0  0  0  0  0  0  0  0  0  0  0
  151.6312  137.1839  155.3397 H   0  0  0  0  0  0  0  0  0  0  0  0
  149.7820  137.2641  153.5274 H   0  0  0  0  0  0  0  0  0  0  0  0
  151.3904  144.3953  160.1881 H   0  0  0  0  0  0  0  0  0  0  0  0
  151.7077  145.4505  157.9712 H   0  0  0  0  0  0  0  0  0  0  0  0
  152.6606  144.0772  157.4209 H   0  0  0  0  0  0  0  0  0  0  0  0
  153.2647  145.1158  158.7075 H   0  0  0  0  0  0  0  0  0  0  0  0
  152.7491  143.3399  161.9844 H   0  0  0  0  0  0  0  0  0  0  0  0
  154.5398  141.2866  162.0895 H   0  0  0  0  0  0  0  0  0  0  0  0
  154.6132  140.3870  159.4694 H   0  0  0  0  0  0  0  0  0  0  0  0
  151.5538  142.8554  157.1549 H   0  0  0  0  0  0  0  0  0  0  0  0
  1  2  1  0  0  0  0
  1 20  1  0  0  0  0
  1 21  1  0  0  0  0
  1 22  1  0  0  0  0
  2  3  1  0  0  0  0
  2 13  1  0  0  0  0
  2 23  1  0  0  0  0
  3  4  1  0  0  0  0
  3 24  1  0  0  0  0
  3 39  1  0  0  0  0
  4  5  1  0  0  0  0
  4 25  1  0  0  0  0
  4 26  1  0  0  0  0
  5  6  1  0  0  0  0
  5 27  1  0  0  0  0
  5 28  1  0  0  0  0
  6 11  1  0  0  0  0
  6  7  1  0  0  0  0
  7  8  2  0  0  0  0
  7  9  1  0  0  0  0
  9 10  1  0  0  0  0
  9 29  1  0  0  0  0
  9 30  1  0  0  0  0
 10 11  1  0  0  0  0
 10 31  1  0  0  0  0
 11 12  2  0  0  0  0
 13 14  1  0  0  0  0
 13 15  1  0  0  0  0
 13 32  1  0  0  0  0
 14 33  1  0  0  0  0
 14 34  1  0  0  0  0
 14 35  1  0  0  0  0
 15 19  1  0  0  0  0
 15 16  1  0  0  0  0
 16 17  2  0  0  0  0
 16 36  1  0  0  0  0
 17 18  1  0  0  0  0
 17 37  1  0  0  0  0
 18 19  2  0  0  0  0
 18 38  1  0  0  0  0
M  CHG  1   3   1
M  END
> <s_m_source_file>
AV-unprocessed.smi

> <i_m_source_file_index>
3330

> <i_lp_mmshare_version>
43012

> <i_f3d_flags>
0

> <s_epik_input>
bjFbY0hdW2NIXVtjSF1uMVtDQEBIXShbQ0gzXSlbQ0BIXShbQ0gzXSlbTkhdW0NIMl1bQ0gyXU4yQyg9TylbQ0gyXVtOSF1DMj1P

> <s_epik_cmdline>
J2VwaWtfcHl0aG9uJywgJy1waCcsICc3LjAnLCAnLXRuJywgJzgnLCAnLW1hJywgJzIwMCcsICctbWV0YWxfYmluZGluZycsICctaW1hZScsICc8aW5maWxlLm1hZT4nLCAnLW9tYWUnLCAnPG91dGZpbGUubWFlPic=

> <r_lp_tautomer_probability>
1

> <r_epik_Ionization_Penalty>
0.0124905

> <r_epik_Ionization_Penalty_Charging>
0.0123685

> <r_epik_Ionization_Penalty_Neutral>
0.000122059

> <r_epik_State_Penalty>
0.00957041

> <r_epik_Charging_Adjusted_Penalty>
0.0219389

> <i_epik_Tot_Q>
1

> <i_epik_Tot_abs_Q>
1

> <r_epik_Metal_State_Penalty>
0.0858301

> <b_epik_Metal_Only>
0

> <s_lp_Force_Field>
OPLS_2005

> <r_lp_Energy>
24.6959

> <b_lp_Chiralities_Consistent>
1

> <s_lp_Variant>
AV-unprocessed.smi:3330-2

> <Gold.Version>
5.8.1

> <Gold.Id.Protein>
6NUR|6NUR_protein|mol2

> <Gold.PLP.Fitness>
52.4082

> <Gold.PLP.PLP>
-43.5519

> <Gold.PLP.part.hbond>
-3.0000

> <Gold.PLP.part.metal>
0.0000

> <Gold.PLP.part.buried>
-0.0560

> <Gold.PLP.part.nonpolar>
-39.7293

> <Gold.PLP.part.repulsive>
0.7745

> <Gold.PLP.ligand.clash>
0.0000

> <Gold.PLP.ligand.torsion>
1.6948

> <Gold.PLP.Chemscore.Hbond>
4.0000

> <Gold.PLP.Chemscore.CHOScore>
0.0000

> <Gold.PLP.Chemscore.Metal>
0.0000

> <Gold.Chemscore.Hbonds>
donor molecule, donor type, donor heavy atom, donor atom, acceptor molecule, acceptor atom, score
      L1  H     3    24       P1  8028  1.82
      L1  H    10    31       P1  7948  0.84
      P1  H  7997  8008       L1     8  1.00

> <Gold.PLP.Chemscore.Internal.Correction>
0.2460

> <Gold.Rescore>
     Score         DG    S(hbond)    S(metal)    S(lipo)     H(rot)  DE(clash)    DE(int)     intcor
     15.71     -18.16       2.69        0.00      90.03       2.67       0.72       1.73       ----

> <Gold.Chemscore.Fitness>
15.7105

> <Gold.Chemscore.DG>
-18.1640

> <Gold.Chemscore.ZeroCoef>
-5.4800

> <Gold.Chemscore.Hbond>
2.6877

> <Gold.Chemscore.Metal>
0.0000

> <Gold.Chemscore.Lipo>
90.0304

> <Gold.Chemscore.Internal_Hbond>
0.0000

> <Gold.Chemscore.DEClash>
0.7224

> <Gold.Chemscore.DEInternal>
1.7311

> <Gold.Chemscore.Rot>
2.6666

> <Gold.Chemscore.Internal.Correction>
   9.000000E+99

> <Gold.Chemscore.Hbonds>
donor molecule, donor type, donor heavy atom, donor atom, acceptor molecule, acceptor atom, score
      L1  H     3    24       P1  8028  0.87
      L1  H    10    31       P1  7948  0.53
      P1  H  7997  8008       L1     8  1.00

> <Gold.Chemscore.Hbond.Weighted>
-8.9769

> <Gold.Chemscore.Metal.Weighted>
-0.0000

> <Gold.Chemscore.Lipo.Weighted>
-10.5336

> <Gold.Chemscore.Internal_Hbond.Weighted>
0.0000

> <Gold.Chemscore.DEClash.Weighted>
0.7224

> <Gold.Chemscore.DEInternal.Weighted>
1.7311

> <Gold.Chemscore.Rot.Weighted>
6.8265

> <Gold.Chemscore.Internal.Correction.Weighted>
   9.000000E+99

> <Gold.Protein.RotatedTorsions>
[ 6907 6896 6895 6894 ] final   54.45 input  -60.11 | X-H torsion
[ 7974 7965 7964 7962 ] final  155.91 input  175.53 | X-H torsion
[ 8008 7997 7996 7995 ] final  -36.49 input   59.86 | X-H torsion
[ 10167 10162 10161 10158 ] final   19.72 input  -65.29 | X-H torsion
[ 10718 10713 10712 10709 ] final  105.59 input   66.30 | X-H torsion
[ 10763 10752 10751 10750 ] final  144.03 input  -60.55 | X-H torsion
[ 11005 11000 10999 10996 ] final  -81.86 input  -57.11 | X-H torsion

> <Gold.Protein.ActiveResidues>
 VAL166  LYS551  ARG553  GLY616  TRP617  ASP618  TYR619  PRO620  LYS621  CYS622 
 ASP623  PHE694  ASN695  SER759  ASP760  ASP761  ALA762  ILE779  LEU786  VAL792 
 PHE793  MET794  SER795  GLU796  ALA797  LYS798  CYS799  TRP800  GLU811  SER814 

> <Gold.Protein.RotatedAtoms>
  152.3440  134.7096  160.0255 H   0  0  0  0  0  0  0  0  0  0  0  0  # atno 6907 bound_to 6896
  151.7472  133.3320  159.3389 H   0  0  0  0  0  0  0  0  0  0  0  0  # atno 6908 bound_to 6896
  150.7497  134.6158  159.6154 H   0  0  0  0  0  0  0  0  0  0  0  0  # atno 6909 bound_to 6896
  144.7995  139.7132  143.6188 H   0  0  0  0  0  0  0  0  0  0  0  0  # atno 7974 bound_to 7965
  154.4072  140.1629  156.2382 H   0  0  0  0  0  0  0  0  0  0  0  0  # atno 8008 bound_to 7997
  155.9224  140.3420  155.6160 H   0  0  0  0  0  0  0  0  0  0  0  0  # atno 8009 bound_to 7997
  155.7206  140.0768  157.2323 H   0  0  0  0  0  0  0  0  0  0  0  0  # atno 8010 bound_to 7997
  140.5558  143.9428  150.6608 H   0  0  0  0  0  0  0  0  0  0  0  0  # atno 10167 bound_to 10162
  157.6700  131.0831  150.5879 H   0  0  0  0  0  0  0  0  0  0  0  0  # atno 10718 bound_to 10713
  153.9822  135.2940  155.3419 H   0  0  0  0  0  0  0  0  0  0  0  0  # atno 10763 bound_to 10752
  154.7262  135.5087  153.8894 H   0  0  0  0  0  0  0  0  0  0  0  0  # atno 10764 bound_to 10752
  153.0849  135.6690  154.0084 H   0  0  0  0  0  0  0  0  0  0  0  0  # atno 10765 bound_to 10752
  141.1665  133.7216  156.8485 H   0  0  0  0  0  0  0  0  0  0  0  0  # atno 11005 bound_to 11000
  146.2273  139.5747  142.9578 LP  0  0  0  0  0  0  0  0  0  0  0  0  # atno 17320 bound_to 7965
  145.5588  141.0406  143.2238 LP  0  0  0  0  0  0  0  0  0  0  0  0  # atno 17321 bound_to 7965
  140.2865  143.3353  152.1102 LP  0  0  0  0  0  0  0  0  0  0  0  0  # atno 17342 bound_to 10162
  139.5047  144.6781  151.6079 LP  0  0  0  0  0  0  0  0  0  0  0  0  # atno 17343 bound_to 10162
  156.6180  130.4398  149.5833 LP  0  0  0  0  0  0  0  0  0  0  0  0  # atno 17370 bound_to 10713
  156.2378  130.6833  151.1526 LP  0  0  0  0  0  0  0  0  0  0  0  0  # atno 17371 bound_to 10713
  140.1932  134.8950  157.3085 LP  0  0  0  0  0  0  0  0  0  0  0  0  # atno 17394 bound_to 11000
  140.2267  134.3958  155.7540 LP  0  0  0  0  0  0  0  0  0  0  0  0  # atno 17395 bound_to 11000

$$$$
