AV-unprocessed.smi:2883|AV-procd|sdf|11082|dock5
  -GOLD-   2272015553D 1   1.00000     0.00000
 Structure written by MMmdl.
 39 41  0  0  0  0  0  0  0  0  1 V2000
  153.2287  138.4016  155.0502 C   0  0  0  0  0  0  0  0  0  0  0  0
  152.1351  138.6132  156.1130 C   0  0  0  0  0  0  0  0  0  0  0  0
  151.3315  137.3041  156.2983 C   0  0  0  0  0  0  0  0  0  0  0  0
  152.7932  138.9094  157.4812 C   0  0  0  0  0  0  0  0  0  0  0  0
  151.2154  139.7672  155.6788 C   0  0  0  0  0  0  0  0  0  0  0  0
  150.3933  139.5423  154.6452 N   0  0  0  0  0  0  0  0  0  0  0  0
  149.4963  140.5040  154.3409 C   0  0  0  0  0  0  0  0  0  0  0  0
  149.3948  141.6891  155.0947 C   0  0  0  0  0  0  0  0  0  0  0  0
  150.2747  141.8141  156.1878 C   0  0  0  0  0  0  0  0  0  0  0  0
  150.2201  142.9620  156.9902 N   0  0  0  0  0  0  0  0  0  0  0  0
  150.7664  142.9585  158.3431 C   0  0  1  0  0  0  0  0  0  0  0  0
  152.2285  142.4975  158.4013 C   0  0  0  0  0  0  0  0  0  0  0  0
  152.9062  143.6810  159.1025 C   0  0  2  0  0  0  0  0  0  0  0  0
  152.4886  143.8033  160.5744 C   0  0  0  0  0  0  0  0  0  0  0  0
  151.0589  144.3298  160.4506 C   0  0  0  0  0  0  0  0  0  0  0  0
  150.8700  144.3771  158.9283 C   0  0  1  0  0  0  0  0  0  0  0  0
  152.1789  144.7546  158.5325 O   0  0  0  0  0  0  0  0  0  0  0  0
  151.1668  140.8395  156.4796 N   0  0  0  0  0  0  0  0  0  0  0  0
  153.8983  137.5860  155.3245 H   0  0  0  0  0  0  0  0  0  0  0  0
  153.8360  139.2985  154.9231 H   0  0  0  0  0  0  0  0  0  0  0  0
  152.7952  138.1590  154.0793 H   0  0  0  0  0  0  0  0  0  0  0  0
  150.8810  136.9644  155.3649 H   0  0  0  0  0  0  0  0  0  0  0  0
  150.5282  137.4307  157.0252 H   0  0  0  0  0  0  0  0  0  0  0  0
  151.9693  136.4936  156.6527 H   0  0  0  0  0  0  0  0  0  0  0  0
  153.4098  138.0737  157.8146 H   0  0  0  0  0  0  0  0  0  0  0  0
  152.0431  139.0906  158.2518 H   0  0  0  0  0  0  0  0  0  0  0  0
  153.4444  139.7832  157.4411 H   0  0  0  0  0  0  0  0  0  0  0  0
  148.8510  140.3238  153.4940 H   0  0  0  0  0  0  0  0  0  0  0  0
  148.6742  142.4548  154.8480 H   0  0  0  0  0  0  0  0  0  0  0  0
  149.9515  143.8449  156.5803 H   0  0  0  0  0  0  0  0  0  0  0  0
  150.1297  142.3442  158.9815 H   0  0  0  0  0  0  0  0  0  0  0  0
  152.3520  141.5616  158.9473 H   0  0  0  0  0  0  0  0  0  0  0  0
  152.6489  142.3638  157.4034 H   0  0  0  0  0  0  0  0  0  0  0  0
  153.9832  143.7315  158.9409 H   0  0  0  0  0  0  0  0  0  0  0  0
  152.5455  142.8495  161.1001 H   0  0  0  0  0  0  0  0  0  0  0  0
  153.1169  144.5231  161.1000 H   0  0  0  0  0  0  0  0  0  0  0  0
  150.3264  143.6899  160.9436 H   0  0  0  0  0  0  0  0  0  0  0  0
  150.9822  145.3294  160.8799 H   0  0  0  0  0  0  0  0  0  0  0  0
  150.0815  145.0594  158.6083 H   0  0  0  0  0  0  0  0  0  0  0  0
  1  2  1  0  0  0  0
  1 19  1  0  0  0  0
  1 20  1  0  0  0  0
  1 21  1  0  0  0  0
  2  3  1  0  0  0  0
  2  4  1  0  0  0  0
  2  5  1  0  0  0  0
  3 22  1  0  0  0  0
  3 23  1  0  0  0  0
  3 24  1  0  0  0  0
  4 25  1  0  0  0  0
  4 26  1  0  0  0  0
  4 27  1  0  0  0  0
  5 18  1  0  0  0  0
  5  6  2  0  0  0  0
  6  7  1  0  0  0  0
  7  8  2  0  0  0  0
  7 28  1  0  0  0  0
  8  9  1  0  0  0  0
  8 29  1  0  0  0  0
  9 10  1  0  0  0  0
  9 18  2  0  0  0  0
 10 11  1  0  0  0  0
 10 30  1  0  0  0  0
 11 16  1  0  0  0  0
 11 12  1  0  0  0  0
 11 31  1  0  0  0  0
 12 13  1  0  0  0  0
 12 32  1  0  0  0  0
 12 33  1  0  0  0  0
 13 17  1  0  0  0  0
 13 14  1  0  0  0  0
 13 34  1  0  0  0  0
 14 15  1  0  0  0  0
 14 35  1  0  0  0  0
 14 36  1  0  0  0  0
 15 16  1  0  0  0  0
 15 37  1  0  0  0  0
 15 38  1  0  0  0  0
 16 17  1  0  0  0  0
 16 39  1  0  0  0  0
M  END
> <s_m_source_file>
AV-unprocessed.smi

> <i_m_source_file_index>
2883

> <i_lp_mmshare_version>
43012

> <i_f3d_flags>
0

> <s_epik_input>
W0NIM11DKFtDSDNdKShbQ0gzXSljMW5bY0hdW2NIXWMobjEpW05IXVtDQEhdKFtDSDJdW0NAQEhdMjMpW0NAQEhdKE8zKVtDSDJdW0NIMl0y

> <s_epik_cmdline>
J2VwaWtfcHl0aG9uJywgJy1waCcsICc3LjAnLCAnLXRuJywgJzgnLCAnLW1hJywgJzIwMCcsICctbWV0YWxfYmluZGluZycsICctaW1hZScsICc8aW5maWxlLm1hZT4nLCAnLW9tYWUnLCAnPG91dGZpbGUubWFlPic=

> <r_lp_tautomer_probability>
1

> <r_epik_Ionization_Penalty>
0.453006

> <r_epik_Ionization_Penalty_Charging>
0

> <r_epik_Ionization_Penalty_Neutral>
0.453006

> <r_epik_State_Penalty>
0.455155

> <r_epik_Charging_Adjusted_Penalty>
0.455155

> <i_epik_Tot_Q>
0

> <i_epik_Tot_abs_Q>
0

> <r_epik_Metal_State_Penalty>
0.255592

> <b_epik_Metal_Only>
0

> <s_lp_Force_Field>
OPLS_2005

> <r_lp_Energy>
33.3257

> <b_lp_Chiralities_Consistent>
1

> <s_lp_Variant>
AV-unprocessed.smi:2883-8

> <Gold.Version>
5.8.1

> <Gold.Id.Protein>
6NUR|6NUR_protein|mol2

> <Gold.PLP.Fitness>
40.3496

> <Gold.PLP.PLP>
-35.1764

> <Gold.PLP.part.hbond>
-1.6490

> <Gold.PLP.part.metal>
0.0000

> <Gold.PLP.part.buried>
-2.0355

> <Gold.PLP.part.nonpolar>
-31.6885

> <Gold.PLP.part.repulsive>
0.1899

> <Gold.PLP.ligand.clash>
0.0000

> <Gold.PLP.ligand.torsion>
0.3468

> <Gold.PLP.Chemscore.Hbond>
1.0000

> <Gold.PLP.Chemscore.CHOScore>
0.9041

> <Gold.PLP.Chemscore.Metal>
0.0000

> <Gold.Chemscore.Hbonds>
donor molecule, donor type, donor heavy atom, donor atom, acceptor molecule, acceptor atom, score
      L1  H    10    30       P1  8028  1.00
      L1  C     7    28       P1  7957  0.91

> <Gold.PLP.Chemscore.Internal.Correction>
0.1544

> <Gold.Rescore>
     Score         DG    S(hbond)    S(metal)    S(lipo)     H(rot)  DE(clash)    DE(int)     intcor
     16.26     -17.91       0.97        0.00     103.72       1.15       0.02       1.63       ----

> <Gold.Chemscore.Fitness>
16.2632

> <Gold.Chemscore.DG>
-17.9093

> <Gold.Chemscore.ZeroCoef>
-5.4800

> <Gold.Chemscore.Hbond>
0.9681

> <Gold.Chemscore.Metal>
0.0000

> <Gold.Chemscore.Lipo>
103.7183

> <Gold.Chemscore.Internal_Hbond>
0.0000

> <Gold.Chemscore.DEClash>
0.0199

> <Gold.Chemscore.DEInternal>
1.6262

> <Gold.Chemscore.Rot>
1.1482

> <Gold.Chemscore.Internal.Correction>
   9.000000E+99

> <Gold.Chemscore.Hbonds>
donor molecule, donor type, donor heavy atom, donor atom, acceptor molecule, acceptor atom, score
      L1  H    10    30       P1  8028  0.94

> <Gold.Chemscore.Hbond.Weighted>
-3.2335

> <Gold.Chemscore.Metal.Weighted>
-0.0000

> <Gold.Chemscore.Lipo.Weighted>
-12.1350

> <Gold.Chemscore.Internal_Hbond.Weighted>
0.0000

> <Gold.Chemscore.DEClash.Weighted>
0.0199

> <Gold.Chemscore.DEInternal.Weighted>
1.6262

> <Gold.Chemscore.Rot.Weighted>
2.9393

> <Gold.Chemscore.Internal.Correction.Weighted>
   9.000000E+99

> <Gold.Protein.RotatedTorsions>
[ 6907 6896 6895 6894 ] final  -93.93 input  -60.11 | X-H torsion
[ 7974 7965 7964 7962 ] final   91.67 input  175.53 | X-H torsion
[ 8008 7997 7996 7995 ] final -130.61 input   59.86 | X-H torsion
[ 10167 10162 10161 10158 ] final   60.57 input  -65.29 | X-H torsion
[ 10718 10713 10712 10709 ] final   12.74 input   66.30 | X-H torsion
[ 10763 10752 10751 10750 ] final  164.10 input  -60.55 | X-H torsion
[ 11005 11000 10999 10996 ] final  -31.17 input  -57.11 | X-H torsion

> <Gold.Protein.ActiveResidues>
 VAL166  LYS551  ARG553  GLY616  TRP617  ASP618  TYR619  PRO620  LYS621  CYS622 
 ASP623  PHE694  ASN695  SER759  ASP760  ASP761  ALA762  ILE779  LEU786  VAL792 
 PHE793  MET794  SER795  GLU796  ALA797  LYS798  CYS799  TRP800  GLU811  SER814 

> <Gold.Protein.RotatedAtoms>
  150.6932  134.1891  159.4277 H   0  0  0  0  0  0  0  0  0  0  0  0  # atno 6907 bound_to 6896
  151.9862  135.0000  160.0569 H   0  0  0  0  0  0  0  0  0  0  0  0  # atno 6908 bound_to 6896
  152.1709  133.4608  159.4945 H   0  0  0  0  0  0  0  0  0  0  0  0  # atno 6909 bound_to 6896
  145.5026  139.2276  143.2769 H   0  0  0  0  0  0  0  0  0  0  0  0  # atno 7974 bound_to 7965
  155.2986  140.0451  157.3028 H   0  0  0  0  0  0  0  0  0  0  0  0  # atno 8008 bound_to 7997
  154.5499  140.2314  155.8468 H   0  0  0  0  0  0  0  0  0  0  0  0  # atno 8009 bound_to 7997
  156.1958  140.3039  155.9431 H   0  0  0  0  0  0  0  0  0  0  0  0  # atno 8010 bound_to 7997
  140.1642  144.4341  150.6694 H   0  0  0  0  0  0  0  0  0  0  0  0  # atno 10167 bound_to 10162
  157.0145  130.6130  149.5712 H   0  0  0  0  0  0  0  0  0  0  0  0  # atno 10718 bound_to 10713
  154.3038  135.2758  155.2598 H   0  0  0  0  0  0  0  0  0  0  0  0  # atno 10763 bound_to 10752
  154.5024  135.5804  153.6544 H   0  0  0  0  0  0  0  0  0  0  0  0  # atno 10764 bound_to 10752
  152.9897  135.6161  154.3210 H   0  0  0  0  0  0  0  0  0  0  0  0  # atno 10765 bound_to 10752
  140.9446  133.7258  156.1127 H   0  0  0  0  0  0  0  0  0  0  0  0  # atno 11005 bound_to 11000
  146.2216  140.5828  142.9014 LP  0  0  0  0  0  0  0  0  0  0  0  0  # atno 17320 bound_to 7965
  144.7771  140.5763  143.6630 LP  0  0  0  0  0  0  0  0  0  0  0  0  # atno 17321 bound_to 7965
  140.6624  143.2256  151.5825 LP  0  0  0  0  0  0  0  0  0  0  0  0  # atno 17342 bound_to 10162
  139.5367  144.2761  152.1266 LP  0  0  0  0  0  0  0  0  0  0  0  0  # atno 17343 bound_to 10162
  156.0124  130.5216  150.8030 LP  0  0  0  0  0  0  0  0  0  0  0  0  # atno 17370 bound_to 10713
  157.5296  131.0936  150.9973 LP  0  0  0  0  0  0  0  0  0  0  0  0  # atno 17371 bound_to 10713
  140.7687  134.3857  157.5512 LP  0  0  0  0  0  0  0  0  0  0  0  0  # atno 17394 bound_to 11000
  139.8830  134.9008  156.2797 LP  0  0  0  0  0  0  0  0  0  0  0  0  # atno 17395 bound_to 11000

$$$$
