AV-unprocessed.smi:625|AV-procd|sdf|3103|dock3
  -GOLD-   22720 0 23D 1   1.00000     0.00000
 Structure written by MMmdl.
 49 51  0  0  0  0  0  0  0  0  1 V2000
  144.4345  137.1216  152.4716 C   0  0  0  0  0  0  0  0  0  0  0  0
  145.0052  138.1525  153.3248 N   0  0  0  0  0  0  0  0  0  0  0  0
  144.6398  138.3787  154.5988 C   0  0  0  0  0  0  0  0  0  0  0  0
  143.7610  137.7117  155.1462 O   0  0  0  0  0  0  0  0  0  0  0  0
  145.3800  139.4609  155.2543 C   0  0  0  0  0  0  0  0  0  0  0  0
  145.0539  139.8208  156.6205 C   0  0  0  0  0  0  0  0  0  0  0  0
  145.7421  140.7855  157.2625 C   0  0  0  0  0  0  0  0  0  0  0  0
  146.8419  141.5089  156.6171 C   0  0  0  0  0  0  0  0  0  0  0  0
  147.4882  142.3745  157.2072 O   0  0  0  0  0  0  0  0  0  0  0  0
  147.1040  141.1553  155.3227 N   0  0  0  0  0  0  0  0  0  0  0  0
  148.2109  141.7618  154.5668 C   0  0  0  0  0  0  0  0  0  0  0  0
  149.5598  141.4095  155.2033 C   0  0  0  0  0  0  0  0  0  0  0  0
  150.3318  140.6383  154.6335 O   0  0  0  0  0  0  0  0  0  0  0  0
  149.8332  142.0064  156.3739 N   0  0  0  0  0  0  0  0  0  0  0  0
  151.1081  141.9516  157.0859 C   0  0  2  0  0  0  0  0  0  0  0  0
  151.4082  140.4847  157.4338 C   0  0  0  0  0  0  0  0  0  0  0  0
  151.0504  142.8566  158.3439 C   0  0  1  0  0  0  0  0  0  0  0  0
  152.2588  142.6696  159.2935 C   0  0  0  0  0  0  0  0  0  0  0  0
  152.7956  144.1006  159.4737 C   0  0  2  0  0  0  0  0  0  0  0  0
  151.7969  144.9262  160.3050 C   0  0  0  0  0  0  0  0  0  0  0  0
  150.6370  145.1449  159.3171 C   0  0  0  0  0  0  0  0  0  0  0  0
  151.1094  144.3832  158.0645 C   0  0  1  0  0  0  0  0  0  0  0  0
  152.6046  144.6773  158.0776 C   0  0  0  0  0  0  0  0  0  0  0  0
  146.3791  140.1461  154.6578 C   0  0  0  0  0  0  0  0  0  0  0  0
  144.8990  137.1572  151.4864 H   0  0  0  0  0  0  0  0  0  0  0  0
  143.3607  137.2678  152.3488 H   0  0  0  0  0  0  0  0  0  0  0  0
  144.6066  136.1305  152.8931 H   0  0  0  0  0  0  0  0  0  0  0  0
  145.7328  138.7285  152.9270 H   0  0  0  0  0  0  0  0  0  0  0  0
  144.2528  139.3173  157.1423 H   0  0  0  0  0  0  0  0  0  0  0  0
  145.4791  141.0323  158.2806 H   0  0  0  0  0  0  0  0  0  0  0  0
  148.1779  141.4122  153.5333 H   0  0  0  0  0  0  0  0  0  0  0  0
  148.1264  142.8477  154.5050 H   0  0  0  0  0  0  0  0  0  0  0  0
  149.1254  142.6095  156.7676 H   0  0  0  0  0  0  0  0  0  0  0  0
  151.9110  142.3060  156.4378 H   0  0  0  0  0  0  0  0  0  0  0  0
  152.3728  140.3785  157.9296 H   0  0  0  0  0  0  0  0  0  0  0  0
  151.4379  139.8683  156.5346 H   0  0  0  0  0  0  0  0  0  0  0  0
  150.6478  140.0690  158.0961 H   0  0  0  0  0  0  0  0  0  0  0  0
  150.1262  142.6283  158.8774 H   0  0  0  0  0  0  0  0  0  0  0  0
  151.9746  142.2099  160.2407 H   0  0  0  0  0  0  0  0  0  0  0  0
  153.0295  142.0434  158.8422 H   0  0  0  0  0  0  0  0  0  0  0  0
  153.8175  144.1393  159.8516 H   0  0  0  0  0  0  0  0  0  0  0  0
  151.4817  144.4045  161.2093 H   0  0  0  0  0  0  0  0  0  0  0  0
  152.2318  145.8814  160.6025 H   0  0  0  0  0  0  0  0  0  0  0  0
  149.6848  144.7751  159.6984 H   0  0  0  0  0  0  0  0  0  0  0  0
  150.5172  146.2067  159.0996 H   0  0  0  0  0  0  0  0  0  0  0  0
  150.5925  144.7096  157.1637 H   0  0  0  0  0  0  0  0  0  0  0  0
  152.8372  145.7418  158.0135 H   0  0  0  0  0  0  0  0  0  0  0  0
  153.1604  144.1435  157.3052 H   0  0  0  0  0  0  0  0  0  0  0  0
  146.7184  139.9674  153.6472 H   0  0  0  0  0  0  0  0  0  0  0  0
  1  2  1  0  0  0  0
  1 25  1  0  0  0  0
  1 26  1  0  0  0  0
  1 27  1  0  0  0  0
  2  3  1  0  0  0  0
  2 28  1  0  0  0  0
  3  4  2  0  0  0  0
  3  5  1  0  0  0  0
  5 24  2  0  0  0  0
  5  6  1  0  0  0  0
  6  7  2  0  0  0  0
  6 29  1  0  0  0  0
  7  8  1  0  0  0  0
  7 30  1  0  0  0  0
  8  9  2  0  0  0  0
  8 10  1  0  0  0  0
 10 11  1  0  0  0  0
 10 24  1  0  0  0  0
 11 12  1  0  0  0  0
 11 31  1  0  0  0  0
 11 32  1  0  0  0  0
 12 13  2  0  0  0  0
 12 14  1  0  0  0  0
 14 15  1  0  0  0  0
 14 33  1  0  0  0  0
 15 16  1  0  0  0  0
 15 17  1  0  0  0  0
 15 34  1  0  0  0  0
 16 35  1  0  0  0  0
 16 36  1  0  0  0  0
 16 37  1  0  0  0  0
 17 22  1  0  0  0  0
 17 18  1  0  0  0  0
 17 38  1  0  0  0  0
 18 19  1  0  0  0  0
 18 39  1  0  0  0  0
 18 40  1  0  0  0  0
 19 23  1  0  0  0  0
 19 20  1  0  0  0  0
 19 41  1  0  0  0  0
 20 21  1  0  0  0  0
 20 42  1  0  0  0  0
 20 43  1  0  0  0  0
 21 22  1  0  0  0  0
 21 44  1  0  0  0  0
 21 45  1  0  0  0  0
 22 23  1  0  0  0  0
 22 46  1  0  0  0  0
 23 47  1  0  0  0  0
 23 48  1  0  0  0  0
 24 49  1  0  0  0  0
M  END
> <s_m_source_file>
AV-unprocessed.smi

> <i_m_source_file_index>
625

> <i_lp_mmshare_version>
43012

> <i_f3d_flags>
0

> <s_epik_input>
W0NIM11bTkhdQyg9TyljMVtjSF1bY0hdYyg9TyluKFtjSF0xKVtDSDJdQyg9TylbTkhdW0NASF0oW0NIM10pW0NASF0oW0NIMl1bQ0BIXTIzKVtDQEhdKFtDSDJdMylbQ0gyXVtDSDJdMg==

> <s_epik_cmdline>
J2VwaWtfcHl0aG9uJywgJy1waCcsICc3LjAnLCAnLXRuJywgJzgnLCAnLW1hJywgJzIwMCcsICctbWV0YWxfYmluZGluZycsICctaW1hZScsICc8aW5maWxlLm1hZT4nLCAnLW9tYWUnLCAnPG91dGZpbGUubWFlPic=

> <r_lp_tautomer_probability>
1

> <r_epik_Ionization_Penalty>
3.7129e-07

> <r_epik_Ionization_Penalty_Charging>
5.04114e-08

> <r_epik_Ionization_Penalty_Neutral>
3.20879e-07

> <r_epik_State_Penalty>
-0

> <r_epik_Charging_Adjusted_Penalty>
5.04114e-08

> <i_epik_Tot_Q>
0

> <i_epik_Tot_abs_Q>
0

> <r_epik_Metal_State_Penalty>
-0

> <b_epik_Metal_Only>
0

> <s_lp_Force_Field>
OPLS_2005

> <r_lp_Energy>
63.7952

> <b_lp_Chiralities_Consistent>
1

> <s_lp_Variant>
AV-unprocessed.smi:625-3

> <Gold.Version>
5.8.1

> <Gold.Id.Protein>
6NUR|6NUR_protein|mol2

> <Gold.PLP.Fitness>
45.6966

> <Gold.PLP.PLP>
-43.3106

> <Gold.PLP.part.hbond>
-3.0000

> <Gold.PLP.part.metal>
0.0000

> <Gold.PLP.part.buried>
-4.2989

> <Gold.PLP.part.nonpolar>
-36.0448

> <Gold.PLP.part.repulsive>
0.7473

> <Gold.PLP.ligand.clash>
0.0000

> <Gold.PLP.ligand.torsion>
0.3111

> <Gold.PLP.Chemscore.Hbond>
0.9771

> <Gold.PLP.Chemscore.CHOScore>
0.0000

> <Gold.PLP.Chemscore.Metal>
0.0000

> <Gold.Chemscore.Hbonds>
donor molecule, donor type, donor heavy atom, donor atom, acceptor molecule, acceptor atom, score
      L1  H    14    33       P1  8028  0.03
      P1  H  7989  7998       L1    13  0.90

> <Gold.PLP.Chemscore.Internal.Correction>
0.0769

> <Gold.Rescore>
     Score         DG    S(hbond)    S(metal)    S(lipo)     H(rot)  DE(clash)    DE(int)     intcor
     16.12     -17.60       0.94        0.00     113.21       1.67       0.07       1.41       ----

> <Gold.Chemscore.Fitness>
16.1167

> <Gold.Chemscore.DG>
-17.5997

> <Gold.Chemscore.ZeroCoef>
-5.4800

> <Gold.Chemscore.Hbond>
0.9435

> <Gold.Chemscore.Metal>
0.0000

> <Gold.Chemscore.Lipo>
113.2107

> <Gold.Chemscore.Internal_Hbond>
0.0000

> <Gold.Chemscore.DEClash>
0.0727

> <Gold.Chemscore.DEInternal>
1.4103

> <Gold.Chemscore.Rot>
1.6709

> <Gold.Chemscore.Internal.Correction>
   9.000000E+99

> <Gold.Chemscore.Hbonds>
donor molecule, donor type, donor heavy atom, donor atom, acceptor molecule, acceptor atom, score
      L1  H    14    33       P1  8028  0.04
      P1  H  7989  7998       L1    13  0.88

> <Gold.Chemscore.Hbond.Weighted>
-3.1514

> <Gold.Chemscore.Metal.Weighted>
-0.0000

> <Gold.Chemscore.Lipo.Weighted>
-13.2456

> <Gold.Chemscore.Internal_Hbond.Weighted>
0.0000

> <Gold.Chemscore.DEClash.Weighted>
0.0727

> <Gold.Chemscore.DEInternal.Weighted>
1.4103

> <Gold.Chemscore.Rot.Weighted>
4.2774

> <Gold.Chemscore.Internal.Correction.Weighted>
   9.000000E+99

> <Gold.Protein.RotatedTorsions>
[ 6907 6896 6895 6894 ] final  -25.99 input  -60.11 | X-H torsion
[ 7974 7965 7964 7962 ] final  176.28 input  175.53 | X-H torsion
[ 8008 7997 7996 7995 ] final  129.55 input   59.86 | X-H torsion
[ 10167 10162 10161 10158 ] final   91.42 input  -65.29 | X-H torsion
[ 10718 10713 10712 10709 ] final  -90.88 input   66.30 | X-H torsion
[ 10763 10752 10751 10750 ] final  -59.64 input  -60.55 | X-H torsion
[ 11005 11000 10999 10996 ] final  171.66 input  -57.11 | X-H torsion

> <Gold.Protein.ActiveResidues>
 VAL166  LYS551  ARG553  GLY616  TRP617  ASP618  TYR619  PRO620  LYS621  CYS622 
 ASP623  PHE694  ASN695  SER759  ASP760  ASP761  ALA762  ILE779  LEU786  VAL792 
 PHE793  MET794  SER795  GLU796  ALA797  LYS798  CYS799  TRP800  GLU811  SER814 

> <Gold.Protein.RotatedAtoms>
  151.1673  135.0301  159.8735 H   0  0  0  0  0  0  0  0  0  0  0  0  # atno 6907 bound_to 6896
  152.5450  134.1211  159.8409 H   0  0  0  0  0  0  0  0  0  0  0  0  # atno 6908 bound_to 6896
  151.1313  133.4988  159.2631 H   0  0  0  0  0  0  0  0  0  0  0  0  # atno 6909 bound_to 6896
  144.7187  140.0072  143.6440 H   0  0  0  0  0  0  0  0  0  0  0  0  # atno 7974 bound_to 7965
  156.2938  140.2618  156.2617 H   0  0  0  0  0  0  0  0  0  0  0  0  # atno 8008 bound_to 7997
  154.9782  140.0390  157.2284 H   0  0  0  0  0  0  0  0  0  0  0  0  # atno 8009 bound_to 7997
  154.7796  140.2792  155.6079 H   0  0  0  0  0  0  0  0  0  0  0  0  # atno 8010 bound_to 7997
  139.8376  144.6657  150.9323 H   0  0  0  0  0  0  0  0  0  0  0  0  # atno 10167 bound_to 10162
  155.9990  130.4926  150.5389 H   0  0  0  0  0  0  0  0  0  0  0  0  # atno 10718 bound_to 10713
  154.2569  135.6315  153.5260 H   0  0  0  0  0  0  0  0  0  0  0  0  # atno 10763 bound_to 10752
  152.9902  135.5578  154.5746 H   0  0  0  0  0  0  0  0  0  0  0  0  # atno 10764 bound_to 10752
  154.5287  135.2887  155.1174 H   0  0  0  0  0  0  0  0  0  0  0  0  # atno 10765 bound_to 10752
  140.3214  134.7434  157.4066 H   0  0  0  0  0  0  0  0  0  0  0  0  # atno 11005 bound_to 11000
  146.0287  139.3315  143.0768 LP  0  0  0  0  0  0  0  0  0  0  0  0  # atno 17320 bound_to 7965
  145.8479  140.9545  143.0765 LP  0  0  0  0  0  0  0  0  0  0  0  0  # atno 17321 bound_to 7965
  140.7801  143.3942  151.1257 LP  0  0  0  0  0  0  0  0  0  0  0  0  # atno 17342 bound_to 10162
  139.7591  143.8662  152.3096 LP  0  0  0  0  0  0  0  0  0  0  0  0  # atno 17343 bound_to 10162
  157.3328  131.0702  151.1848 LP  0  0  0  0  0  0  0  0  0  0  0  0  # atno 17370 bound_to 10713
  157.2722  130.6710  149.6025 LP  0  0  0  0  0  0  0  0  0  0  0  0  # atno 17371 bound_to 10713
  140.0939  134.5564  155.8418 LP  0  0  0  0  0  0  0  0  0  0  0  0  # atno 17394 bound_to 11000
  141.2085  133.6675  156.6379 LP  0  0  0  0  0  0  0  0  0  0  0  0  # atno 17395 bound_to 11000

$$$$
