AV-unprocessed.smi:2673|AV-procd|sdf|10357|dock9
  -GOLD-   2272014383D 1   1.00000     0.00000
 Structure written by MMmdl.
 32 33  0  0  0  0  0  0  0  0  1 V2000
  151.9766  140.4223  158.5855 O   0  0  0  0  0  0  0  0  0  0  0  0
  151.1735  140.8009  157.7301 C   0  0  0  0  0  0  0  0  0  0  0  0
  150.7641  142.0945  157.4467 N   0  0  0  0  0  0  0  0  0  0  0  0
  151.1856  143.0922  158.1609 C   0  0  0  0  0  0  0  0  0  0  0  0
  150.7774  144.3910  157.8937 N   0  0  0  0  0  0  0  0  0  0  0  0
  151.2302  145.3902  158.6395 N   0  0  0  0  0  0  0  0  0  0  0  0
  152.0264  144.9624  159.5458 C   0  0  0  0  0  0  0  0  0  0  0  0
  152.3159  143.2187  159.5806 S   0  0  0  0  0  0  0  0  0  0  0  0
  150.5528  139.9457  156.8998 N   0  0  0  0  0  0  0  0  0  0  0  0
  150.6611  138.4797  156.7926 C   0  0  0  0  0  0  0  0  0  0  0  0
  150.1051  137.8118  158.0837 C   0  0  0  0  0  0  0  0  0  0  0  0
  148.8753  138.2553  158.3472 F   0  0  0  0  0  0  0  0  0  0  0  0
  150.0454  136.4877  157.9317 F   0  0  0  0  0  0  0  0  0  0  0  0
  150.8646  138.0767  159.1463 F   0  0  0  0  0  0  0  0  0  0  0  0
  149.9450  137.9256  155.5265 C   0  0  0  0  0  0  0  0  0  0  0  0
  150.5361  138.4707  154.2134 C   0  0  0  0  0  0  0  0  0  0  0  0
  152.0374  138.1646  154.1169 C   0  0  0  0  0  0  0  0  0  0  0  0
  152.7910  138.6919  155.3465 C   0  0  0  0  0  0  0  0  0  0  0  0
  152.1743  138.1592  156.6554 C   0  0  0  0  0  0  0  0  0  0  0  0
  152.5374  145.5718  160.2909 H   0  0  0  0  0  0  0  0  0  0  0  0
  149.9188  140.3678  156.2373 H   0  0  0  0  0  0  0  0  0  0  0  0
  150.0329  136.8387  155.5150 H   0  0  0  0  0  0  0  0  0  0  0  0
  148.8742  138.1212  155.5558 H   0  0  0  0  0  0  0  0  0  0  0  0
  150.0150  138.0304  153.3628 H   0  0  0  0  0  0  0  0  0  0  0  0
  150.3731  139.5469  154.1471 H   0  0  0  0  0  0  0  0  0  0  0  0
  152.1846  137.0870  154.0344 H   0  0  0  0  0  0  0  0  0  0  0  0
  152.4507  138.6033  153.2083 H   0  0  0  0  0  0  0  0  0  0  0  0
  153.8398  138.3995  155.2876 H   0  0  0  0  0  0  0  0  0  0  0  0
  152.7790  139.7824  155.3431 H   0  0  0  0  0  0  0  0  0  0  0  0
  152.7252  138.5652  157.5048 H   0  0  0  0  0  0  0  0  0  0  0  0
  152.3275  137.0801  156.6900 H   0  0  0  0  0  0  0  0  0  0  0  0
  150.1422  144.5996  157.1367 H   0  0  0  0  0  0  0  0  0  0  0  0
  1  2  2  0  0  0  0
  2  3  1  0  0  0  0
  2  9  1  0  0  0  0
  3  4  2  0  0  0  0
  4  8  1  0  0  0  0
  4  5  1  0  0  0  0
  5  6  1  0  0  0  0
  5 32  1  0  0  0  0
  6  7  2  0  0  0  0
  7  8  1  0  0  0  0
  7 20  1  0  0  0  0
  9 10  1  0  0  0  0
  9 21  1  0  0  0  0
 10 19  1  0  0  0  0
 10 11  1  0  0  0  0
 10 15  1  0  0  0  0
 11 12  1  0  0  0  0
 11 13  1  0  0  0  0
 11 14  1  0  0  0  0
 15 16  1  0  0  0  0
 15 22  1  0  0  0  0
 15 23  1  0  0  0  0
 16 17  1  0  0  0  0
 16 24  1  0  0  0  0
 16 25  1  0  0  0  0
 17 18  1  0  0  0  0
 17 26  1  0  0  0  0
 17 27  1  0  0  0  0
 18 19  1  0  0  0  0
 18 28  1  0  0  0  0
 18 29  1  0  0  0  0
 19 30  1  0  0  0  0
 19 31  1  0  0  0  0
M  END
> <s_m_source_file>
AV-unprocessed.smi

> <i_m_source_file_index>
2673

> <i_lp_mmshare_version>
43012

> <i_f3d_flags>
0

> <s_epik_input>
czFbY0hdbm5jMVtOSF1DKD1PKVtOSF1DMihDKEYpKEYpRilbQ0gyXVtDSDJdW0NIMl1bQ0gyXVtDSDJdMg==

> <s_epik_cmdline>
J2VwaWtfcHl0aG9uJywgJy1waCcsICc3LjAnLCAnLXRuJywgJzgnLCAnLW1hJywgJzIwMCcsICctbWV0YWxfYmluZGluZycsICctaW1hZScsICc8aW5maWxlLm1hZT4nLCAnLW9tYWUnLCAnPG91dGZpbGUubWFlPic=

> <r_epik_Ionization_Penalty>
1.69703

> <r_epik_Ionization_Penalty_Charging>
1.69675

> <r_epik_Ionization_Penalty_Neutral>
0.00027895

> <r_epik_State_Penalty>
1.84993

> <r_epik_Charging_Adjusted_Penalty>
3.54668

> <i_epik_Tot_Q>
0

> <i_epik_Tot_abs_Q>
0

> <r_epik_Metal_State_Penalty>
1.90085

> <b_epik_Metal_Only>
0

> <s_lp_Force_Field>
OPLS_2005

> <r_lp_Energy>
22.7267

> <b_lp_Chiralities_Consistent>
1

> <s_lp_Variant>
AV-unprocessed.smi:2673-3

> <Gold.Version>
5.8.1

> <Gold.Id.Protein>
6NUR|6NUR_protein|mol2

> <Gold.PLP.Fitness>
31.8878

> <Gold.PLP.PLP>
-29.5209

> <Gold.PLP.part.hbond>
-1.7500

> <Gold.PLP.part.metal>
0.0000

> <Gold.PLP.part.buried>
-5.2058

> <Gold.PLP.part.nonpolar>
-23.1104

> <Gold.PLP.part.repulsive>
0.3090

> <Gold.PLP.ligand.clash>
0.0000

> <Gold.PLP.ligand.torsion>
0.3321

> <Gold.PLP.Chemscore.Hbond>
1.0000

> <Gold.PLP.Chemscore.CHOScore>
0.0000

> <Gold.PLP.Chemscore.Metal>
0.0000

> <Gold.Chemscore.Hbonds>
donor molecule, donor type, donor heavy atom, donor atom, acceptor molecule, acceptor atom, score
      L1  H     5    32       P1  8028  1.00

> <Gold.PLP.Chemscore.Internal.Correction>
0.0310

> <Gold.Rescore>
     Score         DG    S(hbond)    S(metal)    S(lipo)     H(rot)  DE(clash)    DE(int)     intcor
      9.10     -13.73       0.96        0.00      64.82       1.00       0.51       4.11       ----

> <Gold.Chemscore.Fitness>
9.1001

> <Gold.Chemscore.DG>
-13.7270

> <Gold.Chemscore.ZeroCoef>
-5.4800

> <Gold.Chemscore.Hbond>
0.9648

> <Gold.Chemscore.Metal>
0.0000

> <Gold.Chemscore.Lipo>
64.8240

> <Gold.Chemscore.Internal_Hbond>
0.0000

> <Gold.Chemscore.DEClash>
0.5129

> <Gold.Chemscore.DEInternal>
4.1140

> <Gold.Chemscore.Rot>
1.0000

> <Gold.Chemscore.Internal.Correction>
   9.000000E+99

> <Gold.Chemscore.Hbonds>
donor molecule, donor type, donor heavy atom, donor atom, acceptor molecule, acceptor atom, score
      L1  H     5    32       P1  8028  0.45

> <Gold.Chemscore.Hbond.Weighted>
-3.2226

> <Gold.Chemscore.Metal.Weighted>
-0.0000

> <Gold.Chemscore.Lipo.Weighted>
-7.5844

> <Gold.Chemscore.Internal_Hbond.Weighted>
0.0000

> <Gold.Chemscore.DEClash.Weighted>
0.5129

> <Gold.Chemscore.DEInternal.Weighted>
4.1140

> <Gold.Chemscore.Rot.Weighted>
2.5600

> <Gold.Chemscore.Internal.Correction.Weighted>
   9.000000E+99

> <Gold.Protein.RotatedTorsions>
[ 6907 6896 6895 6894 ] final   68.97 input  -60.11 | X-H torsion
[ 7974 7965 7964 7962 ] final -148.73 input  175.53 | X-H torsion
[ 8008 7997 7996 7995 ] final -110.29 input   59.86 | X-H torsion
[ 10167 10162 10161 10158 ] final -161.36 input  -65.29 | X-H torsion
[ 10718 10713 10712 10709 ] final -175.19 input   66.30 | X-H torsion
[ 10763 10752 10751 10750 ] final -108.01 input  -60.55 | X-H torsion
[ 11005 11000 10999 10996 ] final  -20.67 input  -57.11 | X-H torsion

> <Gold.Protein.ActiveResidues>
 VAL166  LYS551  ARG553  GLY616  TRP617  ASP618  TYR619  PRO620  LYS621  CYS622 
 ASP623  PHE694  ASN695  SER759  ASP760  ASP761  ALA762  ILE779  LEU786  VAL792 
 PHE793  MET794  SER795  GLU796  ALA797  LYS798  CYS799  TRP800  GLU811  SER814 

> <Gold.Protein.RotatedAtoms>
  152.4656  134.5083  159.9745 H   0  0  0  0  0  0  0  0  0  0  0  0  # atno 6907 bound_to 6896
  151.5122  133.3477  159.2895 H   0  0  0  0  0  0  0  0  0  0  0  0  # atno 6908 bound_to 6896
  150.8639  134.8026  159.7165 H   0  0  0  0  0  0  0  0  0  0  0  0  # atno 6909 bound_to 6896
  144.8011  140.5158  143.5706 H   0  0  0  0  0  0  0  0  0  0  0  0  # atno 7974 bound_to 7965
  154.9723  140.0397  157.2240 H   0  0  0  0  0  0  0  0  0  0  0  0  # atno 8008 bound_to 7997
  154.7790  140.2815  155.6056 H   0  0  0  0  0  0  0  0  0  0  0  0  # atno 8009 bound_to 7997
  156.2933  140.2595  156.2610 H   0  0  0  0  0  0  0  0  0  0  0  0  # atno 8010 bound_to 7997
  139.6471  144.0153  152.2135 H   0  0  0  0  0  0  0  0  0  0  0  0  # atno 10167 bound_to 10162
  156.7962  130.9536  151.3119 H   0  0  0  0  0  0  0  0  0  0  0  0  # atno 10718 bound_to 10713
  154.8110  135.4653  154.0517 H   0  0  0  0  0  0  0  0  0  0  0  0  # atno 10763 bound_to 10752
  153.1947  135.6860  153.8313 H   0  0  0  0  0  0  0  0  0  0  0  0  # atno 10764 bound_to 10752
  153.7819  135.3255  155.3344 H   0  0  0  0  0  0  0  0  0  0  0  0  # atno 10765 bound_to 10752
  140.8487  133.7873  155.9941 H   0  0  0  0  0  0  0  0  0  0  0  0  # atno 11005 bound_to 11000
  145.5550  139.1477  143.3373 LP  0  0  0  0  0  0  0  0  0  0  0  0  # atno 17320 bound_to 7965
  146.2293  140.5688  142.8982 LP  0  0  0  0  0  0  0  0  0  0  0  0  # atno 17321 bound_to 7965
  139.9857  144.6397  150.7860 LP  0  0  0  0  0  0  0  0  0  0  0  0  # atno 17342 bound_to 10162
  140.7520  143.2982  151.3150 LP  0  0  0  0  0  0  0  0  0  0  0  0  # atno 17343 bound_to 10162
  157.6576  130.8938  149.9761 LP  0  0  0  0  0  0  0  0  0  0  0  0  # atno 17370 bound_to 10713
  156.1128  130.3649  150.0019 LP  0  0  0  0  0  0  0  0  0  0  0  0  # atno 17371 bound_to 10713
  140.8815  134.2606  157.5142 LP  0  0  0  0  0  0  0  0  0  0  0  0  # atno 17394 bound_to 11000
  139.8704  134.9617  156.4405 LP  0  0  0  0  0  0  0  0  0  0  0  0  # atno 17395 bound_to 11000

$$$$
