AV-unprocessed.smi:1920|AV-procd|sdf|7778|dock8
  -GOLD-   22720 9523D 1   1.00000     0.00000
 Structure written by MMmdl.
 37 38  0  0  0  0  0  0  0  0  2 V2000
  149.4772  138.2023  157.1108 C   0  0  0  0  0  0  0  0  0  0  0  0
  150.9027  138.7704  157.0875 C   0  0  1  0  0  0  0  0  0  0  0  0
  151.2101  139.4538  155.7379 C   0  0  0  0  0  0  0  0  0  0  0  0
  150.1861  140.4274  155.3437 N   0  0  0  0  0  0  0  0  0  0  0  0
  149.2759  140.3077  154.3247 C   0  0  0  0  0  0  0  0  0  0  0  0
  148.5343  141.4607  154.3257 C   0  0  0  0  0  0  0  0  0  0  0  0
  149.0180  142.2319  155.3484 N   0  3  0  0  0  0  0  0  0  0  0  0
  150.0194  141.6000  155.9693 C   0  0  0  0  0  0  0  0  0  0  0  0
  151.0551  139.7052  158.2020 N   0  0  0  0  0  0  0  0  0  0  0  0
  152.2170  140.1955  158.6627 C   0  0  0  0  0  0  0  0  0  0  0  0
  153.3093  139.9354  158.1578 O   0  0  0  0  0  0  0  0  0  0  0  0
  152.1306  141.1335  159.8715 C   0  0  0  0  0  0  0  0  0  0  0  0
  152.7818  142.5135  159.6331 C   0  0  2  0  0  0  0  0  0  0  0  0
  152.6150  143.4720  160.7878 C   0  0  0  0  0  0  0  0  0  0  0  0
  152.1013  144.6418  160.4147 C   0  0  0  0  0  0  0  0  0  0  0  0
  151.8204  144.7025  158.9390 C   0  0  0  0  0  0  0  0  0  0  0  0
  152.1628  143.2818  158.4373 C   0  0  0  0  0  0  0  0  0  0  0  0
  149.3330  137.4704  156.3156 H   0  0  0  0  0  0  0  0  0  0  0  0
  148.7329  138.9883  156.9779 H   0  0  0  0  0  0  0  0  0  0  0  0
  149.2688  137.7023  158.0573 H   0  0  0  0  0  0  0  0  0  0  0  0
  151.5843  137.9279  157.2196 H   0  0  0  0  0  0  0  0  0  0  0  0
  152.1551  139.9953  155.7964 H   0  0  0  0  0  0  0  0  0  0  0  0
  151.3193  138.7151  154.9419 H   0  0  0  0  0  0  0  0  0  0  0  0
  149.2308  139.4373  153.6861 H   0  0  0  0  0  0  0  0  0  0  0  0
  147.7208  141.7819  153.6915 H   0  0  0  0  0  0  0  0  0  0  0  0
  150.5869  141.9695  156.8047 H   0  0  0  0  0  0  0  0  0  0  0  0
  150.2093  139.9775  158.6820 H   0  0  0  0  0  0  0  0  0  0  0  0
  151.0767  141.2647  160.1185 H   0  0  0  0  0  0  0  0  0  0  0  0
  152.5922  140.6551  160.7371 H   0  0  0  0  0  0  0  0  0  0  0  0
  153.8529  142.3921  159.4637 H   0  0  0  0  0  0  0  0  0  0  0  0
  152.9065  143.2192  161.7969 H   0  0  0  0  0  0  0  0  0  0  0  0
  151.9110  145.4769  161.0726 H   0  0  0  0  0  0  0  0  0  0  0  0
  150.7766  144.9579  158.7543 H   0  0  0  0  0  0  0  0  0  0  0  0
  152.4535  145.4581  158.4731 H   0  0  0  0  0  0  0  0  0  0  0  0
  152.8486  143.3145  157.5903 H   0  0  0  0  0  0  0  0  0  0  0  0
  151.2530  142.7908  158.0894 H   0  0  0  0  0  0  0  0  0  0  0  0
  148.6708  143.1491  155.5995 H   0  0  0  0  0  0  0  0  0  0  0  0
  1  2  1  0  0  0  0
  1 18  1  0  0  0  0
  1 19  1  0  0  0  0
  1 20  1  0  0  0  0
  2  3  1  0  0  0  0
  2  9  1  0  0  0  0
  2 21  1  0  0  0  0
  3  4  1  0  0  0  0
  3 22  1  0  0  0  0
  3 23  1  0  0  0  0
  4  8  1  0  0  0  0
  4  5  1  0  0  0  0
  5  6  2  0  0  0  0
  5 24  1  0  0  0  0
  6  7  1  0  0  0  0
  6 25  1  0  0  0  0
  7  8  2  0  0  0  0
  7 37  1  0  0  0  0
  8 26  1  0  0  0  0
  9 10  1  0  0  0  0
  9 27  1  0  0  0  0
 10 11  2  0  0  0  0
 10 12  1  0  0  0  0
 12 13  1  0  0  0  0
 12 28  1  0  0  0  0
 12 29  1  0  0  0  0
 13 17  1  0  0  0  0
 13 14  1  0  0  0  0
 13 30  1  0  0  0  0
 14 15  2  0  0  0  0
 14 31  1  0  0  0  0
 15 16  1  0  0  0  0
 15 32  1  0  0  0  0
 16 17  1  0  0  0  0
 16 33  1  0  0  0  0
 16 34  1  0  0  0  0
 17 35  1  0  0  0  0
 17 36  1  0  0  0  0
M  CHG  1   7   1
M  END
> <s_m_source_file>
AV-unprocessed.smi

> <i_m_source_file_index>
1920

> <i_lp_mmshare_version>
43012

> <i_f3d_flags>
0

> <s_epik_input>
W2NIXTFuW2NIXVtjSF1uMVtDSDJdW0NAQEhdKFtDSDNdKVtOSF1DKD1PKVtDSDJdW0NAQEhdMltDSF09W0NIXVtDSDJdW0NIMl0y

> <s_epik_cmdline>
J2VwaWtfcHl0aG9uJywgJy1waCcsICc3LjAnLCAnLXRuJywgJzgnLCAnLW1hJywgJzIwMCcsICctbWV0YWxfYmluZGluZycsICctaW1hZScsICc8aW5maWxlLm1hZT4nLCAnLW9tYWUnLCAnPG91dGZpbGUubWFlPic=

> <r_lp_tautomer_probability>
1

> <r_epik_Ionization_Penalty>
0.24816

> <r_epik_Ionization_Penalty_Charging>
0

> <r_epik_Ionization_Penalty_Neutral>
0.24816

> <r_epik_State_Penalty>
0.2394

> <r_epik_Charging_Adjusted_Penalty>
0.2394

> <i_epik_Tot_Q>
1

> <i_epik_Tot_abs_Q>
1

> <r_epik_Metal_State_Penalty>
0.531457

> <b_epik_Metal_Only>
0

> <s_lp_Force_Field>
OPLS_2005

> <r_lp_Energy>
20.1539

> <b_lp_Chiralities_Consistent>
1

> <s_lp_Variant>
AV-unprocessed.smi:1920-2

> <Gold.Version>
5.8.1

> <Gold.Id.Protein>
6NUR|6NUR_protein|mol2

> <Gold.PLP.Fitness>
49.2095

> <Gold.PLP.PLP>
-38.6812

> <Gold.PLP.part.hbond>
-1.7981

> <Gold.PLP.part.metal>
0.0000

> <Gold.PLP.part.buried>
-0.9361

> <Gold.PLP.part.nonpolar>
-35.0683

> <Gold.PLP.part.repulsive>
0.2874

> <Gold.PLP.ligand.clash>
0.0000

> <Gold.PLP.ligand.torsion>
0.3129

> <Gold.PLP.Chemscore.Hbond>
3.0000

> <Gold.PLP.Chemscore.CHOScore>
0.7112

> <Gold.PLP.Chemscore.Metal>
0.0000

> <Gold.Chemscore.Hbonds>
donor molecule, donor type, donor heavy atom, donor atom, acceptor molecule, acceptor atom, score
      L1  H     7    37       P1  8028  1.98
      P1  H  7997  8008       L1    11  1.00
      L1  C     5    24       P1  7957  0.50

> <Gold.PLP.Chemscore.Internal.Correction>
0.0206

> <Gold.Rescore>
     Score         DG    S(hbond)    S(metal)    S(lipo)     H(rot)  DE(clash)    DE(int)     intcor
     17.54     -17.97       1.99        0.00      94.08       2.01       0.00       0.43       ----

> <Gold.Chemscore.Fitness>
17.5358

> <Gold.Chemscore.DG>
-17.9675

> <Gold.Chemscore.ZeroCoef>
-5.4800

> <Gold.Chemscore.Hbond>
1.9859

> <Gold.Chemscore.Metal>
0.0000

> <Gold.Chemscore.Lipo>
94.0850

> <Gold.Chemscore.Internal_Hbond>
0.0000

> <Gold.Chemscore.DEClash>
0.0015

> <Gold.Chemscore.DEInternal>
0.4302

> <Gold.Chemscore.Rot>
2.0130

> <Gold.Chemscore.Internal.Correction>
   9.000000E+99

> <Gold.Chemscore.Hbonds>
donor molecule, donor type, donor heavy atom, donor atom, acceptor molecule, acceptor atom, score
      L1  H     7    37       P1  8028  0.92
      P1  H  7997  8008       L1    11  0.97

> <Gold.Chemscore.Hbond.Weighted>
-6.6328

> <Gold.Chemscore.Metal.Weighted>
-0.0000

> <Gold.Chemscore.Lipo.Weighted>
-11.0079

> <Gold.Chemscore.Internal_Hbond.Weighted>
0.0000

> <Gold.Chemscore.DEClash.Weighted>
0.0015

> <Gold.Chemscore.DEInternal.Weighted>
0.4302

> <Gold.Chemscore.Rot.Weighted>
5.1533

> <Gold.Chemscore.Internal.Correction.Weighted>
   9.000000E+99

> <Gold.Protein.RotatedTorsions>
[ 6907 6896 6895 6894 ] final  -45.50 input  -60.11 | X-H torsion
[ 7974 7965 7964 7962 ] final -153.59 input  175.53 | X-H torsion
[ 8008 7997 7996 7995 ] final  -76.61 input   59.86 | X-H torsion
[ 10167 10162 10161 10158 ] final  115.11 input  -65.29 | X-H torsion
[ 10718 10713 10712 10709 ] final -130.57 input   66.30 | X-H torsion
[ 10763 10752 10751 10750 ] final  -21.74 input  -60.55 | X-H torsion
[ 11005 11000 10999 10996 ] final   44.99 input  -57.11 | X-H torsion

> <Gold.Protein.ActiveResidues>
 VAL166  LYS551  ARG553  GLY616  TRP617  ASP618  TYR619  PRO620  LYS621  CYS622 
 ASP623  PHE694  ASN695  SER759  ASP760  ASP761  ALA762  ILE779  LEU786  VAL792 
 PHE793  MET794  SER795  GLU796  ALA797  LYS798  CYS799  TRP800  GLU811  SER814 

> <Gold.Protein.RotatedAtoms>
  150.9213  134.8630  159.7490 H   0  0  0  0  0  0  0  0  0  0  0  0  # atno 6907 bound_to 6896
  152.4994  134.4214  159.9492 H   0  0  0  0  0  0  0  0  0  0  0  0  # atno 6908 bound_to 6896
  151.4248  133.3648  159.2796 H   0  0  0  0  0  0  0  0  0  0  0  0  # atno 6909 bound_to 6896
  144.7733  140.4504  143.5892 H   0  0  0  0  0  0  0  0  0  0  0  0  # atno 7974 bound_to 7965
  154.5520  140.0724  156.8683 H   0  0  0  0  0  0  0  0  0  0  0  0  # atno 8008 bound_to 7997
  155.2974  140.3382  155.4231 H   0  0  0  0  0  0  0  0  0  0  0  0  # atno 8009 bound_to 7997
  156.1970  140.1707  156.7964 H   0  0  0  0  0  0  0  0  0  0  0  0  # atno 8010 bound_to 7997
  139.6340  144.7118  151.2372 H   0  0  0  0  0  0  0  0  0  0  0  0  # atno 10167 bound_to 10162
  156.2158  130.6947  151.0701 H   0  0  0  0  0  0  0  0  0  0  0  0  # atno 10718 bound_to 10713
  153.6409  135.6985  153.5242 H   0  0  0  0  0  0  0  0  0  0  0  0  # atno 10763 bound_to 10752
  153.2783  135.4193  155.1053 H   0  0  0  0  0  0  0  0  0  0  0  0  # atno 10764 bound_to 10752
  154.8500  135.3595  154.5953 H   0  0  0  0  0  0  0  0  0  0  0  0  # atno 10765 bound_to 10752
  140.1501  134.4473  155.8388 H   0  0  0  0  0  0  0  0  0  0  0  0  # atno 11005 bound_to 11000
  145.6261  139.1530  143.2995 LP  0  0  0  0  0  0  0  0  0  0  0  0  # atno 17320 bound_to 7965
  146.1894  140.6367  142.9152 LP  0  0  0  0  0  0  0  0  0  0  0  0  # atno 17321 bound_to 7965
  140.7455  143.6429  150.8319 LP  0  0  0  0  0  0  0  0  0  0  0  0  # atno 17342 bound_to 10162
  140.0057  143.5696  152.2858 LP  0  0  0  0  0  0  0  0  0  0  0  0  # atno 17343 bound_to 10162
  157.7062  131.0755  150.6657 LP  0  0  0  0  0  0  0  0  0  0  0  0  # atno 17370 bound_to 10713
  156.6719  130.4542  149.5654 LP  0  0  0  0  0  0  0  0  0  0  0  0  # atno 17371 bound_to 10713
  141.2198  133.6868  156.7405 LP  0  0  0  0  0  0  0  0  0  0  0  0  # atno 17394 bound_to 11000
  140.2616  134.8462  157.3763 LP  0  0  0  0  0  0  0  0  0  0  0  0  # atno 17395 bound_to 11000

$$$$
