AV-unprocessed.smi:990|AV-procd|sdf|4326|dock1
  -GOLD-   22720 2233D 1   1.00000     0.00000
 Structure written by MMmdl.
 44 45  0  0  0  0  0  0  0  0  1 V2000
  146.6852  132.6703  153.0955 C   0  0  0  0  0  0  0  0  0  0  0  0
  148.0206  132.5557  153.1528 C   0  0  0  0  0  0  0  0  0  0  0  0
  148.8845  133.1300  154.2585 C   0  0  0  0  0  0  0  0  0  0  0  0
  149.1219  134.5555  154.0648 N   0  0  0  0  0  0  0  0  0  0  0  0
  149.6324  135.3868  154.9849 C   0  0  0  0  0  0  0  0  0  0  0  0
  149.9488  135.0297  156.1191 O   0  0  0  0  0  0  0  0  0  0  0  0
  149.7332  136.6378  154.5028 N   0  0  0  0  0  0  0  0  0  0  0  0
  150.2364  137.8059  155.1389 C   0  0  0  0  0  0  0  0  0  0  0  0
  150.2589  137.8272  156.5472 C   0  0  0  0  0  0  0  0  0  0  0  0
  150.7353  138.9722  157.2129 C   0  0  0  0  0  0  0  0  0  0  0  0
  151.1751  140.0787  156.4506 C   0  0  0  0  0  0  0  0  0  0  0  0
  151.6546  141.2362  157.0994 N   0  0  0  0  0  0  0  0  0  0  0  0
  152.3223  140.9962  158.3765 C   0  0  0  0  0  0  0  0  0  0  0  0
  153.1200  142.2344  158.8265 C   0  0  0  0  0  0  0  0  0  0  0  0
  152.2802  143.4479  158.8220 N   0  0  0  0  0  0  0  0  0  0  0  0
  151.5954  144.0393  160.3074 S   0  0  0  0  0  0  0  0  0  0  0  0
  151.7733  145.8666  160.1919 C   0  0  0  0  0  0  0  0  0  0  0  0
  150.1604  143.7164  160.2990 O   0  0  0  0  0  0  0  0  0  0  0  0
  152.4434  143.5649  161.4117 O   0  0  0  0  0  0  0  0  0  0  0  0
  151.5764  143.6699  157.5443 C   0  0  0  0  0  0  0  0  0  0  0  0
  150.7926  142.4172  157.1111 C   0  0  0  0  0  0  0  0  0  0  0  0
  151.1485  140.0623  155.0956 N   0  0  0  0  0  0  0  0  0  0  0  0
  150.6898  138.9627  154.4606 C   0  0  0  0  0  0  0  0  0  0  0  0
  146.1333  133.1996  153.8585 H   0  0  0  0  0  0  0  0  0  0  0  0
  146.1256  132.2341  152.2809 H   0  0  0  0  0  0  0  0  0  0  0  0
  148.5359  132.0145  152.3722 H   0  0  0  0  0  0  0  0  0  0  0  0
  148.4006  132.9840  155.2249 H   0  0  0  0  0  0  0  0  0  0  0  0
  149.8304  132.5872  154.2945 H   0  0  0  0  0  0  0  0  0  0  0  0
  148.8858  134.9352  153.1596 H   0  0  0  0  0  0  0  0  0  0  0  0
  149.3727  136.7792  153.5706 H   0  0  0  0  0  0  0  0  0  0  0  0
  149.9198  136.9738  157.1161 H   0  0  0  0  0  0  0  0  0  0  0  0
  150.7702  138.9858  158.2922 H   0  0  0  0  0  0  0  0  0  0  0  0
  151.5706  140.7340  159.1200 H   0  0  0  0  0  0  0  0  0  0  0  0
  153.0018  140.1469  158.3150 H   0  0  0  0  0  0  0  0  0  0  0  0
  153.5501  142.0726  159.8144 H   0  0  0  0  0  0  0  0  0  0  0  0
  153.9584  142.3934  158.1473 H   0  0  0  0  0  0  0  0  0  0  0  0
  151.3633  146.3207  161.0936 H   0  0  0  0  0  0  0  0  0  0  0  0
  151.2252  146.2397  159.3286 H   0  0  0  0  0  0  0  0  0  0  0  0
  152.8255  146.1331  160.1103 H   0  0  0  0  0  0  0  0  0  0  0  0
  150.9108  144.5292  157.6194 H   0  0  0  0  0  0  0  0  0  0  0  0
  152.3166  143.9177  156.7825 H   0  0  0  0  0  0  0  0  0  0  0  0
  150.3810  142.5858  156.1150 H   0  0  0  0  0  0  0  0  0  0  0  0
  149.9485  142.2422  157.7773 H   0  0  0  0  0  0  0  0  0  0  0  0
  150.6796  139.0434  153.3856 H   0  0  0  0  0  0  0  0  0  0  0  0
  1  2  2  0  0  0  0
  1 24  1  0  0  0  0
  1 25  1  0  0  0  0
  2  3  1  0  0  0  0
  2 26  1  0  0  0  0
  3  4  1  0  0  0  0
  3 27  1  0  0  0  0
  3 28  1  0  0  0  0
  4  5  1  0  0  0  0
  4 29  1  0  0  0  0
  5  6  2  0  0  0  0
  5  7  1  0  0  0  0
  7  8  1  0  0  0  0
  7 30  1  0  0  0  0
  8 23  1  0  0  0  0
  8  9  2  0  0  0  0
  9 10  1  0  0  0  0
  9 31  1  0  0  0  0
 10 11  2  0  0  0  0
 10 32  1  0  0  0  0
 11 12  1  0  0  0  0
 11 22  1  0  0  0  0
 12 21  1  0  0  0  0
 12 13  1  0  0  0  0
 13 14  1  0  0  0  0
 13 33  1  0  0  0  0
 13 34  1  0  0  0  0
 14 15  1  0  0  0  0
 14 35  1  0  0  0  0
 14 36  1  0  0  0  0
 15 16  1  0  0  0  0
 15 20  1  0  0  0  0
 16 17  1  0  0  0  0
 16 18  2  0  0  0  0
 16 19  2  0  0  0  0
 17 37  1  0  0  0  0
 17 38  1  0  0  0  0
 17 39  1  0  0  0  0
 20 21  1  0  0  0  0
 20 40  1  0  0  0  0
 20 41  1  0  0  0  0
 21 42  1  0  0  0  0
 21 43  1  0  0  0  0
 22 23  2  0  0  0  0
 23 44  1  0  0  0  0
M  END
> <s_m_source_file>
AV-unprocessed.smi

> <i_m_source_file_index>
990

> <i_lp_mmshare_version>
43012

> <i_f3d_flags>
0

> <s_epik_input>
W0NIMl09W0NIXVtDSDJdW05IXUMoPU8pW05IXWMxW2NIXVtjSF1jKG5bY0hdMSlOMltDSDJdW0NIMl1OKFMoPU8pKD1PKVtDSDNdKVtDSDJdW0NIMl0y

> <s_epik_cmdline>
J2VwaWtfcHl0aG9uJywgJy1waCcsICc3LjAnLCAnLXRuJywgJzgnLCAnLW1hJywgJzIwMCcsICctbWV0YWxfYmluZGluZycsICctaW1hZScsICc8aW5maWxlLm1hZT4nLCAnLW9tYWUnLCAnPG91dGZpbGUubWFlPic=

> <r_lp_tautomer_probability>
1

> <r_epik_Ionization_Penalty>
0.151655

> <r_epik_Ionization_Penalty_Charging>
0

> <r_epik_Ionization_Penalty_Neutral>
0.151655

> <r_epik_State_Penalty>
0.140906

> <r_epik_Charging_Adjusted_Penalty>
0.140906

> <i_epik_Tot_Q>
0

> <i_epik_Tot_abs_Q>
0

> <r_epik_Metal_State_Penalty>
0.111889

> <b_epik_Metal_Only>
0

> <s_lp_Force_Field>
OPLS_2005

> <r_lp_Energy>
17.3553

> <b_lp_Chiralities_Consistent>
1

> <s_lp_Variant>
AV-unprocessed.smi:990-1

> <Gold.Version>
5.8.1

> <Gold.Id.Protein>
6NUR|6NUR_protein|mol2

> <Gold.PLP.Fitness>
49.4445

> <Gold.PLP.PLP>
-41.0858

> <Gold.PLP.part.hbond>
-4.0000

> <Gold.PLP.part.metal>
0.0000

> <Gold.PLP.part.buried>
-4.7104

> <Gold.PLP.part.nonpolar>
-31.9677

> <Gold.PLP.part.repulsive>
0.3760

> <Gold.PLP.ligand.clash>
0.0000

> <Gold.PLP.ligand.torsion>
1.9401

> <Gold.PLP.Chemscore.Hbond>
2.6539

> <Gold.PLP.Chemscore.CHOScore>
0.6304

> <Gold.PLP.Chemscore.Metal>
0.0000

> <Gold.Chemscore.Hbonds>
donor molecule, donor type, donor heavy atom, donor atom, acceptor molecule, acceptor atom, score
      L1  H     4    29       P1  7948  1.00
      L1  H     7    30       P1  7948  1.00
      P1  H  6933  6944       L1    18  0.01
      P1  H  7989  7998       L1    22  0.65
      L1  C    23    44       P1  7957  0.71

> <Gold.PLP.Chemscore.Internal.Correction>
2.3861

> <Gold.Rescore>
     Score         DG    S(hbond)    S(metal)    S(lipo)     H(rot)  DE(clash)    DE(int)     intcor
     14.27     -17.58       1.89        0.00      80.84       1.43       0.01       3.30       ----

> <Gold.Chemscore.Fitness>
14.2725

> <Gold.Chemscore.DG>
-17.5841

> <Gold.Chemscore.ZeroCoef>
-5.4800

> <Gold.Chemscore.Hbond>
1.8858

> <Gold.Chemscore.Metal>
0.0000

> <Gold.Chemscore.Lipo>
80.8380

> <Gold.Chemscore.Internal_Hbond>
0.0000

> <Gold.Chemscore.DEClash>
0.0089

> <Gold.Chemscore.DEInternal>
3.3027

> <Gold.Chemscore.Rot>
1.4268

> <Gold.Chemscore.Internal.Correction>
   9.000000E+99

> <Gold.Chemscore.Hbonds>
donor molecule, donor type, donor heavy atom, donor atom, acceptor molecule, acceptor atom, score
      L1  H     4    29       P1  7948  0.25
      L1  H     7    30       P1  7948  0.90
      P1  H  6933  6944       L1    18  0.01
      P1  H  7989  7998       L1    22  0.06

> <Gold.Chemscore.Hbond.Weighted>
-6.2986

> <Gold.Chemscore.Metal.Weighted>
-0.0000

> <Gold.Chemscore.Lipo.Weighted>
-9.4580

> <Gold.Chemscore.Internal_Hbond.Weighted>
0.0000

> <Gold.Chemscore.DEClash.Weighted>
0.0089

> <Gold.Chemscore.DEInternal.Weighted>
3.3027

> <Gold.Chemscore.Rot.Weighted>
3.6526

> <Gold.Chemscore.Internal.Correction.Weighted>
   9.000000E+99

> <Gold.Protein.RotatedTorsions>
[ 6907 6896 6895 6894 ] final  -81.68 input  -60.11 | X-H torsion
[ 7974 7965 7964 7962 ] final  -36.83 input  175.53 | X-H torsion
[ 8008 7997 7996 7995 ] final   89.29 input   59.86 | X-H torsion
[ 10167 10162 10161 10158 ] final   -6.18 input  -65.29 | X-H torsion
[ 10718 10713 10712 10709 ] final   71.20 input   66.30 | X-H torsion
[ 10763 10752 10751 10750 ] final   63.64 input  -60.55 | X-H torsion
[ 11005 11000 10999 10996 ] final -126.31 input  -57.11 | X-H torsion

> <Gold.Protein.ActiveResidues>
 VAL166  LYS551  ARG553  GLY616  TRP617  ASP618  TYR619  PRO620  LYS621  CYS622 
 ASP623  PHE694  ASN695  SER759  ASP760  ASP761  ALA762  ILE779  LEU786  VAL792 
 PHE793  MET794  SER795  GLU796  ALA797  LYS798  CYS799  TRP800  GLU811  SER814 

> <Gold.Protein.RotatedAtoms>
  150.6908  134.3780  159.5021 H   0  0  0  0  0  0  0  0  0  0  0  0  # atno 6907 bound_to 6896
  152.1586  134.8928  160.0552 H   0  0  0  0  0  0  0  0  0  0  0  0  # atno 6908 bound_to 6896
  151.9998  133.3786  159.4214 H   0  0  0  0  0  0  0  0  0  0  0  0  # atno 6909 bound_to 6896
  146.0628  140.6324  142.8989 H   0  0  0  0  0  0  0  0  0  0  0  0  # atno 7974 bound_to 7965
  155.9982  140.3362  155.6819 H   0  0  0  0  0  0  0  0  0  0  0  0  # atno 8008 bound_to 7997
  155.6327  140.0687  157.2662 H   0  0  0  0  0  0  0  0  0  0  0  0  # atno 8009 bound_to 7997
  154.4241  140.1757  156.1477 H   0  0  0  0  0  0  0  0  0  0  0  0  # atno 8010 bound_to 7997
  140.6988  143.6224  150.8600 H   0  0  0  0  0  0  0  0  0  0  0  0  # atno 10167 bound_to 10162
  157.6439  130.9516  150.0756 H   0  0  0  0  0  0  0  0  0  0  0  0  # atno 10718 bound_to 10713
  153.0025  135.5422  154.6383 H   0  0  0  0  0  0  0  0  0  0  0  0  # atno 10763 bound_to 10752
  154.5644  135.2836  155.0890 H   0  0  0  0  0  0  0  0  0  0  0  0  # atno 10764 bound_to 10752
  154.2080  135.6472  153.5159 H   0  0  0  0  0  0  0  0  0  0  0  0  # atno 10765 bound_to 10752
  140.9692  134.0829  157.3888 H   0  0  0  0  0  0  0  0  0  0  0  0  # atno 11005 bound_to 11000
  144.7185  140.4291  143.7026 LP  0  0  0  0  0  0  0  0  0  0  0  0  # atno 17320 bound_to 7965
  145.6530  139.1568  143.2851 LP  0  0  0  0  0  0  0  0  0  0  0  0  # atno 17321 bound_to 7965
  139.9944  143.5812  152.2898 LP  0  0  0  0  0  0  0  0  0  0  0  0  # atno 17342 bound_to 10162
  139.6479  144.7659  151.2207 LP  0  0  0  0  0  0  0  0  0  0  0  0  # atno 17343 bound_to 10162
  156.1747  130.3647  149.9117 LP  0  0  0  0  0  0  0  0  0  0  0  0  # atno 17370 bound_to 10713
  156.7084  130.8960  151.3607 LP  0  0  0  0  0  0  0  0  0  0  0  0  # atno 17371 bound_to 10713
  139.8906  135.0113  156.6743 LP  0  0  0  0  0  0  0  0  0  0  0  0  # atno 17394 bound_to 11000
  140.7354  133.9023  155.8240 LP  0  0  0  0  0  0  0  0  0  0  0  0  # atno 17395 bound_to 11000

$$$$
