AV-unprocessed.smi:2222|AV-procd|sdf|8988|dock6
  -GOLD-   2272012203D 1   1.00000     0.00000
 Structure written by MMmdl.
 34 35  0  0  0  0  0  0  0  0  1 V2000
  151.9438  145.6940  160.0862 C   0  0  0  0  0  0  0  0  0  0  0  0
  151.6451  144.6013  159.2299 O   0  0  0  0  0  0  0  0  0  0  0  0
  152.2163  143.3752  159.5107 C   0  0  0  0  0  0  0  0  0  0  0  0
  153.1033  143.1524  160.5945 C   0  0  0  0  0  0  0  0  0  0  0  0
  153.6356  141.8677  160.7989 C   0  0  0  0  0  0  0  0  0  0  0  0
  153.2606  140.8442  159.9106 C   0  0  0  0  0  0  0  0  0  0  0  0
  153.7947  139.4363  160.0698 C   0  0  0  0  0  0  0  0  0  0  0  0
  152.4188  141.0437  158.8768 N   0  0  0  0  0  0  0  0  0  0  0  0
  151.8987  142.2786  158.6683 C   0  0  0  0  0  0  0  0  0  0  0  0
  151.0073  142.5704  157.5999 N   0  0  0  0  0  0  0  0  0  0  0  0
  150.5629  141.7540  156.6239 C   0  0  0  0  0  0  0  0  0  0  0  0
  150.8409  140.5598  156.5289 O   0  0  0  0  0  0  0  0  0  0  0  0
  149.7304  142.3438  155.7470 N   0  0  0  0  0  0  0  0  0  0  0  0
  149.0924  141.7550  154.6078 C   0  0  1  0  0  0  0  0  0  0  0  0
  148.6923  140.3014  154.7345 C   0  0  0  0  0  0  0  0  0  0  0  0
  147.6318  141.3694  154.7209 C   0  0  2  0  0  0  0  0  0  0  0  0
  146.7009  141.4949  153.5347 C   0  0  0  0  0  0  0  0  0  0  0  0
  151.4229  146.5825  159.7294 H   0  0  0  0  0  0  0  0  0  0  0  0
  153.0115  145.9177  160.0901 H   0  0  0  0  0  0  0  0  0  0  0  0
  151.6099  145.5041  161.1071 H   0  0  0  0  0  0  0  0  0  0  0  0
  153.3874  143.9412  161.2742 H   0  0  0  0  0  0  0  0  0  0  0  0
  154.3138  141.6772  161.6176 H   0  0  0  0  0  0  0  0  0  0  0  0
  154.3720  139.3338  160.9889 H   0  0  0  0  0  0  0  0  0  0  0  0
  154.4407  139.1805  159.2296 H   0  0  0  0  0  0  0  0  0  0  0  0
  152.9737  138.7194  160.1035 H   0  0  0  0  0  0  0  0  0  0  0  0
  150.6744  143.5229  157.5689 H   0  0  0  0  0  0  0  0  0  0  0  0
  149.4731  143.2995  155.9475 H   0  0  0  0  0  0  0  0  0  0  0  0
  149.4519  142.0433  153.6210 H   0  0  0  0  0  0  0  0  0  0  0  0
  148.7947  139.6761  153.8497 H   0  0  0  0  0  0  0  0  0  0  0  0
  148.8827  139.7988  155.6808 H   0  0  0  0  0  0  0  0  0  0  0  0
  147.1517  141.5767  155.6755 H   0  0  0  0  0  0  0  0  0  0  0  0
  147.2267  141.2795  152.6041 H   0  0  0  0  0  0  0  0  0  0  0  0
  146.2997  142.5068  153.4806 H   0  0  0  0  0  0  0  0  0  0  0  0
  145.8706  140.7958  153.6351 H   0  0  0  0  0  0  0  0  0  0  0  0
  1  2  1  0  0  0  0
  1 18  1  0  0  0  0
  1 19  1  0  0  0  0
  1 20  1  0  0  0  0
  2  3  1  0  0  0  0
  3  9  1  0  0  0  0
  3  4  2  0  0  0  0
  4  5  1  0  0  0  0
  4 21  1  0  0  0  0
  5  6  2  0  0  0  0
  5 22  1  0  0  0  0
  6  7  1  0  0  0  0
  6  8  1  0  0  0  0
  7 23  1  0  0  0  0
  7 24  1  0  0  0  0
  7 25  1  0  0  0  0
  8  9  2  0  0  0  0
  9 10  1  0  0  0  0
 10 11  1  0  0  0  0
 10 26  1  0  0  0  0
 11 12  2  0  0  0  0
 11 13  1  0  0  0  0
 13 14  1  0  0  0  0
 13 27  1  0  0  0  0
 14 16  1  0  0  0  0
 14 15  1  0  0  0  0
 14 28  1  0  0  0  0
 15 16  1  0  0  0  0
 15 29  1  0  0  0  0
 15 30  1  0  0  0  0
 16 17  1  0  0  0  0
 16 31  1  0  0  0  0
 17 32  1  0  0  0  0
 17 33  1  0  0  0  0
 17 34  1  0  0  0  0
M  END
> <s_m_source_file>
AV-unprocessed.smi

> <i_m_source_file_index>
2222

> <i_lp_mmshare_version>
43012

> <i_f3d_flags>
0

> <s_epik_input>
W0NIM11PYzFbY0hdW2NIXWMoW0NIM10pbmMxW05IXUMoPU8pW05IXVtDQEBIXTJbQ0gyXVtDQEhdMltDSDNd

> <s_epik_cmdline>
J2VwaWtfcHl0aG9uJywgJy1waCcsICc3LjAnLCAnLXRuJywgJzgnLCAnLW1hJywgJzIwMCcsICctbWV0YWxfYmluZGluZycsICctaW1hZScsICc8aW5maWxlLm1hZT4nLCAnLW9tYWUnLCAnPG91dGZpbGUubWFlPic=

> <r_lp_tautomer_probability>
1

> <r_epik_Ionization_Penalty>
6.59103e-05

> <r_epik_Ionization_Penalty_Charging>
0

> <r_epik_Ionization_Penalty_Neutral>
6.59103e-05

> <r_epik_State_Penalty>
-0

> <r_epik_Charging_Adjusted_Penalty>
0

> <i_epik_Tot_Q>
0

> <i_epik_Tot_abs_Q>
0

> <r_epik_Metal_State_Penalty>
-0

> <b_epik_Metal_Only>
0

> <s_lp_Force_Field>
OPLS_2005

> <r_lp_Energy>
33.3795

> <b_lp_Chiralities_Consistent>
1

> <s_lp_Variant>
AV-unprocessed.smi:2222-4

> <Gold.Version>
5.8.1

> <Gold.Id.Protein>
6NUR|6NUR_protein|mol2

> <Gold.PLP.Fitness>
39.9362

> <Gold.PLP.PLP>
-37.5130

> <Gold.PLP.part.hbond>
-1.0000

> <Gold.PLP.part.metal>
0.0000

> <Gold.PLP.part.buried>
-5.5094

> <Gold.PLP.part.nonpolar>
-30.4730

> <Gold.PLP.part.repulsive>
0.2638

> <Gold.PLP.ligand.clash>
0.0000

> <Gold.PLP.ligand.torsion>
0.3051

> <Gold.PLP.Chemscore.Hbond>
1.0000

> <Gold.PLP.Chemscore.CHOScore>
0.0000

> <Gold.PLP.Chemscore.Metal>
0.0000

> <Gold.Chemscore.Hbonds>
donor molecule, donor type, donor heavy atom, donor atom, acceptor molecule, acceptor atom, score
      L1  H    13    27       P1  8028  1.00

> <Gold.PLP.Chemscore.Internal.Correction>
0.0335

> <Gold.Rescore>
     Score         DG    S(hbond)    S(metal)    S(lipo)     H(rot)  DE(clash)    DE(int)     intcor
     13.75     -16.45       1.00        0.00      91.89       1.22       0.04       2.66       ----

> <Gold.Chemscore.Fitness>
13.7505

> <Gold.Chemscore.DG>
-16.4530

> <Gold.Chemscore.ZeroCoef>
-5.4800

> <Gold.Chemscore.Hbond>
0.9990

> <Gold.Chemscore.Metal>
0.0000

> <Gold.Chemscore.Lipo>
91.8912

> <Gold.Chemscore.Internal_Hbond>
0.0000

> <Gold.Chemscore.DEClash>
0.0403

> <Gold.Chemscore.DEInternal>
2.6622

> <Gold.Chemscore.Rot>
1.2168

> <Gold.Chemscore.Internal.Correction>
   9.000000E+99

> <Gold.Chemscore.Hbonds>
donor molecule, donor type, donor heavy atom, donor atom, acceptor molecule, acceptor atom, score
      L1  H    13    27       P1  8028  0.96

> <Gold.Chemscore.Hbond.Weighted>
-3.3367

> <Gold.Chemscore.Metal.Weighted>
-0.0000

> <Gold.Chemscore.Lipo.Weighted>
-10.7513

> <Gold.Chemscore.Internal_Hbond.Weighted>
0.0000

> <Gold.Chemscore.DEClash.Weighted>
0.0403

> <Gold.Chemscore.DEInternal.Weighted>
2.6622

> <Gold.Chemscore.Rot.Weighted>
3.1150

> <Gold.Chemscore.Internal.Correction.Weighted>
   9.000000E+99

> <Gold.Protein.RotatedTorsions>
[ 6907 6896 6895 6894 ] final -117.31 input  -60.11 | X-H torsion
[ 7974 7965 7964 7962 ] final    3.13 input  175.53 | X-H torsion
[ 8008 7997 7996 7995 ] final  -94.34 input   59.86 | X-H torsion
[ 10167 10162 10161 10158 ] final  -45.00 input  -65.29 | X-H torsion
[ 10718 10713 10712 10709 ] final  -61.00 input   66.30 | X-H torsion
[ 10763 10752 10751 10750 ] final  167.38 input  -60.55 | X-H torsion
[ 11005 11000 10999 10996 ] final   36.43 input  -57.11 | X-H torsion

> <Gold.Protein.ActiveResidues>
 VAL166  LYS551  ARG553  GLY616  TRP617  ASP618  TYR619  PRO620  LYS621  CYS622 
 ASP623  PHE694  ASN695  SER759  ASP760  ASP761  ALA762  ILE779  LEU786  VAL792 
 PHE793  MET794  SER795  GLU796  ALA797  LYS798  CYS799  TRP800  GLU811  SER814 

> <Gold.Protein.RotatedAtoms>
  150.8126  133.8394  159.3174 H   0  0  0  0  0  0  0  0  0  0  0  0  # atno 6907 bound_to 6896
  151.6175  135.1033  160.0104 H   0  0  0  0  0  0  0  0  0  0  0  0  # atno 6908 bound_to 6896
  152.4218  133.7089  159.6524 H   0  0  0  0  0  0  0  0  0  0  0  0  # atno 6909 bound_to 6896
  146.2445  140.0731  142.8361 H   0  0  0  0  0  0  0  0  0  0  0  0  # atno 7974 bound_to 7965
  154.7471  140.0490  157.0862 H   0  0  0  0  0  0  0  0  0  0  0  0  # atno 8008 bound_to 7997
  155.0104  140.3135  155.4813 H   0  0  0  0  0  0  0  0  0  0  0  0  # atno 8009 bound_to 7997
  156.2877  140.2185  156.5218 H   0  0  0  0  0  0  0  0  0  0  0  0  # atno 8010 bound_to 7997
  140.6875  143.2902  151.3576 H   0  0  0  0  0  0  0  0  0  0  0  0  # atno 10167 bound_to 10162
  156.0952  130.4194  150.0932 H   0  0  0  0  0  0  0  0  0  0  0  0  # atno 10718 bound_to 10713
  154.3529  135.2753  155.2362 H   0  0  0  0  0  0  0  0  0  0  0  0  # atno 10763 bound_to 10752
  154.4583  135.5913  153.6242 H   0  0  0  0  0  0  0  0  0  0  0  0  # atno 10764 bound_to 10752
  152.9848  135.6059  154.3741 H   0  0  0  0  0  0  0  0  0  0  0  0  # atno 10765 bound_to 10752
  140.2326  134.3509  155.7957 H   0  0  0  0  0  0  0  0  0  0  0  0  # atno 11005 bound_to 11000
  145.0799  140.9213  143.4832 LP  0  0  0  0  0  0  0  0  0  0  0  0  # atno 17320 bound_to 7965
  145.0882  139.2910  143.5749 LP  0  0  0  0  0  0  0  0  0  0  0  0  # atno 17321 bound_to 7965
  139.6247  144.0838  152.2423 LP  0  0  0  0  0  0  0  0  0  0  0  0  # atno 17342 bound_to 10162
  140.0293  144.6093  150.7501 LP  0  0  0  0  0  0  0  0  0  0  0  0  # atno 17343 bound_to 10162
  156.8933  130.9596  151.3586 LP  0  0  0  0  0  0  0  0  0  0  0  0  # atno 17370 bound_to 10713
  157.6111  130.8583  149.8953 LP  0  0  0  0  0  0  0  0  0  0  0  0  # atno 17371 bound_to 10713
  141.2216  133.7254  156.8756 LP  0  0  0  0  0  0  0  0  0  0  0  0  # atno 17394 bound_to 11000
  140.1735  134.9083  157.2862 LP  0  0  0  0  0  0  0  0  0  0  0  0  # atno 17395 bound_to 11000

$$$$
