AV-unprocessed.smi:1986|AV-procd|sdf|8048|dock5
  -GOLD-   2272010243D 1   1.00000     0.00000
 Structure written by MMmdl.
 47 48  0  0  0  0  0  0  0  0  3 V2000
  148.3675  132.2427  153.4074 C   0  0  0  0  0  0  0  0  0  0  0  0
  147.5923  133.4055  154.0522 C   0  0  0  0  0  0  0  0  0  0  0  0
  146.1763  133.0618  154.6061 C   0  0  1  0  0  0  0  0  0  0  0  0
  146.2478  131.7584  155.4453 C   0  0  0  0  0  0  0  0  0  0  0  0
  145.6936  134.1899  155.5659 C   0  0  0  0  0  0  0  0  0  0  0  0
  146.6496  134.4093  156.6461 N   0  0  0  0  0  0  0  0  0  0  0  0
  146.4670  135.1538  157.7464 C   0  0  0  0  0  0  0  0  0  0  0  0
  145.3901  135.6665  158.0485 O   0  0  0  0  0  0  0  0  0  0  0  0
  147.7077  135.3992  158.6189 C   0  0  0  0  0  0  0  0  0  0  0  0
  147.5365  134.9540  160.0133 N   0  0  0  0  0  0  0  0  0  0  0  0
  147.3432  133.5140  160.1637 N   0  5  0  0  0  0  0  0  0  0  0  0
  147.1410  132.9994  161.4057 C   0  0  0  0  0  0  0  0  0  0  0  0
  146.9567  131.8022  161.6086 O   0  0  0  0  0  0  0  0  0  0  0  0
  147.1676  133.9112  162.5369 C   0  0  0  0  0  0  0  0  0  0  0  0
  147.3947  135.2291  162.3728 C   0  0  0  0  0  0  0  0  0  0  0  0
  147.6088  135.8250  161.0602 C   0  0  0  0  0  0  0  0  0  0  0  0
  147.8396  137.0239  160.9061 O   0  0  0  0  0  0  0  0  0  0  0  0
  145.1801  132.8870  153.4825 N   0  3  0  0  0  0  0  0  0  0  0  0
  144.7123  134.1458  152.8355 C   0  0  0  0  0  0  0  0  0  0  0  0
  143.5568  133.8585  151.8644 C   0  0  0  0  0  0  0  0  0  0  0  0
  143.9852  132.9264  150.8822 O   0  0  0  0  0  0  0  0  0  0  0  0
  144.3539  131.6849  151.4650 C   0  0  0  0  0  0  0  0  0  0  0  0
  145.5318  131.8880  152.4337 C   0  0  0  0  0  0  0  0  0  0  0  0
  149.3444  132.5838  153.0643 H   0  0  0  0  0  0  0  0  0  0  0  0
  147.8485  131.8379  152.5389 H   0  0  0  0  0  0  0  0  0  0  0  0
  148.5413  131.4284  154.1101 H   0  0  0  0  0  0  0  0  0  0  0  0
  148.2173  133.8029  154.8516 H   0  0  0  0  0  0  0  0  0  0  0  0
  147.5171  134.1994  153.3099 H   0  0  0  0  0  0  0  0  0  0  0  0
  146.7631  131.9156  156.3933 H   0  0  0  0  0  0  0  0  0  0  0  0
  146.7885  130.9650  154.9293 H   0  0  0  0  0  0  0  0  0  0  0  0
  145.2539  131.3813  155.6887 H   0  0  0  0  0  0  0  0  0  0  0  0
  145.5206  135.1150  155.0148 H   0  0  0  0  0  0  0  0  0  0  0  0
  144.7306  133.9428  156.0121 H   0  0  0  0  0  0  0  0  0  0  0  0
  147.5728  134.0180  156.5207 H   0  0  0  0  0  0  0  0  0  0  0  0
  148.5690  134.9019  158.1693 H   0  0  0  0  0  0  0  0  0  0  0  0
  147.9382  136.4655  158.5895 H   0  0  0  0  0  0  0  0  0  0  0  0
  147.0098  133.5221  163.5320 H   0  0  0  0  0  0  0  0  0  0  0  0
  147.4113  135.8693  163.2422 H   0  0  0  0  0  0  0  0  0  0  0  0
  144.3632  134.8679  153.5713 H   0  0  0  0  0  0  0  0  0  0  0  0
  145.5284  134.6144  152.2851 H   0  0  0  0  0  0  0  0  0  0  0  0
  142.6846  133.4785  152.3959 H   0  0  0  0  0  0  0  0  0  0  0  0
  143.2483  134.7773  151.3659 H   0  0  0  0  0  0  0  0  0  0  0  0
  143.4994  131.2426  151.9780 H   0  0  0  0  0  0  0  0  0  0  0  0
  144.6369  130.9950  150.6700 H   0  0  0  0  0  0  0  0  0  0  0  0
  146.4084  132.2180  151.8763 H   0  0  0  0  0  0  0  0  0  0  0  0
  145.7688  130.9174  152.8652 H   0  0  0  0  0  0  0  0  0  0  0  0
  144.3612  132.5046  153.9350 H   0  0  0  0  0  0  0  0  0  0  0  0
  1  2  1  0  0  0  0
  1 24  1  0  0  0  0
  1 25  1  0  0  0  0
  1 26  1  0  0  0  0
  2  3  1  0  0  0  0
  2 27  1  0  0  0  0
  2 28  1  0  0  0  0
  3  4  1  0  0  0  0
  3  5  1  0  0  0  0
  3 18  1  0  0  0  0
  4 29  1  0  0  0  0
  4 30  1  0  0  0  0
  4 31  1  0  0  0  0
  5  6  1  0  0  0  0
  5 32  1  0  0  0  0
  5 33  1  0  0  0  0
  6  7  1  0  0  0  0
  6 34  1  0  0  0  0
  7  8  2  0  0  0  0
  7  9  1  0  0  0  0
  9 35  1  0  0  0  0
  9 36  1  0  0  0  0
  9 10  1  0  0  0  0
 10 11  1  0  0  0  0
 10 16  1  0  0  0  0
 11 12  1  0  0  0  0
 12 13  2  0  0  0  0
 12 14  1  0  0  0  0
 14 37  1  0  0  0  0
 14 15  2  0  0  0  0
 15 38  1  0  0  0  0
 15 16  1  0  0  0  0
 16 17  2  0  0  0  0
 18 23  1  0  0  0  0
 18 19  1  0  0  0  0
 18 47  1  0  0  0  0
 19 20  1  0  0  0  0
 19 39  1  0  0  0  0
 19 40  1  0  0  0  0
 20 21  1  0  0  0  0
 20 41  1  0  0  0  0
 20 42  1  0  0  0  0
 21 22  1  0  0  0  0
 22 23  1  0  0  0  0
 22 43  1  0  0  0  0
 22 44  1  0  0  0  0
 23 45  1  0  0  0  0
 23 46  1  0  0  0  0
M  CHG  1  11  -1
M  CHG  1  18   1
M  END
> <s_m_source_file>
AV-unprocessed.smi

> <i_m_source_file_index>
1986

> <i_lp_mmshare_version>
43012

> <i_f3d_flags>
0

> <s_epik_input>
W0NIMl0xW0NIMl1PW0NIMl1bQ0gyXU4xW0NAQF0oW0NIM10pKFtDSDJdW0NIM10pW0NIMl1bTkhdQyg9TylbQ0gyXW4yW25IXWMoPU8pW2NIXVtjSF1jMj1P

> <s_epik_cmdline>
J2VwaWtfcHl0aG9uJywgJy1waCcsICc3LjAnLCAnLXRuJywgJzgnLCAnLW1hJywgJzIwMCcsICctbWV0YWxfYmluZGluZycsICctaW1hZScsICc8aW5maWxlLm1hZT4nLCAnLW9tYWUnLCAnPG91dGZpbGUubWFlPic=

> <r_lp_tautomer_probability>
1

> <r_epik_Ionization_Penalty>
0.604767

> <r_epik_Ionization_Penalty_Charging>
0.604766

> <r_epik_Ionization_Penalty_Neutral>
8.70177e-08

> <r_epik_State_Penalty>
0.54579

> <r_epik_Charging_Adjusted_Penalty>
1.15056

> <i_epik_Tot_Q>
0

> <i_epik_Tot_abs_Q>
2

> <r_epik_Metal_State_Penalty>
0.54579

> <b_epik_Metal_Only>
0

> <s_lp_Force_Field>
OPLS_2005

> <r_lp_Energy>
39.3648

> <b_lp_Chiralities_Consistent>
1

> <s_lp_Variant>
AV-unprocessed.smi:1986-3

> <Gold.Version>
5.8.1

> <Gold.Id.Protein>
6NUR|6NUR_protein|mol2

> <Gold.PLP.Fitness>
42.6614

> <Gold.PLP.PLP>
-32.0052

> <Gold.PLP.part.hbond>
-2.9095

> <Gold.PLP.part.metal>
0.0000

> <Gold.PLP.part.buried>
-6.0964

> <Gold.PLP.part.nonpolar>
-24.5937

> <Gold.PLP.part.repulsive>
0.1892

> <Gold.PLP.ligand.clash>
0.0000

> <Gold.PLP.ligand.torsion>
0.4174

> <Gold.PLP.Chemscore.Hbond>
3.7575

> <Gold.PLP.Chemscore.CHOScore>
0.0000

> <Gold.PLP.Chemscore.Metal>
0.0000

> <Gold.Chemscore.Hbonds>
donor molecule, donor type, donor heavy atom, donor atom, acceptor molecule, acceptor atom, score
      L1  H    18    47       P1 10957  2.00
      P1  H  6931  6943       L1    17  0.96
      P1  H  6934  6947       L1    17  0.70

> <Gold.PLP.Chemscore.Internal.Correction>
0.2185

> <Gold.Rescore>
     Score         DG    S(hbond)    S(metal)    S(lipo)     H(rot)  DE(clash)    DE(int)     intcor
     13.63     -14.27       2.58        0.00      56.17       2.50       0.02       0.61       ----

> <Gold.Chemscore.Fitness>
13.6303

> <Gold.Chemscore.DG>
-14.2656

> <Gold.Chemscore.ZeroCoef>
-5.4800

> <Gold.Chemscore.Hbond>
2.5770

> <Gold.Chemscore.Metal>
0.0000

> <Gold.Chemscore.Lipo>
56.1655

> <Gold.Chemscore.Internal_Hbond>
0.0000

> <Gold.Chemscore.DEClash>
0.0207

> <Gold.Chemscore.DEInternal>
0.6146

> <Gold.Chemscore.Rot>
2.4973

> <Gold.Chemscore.Internal.Correction>
   9.000000E+99

> <Gold.Chemscore.Hbonds>
donor molecule, donor type, donor heavy atom, donor atom, acceptor molecule, acceptor atom, score
      L1  H    18    47       P1 10957  0.52
      P1  H  6931  6943       L1    17  0.90
      P1  H  6934  6947       L1    17  0.68

> <Gold.Chemscore.Hbond.Weighted>
-8.6072

> <Gold.Chemscore.Metal.Weighted>
-0.0000

> <Gold.Chemscore.Lipo.Weighted>
-6.5714

> <Gold.Chemscore.Internal_Hbond.Weighted>
0.0000

> <Gold.Chemscore.DEClash.Weighted>
0.0207

> <Gold.Chemscore.DEInternal.Weighted>
0.6146

> <Gold.Chemscore.Rot.Weighted>
6.3930

> <Gold.Chemscore.Internal.Correction.Weighted>
   9.000000E+99

> <Gold.Protein.RotatedTorsions>
[ 6907 6896 6895 6894 ] final  135.52 input  -60.11 | X-H torsion
[ 7974 7965 7964 7962 ] final  146.03 input  175.53 | X-H torsion
[ 8008 7997 7996 7995 ] final  -17.65 input   59.86 | X-H torsion
[ 10167 10162 10161 10158 ] final   25.55 input  -65.29 | X-H torsion
[ 10718 10713 10712 10709 ] final   53.45 input   66.30 | X-H torsion
[ 10763 10752 10751 10750 ] final  -30.21 input  -60.55 | X-H torsion
[ 11005 11000 10999 10996 ] final -118.53 input  -57.11 | X-H torsion

> <Gold.Protein.ActiveResidues>
 VAL166  LYS551  ARG553  GLY616  TRP617  ASP618  TYR619  PRO620  LYS621  CYS622 
 ASP623  PHE694  ASN695  SER759  ASP760  ASP761  ALA762  ILE779  LEU786  VAL792 
 PHE793  MET794  SER795  GLU796  ALA797  LYS798  CYS799  TRP800  GLU811  SER814 

> <Gold.Protein.RotatedAtoms>
  152.2995  133.5641  159.5609 H   0  0  0  0  0  0  0  0  0  0  0  0  # atno 6907 bound_to 6896
  150.7271  134.0312  159.3743 H   0  0  0  0  0  0  0  0  0  0  0  0  # atno 6908 bound_to 6896
  151.8212  135.0651  160.0476 H   0  0  0  0  0  0  0  0  0  0  0  0  # atno 6909 bound_to 6896
  144.8704  139.5856  143.5889 H   0  0  0  0  0  0  0  0  0  0  0  0  # atno 7974 bound_to 7965
  154.4963  140.2137  155.9440 H   0  0  0  0  0  0  0  0  0  0  0  0  # atno 8008 bound_to 7997
  156.1374  140.3186  155.8411 H   0  0  0  0  0  0  0  0  0  0  0  0  # atno 8009 bound_to 7997
  155.4183  140.0495  157.3018 H   0  0  0  0  0  0  0  0  0  0  0  0  # atno 8010 bound_to 7997
  140.5097  144.0180  150.6367 H   0  0  0  0  0  0  0  0  0  0  0  0  # atno 10167 bound_to 10162
  157.5168  130.8538  149.8506 H   0  0  0  0  0  0  0  0  0  0  0  0  # atno 10718 bound_to 10713
  153.7772  135.6908  153.4895 H   0  0  0  0  0  0  0  0  0  0  0  0  # atno 10763 bound_to 10752
  153.1835  135.4497  155.0057 H   0  0  0  0  0  0  0  0  0  0  0  0  # atno 10764 bound_to 10752
  154.8095  135.3371  154.7278 H   0  0  0  0  0  0  0  0  0  0  0  0  # atno 10765 bound_to 10752
  141.0279  134.0025  157.3187 H   0  0  0  0  0  0  0  0  0  0  0  0  # atno 11005 bound_to 11000
  146.2926  139.7183  142.9150 LP  0  0  0  0  0  0  0  0  0  0  0  0  # atno 17320 bound_to 7965
  145.4142  141.0400  143.3000 LP  0  0  0  0  0  0  0  0  0  0  0  0  # atno 17321 bound_to 7965
  140.3500  143.2969  152.0498 LP  0  0  0  0  0  0  0  0  0  0  0  0  # atno 17342 bound_to 10162
  139.4893  144.6381  151.6934 LP  0  0  0  0  0  0  0  0  0  0  0  0  # atno 17343 bound_to 10162
  156.0326  130.3760  150.1647 LP  0  0  0  0  0  0  0  0  0  0  0  0  # atno 17370 bound_to 10713
  156.9836  130.9871  151.3431 LP  0  0  0  0  0  0  0  0  0  0  0  0  # atno 17371 bound_to 10713
  139.9188  135.0199  156.7986 LP  0  0  0  0  0  0  0  0  0  0  0  0  # atno 17394 bound_to 11000
  140.6458  133.9776  155.7730 LP  0  0  0  0  0  0  0  0  0  0  0  0  # atno 17395 bound_to 11000

$$$$
