AV-unprocessed.smi:984|AV-procd|sdf|4317|dock6
  -GOLD-   22720 2223D 1   1.00000     0.00000
 Structure written by MMmdl.
 34 34  0  0  0  0  0  0  0  0  1 V2000
  151.9957  145.3107  158.9637 C   0  0  0  0  0  0  0  0  0  0  0  0
  151.7748  143.9071  159.5365 C   0  0  0  0  0  0  0  0  0  0  0  0
  153.0768  143.0894  159.6181 C   0  0  0  0  0  0  0  0  0  0  0  0
  152.9169  141.6959  160.2563 C   0  0  0  0  0  0  0  0  0  0  0  0
  152.2144  140.7664  159.3766 N   0  0  0  0  0  0  0  0  0  0  0  0
  152.8010  139.8421  158.6008 C   0  0  0  0  0  0  0  0  0  0  0  0
  154.0139  139.6294  158.6021 O   0  0  0  0  0  0  0  0  0  0  0  0
  151.8805  139.0412  157.6759 C   0  0  0  0  0  0  0  0  0  0  0  0
  150.8907  139.9236  157.0689 N   0  0  0  0  0  0  0  0  0  0  0  0
  150.7955  140.2205  155.7630 C   0  0  0  0  0  0  0  0  0  0  0  0
  151.4633  139.6713  154.8876 O   0  0  0  0  0  0  0  0  0  0  0  0
  149.8137  141.3335  155.3958 C   0  0  0  0  0  0  0  0  0  0  0  0
  148.6782  140.7919  154.6679 N   0  0  0  0  0  0  0  0  0  0  0  0
  148.4412  139.5552  154.2250 C   0  0  0  0  0  0  0  0  0  0  0  0
  147.2965  139.4320  153.5674 N   0  0  0  0  0  0  0  0  0  0  0  0
  146.8467  140.7196  153.6491 C   0  0  0  0  0  0  0  0  0  0  0  0
  147.6369  141.5751  154.2981 N   0  0  0  0  0  0  0  0  0  0  0  0
  151.0563  145.8616  158.9138 H   0  0  0  0  0  0  0  0  0  0  0  0
  152.4078  145.2650  157.9553 H   0  0  0  0  0  0  0  0  0  0  0  0
  152.6850  145.8845  159.5836 H   0  0  0  0  0  0  0  0  0  0  0  0
  151.3279  144.0029  160.5263 H   0  0  0  0  0  0  0  0  0  0  0  0
  151.0480  143.3776  158.9196 H   0  0  0  0  0  0  0  0  0  0  0  0
  153.4758  142.9614  158.6113 H   0  0  0  0  0  0  0  0  0  0  0  0
  153.8280  143.6566  160.1690 H   0  0  0  0  0  0  0  0  0  0  0  0
  153.8890  141.3000  160.5544 H   0  0  0  0  0  0  0  0  0  0  0  0
  152.3347  141.7853  161.1736 H   0  0  0  0  0  0  0  0  0  0  0  0
  151.2111  140.8645  159.3194 H   0  0  0  0  0  0  0  0  0  0  0  0
  152.4769  138.5364  156.9144 H   0  0  0  0  0  0  0  0  0  0  0  0
  151.3584  138.2640  158.2353 H   0  0  0  0  0  0  0  0  0  0  0  0
  150.2898  140.4279  157.7047 H   0  0  0  0  0  0  0  0  0  0  0  0
  149.4482  141.8277  156.2970 H   0  0  0  0  0  0  0  0  0  0  0  0
  150.3153  142.0888  154.7887 H   0  0  0  0  0  0  0  0  0  0  0  0
  149.1242  138.7324  154.3782 H   0  0  0  0  0  0  0  0  0  0  0  0
  145.9101  141.0364  153.2143 H   0  0  0  0  0  0  0  0  0  0  0  0
  1  2  1  0  0  0  0
  1 18  1  0  0  0  0
  1 19  1  0  0  0  0
  1 20  1  0  0  0  0
  2  3  1  0  0  0  0
  2 21  1  0  0  0  0
  2 22  1  0  0  0  0
  3  4  1  0  0  0  0
  3 23  1  0  0  0  0
  3 24  1  0  0  0  0
  4  5  1  0  0  0  0
  4 25  1  0  0  0  0
  4 26  1  0  0  0  0
  5  6  1  0  0  0  0
  5 27  1  0  0  0  0
  6  7  2  0  0  0  0
  6  8  1  0  0  0  0
  8  9  1  0  0  0  0
  8 28  1  0  0  0  0
  8 29  1  0  0  0  0
  9 10  1  0  0  0  0
  9 30  1  0  0  0  0
 10 11  2  0  0  0  0
 10 12  1  0  0  0  0
 12 13  1  0  0  0  0
 12 31  1  0  0  0  0
 12 32  1  0  0  0  0
 13 17  1  0  0  0  0
 13 14  1  0  0  0  0
 14 15  2  0  0  0  0
 14 33  1  0  0  0  0
 15 16  1  0  0  0  0
 16 17  2  0  0  0  0
 16 34  1  0  0  0  0
M  END
> <s_m_source_file>
AV-unprocessed.smi

> <i_m_source_file_index>
984

> <i_lp_mmshare_version>
43012

> <i_f3d_flags>
0

> <s_epik_input>
W0NIM11bQ0gyXVtDSDJdW0NIMl1bTkhdQyg9TylbQ0gyXVtOSF1DKD1PKVtDSDJdbjFbY0hdbltjSF1uMQ==

> <s_epik_cmdline>
J2VwaWtfcHl0aG9uJywgJy1waCcsICc3LjAnLCAnLXRuJywgJzgnLCAnLW1hJywgJzIwMCcsICctbWV0YWxfYmluZGluZycsICctaW1hZScsICc8aW5maWxlLm1hZT4nLCAnLW9tYWUnLCAnPG91dGZpbGUubWFlPic=

> <r_lp_tautomer_probability>
1

> <r_epik_Ionization_Penalty>
7.27004e-06

> <r_epik_Ionization_Penalty_Charging>
0

> <r_epik_Ionization_Penalty_Neutral>
7.27004e-06

> <r_epik_State_Penalty>
-0

> <r_epik_Charging_Adjusted_Penalty>
0

> <i_epik_Tot_Q>
0

> <i_epik_Tot_abs_Q>
0

> <r_epik_Metal_State_Penalty>
-0

> <b_epik_Metal_Only>
0

> <s_lp_Force_Field>
OPLS_2005

> <r_lp_Energy>
2.39519

> <b_lp_Chiralities_Consistent>
1

> <s_lp_Variant>
AV-unprocessed.smi:984-1

> <Gold.Version>
5.8.1

> <Gold.Id.Protein>
6NUR|6NUR_protein|mol2

> <Gold.PLP.Fitness>
43.0757

> <Gold.PLP.PLP>
-35.0706

> <Gold.PLP.part.hbond>
-2.0000

> <Gold.PLP.part.metal>
0.0000

> <Gold.PLP.part.buried>
-4.4735

> <Gold.PLP.part.nonpolar>
-29.4468

> <Gold.PLP.part.repulsive>
0.6074

> <Gold.PLP.ligand.clash>
0.0000

> <Gold.PLP.ligand.torsion>
0.5508

> <Gold.PLP.Chemscore.Hbond>
2.0000

> <Gold.PLP.Chemscore.CHOScore>
0.9981

> <Gold.PLP.Chemscore.Metal>
0.0000

> <Gold.Chemscore.Hbonds>
donor molecule, donor type, donor heavy atom, donor atom, acceptor molecule, acceptor atom, score
      P1  H  7989  7998       L1    11  1.00
      P1  H  7997  8009       L1     7  1.00
      L1  C    16    34       P1 10175  1.00

> <Gold.PLP.Chemscore.Internal.Correction>
0.1123

> <Gold.Rescore>
     Score         DG    S(hbond)    S(metal)    S(lipo)     H(rot)  DE(clash)    DE(int)     intcor
      9.14      -9.80       1.95        0.00      60.21       3.61       0.00       0.67       ----

> <Gold.Chemscore.Fitness>
9.1362

> <Gold.Chemscore.DG>
-9.8017

> <Gold.Chemscore.ZeroCoef>
-5.4800

> <Gold.Chemscore.Hbond>
1.9525

> <Gold.Chemscore.Metal>
0.0000

> <Gold.Chemscore.Lipo>
60.2111

> <Gold.Chemscore.Internal_Hbond>
0.0000

> <Gold.Chemscore.DEClash>
0.0000

> <Gold.Chemscore.DEInternal>
0.6655

> <Gold.Chemscore.Rot>
3.6111

> <Gold.Chemscore.Internal.Correction>
   9.000000E+99

> <Gold.Chemscore.Hbonds>
donor molecule, donor type, donor heavy atom, donor atom, acceptor molecule, acceptor atom, score
      P1  H  7989  7998       L1    11  0.65
      P1  H  7997  8009       L1     7  0.95

> <Gold.Chemscore.Hbond.Weighted>
-6.5214

> <Gold.Chemscore.Metal.Weighted>
-0.0000

> <Gold.Chemscore.Lipo.Weighted>
-7.0447

> <Gold.Chemscore.Internal_Hbond.Weighted>
0.0000

> <Gold.Chemscore.DEClash.Weighted>
0.0000

> <Gold.Chemscore.DEInternal.Weighted>
0.6655

> <Gold.Chemscore.Rot.Weighted>
9.2444

> <Gold.Chemscore.Internal.Correction.Weighted>
   9.000000E+99

> <Gold.Protein.RotatedTorsions>
[ 6907 6896 6895 6894 ] final  -50.93 input  -60.11 | X-H torsion
[ 7974 7965 7964 7962 ] final  178.80 input  175.53 | X-H torsion
[ 8008 7997 7996 7995 ] final  135.04 input   59.86 | X-H torsion
[ 10167 10162 10161 10158 ] final   78.67 input  -65.29 | X-H torsion
[ 10718 10713 10712 10709 ] final -123.34 input   66.30 | X-H torsion
[ 10763 10752 10751 10750 ] final   66.20 input  -60.55 | X-H torsion
[ 11005 11000 10999 10996 ] final   49.43 input  -57.11 | X-H torsion

> <Gold.Protein.ActiveResidues>
 VAL166  LYS551  ARG553  GLY616  TRP617  ASP618  TYR619  PRO620  LYS621  CYS622 
 ASP623  PHE694  ASN695  SER759  ASP760  ASP761  ALA762  ILE779  LEU786  VAL792 
 PHE793  MET794  SER795  GLU796  ALA797  LYS798  CYS799  TRP800  GLU811  SER814 

> <Gold.Protein.RotatedAtoms>
  150.8660  134.8023  159.7118 H   0  0  0  0  0  0  0  0  0  0  0  0  # atno 6907 bound_to 6896
  152.4681  134.5023  159.9738 H   0  0  0  0  0  0  0  0  0  0  0  0  # atno 6908 bound_to 6896
  151.5119  133.3445  159.2922 H   0  0  0  0  0  0  0  0  0  0  0  0  # atno 6909 bound_to 6896
  144.7152  140.0452  143.6436 H   0  0  0  0  0  0  0  0  0  0  0  0  # atno 7974 bound_to 7965
  156.3001  140.2481  156.3516 H   0  0  0  0  0  0  0  0  0  0  0  0  # atno 8008 bound_to 7997
  154.8961  140.0407  157.1885 H   0  0  0  0  0  0  0  0  0  0  0  0  # atno 8009 bound_to 7997
  154.8548  140.2911  155.5579 H   0  0  0  0  0  0  0  0  0  0  0  0  # atno 8010 bound_to 7997
  139.9684  144.5911  150.8007 H   0  0  0  0  0  0  0  0  0  0  0  0  # atno 10167 bound_to 10162
  156.1494  130.6524  150.9891 H   0  0  0  0  0  0  0  0  0  0  0  0  # atno 10718 bound_to 10713
  153.0129  135.5329  154.6787 H   0  0  0  0  0  0  0  0  0  0  0  0  # atno 10763 bound_to 10752
  154.5952  135.2863  155.0595 H   0  0  0  0  0  0  0  0  0  0  0  0  # atno 10764 bound_to 10752
  154.1673  135.6538  153.5053 H   0  0  0  0  0  0  0  0  0  0  0  0  # atno 10765 bound_to 10752
  140.1104  134.4962  155.8682 H   0  0  0  0  0  0  0  0  0  0  0  0  # atno 11005 bound_to 11000
  145.9990  139.3076  143.0939 LP  0  0  0  0  0  0  0  0  0  0  0  0  # atno 17320 bound_to 7965
  145.8815  140.9359  143.0599 LP  0  0  0  0  0  0  0  0  0  0  0  0  # atno 17321 bound_to 7965
  140.7530  143.3000  151.3104 LP  0  0  0  0  0  0  0  0  0  0  0  0  # atno 17342 bound_to 10162
  139.6500  144.0381  152.2619 LP  0  0  0  0  0  0  0  0  0  0  0  0  # atno 17343 bound_to 10162
  157.6644  131.0874  150.7762 LP  0  0  0  0  0  0  0  0  0  0  0  0  # atno 17370 bound_to 10713
  156.7832  130.4866  149.5397 LP  0  0  0  0  0  0  0  0  0  0  0  0  # atno 17371 bound_to 10713
  141.2129  133.6725  156.6694 LP  0  0  0  0  0  0  0  0  0  0  0  0  # atno 17394 bound_to 11000
  140.3098  134.8095  157.4167 LP  0  0  0  0  0  0  0  0  0  0  0  0  # atno 17395 bound_to 11000

$$$$
