AV-unprocessed.smi:657|AV-procd|sdf|3222|dock1
  -GOLD-   22720 0163D 1   1.00000     0.00000
 Structure written by MMmdl.
 47 48  0  0  0  0  0  0  0  0  2 V2000
  144.3321  142.2819  155.8828 C   0  0  0  0  0  0  0  0  0  0  0  0
  145.6557  142.1855  155.0961 C   0  0  0  0  0  0  0  0  0  0  0  0
  145.7272  143.3831  154.1248 C   0  0  0  0  0  0  0  0  0  0  0  0
  145.8204  140.8697  154.3871 N   0  3  2  0  0  0  0  0  0  0  0  0
  145.5135  139.6707  155.2277 C   0  0  0  0  0  0  0  0  0  0  0  0
  145.5232  138.3690  154.4090 C   0  0  0  0  0  0  0  0  0  0  0  0
  146.8481  138.1773  153.6700 C   0  0  0  0  0  0  0  0  0  0  0  0
  147.1223  139.4083  152.7988 C   0  0  0  0  0  0  0  0  0  0  0  0
  147.0972  140.7283  153.6031 C   0  0  2  0  0  0  0  0  0  0  0  0
  148.3892  140.9158  154.4294 C   0  0  0  0  0  0  0  0  0  0  0  0
  149.4601  141.1747  153.8814 O   0  0  0  0  0  0  0  0  0  0  0  0
  148.2644  140.7896  155.7598 N   0  0  0  0  0  0  0  0  0  0  0  0
  149.3410  140.9336  156.7375 C   0  0  0  0  0  0  0  0  0  0  0  0
  150.4033  141.9869  156.3541 C   0  0  0  0  0  0  0  0  0  0  0  0
  151.0687  142.6348  157.5410 C   0  0  0  0  0  0  0  0  0  0  0  0
  151.1292  144.0183  157.8748 C   0  0  0  0  0  0  0  0  0  0  0  0
  151.7821  144.2471  159.0025 N   0  0  0  0  0  0  0  0  0  0  0  0
  152.1707  143.0251  159.4201 N   0  0  0  0  0  0  0  0  0  0  0  0
  152.9281  142.8946  160.6463 C   0  0  0  0  0  0  0  0  0  0  0  0
  151.7593  142.0345  158.5557 C   0  0  0  0  0  0  0  0  0  0  0  0
  144.1875  143.2863  156.2823 H   0  0  0  0  0  0  0  0  0  0  0  0
  144.3131  141.6148  156.7442 H   0  0  0  0  0  0  0  0  0  0  0  0
  143.4733  142.0537  155.2505 H   0  0  0  0  0  0  0  0  0  0  0  0
  146.4623  142.2900  155.8221 H   0  0  0  0  0  0  0  0  0  0  0  0
  145.4813  144.3167  154.6303 H   0  0  0  0  0  0  0  0  0  0  0  0
  145.0267  143.2671  153.2971 H   0  0  0  0  0  0  0  0  0  0  0  0
  146.7249  143.5214  153.7099 H   0  0  0  0  0  0  0  0  0  0  0  0
  146.2066  139.6024  156.0657 H   0  0  0  0  0  0  0  0  0  0  0  0
  144.5184  139.7489  155.6608 H   0  0  0  0  0  0  0  0  0  0  0  0
  145.3377  137.5172  155.0643 H   0  0  0  0  0  0  0  0  0  0  0  0
  144.7041  138.3865  153.6887 H   0  0  0  0  0  0  0  0  0  0  0  0
  147.6580  138.0198  154.3825 H   0  0  0  0  0  0  0  0  0  0  0  0
  146.8045  137.2817  153.0498 H   0  0  0  0  0  0  0  0  0  0  0  0
  148.0790  139.2921  152.2871 H   0  0  0  0  0  0  0  0  0  0  0  0
  146.3698  139.4584  152.0105 H   0  0  0  0  0  0  0  0  0  0  0  0
  147.0924  141.5072  152.8410 H   0  0  0  0  0  0  0  0  0  0  0  0
  147.3480  140.5809  156.1294 H   0  0  0  0  0  0  0  0  0  0  0  0
  148.9247  141.1533  157.7216 H   0  0  0  0  0  0  0  0  0  0  0  0
  149.8216  139.9583  156.8199 H   0  0  0  0  0  0  0  0  0  0  0  0
  151.1523  141.5142  155.7181 H   0  0  0  0  0  0  0  0  0  0  0  0
  149.9341  142.7420  155.7230 H   0  0  0  0  0  0  0  0  0  0  0  0
  150.7110  144.8570  157.3381 H   0  0  0  0  0  0  0  0  0  0  0  0
  152.9075  141.8595  160.9881 H   0  0  0  0  0  0  0  0  0  0  0  0
  152.4985  143.5303  161.4214 H   0  0  0  0  0  0  0  0  0  0  0  0
  153.9624  143.1921  160.4716 H   0  0  0  0  0  0  0  0  0  0  0  0
  151.9829  140.9931  158.7356 H   0  0  0  0  0  0  0  0  0  0  0  0
  145.0955  140.8688  153.6840 H   0  0  0  0  0  0  0  0  0  0  0  0
  1  2  1  0  0  0  0
  1 21  1  0  0  0  0
  1 22  1  0  0  0  0
  1 23  1  0  0  0  0
  2  3  1  0  0  0  0
  2  4  1  0  0  0  0
  2 24  1  0  0  0  0
  3 25  1  0  0  0  0
  3 26  1  0  0  0  0
  3 27  1  0  0  0  0
  4  9  1  0  0  0  0
  4  5  1  0  0  0  0
  4 47  1  0  0  0  0
  5  6  1  0  0  0  0
  5 28  1  0  0  0  0
  5 29  1  0  0  0  0
  6  7  1  0  0  0  0
  6 30  1  0  0  0  0
  6 31  1  0  0  0  0
  7  8  1  0  0  0  0
  7 32  1  0  0  0  0
  7 33  1  0  0  0  0
  8  9  1  0  0  0  0
  8 34  1  0  0  0  0
  8 35  1  0  0  0  0
  9 10  1  0  0  0  0
  9 36  1  0  0  0  0
 10 11  2  0  0  0  0
 10 12  1  0  0  0  0
 12 13  1  0  0  0  0
 12 37  1  0  0  0  0
 13 14  1  0  0  0  0
 13 38  1  0  0  0  0
 13 39  1  0  0  0  0
 14 15  1  0  0  0  0
 14 40  1  0  0  0  0
 14 41  1  0  0  0  0
 15 20  2  0  0  0  0
 15 16  1  0  0  0  0
 16 17  2  0  0  0  0
 16 42  1  0  0  0  0
 17 18  1  0  0  0  0
 18 19  1  0  0  0  0
 18 20  1  0  0  0  0
 19 43  1  0  0  0  0
 19 44  1  0  0  0  0
 19 45  1  0  0  0  0
 20 46  1  0  0  0  0
M  CHG  1   4   1
M  END
> <s_m_source_file>
AV-unprocessed.smi

> <i_m_source_file_index>
657

> <i_lp_mmshare_version>
43012

> <i_f3d_flags>
0

> <s_epik_input>
W0NIM11bQ0hdKFtDSDNdKU4xW0NIMl1bQ0gyXVtDSDJdW0NIMl1bQ0BIXTFDKD1PKVtOSF1bQ0gyXVtDSDJdYzJbY0hdbm4oW0NIM10pW2NIXTI=

> <s_epik_cmdline>
J2VwaWtfcHl0aG9uJywgJy1waCcsICc3LjAnLCAnLXRuJywgJzgnLCAnLW1hJywgJzIwMCcsICctbWV0YWxfYmluZGluZycsICctaW1hZScsICc8aW5maWxlLm1hZT4nLCAnLW9tYWUnLCAnPG91dGZpbGUubWFlPic=

> <r_lp_tautomer_probability>
1

> <r_epik_Ionization_Penalty>
0.0244317

> <r_epik_Ionization_Penalty_Charging>
0.0240236

> <r_epik_Ionization_Penalty_Neutral>
0.00040815

> <r_epik_State_Penalty>
0.0194773

> <r_epik_Charging_Adjusted_Penalty>
0.0435009

> <i_epik_Tot_Q>
1

> <i_epik_Tot_abs_Q>
1

> <r_epik_Metal_State_Penalty>
0.0361957

> <b_epik_Metal_Only>
0

> <s_lp_Force_Field>
OPLS_2005

> <r_lp_Energy>
17.7945

> <b_lp_Chiralities_Consistent>
1

> <s_lp_Variant>
AV-unprocessed.smi:657-3

> <Gold.Version>
5.8.1

> <Gold.Id.Protein>
6NUR|6NUR_protein|mol2

> <Gold.PLP.Fitness>
48.7395

> <Gold.PLP.PLP>
-37.6198

> <Gold.PLP.part.hbond>
-3.0000

> <Gold.PLP.part.metal>
0.0000

> <Gold.PLP.part.buried>
-5.1425

> <Gold.PLP.part.nonpolar>
-32.3791

> <Gold.PLP.part.repulsive>
2.1752

> <Gold.PLP.ligand.clash>
0.0000

> <Gold.PLP.ligand.torsion>
0.8092

> <Gold.PLP.Chemscore.Hbond>
3.2414

> <Gold.PLP.Chemscore.CHOScore>
0.9341

> <Gold.PLP.Chemscore.Metal>
0.0000

> <Gold.Chemscore.Hbonds>
donor molecule, donor type, donor heavy atom, donor atom, acceptor molecule, acceptor atom, score
      L1  H     4    47       P1 10175  2.00
      P1  H  7989  7998       L1    11  0.19
      P1  H  8011  8017       L1    11  0.86
      L1  C    16    42       P1  8028  0.94

> <Gold.PLP.Chemscore.Internal.Correction>
0.2115

> <Gold.Rescore>
     Score         DG    S(hbond)    S(metal)    S(lipo)     H(rot)  DE(clash)    DE(int)     intcor
     13.44     -18.52       2.12        0.00      86.52       1.63       1.36       3.72       ----

> <Gold.Chemscore.Fitness>
13.4390

> <Gold.Chemscore.DG>
-18.5219

> <Gold.Chemscore.ZeroCoef>
-5.4800

> <Gold.Chemscore.Hbond>
2.1215

> <Gold.Chemscore.Metal>
0.0000

> <Gold.Chemscore.Lipo>
86.5241

> <Gold.Chemscore.Internal_Hbond>
0.0000

> <Gold.Chemscore.DEClash>
1.3587

> <Gold.Chemscore.DEInternal>
3.7242

> <Gold.Chemscore.Rot>
1.6279

> <Gold.Chemscore.Internal.Correction>
   9.000000E+99

> <Gold.Chemscore.Hbonds>
donor molecule, donor type, donor heavy atom, donor atom, acceptor molecule, acceptor atom, score
      L1  H     4    47       P1 10175  0.88
      P1  H  7989  7998       L1    11  0.19
      P1  H  8011  8017       L1    11  0.81

> <Gold.Chemscore.Hbond.Weighted>
-7.0859

> <Gold.Chemscore.Metal.Weighted>
-0.0000

> <Gold.Chemscore.Lipo.Weighted>
-10.1233

> <Gold.Chemscore.Internal_Hbond.Weighted>
0.0000

> <Gold.Chemscore.DEClash.Weighted>
1.3587

> <Gold.Chemscore.DEInternal.Weighted>
3.7242

> <Gold.Chemscore.Rot.Weighted>
4.1673

> <Gold.Chemscore.Internal.Correction.Weighted>
   9.000000E+99

> <Gold.Protein.RotatedTorsions>
[ 6907 6896 6895 6894 ] final  169.75 input  -60.11 | X-H torsion
[ 7974 7965 7964 7962 ] final -168.07 input  175.53 | X-H torsion
[ 8008 7997 7996 7995 ] final  115.05 input   59.86 | X-H torsion
[ 10167 10162 10161 10158 ] final    9.41 input  -65.29 | X-H torsion
[ 10718 10713 10712 10709 ] final -152.05 input   66.30 | X-H torsion
[ 10763 10752 10751 10750 ] final  110.25 input  -60.55 | X-H torsion
[ 11005 11000 10999 10996 ] final -138.98 input  -57.11 | X-H torsion

> <Gold.Protein.ActiveResidues>
 VAL166  LYS551  ARG553  GLY616  TRP617  ASP618  TYR619  PRO620  LYS621  CYS622 
 ASP623  PHE694  ASN695  SER759  ASP760  ASP761  ALA762  ILE779  LEU786  VAL792 
 PHE793  MET794  SER795  GLU796  ALA797  LYS798  CYS799  TRP800  GLU811  SER814 

> <Gold.Protein.RotatedAtoms>
  151.8269  133.3403  159.3601 H   0  0  0  0  0  0  0  0  0  0  0  0  # atno 6907 bound_to 6896
  150.7276  134.5520  159.5808 H   0  0  0  0  0  0  0  0  0  0  0  0  # atno 6908 bound_to 6896
  152.2964  134.7662  160.0418 H   0  0  0  0  0  0  0  0  0  0  0  0  # atno 6909 bound_to 6896
  144.7210  140.2424  143.6289 H   0  0  0  0  0  0  0  0  0  0  0  0  # atno 7974 bound_to 7965
  156.2358  140.2946  156.0309 H   0  0  0  0  0  0  0  0  0  0  0  0  # atno 8008 bound_to 7997
  155.2096  140.0412  157.2948 H   0  0  0  0  0  0  0  0  0  0  0  0  # atno 8009 bound_to 7997
  154.6076  140.2443  155.7718 H   0  0  0  0  0  0  0  0  0  0  0  0  # atno 8010 bound_to 7997
  140.6257  143.8107  150.7230 H   0  0  0  0  0  0  0  0  0  0  0  0  # atno 10167 bound_to 10162
  156.4674  130.8242  151.2472 H   0  0  0  0  0  0  0  0  0  0  0  0  # atno 10718 bound_to 10713
  153.4462  135.3754  155.2257 H   0  0  0  0  0  0  0  0  0  0  0  0  # atno 10763 bound_to 10752
  154.8755  135.3875  154.4093 H   0  0  0  0  0  0  0  0  0  0  0  0  # atno 10764 bound_to 10752
  153.4645  135.7087  153.6094 H   0  0  0  0  0  0  0  0  0  0  0  0  # atno 10765 bound_to 10752
  140.8563  134.2223  157.4732 H   0  0  0  0  0  0  0  0  0  0  0  0  # atno 11005 bound_to 11000
  145.8306  139.2084  143.1885 LP  0  0  0  0  0  0  0  0  0  0  0  0  # atno 17320 bound_to 7965
  146.0434  140.8142  142.9817 LP  0  0  0  0  0  0  0  0  0  0  0  0  # atno 17321 bound_to 7965
  140.1707  143.4197  152.2003 LP  0  0  0  0  0  0  0  0  0  0  0  0  # atno 17342 bound_to 10162
  139.5477  144.7312  151.4530 LP  0  0  0  0  0  0  0  0  0  0  0  0  # atno 17343 bound_to 10162
  157.7494  131.0087  150.3240 LP  0  0  0  0  0  0  0  0  0  0  0  0  # atno 17370 bound_to 10713
  156.3654  130.3854  149.7218 LP  0  0  0  0  0  0  0  0  0  0  0  0  # atno 17371 bound_to 10713
  139.8705  134.9708  156.4714 LP  0  0  0  0  0  0  0  0  0  0  0  0  # atno 17394 bound_to 11000
  140.8733  133.7972  155.9387 LP  0  0  0  0  0  0  0  0  0  0  0  0  # atno 17395 bound_to 11000

$$$$
