AV-unprocessed.smi:759|AV-procd|sdf|3624|dock1
  -GOLD-   22720 1 13D 1   1.00000     0.00000
 Structure written by MMmdl.
 24 25  0  0  0  0  0  0  0  0  2 V2000
  147.1275  134.6210  154.1863 C   0  0  0  0  0  0  0  0  0  0  0  0
  146.1335  133.8757  154.6712 N   0  0  0  0  0  0  0  0  0  0  0  0
  145.4466  133.4304  153.5534 N   0  0  0  0  0  0  0  0  0  0  0  0
  146.0908  133.9522  152.5013 C   0  0  0  0  0  0  0  0  0  0  0  0
  145.7032  133.7434  151.0693 C   0  0  1  0  0  0  0  0  0  0  0  0
  145.7688  132.2584  150.6625 C   0  0  0  0  0  0  0  0  0  0  0  0
  145.3456  132.0816  149.1960 C   0  0  0  0  0  0  0  0  0  0  0  0
  143.9620  132.7034  148.9439 C   0  0  0  0  0  0  0  0  0  0  0  0
  143.9498  134.1285  149.3397 N   0  3  0  0  0  0  0  0  0  0  0  0
  144.3138  134.3380  150.7586 C   0  0  0  0  0  0  0  0  0  0  0  0
  147.1481  134.7015  152.8508 N   0  0  0  0  0  0  0  0  0  0  0  0
  147.7972  135.1998  152.2591 H   0  0  0  0  0  0  0  0  0  0  0  0
  147.8515  135.1162  154.8166 H   0  0  0  0  0  0  0  0  0  0  0  0
  146.4312  134.2804  150.4582 H   0  0  0  0  0  0  0  0  0  0  0  0
  146.7777  131.8703  150.8083 H   0  0  0  0  0  0  0  0  0  0  0  0
  145.1124  131.6668  151.3023 H   0  0  0  0  0  0  0  0  0  0  0  0
  146.0827  132.5497  148.5422 H   0  0  0  0  0  0  0  0  0  0  0  0
  145.3312  131.0224  148.9372 H   0  0  0  0  0  0  0  0  0  0  0  0
  143.6980  132.6249  147.8890 H   0  0  0  0  0  0  0  0  0  0  0  0
  143.1959  132.1672  149.5058 H   0  0  0  0  0  0  0  0  0  0  0  0
  144.6096  134.6279  148.7607 H   0  0  0  0  0  0  0  0  0  0  0  0
  143.5501  133.8806  151.3895 H   0  0  0  0  0  0  0  0  0  0  0  0
  144.3022  135.4078  150.9698 H   0  0  0  0  0  0  0  0  0  0  0  0
  143.0261  134.5049  149.1801 H   0  0  0  0  0  0  0  0  0  0  0  0
  1 11  1  0  0  0  0
  1  2  2  0  0  0  0
  1 13  1  0  0  0  0
  2  3  1  0  0  0  0
  3  4  2  0  0  0  0
  4  5  1  0  0  0  0
  4 11  1  0  0  0  0
  5 10  1  0  0  0  0
  5  6  1  0  0  0  0
  5 14  1  0  0  0  0
  6  7  1  0  0  0  0
  6 15  1  0  0  0  0
  6 16  1  0  0  0  0
  7  8  1  0  0  0  0
  7 17  1  0  0  0  0
  7 18  1  0  0  0  0
  8  9  1  0  0  0  0
  8 19  1  0  0  0  0
  8 20  1  0  0  0  0
  9 10  1  0  0  0  0
  9 21  1  0  0  0  0
  9 24  1  0  0  0  0
 10 22  1  0  0  0  0
 10 23  1  0  0  0  0
 11 12  1  0  0  0  0
M  CHG  1   9   1
M  END
> <s_m_source_file>
AV-unprocessed.smi

> <i_m_source_file_index>
759

> <i_lp_mmshare_version>
43012

> <i_f3d_flags>
0

> <s_epik_input>
W25IXTFbY0hdbm5jMVtDQEBIXTJbQ0gyXVtDSDJdW0NIMl1bTkhdW0NIMl0y

> <s_epik_cmdline>
J2VwaWtfcHl0aG9uJywgJy1waCcsICc3LjAnLCAnLXRuJywgJzgnLCAnLW1hJywgJzIwMCcsICctbWV0YWxfYmluZGluZycsICctaW1hZScsICc8aW5maWxlLm1hZT4nLCAnLW9tYWUnLCAnPG91dGZpbGUubWFlPic=

> <r_lp_tautomer_probability>
0.0517155

> <r_epik_Ionization_Penalty>
0.0333069

> <r_epik_Ionization_Penalty_Charging>
0.000426856

> <r_epik_Ionization_Penalty_Neutral>
0.03288

> <r_epik_State_Penalty>
2.11054

> <r_epik_Charging_Adjusted_Penalty>
2.11097

> <i_epik_Tot_Q>
1

> <i_epik_Tot_abs_Q>
1

> <r_epik_Metal_State_Penalty>
2.37626

> <b_epik_Metal_Only>
0

> <s_lp_Force_Field>
OPLS_2005

> <r_lp_Energy>
13.742

> <b_lp_Chiralities_Consistent>
1

> <s_lp_Variant>
AV-unprocessed.smi:759-6

> <Gold.Version>
5.8.1

> <Gold.Id.Protein>
6NUR|6NUR_protein|mol2

> <Gold.PLP.Fitness>
32.4599

> <Gold.PLP.PLP>
-20.4651

> <Gold.PLP.part.hbond>
-3.0000

> <Gold.PLP.part.metal>
0.0000

> <Gold.PLP.part.buried>
-3.2502

> <Gold.PLP.part.nonpolar>
-14.5843

> <Gold.PLP.part.repulsive>
0.2788

> <Gold.PLP.ligand.clash>
0.0000

> <Gold.PLP.ligand.torsion>
0.0165

> <Gold.PLP.Chemscore.Hbond>
4.0000

> <Gold.PLP.Chemscore.CHOScore>
0.0000

> <Gold.PLP.Chemscore.Metal>
0.0000

> <Gold.Chemscore.Hbonds>
donor molecule, donor type, donor heavy atom, donor atom, acceptor molecule, acceptor atom, score
      L1  H     9    21       P1  7921  1.00
      L1  H     9    24       P1 10186  1.93
      L1  H    11    12       P1  7948  1.00

> <Gold.PLP.Chemscore.Internal.Correction>
0.0278

> <Gold.Rescore>
     Score         DG    S(hbond)    S(metal)    S(lipo)     H(rot)  DE(clash)    DE(int)     intcor
     18.23     -18.26       2.89        0.00      48.55       1.00       0.01       0.02       ----

> <Gold.Chemscore.Fitness>
18.2317

> <Gold.Chemscore.DG>
-18.2590

> <Gold.Chemscore.ZeroCoef>
-5.4800

> <Gold.Chemscore.Hbond>
2.8918

> <Gold.Chemscore.Metal>
0.0000

> <Gold.Chemscore.Lipo>
48.5508

> <Gold.Chemscore.Internal_Hbond>
0.0000

> <Gold.Chemscore.DEClash>
0.0060

> <Gold.Chemscore.DEInternal>
0.0214

> <Gold.Chemscore.Rot>
1.0000

> <Gold.Chemscore.Internal.Correction>
   9.000000E+99

> <Gold.Chemscore.Hbonds>
donor molecule, donor type, donor heavy atom, donor atom, acceptor molecule, acceptor atom, score
      L1  H     9    21       P1  7921  0.98
      L1  H     9    24       P1 10186  0.86
      L1  H    11    12       P1  7948  0.93

> <Gold.Chemscore.Hbond.Weighted>
-9.6586

> <Gold.Chemscore.Metal.Weighted>
-0.0000

> <Gold.Chemscore.Lipo.Weighted>
-5.6804

> <Gold.Chemscore.Internal_Hbond.Weighted>
0.0000

> <Gold.Chemscore.DEClash.Weighted>
0.0060

> <Gold.Chemscore.DEInternal.Weighted>
0.0214

> <Gold.Chemscore.Rot.Weighted>
2.5600

> <Gold.Chemscore.Internal.Correction.Weighted>
   9.000000E+99

> <Gold.Protein.RotatedTorsions>
[ 6907 6896 6895 6894 ] final   73.94 input  -60.11 | X-H torsion
[ 7974 7965 7964 7962 ] final  -31.51 input  175.53 | X-H torsion
[ 8008 7997 7996 7995 ] final   78.35 input   59.86 | X-H torsion
[ 10167 10162 10161 10158 ] final -120.92 input  -65.29 | X-H torsion
[ 10718 10713 10712 10709 ] final  164.75 input   66.30 | X-H torsion
[ 10763 10752 10751 10750 ] final  -26.02 input  -60.55 | X-H torsion
[ 11005 11000 10999 10996 ] final  -93.80 input  -57.11 | X-H torsion

> <Gold.Protein.ActiveResidues>
 VAL166  LYS551  ARG553  GLY616  TRP617  ASP618  TYR619  PRO620  LYS621  CYS622 
 ASP623  PHE694  ASN695  SER759  ASP760  ASP761  ALA762  ILE779  LEU786  VAL792 
 PHE793  MET794  SER795  GLU796  ALA797  LYS798  CYS799  TRP800  GLU811  SER814 

> <Gold.Protein.RotatedAtoms>
  152.4950  134.4347  159.9523 H   0  0  0  0  0  0  0  0  0  0  0  0  # atno 6907 bound_to 6896
  151.4327  133.3659  159.2779 H   0  0  0  0  0  0  0  0  0  0  0  0  # atno 6908 bound_to 6896
  150.9143  134.8584  159.7506 H   0  0  0  0  0  0  0  0  0  0  0  0  # atno 6909 bound_to 6896
  146.1062  140.5676  142.8799 H   0  0  0  0  0  0  0  0  0  0  0  0  # atno 7974 bound_to 7965
  155.8545  140.3456  155.5715 H   0  0  0  0  0  0  0  0  0  0  0  0  # atno 8008 bound_to 7997
  155.8001  140.0884  157.1981 H   0  0  0  0  0  0  0  0  0  0  0  0  # atno 8009 bound_to 7997
  154.4009  140.1467  156.3252 H   0  0  0  0  0  0  0  0  0  0  0  0  # atno 8010 bound_to 7997
  140.0307  143.5251  152.2178 H   0  0  0  0  0  0  0  0  0  0  0  0  # atno 10167 bound_to 10162
  157.0900  131.0415  151.2541 H   0  0  0  0  0  0  0  0  0  0  0  0  # atno 10718 bound_to 10713
  153.7092  135.6952  153.5042 H   0  0  0  0  0  0  0  0  0  0  0  0  # atno 10763 bound_to 10752
  153.2285  135.4345  155.0568 H   0  0  0  0  0  0  0  0  0  0  0  0  # atno 10764 bound_to 10752
  154.8320  135.3478  154.6629 H   0  0  0  0  0  0  0  0  0  0  0  0  # atno 10765 bound_to 10752
  141.1488  133.7912  157.0209 H   0  0  0  0  0  0  0  0  0  0  0  0  # atno 11005 bound_to 11000
  144.7472  140.5100  143.6827 LP  0  0  0  0  0  0  0  0  0  0  0  0  # atno 17320 bound_to 7965
  145.5757  139.1486  143.3264 LP  0  0  0  0  0  0  0  0  0  0  0  0  # atno 17321 bound_to 7965
  139.6078  144.7601  151.3021 LP  0  0  0  0  0  0  0  0  0  0  0  0  # atno 17342 bound_to 10162
  140.7303  143.6883  150.7943 LP  0  0  0  0  0  0  0  0  0  0  0  0  # atno 17343 bound_to 10162
  157.4729  130.7719  149.7341 LP  0  0  0  0  0  0  0  0  0  0  0  0  # atno 17370 bound_to 10713
  155.9900  130.3947  150.3045 LP  0  0  0  0  0  0  0  0  0  0  0  0  # atno 17371 bound_to 10713
  140.0816  134.9645  157.1633 LP  0  0  0  0  0  0  0  0  0  0  0  0  # atno 17394 bound_to 11000
  140.3569  134.2537  155.7191 LP  0  0  0  0  0  0  0  0  0  0  0  0  # atno 17395 bound_to 11000

$$$$
