AV-unprocessed.smi:2044|AV-procd|sdf|8300|dock9
  -GOLD-   2272010563D 1   1.00000     0.00000
 Structure written by MMmdl.
 40 41  0  0  0  0  0  0  0  0  2 V2000
  150.8211  141.5605  157.3165 C   0  0  0  0  0  0  0  0  0  0  0  0
  150.4723  140.5337  156.2945 C   0  0  0  0  0  0  0  0  0  0  0  0
  149.3096  140.2244  155.6471 C   0  0  0  0  0  0  0  0  0  0  0  0
  149.6906  139.1355  154.8101 C   0  0  0  0  0  0  0  0  0  0  0  0
  148.8449  138.4217  153.9222 N   0  0  0  0  0  0  0  0  0  0  0  0
  147.5122  138.5165  153.7820 C   0  0  0  0  0  0  0  0  0  0  0  0
  146.7811  139.2791  154.4135 O   0  0  0  0  0  0  0  0  0  0  0  0
  147.0612  137.6722  152.8418 N   0  0  0  0  0  0  0  0  0  0  0  0
  145.6630  137.5122  152.4474 C   0  0  0  0  0  0  0  0  0  0  0  0
  145.4035  136.2230  151.6228 C   0  0  2  0  0  0  0  0  0  0  0  0
  143.8970  135.8629  151.6207 C   0  0  0  0  0  0  0  0  0  0  0  0
  146.2787  135.1104  152.1208 N   0  3  0  0  0  0  0  0  0  0  0  0
  146.2460  134.8709  153.5907 C   0  0  0  0  0  0  0  0  0  0  0  0
  147.2071  133.7379  153.9907 C   0  0  0  0  0  0  0  0  0  0  0  0
  146.8859  132.5544  153.2758 O   0  0  0  0  0  0  0  0  0  0  0  0
  147.0216  132.7411  151.8750 C   0  0  0  0  0  0  0  0  0  0  0  0
  146.0395  133.8265  151.4061 C   0  0  0  0  0  0  0  0  0  0  0  0
  150.9653  138.8165  154.9387 N   0  0  0  0  0  0  0  0  0  0  0  0
  151.4754  139.7098  155.8880 O   0  0  0  0  0  0  0  0  0  0  0  0
  149.9356  142.1141  157.6299 H   0  0  0  0  0  0  0  0  0  0  0  0
  151.5422  142.2734  156.9169 H   0  0  0  0  0  0  0  0  0  0  0  0
  151.2579  141.0946  158.1997 H   0  0  0  0  0  0  0  0  0  0  0  0
  148.3518  140.7075  155.7686 H   0  0  0  0  0  0  0  0  0  0  0  0
  149.3146  137.7608  153.3212 H   0  0  0  0  0  0  0  0  0  0  0  0
  147.7350  137.0843  152.3726 H   0  0  0  0  0  0  0  0  0  0  0  0
  145.0966  137.5046  153.3766 H   0  0  0  0  0  0  0  0  0  0  0  0
  145.3114  138.3845  151.8934 H   0  0  0  0  0  0  0  0  0  0  0  0
  145.6761  136.4180  150.5842 H   0  0  0  0  0  0  0  0  0  0  0  0
  143.2842  136.6855  151.2542 H   0  0  0  0  0  0  0  0  0  0  0  0
  143.5448  135.6134  152.6222 H   0  0  0  0  0  0  0  0  0  0  0  0
  143.6741  135.0259  150.9590 H   0  0  0  0  0  0  0  0  0  0  0  0
  146.5526  135.7616  154.1381 H   0  0  0  0  0  0  0  0  0  0  0  0
  145.2286  134.6267  153.9005 H   0  0  0  0  0  0  0  0  0  0  0  0
  148.2437  134.0218  153.8009 H   0  0  0  0  0  0  0  0  0  0  0  0
  147.1243  133.5375  155.0591 H   0  0  0  0  0  0  0  0  0  0  0  0
  148.0498  133.0075  151.6243 H   0  0  0  0  0  0  0  0  0  0  0  0
  146.8054  131.7985  151.3719 H   0  0  0  0  0  0  0  0  0  0  0  0
  145.0149  133.4956  151.5837 H   0  0  0  0  0  0  0  0  0  0  0  0
  146.1506  133.9452  150.3302 H   0  0  0  0  0  0  0  0  0  0  0  0
  147.2275  135.3884  151.9129 H   0  0  0  0  0  0  0  0  0  0  0  0
  1  2  1  0  0  0  0
  1 20  1  0  0  0  0
  1 21  1  0  0  0  0
  1 22  1  0  0  0  0
  2 19  1  0  0  0  0
  2  3  2  0  0  0  0
  3  4  1  0  0  0  0
  3 23  1  0  0  0  0
  4  5  1  0  0  0  0
  4 18  2  0  0  0  0
  5  6  1  0  0  0  0
  5 24  1  0  0  0  0
  6  7  2  0  0  0  0
  6  8  1  0  0  0  0
  8  9  1  0  0  0  0
  8 25  1  0  0  0  0
  9 10  1  0  0  0  0
  9 26  1  0  0  0  0
  9 27  1  0  0  0  0
 10 11  1  0  0  0  0
 10 12  1  0  0  0  0
 10 28  1  0  0  0  0
 11 29  1  0  0  0  0
 11 30  1  0  0  0  0
 11 31  1  0  0  0  0
 12 17  1  0  0  0  0
 12 13  1  0  0  0  0
 12 40  1  0  0  0  0
 13 14  1  0  0  0  0
 13 32  1  0  0  0  0
 13 33  1  0  0  0  0
 14 15  1  0  0  0  0
 14 34  1  0  0  0  0
 14 35  1  0  0  0  0
 15 16  1  0  0  0  0
 16 17  1  0  0  0  0
 16 36  1  0  0  0  0
 16 37  1  0  0  0  0
 17 38  1  0  0  0  0
 17 39  1  0  0  0  0
 18 19  1  0  0  0  0
M  CHG  1  12   1
M  END
> <s_m_source_file>
AV-unprocessed.smi

> <i_m_source_file_index>
2044

> <i_lp_mmshare_version>
43012

> <i_f3d_flags>
0

> <s_epik_input>
W0NIM11jMVtjSF1jKG5vMSlbTkhdQyg9TylbTkhdW0NIMl1bQ0BIXShbQ0gzXSlOMltDSDJdW0NIMl1PW0NIMl1bQ0gyXTI=

> <s_epik_cmdline>
J2VwaWtfcHl0aG9uJywgJy1waCcsICc3LjAnLCAnLXRuJywgJzgnLCAnLW1hJywgJzIwMCcsICctbWV0YWxfYmluZGluZycsICctaW1hZScsICc8aW5maWxlLm1hZT4nLCAnLW9tYWUnLCAnPG91dGZpbGUubWFlPic=

> <r_epik_Ionization_Penalty>
0.707076

> <r_epik_Ionization_Penalty_Charging>
0.707039

> <r_epik_Ionization_Penalty_Neutral>
3.67886e-05

> <r_epik_State_Penalty>
0.730276

> <r_epik_Charging_Adjusted_Penalty>
1.43732

> <i_epik_Tot_Q>
1

> <i_epik_Tot_abs_Q>
1

> <r_epik_Metal_State_Penalty>
0.743216

> <b_epik_Metal_Only>
0

> <s_lp_Force_Field>
OPLS_2005

> <r_lp_Energy>
20.903

> <b_lp_Chiralities_Consistent>
1

> <s_lp_Variant>
AV-unprocessed.smi:2044-3

> <Gold.Version>
5.8.1

> <Gold.Id.Protein>
6NUR|6NUR_protein|mol2

> <Gold.PLP.Fitness>
41.7673

> <Gold.PLP.PLP>
-30.9998

> <Gold.PLP.part.hbond>
-6.0000

> <Gold.PLP.part.metal>
0.0000

> <Gold.PLP.part.buried>
-3.7050

> <Gold.PLP.part.nonpolar>
-22.8736

> <Gold.PLP.part.repulsive>
0.5425

> <Gold.PLP.ligand.clash>
0.0000

> <Gold.PLP.ligand.torsion>
0.4063

> <Gold.PLP.Chemscore.Hbond>
3.8437

> <Gold.PLP.Chemscore.CHOScore>
0.0000

> <Gold.PLP.Chemscore.Metal>
0.0000

> <Gold.Chemscore.Hbonds>
donor molecule, donor type, donor heavy atom, donor atom, acceptor molecule, acceptor atom, score
      L1  H     5    24       P1  7948  0.69
      L1  H     8    25       P1  7948  1.00
      L1  H    12    40       P1  7948  2.00

> <Gold.PLP.Chemscore.Internal.Correction>
0.0491

> <Gold.Rescore>
     Score         DG    S(hbond)    S(metal)    S(lipo)     H(rot)  DE(clash)    DE(int)     intcor
     14.84     -16.40       2.73        0.00      50.87       1.62       0.14       1.42       ----

> <Gold.Chemscore.Fitness>
14.8447

> <Gold.Chemscore.DG>
-16.4049

> <Gold.Chemscore.ZeroCoef>
-5.4800

> <Gold.Chemscore.Hbond>
2.7316

> <Gold.Chemscore.Metal>
0.0000

> <Gold.Chemscore.Lipo>
50.8713

> <Gold.Chemscore.Internal_Hbond>
0.0000

> <Gold.Chemscore.DEClash>
0.1361

> <Gold.Chemscore.DEInternal>
1.4241

> <Gold.Chemscore.Rot>
1.6213

> <Gold.Chemscore.Internal.Correction>
   9.000000E+99

> <Gold.Chemscore.Hbonds>
donor molecule, donor type, donor heavy atom, donor atom, acceptor molecule, acceptor atom, score
      L1  H     5    24       P1  7948  0.66
      L1  H     8    25       P1  7948  0.96
      L1  H    12    40       P1  7948  1.00

> <Gold.Chemscore.Hbond.Weighted>
-9.1236

> <Gold.Chemscore.Metal.Weighted>
-0.0000

> <Gold.Chemscore.Lipo.Weighted>
-5.9519

> <Gold.Chemscore.Internal_Hbond.Weighted>
0.0000

> <Gold.Chemscore.DEClash.Weighted>
0.1361

> <Gold.Chemscore.DEInternal.Weighted>
1.4241

> <Gold.Chemscore.Rot.Weighted>
4.1506

> <Gold.Chemscore.Internal.Correction.Weighted>
   9.000000E+99

> <Gold.Protein.RotatedTorsions>
[ 6907 6896 6895 6894 ] final    1.24 input  -60.11 | X-H torsion
[ 7974 7965 7964 7962 ] final   23.63 input  175.53 | X-H torsion
[ 8008 7997 7996 7995 ] final -102.55 input   59.86 | X-H torsion
[ 10167 10162 10161 10158 ] final  -14.99 input  -65.29 | X-H torsion
[ 10718 10713 10712 10709 ] final   55.80 input   66.30 | X-H torsion
[ 10763 10752 10751 10750 ] final  132.51 input  -60.55 | X-H torsion
[ 11005 11000 10999 10996 ] final  -42.32 input  -57.11 | X-H torsion

> <Gold.Protein.ActiveResidues>
 VAL166  LYS551  ARG553  GLY616  TRP617  ASP618  TYR619  PRO620  LYS621  CYS622 
 ASP623  PHE694  ASN695  SER759  ASP760  ASP761  ALA762  ILE779  LEU786  VAL792 
 PHE793  MET794  SER795  GLU796  ALA797  LYS798  CYS799  TRP800  GLU811  SER814 

> <Gold.Protein.RotatedAtoms>
  151.5894  135.1054  160.0035 H   0  0  0  0  0  0  0  0  0  0  0  0  # atno 6907 bound_to 6896
  152.4314  133.7280  159.6581 H   0  0  0  0  0  0  0  0  0  0  0  0  # atno 6908 bound_to 6896
  150.8207  133.8188  159.3163 H   0  0  0  0  0  0  0  0  0  0  0  0  # atno 6909 bound_to 6896
  146.1975  139.7717  142.8786 H   0  0  0  0  0  0  0  0  0  0  0  0  # atno 7974 bound_to 7965
  154.8582  140.0428  157.1648 H   0  0  0  0  0  0  0  0  0  0  0  0  # atno 8008 bound_to 7997
  154.8868  140.2980  155.5373 H   0  0  0  0  0  0  0  0  0  0  0  0  # atno 8009 bound_to 7997
  156.2998  140.2401  156.3878 H   0  0  0  0  0  0  0  0  0  0  0  0  # atno 8010 bound_to 7997
  140.7211  143.5264  150.9571 H   0  0  0  0  0  0  0  0  0  0  0  0  # atno 10167 bound_to 10162
  157.5376  130.8674  149.8776 H   0  0  0  0  0  0  0  0  0  0  0  0  # atno 10718 bound_to 10713
  153.7920  135.3154  155.3379 H   0  0  0  0  0  0  0  0  0  0  0  0  # atno 10763 bound_to 10752
  154.8122  135.4660  154.0550 H   0  0  0  0  0  0  0  0  0  0  0  0  # atno 10764 bound_to 10752
  153.1871  135.6902  153.8488 H   0  0  0  0  0  0  0  0  0  0  0  0  # atno 10765 bound_to 10752
  141.0308  133.6821  156.2579 H   0  0  0  0  0  0  0  0  0  0  0  0  # atno 11005 bound_to 11000
  145.3594  141.0323  143.3293 LP  0  0  0  0  0  0  0  0  0  0  0  0  # atno 17320 bound_to 7965
  144.8612  139.5175  143.6811 LP  0  0  0  0  0  0  0  0  0  0  0  0  # atno 17321 bound_to 7965
  139.8983  143.6867  152.3135 LP  0  0  0  0  0  0  0  0  0  0  0  0  # atno 17342 bound_to 10162
  139.7207  144.7603  151.0959 LP  0  0  0  0  0  0  0  0  0  0  0  0  # atno 17343 bound_to 10162
  156.0471  130.3725  150.1291 LP  0  0  0  0  0  0  0  0  0  0  0  0  # atno 17370 bound_to 10713
  156.9473  130.9763  151.3505 LP  0  0  0  0  0  0  0  0  0  0  0  0  # atno 17371 bound_to 10713
  140.6411  134.5165  157.5569 LP  0  0  0  0  0  0  0  0  0  0  0  0  # atno 17394 bound_to 11000
  139.9206  134.8156  156.1223 LP  0  0  0  0  0  0  0  0  0  0  0  0  # atno 17395 bound_to 11000

$$$$
