AV-unprocessed.smi:1260|AV-procd|sdf|5293|dock6
  -GOLD-   22720 4413D 1   1.00000     0.00000
 Structure written by MMmdl.
 37 39  0  0  0  0  0  0  0  0  2 V2000
  151.2465  140.9421  157.7392 O   0  0  0  0  0  0  0  0  0  0  0  0
  150.7471  141.8437  157.0671 C   0  0  0  0  0  0  0  0  0  0  0  0
  150.3997  141.5990  155.5993 C   0  0  0  0  0  0  0  0  0  0  0  0
  149.0392  141.1122  155.4710 N   0  0  0  0  0  0  0  0  0  0  0  0
  147.8710  141.6839  155.7708 C   0  0  0  0  0  0  0  0  0  0  0  0
  146.8499  140.8938  155.4773 N   0  0  0  0  0  0  0  0  0  0  0  0
  147.4644  139.7633  154.9651 N   0  0  0  0  0  0  0  0  0  0  0  0
  148.7634  139.8876  154.9575 N   0  0  0  0  0  0  0  0  0  0  0  0
  150.4966  143.0727  157.5456 N   0  0  0  0  0  0  0  0  0  0  0  0
  150.8009  143.5259  158.8999 C   0  0  2  0  0  0  0  0  0  0  0  0
  150.3281  144.9603  159.1735 C   0  0  0  0  0  0  0  0  0  0  0  0
  151.4119  145.5823  160.0771 C   0  0  0  0  0  0  0  0  0  0  0  0
  152.4183  144.5244  160.3291 N   0  3  1  0  0  0  0  0  0  0  0  0
  152.2204  143.8691  161.6519 C   0  0  0  0  0  0  0  0  0  0  0  0
  153.0983  142.6220  161.8196 C   0  0  0  0  0  0  0  0  0  0  0  0
  152.8120  141.6191  160.6993 C   0  0  0  0  0  0  0  0  0  0  0  0
  153.0767  142.2837  159.3450 C   0  0  0  0  0  0  0  0  0  0  0  0
  152.3100  143.6138  159.1634 C   0  0  1  0  0  0  0  0  0  0  0  0
  150.5092  142.5240  155.0309 H   0  0  0  0  0  0  0  0  0  0  0  0
  151.0797  140.8674  155.1607 H   0  0  0  0  0  0  0  0  0  0  0  0
  147.7692  142.6724  156.1937 H   0  0  0  0  0  0  0  0  0  0  0  0
  150.0779  143.7473  156.9214 H   0  0  0  0  0  0  0  0  0  0  0  0
  150.3341  142.8686  159.6356 H   0  0  0  0  0  0  0  0  0  0  0  0
  150.2455  145.5355  158.2501 H   0  0  0  0  0  0  0  0  0  0  0  0
  149.3479  144.9667  159.6516 H   0  0  0  0  0  0  0  0  0  0  0  0
  151.8996  146.4044  159.5519 H   0  0  0  0  0  0  0  0  0  0  0  0
  150.9972  145.9918  160.9996 H   0  0  0  0  0  0  0  0  0  0  0  0
  152.4458  144.5878  162.4405 H   0  0  0  0  0  0  0  0  0  0  0  0
  151.1728  143.5905  161.7762 H   0  0  0  0  0  0  0  0  0  0  0  0
  154.1524  142.9029  161.8096 H   0  0  0  0  0  0  0  0  0  0  0  0
  152.9082  142.1610  162.7893 H   0  0  0  0  0  0  0  0  0  0  0  0
  153.4420  140.7364  160.8134 H   0  0  0  0  0  0  0  0  0  0  0  0
  151.7788  141.2744  160.7558 H   0  0  0  0  0  0  0  0  0  0  0  0
  154.1457  142.4857  159.2643 H   0  0  0  0  0  0  0  0  0  0  0  0
  152.8460  141.5930  158.5340 H   0  0  0  0  0  0  0  0  0  0  0  0
  152.7636  144.1356  158.3178 H   0  0  0  0  0  0  0  0  0  0  0  0
  153.3413  144.9346  160.3345 H   0  0  0  0  0  0  0  0  0  0  0  0
  1  2  2  0  0  0  0
  2  3  1  0  0  0  0
  2  9  1  0  0  0  0
  3  4  1  0  0  0  0
  3 19  1  0  0  0  0
  3 20  1  0  0  0  0
  4  8  1  0  0  0  0
  4  5  1  0  0  0  0
  5  6  2  0  0  0  0
  5 21  1  0  0  0  0
  6  7  1  0  0  0  0
  7  8  2  0  0  0  0
  9 10  1  0  0  0  0
  9 22  1  0  0  0  0
 10 18  1  0  0  0  0
 10 11  1  0  0  0  0
 10 23  1  0  0  0  0
 11 12  1  0  0  0  0
 11 24  1  0  0  0  0
 11 25  1  0  0  0  0
 12 13  1  0  0  0  0
 12 26  1  0  0  0  0
 12 27  1  0  0  0  0
 13 18  1  0  0  0  0
 13 14  1  0  0  0  0
 13 37  1  0  0  0  0
 14 15  1  0  0  0  0
 14 28  1  0  0  0  0
 14 29  1  0  0  0  0
 15 16  1  0  0  0  0
 15 30  1  0  0  0  0
 15 31  1  0  0  0  0
 16 17  1  0  0  0  0
 16 32  1  0  0  0  0
 16 33  1  0  0  0  0
 17 18  1  0  0  0  0
 17 34  1  0  0  0  0
 17 35  1  0  0  0  0
 18 36  1  0  0  0  0
M  CHG  1  13   1
M  END
> <s_m_source_file>
AV-unprocessed.smi

> <i_m_source_file_index>
1260

> <i_lp_mmshare_version>
43012

> <i_f3d_flags>
0

> <s_epik_input>
bjFubltjSF1uMVtDSDJdQyg9TylbTkhdW0NASF0oW0NIMl1bQ0gyXTIpW0NAQEhdKE4yMylbQ0gyXVtDSDJdW0NIMl1bQ0gyXTM=

> <s_epik_cmdline>
J2VwaWtfcHl0aG9uJywgJy1waCcsICc3LjAnLCAnLXRuJywgJzgnLCAnLW1hJywgJzIwMCcsICctbWV0YWxfYmluZGluZycsICctaW1hZScsICc8aW5maWxlLm1hZT4nLCAnLW9tYWUnLCAnPG91dGZpbGUubWFlPic=

> <r_lp_tautomer_probability>
1

> <r_epik_Ionization_Penalty>
0.00234324

> <r_epik_Ionization_Penalty_Charging>
0.00233897

> <r_epik_Ionization_Penalty_Neutral>
4.26861e-06

> <r_epik_State_Penalty>
0.00161477

> <r_epik_Charging_Adjusted_Penalty>
0.00395374

> <i_epik_Tot_Q>
1

> <i_epik_Tot_abs_Q>
1

> <r_epik_Metal_State_Penalty>
-0

> <b_epik_Metal_Only>
0

> <s_lp_Force_Field>
OPLS_2005

> <r_lp_Energy>
39.6077

> <b_lp_Chiralities_Consistent>
1

> <s_lp_Variant>
AV-unprocessed.smi:1260-1

> <Gold.Version>
5.8.1

> <Gold.Id.Protein>
6NUR|6NUR_protein|mol2

> <Gold.PLP.Fitness>
42.0564

> <Gold.PLP.PLP>
-36.8749

> <Gold.PLP.part.hbond>
-1.0000

> <Gold.PLP.part.metal>
0.0000

> <Gold.PLP.part.buried>
-3.0206

> <Gold.PLP.part.nonpolar>
-32.4594

> <Gold.PLP.part.repulsive>
0.2462

> <Gold.PLP.ligand.clash>
0.0000

> <Gold.PLP.ligand.torsion>
0.4154

> <Gold.PLP.Chemscore.Hbond>
1.0000

> <Gold.PLP.Chemscore.CHOScore>
1.0000

> <Gold.PLP.Chemscore.Metal>
0.0000

> <Gold.Chemscore.Hbonds>
donor molecule, donor type, donor heavy atom, donor atom, acceptor molecule, acceptor atom, score
      L1  H     9    22       P1  8028  1.00
      L1  C     5    21       P1  8028  1.00

> <Gold.PLP.Chemscore.Internal.Correction>
0.0123

> <Gold.Rescore>
     Score         DG    S(hbond)    S(metal)    S(lipo)     H(rot)  DE(clash)    DE(int)     intcor
     13.02     -14.75       1.00        0.00      93.95       1.98       0.01       1.72       ----

> <Gold.Chemscore.Fitness>
13.0213

> <Gold.Chemscore.DG>
-14.7515

> <Gold.Chemscore.ZeroCoef>
-5.4800

> <Gold.Chemscore.Hbond>
0.9991

> <Gold.Chemscore.Metal>
0.0000

> <Gold.Chemscore.Lipo>
93.9513

> <Gold.Chemscore.Internal_Hbond>
0.0000

> <Gold.Chemscore.DEClash>
0.0078

> <Gold.Chemscore.DEInternal>
1.7224

> <Gold.Chemscore.Rot>
1.9757

> <Gold.Chemscore.Internal.Correction>
   9.000000E+99

> <Gold.Chemscore.Hbonds>
donor molecule, donor type, donor heavy atom, donor atom, acceptor molecule, acceptor atom, score
      L1  H     9    22       P1  8028  0.97

> <Gold.Chemscore.Hbond.Weighted>
-3.3369

> <Gold.Chemscore.Metal.Weighted>
-0.0000

> <Gold.Chemscore.Lipo.Weighted>
-10.9923

> <Gold.Chemscore.Internal_Hbond.Weighted>
0.0000

> <Gold.Chemscore.DEClash.Weighted>
0.0078

> <Gold.Chemscore.DEInternal.Weighted>
1.7224

> <Gold.Chemscore.Rot.Weighted>
5.0578

> <Gold.Chemscore.Internal.Correction.Weighted>
   9.000000E+99

> <Gold.Protein.RotatedTorsions>
[ 6907 6896 6895 6894 ] final  140.26 input  -60.11 | X-H torsion
[ 7974 7965 7964 7962 ] final  -98.44 input  175.53 | X-H torsion
[ 8008 7997 7996 7995 ] final -121.79 input   59.86 | X-H torsion
[ 10167 10162 10161 10158 ] final -143.57 input  -65.29 | X-H torsion
[ 10718 10713 10712 10709 ] final  -63.54 input   66.30 | X-H torsion
[ 10763 10752 10751 10750 ] final   -5.11 input  -60.55 | X-H torsion
[ 11005 11000 10999 10996 ] final  153.32 input  -57.11 | X-H torsion

> <Gold.Protein.ActiveResidues>
 VAL166  LYS551  ARG553  GLY616  TRP617  ASP618  TYR619  PRO620  LYS621  CYS622 
 ASP623  PHE694  ASN695  SER759  ASP760  ASP761  ALA762  ILE779  LEU786  VAL792 
 PHE793  MET794  SER795  GLU796  ALA797  LYS798  CYS799  TRP800  GLU811  SER814 

> <Gold.Protein.RotatedAtoms>
  152.2452  133.5168  159.5292 H   0  0  0  0  0  0  0  0  0  0  0  0  # atno 6907 bound_to 6896
  150.7076  134.1035  159.3983 H   0  0  0  0  0  0  0  0  0  0  0  0  # atno 6908 bound_to 6896
  151.8955  135.0399  160.0552 H   0  0  0  0  0  0  0  0  0  0  0  0  # atno 6909 bound_to 6896
  145.3206  140.9421  143.2717 H   0  0  0  0  0  0  0  0  0  0  0  0  # atno 7974 bound_to 7965
  155.1537  140.0404  157.2827 H   0  0  0  0  0  0  0  0  0  0  0  0  # atno 8008 bound_to 7997
  154.6386  140.2541  155.7322 H   0  0  0  0  0  0  0  0  0  0  0  0  # atno 8009 bound_to 7997
  156.2521  140.2860  156.0769 H   0  0  0  0  0  0  0  0  0  0  0  0  # atno 8010 bound_to 7997
  139.7980  143.7872  152.2656 H   0  0  0  0  0  0  0  0  0  0  0  0  # atno 10167 bound_to 10162
  156.0785  130.4222  150.1292 H   0  0  0  0  0  0  0  0  0  0  0  0  # atno 10718 bound_to 10713
  153.3940  135.7003  153.6474 H   0  0  0  0  0  0  0  0  0  0  0  0  # atno 10763 bound_to 10752
  153.5034  135.3647  155.2552 H   0  0  0  0  0  0  0  0  0  0  0  0  # atno 10764 bound_to 10752
  154.8705  135.4117  154.3263 H   0  0  0  0  0  0  0  0  0  0  0  0  # atno 10765 bound_to 10752
  140.1387  134.8753  157.2302 H   0  0  0  0  0  0  0  0  0  0  0  0  # atno 11005 bound_to 11000
  144.8942  139.4734  143.6663 LP  0  0  0  0  0  0  0  0  0  0  0  0  # atno 17320 bound_to 7965
  146.3084  139.7658  142.9039 LP  0  0  0  0  0  0  0  0  0  0  0  0  # atno 17321 bound_to 7965
  139.7984  144.7383  150.9859 LP  0  0  0  0  0  0  0  0  0  0  0  0  # atno 17342 bound_to 10162
  140.7820  143.4370  151.0608 LP  0  0  0  0  0  0  0  0  0  0  0  0  # atno 17343 bound_to 10162
  156.9328  130.9719  151.3530 LP  0  0  0  0  0  0  0  0  0  0  0  0  # atno 17370 bound_to 10713
  157.5891  130.8431  149.8632 LP  0  0  0  0  0  0  0  0  0  0  0  0  # atno 17371 bound_to 10713
  140.2749  134.3417  155.7361 LP  0  0  0  0  0  0  0  0  0  0  0  0  # atno 17394 bound_to 11000
  141.2182  133.7445  156.9278 LP  0  0  0  0  0  0  0  0  0  0  0  0  # atno 17395 bound_to 11000

$$$$
