AV-unprocessed.smi:1959|AV-procd|sdf|7915|dock7
  -GOLD-   2272010 83D 1   1.00000     0.00000
 Structure written by MMmdl.
 45 46  0  0  0  0  0  0  0  0  2 V2000
  153.9332  140.7118  160.1048 C   0  0  0  0  0  0  0  0  0  0  0  0
  153.1119  141.7794  159.4443 C   0  0  0  0  0  0  0  0  0  0  0  0
  152.8733  143.1103  159.8880 C   0  0  0  0  0  0  0  0  0  0  0  0
  152.0709  143.6499  158.9223 C   0  0  0  0  0  0  0  0  0  0  0  0
  151.4837  145.0188  158.8105 C   0  0  0  0  0  0  0  0  0  0  0  0
  151.8655  142.6621  157.9747 N   0  0  0  0  0  0  0  0  0  0  0  0
  151.0968  142.7177  156.7395 C   0  0  0  0  0  0  0  0  0  0  0  0
  150.0220  141.6268  156.6624 C   0  0  0  0  0  0  0  0  0  0  0  0
  150.2100  140.5132  157.1546 O   0  0  0  0  0  0  0  0  0  0  0  0
  148.8958  141.9592  156.0112 N   0  0  0  0  0  0  0  0  0  0  0  0
  147.7331  141.0930  155.8075 C   0  0  1  0  0  0  0  0  0  0  0  0
  146.9009  141.0597  157.0962 C   0  0  0  0  0  0  0  0  0  0  0  0
  146.8860  141.5613  154.6013 C   0  0  0  0  0  0  0  0  0  0  0  0
  146.3260  140.4345  153.8126 N   0  3  0  0  0  0  0  0  0  0  0  0
  147.1599  140.0514  152.6480 C   0  0  0  0  0  0  0  0  0  0  0  0
  146.4539  138.9540  151.8354 C   0  0  0  0  0  0  0  0  0  0  0  0
  146.2029  137.8324  152.6740 O   0  0  0  0  0  0  0  0  0  0  0  0
  145.3497  138.1595  153.7645 C   0  0  0  0  0  0  0  0  0  0  0  0
  146.0087  139.2439  154.6347 C   0  0  0  0  0  0  0  0  0  0  0  0
  152.5046  141.5172  158.2988 N   0  0  0  0  0  0  0  0  0  0  0  0
  154.4212  141.0893  161.0037 H   0  0  0  0  0  0  0  0  0  0  0  0
  154.7109  140.3435  159.4353 H   0  0  0  0  0  0  0  0  0  0  0  0
  153.3130  139.8634  160.3953 H   0  0  0  0  0  0  0  0  0  0  0  0
  153.2389  143.5963  160.7804 H   0  0  0  0  0  0  0  0  0  0  0  0
  151.8012  145.6476  159.6426 H   0  0  0  0  0  0  0  0  0  0  0  0
  150.3946  144.9764  158.8202 H   0  0  0  0  0  0  0  0  0  0  0  0
  151.7981  145.5041  157.8861 H   0  0  0  0  0  0  0  0  0  0  0  0
  150.6307  143.7009  156.6542 H   0  0  0  0  0  0  0  0  0  0  0  0
  151.7775  142.6150  155.8940 H   0  0  0  0  0  0  0  0  0  0  0  0
  148.8298  142.8968  155.6409 H   0  0  0  0  0  0  0  0  0  0  0  0
  148.0740  140.0722  155.6285 H   0  0  0  0  0  0  0  0  0  0  0  0
  146.0444  140.3930  156.9920 H   0  0  0  0  0  0  0  0  0  0  0  0
  146.5223  142.0498  157.3530 H   0  0  0  0  0  0  0  0  0  0  0  0
  147.4942  140.7013  157.9384 H   0  0  0  0  0  0  0  0  0  0  0  0
  146.0785  142.2192  154.9263 H   0  0  0  0  0  0  0  0  0  0  0  0
  147.5256  142.1641  153.9546 H   0  0  0  0  0  0  0  0  0  0  0  0
  147.3448  140.9147  152.0095 H   0  0  0  0  0  0  0  0  0  0  0  0
  148.1323  139.6954  152.9918 H   0  0  0  0  0  0  0  0  0  0  0  0
  145.5192  139.3244  151.4103 H   0  0  0  0  0  0  0  0  0  0  0  0
  147.0815  138.6399  151.0014 H   0  0  0  0  0  0  0  0  0  0  0  0
  144.3799  138.4950  153.3931 H   0  0  0  0  0  0  0  0  0  0  0  0
  145.1712  137.2607  154.3549 H   0  0  0  0  0  0  0  0  0  0  0  0
  146.9219  138.8590  155.0914 H   0  0  0  0  0  0  0  0  0  0  0  0
  145.3338  139.5202  155.4458 H   0  0  0  0  0  0  0  0  0  0  0  0
  145.4446  140.7628  153.4435 H   0  0  0  0  0  0  0  0  0  0  0  0
  1  2  1  0  0  0  0
  1 21  1  0  0  0  0
  1 22  1  0  0  0  0
  1 23  1  0  0  0  0
  2 20  2  0  0  0  0
  2  3  1  0  0  0  0
  3  4  2  0  0  0  0
  3 24  1  0  0  0  0
  4  5  1  0  0  0  0
  4  6  1  0  0  0  0
  5 25  1  0  0  0  0
  5 26  1  0  0  0  0
  5 27  1  0  0  0  0
  6  7  1  0  0  0  0
  6 20  1  0  0  0  0
  7  8  1  0  0  0  0
  7 28  1  0  0  0  0
  7 29  1  0  0  0  0
  8  9  2  0  0  0  0
  8 10  1  0  0  0  0
 10 11  1  0  0  0  0
 10 30  1  0  0  0  0
 11 12  1  0  0  0  0
 11 13  1  0  0  0  0
 11 31  1  0  0  0  0
 12 32  1  0  0  0  0
 12 33  1  0  0  0  0
 12 34  1  0  0  0  0
 13 14  1  0  0  0  0
 13 35  1  0  0  0  0
 13 36  1  0  0  0  0
 14 19  1  0  0  0  0
 14 15  1  0  0  0  0
 14 45  1  0  0  0  0
 15 16  1  0  0  0  0
 15 37  1  0  0  0  0
 15 38  1  0  0  0  0
 16 17  1  0  0  0  0
 16 39  1  0  0  0  0
 16 40  1  0  0  0  0
 17 18  1  0  0  0  0
 18 19  1  0  0  0  0
 18 41  1  0  0  0  0
 18 42  1  0  0  0  0
 19 43  1  0  0  0  0
 19 44  1  0  0  0  0
M  CHG  1  14   1
M  END
> <s_m_source_file>
AV-unprocessed.smi

> <i_m_source_file_index>
1959

> <i_lp_mmshare_version>
43012

> <i_f3d_flags>
0

> <s_epik_input>
W0NIM11jMVtjSF1jKFtDSDNdKW4objEpW0NIMl1DKD1PKVtOSF1bQ0BIXShbQ0gzXSlbQ0gyXU4yW0NIMl1bQ0gyXU9bQ0gyXVtDSDJdMg==

> <s_epik_cmdline>
J2VwaWtfcHl0aG9uJywgJy1waCcsICc3LjAnLCAnLXRuJywgJzgnLCAnLW1hJywgJzIwMCcsICctbWV0YWxfYmluZGluZycsICctaW1hZScsICc8aW5maWxlLm1hZT4nLCAnLW9tYWUnLCAnPG91dGZpbGUubWFlPic=

> <r_lp_tautomer_probability>
1

> <r_epik_Ionization_Penalty>
0.748605

> <r_epik_Ionization_Penalty_Charging>
0.748396

> <r_epik_Ionization_Penalty_Neutral>
0.000208859

> <r_epik_State_Penalty>
0.775162

> <r_epik_Charging_Adjusted_Penalty>
1.52356

> <i_epik_Tot_Q>
1

> <i_epik_Tot_abs_Q>
1

> <r_epik_Metal_State_Penalty>
0.775281

> <b_epik_Metal_Only>
0

> <s_lp_Force_Field>
OPLS_2005

> <r_lp_Energy>
20.6749

> <b_lp_Chiralities_Consistent>
1

> <s_lp_Variant>
AV-unprocessed.smi:1959-4

> <Gold.Version>
5.8.1

> <Gold.Id.Protein>
6NUR|6NUR_protein|mol2

> <Gold.PLP.Fitness>
43.0831

> <Gold.PLP.PLP>
-37.1469

> <Gold.PLP.part.hbond>
-2.0000

> <Gold.PLP.part.metal>
0.0000

> <Gold.PLP.part.buried>
-1.9519

> <Gold.PLP.part.nonpolar>
-33.9681

> <Gold.PLP.part.repulsive>
0.3106

> <Gold.PLP.ligand.clash>
0.0000

> <Gold.PLP.ligand.torsion>
1.5635

> <Gold.PLP.Chemscore.Hbond>
3.0000

> <Gold.PLP.Chemscore.CHOScore>
0.0000

> <Gold.PLP.Chemscore.Metal>
0.0000

> <Gold.Chemscore.Hbonds>
donor molecule, donor type, donor heavy atom, donor atom, acceptor molecule, acceptor atom, score
      L1  H    10    30       P1  8028  1.00
      L1  H    14    45       P1 10175  2.00

> <Gold.PLP.Chemscore.Internal.Correction>
0.0631

> <Gold.Rescore>
     Score         DG    S(hbond)    S(metal)    S(lipo)     H(rot)  DE(clash)    DE(int)     intcor
     15.09     -18.06       1.92        0.00      91.59       1.77       0.02       2.95       ----

> <Gold.Chemscore.Fitness>
15.0921

> <Gold.Chemscore.DG>
-18.0643

> <Gold.Chemscore.ZeroCoef>
-5.4800

> <Gold.Chemscore.Hbond>
1.9193

> <Gold.Chemscore.Metal>
0.0000

> <Gold.Chemscore.Lipo>
91.5914

> <Gold.Chemscore.Internal_Hbond>
0.0000

> <Gold.Chemscore.DEClash>
0.0234

> <Gold.Chemscore.DEInternal>
2.9488

> <Gold.Chemscore.Rot>
1.7744

> <Gold.Chemscore.Internal.Correction>
   9.000000E+99

> <Gold.Chemscore.Hbonds>
donor molecule, donor type, donor heavy atom, donor atom, acceptor molecule, acceptor atom, score
      L1  H    10    30       P1  8028  0.99
      L1  H    14    45       P1 10175  0.77

> <Gold.Chemscore.Hbond.Weighted>
-6.4105

> <Gold.Chemscore.Metal.Weighted>
-0.0000

> <Gold.Chemscore.Lipo.Weighted>
-10.7162

> <Gold.Chemscore.Internal_Hbond.Weighted>
0.0000

> <Gold.Chemscore.DEClash.Weighted>
0.0234

> <Gold.Chemscore.DEInternal.Weighted>
2.9488

> <Gold.Chemscore.Rot.Weighted>
4.5424

> <Gold.Chemscore.Internal.Correction.Weighted>
   9.000000E+99

> <Gold.Protein.RotatedTorsions>
[ 6907 6896 6895 6894 ] final  -41.72 input  -60.11 | X-H torsion
[ 7974 7965 7964 7962 ] final  -99.24 input  175.53 | X-H torsion
[ 8008 7997 7996 7995 ] final   32.81 input   59.86 | X-H torsion
[ 10167 10162 10161 10158 ] final  -93.63 input  -65.29 | X-H torsion
[ 10718 10713 10712 10709 ] final  140.31 input   66.30 | X-H torsion
[ 10763 10752 10751 10750 ] final   34.32 input  -60.55 | X-H torsion
[ 11005 11000 10999 10996 ] final -141.32 input  -57.11 | X-H torsion

> <Gold.Protein.ActiveResidues>
 VAL166  LYS551  ARG553  GLY616  TRP617  ASP618  TYR619  PRO620  LYS621  CYS622 
 ASP623  PHE694  ASN695  SER759  ASP760  ASP761  ALA762  ILE779  LEU786  VAL792 
 PHE793  MET794  SER795  GLU796  ALA797  LYS798  CYS799  TRP800  GLU811  SER814 

> <Gold.Protein.RotatedAtoms>
  150.9634  134.9019  159.7744 H   0  0  0  0  0  0  0  0  0  0  0  0  # atno 6907 bound_to 6896
  152.5164  134.3641  159.9305 H   0  0  0  0  0  0  0  0  0  0  0  0  # atno 6908 bound_to 6896
  151.3652  133.3834  159.2728 H   0  0  0  0  0  0  0  0  0  0  0  0  # atno 6909 bound_to 6896
  145.3101  140.9398  143.2774 H   0  0  0  0  0  0  0  0  0  0  0  0  # atno 7974 bound_to 7965
  155.1285  140.3255  155.4480 H   0  0  0  0  0  0  0  0  0  0  0  0  # atno 8008 bound_to 7997
  156.2641  140.2014  156.6354 H   0  0  0  0  0  0  0  0  0  0  0  0  # atno 8009 bound_to 7997
  154.6630  140.0545  157.0070 H   0  0  0  0  0  0  0  0  0  0  0  0  # atno 8010 bound_to 7997
  140.3227  143.3040  152.0029 H   0  0  0  0  0  0  0  0  0  0  0  0  # atno 10167 bound_to 10162
  157.4047  131.1021  151.0516 H   0  0  0  0  0  0  0  0  0  0  0  0  # atno 10718 bound_to 10713
  153.0170  135.6363  154.1650 H   0  0  0  0  0  0  0  0  0  0  0  0  # atno 10763 bound_to 10752
  154.1388  135.2836  155.3168 H   0  0  0  0  0  0  0  0  0  0  0  0  # atno 10764 bound_to 10752
  154.6140  135.5547  153.7565 H   0  0  0  0  0  0  0  0  0  0  0  0  # atno 10765 bound_to 10752
  140.8336  134.2487  157.4845 H   0  0  0  0  0  0  0  0  0  0  0  0  # atno 11005 bound_to 11000
  144.9023  139.4634  143.6627 LP  0  0  0  0  0  0  0  0  0  0  0  0  # atno 17320 bound_to 7965
  146.3121  139.7784  142.9012 LP  0  0  0  0  0  0  0  0  0  0  0  0  # atno 17321 bound_to 7965
  139.4871  144.6298  151.7092 LP  0  0  0  0  0  0  0  0  0  0  0  0  # atno 17342 bound_to 10162
  140.5469  144.0489  150.6111 LP  0  0  0  0  0  0  0  0  0  0  0  0  # atno 17343 bound_to 10162
  157.1502  130.6181  149.5580 LP  0  0  0  0  0  0  0  0  0  0  0  0  # atno 17370 bound_to 10713
  155.9833  130.4852  150.6926 LP  0  0  0  0  0  0  0  0  0  0  0  0  # atno 17371 bound_to 10713
  139.8704  134.9599  156.4347 LP  0  0  0  0  0  0  0  0  0  0  0  0  # atno 17394 bound_to 11000
  140.8971  133.7806  155.9638 LP  0  0  0  0  0  0  0  0  0  0  0  0  # atno 17395 bound_to 11000

$$$$
