AV-unprocessed.smi:34|AV-procd|sdf|227|dock8
  -GOLD-   2262015553D 1   1.00000     0.00000
 Structure written by MMmdl.
 55 59  0  0  0  0  0  0  0  0  1 V2000
  153.0953  141.7367  161.8883 O   0  0  0  0  0  0  0  0  0  0  0  0
  153.4087  142.0406  160.7367 C   0  0  0  0  0  0  0  0  0  0  0  0
  154.5842  141.4903  160.0857 N   0  0  0  0  0  0  0  0  0  0  0  0
  155.4245  140.5361  160.5499 C   0  0  0  0  0  0  0  0  0  0  0  0
  156.7497  140.7662  160.7465 N   0  0  0  0  0  0  0  0  0  0  0  0
  157.5398  139.7954  161.2146 C   0  0  0  0  0  0  0  0  0  0  0  0
  157.2157  138.5446  161.5498 N   0  0  0  0  0  0  0  0  0  0  0  0
  155.8849  138.3097  161.3608 C   0  0  0  0  0  0  0  0  0  0  0  0
  154.9319  139.2442  160.8698 C   0  0  0  0  0  0  0  0  0  0  0  0
  153.6786  138.6485  160.8116 N   0  0  0  0  0  0  0  0  0  0  0  0
  153.8854  137.4331  161.2437 C   0  0  0  0  0  0  0  0  0  0  0  0
  155.1860  137.1473  161.6042 N   0  0  0  0  0  0  0  0  0  0  0  0
  155.7715  135.8713  162.1322 C   0  0  2  0  0  0  0  0  0  0  0  0
  154.8012  134.8715  162.0122 O   0  0  0  0  0  0  0  0  0  0  0  0
  154.2600  134.5188  163.2891 C   0  0  1  0  0  0  0  0  0  0  0  0
  154.7164  133.0881  163.6098 C   0  0  0  0  0  0  0  0  0  0  0  0
  155.5786  133.1104  164.7359 O   0  0  0  0  0  0  0  0  0  0  0  0
  155.9499  131.9588  165.3284 C   0  0  0  0  0  0  0  0  0  0  0  0
  155.6258  130.8433  164.9158 O   0  0  0  0  0  0  0  0  0  0  0  0
  156.8022  132.1758  166.5329 C   0  0  0  0  0  0  0  0  0  0  0  0
  157.1875  131.0645  167.3186 C   0  0  0  0  0  0  0  0  0  0  0  0
  157.9945  131.2380  168.4599 C   0  0  0  0  0  0  0  0  0  0  0  0
  158.4256  132.5252  168.8298 C   0  0  0  0  0  0  0  0  0  0  0  0
  158.0488  133.6389  168.0569 C   0  0  0  0  0  0  0  0  0  0  0  0
  157.2424  133.4674  166.9148 C   0  0  0  0  0  0  0  0  0  0  0  0
  154.8008  135.5585  164.2784 C   0  0  2  0  0  0  0  0  0  0  0  0
  153.9415  136.5784  164.3356 F   0  0  0  0  0  0  0  0  0  0  0  0
  156.1097  135.9692  163.6276 C   0  0  2  0  0  0  0  0  0  0  0  0
  156.5671  137.2315  164.0764 O   0  0  0  0  0  0  0  0  0  0  0  0
  152.6496  143.0769  159.9604 C   0  0  0  0  0  0  0  0  0  0  0  0
  152.3997  142.8856  158.5827 C   0  0  0  0  0  0  0  0  0  0  0  0
  151.7037  143.8610  157.8421 C   0  0  0  0  0  0  0  0  0  0  0  0
  151.2592  145.0392  158.4708 C   0  0  0  0  0  0  0  0  0  0  0  0
  151.5144  145.2436  159.8401 C   0  0  0  0  0  0  0  0  0  0  0  0
  152.2097  144.2685  160.5820 C   0  0  0  0  0  0  0  0  0  0  0  0
  154.7959  141.8588  159.1701 H   0  0  0  0  0  0  0  0  0  0  0  0
  158.5796  140.0599  161.3391 H   0  0  0  0  0  0  0  0  0  0  0  0
  153.0854  136.7104  161.3126 H   0  0  0  0  0  0  0  0  0  0  0  0
  156.6317  135.6765  161.4908 H   0  0  0  0  0  0  0  0  0  0  0  0
  153.1704  134.5482  163.2422 H   0  0  0  0  0  0  0  0  0  0  0  0
  153.8535  132.4610  163.8374 H   0  0  0  0  0  0  0  0  0  0  0  0
  155.2191  132.6504  162.7461 H   0  0  0  0  0  0  0  0  0  0  0  0
  156.8699  130.0663  167.0535 H   0  0  0  0  0  0  0  0  0  0  0  0
  158.2832  130.3821  169.0519 H   0  0  0  0  0  0  0  0  0  0  0  0
  159.0441  132.6584  169.7051 H   0  0  0  0  0  0  0  0  0  0  0  0
  158.3787  134.6275  168.3401 H   0  0  0  0  0  0  0  0  0  0  0  0
  156.9713  134.3438  166.3448 H   0  0  0  0  0  0  0  0  0  0  0  0
  154.9222  135.1828  165.2948 H   0  0  0  0  0  0  0  0  0  0  0  0
  156.8735  135.2206  163.8416 H   0  0  0  0  0  0  0  0  0  0  0  0
  156.1037  137.9050  163.6019 H   0  0  0  0  0  0  0  0  0  0  0  0
  152.7356  141.9872  158.0851 H   0  0  0  0  0  0  0  0  0  0  0  0
  151.5122  143.7049  156.7907 H   0  0  0  0  0  0  0  0  0  0  0  0
  150.7265  145.7874  157.9026 H   0  0  0  0  0  0  0  0  0  0  0  0
  151.1792  146.1506  160.3214 H   0  0  0  0  0  0  0  0  0  0  0  0
  152.4032  144.4495  161.6295 H   0  0  0  0  0  0  0  0  0  0  0  0
  1  2  2  0  0  0  0
  2  3  1  0  0  0  0
  2 30  1  0  0  0  0
  3  4  1  0  0  0  0
  3 36  1  0  0  0  0
  4  9  1  0  0  0  0
  4  5  2  0  0  0  0
  5  6  1  0  0  0  0
  6  7  2  0  0  0  0
  6 37  1  0  0  0  0
  7  8  1  0  0  0  0
  8 12  1  0  0  0  0
  8  9  2  0  0  0  0
  9 10  1  0  0  0  0
 10 11  2  0  0  0  0
 11 12  1  0  0  0  0
 11 38  1  0  0  0  0
 12 13  1  0  0  0  0
 13 28  1  0  0  0  0
 13 14  1  0  0  0  0
 13 39  1  0  0  0  0
 14 15  1  0  0  0  0
 15 16  1  0  0  0  0
 15 26  1  0  0  0  0
 15 40  1  0  0  0  0
 16 17  1  0  0  0  0
 16 41  1  0  0  0  0
 16 42  1  0  0  0  0
 17 18  1  0  0  0  0
 18 19  2  0  0  0  0
 18 20  1  0  0  0  0
 20 25  1  0  0  0  0
 20 21  2  0  0  0  0
 21 22  1  0  0  0  0
 21 43  1  0  0  0  0
 22 23  2  0  0  0  0
 22 44  1  0  0  0  0
 23 24  1  0  0  0  0
 23 45  1  0  0  0  0
 24 25  2  0  0  0  0
 24 46  1  0  0  0  0
 25 47  1  0  0  0  0
 26 27  1  0  0  0  0
 26 28  1  0  0  0  0
 26 48  1  0  0  0  0
 28 29  1  0  0  0  0
 28 49  1  0  0  0  0
 29 50  1  0  0  0  0
 30 35  1  0  0  0  0
 30 31  2  0  0  0  0
 31 32  1  0  0  0  0
 31 51  1  0  0  0  0
 32 33  2  0  0  0  0
 32 52  1  0  0  0  0
 33 34  1  0  0  0  0
 33 53  1  0  0  0  0
 34 35  2  0  0  0  0
 34 54  1  0  0  0  0
 35 55  1  0  0  0  0
M  END
> <s_m_source_file>
AV-unprocessed.smi

> <i_m_source_file_index>
34

> <i_lp_mmshare_version>
43012

> <i_f3d_flags>
0

> <s_epik_input>
W2NIXTFbY0hdW2NIXVtjSF1bY0hdYzFDKD1PKVtOSF1jKG5bY0hdbjIpYyhjMjMpbltjSF1uM1tDQEBIXTRPW0NASF0oW0NAQEhdKEYpW0NASF00W09IXSlbQ0gyXU9DKD1PKWM1W2NIXVtjSF1bY0hdW2NIXVtjSF01

> <s_epik_cmdline>
J2VwaWtfcHl0aG9uJywgJy1waCcsICc3LjAnLCAnLXRuJywgJzgnLCAnLW1hJywgJzIwMCcsICctbWV0YWxfYmluZGluZycsICctaW1hZScsICc8aW5maWxlLm1hZT4nLCAnLW9tYWUnLCAnPG91dGZpbGUubWFlPic=

> <r_lp_tautomer_probability>
1

> <r_epik_Ionization_Penalty>
0.00257489

> <r_epik_Ionization_Penalty_Charging>
0

> <r_epik_Ionization_Penalty_Neutral>
0.00257489

> <r_epik_State_Penalty>
0.00519398

> <r_epik_Charging_Adjusted_Penalty>
0.00519398

> <i_epik_Tot_Q>
0

> <i_epik_Tot_abs_Q>
0

> <r_epik_Metal_State_Penalty>
0.335891

> <b_epik_Metal_Only>
0

> <s_epik_Chemistry_Notes>
This compound has an ester and may undergo hydrolysis at high or low pH. This compound contains an acetal/aminal-like group ( X-CH(R)-Y where X, Y are N, S, or O) that may be acid/base labile, releasing an aldehyde.

> <s_lp_Force_Field>
OPLS_2005

> <r_lp_Energy>
52.3338

> <b_lp_Chiralities_Consistent>
1

> <s_lp_Variant>
AV-unprocessed.smi:34-13

> <Gold.Version>
5.8.1

> <Gold.Id.Protein>
6NUR|6NUR_protein|mol2

> <Gold.PLP.Fitness>
52.7572

> <Gold.PLP.PLP>
-56.5111

> <Gold.PLP.part.hbond>
-1.0000

> <Gold.PLP.part.metal>
0.0000

> <Gold.PLP.part.buried>
-7.1710

> <Gold.PLP.part.nonpolar>
-48.4818

> <Gold.PLP.part.repulsive>
0.1493

> <Gold.PLP.ligand.clash>
0.0000

> <Gold.PLP.ligand.torsion>
2.2736

> <Gold.PLP.Chemscore.Hbond>
0.0000

> <Gold.PLP.Chemscore.CHOScore>
0.0000

> <Gold.PLP.Chemscore.Metal>
0.0000

> <Gold.PLP.Chemscore.Internal.Correction>
0.7932

> <Gold.Rescore>
     Score         DG    S(hbond)    S(metal)    S(lipo)     H(rot)  DE(clash)    DE(int)     intcor
     10.96     -14.23       0.00        0.00     134.34       2.72       0.22       3.05       ----

> <Gold.Chemscore.Fitness>
10.9590

> <Gold.Chemscore.DG>
-14.2312

> <Gold.Chemscore.ZeroCoef>
-5.4800

> <Gold.Chemscore.Hbond>
0.0000

> <Gold.Chemscore.Metal>
0.0000

> <Gold.Chemscore.Lipo>
134.3442

> <Gold.Chemscore.Internal_Hbond>
0.0000

> <Gold.Chemscore.DEClash>
0.2192

> <Gold.Chemscore.DEInternal>
3.0531

> <Gold.Chemscore.Rot>
2.7215

> <Gold.Chemscore.Internal.Correction>
   9.000000E+99

> <Gold.Chemscore.Hbond.Weighted>
-0.0000

> <Gold.Chemscore.Metal.Weighted>
-0.0000

> <Gold.Chemscore.Lipo.Weighted>
-15.7183

> <Gold.Chemscore.Internal_Hbond.Weighted>
0.0000

> <Gold.Chemscore.DEClash.Weighted>
0.2192

> <Gold.Chemscore.DEInternal.Weighted>
3.0531

> <Gold.Chemscore.Rot.Weighted>
6.9670

> <Gold.Chemscore.Internal.Correction.Weighted>
   9.000000E+99

> <Gold.Protein.RotatedTorsions>
[ 6907 6896 6895 6894 ] final -142.14 input  -60.11 | X-H torsion
[ 7974 7965 7964 7962 ] final  -95.00 input  175.53 | X-H torsion
[ 8008 7997 7996 7995 ] final    3.84 input   59.86 | X-H torsion
[ 10167 10162 10161 10158 ] final  -96.21 input  -65.29 | X-H torsion
[ 10718 10713 10712 10709 ] final  116.32 input   66.30 | X-H torsion
[ 10763 10752 10751 10750 ] final   39.51 input  -60.55 | X-H torsion
[ 11005 11000 10999 10996 ] final  164.96 input  -57.11 | X-H torsion

> <Gold.Protein.ActiveResidues>
 VAL166  LYS551  ARG553  GLY616  TRP617  ASP618  TYR619  PRO620  LYS621  CYS622 
 ASP623  PHE694  ASN695  SER759  ASP760  ASP761  ALA762  ILE779  LEU786  VAL792 
 PHE793  MET794  SER795  GLU796  ALA797  LYS798  CYS799  TRP800  GLU811  SER814 

> <Gold.Protein.RotatedAtoms>
  151.0831  133.5374  159.2619 H   0  0  0  0  0  0  0  0  0  0  0  0  # atno 6907 bound_to 6896
  151.2270  135.0539  159.8982 H   0  0  0  0  0  0  0  0  0  0  0  0  # atno 6908 bound_to 6896
  152.5426  134.0626  159.8212 H   0  0  0  0  0  0  0  0  0  0  0  0  # atno 6909 bound_to 6896
  145.3658  140.9498  143.2475 H   0  0  0  0  0  0  0  0  0  0  0  0  # atno 7974 bound_to 7965
  154.7086  140.2688  155.6651 H   0  0  0  0  0  0  0  0  0  0  0  0  # atno 8008 bound_to 7997
  156.2788  140.2758  156.1644 H   0  0  0  0  0  0  0  0  0  0  0  0  # atno 8009 bound_to 7997
  155.0666  140.0372  157.2584 H   0  0  0  0  0  0  0  0  0  0  0  0  # atno 8010 bound_to 7997
  140.2961  143.3191  152.0296 H   0  0  0  0  0  0  0  0  0  0  0  0  # atno 10167 bound_to 10162
  157.6168  131.1024  150.7455 H   0  0  0  0  0  0  0  0  0  0  0  0  # atno 10718 bound_to 10713
  152.9965  135.6218  154.2477 H   0  0  0  0  0  0  0  0  0  0  0  0  # atno 10763 bound_to 10752
  154.2216  135.2795  155.2924 H   0  0  0  0  0  0  0  0  0  0  0  0  # atno 10764 bound_to 10752
  154.5524  135.5729  153.6992 H   0  0  0  0  0  0  0  0  0  0  0  0  # atno 10765 bound_to 10752
  140.2513  134.7975  157.3504 H   0  0  0  0  0  0  0  0  0  0  0  0  # atno 11005 bound_to 11000
  144.8613  139.5174  143.6811 LP  0  0  0  0  0  0  0  0  0  0  0  0  # atno 17320 bound_to 7965
  146.2907  139.7132  142.9163 LP  0  0  0  0  0  0  0  0  0  0  0  0  # atno 17321 bound_to 7965
  139.4926  144.6490  151.6717 LP  0  0  0  0  0  0  0  0  0  0  0  0  # atno 17342 bound_to 10162
  140.5691  144.0140  150.6207 LP  0  0  0  0  0  0  0  0  0  0  0  0  # atno 17343 bound_to 10162
  156.7821  130.4862  149.5399 LP  0  0  0  0  0  0  0  0  0  0  0  0  # atno 17370 bound_to 10713
  156.1294  130.6167  151.0311 LP  0  0  0  0  0  0  0  0  0  0  0  0  # atno 17371 bound_to 10713
  140.1555  134.4795  155.7930 LP  0  0  0  0  0  0  0  0  0  0  0  0  # atno 17394 bound_to 11000
  141.2201  133.6880  156.7454 LP  0  0  0  0  0  0  0  0  0  0  0  0  # atno 17395 bound_to 11000

$$$$
