AV-unprocessed.smi:459|AV-procd|sdf|2624|dock8
  -GOLD-   2262023 23D 1   1.00000     0.00000
 Structure written by MMmdl.
 43 45  0  0  0  0  0  0  0  0  1 V2000
  142.6736  145.5902  154.5204 C   0  0  0  0  0  0  0  0  0  0  0  0
  143.2670  144.8739  155.5938 O   0  0  0  0  0  0  0  0  0  0  0  0
  144.3793  144.1057  155.3240 C   0  0  0  0  0  0  0  0  0  0  0  0
  144.9670  143.9761  154.0418 C   0  0  0  0  0  0  0  0  0  0  0  0
  146.1055  143.1678  153.8591 C   0  0  0  0  0  0  0  0  0  0  0  0
  146.6822  142.4728  154.9401 C   0  0  0  0  0  0  0  0  0  0  0  0
  147.7938  141.7056  154.6692 O   0  0  0  0  0  0  0  0  0  0  0  0
  148.6581  141.3641  155.7450 C   0  0  0  0  0  0  0  0  0  0  0  0
  150.0404  140.9876  155.1932 C   0  0  0  0  0  0  0  0  0  0  0  0
  151.0205  140.8108  156.2556 N   0  0  0  0  0  0  0  0  0  0  0  0
  151.7360  139.7024  156.5796 C   0  0  0  0  0  0  0  0  0  0  0  0
  151.6226  138.4074  155.8278 C   0  0  0  0  0  0  0  0  0  0  0  0
  151.8811  138.5546  154.3199 C   0  0  0  0  0  0  0  0  0  0  0  0
  151.9017  137.2940  153.6836 O   0  0  0  0  0  0  0  0  0  0  0  0
  152.5662  139.8331  157.6157 N   0  0  0  0  0  0  0  0  0  0  0  0
  152.3685  141.1436  158.0029 C   0  0  0  0  0  0  0  0  0  0  0  0
  152.9555  141.8907  159.0492 C   0  0  0  0  0  0  0  0  0  0  0  0
  152.5895  143.2368  159.2574 C   0  0  0  0  0  0  0  0  0  0  0  0
  151.6332  143.8533  158.4248 C   0  0  0  0  0  0  0  0  0  0  0  0
  151.0367  143.1266  157.3764 C   0  0  0  0  0  0  0  0  0  0  0  0
  151.4063  141.7836  157.1721 C   0  0  0  0  0  0  0  0  0  0  0  0
  146.0946  142.6022  156.2222 C   0  0  0  0  0  0  0  0  0  0  0  0
  144.9565  143.4108  156.4050 C   0  0  0  0  0  0  0  0  0  0  0  0
  141.8145  146.1487  154.8922 H   0  0  0  0  0  0  0  0  0  0  0  0
  142.3161  144.9159  153.7409 H   0  0  0  0  0  0  0  0  0  0  0  0
  143.3705  146.3085  154.0862 H   0  0  0  0  0  0  0  0  0  0  0  0
  144.5635  144.4866  153.1809 H   0  0  0  0  0  0  0  0  0  0  0  0
  146.5413  143.0792  152.8747 H   0  0  0  0  0  0  0  0  0  0  0  0
  148.7585  142.2063  156.4311 H   0  0  0  0  0  0  0  0  0  0  0  0
  148.2480  140.5210  156.3033 H   0  0  0  0  0  0  0  0  0  0  0  0
  149.9785  140.0819  154.5919 H   0  0  0  0  0  0  0  0  0  0  0  0
  150.3965  141.7690  154.5213 H   0  0  0  0  0  0  0  0  0  0  0  0
  152.3634  137.7231  156.2428 H   0  0  0  0  0  0  0  0  0  0  0  0
  150.6597  137.9318  156.0105 H   0  0  0  0  0  0  0  0  0  0  0  0
  151.1334  139.1965  153.8533 H   0  0  0  0  0  0  0  0  0  0  0  0
  152.8520  139.0232  154.1583 H   0  0  0  0  0  0  0  0  0  0  0  0
  151.5527  137.3926  152.8108 H   0  0  0  0  0  0  0  0  0  0  0  0
  153.6878  141.4267  159.6929 H   0  0  0  0  0  0  0  0  0  0  0  0
  153.0446  143.7984  160.0600 H   0  0  0  0  0  0  0  0  0  0  0  0
  151.3578  144.8845  158.5912 H   0  0  0  0  0  0  0  0  0  0  0  0
  150.3038  143.5956  156.7370 H   0  0  0  0  0  0  0  0  0  0  0  0
  146.4981  142.0919  157.0833 H   0  0  0  0  0  0  0  0  0  0  0  0
  144.5210  143.4987  157.3897 H   0  0  0  0  0  0  0  0  0  0  0  0
  1  2  1  0  0  0  0
  1 24  1  0  0  0  0
  1 25  1  0  0  0  0
  1 26  1  0  0  0  0
  2  3  1  0  0  0  0
  3 23  1  0  0  0  0
  3  4  2  0  0  0  0
  4  5  1  0  0  0  0
  4 27  1  0  0  0  0
  5  6  2  0  0  0  0
  5 28  1  0  0  0  0
  6  7  1  0  0  0  0
  6 22  1  0  0  0  0
  7  8  1  0  0  0  0
  8  9  1  0  0  0  0
  8 29  1  0  0  0  0
  8 30  1  0  0  0  0
  9 10  1  0  0  0  0
  9 31  1  0  0  0  0
  9 32  1  0  0  0  0
 10 21  1  0  0  0  0
 10 11  1  0  0  0  0
 11 12  1  0  0  0  0
 11 15  2  0  0  0  0
 12 13  1  0  0  0  0
 12 33  1  0  0  0  0
 12 34  1  0  0  0  0
 13 14  1  0  0  0  0
 13 35  1  0  0  0  0
 13 36  1  0  0  0  0
 14 37  1  0  0  0  0
 15 16  1  0  0  0  0
 16 21  2  0  0  0  0
 16 17  1  0  0  0  0
 17 18  2  0  0  0  0
 17 38  1  0  0  0  0
 18 19  1  0  0  0  0
 18 39  1  0  0  0  0
 19 20  2  0  0  0  0
 19 40  1  0  0  0  0
 20 21  1  0  0  0  0
 20 41  1  0  0  0  0
 22 23  2  0  0  0  0
 22 42  1  0  0  0  0
 23 43  1  0  0  0  0
M  END
> <s_m_source_file>
AV-unprocessed.smi

> <i_m_source_file_index>
459

> <i_lp_mmshare_version>
43012

> <i_f3d_flags>
0

> <s_epik_input>
W0NIM11PYzFbY0hdW2NIXWMoW2NIXVtjSF0xKU9bQ0gyXVtDSDJdbihjKG4yKVtDSDJdW0NIMl1bT0hdKWMoYzIzKVtjSF1bY0hdW2NIXVtjSF0z

> <s_epik_cmdline>
J2VwaWtfcHl0aG9uJywgJy1waCcsICc3LjAnLCAnLXRuJywgJzgnLCAnLW1hJywgJzIwMCcsICctbWV0YWxfYmluZGluZycsICctaW1hZScsICc8aW5maWxlLm1hZT4nLCAnLW9tYWUnLCAnPG91dGZpbGUubWFlPic=

> <r_lp_tautomer_probability>
1

> <r_epik_Ionization_Penalty>
0.207087

> <r_epik_Ionization_Penalty_Charging>
0

> <r_epik_Ionization_Penalty_Neutral>
0.207087

> <r_epik_State_Penalty>
0.197081

> <r_epik_Charging_Adjusted_Penalty>
0.197081

> <i_epik_Tot_Q>
0

> <i_epik_Tot_abs_Q>
0

> <r_epik_Metal_State_Penalty>
0.00023377

> <b_epik_Metal_Only>
0

> <s_lp_Force_Field>
OPLS_2005

> <r_lp_Energy>
17.9825

> <b_lp_Chiralities_Consistent>
1

> <s_lp_Variant>
AV-unprocessed.smi:459-1

> <Gold.Version>
5.8.1

> <Gold.Id.Protein>
6NUR|6NUR_protein|mol2

> <Gold.PLP.Fitness>
53.4679

> <Gold.PLP.PLP>
-46.6209

> <Gold.PLP.part.hbond>
-3.0000

> <Gold.PLP.part.metal>
0.0000

> <Gold.PLP.part.buried>
-6.0147

> <Gold.PLP.part.nonpolar>
-37.2619

> <Gold.PLP.part.repulsive>
0.1725

> <Gold.PLP.ligand.clash>
0.0000

> <Gold.PLP.ligand.torsion>
0.4439

> <Gold.PLP.Chemscore.Hbond>
2.5607

> <Gold.PLP.Chemscore.CHOScore>
0.0000

> <Gold.PLP.Chemscore.Metal>
0.0000

> <Gold.Chemscore.Hbonds>
donor molecule, donor type, donor heavy atom, donor atom, acceptor molecule, acceptor atom, score
      L1  H    14    37       P1  7949  0.58
      P1  H  7997  8008       L1    15  0.77
      P1  H 10752 10763       L1    14  1.00

> <Gold.PLP.Chemscore.Internal.Correction>
0.0527

> <Gold.Rescore>
     Score         DG    S(hbond)    S(metal)    S(lipo)     H(rot)  DE(clash)    DE(int)     intcor
     18.00     -18.33       1.54        0.00     122.46       2.59       0.13       0.20       ----

> <Gold.Chemscore.Fitness>
18.0007

> <Gold.Chemscore.DG>
-18.3304

> <Gold.Chemscore.ZeroCoef>
-5.4800

> <Gold.Chemscore.Hbond>
1.5442

> <Gold.Chemscore.Metal>
0.0000

> <Gold.Chemscore.Lipo>
122.4561

> <Gold.Chemscore.Internal_Hbond>
0.0000

> <Gold.Chemscore.DEClash>
0.1317

> <Gold.Chemscore.DEInternal>
0.1980

> <Gold.Chemscore.Rot>
2.5916

> <Gold.Chemscore.Internal.Correction>
   9.000000E+99

> <Gold.Chemscore.Hbonds>
donor molecule, donor type, donor heavy atom, donor atom, acceptor molecule, acceptor atom, score
      L1  H    14    37       P1  7949  0.53
      P1  H  7997  8008       L1    15  0.09
      P1  H 10752 10763       L1    14  0.91

> <Gold.Chemscore.Hbond.Weighted>
-5.1576

> <Gold.Chemscore.Metal.Weighted>
-0.0000

> <Gold.Chemscore.Lipo.Weighted>
-14.3274

> <Gold.Chemscore.Internal_Hbond.Weighted>
0.0000

> <Gold.Chemscore.DEClash.Weighted>
0.1317

> <Gold.Chemscore.DEInternal.Weighted>
0.1980

> <Gold.Chemscore.Rot.Weighted>
6.6346

> <Gold.Chemscore.Internal.Correction.Weighted>
   9.000000E+99

> <Gold.Protein.RotatedTorsions>
[ 6907 6896 6895 6894 ] final -118.35 input  -60.11 | X-H torsion
[ 7974 7965 7964 7962 ] final -163.46 input  175.53 | X-H torsion
[ 8008 7997 7996 7995 ] final  -77.36 input   59.86 | X-H torsion
[ 10167 10162 10161 10158 ] final  -69.21 input  -65.29 | X-H torsion
[ 10718 10713 10712 10709 ] final  147.77 input   66.30 | X-H torsion
[ 10763 10752 10751 10750 ] final   36.54 input  -60.55 | X-H torsion
[ 11005 11000 10999 10996 ] final   96.28 input  -57.11 | X-H torsion

> <Gold.Protein.ActiveResidues>
 VAL166  LYS551  ARG553  GLY616  TRP617  ASP618  TYR619  PRO620  LYS621  CYS622 
 ASP623  PHE694  ASN695  SER759  ASP760  ASP761  ALA762  ILE779  LEU786  VAL792 
 PHE793  MET794  SER795  GLU796  ALA797  LYS798  CYS799  TRP800  GLU811  SER814 

> <Gold.Protein.RotatedAtoms>
  150.8212  133.8249  159.3138 H   0  0  0  0  0  0  0  0  0  0  0  0  # atno 6907 bound_to 6896
  151.6007  135.1046  160.0069 H   0  0  0  0  0  0  0  0  0  0  0  0  # atno 6908 bound_to 6896
  152.4301  133.7222  159.6596 H   0  0  0  0  0  0  0  0  0  0  0  0  # atno 6909 bound_to 6896
  144.7325  140.3103  143.6189 H   0  0  0  0  0  0  0  0  0  0  0  0  # atno 7974 bound_to 7965
  154.5589  140.0712  156.8787 H   0  0  0  0  0  0  0  0  0  0  0  0  # atno 8008 bound_to 7997
  155.2849  140.3374  155.4238 H   0  0  0  0  0  0  0  0  0  0  0  0  # atno 8009 bound_to 7997
  156.2025  140.1727  156.7854 H   0  0  0  0  0  0  0  0  0  0  0  0  # atno 8010 bound_to 7997
  140.5448  143.2313  151.7022 H   0  0  0  0  0  0  0  0  0  0  0  0  # atno 10167 bound_to 10162
  157.3168  131.0897  151.1272 H   0  0  0  0  0  0  0  0  0  0  0  0  # atno 10718 bound_to 10713
  153.0073  135.6303  154.2001 H   0  0  0  0  0  0  0  0  0  0  0  0  # atno 10763 bound_to 10752
  154.1745  135.2816  155.3073 H   0  0  0  0  0  0  0  0  0  0  0  0  # atno 10764 bound_to 10752
  154.5883  135.5626  153.7313 H   0  0  0  0  0  0  0  0  0  0  0  0  # atno 10765 bound_to 10752
  139.8782  134.8943  156.4136 H   0  0  0  0  0  0  0  0  0  0  0  0  # atno 11005 bound_to 11000
  145.7671  139.1844  143.2233 LP  0  0  0  0  0  0  0  0  0  0  0  0  # atno 17320 bound_to 7965
  146.0940  140.7622  142.9581 LP  0  0  0  0  0  0  0  0  0  0  0  0  # atno 17321 bound_to 7965
  139.5003  144.3912  152.0278 LP  0  0  0  0  0  0  0  0  0  0  0  0  # atno 17342 bound_to 10162
  140.3024  144.3631  150.6056 LP  0  0  0  0  0  0  0  0  0  0  0  0  # atno 17343 bound_to 10162
  157.2573  130.6642  149.5958 LP  0  0  0  0  0  0  0  0  0  0  0  0  # atno 17370 bound_to 10713
  155.9682  130.4520  150.5756 LP  0  0  0  0  0  0  0  0  0  0  0  0  # atno 17371 bound_to 10713
  140.9183  133.7663  155.9875 LP  0  0  0  0  0  0  0  0  0  0  0  0  # atno 17394 bound_to 11000
  140.8468  134.3001  157.5291 LP  0  0  0  0  0  0  0  0  0  0  0  0  # atno 17395 bound_to 11000

$$$$
