AV-unprocessed.smi:1580|AV-procd|sdf|6359|dock8
  -GOLD-   22720 6583D 1   1.00000     0.00000
 Structure written by MMmdl.
 37 38  0  0  0  0  0  0  0  0  1 V2000
  136.8544  137.6702  154.5038 C   0  0  0  0  0  0  0  0  0  0  0  0
  138.2466  137.7215  155.7040 S   0  0  0  0  0  0  0  0  0  0  0  0
  138.1985  139.0194  156.3957 O   0  0  0  0  0  0  0  0  0  0  0  0
  138.2244  136.4784  156.4906 O   0  0  0  0  0  0  0  0  0  0  0  0
  139.7040  137.6909  154.6665 C   0  0  0  0  0  0  0  0  0  0  0  0
  140.0940  138.8397  153.9501 C   0  0  0  0  0  0  0  0  0  0  0  0
  141.2258  138.7515  153.1174 C   0  0  0  0  0  0  0  0  0  0  0  0
  141.9179  137.5174  153.0283 C   0  0  0  0  0  0  0  0  0  0  0  0
  143.0703  137.2845  152.2271 N   0  0  0  0  0  0  0  0  0  0  0  0
  143.8806  136.2126  152.1837 C   0  0  0  0  0  0  0  0  0  0  0  0
  143.7651  135.1966  152.8679 O   0  0  0  0  0  0  0  0  0  0  0  0
  144.8550  136.3829  151.2795 N   0  0  0  0  0  0  0  0  0  0  0  0
  145.9117  135.4179  150.9977 C   0  0  0  0  0  0  0  0  0  0  0  0
  145.3571  133.9868  150.9046 C   0  0  1  0  0  0  0  0  0  0  0  0
  144.1706  133.8489  149.9524 C   0  0  0  0  0  0  0  0  0  0  0  0
  144.2502  132.3869  149.5776 C   0  0  0  0  0  0  0  0  0  0  0  0
  145.7576  132.1763  149.4737 C   0  0  0  0  0  0  0  0  0  0  0  0
  146.3462  133.0975  150.3891 O   0  0  0  0  0  0  0  0  0  0  0  0
  141.4192  136.4296  153.7775 C   0  0  0  0  0  0  0  0  0  0  0  0
  140.3349  136.5012  154.5774 N   0  0  0  0  0  0  0  0  0  0  0  0
  135.9084  137.6824  155.0446 H   0  0  0  0  0  0  0  0  0  0  0  0
  136.9206  136.7595  153.9089 H   0  0  0  0  0  0  0  0  0  0  0  0
  136.9088  138.5381  153.8469 H   0  0  0  0  0  0  0  0  0  0  0  0
  139.5453  139.7662  154.0316 H   0  0  0  0  0  0  0  0  0  0  0  0
  141.5241  139.6286  152.5666 H   0  0  0  0  0  0  0  0  0  0  0  0
  143.2952  138.0259  151.5802 H   0  0  0  0  0  0  0  0  0  0  0  0
  144.8790  137.2474  150.7589 H   0  0  0  0  0  0  0  0  0  0  0  0
  146.4223  135.6860  150.0713 H   0  0  0  0  0  0  0  0  0  0  0  0
  146.6576  135.4808  151.7902 H   0  0  0  0  0  0  0  0  0  0  0  0
  145.0595  133.6250  151.8902 H   0  0  0  0  0  0  0  0  0  0  0  0
  143.2213  134.1218  150.4140 H   0  0  0  0  0  0  0  0  0  0  0  0
  144.3114  134.4689  149.0657 H   0  0  0  0  0  0  0  0  0  0  0  0
  143.8379  131.7721  150.3788 H   0  0  0  0  0  0  0  0  0  0  0  0
  143.7207  132.1488  148.6547 H   0  0  0  0  0  0  0  0  0  0  0  0
  146.0492  131.1500  149.6974 H   0  0  0  0  0  0  0  0  0  0  0  0
  146.1075  132.4163  148.4691 H   0  0  0  0  0  0  0  0  0  0  0  0
  141.9062  135.4663  153.7338 H   0  0  0  0  0  0  0  0  0  0  0  0
  1  2  1  0  0  0  0
  1 21  1  0  0  0  0
  1 22  1  0  0  0  0
  1 23  1  0  0  0  0
  2  3  2  0  0  0  0
  2  4  2  0  0  0  0
  2  5  1  0  0  0  0
  5 20  1  0  0  0  0
  5  6  2  0  0  0  0
  6  7  1  0  0  0  0
  6 24  1  0  0  0  0
  7  8  2  0  0  0  0
  7 25  1  0  0  0  0
  8  9  1  0  0  0  0
  8 19  1  0  0  0  0
  9 10  1  0  0  0  0
  9 26  1  0  0  0  0
 10 11  2  0  0  0  0
 10 12  1  0  0  0  0
 12 13  1  0  0  0  0
 12 27  1  0  0  0  0
 13 14  1  0  0  0  0
 13 28  1  0  0  0  0
 13 29  1  0  0  0  0
 14 18  1  0  0  0  0
 14 15  1  0  0  0  0
 14 30  1  0  0  0  0
 15 16  1  0  0  0  0
 15 31  1  0  0  0  0
 15 32  1  0  0  0  0
 16 17  1  0  0  0  0
 16 33  1  0  0  0  0
 16 34  1  0  0  0  0
 17 18  1  0  0  0  0
 17 35  1  0  0  0  0
 17 36  1  0  0  0  0
 19 20  2  0  0  0  0
 19 37  1  0  0  0  0
M  END
> <s_m_source_file>
AV-unprocessed.smi

> <i_m_source_file_index>
1580

> <i_lp_mmshare_version>
43012

> <i_f3d_flags>
0

> <s_epik_input>
W0NIM11TKD1PKSg9TyljMVtjSF1bY0hdYyhbY0hdbjEpW05IXUMoPU8pW05IXVtDSDJdW0NAQEhdMltDSDJdW0NIMl1bQ0gyXU8y

> <s_epik_cmdline>
J2VwaWtfcHl0aG9uJywgJy1waCcsICc3LjAnLCAnLXRuJywgJzgnLCAnLW1hJywgJzIwMCcsICctbWV0YWxfYmluZGluZycsICctaW1hZScsICc8aW5maWxlLm1hZT4nLCAnLW9tYWUnLCAnPG91dGZpbGUubWFlPic=

> <r_lp_tautomer_probability>
1

> <r_epik_Ionization_Penalty>
3.28405e-05

> <r_epik_Ionization_Penalty_Charging>
0

> <r_epik_Ionization_Penalty_Neutral>
3.28405e-05

> <r_epik_State_Penalty>
-0

> <r_epik_Charging_Adjusted_Penalty>
0

> <i_epik_Tot_Q>
0

> <i_epik_Tot_abs_Q>
0

> <r_epik_Metal_State_Penalty>
-0

> <b_epik_Metal_Only>
0

> <s_lp_Force_Field>
OPLS_2005

> <r_lp_Energy>
18.5383

> <b_lp_Chiralities_Consistent>
1

> <s_lp_Variant>
AV-unprocessed.smi:1580-2

> <Gold.Version>
5.8.1

> <Gold.Id.Protein>
6NUR|6NUR_protein|mol2

> <Gold.PLP.Fitness>
41.3548

> <Gold.PLP.PLP>
-33.3084

> <Gold.PLP.part.hbond>
-4.0000

> <Gold.PLP.part.metal>
0.0000

> <Gold.PLP.part.buried>
-4.2329

> <Gold.PLP.part.nonpolar>
-25.6532

> <Gold.PLP.part.repulsive>
0.5182

> <Gold.PLP.ligand.clash>
0.0000

> <Gold.PLP.ligand.torsion>
1.1907

> <Gold.PLP.Chemscore.Hbond>
2.7999

> <Gold.PLP.Chemscore.CHOScore>
0.0000

> <Gold.PLP.Chemscore.Metal>
0.0000

> <Gold.Chemscore.Hbonds>
donor molecule, donor type, donor heavy atom, donor atom, acceptor molecule, acceptor atom, score
      L1  H     9    26       P1 10171  1.00
      L1  H    12    27       P1 10171  0.94
      P1  H 11000 11005       L1    20  0.35

> <Gold.PLP.Chemscore.Internal.Correction>
2.0282

> <Gold.Rescore>
     Score         DG    S(hbond)    S(metal)    S(lipo)     H(rot)  DE(clash)    DE(int)     intcor
     14.07     -18.13       2.24        0.00      72.02       1.27       0.36       3.70       ----

> <Gold.Chemscore.Fitness>
14.0659

> <Gold.Chemscore.DG>
-18.1305

> <Gold.Chemscore.ZeroCoef>
-5.4800

> <Gold.Chemscore.Hbond>
2.2400

> <Gold.Chemscore.Metal>
0.0000

> <Gold.Chemscore.Lipo>
72.0206

> <Gold.Chemscore.Internal_Hbond>
0.0000

> <Gold.Chemscore.DEClash>
0.3642

> <Gold.Chemscore.DEInternal>
3.7004

> <Gold.Chemscore.Rot>
1.2725

> <Gold.Chemscore.Internal.Correction>
   9.000000E+99

> <Gold.Chemscore.Hbonds>
donor molecule, donor type, donor heavy atom, donor atom, acceptor molecule, acceptor atom, score
      L1  H     9    26       P1 10171  0.66
      L1  H    12    27       P1 10171  0.91
      P1  H 11000 11005       L1    20  0.30

> <Gold.Chemscore.Hbond.Weighted>
-7.4817

> <Gold.Chemscore.Metal.Weighted>
-0.0000

> <Gold.Chemscore.Lipo.Weighted>
-8.4264

> <Gold.Chemscore.Internal_Hbond.Weighted>
0.0000

> <Gold.Chemscore.DEClash.Weighted>
0.3642

> <Gold.Chemscore.DEInternal.Weighted>
3.7004

> <Gold.Chemscore.Rot.Weighted>
3.2576

> <Gold.Chemscore.Internal.Correction.Weighted>
   9.000000E+99

> <Gold.Protein.RotatedTorsions>
[ 6907 6896 6895 6894 ] final   46.46 input  -60.11 | X-H torsion
[ 7974 7965 7964 7962 ] final  124.83 input  175.53 | X-H torsion
[ 8008 7997 7996 7995 ] final  126.50 input   59.86 | X-H torsion
[ 10167 10162 10161 10158 ] final -155.80 input  -65.29 | X-H torsion
[ 10718 10713 10712 10709 ] final   94.30 input   66.30 | X-H torsion
[ 10763 10752 10751 10750 ] final  -50.26 input  -60.55 | X-H torsion
[ 11005 11000 10999 10996 ] final   66.46 input  -57.11 | X-H torsion

> <Gold.Protein.ActiveResidues>
 VAL166  LYS551  ARG553  GLY616  TRP617  ASP618  TYR619  PRO620  LYS621  CYS622 
 ASP623  PHE694  ASN695  SER759  ASP760  ASP761  ALA762  ILE779  LEU786  VAL792 
 PHE793  MET794  SER795  GLU796  ALA797  LYS798  CYS799  TRP800  GLU811  SER814 

> <Gold.Protein.RotatedAtoms>
  152.2566  134.8077  160.0437 H   0  0  0  0  0  0  0  0  0  0  0  0  # atno 6907 bound_to 6896
  151.8738  133.3476  159.3752 H   0  0  0  0  0  0  0  0  0  0  0  0  # atno 6908 bound_to 6896
  150.7102  134.5013  159.5607 H   0  0  0  0  0  0  0  0  0  0  0  0  # atno 6909 bound_to 6896
  145.0800  139.3665  143.4914 H   0  0  0  0  0  0  0  0  0  0  0  0  # atno 7974 bound_to 7965
  156.2865  140.2691  156.2121 H   0  0  0  0  0  0  0  0  0  0  0  0  # atno 8008 bound_to 7997
  155.0254  140.0386  157.2471 H   0  0  0  0  0  0  0  0  0  0  0  0  # atno 8009 bound_to 7997
  154.7400  140.2723  155.6387 H   0  0  0  0  0  0  0  0  0  0  0  0  # atno 8010 bound_to 7997
  139.6901  143.9434  152.2381 H   0  0  0  0  0  0  0  0  0  0  0  0  # atno 10167 bound_to 10162
  157.6949  131.0508  150.4166 H   0  0  0  0  0  0  0  0  0  0  0  0  # atno 10718 bound_to 10713
  154.1074  135.6554  153.4879 H   0  0  0  0  0  0  0  0  0  0  0  0  # atno 10763 bound_to 10752
  153.0268  135.5239  154.7226 H   0  0  0  0  0  0  0  0  0  0  0  0  # atno 10764 bound_to 10752
  154.6396  135.2986  155.0089 H   0  0  0  0  0  0  0  0  0  0  0  0  # atno 10765 bound_to 10752
  139.9830  134.6713  156.0227 H   0  0  0  0  0  0  0  0  0  0  0  0  # atno 11005 bound_to 11000
  146.3531  140.0585  142.8631 LP  0  0  0  0  0  0  0  0  0  0  0  0  # atno 17320 bound_to 7965
  145.1190  140.9451  143.4611 LP  0  0  0  0  0  0  0  0  0  0  0  0  # atno 17321 bound_to 7965
  139.9248  144.6777  150.8423 LP  0  0  0  0  0  0  0  0  0  0  0  0  # atno 17342 bound_to 10162
  140.7680  143.3349  151.2330 LP  0  0  0  0  0  0  0  0  0  0  0  0  # atno 17343 bound_to 10162
  156.4545  130.4018  149.6615 LP  0  0  0  0  0  0  0  0  0  0  0  0  # atno 17370 bound_to 10713
  156.3752  130.7551  151.2538 LP  0  0  0  0  0  0  0  0  0  0  0  0  # atno 17371 bound_to 10713
  141.1500  133.6550  156.3983 LP  0  0  0  0  0  0  0  0  0  0  0  0  # atno 17394 bound_to 11000
  140.5058  134.6443  157.5266 LP  0  0  0  0  0  0  0  0  0  0  0  0  # atno 17395 bound_to 11000

$$$$
