AV-unprocessed.smi:2525|AV-procd|sdf|9927|dock10
  -GOLD-   2272013563D 1   1.00000     0.00000
 Structure written by MMmdl.
 44 45  0  0  0  0  0  0  0  0  1 V2000
  146.9564  138.9328  153.1568 C   0  0  0  0  0  0  0  0  0  0  0  0
  147.0336  139.6407  154.5170 C   0  0  0  0  0  0  0  0  0  0  0  0
  148.0352  140.8138  154.6047 C   0  0  0  0  0  0  0  0  0  0  0  0
  147.4422  142.0124  153.7991 C   0  0  0  0  0  0  0  0  0  0  0  0
  146.0776  142.5413  154.2736 C   0  0  0  0  0  0  0  0  0  0  0  0
  148.5153  141.1200  156.0541 C   0  0  2  0  0  0  0  0  0  0  0  0
  147.8675  142.2575  156.6952 N   0  0  0  0  0  0  0  0  0  0  0  0
  147.1176  142.1787  157.8042 C   0  0  0  0  0  0  0  0  0  0  0  0
  146.9868  141.1484  158.4646 O   0  0  0  0  0  0  0  0  0  0  0  0
  146.3780  143.4521  158.2139 C   0  0  0  0  0  0  0  0  0  0  0  0
  146.6323  143.7658  159.6094 N   0  0  0  0  0  0  0  0  0  0  0  0
  147.0594  144.9576  160.1586 C   0  0  0  0  0  0  0  0  0  0  0  0
  147.1572  144.6762  161.4913 C   0  0  0  0  0  0  0  0  0  0  0  0
  146.7914  143.3470  161.6953 N   0  0  0  0  0  0  0  0  0  0  0  0
  146.4763  142.8112  160.5582 N   0  0  0  0  0  0  0  0  0  0  0  0
  149.8981  141.4573  155.4859 C   0  0  1  0  0  0  0  0  0  0  0  0
  151.1405  141.2457  156.3416 C   0  0  0  0  0  0  0  0  0  0  0  0
  149.5356  140.4751  154.3546 C   0  0  1  0  0  0  0  0  0  0  0  0
  149.8353  139.1222  154.6865 O   0  0  0  0  0  0  0  0  0  0  0  0
  151.2096  138.8037  154.5488 C   0  0  0  0  0  0  0  0  0  0  0  0
  146.3597  138.0239  153.2347 H   0  0  0  0  0  0  0  0  0  0  0  0
  147.9443  138.6476  152.7951 H   0  0  0  0  0  0  0  0  0  0  0  0
  146.4803  139.5603  152.4048 H   0  0  0  0  0  0  0  0  0  0  0  0
  146.0342  139.9721  154.8008 H   0  0  0  0  0  0  0  0  0  0  0  0
  147.2903  138.8866  155.2616 H   0  0  0  0  0  0  0  0  0  0  0  0
  148.1472  142.8443  153.7843 H   0  0  0  0  0  0  0  0  0  0  0  0
  147.3112  141.7566  152.7484 H   0  0  0  0  0  0  0  0  0  0  0  0
  145.8360  143.4752  153.7656 H   0  0  0  0  0  0  0  0  0  0  0  0
  146.0481  142.7336  155.3442 H   0  0  0  0  0  0  0  0  0  0  0  0
  145.2774  141.8395  154.0397 H   0  0  0  0  0  0  0  0  0  0  0  0
  148.5517  140.2308  156.6886 H   0  0  0  0  0  0  0  0  0  0  0  0
  147.9258  143.1466  156.2201 H   0  0  0  0  0  0  0  0  0  0  0  0
  146.7064  144.2920  157.6001 H   0  0  0  0  0  0  0  0  0  0  0  0
  145.3059  143.3307  158.0515 H   0  0  0  0  0  0  0  0  0  0  0  0
  147.2518  145.8496  159.5810 H   0  0  0  0  0  0  0  0  0  0  0  0
  147.4591  145.3110  162.3112 H   0  0  0  0  0  0  0  0  0  0  0  0
  149.8979  142.4710  155.0791 H   0  0  0  0  0  0  0  0  0  0  0  0
  151.1656  140.2447  156.7728 H   0  0  0  0  0  0  0  0  0  0  0  0
  151.1734  141.9575  157.1663 H   0  0  0  0  0  0  0  0  0  0  0  0
  152.0504  141.3785  155.7563 H   0  0  0  0  0  0  0  0  0  0  0  0
  149.9110  140.7603  153.3723 H   0  0  0  0  0  0  0  0  0  0  0  0
  151.3786  137.7736  154.8620 H   0  0  0  0  0  0  0  0  0  0  0  0
  151.8365  139.4500  155.1630 H   0  0  0  0  0  0  0  0  0  0  0  0
  151.5279  138.8946  153.5095 H   0  0  0  0  0  0  0  0  0  0  0  0
  1  2  1  0  0  0  0
  1 21  1  0  0  0  0
  1 22  1  0  0  0  0
  1 23  1  0  0  0  0
  2  3  1  0  0  0  0
  2 24  1  0  0  0  0
  2 25  1  0  0  0  0
  3 18  1  0  0  0  0
  3  4  1  0  0  0  0
  3  6  1  0  0  0  0
  4  5  1  0  0  0  0
  4 26  1  0  0  0  0
  4 27  1  0  0  0  0
  5 28  1  0  0  0  0
  5 29  1  0  0  0  0
  5 30  1  0  0  0  0
  6  7  1  0  0  0  0
  6 16  1  0  0  0  0
  6 31  1  0  0  0  0
  7  8  1  0  0  0  0
  7 32  1  0  0  0  0
  8  9  2  0  0  0  0
  8 10  1  0  0  0  0
 10 11  1  0  0  0  0
 10 33  1  0  0  0  0
 10 34  1  0  0  0  0
 11 15  1  0  0  0  0
 11 12  1  0  0  0  0
 12 13  2  0  0  0  0
 12 35  1  0  0  0  0
 13 14  1  0  0  0  0
 13 36  1  0  0  0  0
 14 15  2  0  0  0  0
 16 17  1  0  0  0  0
 16 18  1  0  0  0  0
 16 37  1  0  0  0  0
 17 38  1  0  0  0  0
 17 39  1  0  0  0  0
 17 40  1  0  0  0  0
 18 19  1  0  0  0  0
 18 41  1  0  0  0  0
 19 20  1  0  0  0  0
 20 42  1  0  0  0  0
 20 43  1  0  0  0  0
 20 44  1  0  0  0  0
M  END
> <s_m_source_file>
AV-unprocessed.smi

> <i_m_source_file_index>
2525

> <i_lp_mmshare_version>
43012

> <i_f3d_flags>
0

> <s_epik_input>
W0NIM11PW0NAQEhdMVtDQEhdKFtDSDNdKVtDQEBIXShDMShbQ0gyXVtDSDNdKVtDSDJdW0NIM10pW05IXUMoPU8pW0NIMl1uMltjSF1bY0hdbm4y

> <s_epik_cmdline>
J2VwaWtfcHl0aG9uJywgJy1waCcsICc3LjAnLCAnLXRuJywgJzgnLCAnLW1hJywgJzIwMCcsICctbWV0YWxfYmluZGluZycsICctaW1hZScsICc8aW5maWxlLm1hZT4nLCAnLW9tYWUnLCAnPG91dGZpbGUubWFlPic=

> <r_lp_tautomer_probability>
1

> <r_epik_Ionization_Penalty>
1.18045e-06

> <r_epik_Ionization_Penalty_Charging>
0

> <r_epik_Ionization_Penalty_Neutral>
1.18045e-06

> <r_epik_State_Penalty>
-0

> <r_epik_Charging_Adjusted_Penalty>
0

> <i_epik_Tot_Q>
0

> <i_epik_Tot_abs_Q>
0

> <r_epik_Metal_State_Penalty>
-0

> <b_epik_Metal_Only>
0

> <s_lp_Force_Field>
OPLS_2005

> <r_lp_Energy>
28.7766

> <b_lp_Chiralities_Consistent>
1

> <s_lp_Variant>
AV-unprocessed.smi:2525-2

> <Gold.Version>
5.8.1

> <Gold.Id.Protein>
6NUR|6NUR_protein|mol2

> <Gold.PLP.Fitness>
46.4535

> <Gold.PLP.PLP>
-37.4045

> <Gold.PLP.part.hbond>
-5.0981

> <Gold.PLP.part.metal>
0.0000

> <Gold.PLP.part.buried>
-5.4007

> <Gold.PLP.part.nonpolar>
-27.5974

> <Gold.PLP.part.repulsive>
0.1981

> <Gold.PLP.ligand.clash>
0.0000

> <Gold.PLP.ligand.torsion>
0.6316

> <Gold.PLP.Chemscore.Hbond>
2.2417

> <Gold.PLP.Chemscore.CHOScore>
0.9654

> <Gold.PLP.Chemscore.Metal>
0.0000

> <Gold.Chemscore.Hbonds>
donor molecule, donor type, donor heavy atom, donor atom, acceptor molecule, acceptor atom, score
      L1  H     7    32       P1  8028  1.00
      P1  H  6933  6944       L1    14  0.19
      P1  H  6934  6946       L1    15  1.00
      L1  C    12    35       P1  8029  0.95

> <Gold.PLP.Chemscore.Internal.Correction>
0.6908

> <Gold.Rescore>
     Score         DG    S(hbond)    S(metal)    S(lipo)     H(rot)  DE(clash)    DE(int)     intcor
     10.01     -13.60       1.27        0.00      76.35       1.98       0.77       2.82       ----

> <Gold.Chemscore.Fitness>
10.0130

> <Gold.Chemscore.DG>
-13.5959

> <Gold.Chemscore.ZeroCoef>
-5.4800

> <Gold.Chemscore.Hbond>
1.2742

> <Gold.Chemscore.Metal>
0.0000

> <Gold.Chemscore.Lipo>
76.3520

> <Gold.Chemscore.Internal_Hbond>
0.0000

> <Gold.Chemscore.DEClash>
0.7675

> <Gold.Chemscore.DEInternal>
2.8154

> <Gold.Chemscore.Rot>
1.9817

> <Gold.Chemscore.Internal.Correction>
   9.000000E+99

> <Gold.Chemscore.Hbonds>
donor molecule, donor type, donor heavy atom, donor atom, acceptor molecule, acceptor atom, score
      L1  H     7    32       P1  8028  0.29
      P1  H  6934  6946       L1    15  0.51

> <Gold.Chemscore.Hbond.Weighted>
-4.2558

> <Gold.Chemscore.Metal.Weighted>
-0.0000

> <Gold.Chemscore.Lipo.Weighted>
-8.9332

> <Gold.Chemscore.Internal_Hbond.Weighted>
0.0000

> <Gold.Chemscore.DEClash.Weighted>
0.7675

> <Gold.Chemscore.DEInternal.Weighted>
2.8154

> <Gold.Chemscore.Rot.Weighted>
5.0731

> <Gold.Chemscore.Internal.Correction.Weighted>
   9.000000E+99

> <Gold.Protein.RotatedTorsions>
[ 6907 6896 6895 6894 ] final   35.15 input  -60.11 | X-H torsion
[ 7974 7965 7964 7962 ] final  -64.20 input  175.53 | X-H torsion
[ 8008 7997 7996 7995 ] final -153.84 input   59.86 | X-H torsion
[ 10167 10162 10161 10158 ] final -162.38 input  -65.29 | X-H torsion
[ 10718 10713 10712 10709 ] final  116.56 input   66.30 | X-H torsion
[ 10763 10752 10751 10750 ] final   75.33 input  -60.55 | X-H torsion
[ 11005 11000 10999 10996 ] final  139.01 input  -57.11 | X-H torsion

> <Gold.Protein.ActiveResidues>
 VAL166  LYS551  ARG553  GLY616  TRP617  ASP618  TYR619  PRO620  LYS621  CYS622 
 ASP623  PHE694  ASN695  SER759  ASP760  ASP761  ALA762  ILE779  LEU786  VAL792 
 PHE793  MET794  SER795  GLU796  ALA797  LYS798  CYS799  TRP800  GLU811  SER814 

> <Gold.Protein.RotatedAtoms>
  152.1121  134.9266  160.0566 H   0  0  0  0  0  0  0  0  0  0  0  0  # atno 6907 bound_to 6896
  152.0440  133.3985  159.4357 H   0  0  0  0  0  0  0  0  0  0  0  0  # atno 6908 bound_to 6896
  150.6844  134.3304  159.4868 H   0  0  0  0  0  0  0  0  0  0  0  0  # atno 6909 bound_to 6896
  145.7696  140.8820  143.0387 H   0  0  0  0  0  0  0  0  0  0  0  0  # atno 7974 bound_to 7965
  155.6771  140.0740  157.2498 H   0  0  0  0  0  0  0  0  0  0  0  0  # atno 8008 bound_to 7997
  154.4112  140.1688  156.1994 H   0  0  0  0  0  0  0  0  0  0  0  0  # atno 8009 bound_to 7997
  155.9567  140.3373  155.6457 H   0  0  0  0  0  0  0  0  0  0  0  0  # atno 8010 bound_to 7997
  139.6396  144.0284  152.2081 H   0  0  0  0  0  0  0  0  0  0  0  0  # atno 10167 bound_to 10162
  157.6152  131.1027  150.7490 H   0  0  0  0  0  0  0  0  0  0  0  0  # atno 10718 bound_to 10713
  153.0647  135.4993  154.8173 H   0  0  0  0  0  0  0  0  0  0  0  0  # atno 10763 bound_to 10752
  154.6936  135.2989  154.9446 H   0  0  0  0  0  0  0  0  0  0  0  0  # atno 10764 bound_to 10752
  154.0193  135.6744  153.4824 H   0  0  0  0  0  0  0  0  0  0  0  0  # atno 10765 bound_to 10752
  140.0224  134.9390  157.0501 H   0  0  0  0  0  0  0  0  0  0  0  0  # atno 11005 bound_to 11000
  144.6815  139.9836  143.7483 LP  0  0  0  0  0  0  0  0  0  0  0  0  # atno 17320 bound_to 7965
  146.0183  139.3229  143.0828 LP  0  0  0  0  0  0  0  0  0  0  0  0  # atno 17321 bound_to 7965
  139.9971  144.6320  150.7763 LP  0  0  0  0  0  0  0  0  0  0  0  0  # atno 17342 bound_to 10162
  140.7484  143.2921  151.3302 LP  0  0  0  0  0  0  0  0  0  0  0  0  # atno 17343 bound_to 10162
  156.7859  130.4874  149.5393 LP  0  0  0  0  0  0  0  0  0  0  0  0  # atno 17370 bound_to 10713
  156.1272  130.6152  151.0280 LP  0  0  0  0  0  0  0  0  0  0  0  0  # atno 17371 bound_to 10713
  140.4364  134.1726  155.7171 LP  0  0  0  0  0  0  0  0  0  0  0  0  # atno 17394 bound_to 11000
  141.1782  133.8470  157.1350 LP  0  0  0  0  0  0  0  0  0  0  0  0  # atno 17395 bound_to 11000

$$$$
