AV-unprocessed.smi:2770|AV-procd|sdf|10660|dock2
  -GOLD-   2272015103D 1   1.00000     0.00000
 Structure written by MMmdl.
 35 36  0  0  0  0  0  0  0  0  2 V2000
  146.8752  139.7111  152.2695 C   0  0  0  0  0  0  0  0  0  0  0  0
  147.9157  139.4960  153.2632 N   0  0  0  0  0  0  0  0  0  0  0  0
  148.4899  140.4727  153.9815 C   0  0  0  0  0  0  0  0  0  0  0  0
  148.1774  141.6585  153.8668 O   0  0  0  0  0  0  0  0  0  0  0  0
  149.5632  140.0425  154.9913 C   0  0  2  0  0  0  0  0  0  0  0  0
  150.0790  141.2239  155.8443 C   0  0  0  0  0  0  0  0  0  0  0  0
  151.1642  140.7862  156.7127 N   0  0  0  0  0  0  0  0  0  0  0  0
  151.6042  141.7940  157.5805 C   0  0  0  0  0  0  0  0  0  0  0  0
  151.2507  143.1563  157.4378 C   0  0  0  0  0  0  0  0  0  0  0  0
  151.7396  144.0969  158.3675 C   0  0  0  0  0  0  0  0  0  0  0  0
  152.5696  143.6613  159.4205 C   0  0  0  0  0  0  0  0  0  0  0  0
  152.8909  142.2912  159.5199 C   0  0  0  0  0  0  0  0  0  0  0  0
  153.7733  141.7431  160.6211 C   0  0  0  0  0  0  0  0  0  0  0  0
  152.4012  141.4224  158.6072 N   0  3  0  0  0  0  0  0  0  0  0  0
  152.2420  140.1339  155.9814 C   0  0  0  0  0  0  0  0  0  0  0  0
  151.6775  138.9748  155.1449 C   0  0  0  0  0  0  0  0  0  0  0  0
  150.6614  139.4701  154.2785 O   0  0  0  0  0  0  0  0  0  0  0  0
  146.5936  138.7617  151.8143 H   0  0  0  0  0  0  0  0  0  0  0  0
  147.2233  140.3777  151.4797 H   0  0  0  0  0  0  0  0  0  0  0  0
  145.9862  140.1470  152.7269 H   0  0  0  0  0  0  0  0  0  0  0  0
  148.2226  138.5456  153.4149 H   0  0  0  0  0  0  0  0  0  0  0  0
  149.1213  139.2832  155.6392 H   0  0  0  0  0  0  0  0  0  0  0  0
  150.4300  142.0303  155.1980 H   0  0  0  0  0  0  0  0  0  0  0  0
  149.2711  141.6286  156.4558 H   0  0  0  0  0  0  0  0  0  0  0  0
  150.6104  143.4805  156.6303 H   0  0  0  0  0  0  0  0  0  0  0  0
  151.4796  145.1412  158.2750 H   0  0  0  0  0  0  0  0  0  0  0  0
  152.9512  144.3708  160.1406 H   0  0  0  0  0  0  0  0  0  0  0  0
  154.0474  142.5245  161.3307 H   0  0  0  0  0  0  0  0  0  0  0  0
  154.6895  141.3268  160.2015 H   0  0  0  0  0  0  0  0  0  0  0  0
  153.2548  140.9547  161.1673 H   0  0  0  0  0  0  0  0  0  0  0  0
  152.7378  140.8521  155.3273 H   0  0  0  0  0  0  0  0  0  0  0  0
  152.9907  139.7612  156.6814 H   0  0  0  0  0  0  0  0  0  0  0  0
  152.4676  138.5235  154.5447 H   0  0  0  0  0  0  0  0  0  0  0  0
  151.2745  138.1891  155.7862 H   0  0  0  0  0  0  0  0  0  0  0  0
  152.6458  140.4361  158.6982 H   0  0  0  0  0  0  0  0  0  0  0  0
  1  2  1  0  0  0  0
  1 18  1  0  0  0  0
  1 19  1  0  0  0  0
  1 20  1  0  0  0  0
  2  3  1  0  0  0  0
  2 21  1  0  0  0  0
  3  4  2  0  0  0  0
  3  5  1  0  0  0  0
  5 17  1  0  0  0  0
  5  6  1  0  0  0  0
  5 22  1  0  0  0  0
  6  7  1  0  0  0  0
  6 23  1  0  0  0  0
  6 24  1  0  0  0  0
  7  8  1  0  0  0  0
  7 15  1  0  0  0  0
  8 14  1  0  0  0  0
  8  9  2  0  0  0  0
  9 10  1  0  0  0  0
  9 25  1  0  0  0  0
 10 11  2  0  0  0  0
 10 26  1  0  0  0  0
 11 12  1  0  0  0  0
 11 27  1  0  0  0  0
 12 13  1  0  0  0  0
 12 14  2  0  0  0  0
 13 28  1  0  0  0  0
 13 29  1  0  0  0  0
 13 30  1  0  0  0  0
 14 35  1  0  0  0  0
 15 16  1  0  0  0  0
 15 31  1  0  0  0  0
 15 32  1  0  0  0  0
 16 17  1  0  0  0  0
 16 33  1  0  0  0  0
 16 34  1  0  0  0  0
M  CHG  1  14   1
M  END
> <s_m_source_file>
AV-unprocessed.smi

> <i_m_source_file_index>
2770

> <i_lp_mmshare_version>
43012

> <i_f3d_flags>
0

> <s_epik_input>
W0NIM11bTkhdQyg9TylbQ0BASF0xW0NIMl1OKFtDSDJdW0NIMl1PMSljMltjSF1bY0hdW2NIXWMobjIpW0NIM10=

> <s_epik_cmdline>
J2VwaWtfcHl0aG9uJywgJy1waCcsICc3LjAnLCAnLXRuJywgJzgnLCAnLW1hJywgJzIwMCcsICctbWV0YWxfYmluZGluZycsICctaW1hZScsICc8aW5maWxlLm1hZT4nLCAnLW9tYWUnLCAnPG91dGZpbGUubWFlPic=

> <r_lp_tautomer_probability>
0.999994

> <r_epik_Ionization_Penalty>
2.33902

> <r_epik_Ionization_Penalty_Charging>
2.33902

> <r_epik_Ionization_Penalty_Neutral>
5.66859e-08

> <r_epik_State_Penalty>
2.4925

> <r_epik_Charging_Adjusted_Penalty>
4.83152

> <i_epik_Tot_Q>
1

> <i_epik_Tot_abs_Q>
1

> <r_epik_Metal_State_Penalty>
2.50392

> <b_epik_Metal_Only>
0

> <s_lp_Force_Field>
OPLS_2005

> <r_lp_Energy>
23.5554

> <b_lp_Chiralities_Consistent>
1

> <s_lp_Variant>
AV-unprocessed.smi:2770-3

> <Gold.Version>
5.8.1

> <Gold.Id.Protein>
6NUR|6NUR_protein|mol2

> <Gold.PLP.Fitness>
41.0598

> <Gold.PLP.PLP>
-37.2668

> <Gold.PLP.part.hbond>
-3.0000

> <Gold.PLP.part.metal>
0.0000

> <Gold.PLP.part.buried>
0.8119

> <Gold.PLP.part.nonpolar>
-34.9542

> <Gold.PLP.part.repulsive>
0.5126

> <Gold.PLP.ligand.clash>
0.0000

> <Gold.PLP.ligand.torsion>
0.1969

> <Gold.PLP.Chemscore.Hbond>
1.3624

> <Gold.PLP.Chemscore.CHOScore>
0.0000

> <Gold.PLP.Chemscore.Metal>
0.0000

> <Gold.Chemscore.Hbonds>
donor molecule, donor type, donor heavy atom, donor atom, acceptor molecule, acceptor atom, score
      P1  H  7989  7998       L1    17  0.95
      P1  H  8011  8017       L1     4  0.12

> <Gold.PLP.Chemscore.Internal.Correction>
0.0995

> <Gold.Rescore>
     Score         DG    S(hbond)    S(metal)    S(lipo)     H(rot)  DE(clash)    DE(int)     intcor
     14.65     -15.34       0.76        0.00      90.97       1.30       0.18       0.51       ----

> <Gold.Chemscore.Fitness>
14.6454

> <Gold.Chemscore.DG>
-15.3404

> <Gold.Chemscore.ZeroCoef>
-5.4800

> <Gold.Chemscore.Hbond>
0.7590

> <Gold.Chemscore.Metal>
0.0000

> <Gold.Chemscore.Lipo>
90.9731

> <Gold.Chemscore.Internal_Hbond>
0.0000

> <Gold.Chemscore.DEClash>
0.1812

> <Gold.Chemscore.DEInternal>
0.5137

> <Gold.Chemscore.Rot>
1.2963

> <Gold.Chemscore.Internal.Correction>
   9.000000E+99

> <Gold.Chemscore.Hbonds>
donor molecule, donor type, donor heavy atom, donor atom, acceptor molecule, acceptor atom, score
      P1  H  7989  7998       L1    17  0.14
      P1  H  8011  8017       L1     4  0.04

> <Gold.Chemscore.Hbond.Weighted>
-2.5350

> <Gold.Chemscore.Metal.Weighted>
-0.0000

> <Gold.Chemscore.Lipo.Weighted>
-10.6438

> <Gold.Chemscore.Internal_Hbond.Weighted>
0.0000

> <Gold.Chemscore.DEClash.Weighted>
0.1812

> <Gold.Chemscore.DEInternal.Weighted>
0.5137

> <Gold.Chemscore.Rot.Weighted>
3.3185

> <Gold.Chemscore.Internal.Correction.Weighted>
   9.000000E+99

> <Gold.Protein.RotatedTorsions>
[ 6907 6896 6895 6894 ] final  -53.22 input  -60.11 | X-H torsion
[ 7974 7965 7964 7962 ] final  -55.62 input  175.53 | X-H torsion
[ 8008 7997 7996 7995 ] final   98.86 input   59.86 | X-H torsion
[ 10167 10162 10161 10158 ] final -101.28 input  -65.29 | X-H torsion
[ 10718 10713 10712 10709 ] final -175.49 input   66.30 | X-H torsion
[ 10763 10752 10751 10750 ] final   82.30 input  -60.55 | X-H torsion
[ 11005 11000 10999 10996 ] final   -3.96 input  -57.11 | X-H torsion

> <Gold.Protein.ActiveResidues>
 VAL166  LYS551  ARG553  GLY616  TRP617  ASP618  TYR619  PRO620  LYS621  CYS622 
 ASP623  PHE694  ASN695  SER759  ASP760  ASP761  ALA762  ILE779  LEU786  VAL792 
 PHE793  MET794  SER795  GLU796  ALA797  LYS798  CYS799  TRP800  GLU811  SER814 

> <Gold.Protein.RotatedAtoms>
  150.8447  134.7751  159.6960 H   0  0  0  0  0  0  0  0  0  0  0  0  # atno 6907 bound_to 6896
  152.4526  134.5357  159.9834 H   0  0  0  0  0  0  0  0  0  0  0  0  # atno 6908 bound_to 6896
  151.5490  133.3382  159.2985 H   0  0  0  0  0  0  0  0  0  0  0  0  # atno 6909 bound_to 6896
  145.8720  140.8209  142.9883 H   0  0  0  0  0  0  0  0  0  0  0  0  # atno 7974 bound_to 7965
  156.1046  140.3237  155.7989 H   0  0  0  0  0  0  0  0  0  0  0  0  # atno 8008 bound_to 7997
  155.4777  140.0551  157.2988 H   0  0  0  0  0  0  0  0  0  0  0  0  # atno 8009 bound_to 7997
  154.4719  140.2015  155.9987 H   0  0  0  0  0  0  0  0  0  0  0  0  # atno 8010 bound_to 7997
  140.2429  143.3526  152.0785 H   0  0  0  0  0  0  0  0  0  0  0  0  # atno 10167 bound_to 10162
  156.8007  130.9551  151.3118 H   0  0  0  0  0  0  0  0  0  0  0  0  # atno 10718 bound_to 10713
  153.1191  135.4733  154.9165 H   0  0  0  0  0  0  0  0  0  0  0  0  # atno 10763 bound_to 10752
  154.7557  135.3118  154.8476 H   0  0  0  0  0  0  0  0  0  0  0  0  # atno 10764 bound_to 10752
  153.9045  135.6871  153.4807 H   0  0  0  0  0  0  0  0  0  0  0  0  # atno 10765 bound_to 10752
  140.6751  133.9202  155.8519 H   0  0  0  0  0  0  0  0  0  0  0  0  # atno 11005 bound_to 11000
  144.6726  140.1254  143.7447 LP  0  0  0  0  0  0  0  0  0  0  0  0  # atno 17320 bound_to 7965
  145.9125  139.2496  143.1429 LP  0  0  0  0  0  0  0  0  0  0  0  0  # atno 17321 bound_to 7965
  139.5071  144.6826  151.5970 LP  0  0  0  0  0  0  0  0  0  0  0  0  # atno 17342 bound_to 10162
  140.6099  143.9455  150.6446 LP  0  0  0  0  0  0  0  0  0  0  0  0  # atno 17343 bound_to 10162
  157.6555  130.8921  149.9720 LP  0  0  0  0  0  0  0  0  0  0  0  0  # atno 17370 bound_to 10713
  156.1103  130.3650  150.0061 LP  0  0  0  0  0  0  0  0  0  0  0  0  # atno 17371 bound_to 10713
  141.0362  134.0687  157.3957 LP  0  0  0  0  0  0  0  0  0  0  0  0  # atno 17394 bound_to 11000
  139.8969  135.0148  156.7075 LP  0  0  0  0  0  0  0  0  0  0  0  0  # atno 17395 bound_to 11000

$$$$
