AV-unprocessed.smi:72|AV-procd|sdf|755|dock2
  -GOLD-   2262017 93D 1   1.00000     0.00000
 Structure written by MMmdl.
 29 30  0  0  0  0  0  0  0  0  1 V2000
  146.3440  133.9579  157.1668 N   0  0  0  0  0  0  0  0  0  0  0  0
  147.3348  134.8995  156.9845 C   0  0  0  0  0  0  0  0  0  0  0  0
  147.2907  135.6251  155.7861 N   0  0  0  0  0  0  0  0  0  0  0  0
  148.2165  136.5139  155.6128 C   0  0  0  0  0  0  0  0  0  0  0  0
  149.2407  136.7425  156.6158 N   0  0  0  0  0  0  0  0  0  0  0  0
  150.3253  137.7799  156.4070 C   0  0  2  0  0  0  0  0  0  0  0  0
  149.7297  139.0364  156.2746 O   0  0  0  0  0  0  0  0  0  0  0  0
  150.4006  139.7693  155.2571 C   0  0  2  0  0  0  0  0  0  0  0  0
  149.5311  140.9310  154.7434 C   0  0  0  0  0  0  0  0  0  0  0  0
  148.4325  140.4335  154.0095 O   0  0  0  0  0  0  0  0  0  0  0  0
  150.8089  138.6953  154.2381 C   0  0  2  0  0  0  0  0  0  0  0  0
  149.7363  138.3865  153.3637 O   0  0  0  0  0  0  0  0  0  0  0  0
  151.1798  137.5241  155.1448 C   0  0  2  0  0  0  0  0  0  0  0  0
  151.0114  136.2579  154.5289 O   0  0  0  0  0  0  0  0  0  0  0  0
  149.2347  135.9588  157.8026 C   0  0  0  0  0  0  0  0  0  0  0  0
  150.1114  136.1122  158.6531 O   0  0  0  0  0  0  0  0  0  0  0  0
  148.2089  135.0163  157.9428 N   0  0  0  0  0  0  0  0  0  0  0  0
  150.9226  137.7925  157.3197 H   0  0  0  0  0  0  0  0  0  0  0  0
  151.3049  140.1787  155.7116 H   0  0  0  0  0  0  0  0  0  0  0  0
  151.6557  139.0187  153.6319 H   0  0  0  0  0  0  0  0  0  0  0  0
  152.2245  137.6239  155.4421 H   0  0  0  0  0  0  0  0  0  0  0  0
  146.2753  133.3762  157.9892 H   0  0  0  0  0  0  0  0  0  0  0  0
  145.6119  133.7827  156.4938 H   0  0  0  0  0  0  0  0  0  0  0  0
  148.2875  137.1355  154.7195 H   0  0  0  0  0  0  0  0  0  0  0  0
  149.1772  141.5628  155.5582 H   0  0  0  0  0  0  0  0  0  0  0  0
  150.1194  141.5686  154.0832 H   0  0  0  0  0  0  0  0  0  0  0  0
  148.6934  140.3387  153.1061 H   0  0  0  0  0  0  0  0  0  0  0  0
  149.6804  139.0660  152.7097 H   0  0  0  0  0  0  0  0  0  0  0  0
  150.6574  136.3898  153.6628 H   0  0  0  0  0  0  0  0  0  0  0  0
  1  2  1  0  0  0  0
  1 22  1  0  0  0  0
  1 23  1  0  0  0  0
  2 17  2  0  0  0  0
  2  3  1  0  0  0  0
  3  4  2  0  0  0  0
  4  5  1  0  0  0  0
  4 24  1  0  0  0  0
  5  6  1  0  0  0  0
  5 15  1  0  0  0  0
  6 18  1  0  0  0  0
  6 13  1  0  0  0  0
  6  7  1  0  0  0  0
  7  8  1  0  0  0  0
  8 19  1  0  0  0  0
  8  9  1  0  0  0  0
  8 11  1  0  0  0  0
  9 10  1  0  0  0  0
  9 25  1  0  0  0  0
  9 26  1  0  0  0  0
 10 27  1  0  0  0  0
 11 20  1  0  0  0  0
 11 12  1  0  0  0  0
 11 13  1  0  0  0  0
 12 28  1  0  0  0  0
 13 21  1  0  0  0  0
 13 14  1  0  0  0  0
 14 29  1  0  0  0  0
 15 16  2  0  0  0  0
 15 17  1  0  0  0  0
M  END
> <s_m_source_file>
AV-unprocessed.smi

> <i_m_source_file_index>
72

> <i_lp_mmshare_version>
43012

> <i_f3d_flags>
0

> <s_epik_input>
W05IMl1jMW5bY0hdbihjKD1PKW4xKVtDQEBIXTJPW0NASF0oW0NIMl1bT0hdKVtDQEBIXShbT0hdKVtDQEhdMltPSF0=

> <s_epik_cmdline>
J2VwaWtfcHl0aG9uJywgJy1waCcsICc3LjAnLCAnLXRuJywgJzgnLCAnLW1hJywgJzIwMCcsICctbWV0YWxfYmluZGluZycsICctaW1hZScsICc8aW5maWxlLm1hZT4nLCAnLW9tYWUnLCAnPG91dGZpbGUubWFlPic=

> <r_lp_tautomer_probability>
4.77166e-05

> <r_epik_Ionization_Penalty>
1.3546

> <r_epik_Ionization_Penalty_Charging>
1.46833e-10

> <r_epik_Ionization_Penalty_Neutral>
1.3546

> <r_epik_State_Penalty>
3.51908

> <r_epik_Charging_Adjusted_Penalty>
3.51908

> <i_epik_Tot_Q>
0

> <i_epik_Tot_abs_Q>
0

> <r_epik_Metal_State_Penalty>
3.44088

> <b_epik_Metal_Only>
1

> <s_epik_Chemistry_Notes>
This compound contains an acetal/aminal-like group ( X-CH(R)-Y where X, Y are N, S, or O) that may be acid/base labile, releasing an aldehyde.

> <s_lp_Force_Field>
OPLS_2005

> <r_lp_Energy>
36.4179

> <b_lp_Chiralities_Consistent>
1

> <s_lp_Variant>
AV-unprocessed.smi:72-93

> <Gold.Version>
5.8.1

> <Gold.Id.Protein>
6NUR|6NUR_protein|mol2

> <Gold.PLP.Fitness>
35.8223

> <Gold.PLP.PLP>
-18.2326

> <Gold.PLP.part.hbond>
-6.6636

> <Gold.PLP.part.metal>
0.0000

> <Gold.PLP.part.buried>
-1.5156

> <Gold.PLP.part.nonpolar>
-9.6110

> <Gold.PLP.part.repulsive>
0.0727

> <Gold.PLP.ligand.clash>
0.0000

> <Gold.PLP.ligand.torsion>
0.0534

> <Gold.PLP.Chemscore.Hbond>
4.9913

> <Gold.PLP.Chemscore.CHOScore>
0.9071

> <Gold.PLP.Chemscore.Metal>
0.0000

> <Gold.Chemscore.Hbonds>
donor molecule, donor type, donor heavy atom, donor atom, acceptor molecule, acceptor atom, score
      L1  H    10    27       P1  7957  0.65
      L1  H    12    28       P1  7957  1.00
      L1  H    14    29       P1  7949  0.19
      P1  H  6896  6907       L1    16  0.88
      P1  H 10752 10764       L1    14  0.89

> <Gold.PLP.Chemscore.Internal.Correction>
0.0016

> <Gold.Rescore>
     Score         DG    S(hbond)    S(metal)    S(lipo)     H(rot)  DE(clash)    DE(int)     intcor
     10.94     -11.16       3.82        0.00      28.21       4.06       0.01       0.20       ----

> <Gold.Chemscore.Fitness>
10.9441

> <Gold.Chemscore.DG>
-11.1560

> <Gold.Chemscore.ZeroCoef>
-5.4800

> <Gold.Chemscore.Hbond>
3.8230

> <Gold.Chemscore.Metal>
0.0000

> <Gold.Chemscore.Lipo>
28.2109

> <Gold.Chemscore.Internal_Hbond>
0.0000

> <Gold.Chemscore.DEClash>
0.0149

> <Gold.Chemscore.DEInternal>
0.1971

> <Gold.Chemscore.Rot>
4.0600

> <Gold.Chemscore.Internal.Correction>
   9.000000E+99

> <Gold.Chemscore.Hbonds>
donor molecule, donor type, donor heavy atom, donor atom, acceptor molecule, acceptor atom, score
      L1  H    10    27       P1  7957  0.65
      L1  H    12    28       P1  7957  0.94
      L1  H    14    29       P1  7949  0.01
      P1  H  6896  6907       L1    16  0.82
      P1  H 10752 10764       L1    14  0.13

> <Gold.Chemscore.Hbond.Weighted>
-12.7690

> <Gold.Chemscore.Metal.Weighted>
-0.0000

> <Gold.Chemscore.Lipo.Weighted>
-3.3007

> <Gold.Chemscore.Internal_Hbond.Weighted>
0.0000

> <Gold.Chemscore.DEClash.Weighted>
0.0149

> <Gold.Chemscore.DEInternal.Weighted>
0.1971

> <Gold.Chemscore.Rot.Weighted>
10.3936

> <Gold.Chemscore.Internal.Correction.Weighted>
   9.000000E+99

> <Gold.Protein.RotatedTorsions>
[ 6907 6896 6895 6894 ] final  -70.54 input  -60.11 | X-H torsion
[ 7974 7965 7964 7962 ] final  132.78 input  175.53 | X-H torsion
[ 8008 7997 7996 7995 ] final   33.10 input   59.86 | X-H torsion
[ 10167 10162 10161 10158 ] final  -49.35 input  -65.29 | X-H torsion
[ 10718 10713 10712 10709 ] final -156.14 input   66.30 | X-H torsion
[ 10763 10752 10751 10750 ] final  -86.29 input  -60.55 | X-H torsion
[ 11005 11000 10999 10996 ] final -134.17 input  -57.11 | X-H torsion

> <Gold.Protein.ActiveResidues>
 VAL166  LYS551  ARG553  GLY616  TRP617  ASP618  TYR619  PRO620  LYS621  CYS622 
 ASP623  PHE694  ASN695  SER759  ASP760  ASP761  ALA762  ILE779  LEU786  VAL792 
 PHE793  MET794  SER795  GLU796  ALA797  LYS798  CYS799  TRP800  GLU811  SER814 

> <Gold.Protein.RotatedAtoms>
  150.7253  134.5437  159.5759 H   0  0  0  0  0  0  0  0  0  0  0  0  # atno 6907 bound_to 6896
  152.2942  134.7684  160.0380 H   0  0  0  0  0  0  0  0  0  0  0  0  # atno 6908 bound_to 6896
  151.8287  133.3370  159.3643 H   0  0  0  0  0  0  0  0  0  0  0  0  # atno 6909 bound_to 6896
  144.9933  139.4384  143.5328 H   0  0  0  0  0  0  0  0  0  0  0  0  # atno 7974 bound_to 7965
  155.1331  140.3259  155.4469 H   0  0  0  0  0  0  0  0  0  0  0  0  # atno 8008 bound_to 7997
  156.2628  140.2007  156.6399 H   0  0  0  0  0  0  0  0  0  0  0  0  # atno 8009 bound_to 7997
  154.6598  140.0548  157.0035 H   0  0  0  0  0  0  0  0  0  0  0  0  # atno 8010 bound_to 7997
  140.6689  143.2701  151.4202 H   0  0  0  0  0  0  0  0  0  0  0  0  # atno 10167 bound_to 10162
  156.5224  130.8484  151.2687 H   0  0  0  0  0  0  0  0  0  0  0  0  # atno 10718 bound_to 10713
  154.6207  135.5454  153.7573 H   0  0  0  0  0  0  0  0  0  0  0  0  # atno 10763 bound_to 10752
  153.0237  135.6412  154.1444 H   0  0  0  0  0  0  0  0  0  0  0  0  # atno 10764 bound_to 10752
  154.1378  135.2910  155.3148 H   0  0  0  0  0  0  0  0  0  0  0  0  # atno 10765 bound_to 10752
  140.9014  134.1685  157.4457 H   0  0  0  0  0  0  0  0  0  0  0  0  # atno 11005 bound_to 11000
  146.3436  139.9278  142.8757 LP  0  0  0  0  0  0  0  0  0  0  0  0  # atno 17320 bound_to 7965
  145.2254  140.9952  143.4021 LP  0  0  0  0  0  0  0  0  0  0  0  0  # atno 17321 bound_to 7965
  139.5949  144.1419  152.2132 LP  0  0  0  0  0  0  0  0  0  0  0  0  # atno 17342 bound_to 10162
  140.0785  144.5720  150.7139 LP  0  0  0  0  0  0  0  0  0  0  0  0  # atno 17343 bound_to 10162
  157.7435  130.9913  150.2595 LP  0  0  0  0  0  0  0  0  0  0  0  0  # atno 17370 bound_to 10713
  156.3137  130.3775  149.7638 LP  0  0  0  0  0  0  0  0  0  0  0  0  # atno 17371 bound_to 10713
  139.8743  134.9899  156.5480 LP  0  0  0  0  0  0  0  0  0  0  0  0  # atno 17394 bound_to 11000
  140.8225  133.8342  155.8909 LP  0  0  0  0  0  0  0  0  0  0  0  0  # atno 17395 bound_to 11000

$$$$
