AV-unprocessed.smi:1493|AV-procd|sdf|6050|dock2
  -GOLD-   22720 6163D 1   1.00000     0.00000
 Structure written by MMmdl.
 34 34  0  0  0  0  0  0  0  0  1 V2000
  153.2595  142.9019  162.8912 C   0  0  0  0  0  0  0  0  0  0  0  0
  152.4897  143.0404  161.5735 C   0  0  0  0  0  0  0  0  0  0  0  0
  153.1292  142.2309  160.4313 C   0  0  0  0  0  0  0  0  0  0  0  0
  152.8277  142.7869  159.0263 C   0  0  2  0  0  0  0  0  0  0  0  0
  152.4953  144.2873  159.0753 C   0  0  0  0  0  0  0  0  0  0  0  0
  151.7269  142.0428  158.4223 N   0  0  0  0  0  0  0  0  0  0  0  0
  151.7832  140.7819  157.9606 C   0  0  0  0  0  0  0  0  0  0  0  0
  152.8157  140.1126  157.9738 O   0  0  0  0  0  0  0  0  0  0  0  0
  150.4920  140.1539  157.4068 C   0  0  0  0  0  0  0  0  0  0  0  0
  150.6985  139.0106  156.5023 N   0  0  0  0  0  0  0  0  0  0  0  0
  150.8649  137.7988  157.1560 N   0  0  0  0  0  0  0  0  0  0  0  0
  151.0347  136.7161  156.4755 C   0  0  0  0  0  0  0  0  0  0  0  0
  151.1925  135.5380  157.1633 O   0  0  0  0  0  0  0  0  0  0  0  0
  151.0591  136.7375  155.0294 C   0  0  0  0  0  0  0  0  0  0  0  0
  150.8979  137.9228  154.4013 C   0  0  0  0  0  0  0  0  0  0  0  0
  150.6988  139.1692  155.1429 C   0  0  0  0  0  0  0  0  0  0  0  0
  150.5337  140.2592  154.5962 O   0  0  0  0  0  0  0  0  0  0  0  0
  151.9824  135.6457  157.6702 H   0  0  0  0  0  0  0  0  0  0  0  0
  152.7853  143.4847  163.6811 H   0  0  0  0  0  0  0  0  0  0  0  0
  154.2855  143.2557  162.7866 H   0  0  0  0  0  0  0  0  0  0  0  0
  153.2941  141.8627  163.2196 H   0  0  0  0  0  0  0  0  0  0  0  0
  151.4606  142.7120  161.7230 H   0  0  0  0  0  0  0  0  0  0  0  0
  152.4407  144.0962  161.3042 H   0  0  0  0  0  0  0  0  0  0  0  0
  154.2088  142.1859  160.5825 H   0  0  0  0  0  0  0  0  0  0  0  0
  152.7731  141.2012  160.4865 H   0  0  0  0  0  0  0  0  0  0  0  0
  153.7202  142.6520  158.4125 H   0  0  0  0  0  0  0  0  0  0  0  0
  153.3150  144.8554  159.5157 H   0  0  0  0  0  0  0  0  0  0  0  0
  151.6015  144.4769  159.6707 H   0  0  0  0  0  0  0  0  0  0  0  0
  152.3211  144.6893  158.0767 H   0  0  0  0  0  0  0  0  0  0  0  0
  150.8378  142.5185  158.3692 H   0  0  0  0  0  0  0  0  0  0  0  0
  149.8583  139.8658  158.2472 H   0  0  0  0  0  0  0  0  0  0  0  0
  149.9362  140.9355  156.8860 H   0  0  0  0  0  0  0  0  0  0  0  0
  151.2042  135.8234  154.4729 H   0  0  0  0  0  0  0  0  0  0  0  0
  150.9143  137.9537  153.3218 H   0  0  0  0  0  0  0  0  0  0  0  0
  1  2  1  0  0  0  0
  1 19  1  0  0  0  0
  1 20  1  0  0  0  0
  1 21  1  0  0  0  0
  2  3  1  0  0  0  0
  2 22  1  0  0  0  0
  2 23  1  0  0  0  0
  3  4  1  0  0  0  0
  3 24  1  0  0  0  0
  3 25  1  0  0  0  0
  4  5  1  0  0  0  0
  4  6  1  0  0  0  0
  4 26  1  0  0  0  0
  5 27  1  0  0  0  0
  5 28  1  0  0  0  0
  5 29  1  0  0  0  0
  6  7  1  0  0  0  0
  6 30  1  0  0  0  0
  7  8  2  0  0  0  0
  7  9  1  0  0  0  0
  9 31  1  0  0  0  0
  9 32  1  0  0  0  0
  9 10  1  0  0  0  0
 10 11  1  0  0  0  0
 10 16  1  0  0  0  0
 11 12  2  0  0  0  0
 12 13  1  0  0  0  0
 12 14  1  0  0  0  0
 13 18  1  0  0  0  0
 14 33  1  0  0  0  0
 14 15  2  0  0  0  0
 15 34  1  0  0  0  0
 15 16  1  0  0  0  0
 16 17  2  0  0  0  0
M  END
> <s_m_source_file>
AV-unprocessed.smi

> <i_m_source_file_index>
1493

> <i_lp_mmshare_version>
43012

> <i_f3d_flags>
0

> <s_epik_input>
W0NIM11bQ0gyXVtDSDJdW0NASF0oW0NIM10pW05IXUMoPU8pW0NIMl1uMVtuSF1jKD1PKVtjSF1bY0hdYzE9Tw==

> <s_epik_cmdline>
J2VwaWtfcHl0aG9uJywgJy1waCcsICc3LjAnLCAnLXRuJywgJzgnLCAnLW1hJywgJzIwMCcsICctbWV0YWxfYmluZGluZycsICctaW1hZScsICc8aW5maWxlLm1hZT4nLCAnLW9tYWUnLCAnPG91dGZpbGUubWFlPic=

> <r_lp_tautomer_probability>
0.9996

> <r_epik_Ionization_Penalty>
2.12047

> <r_epik_Ionization_Penalty_Charging>
3.81971e-08

> <r_epik_Ionization_Penalty_Neutral>
2.12047

> <r_epik_State_Penalty>
1.69728

> <r_epik_Charging_Adjusted_Penalty>
1.69728

> <i_epik_Tot_Q>
0

> <i_epik_Tot_abs_Q>
0

> <r_epik_Metal_State_Penalty>
1.69728

> <b_epik_Metal_Only>
0

> <s_lp_Force_Field>
OPLS_2005

> <r_lp_Energy>
13.2358

> <b_lp_Chiralities_Consistent>
1

> <s_lp_Variant>
AV-unprocessed.smi:1493-3

> <Gold.Version>
5.8.1

> <Gold.Id.Protein>
6NUR|6NUR_protein|mol2

> <Gold.PLP.Fitness>
40.1127

> <Gold.PLP.PLP>
-37.0189

> <Gold.PLP.part.hbond>
-2.0613

> <Gold.PLP.part.metal>
0.0000

> <Gold.PLP.part.buried>
-4.3242

> <Gold.PLP.part.nonpolar>
-29.8193

> <Gold.PLP.part.repulsive>
0.1748

> <Gold.PLP.ligand.clash>
0.0000

> <Gold.PLP.ligand.torsion>
1.4520

> <Gold.PLP.Chemscore.Hbond>
1.9920

> <Gold.PLP.Chemscore.CHOScore>
0.0000

> <Gold.PLP.Chemscore.Metal>
0.0000

> <Gold.Chemscore.Hbonds>
donor molecule, donor type, donor heavy atom, donor atom, acceptor molecule, acceptor atom, score
      P1  H  7989  7998       L1    17  1.00
      P1  H  7997  8010       L1     8  1.00

> <Gold.PLP.Chemscore.Internal.Correction>
0.0218

> <Gold.Rescore>
     Score         DG    S(hbond)    S(metal)    S(lipo)     H(rot)  DE(clash)    DE(int)     intcor
     12.73     -14.01       1.94        0.00      78.27       2.78       0.00       1.28       ----

> <Gold.Chemscore.Fitness>
12.7296

> <Gold.Chemscore.DG>
-14.0106

> <Gold.Chemscore.ZeroCoef>
-5.4800

> <Gold.Chemscore.Hbond>
1.9419

> <Gold.Chemscore.Metal>
0.0000

> <Gold.Chemscore.Lipo>
78.2698

> <Gold.Chemscore.Internal_Hbond>
0.0000

> <Gold.Chemscore.DEClash>
0.0030

> <Gold.Chemscore.DEInternal>
1.2780

> <Gold.Chemscore.Rot>
2.7785

> <Gold.Chemscore.Internal.Correction>
   9.000000E+99

> <Gold.Chemscore.Hbonds>
donor molecule, donor type, donor heavy atom, donor atom, acceptor molecule, acceptor atom, score
      P1  H  7989  7998       L1    17  0.98
      P1  H  7997  8010       L1     8  0.93

> <Gold.Chemscore.Hbond.Weighted>
-6.4860

> <Gold.Chemscore.Metal.Weighted>
-0.0000

> <Gold.Chemscore.Lipo.Weighted>
-9.1576

> <Gold.Chemscore.Internal_Hbond.Weighted>
0.0000

> <Gold.Chemscore.DEClash.Weighted>
0.0030

> <Gold.Chemscore.DEInternal.Weighted>
1.2780

> <Gold.Chemscore.Rot.Weighted>
7.1129

> <Gold.Chemscore.Internal.Correction.Weighted>
   9.000000E+99

> <Gold.Protein.RotatedTorsions>
[ 6907 6896 6895 6894 ] final  -40.42 input  -60.11 | X-H torsion
[ 7974 7965 7964 7962 ] final  -68.37 input  175.53 | X-H torsion
[ 8008 7997 7996 7995 ] final   44.85 input   59.86 | X-H torsion
[ 10167 10162 10161 10158 ] final  -24.68 input  -65.29 | X-H torsion
[ 10718 10713 10712 10709 ] final  141.67 input   66.30 | X-H torsion
[ 10763 10752 10751 10750 ] final -177.33 input  -60.55 | X-H torsion
[ 11005 11000 10999 10996 ] final   -6.87 input  -57.11 | X-H torsion

> <Gold.Protein.ActiveResidues>
 VAL166  LYS551  ARG553  GLY616  TRP617  ASP618  TYR619  PRO620  LYS621  CYS622 
 ASP623  PHE694  ASN695  SER759  ASP760  ASP761  ALA762  ILE779  LEU786  VAL792 
 PHE793  MET794  SER795  GLU796  ALA797  LYS798  CYS799  TRP800  GLU811  SER814 

> <Gold.Protein.RotatedAtoms>
  150.9787  134.9146  159.7830 H   0  0  0  0  0  0  0  0  0  0  0  0  # atno 6907 bound_to 6896
  152.5214  134.3441  159.9237 H   0  0  0  0  0  0  0  0  0  0  0  0  # atno 6908 bound_to 6896
  151.3448  133.3907  159.2709 H   0  0  0  0  0  0  0  0  0  0  0  0  # atno 6909 bound_to 6896
  145.7173  140.9053  143.0649 H   0  0  0  0  0  0  0  0  0  0  0  0  # atno 7974 bound_to 7965
  155.3261  140.3400  155.4240 H   0  0  0  0  0  0  0  0  0  0  0  0  # atno 8008 bound_to 7997
  156.1885  140.1689  156.8175 H   0  0  0  0  0  0  0  0  0  0  0  0  # atno 8009 bound_to 7997
  154.5414  140.0724  156.8499 H   0  0  0  0  0  0  0  0  0  0  0  0  # atno 8010 bound_to 7997
  140.7288  143.4331  151.0770 H   0  0  0  0  0  0  0  0  0  0  0  0  # atno 10167 bound_to 10162
  157.3893  131.1002  151.0662 H   0  0  0  0  0  0  0  0  0  0  0  0  # atno 10718 bound_to 10713
  154.5614  135.2820  155.0916 H   0  0  0  0  0  0  0  0  0  0  0  0  # atno 10763 bound_to 10752
  154.2323  135.6372  153.5183 H   0  0  0  0  0  0  0  0  0  0  0  0  # atno 10764 bound_to 10752
  153.0030  135.5540  154.6209 H   0  0  0  0  0  0  0  0  0  0  0  0  # atno 10765 bound_to 10752
  140.7066  133.8944  155.8721 H   0  0  0  0  0  0  0  0  0  0  0  0  # atno 11005 bound_to 11000
  144.6926  139.9155  143.7465 LP  0  0  0  0  0  0  0  0  0  0  0  0  # atno 17320 bound_to 7965
  146.0658  139.3649  143.0553 LP  0  0  0  0  0  0  0  0  0  0  0  0  # atno 17321 bound_to 7965
  139.7991  143.8110  152.3161 LP  0  0  0  0  0  0  0  0  0  0  0  0  # atno 17342 bound_to 10162
  139.8120  144.7332  150.9685 LP  0  0  0  0  0  0  0  0  0  0  0  0  # atno 17343 bound_to 10162
  157.1701  130.6264  149.5638 LP  0  0  0  0  0  0  0  0  0  0  0  0  # atno 17370 bound_to 10713
  155.9794  130.4788  150.6715 LP  0  0  0  0  0  0  0  0  0  0  0  0  # atno 17371 bound_to 10713
  141.0119  134.1008  157.4212 LP  0  0  0  0  0  0  0  0  0  0  0  0  # atno 17394 bound_to 11000
  139.8882  135.0096  156.6609 LP  0  0  0  0  0  0  0  0  0  0  0  0  # atno 17395 bound_to 11000

$$$$
