AV-unprocessed.smi:2727|AV-procd|sdf|10522|dock3
  -GOLD-   2272014563D 1   1.00000     0.00000
 Structure written by MMmdl.
 40 41  0  0  0  0  0  0  0  0  1 V2000
  141.3066  139.0381  157.3727 O   0  0  0  0  0  0  0  0  0  0  0  0
  141.4324  137.8256  157.1716 C   0  0  0  0  0  0  0  0  0  0  0  0
  142.4652  137.1361  157.6797 N   0  0  0  0  0  0  0  0  0  0  0  0
  143.5273  137.6956  158.5094 C   0  0  0  0  0  0  0  0  0  0  0  0
  144.1250  136.6355  159.4569 C   0  0  0  0  0  0  0  0  0  0  0  0
  145.2674  137.1695  160.3400 C   0  0  0  0  0  0  0  0  0  0  0  0
  146.1217  137.9012  159.8360 O   0  0  0  0  0  0  0  0  0  0  0  0
  145.3105  136.8135  161.6477 N   0  0  0  0  0  0  0  0  0  0  0  0
  146.4189  137.2255  162.5175 C   0  0  0  0  0  0  0  0  0  0  0  0
  147.6442  136.3000  162.3721 C   0  0  0  0  0  0  0  0  0  0  0  0
  147.3371  134.8074  162.1190 C   0  0  0  0  0  0  0  0  0  0  0  0
  146.1701  134.2249  162.9407 C   0  0  0  0  0  0  0  0  0  0  0  0
  144.7825  134.4738  162.3112 C   0  0  0  0  0  0  0  0  0  0  0  0
  144.3309  135.9463  162.3179 C   0  0  0  0  0  0  0  0  0  0  0  0
  140.6051  136.9787  156.4482 N   0  0  0  0  0  0  0  0  0  0  0  0
  140.2525  137.3010  155.2420 C   0  0  0  0  0  0  0  0  0  0  0  0
  139.4386  136.5844  154.3789 N   0  0  0  0  0  0  0  0  0  0  0  0
  139.3243  137.2928  153.2146 C   0  0  0  0  0  0  0  0  0  0  0  0
  140.0379  138.4082  153.3371 C   0  0  0  0  0  0  0  0  0  0  0  0
  140.6195  138.4434  154.5683 O   0  0  0  0  0  0  0  0  0  0  0  0
  142.5136  136.1467  157.4831 H   0  0  0  0  0  0  0  0  0  0  0  0
  144.3004  138.1300  157.8728 H   0  0  0  0  0  0  0  0  0  0  0  0
  143.1028  138.5175  159.0868 H   0  0  0  0  0  0  0  0  0  0  0  0
  143.3387  136.2377  160.0993 H   0  0  0  0  0  0  0  0  0  0  0  0
  144.5036  135.8045  158.8624 H   0  0  0  0  0  0  0  0  0  0  0  0
  146.7063  138.2597  162.3211 H   0  0  0  0  0  0  0  0  0  0  0  0
  146.1020  137.2240  163.5609 H   0  0  0  0  0  0  0  0  0  0  0  0
  148.2694  136.6606  161.5547 H   0  0  0  0  0  0  0  0  0  0  0  0
  148.2546  136.3955  163.2705 H   0  0  0  0  0  0  0  0  0  0  0  0
  147.1431  134.6475  161.0574 H   0  0  0  0  0  0  0  0  0  0  0  0
  148.2417  134.2379  162.3345 H   0  0  0  0  0  0  0  0  0  0  0  0
  146.3114  133.1456  163.0077 H   0  0  0  0  0  0  0  0  0  0  0  0
  146.2023  134.5927  163.9668 H   0  0  0  0  0  0  0  0  0  0  0  0
  144.7742  134.0869  161.2920 H   0  0  0  0  0  0  0  0  0  0  0  0
  144.0422  133.8859  162.8546 H   0  0  0  0  0  0  0  0  0  0  0  0
  144.1794  136.2724  163.3474 H   0  0  0  0  0  0  0  0  0  0  0  0
  143.3434  136.0323  161.8653 H   0  0  0  0  0  0  0  0  0  0  0  0
  138.9826  135.6978  154.5397 H   0  0  0  0  0  0  0  0  0  0  0  0
  138.7267  136.9124  152.3997 H   0  0  0  0  0  0  0  0  0  0  0  0
  140.2225  139.2383  152.6715 H   0  0  0  0  0  0  0  0  0  0  0  0
  1  2  2  0  0  0  0
  2 15  1  0  0  0  0
  2  3  1  0  0  0  0
  3  4  1  0  0  0  0
  3 21  1  0  0  0  0
  4  5  1  0  0  0  0
  4 22  1  0  0  0  0
  4 23  1  0  0  0  0
  5  6  1  0  0  0  0
  5 24  1  0  0  0  0
  5 25  1  0  0  0  0
  6  7  2  0  0  0  0
  6  8  1  0  0  0  0
  8 14  1  0  0  0  0
  8  9  1  0  0  0  0
  9 10  1  0  0  0  0
  9 26  1  0  0  0  0
  9 27  1  0  0  0  0
 10 11  1  0  0  0  0
 10 28  1  0  0  0  0
 10 29  1  0  0  0  0
 11 12  1  0  0  0  0
 11 30  1  0  0  0  0
 11 31  1  0  0  0  0
 12 13  1  0  0  0  0
 12 32  1  0  0  0  0
 12 33  1  0  0  0  0
 13 14  1  0  0  0  0
 13 34  1  0  0  0  0
 13 35  1  0  0  0  0
 14 36  1  0  0  0  0
 14 37  1  0  0  0  0
 15 16  2  0  0  0  0
 16 20  1  0  0  0  0
 16 17  1  0  0  0  0
 17 38  1  0  0  0  0
 17 18  1  0  0  0  0
 18 39  1  0  0  0  0
 18 19  2  0  0  0  0
 19 40  1  0  0  0  0
 19 20  1  0  0  0  0
M  END
> <s_m_source_file>
AV-unprocessed.smi

> <i_m_source_file_index>
2727

> <i_lp_mmshare_version>
43012

> <i_f3d_flags>
0

> <s_epik_input>
bzFbY0hdW2NIXW5jMVtOSF1DKD1PKVtOSF1bQ0gyXVtDSDJdQyg9TylOMltDSDJdW0NIMl1bQ0gyXVtDSDJdW0NIMl1bQ0gyXTI=

> <s_epik_cmdline>
J2VwaWtfcHl0aG9uJywgJy1waCcsICc3LjAnLCAnLXRuJywgJzgnLCAnLW1hJywgJzIwMCcsICctbWV0YWxfYmluZGluZycsICctaW1hZScsICc8aW5maWxlLm1hZT4nLCAnLW9tYWUnLCAnPG91dGZpbGUubWFlPic=

> <r_lp_tautomer_probability>
0.107061

> <r_epik_Ionization_Penalty>
0.376272

> <r_epik_Ionization_Penalty_Charging>
0.375918

> <r_epik_Ionization_Penalty_Neutral>
0.000353756

> <r_epik_State_Penalty>
2.48665

> <r_epik_Charging_Adjusted_Penalty>
2.86256

> <i_epik_Tot_Q>
0

> <i_epik_Tot_abs_Q>
0

> <r_epik_Metal_State_Penalty>
4.1171

> <b_epik_Metal_Only>
0

> <s_lp_Force_Field>
OPLS_2005

> <r_lp_Energy>
48.3689

> <b_lp_Chiralities_Consistent>
1

> <s_lp_Variant>
AV-unprocessed.smi:2727-2

> <Gold.Version>
5.8.1

> <Gold.Id.Protein>
6NUR|6NUR_protein|mol2

> <Gold.PLP.Fitness>
38.0086

> <Gold.PLP.PLP>
-28.8492

> <Gold.PLP.part.hbond>
-2.0000

> <Gold.PLP.part.metal>
0.0000

> <Gold.PLP.part.buried>
-3.2459

> <Gold.PLP.part.nonpolar>
-24.2824

> <Gold.PLP.part.repulsive>
0.1654

> <Gold.PLP.ligand.clash>
0.0000

> <Gold.PLP.ligand.torsion>
0.8661

> <Gold.PLP.Chemscore.Hbond>
1.6480

> <Gold.PLP.Chemscore.CHOScore>
1.9763

> <Gold.PLP.Chemscore.Metal>
0.0000

> <Gold.Chemscore.Hbonds>
donor molecule, donor type, donor heavy atom, donor atom, acceptor molecule, acceptor atom, score
      P1  H  6934  6947       L1     7  0.93
      P1  H 11000 11005       L1    15  0.59
      L1  C    18    39       P1 10187  1.00
      L1  C    19    40       P1 10160  1.00

> <Gold.PLP.Chemscore.Internal.Correction>
0.0186

> <Gold.Rescore>
     Score         DG    S(hbond)    S(metal)    S(lipo)     H(rot)  DE(clash)    DE(int)     intcor
     12.75     -13.77       1.58        0.00      63.05       1.70       0.00       1.01       ----

> <Gold.Chemscore.Fitness>
12.7543

> <Gold.Chemscore.DG>
-13.7660

> <Gold.Chemscore.ZeroCoef>
-5.4800

> <Gold.Chemscore.Hbond>
1.5772

> <Gold.Chemscore.Metal>
0.0000

> <Gold.Chemscore.Lipo>
63.0455

> <Gold.Chemscore.Internal_Hbond>
0.0000

> <Gold.Chemscore.DEClash>
0.0000

> <Gold.Chemscore.DEInternal>
1.0116

> <Gold.Chemscore.Rot>
1.7025

> <Gold.Chemscore.Internal.Correction>
   9.000000E+99

> <Gold.Chemscore.Hbonds>
donor molecule, donor type, donor heavy atom, donor atom, acceptor molecule, acceptor atom, score
      P1  H  6934  6947       L1     7  0.88
      P1  H 11000 11005       L1    15  0.29

> <Gold.Chemscore.Hbond.Weighted>
-5.2680

> <Gold.Chemscore.Metal.Weighted>
-0.0000

> <Gold.Chemscore.Lipo.Weighted>
-7.3763

> <Gold.Chemscore.Internal_Hbond.Weighted>
0.0000

> <Gold.Chemscore.DEClash.Weighted>
0.0000

> <Gold.Chemscore.DEInternal.Weighted>
1.0116

> <Gold.Chemscore.Rot.Weighted>
4.3584

> <Gold.Chemscore.Internal.Correction.Weighted>
   9.000000E+99

> <Gold.Protein.RotatedTorsions>
[ 6907 6896 6895 6894 ] final   -8.79 input  -60.11 | X-H torsion
[ 7974 7965 7964 7962 ] final -100.11 input  175.53 | X-H torsion
[ 8008 7997 7996 7995 ] final   35.34 input   59.86 | X-H torsion
[ 10167 10162 10161 10158 ] final   74.69 input  -65.29 | X-H torsion
[ 10718 10713 10712 10709 ] final  -46.66 input   66.30 | X-H torsion
[ 10763 10752 10751 10750 ] final -107.87 input  -60.55 | X-H torsion
[ 11005 11000 10999 10996 ] final  115.42 input  -57.11 | X-H torsion

> <Gold.Protein.ActiveResidues>
 VAL166  LYS551  ARG553  GLY616  TRP617  ASP618  TYR619  PRO620  LYS621  CYS622 
 ASP623  PHE694  ASN695  SER759  ASP760  ASP761  ALA762  ILE779  LEU786  VAL792 
 PHE793  MET794  SER795  GLU796  ALA797  LYS798  CYS799  TRP800  GLU811  SER814 

> <Gold.Protein.RotatedAtoms>
  151.4281  135.1006  159.9633 H   0  0  0  0  0  0  0  0  0  0  0  0  # atno 6907 bound_to 6896
  152.4965  133.8644  159.7277 H   0  0  0  0  0  0  0  0  0  0  0  0  # atno 6908 bound_to 6896
  150.9175  133.6863  159.2868 H   0  0  0  0  0  0  0  0  0  0  0  0  # atno 6909 bound_to 6896
  145.2988  140.9372  143.2835 H   0  0  0  0  0  0  0  0  0  0  0  0  # atno 7974 bound_to 7965
  155.1695  140.3290  155.4395 H   0  0  0  0  0  0  0  0  0  0  0  0  # atno 8008 bound_to 7997
  156.2515  140.1946  156.6749 H   0  0  0  0  0  0  0  0  0  0  0  0  # atno 8009 bound_to 7997
  154.6347  140.0578  156.9761 H   0  0  0  0  0  0  0  0  0  0  0  0  # atno 8010 bound_to 7997
  140.0110  144.5614  150.7658 H   0  0  0  0  0  0  0  0  0  0  0  0  # atno 10167 bound_to 10162
  156.2160  130.4163  149.9053 H   0  0  0  0  0  0  0  0  0  0  0  0  # atno 10718 bound_to 10713
  154.8101  135.4659  154.0495 H   0  0  0  0  0  0  0  0  0  0  0  0  # atno 10763 bound_to 10752
  153.1932  135.6858  153.8332 H   0  0  0  0  0  0  0  0  0  0  0  0  # atno 10764 bound_to 10752
  153.7843  135.3252  155.3347 H   0  0  0  0  0  0  0  0  0  0  0  0  # atno 10765 bound_to 10752
  139.9009  134.9583  156.7042 H   0  0  0  0  0  0  0  0  0  0  0  0  # atno 11005 bound_to 11000
  144.9110  139.4528  143.6587 LP  0  0  0  0  0  0  0  0  0  0  0  0  # atno 17320 bound_to 7965
  146.3159  139.7919  142.8984 LP  0  0  0  0  0  0  0  0  0  0  0  0  # atno 17321 bound_to 7965
  140.7381  143.2774  151.3700 LP  0  0  0  0  0  0  0  0  0  0  0  0  # atno 17342 bound_to 10162
  139.6205  144.0917  152.2386 LP  0  0  0  0  0  0  0  0  0  0  0  0  # atno 17343 bound_to 10162
  156.6715  130.8822  151.3563 LP  0  0  0  0  0  0  0  0  0  0  0  0  # atno 17370 bound_to 10713
  157.7063  130.9389  150.0943 LP  0  0  0  0  0  0  0  0  0  0  0  0  # atno 17371 bound_to 10713
  140.7126  133.9210  155.8094 LP  0  0  0  0  0  0  0  0  0  0  0  0  # atno 17394 bound_to 11000
  141.0288  134.0785  157.4037 LP  0  0  0  0  0  0  0  0  0  0  0  0  # atno 17395 bound_to 11000

$$$$
