AV-unprocessed.smi:2853|AV-procd|sdf|10974|dock2
  -GOLD-   2272015423D 1   1.00000     0.00000
 Structure written by MMmdl.
 43 44  0  0  0  0  0  0  0  0  1 V2000
  151.4667  139.3809  156.8493 C   0  0  0  0  0  0  0  0  0  0  0  0
  150.8144  140.6510  157.2751 C   0  0  0  0  0  0  0  0  0  0  0  0
  151.4773  141.7831  157.5053 N   0  0  0  0  0  0  0  0  0  0  0  0
  150.6387  142.8332  157.8908 C   0  0  0  0  0  0  0  0  0  0  0  0
  151.2495  144.1743  158.1916 C   0  0  0  0  0  0  0  0  0  0  0  0
  151.6723  144.3394  159.6663 C   0  0  0  0  0  0  0  0  0  0  0  0
  152.0361  145.7928  160.0163 C   0  0  0  0  0  0  0  0  0  0  0  0
  152.8310  143.3924  160.0112 C   0  0  0  0  0  0  0  0  0  0  0  0
  149.3051  142.4932  157.9648 C   0  0  0  0  0  0  0  0  0  0  0  0
  148.3105  143.3493  158.3200 N   0  0  0  0  0  0  0  0  0  0  0  0
  147.1700  143.0973  158.9848 C   0  0  0  0  0  0  0  0  0  0  0  0
  146.8180  141.9967  159.4079 O   0  0  0  0  0  0  0  0  0  0  0  0
  146.4563  144.2246  159.1449 N   0  0  0  0  0  0  0  0  0  0  0  0
  145.1687  144.4047  159.8294 C   0  0  2  0  0  0  0  0  0  0  0  0
  144.7076  145.8506  159.5686 C   0  0  0  0  0  0  0  0  0  0  0  0
  145.2493  144.1312  161.3415 C   0  0  0  0  0  0  0  0  0  0  0  0
  144.3147  142.9431  161.5607 C   0  0  0  0  0  0  0  0  0  0  0  0
  143.3694  143.0694  160.5128 O   0  0  0  0  0  0  0  0  0  0  0  0
  144.0986  143.4036  159.3427 C   0  0  0  0  0  0  0  0  0  0  0  0
  149.0852  140.8067  157.5241 S   0  0  0  0  0  0  0  0  0  0  0  0
  152.5525  139.4787  156.8743 H   0  0  0  0  0  0  0  0  0  0  0  0
  151.1606  139.1280  155.8341 H   0  0  0  0  0  0  0  0  0  0  0  0
  151.1737  138.5702  157.5164 H   0  0  0  0  0  0  0  0  0  0  0  0
  152.1229  144.3174  157.5539 H   0  0  0  0  0  0  0  0  0  0  0  0
  150.5623  144.9758  157.9183 H   0  0  0  0  0  0  0  0  0  0  0  0
  150.8267  144.0504  160.2920 H   0  0  0  0  0  0  0  0  0  0  0  0
  152.8533  146.1578  159.3933 H   0  0  0  0  0  0  0  0  0  0  0  0
  152.3482  145.8789  161.0573 H   0  0  0  0  0  0  0  0  0  0  0  0
  151.1873  146.4629  159.8790 H   0  0  0  0  0  0  0  0  0  0  0  0
  153.7170  143.6188  159.4176 H   0  0  0  0  0  0  0  0  0  0  0  0
  152.5601  142.3530  159.8230 H   0  0  0  0  0  0  0  0  0  0  0  0
  153.1056  143.4729  161.0633 H   0  0  0  0  0  0  0  0  0  0  0  0
  148.4709  144.3149  158.0742 H   0  0  0  0  0  0  0  0  0  0  0  0
  146.8534  145.0655  158.7528 H   0  0  0  0  0  0  0  0  0  0  0  0
  143.7395  146.0483  160.0305 H   0  0  0  0  0  0  0  0  0  0  0  0
  144.6060  146.0480  158.5008 H   0  0  0  0  0  0  0  0  0  0  0  0
  145.4192  146.5728  159.9707 H   0  0  0  0  0  0  0  0  0  0  0  0
  146.2565  143.9265  161.7063 H   0  0  0  0  0  0  0  0  0  0  0  0
  144.8798  144.9859  161.9095 H   0  0  0  0  0  0  0  0  0  0  0  0
  144.8504  141.9980  161.4586 H   0  0  0  0  0  0  0  0  0  0  0  0
  143.8353  142.9602  162.5396 H   0  0  0  0  0  0  0  0  0  0  0  0
  143.4409  143.8176  158.5779 H   0  0  0  0  0  0  0  0  0  0  0  0
  144.5298  142.4887  158.9353 H   0  0  0  0  0  0  0  0  0  0  0  0
  1  2  1  0  0  0  0
  1 21  1  0  0  0  0
  1 22  1  0  0  0  0
  1 23  1  0  0  0  0
  2 20  1  0  0  0  0
  2  3  2  0  0  0  0
  3  4  1  0  0  0  0
  4  5  1  0  0  0  0
  4  9  2  0  0  0  0
  5  6  1  0  0  0  0
  5 24  1  0  0  0  0
  5 25  1  0  0  0  0
  6  7  1  0  0  0  0
  6  8  1  0  0  0  0
  6 26  1  0  0  0  0
  7 27  1  0  0  0  0
  7 28  1  0  0  0  0
  7 29  1  0  0  0  0
  8 30  1  0  0  0  0
  8 31  1  0  0  0  0
  8 32  1  0  0  0  0
  9 10  1  0  0  0  0
  9 20  1  0  0  0  0
 10 11  1  0  0  0  0
 10 33  1  0  0  0  0
 11 12  2  0  0  0  0
 11 13  1  0  0  0  0
 13 14  1  0  0  0  0
 13 34  1  0  0  0  0
 14 19  1  0  0  0  0
 14 15  1  0  0  0  0
 14 16  1  0  0  0  0
 15 35  1  0  0  0  0
 15 36  1  0  0  0  0
 15 37  1  0  0  0  0
 16 17  1  0  0  0  0
 16 38  1  0  0  0  0
 16 39  1  0  0  0  0
 17 18  1  0  0  0  0
 17 40  1  0  0  0  0
 17 41  1  0  0  0  0
 18 19  1  0  0  0  0
 19 42  1  0  0  0  0
 19 43  1  0  0  0  0
M  END
> <s_m_source_file>
AV-unprocessed.smi

> <i_m_source_file_index>
2853

> <i_lp_mmshare_version>
43012

> <i_f3d_flags>
0

> <s_epik_input>
W0NIM11jMW5jKFtDSDJdW0NIXShbQ0gzXSlbQ0gzXSljKHMxKVtOSF1DKD1PKVtOSF1bQ0BAXTIoW0NIM10pW0NIMl1bQ0gyXU9bQ0gyXTI=

> <s_epik_cmdline>
J2VwaWtfcHl0aG9uJywgJy1waCcsICc3LjAnLCAnLXRuJywgJzgnLCAnLW1hJywgJzIwMCcsICctbWV0YWxfYmluZGluZycsICctaW1hZScsICc8aW5maWxlLm1hZT4nLCAnLW9tYWUnLCAnPG91dGZpbGUubWFlPic=

> <r_epik_Ionization_Penalty>
0.000723394

> <r_epik_Ionization_Penalty_Charging>
0

> <r_epik_Ionization_Penalty_Neutral>
0.000723394

> <r_epik_State_Penalty>
0.000446791

> <r_epik_Charging_Adjusted_Penalty>
0.000446791

> <i_epik_Tot_Q>
0

> <i_epik_Tot_abs_Q>
0

> <r_epik_Metal_State_Penalty>
-0

> <b_epik_Metal_Only>
0

> <s_lp_Force_Field>
OPLS_2005

> <r_lp_Energy>
15.0202

> <b_lp_Chiralities_Consistent>
1

> <s_lp_Variant>
AV-unprocessed.smi:2853-2

> <Gold.Version>
5.8.1

> <Gold.Id.Protein>
6NUR|6NUR_protein|mol2

> <Gold.PLP.Fitness>
40.7022

> <Gold.PLP.PLP>
-33.5793

> <Gold.PLP.part.hbond>
-4.0475

> <Gold.PLP.part.metal>
0.0000

> <Gold.PLP.part.buried>
-3.9199

> <Gold.PLP.part.nonpolar>
-26.2188

> <Gold.PLP.part.repulsive>
0.1820

> <Gold.PLP.ligand.clash>
0.0000

> <Gold.PLP.ligand.torsion>
0.7127

> <Gold.PLP.Chemscore.Hbond>
2.8400

> <Gold.PLP.Chemscore.CHOScore>
0.0000

> <Gold.PLP.Chemscore.Metal>
0.0000

> <Gold.Chemscore.Hbonds>
donor molecule, donor type, donor heavy atom, donor atom, acceptor molecule, acceptor atom, score
      L1  H    10    33       P1  8029  0.90
      L1  H    13    34       P1  8029  0.98
      P1  H  6934  6946       L1    12  0.83

> <Gold.PLP.Chemscore.Internal.Correction>
0.0282

> <Gold.Rescore>
     Score         DG    S(hbond)    S(metal)    S(lipo)     H(rot)  DE(clash)    DE(int)     intcor
     19.15     -20.46       2.08        0.00      96.56       1.28       0.25       1.06       ----

> <Gold.Chemscore.Fitness>
19.1533

> <Gold.Chemscore.DG>
-20.4645

> <Gold.Chemscore.ZeroCoef>
-5.4800

> <Gold.Chemscore.Hbond>
2.0814

> <Gold.Chemscore.Metal>
0.0000

> <Gold.Chemscore.Lipo>
96.5591

> <Gold.Chemscore.Internal_Hbond>
0.0000

> <Gold.Chemscore.DEClash>
0.2498

> <Gold.Chemscore.DEInternal>
1.0614

> <Gold.Chemscore.Rot>
1.2753

> <Gold.Chemscore.Internal.Correction>
   9.000000E+99

> <Gold.Chemscore.Hbonds>
donor molecule, donor type, donor heavy atom, donor atom, acceptor molecule, acceptor atom, score
      L1  H    10    33       P1  8029  0.17
      L1  H    13    34       P1  8029  0.91
      P1  H  6934  6946       L1    12  0.83

> <Gold.Chemscore.Hbond.Weighted>
-6.9517

> <Gold.Chemscore.Metal.Weighted>
-0.0000

> <Gold.Chemscore.Lipo.Weighted>
-11.2974

> <Gold.Chemscore.Internal_Hbond.Weighted>
0.0000

> <Gold.Chemscore.DEClash.Weighted>
0.2498

> <Gold.Chemscore.DEInternal.Weighted>
1.0614

> <Gold.Chemscore.Rot.Weighted>
3.2646

> <Gold.Chemscore.Internal.Correction.Weighted>
   9.000000E+99

> <Gold.Protein.RotatedTorsions>
[ 6907 6896 6895 6894 ] final  116.31 input  -60.11 | X-H torsion
[ 7974 7965 7964 7962 ] final  106.40 input  175.53 | X-H torsion
[ 8008 7997 7996 7995 ] final -112.30 input   59.86 | X-H torsion
[ 10167 10162 10161 10158 ] final   73.79 input  -65.29 | X-H torsion
[ 10718 10713 10712 10709 ] final  157.46 input   66.30 | X-H torsion
[ 10763 10752 10751 10750 ] final -124.34 input  -60.55 | X-H torsion
[ 11005 11000 10999 10996 ] final -155.03 input  -57.11 | X-H torsion

> <Gold.Protein.ActiveResidues>
 VAL166  LYS551  ARG553  GLY616  TRP617  ASP618  TYR619  PRO620  LYS621  CYS622 
 ASP623  PHE694  ASN695  SER759  ASP760  ASP761  ALA762  ILE779  LEU786  VAL792 
 PHE793  MET794  SER795  GLU796  ALA797  LYS798  CYS799  TRP800  GLU811  SER814 

> <Gold.Protein.RotatedAtoms>
  152.4686  133.7978  159.6936 H   0  0  0  0  0  0  0  0  0  0  0  0  # atno 6907 bound_to 6896
  150.8663  133.7560  159.2982 H   0  0  0  0  0  0  0  0  0  0  0  0  # atno 6908 bound_to 6896
  151.5109  135.1068  159.9905 H   0  0  0  0  0  0  0  0  0  0  0  0  # atno 6909 bound_to 6896
  145.3071  139.2551  143.3783 H   0  0  0  0  0  0  0  0  0  0  0  0  # atno 7974 bound_to 7965
  155.0031  140.0394  157.2368 H   0  0  0  0  0  0  0  0  0  0  0  0  # atno 8008 bound_to 7997
  154.7526  140.2769  155.6257 H   0  0  0  0  0  0  0  0  0  0  0  0  # atno 8009 bound_to 7997
  156.2888  140.2644  156.2283 H   0  0  0  0  0  0  0  0  0  0  0  0  # atno 8010 bound_to 7997
  140.0207  144.5543  150.7584 H   0  0  0  0  0  0  0  0  0  0  0  0  # atno 10167 bound_to 10162
  157.1912  131.0655  151.2078 H   0  0  0  0  0  0  0  0  0  0  0  0  # atno 10718 bound_to 10713
  154.8722  135.4067  154.3089 H   0  0  0  0  0  0  0  0  0  0  0  0  # atno 10763 bound_to 10752
  153.3936  135.7016  153.6482 H   0  0  0  0  0  0  0  0  0  0  0  0  # atno 10764 bound_to 10752
  153.5254  135.3678  155.2622 H   0  0  0  0  0  0  0  0  0  0  0  0  # atno 10765 bound_to 10752
  140.6909  134.4043  157.5219 H   0  0  0  0  0  0  0  0  0  0  0  0  # atno 11005 bound_to 11000
  146.3131  140.3599  142.8664 LP  0  0  0  0  0  0  0  0  0  0  0  0  # atno 17320 bound_to 7965
  144.9046  140.7684  143.5846 LP  0  0  0  0  0  0  0  0  0  0  0  0  # atno 17321 bound_to 7965
  140.7344  143.2728  151.3835 LP  0  0  0  0  0  0  0  0  0  0  0  0  # atno 17342 bound_to 10162
  139.6142  144.1037  152.2329 LP  0  0  0  0  0  0  0  0  0  0  0  0  # atno 17343 bound_to 10162
  157.3859  130.7256  149.6663 LP  0  0  0  0  0  0  0  0  0  0  0  0  # atno 17370 bound_to 10713
  155.9711  130.4160  150.4207 LP  0  0  0  0  0  0  0  0  0  0  0  0  # atno 17371 bound_to 10713
  139.8924  134.8756  156.2274 LP  0  0  0  0  0  0  0  0  0  0  0  0  # atno 17394 bound_to 11000
  141.0242  133.7024  156.1320 LP  0  0  0  0  0  0  0  0  0  0  0  0  # atno 17395 bound_to 11000

$$$$
