AV-unprocessed.smi:1297|AV-procd|sdf|5416|dock2
  -GOLD-   22720 4573D 1   1.00000     0.00000
 Structure written by MMmdl.
 26 27  0  0  0  0  0  0  0  0  1 V2000
  151.1834  139.1865  155.1850 C   0  0  0  0  0  0  0  0  0  0  0  0
  150.7369  140.4459  156.4144 S   0  0  0  0  0  0  0  0  0  0  0  0
  152.1377  140.3424  157.4919 C   0  0  0  0  0  0  0  0  0  0  0  0
  153.0116  139.3306  157.5000 N   0  0  0  0  0  0  0  0  0  0  0  0
  153.9243  139.6319  158.4842 N   0  0  0  0  0  0  0  0  0  0  0  0
  153.5379  140.8107  158.9753 C   0  0  0  0  0  0  0  0  0  0  0  0
  154.2368  141.5032  160.1030 C   0  0  0  0  0  0  0  0  0  0  0  0
  154.5076  140.7865  161.4072 C   0  0  0  0  0  0  0  0  0  0  0  0
  153.4984  141.9027  161.3628 C   0  0  0  0  0  0  0  0  0  0  0  0
  152.4174  141.2997  158.4033 N   0  0  0  0  0  0  0  0  0  0  0  0
  151.6960  142.5321  158.7027 C   0  0  0  0  0  0  0  0  0  0  0  0
  152.5082  143.7768  158.3347 C   0  0  0  0  0  0  0  0  0  0  0  0
  152.0509  144.5392  157.3382 N   0  0  0  0  0  0  0  0  0  0  0  0
  153.5331  144.0544  158.9528 O   0  0  0  0  0  0  0  0  0  0  0  0
  150.4081  139.1216  154.4217 H   0  0  0  0  0  0  0  0  0  0  0  0
  151.2818  138.2073  155.6545 H   0  0  0  0  0  0  0  0  0  0  0  0
  152.1241  139.4402  154.6953 H   0  0  0  0  0  0  0  0  0  0  0  0
  154.9978  142.1830  159.7250 H   0  0  0  0  0  0  0  0  0  0  0  0
  154.1239  139.7746  161.5205 H   0  0  0  0  0  0  0  0  0  0  0  0
  155.4583  140.9830  161.8982 H   0  0  0  0  0  0  0  0  0  0  0  0
  153.7737  142.8475  161.8270 H   0  0  0  0  0  0  0  0  0  0  0  0
  152.4486  141.6290  161.4501 H   0  0  0  0  0  0  0  0  0  0  0  0
  150.7451  142.5388  158.1695 H   0  0  0  0  0  0  0  0  0  0  0  0
  151.4507  142.5518  159.7652 H   0  0  0  0  0  0  0  0  0  0  0  0
  152.5567  145.3696  157.0649 H   0  0  0  0  0  0  0  0  0  0  0  0
  151.1987  144.2826  156.8612 H   0  0  0  0  0  0  0  0  0  0  0  0
  1  2  1  0  0  0  0
  1 15  1  0  0  0  0
  1 16  1  0  0  0  0
  1 17  1  0  0  0  0
  2  3  1  0  0  0  0
  3 10  1  0  0  0  0
  3  4  2  0  0  0  0
  4  5  1  0  0  0  0
  5  6  2  0  0  0  0
  6  7  1  0  0  0  0
  6 10  1  0  0  0  0
  7  9  1  0  0  0  0
  7  8  1  0  0  0  0
  7 18  1  0  0  0  0
  8  9  1  0  0  0  0
  8 19  1  0  0  0  0
  8 20  1  0  0  0  0
  9 21  1  0  0  0  0
  9 22  1  0  0  0  0
 10 11  1  0  0  0  0
 11 12  1  0  0  0  0
 11 23  1  0  0  0  0
 11 24  1  0  0  0  0
 12 13  1  0  0  0  0
 12 14  2  0  0  0  0
 13 25  1  0  0  0  0
 13 26  1  0  0  0  0
M  END
> <s_m_source_file>
AV-unprocessed.smi

> <i_m_source_file_index>
1297

> <i_lp_mmshare_version>
43012

> <i_f3d_flags>
0

> <s_epik_input>
W0NIM11TYzFubmMoW0NIXTJbQ0gyXVtDSDJdMiluMVtDSDJdQyg9TylbTkgyXQ==

> <s_epik_cmdline>
J2VwaWtfcHl0aG9uJywgJy1waCcsICc3LjAnLCAnLXRuJywgJzgnLCAnLW1hJywgJzIwMCcsICctbWV0YWxfYmluZGluZycsICctaW1hZScsICc8aW5maWxlLm1hZT4nLCAnLW9tYWUnLCAnPG91dGZpbGUubWFlPic=

> <r_lp_tautomer_probability>
1

> <r_epik_Ionization_Penalty>
2.14715e-06

> <r_epik_Ionization_Penalty_Charging>
0

> <r_epik_Ionization_Penalty_Neutral>
2.14715e-06

> <r_epik_State_Penalty>
-0

> <r_epik_Charging_Adjusted_Penalty>
0

> <i_epik_Tot_Q>
0

> <i_epik_Tot_abs_Q>
0

> <r_epik_Metal_State_Penalty>
-0

> <b_epik_Metal_Only>
0

> <s_lp_Force_Field>
OPLS_2005

> <r_lp_Energy>
5.16146

> <b_lp_Chiralities_Consistent>
1

> <s_lp_Variant>
AV-unprocessed.smi:1297-1

> <Gold.Version>
5.8.1

> <Gold.Id.Protein>
6NUR|6NUR_protein|mol2

> <Gold.PLP.Fitness>
33.7219

> <Gold.PLP.PLP>
-28.7033

> <Gold.PLP.part.hbond>
-2.7994

> <Gold.PLP.part.metal>
0.0000

> <Gold.PLP.part.buried>
-0.9591

> <Gold.PLP.part.nonpolar>
-24.2340

> <Gold.PLP.part.repulsive>
0.1006

> <Gold.PLP.ligand.clash>
0.0000

> <Gold.PLP.ligand.torsion>
0.3581

> <Gold.PLP.Chemscore.Hbond>
1.8664

> <Gold.PLP.Chemscore.CHOScore>
0.0000

> <Gold.PLP.Chemscore.Metal>
0.0000

> <Gold.Chemscore.Hbonds>
donor molecule, donor type, donor heavy atom, donor atom, acceptor molecule, acceptor atom, score
      P1  H  7997  8008       L1     5  0.10

> <Gold.PLP.Chemscore.Internal.Correction>
0.1356

> <Gold.Rescore>
     Score         DG    S(hbond)    S(metal)    S(lipo)     H(rot)  DE(clash)    DE(int)     intcor
      7.72     -10.45       1.39        0.00      50.74       2.19       1.18       1.55       ----

> <Gold.Chemscore.Fitness>
7.7166

> <Gold.Chemscore.DG>
-10.4468

> <Gold.Chemscore.ZeroCoef>
-5.4800

> <Gold.Chemscore.Hbond>
1.3880

> <Gold.Chemscore.Metal>
0.0000

> <Gold.Chemscore.Lipo>
50.7396

> <Gold.Chemscore.Internal_Hbond>
0.0000

> <Gold.Chemscore.DEClash>
1.1767

> <Gold.Chemscore.DEInternal>
1.5536

> <Gold.Chemscore.Rot>
2.1897

> <Gold.Chemscore.Internal.Correction>
   9.000000E+99

> <Gold.Chemscore.Hbond.Weighted>
-4.6360

> <Gold.Chemscore.Metal.Weighted>
-0.0000

> <Gold.Chemscore.Lipo.Weighted>
-5.9365

> <Gold.Chemscore.Internal_Hbond.Weighted>
0.0000

> <Gold.Chemscore.DEClash.Weighted>
1.1767

> <Gold.Chemscore.DEInternal.Weighted>
1.5536

> <Gold.Chemscore.Rot.Weighted>
5.6057

> <Gold.Chemscore.Internal.Correction.Weighted>
   9.000000E+99

> <Gold.Protein.RotatedTorsions>
[ 6907 6896 6895 6894 ] final -110.66 input  -60.11 | X-H torsion
[ 7974 7965 7964 7962 ] final  -45.90 input  175.53 | X-H torsion
[ 8008 7997 7996 7995 ] final -103.43 input   59.86 | X-H torsion
[ 10167 10162 10161 10158 ] final  -59.09 input  -65.29 | X-H torsion
[ 10718 10713 10712 10709 ] final  118.65 input   66.30 | X-H torsion
[ 10763 10752 10751 10750 ] final -101.66 input  -60.55 | X-H torsion
[ 11005 11000 10999 10996 ] final   88.07 input  -57.11 | X-H torsion

> <Gold.Protein.ActiveResidues>
 VAL166  LYS551  ARG553  GLY616  TRP617  ASP618  TYR619  PRO620  LYS621  CYS622 
 ASP623  PHE694  ASN695  SER759  ASP760  ASP761  ALA762  ILE779  LEU786  VAL792 
 PHE793  MET794  SER795  GLU796  ALA797  LYS798  CYS799  TRP800  GLU811  SER814 

> <Gold.Protein.RotatedAtoms>
  150.7639  133.9349  159.3438 H   0  0  0  0  0  0  0  0  0  0  0  0  # atno 6907 bound_to 6896
  151.7252  135.0884  160.0300 H   0  0  0  0  0  0  0  0  0  0  0  0  # atno 6908 bound_to 6896
  152.3625  133.6277  159.6061 H   0  0  0  0  0  0  0  0  0  0  0  0  # atno 6909 bound_to 6896
  145.9773  140.7320  142.9380 H   0  0  0  0  0  0  0  0  0  0  0  0  # atno 7974 bound_to 7965
  154.8708  140.0423  157.1723 H   0  0  0  0  0  0  0  0  0  0  0  0  # atno 8008 bound_to 7997
  154.8740  140.2962  155.5443 H   0  0  0  0  0  0  0  0  0  0  0  0  # atno 8009 bound_to 7997
  156.2999  140.2423  156.3734 H   0  0  0  0  0  0  0  0  0  0  0  0  # atno 8010 bound_to 7997
  140.6157  143.2401  151.5603 H   0  0  0  0  0  0  0  0  0  0  0  0  # atno 10167 bound_to 10162
  157.6016  131.1050  150.7786 H   0  0  0  0  0  0  0  0  0  0  0  0  # atno 10718 bound_to 10713
  154.7675  135.4889  153.9582 H   0  0  0  0  0  0  0  0  0  0  0  0  # atno 10763 bound_to 10752
  153.1326  135.6756  153.9162 H   0  0  0  0  0  0  0  0  0  0  0  0  # atno 10764 bound_to 10752
  153.8861  135.3126  155.3425 H   0  0  0  0  0  0  0  0  0  0  0  0  # atno 10765 bound_to 10752
  139.8905  134.8463  156.2948 H   0  0  0  0  0  0  0  0  0  0  0  0  # atno 11005 bound_to 11000
  144.6852  140.2850  143.7286 LP  0  0  0  0  0  0  0  0  0  0  0  0  # atno 17320 bound_to 7965
  145.7820  139.1895  143.2152 LP  0  0  0  0  0  0  0  0  0  0  0  0  # atno 17321 bound_to 7965
  139.5397  144.2683  152.1324 LP  0  0  0  0  0  0  0  0  0  0  0  0  # atno 17342 bound_to 10162
  140.1892  144.4769  150.6488 LP  0  0  0  0  0  0  0  0  0  0  0  0  # atno 17343 bound_to 10162
  156.8183  130.4975  149.5346 LP  0  0  0  0  0  0  0  0  0  0  0  0  # atno 17370 bound_to 10713
  156.1090  130.6026  151.0018 LP  0  0  0  0  0  0  0  0  0  0  0  0  # atno 17371 bound_to 10713
  140.9952  133.7184  156.0875 LP  0  0  0  0  0  0  0  0  0  0  0  0  # atno 17394 bound_to 11000
  140.7572  134.3980  157.5532 LP  0  0  0  0  0  0  0  0  0  0  0  0  # atno 17395 bound_to 11000

$$$$
