AV-unprocessed.smi:3031|AV-procd|sdf|11543|dock8
  -GOLD-   2272016493D 1   1.00000     0.00000
 Structure written by MMmdl.
 47 48  0  0  0  0  0  0  0  0  2 V2000
  145.5191  130.2123  151.8318 C   0  0  0  0  0  0  0  0  0  0  0  0
  145.0709  131.5546  151.3301 C   0  0  0  0  0  0  0  0  0  0  0  0
  143.8783  131.8704  150.6192 C   0  0  0  0  0  0  0  0  0  0  0  0
  143.7852  133.1554  150.3174 N   0  0  0  0  0  0  0  0  0  0  0  0
  144.9087  133.7041  150.8271 N   0  0  0  0  0  0  0  0  0  0  0  0
  145.1547  135.1271  150.6746 C   0  0  0  0  0  0  0  0  0  0  0  0
  145.3002  135.8427  152.0320 C   0  0  2  0  0  0  0  0  0  0  0  0
  143.9259  136.2579  152.5821 C   0  0  0  0  0  0  0  0  0  0  0  0
  146.1913  137.0172  151.8953 N   0  3  0  0  0  0  0  0  0  0  0  0
  146.1718  137.9676  153.0266 C   0  0  0  0  0  0  0  0  0  0  0  0
  147.1950  139.0952  152.8105 C   0  0  1  0  0  0  0  0  0  0  0  0
  146.8465  139.8422  151.6619 O   0  0  0  0  0  0  0  0  0  0  0  0
  147.4164  140.0615  153.9975 C   0  0  0  0  0  0  0  0  0  0  0  0
  148.6706  139.9218  154.7465 N   0  0  0  0  0  0  0  0  0  0  0  0
  149.3065  141.2227  154.9405 C   0  0  0  0  0  0  0  0  0  0  0  0
  150.6201  141.1131  155.7340 C   0  0  0  0  0  0  0  0  0  0  0  0
  151.5075  140.2253  155.0634 O   0  0  0  0  0  0  0  0  0  0  0  0
  150.9494  138.9288  154.8807 C   0  0  0  0  0  0  0  0  0  0  0  0
  149.6352  139.0398  154.0876 C   0  0  0  0  0  0  0  0  0  0  0  0
  145.7025  132.7606  151.4436 C   0  0  0  0  0  0  0  0  0  0  0  0
  144.7399  129.4574  151.7235 H   0  0  0  0  0  0  0  0  0  0  0  0
  145.7876  130.2466  152.8879 H   0  0  0  0  0  0  0  0  0  0  0  0
  146.3927  129.8517  151.2887 H   0  0  0  0  0  0  0  0  0  0  0  0
  143.0831  131.2064  150.3133 H   0  0  0  0  0  0  0  0  0  0  0  0
  146.0440  135.2721  150.0589 H   0  0  0  0  0  0  0  0  0  0  0  0
  144.3192  135.5502  150.1152 H   0  0  0  0  0  0  0  0  0  0  0  0
  145.7544  135.1405  152.7329 H   0  0  0  0  0  0  0  0  0  0  0  0
  143.2619  135.3967  152.6636 H   0  0  0  0  0  0  0  0  0  0  0  0
  143.4421  136.9876  151.9318 H   0  0  0  0  0  0  0  0  0  0  0  0
  144.0034  136.6968  153.5767 H   0  0  0  0  0  0  0  0  0  0  0  0
  147.1368  136.6697  151.8130 H   0  0  0  0  0  0  0  0  0  0  0  0
  145.1684  138.3773  153.1355 H   0  0  0  0  0  0  0  0  0  0  0  0
  146.4123  137.4237  153.9409 H   0  0  0  0  0  0  0  0  0  0  0  0
  148.1622  138.6338  152.6057 H   0  0  0  0  0  0  0  0  0  0  0  0
  147.6365  140.0503  151.1861 H   0  0  0  0  0  0  0  0  0  0  0  0
  147.2995  141.0932  153.6630 H   0  0  0  0  0  0  0  0  0  0  0  0
  146.5819  139.8921  154.6800 H   0  0  0  0  0  0  0  0  0  0  0  0
  149.5064  141.6863  153.9731 H   0  0  0  0  0  0  0  0  0  0  0  0
  148.6279  141.8913  155.4714 H   0  0  0  0  0  0  0  0  0  0  0  0
  151.0933  142.0913  155.8230 H   0  0  0  0  0  0  0  0  0  0  0  0
  150.4311  140.7539  156.7472 H   0  0  0  0  0  0  0  0  0  0  0  0
  151.6650  138.3058  154.3441 H   0  0  0  0  0  0  0  0  0  0  0  0
  150.7774  138.4579  155.8500 H   0  0  0  0  0  0  0  0  0  0  0  0
  149.2293  138.0410  153.9578 H   0  0  0  0  0  0  0  0  0  0  0  0
  149.8548  139.4149  153.0866 H   0  0  0  0  0  0  0  0  0  0  0  0
  146.6430  133.0223  151.9061 H   0  0  0  0  0  0  0  0  0  0  0  0
  145.9610  137.5107  151.0444 H   0  0  0  0  0  0  0  0  0  0  0  0
  1  2  1  0  0  0  0
  1 21  1  0  0  0  0
  1 22  1  0  0  0  0
  1 23  1  0  0  0  0
  2 20  2  0  0  0  0
  2  3  1  0  0  0  0
  3  4  2  0  0  0  0
  3 24  1  0  0  0  0
  4  5  1  0  0  0  0
  5  6  1  0  0  0  0
  5 20  1  0  0  0  0
  6  7  1  0  0  0  0
  6 25  1  0  0  0  0
  6 26  1  0  0  0  0
  7  8  1  0  0  0  0
  7  9  1  0  0  0  0
  7 27  1  0  0  0  0
  8 28  1  0  0  0  0
  8 29  1  0  0  0  0
  8 30  1  0  0  0  0
  9 10  1  0  0  0  0
  9 31  1  0  0  0  0
  9 47  1  0  0  0  0
 10 11  1  0  0  0  0
 10 32  1  0  0  0  0
 10 33  1  0  0  0  0
 11 12  1  0  0  0  0
 11 13  1  0  0  0  0
 11 34  1  0  0  0  0
 12 35  1  0  0  0  0
 13 14  1  0  0  0  0
 13 36  1  0  0  0  0
 13 37  1  0  0  0  0
 14 19  1  0  0  0  0
 14 15  1  0  0  0  0
 15 16  1  0  0  0  0
 15 38  1  0  0  0  0
 15 39  1  0  0  0  0
 16 17  1  0  0  0  0
 16 40  1  0  0  0  0
 16 41  1  0  0  0  0
 17 18  1  0  0  0  0
 18 19  1  0  0  0  0
 18 42  1  0  0  0  0
 18 43  1  0  0  0  0
 19 44  1  0  0  0  0
 19 45  1  0  0  0  0
 20 46  1  0  0  0  0
M  CHG  1   9   1
M  END
> <s_m_source_file>
AV-unprocessed.smi

> <i_m_source_file_index>
3031

> <i_lp_mmshare_version>
43012

> <i_f3d_flags>
0

> <s_epik_input>
W0NIM11jMVtjSF1ubihbY0hdMSlbQ0gyXVtDQEhdKFtDSDNdKVtOSF1bQ0gyXVtDQEhdKFtPSF0pW0NIMl1OMltDSDJdW0NIMl1PW0NIMl1bQ0gyXTI=

> <s_epik_cmdline>
J2VwaWtfcHl0aG9uJywgJy1waCcsICc3LjAnLCAnLXRuJywgJzgnLCAnLW1hJywgJzIwMCcsICctbWV0YWxfYmluZGluZycsICctaW1hZScsICc8aW5maWxlLm1hZT4nLCAnLW9tYWUnLCAnPG91dGZpbGUubWFlPic=

> <r_lp_tautomer_probability>
1

> <r_epik_Ionization_Penalty>
0.108564

> <r_epik_Ionization_Penalty_Charging>
0.01811

> <r_epik_Ionization_Penalty_Neutral>
0.0904541

> <r_epik_State_Penalty>
0.141043

> <r_epik_Charging_Adjusted_Penalty>
0.159153

> <i_epik_Tot_Q>
1

> <i_epik_Tot_abs_Q>
1

> <r_epik_Metal_State_Penalty>
0.141052

> <b_epik_Metal_Only>
0

> <s_lp_Force_Field>
OPLS_2005

> <r_lp_Energy>
34.8443

> <b_lp_Chiralities_Consistent>
1

> <s_lp_Variant>
AV-unprocessed.smi:3031-3

> <Gold.Version>
5.8.1

> <Gold.Id.Protein>
6NUR|6NUR_protein|mol2

> <Gold.PLP.Fitness>
53.0212

> <Gold.PLP.PLP>
-41.6199

> <Gold.PLP.part.hbond>
-3.1588

> <Gold.PLP.part.metal>
0.0000

> <Gold.PLP.part.buried>
-6.2423

> <Gold.PLP.part.nonpolar>
-32.8135

> <Gold.PLP.part.repulsive>
0.4091

> <Gold.PLP.ligand.clash>
0.0000

> <Gold.PLP.ligand.torsion>
1.8286

> <Gold.PLP.Chemscore.Hbond>
3.9920

> <Gold.PLP.Chemscore.CHOScore>
1.0000

> <Gold.PLP.Chemscore.Metal>
0.0000

> <Gold.Chemscore.Hbonds>
donor molecule, donor type, donor heavy atom, donor atom, acceptor molecule, acceptor atom, score
      L1  H     9    31       P1  7948  2.00
      L1  H    12    35       P1  7957  0.98
      P1  H  7989  7998       L1    17  1.00
      L1  C     3    24       P1 10952  1.00

> <Gold.PLP.Chemscore.Internal.Correction>
0.0824

> <Gold.Rescore>
     Score         DG    S(hbond)    S(metal)    S(lipo)     H(rot)  DE(clash)    DE(int)     intcor
     14.96     -16.73       2.10        0.00      93.59       2.63       0.04       1.73       ----

> <Gold.Chemscore.Fitness>
14.9593

> <Gold.Chemscore.DG>
-16.7291

> <Gold.Chemscore.ZeroCoef>
-5.4800

> <Gold.Chemscore.Hbond>
2.1031

> <Gold.Chemscore.Metal>
0.0000

> <Gold.Chemscore.Lipo>
93.5897

> <Gold.Chemscore.Internal_Hbond>
0.0000

> <Gold.Chemscore.DEClash>
0.0398

> <Gold.Chemscore.DEInternal>
1.7301

> <Gold.Chemscore.Rot>
2.6270

> <Gold.Chemscore.Internal.Correction>
   9.000000E+99

> <Gold.Chemscore.Hbonds>
donor molecule, donor type, donor heavy atom, donor atom, acceptor molecule, acceptor atom, score
      L1  H     9    31       P1  7948  1.00
      L1  H    12    35       P1  7957  0.92
      P1  H  7989  7998       L1    17  0.24

> <Gold.Chemscore.Hbond.Weighted>
-7.0243

> <Gold.Chemscore.Metal.Weighted>
-0.0000

> <Gold.Chemscore.Lipo.Weighted>
-10.9500

> <Gold.Chemscore.Internal_Hbond.Weighted>
0.0000

> <Gold.Chemscore.DEClash.Weighted>
0.0398

> <Gold.Chemscore.DEInternal.Weighted>
1.7301

> <Gold.Chemscore.Rot.Weighted>
6.7251

> <Gold.Chemscore.Internal.Correction.Weighted>
   9.000000E+99

> <Gold.Protein.RotatedTorsions>
[ 6907 6896 6895 6894 ] final -156.94 input  -60.11 | X-H torsion
[ 7974 7965 7964 7962 ] final -129.61 input  175.53 | X-H torsion
[ 8008 7997 7996 7995 ] final   -1.71 input   59.86 | X-H torsion
[ 10167 10162 10161 10158 ] final  -48.78 input  -65.29 | X-H torsion
[ 10718 10713 10712 10709 ] final -156.00 input   66.30 | X-H torsion
[ 10763 10752 10751 10750 ] final -133.00 input  -60.55 | X-H torsion
[ 11005 11000 10999 10996 ] final  -15.79 input  -57.11 | X-H torsion

> <Gold.Protein.ActiveResidues>
 VAL166  LYS551  ARG553  GLY616  TRP617  ASP618  TYR619  PRO620  LYS621  CYS622 
 ASP623  PHE694  ASN695  SER759  ASP760  ASP761  ALA762  ILE779  LEU786  VAL792 
 PHE793  MET794  SER795  GLU796  ALA797  LYS798  CYS799  TRP800  GLU811  SER814 

> <Gold.Protein.RotatedAtoms>
  151.2952  133.4147  159.2635 H   0  0  0  0  0  0  0  0  0  0  0  0  # atno 6907 bound_to 6896
  151.0242  134.9492  159.8086 H   0  0  0  0  0  0  0  0  0  0  0  0  # atno 6908 bound_to 6896
  152.5331  134.2915  159.9097 H   0  0  0  0  0  0  0  0  0  0  0  0  # atno 6909 bound_to 6896
  144.9555  140.7391  143.4761 H   0  0  0  0  0  0  0  0  0  0  0  0  # atno 7974 bound_to 7965
  154.6438  140.2552  155.7292 H   0  0  0  0  0  0  0  0  0  0  0  0  # atno 8008 bound_to 7997
  156.2542  140.2882  156.0763 H   0  0  0  0  0  0  0  0  0  0  0  0  # atno 8009 bound_to 7997
  155.1556  140.0383  157.2821 H   0  0  0  0  0  0  0  0  0  0  0  0  # atno 8010 bound_to 7997
  140.6715  143.2725  151.4120 H   0  0  0  0  0  0  0  0  0  0  0  0  # atno 10167 bound_to 10162
  156.5206  130.8476  151.2680 H   0  0  0  0  0  0  0  0  0  0  0  0  # atno 10718 bound_to 10713
  154.8737  135.3780  154.4501 H   0  0  0  0  0  0  0  0  0  0  0  0  # atno 10763 bound_to 10752
  153.5178  135.7029  153.5752 H   0  0  0  0  0  0  0  0  0  0  0  0  # atno 10764 bound_to 10752
  153.4013  135.3947  155.1955 H   0  0  0  0  0  0  0  0  0  0  0  0  # atno 10765 bound_to 10752
  140.8002  133.8219  155.9463 H   0  0  0  0  0  0  0  0  0  0  0  0  # atno 11005 bound_to 11000
  145.2778  139.1929  143.4807 LP  0  0  0  0  0  0  0  0  0  0  0  0  # atno 17320 bound_to 7965
  146.3336  140.2735  142.8607 LP  0  0  0  0  0  0  0  0  0  0  0  0  # atno 17321 bound_to 7965
  139.5986  144.1343  152.2173 LP  0  0  0  0  0  0  0  0  0  0  0  0  # atno 17342 bound_to 10162
  140.0720  144.5771  150.7184 LP  0  0  0  0  0  0  0  0  0  0  0  0  # atno 17343 bound_to 10162
  157.7437  130.9919  150.2616 LP  0  0  0  0  0  0  0  0  0  0  0  0  # atno 17370 bound_to 10713
  156.3153  130.3778  149.7624 LP  0  0  0  0  0  0  0  0  0  0  0  0  # atno 17371 bound_to 10713
  140.9302  134.2032  157.4869 LP  0  0  0  0  0  0  0  0  0  0  0  0  # atno 17394 bound_to 11000
  139.8722  134.9829  156.5177 LP  0  0  0  0  0  0  0  0  0  0  0  0  # atno 17395 bound_to 11000

$$$$
