AV-unprocessed.smi:3149|AV-procd|sdf|12005|dock9
  -GOLD-   2272017413D 1   1.00000     0.00000
 Structure written by MMmdl.
 37 38  0  0  0  0  0  0  0  0  1 V2000
  152.1098  139.6674  157.1025 C   0  0  0  0  0  0  0  0  0  0  0  0
  151.4624  140.9120  157.7485 C   0  0  2  0  0  0  0  0  0  0  0  0
  151.7450  140.9192  159.1819 N   0  0  0  0  0  0  0  0  0  0  0  0
  153.1045  141.3704  159.5092 C   0  0  0  0  0  0  0  0  0  0  0  0
  153.0889  142.6572  160.3408 C   0  0  0  0  0  0  0  0  0  0  0  0
  153.3651  142.6218  161.5395 O   0  0  0  0  0  0  0  0  0  0  0  0
  152.8450  143.8635  159.6770 N   0  0  0  0  0  0  0  0  0  0  0  0
  152.0792  143.9042  158.4410 C   0  0  0  0  0  0  0  0  0  0  0  0
  151.6762  145.3196  158.8687 C   0  0  0  0  0  0  0  0  0  0  0  0
  152.0905  144.9434  160.2950 C   0  0  0  0  0  0  0  0  0  0  0  0
  149.9215  140.9646  157.5578 C   0  0  1  0  0  0  0  0  0  0  0  0
  149.2928  142.2435  158.1460 C   0  0  0  0  0  0  0  0  0  0  0  0
  149.5356  140.8196  156.1592 N   0  0  0  0  0  0  0  0  0  0  0  0
  148.8027  141.6927  155.3818 C   0  0  0  0  0  0  0  0  0  0  0  0
  148.6868  141.1370  154.1400 C   0  0  0  0  0  0  0  0  0  0  0  0
  149.3940  139.9080  154.2524 C   0  0  0  0  0  0  0  0  0  0  0  0
  149.9013  139.7207  155.4597 N   0  0  0  0  0  0  0  0  0  0  0  0
  151.9430  139.6407  156.0257 H   0  0  0  0  0  0  0  0  0  0  0  0
  151.7032  138.7467  157.5216 H   0  0  0  0  0  0  0  0  0  0  0  0
  153.1898  139.6485  157.2430 H   0  0  0  0  0  0  0  0  0  0  0  0
  151.8891  141.8065  157.2916 H   0  0  0  0  0  0  0  0  0  0  0  0
  151.5412  140.0135  159.5798 H   0  0  0  0  0  0  0  0  0  0  0  0
  153.6284  140.5967  160.0701 H   0  0  0  0  0  0  0  0  0  0  0  0
  153.6769  141.5432  158.5975 H   0  0  0  0  0  0  0  0  0  0  0  0
  152.6890  143.8564  157.5384 H   0  0  0  0  0  0  0  0  0  0  0  0
  151.2405  143.2052  158.4229 H   0  0  0  0  0  0  0  0  0  0  0  0
  152.3004  146.0993  158.4285 H   0  0  0  0  0  0  0  0  0  0  0  0
  150.6139  145.5370  158.7537 H   0  0  0  0  0  0  0  0  0  0  0  0
  151.2525  144.6011  160.9054 H   0  0  0  0  0  0  0  0  0  0  0  0
  152.7070  145.6867  160.8010 H   0  0  0  0  0  0  0  0  0  0  0  0
  149.4872  140.1136  158.0858 H   0  0  0  0  0  0  0  0  0  0  0  0
  149.4419  142.3025  159.2240 H   0  0  0  0  0  0  0  0  0  0  0  0
  148.2173  142.2682  157.9686 H   0  0  0  0  0  0  0  0  0  0  0  0
  149.7234  143.1423  157.7035 H   0  0  0  0  0  0  0  0  0  0  0  0
  148.4262  142.6262  155.7736 H   0  0  0  0  0  0  0  0  0  0  0  0
  148.1752  141.5463  153.2815 H   0  0  0  0  0  0  0  0  0  0  0  0
  149.5529  139.1518  153.4978 H   0  0  0  0  0  0  0  0  0  0  0  0
  1  2  1  0  0  0  0
  1 18  1  0  0  0  0
  1 19  1  0  0  0  0
  1 20  1  0  0  0  0
  2  3  1  0  0  0  0
  2 11  1  0  0  0  0
  2 21  1  0  0  0  0
  3  4  1  0  0  0  0
  3 22  1  0  0  0  0
  4  5  1  0  0  0  0
  4 23  1  0  0  0  0
  4 24  1  0  0  0  0
  5  6  2  0  0  0  0
  5  7  1  0  0  0  0
  7 10  1  0  0  0  0
  7  8  1  0  0  0  0
  8  9  1  0  0  0  0
  8 25  1  0  0  0  0
  8 26  1  0  0  0  0
  9 10  1  0  0  0  0
  9 27  1  0  0  0  0
  9 28  1  0  0  0  0
 10 29  1  0  0  0  0
 10 30  1  0  0  0  0
 11 12  1  0  0  0  0
 11 13  1  0  0  0  0
 11 31  1  0  0  0  0
 12 32  1  0  0  0  0
 12 33  1  0  0  0  0
 12 34  1  0  0  0  0
 13 17  1  0  0  0  0
 13 14  1  0  0  0  0
 14 15  2  0  0  0  0
 14 35  1  0  0  0  0
 15 16  1  0  0  0  0
 15 36  1  0  0  0  0
 16 17  2  0  0  0  0
 16 37  1  0  0  0  0
M  END
> <s_m_source_file>
AV-unprocessed.smi

> <i_m_source_file_index>
3149

> <i_lp_mmshare_version>
43012

> <i_f3d_flags>
0

> <s_epik_input>
bjFbY0hdW2NIXVtjSF1uMVtDQEBIXShbQ0gzXSlbQ0BIXShbQ0gzXSlbTkhdW0NIMl1DKD1PKU4yW0NIMl1bQ0gyXVtDSDJdMg==

> <s_epik_cmdline>
J2VwaWtfcHl0aG9uJywgJy1waCcsICc3LjAnLCAnLXRuJywgJzgnLCAnLW1hJywgJzIwMCcsICctbWV0YWxfYmluZGluZycsICctaW1hZScsICc8aW5maWxlLm1hZT4nLCAnLW9tYWUnLCAnPG91dGZpbGUubWFlPic=

> <r_lp_tautomer_probability>
1

> <r_epik_Ionization_Penalty>
0.918674

> <r_epik_Ionization_Penalty_Charging>
0

> <r_epik_Ionization_Penalty_Neutral>
0.918674

> <r_epik_State_Penalty>
0.958258

> <r_epik_Charging_Adjusted_Penalty>
0.958258

> <i_epik_Tot_Q>
0

> <i_epik_Tot_abs_Q>
0

> <r_epik_Metal_State_Penalty>
0.956881

> <b_epik_Metal_Only>
0

> <s_lp_Force_Field>
OPLS_2005

> <r_lp_Energy>
23.4504

> <b_lp_Chiralities_Consistent>
1

> <s_lp_Variant>
AV-unprocessed.smi:3149-7

> <Gold.Version>
5.8.1

> <Gold.Id.Protein>
6NUR|6NUR_protein|mol2

> <Gold.PLP.Fitness>
41.6657

> <Gold.PLP.PLP>
-37.9879

> <Gold.PLP.part.hbond>
0.0000

> <Gold.PLP.part.metal>
0.0000

> <Gold.PLP.part.buried>
-1.9041

> <Gold.PLP.part.nonpolar>
-35.1333

> <Gold.PLP.part.repulsive>
0.0711

> <Gold.PLP.ligand.clash>
0.0000

> <Gold.PLP.ligand.torsion>
1.2070

> <Gold.PLP.Chemscore.Hbond>
0.0000

> <Gold.PLP.Chemscore.CHOScore>
1.7333

> <Gold.PLP.Chemscore.Metal>
0.0000

> <Gold.Chemscore.Hbonds>
donor molecule, donor type, donor heavy atom, donor atom, acceptor molecule, acceptor atom, score
      L1  C    14    35       P1  8028  1.00
      L1  C    16    37       P1  7957  0.69

> <Gold.PLP.Chemscore.Internal.Correction>
0.8919

> <Gold.Rescore>
     Score         DG    S(hbond)    S(metal)    S(lipo)     H(rot)  DE(clash)    DE(int)     intcor
      8.45     -11.20       0.00        0.00      87.98       1.79       0.03       2.72       ----

> <Gold.Chemscore.Fitness>
8.4506

> <Gold.Chemscore.DG>
-11.1975

> <Gold.Chemscore.ZeroCoef>
-5.4800

> <Gold.Chemscore.Hbond>
0.0000

> <Gold.Chemscore.Metal>
0.0000

> <Gold.Chemscore.Lipo>
87.9774

> <Gold.Chemscore.Internal_Hbond>
0.0000

> <Gold.Chemscore.DEClash>
0.0277

> <Gold.Chemscore.DEInternal>
2.7193

> <Gold.Chemscore.Rot>
1.7874

> <Gold.Chemscore.Internal.Correction>
   9.000000E+99

> <Gold.Chemscore.Hbond.Weighted>
-0.0000

> <Gold.Chemscore.Metal.Weighted>
-0.0000

> <Gold.Chemscore.Lipo.Weighted>
-10.2934

> <Gold.Chemscore.Internal_Hbond.Weighted>
0.0000

> <Gold.Chemscore.DEClash.Weighted>
0.0277

> <Gold.Chemscore.DEInternal.Weighted>
2.7193

> <Gold.Chemscore.Rot.Weighted>
4.5758

> <Gold.Chemscore.Internal.Correction.Weighted>
   9.000000E+99

> <Gold.Protein.RotatedTorsions>
[ 6907 6896 6895 6894 ] final -126.66 input  -60.11 | X-H torsion
[ 7974 7965 7964 7962 ] final  -15.54 input  175.53 | X-H torsion
[ 8008 7997 7996 7995 ] final  108.99 input   59.86 | X-H torsion
[ 10167 10162 10161 10158 ] final  110.31 input  -65.29 | X-H torsion
[ 10718 10713 10712 10709 ] final -163.33 input   66.30 | X-H torsion
[ 10763 10752 10751 10750 ] final -136.32 input  -60.55 | X-H torsion
[ 11005 11000 10999 10996 ] final  135.95 input  -57.11 | X-H torsion

> <Gold.Protein.ActiveResidues>
 VAL166  LYS551  ARG553  GLY616  TRP617  ASP618  TYR619  PRO620  LYS621  CYS622 
 ASP623  PHE694  ASN695  SER759  ASP760  ASP761  ALA762  ILE779  LEU786  VAL792 
 PHE793  MET794  SER795  GLU796  ALA797  LYS798  CYS799  TRP800  GLU811  SER814 

> <Gold.Protein.RotatedAtoms>
  150.8992  133.7140  159.2883 H   0  0  0  0  0  0  0  0  0  0  0  0  # atno 6907 bound_to 6896
  151.4664  135.1041  159.9749 H   0  0  0  0  0  0  0  0  0  0  0  0  # atno 6908 bound_to 6896
  152.4867  133.8343  159.7175 H   0  0  0  0  0  0  0  0  0  0  0  0  # atno 6909 bound_to 6896
  146.2027  140.3507  142.8417 H   0  0  0  0  0  0  0  0  0  0  0  0  # atno 7974 bound_to 7965
  156.1945  140.3066  155.9399 H   0  0  0  0  0  0  0  0  0  0  0  0  # atno 8008 bound_to 7997
  155.3097  140.0450  157.3051 H   0  0  0  0  0  0  0  0  0  0  0  0  # atno 8009 bound_to 7997
  154.5493  140.2286  155.8521 H   0  0  0  0  0  0  0  0  0  0  0  0  # atno 8010 bound_to 7997
  139.6698  144.7126  151.1708 H   0  0  0  0  0  0  0  0  0  0  0  0  # atno 10167 bound_to 10162
  156.6231  130.8898  151.2962 H   0  0  0  0  0  0  0  0  0  0  0  0  # atno 10718 bound_to 10713
  154.8686  135.3676  154.5042 H   0  0  0  0  0  0  0  0  0  0  0  0  # atno 10763 bound_to 10752
  153.5680  135.7021  153.5522 H   0  0  0  0  0  0  0  0  0  0  0  0  # atno 10764 bound_to 10752
  153.3567  135.4057  155.1651 H   0  0  0  0  0  0  0  0  0  0  0  0  # atno 10765 bound_to 10752
  140.0014  134.9477  157.0079 H   0  0  0  0  0  0  0  0  0  0  0  0  # atno 11005 bound_to 11000
  144.8721  140.7286  143.6040 LP  0  0  0  0  0  0  0  0  0  0  0  0  # atno 17320 bound_to 7965
  145.3427  139.1728  143.4477 LP  0  0  0  0  0  0  0  0  0  0  0  0  # atno 17321 bound_to 7965
  140.7614  143.5861  150.8844 LP  0  0  0  0  0  0  0  0  0  0  0  0  # atno 17342 bound_to 10162
  139.9526  143.6255  152.3025 LP  0  0  0  0  0  0  0  0  0  0  0  0  # atno 17343 bound_to 10162
  157.7222  130.9573  150.1484 LP  0  0  0  0  0  0  0  0  0  0  0  0  # atno 17370 bound_to 10713
  156.2295  130.3681  149.8461 LP  0  0  0  0  0  0  0  0  0  0  0  0  # atno 17371 bound_to 10713
  140.4722  134.1375  155.7204 LP  0  0  0  0  0  0  0  0  0  0  0  0  # atno 17394 bound_to 11000
  141.1644  133.8731  157.1756 LP  0  0  0  0  0  0  0  0  0  0  0  0  # atno 17395 bound_to 11000

$$$$
