AV-unprocessed.smi:3243|AV-procd|sdf|12396|dock1
  -GOLD-   2272018263D 1   1.00000     0.00000
 Structure written by MMmdl.
 37 38  0  0  0  0  0  0  0  0  1 V2000
  152.5065  143.5544  162.0634 C   0  0  0  0  0  0  0  0  0  0  0  0
  152.7392  143.7812  160.5627 C   0  0  0  0  0  0  0  0  0  0  0  0
  151.8927  144.9262  159.9878 C   0  0  0  0  0  0  0  0  0  0  0  0
  152.5894  142.5189  159.7728 C   0  0  0  0  0  0  0  0  0  0  0  0
  151.9679  142.4521  158.5915 N   0  0  0  0  0  0  0  0  0  0  0  0
  151.9576  141.1603  158.0573 C   0  0  0  0  0  0  0  0  0  0  0  0
  151.2909  140.9017  156.7405 C   0  0  0  0  0  0  0  0  0  0  0  0
  150.8436  142.2026  156.0534 C   0  0  0  0  0  0  0  0  0  0  0  0
  149.5935  142.0243  155.3241 N   0  0  0  0  0  0  0  0  0  0  0  0
  149.3205  141.0020  154.4989 C   0  0  0  0  0  0  0  0  0  0  0  0
  150.1248  140.1061  154.2434 O   0  0  0  0  0  0  0  0  0  0  0  0
  147.9759  141.0742  153.8577 C   0  0  2  0  0  0  0  0  0  0  0  0
  147.1232  142.3003  154.1142 C   0  0  0  0  0  0  0  0  0  0  0  0
  146.7334  140.9813  154.7346 C   0  0  2  0  0  0  0  0  0  0  0  0
  146.7632  140.8182  156.2442 C   0  0  0  0  0  0  0  0  0  0  0  0
  152.5890  140.2397  158.8562 C   0  0  0  0  0  0  0  0  0  0  0  0
  153.2178  140.9647  160.3101 S   0  0  0  0  0  0  0  0  0  0  0  0
  153.1811  142.7919  162.4539 H   0  0  0  0  0  0  0  0  0  0  0  0
  151.4847  143.2288  162.2616 H   0  0  0  0  0  0  0  0  0  0  0  0
  152.6790  144.4697  162.6302 H   0  0  0  0  0  0  0  0  0  0  0  0
  153.7808  144.0869  160.4572 H   0  0  0  0  0  0  0  0  0  0  0  0
  152.1464  145.1151  158.9442 H   0  0  0  0  0  0  0  0  0  0  0  0
  152.0566  145.8518  160.5402 H   0  0  0  0  0  0  0  0  0  0  0  0
  150.8279  144.6952  160.0354 H   0  0  0  0  0  0  0  0  0  0  0  0
  151.9705  140.3538  156.0863 H   0  0  0  0  0  0  0  0  0  0  0  0
  150.4268  140.2514  156.8836 H   0  0  0  0  0  0  0  0  0  0  0  0
  150.6888  142.9813  156.8008 H   0  0  0  0  0  0  0  0  0  0  0  0
  151.6207  142.5687  155.3802 H   0  0  0  0  0  0  0  0  0  0  0  0
  148.8818  142.7279  155.4584 H   0  0  0  0  0  0  0  0  0  0  0  0
  147.8985  140.5911  152.8858 H   0  0  0  0  0  0  0  0  0  0  0  0
  147.5153  143.0715  154.7754 H   0  0  0  0  0  0  0  0  0  0  0  0
  146.5261  142.6696  153.2830 H   0  0  0  0  0  0  0  0  0  0  0  0
  145.8971  140.4580  154.2748 H   0  0  0  0  0  0  0  0  0  0  0  0
  147.5353  141.4417  156.6963 H   0  0  0  0  0  0  0  0  0  0  0  0
  146.9574  139.7775  156.5044 H   0  0  0  0  0  0  0  0  0  0  0  0
  145.8010  141.1064  156.6677 H   0  0  0  0  0  0  0  0  0  0  0  0
  152.7200  139.1824  158.6798 H   0  0  0  0  0  0  0  0  0  0  0  0
  1  2  1  0  0  0  0
  1 18  1  0  0  0  0
  1 19  1  0  0  0  0
  1 20  1  0  0  0  0
  2  3  1  0  0  0  0
  2  4  1  0  0  0  0
  2 21  1  0  0  0  0
  3 22  1  0  0  0  0
  3 23  1  0  0  0  0
  3 24  1  0  0  0  0
  4 17  1  0  0  0  0
  4  5  2  0  0  0  0
  5  6  1  0  0  0  0
  6  7  1  0  0  0  0
  6 16  2  0  0  0  0
  7  8  1  0  0  0  0
  7 25  1  0  0  0  0
  7 26  1  0  0  0  0
  8  9  1  0  0  0  0
  8 27  1  0  0  0  0
  8 28  1  0  0  0  0
  9 10  1  0  0  0  0
  9 29  1  0  0  0  0
 10 11  2  0  0  0  0
 10 12  1  0  0  0  0
 12 14  1  0  0  0  0
 12 13  1  0  0  0  0
 12 30  1  0  0  0  0
 13 14  1  0  0  0  0
 13 31  1  0  0  0  0
 13 32  1  0  0  0  0
 14 15  1  0  0  0  0
 14 33  1  0  0  0  0
 15 34  1  0  0  0  0
 15 35  1  0  0  0  0
 15 36  1  0  0  0  0
 16 17  1  0  0  0  0
 16 37  1  0  0  0  0
M  END
> <s_m_source_file>
AV-unprocessed.smi

> <i_m_source_file_index>
3243

> <i_lp_mmshare_version>
43012

> <i_f3d_flags>
0

> <s_epik_input>
W0NIM11bQ0hdKFtDSDNdKWMxbmMoW2NIXXMxKVtDSDJdW0NIMl1bTkhdQyg9TylbQ0BASF0yW0NIMl1bQ0BIXTJbQ0gzXQ==

> <s_epik_cmdline>
J2VwaWtfcHl0aG9uJywgJy1waCcsICc3LjAnLCAnLXRuJywgJzgnLCAnLW1hJywgJzIwMCcsICctbWV0YWxfYmluZGluZycsICctaW1hZScsICc8aW5maWxlLm1hZT4nLCAnLW9tYWUnLCAnPG91dGZpbGUubWFlPic=

> <r_epik_Ionization_Penalty>
0.00084212

> <r_epik_Ionization_Penalty_Charging>
0

> <r_epik_Ionization_Penalty_Neutral>
0.00084212

> <r_epik_State_Penalty>
0.000542609

> <r_epik_Charging_Adjusted_Penalty>
0.000542609

> <i_epik_Tot_Q>
0

> <i_epik_Tot_abs_Q>
0

> <r_epik_Metal_State_Penalty>
-0

> <b_epik_Metal_Only>
0

> <s_lp_Force_Field>
OPLS_2005

> <r_lp_Energy>
-0.500157

> <b_lp_Chiralities_Consistent>
1

> <s_lp_Variant>
AV-unprocessed.smi:3243-3

> <Gold.Version>
5.8.1

> <Gold.Id.Protein>
6NUR|6NUR_protein|mol2

> <Gold.PLP.Fitness>
44.1718

> <Gold.PLP.PLP>
-40.2921

> <Gold.PLP.part.hbond>
-2.0000

> <Gold.PLP.part.metal>
0.0000

> <Gold.PLP.part.buried>
-5.5622

> <Gold.PLP.part.nonpolar>
-32.3864

> <Gold.PLP.part.repulsive>
0.3345

> <Gold.PLP.ligand.clash>
0.0000

> <Gold.PLP.ligand.torsion>
0.7649

> <Gold.PLP.Chemscore.Hbond>
1.7360

> <Gold.PLP.Chemscore.CHOScore>
0.0000

> <Gold.PLP.Chemscore.Metal>
0.0000

> <Gold.Chemscore.Hbonds>
donor molecule, donor type, donor heavy atom, donor atom, acceptor molecule, acceptor atom, score
      L1  H     9    29       P1  8028  0.70
      P1  H  7989  7998       L1    11  1.00

> <Gold.PLP.Chemscore.Internal.Correction>
0.2015

> <Gold.Rescore>
     Score         DG    S(hbond)    S(metal)    S(lipo)     H(rot)  DE(clash)    DE(int)     intcor
     17.26     -19.10       1.51        0.00     105.88       1.49       0.19       1.65       ----

> <Gold.Chemscore.Fitness>
17.2601

> <Gold.Chemscore.DG>
-19.0982

> <Gold.Chemscore.ZeroCoef>
-5.4800

> <Gold.Chemscore.Hbond>
1.5082

> <Gold.Chemscore.Metal>
0.0000

> <Gold.Chemscore.Lipo>
105.8766

> <Gold.Chemscore.Internal_Hbond>
0.0000

> <Gold.Chemscore.DEClash>
0.1901

> <Gold.Chemscore.DEInternal>
1.6480

> <Gold.Chemscore.Rot>
1.4870

> <Gold.Chemscore.Internal.Correction>
   9.000000E+99

> <Gold.Chemscore.Hbonds>
donor molecule, donor type, donor heavy atom, donor atom, acceptor molecule, acceptor atom, score
      L1  H     9    29       P1  8028  0.68
      P1  H  7989  7998       L1    11  0.62

> <Gold.Chemscore.Hbond.Weighted>
-5.0373

> <Gold.Chemscore.Metal.Weighted>
-0.0000

> <Gold.Chemscore.Lipo.Weighted>
-12.3876

> <Gold.Chemscore.Internal_Hbond.Weighted>
0.0000

> <Gold.Chemscore.DEClash.Weighted>
0.1901

> <Gold.Chemscore.DEInternal.Weighted>
1.6480

> <Gold.Chemscore.Rot.Weighted>
3.8067

> <Gold.Chemscore.Internal.Correction.Weighted>
   9.000000E+99

> <Gold.Protein.RotatedTorsions>
[ 6907 6896 6895 6894 ] final  120.60 input  -60.11 | X-H torsion
[ 7974 7965 7964 7962 ] final   15.42 input  175.53 | X-H torsion
[ 8008 7997 7996 7995 ] final -106.82 input   59.86 | X-H torsion
[ 10167 10162 10161 10158 ] final    2.18 input  -65.29 | X-H torsion
[ 10718 10713 10712 10709 ] final -147.65 input   66.30 | X-H torsion
[ 10763 10752 10751 10750 ] final -118.93 input  -60.55 | X-H torsion
[ 11005 11000 10999 10996 ] final  -38.60 input  -57.11 | X-H torsion

> <Gold.Protein.ActiveResidues>
 VAL166  LYS551  ARG553  GLY616  TRP617  ASP618  TYR619  PRO620  LYS621  CYS622 
 ASP623  PHE694  ASN695  SER759  ASP760  ASP761  ALA762  ILE779  LEU786  VAL792 
 PHE793  MET794  SER795  GLU796  ALA797  LYS798  CYS799  TRP800  GLU811  SER814 

> <Gold.Protein.RotatedAtoms>
  152.4385  133.7405  159.6637 H   0  0  0  0  0  0  0  0  0  0  0  0  # atno 6907 bound_to 6896
  150.8272  133.8141  159.3119 H   0  0  0  0  0  0  0  0  0  0  0  0  # atno 6908 bound_to 6896
  151.5805  135.1061  160.0068 H   0  0  0  0  0  0  0  0  0  0  0  0  # atno 6909 bound_to 6896
  146.2279  139.8897  142.8557 H   0  0  0  0  0  0  0  0  0  0  0  0  # atno 7974 bound_to 7965
  154.9201  140.0407  157.1993 H   0  0  0  0  0  0  0  0  0  0  0  0  # atno 8008 bound_to 7997
  154.8262  140.2891  155.5732 H   0  0  0  0  0  0  0  0  0  0  0  0  # atno 8009 bound_to 7997
  156.2983  140.2509  156.3178 H   0  0  0  0  0  0  0  0  0  0  0  0  # atno 8010 bound_to 7997
  140.6648  143.7210  150.7805 H   0  0  0  0  0  0  0  0  0  0  0  0  # atno 10167 bound_to 10162
  156.4102  130.7978  151.2194 H   0  0  0  0  0  0  0  0  0  0  0  0  # atno 10718 bound_to 10713
  154.8602  135.4256  154.2218 H   0  0  0  0  0  0  0  0  0  0  0  0  # atno 10763 bound_to 10752
  153.3222  135.6983  153.7027 H   0  0  0  0  0  0  0  0  0  0  0  0  # atno 10764 bound_to 10752
  153.6077  135.3525  155.2941 H   0  0  0  0  0  0  0  0  0  0  0  0  # atno 10765 bound_to 10752
  141.0040  133.6941  156.2075 H   0  0  0  0  0  0  0  0  0  0  0  0  # atno 11005 bound_to 11000
  145.2430  141.0016  143.3925 LP  0  0  0  0  0  0  0  0  0  0  0  0  # atno 17320 bound_to 7965
  144.9436  139.4161  143.6437 LP  0  0  0  0  0  0  0  0  0  0  0  0  # atno 17321 bound_to 7965
  140.0885  143.4900  152.2492 LP  0  0  0  0  0  0  0  0  0  0  0  0  # atno 17342 bound_to 10162
  139.5893  144.7543  151.3442 LP  0  0  0  0  0  0  0  0  0  0  0  0  # atno 17343 bound_to 10162
  157.7507  131.0260  150.3943 LP  0  0  0  0  0  0  0  0  0  0  0  0  # atno 17370 bound_to 10713
  156.4239  130.3958  149.6806 LP  0  0  0  0  0  0  0  0  0  0  0  0  # atno 17371 bound_to 10713
  140.6843  134.4733  157.5589 LP  0  0  0  0  0  0  0  0  0  0  0  0  # atno 17394 bound_to 11000
  139.9053  134.8462  156.1730 LP  0  0  0  0  0  0  0  0  0  0  0  0  # atno 17395 bound_to 11000

$$$$
