AV-unprocessed.smi:2558|AV-procd|sdf|10033|dock6
  -GOLD-   2272014 73D 1   1.00000     0.00000
 Structure written by MMmdl.
 42 43  0  0  0  0  0  0  0  0  2 V2000
  150.4117  139.1519  153.9490 C   0  0  0  0  0  0  0  0  0  0  0  0
  151.6084  139.2045  155.3468 S   0  0  0  0  0  0  0  0  0  0  0  0
  152.2450  137.8826  155.4641 O   0  0  0  0  0  0  0  0  0  0  0  0
  152.4542  140.3976  155.1820 O   0  0  0  0  0  0  0  0  0  0  0  0
  150.5659  139.4635  156.7305 N   0  0  0  0  0  0  0  0  0  0  0  0
  149.3930  138.7085  156.9746 C   0  0  0  0  0  0  0  0  0  0  0  0
  148.6978  138.3557  156.0194 O   0  0  0  0  0  0  0  0  0  0  0  0
  149.2522  138.3613  158.2825 N   0  5  0  0  0  0  0  0  0  0  0  0
  148.8262  137.1517  158.7253 C   0  0  0  0  0  0  0  0  0  0  0  0
  149.0828  136.0492  158.2362 O   0  0  0  0  0  0  0  0  0  0  0  0
  148.0251  137.2513  159.8011 N   0  0  0  0  0  0  0  0  0  0  0  0
  147.4381  136.2112  160.5699 C   0  0  0  0  0  0  0  0  0  0  0  0
  147.2234  136.4387  161.9444 C   0  0  0  0  0  0  0  0  0  0  0  0
  146.6693  135.4101  162.7299 C   0  0  0  0  0  0  0  0  0  0  0  0
  146.3620  134.1847  162.1076 C   0  0  0  0  0  0  0  0  0  0  0  0
  146.5781  133.9436  160.7974 N   0  0  0  0  0  0  0  0  0  0  0  0
  147.1070  134.9362  160.0489 C   0  0  0  0  0  0  0  0  0  0  0  0
  150.9310  140.5932  157.6288 C   0  0  0  0  0  0  0  0  0  0  0  0
  150.9368  141.9487  156.8911 C   0  0  0  0  0  0  0  0  0  0  0  0
  151.2215  143.1001  157.8697 C   0  0  0  0  0  0  0  0  0  0  0  0
  152.5294  142.8665  158.6454 C   0  0  0  0  0  0  0  0  0  0  0  0
  152.5132  141.5172  159.3846 C   0  0  0  0  0  0  0  0  0  0  0  0
  152.2417  140.3550  158.4157 C   0  0  0  0  0  0  0  0  0  0  0  0
  150.9541  139.0202  153.0134 H   0  0  0  0  0  0  0  0  0  0  0  0
  149.8495  140.0848  153.9154 H   0  0  0  0  0  0  0  0  0  0  0  0
  149.7225  138.3194  154.0885 H   0  0  0  0  0  0  0  0  0  0  0  0
  147.7632  138.1896  160.0651 H   0  0  0  0  0  0  0  0  0  0  0  0
  147.4743  137.3895  162.3917 H   0  0  0  0  0  0  0  0  0  0  0  0
  146.4858  135.5565  163.7840 H   0  0  0  0  0  0  0  0  0  0  0  0
  145.9374  133.3731  162.6798 H   0  0  0  0  0  0  0  0  0  0  0  0
  147.2871  134.6812  159.0156 H   0  0  0  0  0  0  0  0  0  0  0  0
  150.1538  140.6642  158.3898 H   0  0  0  0  0  0  0  0  0  0  0  0
  151.6917  141.9597  156.1058 H   0  0  0  0  0  0  0  0  0  0  0  0
  149.9771  142.1116  156.3996 H   0  0  0  0  0  0  0  0  0  0  0  0
  151.2750  144.0436  157.3263 H   0  0  0  0  0  0  0  0  0  0  0  0
  150.3925  143.1949  158.5723 H   0  0  0  0  0  0  0  0  0  0  0  0
  153.3725  142.8928  157.9536 H   0  0  0  0  0  0  0  0  0  0  0  0
  152.6883  143.6775  159.3567 H   0  0  0  0  0  0  0  0  0  0  0  0
  153.4642  141.3607  159.8942 H   0  0  0  0  0  0  0  0  0  0  0  0
  151.7463  141.5341  160.1601 H   0  0  0  0  0  0  0  0  0  0  0  0
  152.1814  139.4175  158.9695 H   0  0  0  0  0  0  0  0  0  0  0  0
  153.0926  140.2632  157.7402 H   0  0  0  0  0  0  0  0  0  0  0  0
  1  2  1  0  0  0  0
  1 24  1  0  0  0  0
  1 25  1  0  0  0  0
  1 26  1  0  0  0  0
  2  3  2  0  0  0  0
  2  4  2  0  0  0  0
  2  5  1  0  0  0  0
  5  6  1  0  0  0  0
  5 18  1  0  0  0  0
  6  7  2  0  0  0  0
  6  8  1  0  0  0  0
  8  9  1  0  0  0  0
  9 10  2  0  0  0  0
  9 11  1  0  0  0  0
 11 12  1  0  0  0  0
 11 27  1  0  0  0  0
 12 17  1  0  0  0  0
 12 13  2  0  0  0  0
 13 14  1  0  0  0  0
 13 28  1  0  0  0  0
 14 15  2  0  0  0  0
 14 29  1  0  0  0  0
 15 16  1  0  0  0  0
 15 30  1  0  0  0  0
 16 17  2  0  0  0  0
 17 31  1  0  0  0  0
 18 23  1  0  0  0  0
 18 19  1  0  0  0  0
 18 32  1  0  0  0  0
 19 20  1  0  0  0  0
 19 33  1  0  0  0  0
 19 34  1  0  0  0  0
 20 21  1  0  0  0  0
 20 35  1  0  0  0  0
 20 36  1  0  0  0  0
 21 22  1  0  0  0  0
 21 37  1  0  0  0  0
 21 38  1  0  0  0  0
 22 23  1  0  0  0  0
 22 39  1  0  0  0  0
 22 40  1  0  0  0  0
 23 41  1  0  0  0  0
 23 42  1  0  0  0  0
M  CHG  1   8  -1
M  END
> <s_m_source_file>
AV-unprocessed.smi

> <i_m_source_file_index>
2558

> <i_lp_mmshare_version>
43012

> <i_f3d_flags>
0

> <s_epik_input>
W0NIMl0xW0NIMl1bQ0gyXVtDSDJdW0NIMl1bQ0hdMU4oUyg9TykoPU8pW0NIM10pQyg9TylbTkhdQyg9TylbTkhdYzJbY0hdW2NIXVtjSF1uW2NIXTI=

> <s_epik_cmdline>
J2VwaWtfcHl0aG9uJywgJy1waCcsICc3LjAnLCAnLXRuJywgJzgnLCAnLW1hJywgJzIwMCcsICctbWV0YWxfYmluZGluZycsICctaW1hZScsICc8aW5maWxlLm1hZT4nLCAnLW9tYWUnLCAnPG91dGZpbGUubWFlPic=

> <r_epik_Ionization_Penalty>
6.14208

> <r_epik_Ionization_Penalty_Charging>
6.14039

> <r_epik_Ionization_Penalty_Neutral>
0.00168563

> <r_epik_State_Penalty>
6.14513

> <r_epik_Charging_Adjusted_Penalty>
12.2855

> <i_epik_Tot_Q>
-1

> <i_epik_Tot_abs_Q>
1

> <r_epik_Metal_State_Penalty>
2.09011

> <b_epik_Metal_Only>
1

> <s_lp_Force_Field>
OPLS_2005

> <r_lp_Energy>
23.9967

> <b_lp_Chiralities_Consistent>
1

> <s_lp_Variant>
AV-unprocessed.smi:2558-2

> <Gold.Version>
5.8.1

> <Gold.Id.Protein>
6NUR|6NUR_protein|mol2

> <Gold.PLP.Fitness>
47.9832

> <Gold.PLP.PLP>
-41.2128

> <Gold.PLP.part.hbond>
-4.0000

> <Gold.PLP.part.metal>
0.0000

> <Gold.PLP.part.buried>
-5.3792

> <Gold.PLP.part.nonpolar>
-33.2589

> <Gold.PLP.part.repulsive>
0.2727

> <Gold.PLP.ligand.clash>
0.0000

> <Gold.PLP.ligand.torsion>
2.5671

> <Gold.PLP.Chemscore.Hbond>
2.8325

> <Gold.PLP.Chemscore.CHOScore>
0.0000

> <Gold.PLP.Chemscore.Metal>
0.0000

> <Gold.Chemscore.Hbonds>
donor molecule, donor type, donor heavy atom, donor atom, acceptor molecule, acceptor atom, score
      P1  H  7989  7998       L1     4  0.34
      P1  H  7997  8010       L1     4  0.75

> <Gold.PLP.Chemscore.Internal.Correction>
3.4070

> <Gold.Rescore>
     Score         DG    S(hbond)    S(metal)    S(lipo)     H(rot)  DE(clash)    DE(int)     intcor
     16.95     -23.61       2.83        0.00      96.19       1.00       0.07       6.60       ----

> <Gold.Chemscore.Fitness>
16.9534

> <Gold.Chemscore.DG>
-23.6144

> <Gold.Chemscore.ZeroCoef>
-5.4800

> <Gold.Chemscore.Hbond>
2.8264

> <Gold.Chemscore.Metal>
0.0000

> <Gold.Chemscore.Lipo>
96.1908

> <Gold.Chemscore.Internal_Hbond>
0.0000

> <Gold.Chemscore.DEClash>
0.0650

> <Gold.Chemscore.DEInternal>
6.5960

> <Gold.Chemscore.Rot>
1.0000

> <Gold.Chemscore.Internal.Correction>
   9.000000E+99

> <Gold.Chemscore.Hbonds>
donor molecule, donor type, donor heavy atom, donor atom, acceptor molecule, acceptor atom, score
      P1  H  7989  7998       L1     4  0.04
      P1  H  7997  8010       L1     4  0.62
      P1  H 10752 10765       L1     3  0.01

> <Gold.Chemscore.Hbond.Weighted>
-9.4401

> <Gold.Chemscore.Metal.Weighted>
-0.0000

> <Gold.Chemscore.Lipo.Weighted>
-11.2543

> <Gold.Chemscore.Internal_Hbond.Weighted>
0.0000

> <Gold.Chemscore.DEClash.Weighted>
0.0650

> <Gold.Chemscore.DEInternal.Weighted>
6.5960

> <Gold.Chemscore.Rot.Weighted>
2.5600

> <Gold.Chemscore.Internal.Correction.Weighted>
   9.000000E+99

> <Gold.Protein.RotatedTorsions>
[ 6907 6896 6895 6894 ] final  -55.52 input  -60.11 | X-H torsion
[ 7974 7965 7964 7962 ] final   69.84 input  175.53 | X-H torsion
[ 8008 7997 7996 7995 ] final   90.58 input   59.86 | X-H torsion
[ 10167 10162 10161 10158 ] final  -12.17 input  -65.29 | X-H torsion
[ 10718 10713 10712 10709 ] final   83.22 input   66.30 | X-H torsion
[ 10763 10752 10751 10750 ] final -166.56 input  -60.55 | X-H torsion
[ 11005 11000 10999 10996 ] final -159.31 input  -57.11 | X-H torsion

> <Gold.Protein.ActiveResidues>
 VAL166  LYS551  ARG553  GLY616  TRP617  ASP618  TYR619  PRO620  LYS621  CYS622 
 ASP623  PHE694  ASN695  SER759  ASP760  ASP761  ALA762  ILE779  LEU786  VAL792 
 PHE793  MET794  SER795  GLU796  ALA797  LYS798  CYS799  TRP800  GLU811  SER814 

> <Gold.Protein.RotatedAtoms>
  150.8244  134.7468  159.6800 H   0  0  0  0  0  0  0  0  0  0  0  0  # atno 6907 bound_to 6896
  152.4357  134.5688  159.9925 H   0  0  0  0  0  0  0  0  0  0  0  0  # atno 6908 bound_to 6896
  151.5864  133.3334  159.3054 H   0  0  0  0  0  0  0  0  0  0  0  0  # atno 6909 bound_to 6896
  145.7855  139.2908  143.1241 H   0  0  0  0  0  0  0  0  0  0  0  0  # atno 7974 bound_to 7965
  156.0136  140.3348  155.6966 H   0  0  0  0  0  0  0  0  0  0  0  0  # atno 8008 bound_to 7997
  155.6122  140.0666  157.2720 H   0  0  0  0  0  0  0  0  0  0  0  0  # atno 8009 bound_to 7997
  154.4290  140.1791  156.1272 H   0  0  0  0  0  0  0  0  0  0  0  0  # atno 8010 bound_to 7997
  140.7155  143.5561  150.9247 H   0  0  0  0  0  0  0  0  0  0  0  0  # atno 10167 bound_to 10162
  157.6874  131.0081  150.2491 H   0  0  0  0  0  0  0  0  0  0  0  0  # atno 10718 bound_to 10713
  154.6821  135.2956  154.9599 H   0  0  0  0  0  0  0  0  0  0  0  0  # atno 10763 bound_to 10752
  154.0590  135.6634  153.4813 H   0  0  0  0  0  0  0  0  0  0  0  0  # atno 10764 bound_to 10752
  153.0554  135.5148  154.7869 H   0  0  0  0  0  0  0  0  0  0  0  0  # atno 10765 bound_to 10752
  140.6439  134.4521  157.5234 H   0  0  0  0  0  0  0  0  0  0  0  0  # atno 11005 bound_to 11000
  146.0030  140.8503  143.0009 LP  0  0  0  0  0  0  0  0  0  0  0  0  # atno 17320 bound_to 7965
  144.6789  140.2380  143.7347 LP  0  0  0  0  0  0  0  0  0  0  0  0  # atno 17321 bound_to 7965
  139.9286  143.6520  152.3081 LP  0  0  0  0  0  0  0  0  0  0  0  0  # atno 17342 bound_to 10162
  139.6963  144.7641  151.1351 LP  0  0  0  0  0  0  0  0  0  0  0  0  # atno 17343 bound_to 10162
  156.3091  130.3769  149.7678 LP  0  0  0  0  0  0  0  0  0  0  0  0  # atno 17370 bound_to 10713
  156.5284  130.8246  151.3228 LP  0  0  0  0  0  0  0  0  0  0  0  0  # atno 17371 bound_to 10713
  139.9070  134.8428  156.1669 LP  0  0  0  0  0  0  0  0  0  0  0  0  # atno 17394 bound_to 11000
  141.0586  133.6853  156.1909 LP  0  0  0  0  0  0  0  0  0  0  0  0  # atno 17395 bound_to 11000

$$$$
