AV-unprocessed.smi:2168|AV-procd|sdf|8818|dock8
  -GOLD-   2272012 13D 1   1.00000     0.00000
 Structure written by MMmdl.
 46 47  0  0  0  0  0  0  0  0  1 V2000
  150.0532  140.8832  157.5278 C   0  0  0  0  0  0  0  0  0  0  0  0
  150.1533  139.4059  157.9361 C   0  0  0  0  0  0  0  0  0  0  0  0
  150.5628  138.5454  156.8113 N   0  0  0  0  0  0  0  0  0  0  0  0
  151.3832  139.2084  155.7786 C   0  0  0  0  0  0  0  0  0  0  0  0
  151.2626  138.4865  154.4292 C   0  0  0  0  0  0  0  0  0  0  0  0
  150.8657  136.8706  157.1545 S   0  0  0  0  0  0  0  0  0  0  0  0
  152.2454  136.5484  156.7592 O   0  0  0  0  0  0  0  0  0  0  0  0
  150.3801  136.5604  158.5080 O   0  0  0  0  0  0  0  0  0  0  0  0
  149.7934  136.1400  156.0231 N   0  0  0  0  0  0  0  0  0  0  0  0
  150.1908  134.9576  155.2662 C   0  0  0  0  0  0  0  0  0  0  0  0
  149.0461  134.4016  154.4445 C   0  0  0  0  0  0  0  0  0  0  0  0
  149.2787  133.4363  153.4464 C   0  0  0  0  0  0  0  0  0  0  0  0
  148.1897  132.9614  152.6912 C   0  0  0  0  0  0  0  0  0  0  0  0
  146.8936  133.4679  152.9524 C   0  0  0  0  0  0  0  0  0  0  0  0
  145.7878  133.0135  152.2005 N   0  0  0  0  0  0  0  0  0  0  0  0
  146.0228  131.8267  151.3810 C   0  0  0  0  0  0  0  0  0  0  0  0
  144.6897  131.2585  150.8642 C   0  0  0  0  0  0  0  0  0  0  0  0
  143.9683  132.2728  150.1735 O   0  0  0  0  0  0  0  0  0  0  0  0
  143.6516  133.3686  151.0248 C   0  0  0  0  0  0  0  0  0  0  0  0
  144.9481  134.0134  151.5427 C   0  0  0  0  0  0  0  0  0  0  0  0
  146.6758  134.3907  153.9229 N   0  0  0  0  0  0  0  0  0  0  0  0
  147.7234  134.8437  154.6437 C   0  0  0  0  0  0  0  0  0  0  0  0
  149.6766  141.4845  158.3553 H   0  0  0  0  0  0  0  0  0  0  0  0
  149.3703  141.0125  156.6877 H   0  0  0  0  0  0  0  0  0  0  0  0
  151.0210  141.2956  157.2427 H   0  0  0  0  0  0  0  0  0  0  0  0
  150.8519  139.2789  158.7637 H   0  0  0  0  0  0  0  0  0  0  0  0
  149.1794  139.0820  158.3028 H   0  0  0  0  0  0  0  0  0  0  0  0
  151.0915  140.2537  155.6717 H   0  0  0  0  0  0  0  0  0  0  0  0
  152.4263  139.2219  156.0958 H   0  0  0  0  0  0  0  0  0  0  0  0
  151.8678  138.9843  153.6716 H   0  0  0  0  0  0  0  0  0  0  0  0
  150.2324  138.4767  154.0738 H   0  0  0  0  0  0  0  0  0  0  0  0
  151.6017  137.4529  154.4917 H   0  0  0  0  0  0  0  0  0  0  0  0
  148.8002  136.2303  156.2349 H   0  0  0  0  0  0  0  0  0  0  0  0
  151.0268  135.2134  154.6146 H   0  0  0  0  0  0  0  0  0  0  0  0
  150.5484  134.1938  155.9578 H   0  0  0  0  0  0  0  0  0  0  0  0
  150.2760  133.0654  153.2597 H   0  0  0  0  0  0  0  0  0  0  0  0
  148.3597  132.2109  151.9340 H   0  0  0  0  0  0  0  0  0  0  0  0
  146.6613  132.1015  150.5405 H   0  0  0  0  0  0  0  0  0  0  0  0
  146.5462  131.0487  151.9345 H   0  0  0  0  0  0  0  0  0  0  0  0
  144.8749  130.4285  150.1824 H   0  0  0  0  0  0  0  0  0  0  0  0
  144.0896  130.8665  151.6870 H   0  0  0  0  0  0  0  0  0  0  0  0
  143.0682  134.0979  150.4629 H   0  0  0  0  0  0  0  0  0  0  0  0
  143.0271  133.0310  151.8535 H   0  0  0  0  0  0  0  0  0  0  0  0
  144.6983  134.8151  152.2391 H   0  0  0  0  0  0  0  0  0  0  0  0
  145.4994  134.4600  150.7139 H   0  0  0  0  0  0  0  0  0  0  0  0
  147.4973  135.5853  155.3957 H   0  0  0  0  0  0  0  0  0  0  0  0
  1  2  1  0  0  0  0
  1 23  1  0  0  0  0
  1 24  1  0  0  0  0
  1 25  1  0  0  0  0
  2  3  1  0  0  0  0
  2 26  1  0  0  0  0
  2 27  1  0  0  0  0
  3  4  1  0  0  0  0
  3  6  1  0  0  0  0
  4  5  1  0  0  0  0
  4 28  1  0  0  0  0
  4 29  1  0  0  0  0
  5 30  1  0  0  0  0
  5 31  1  0  0  0  0
  5 32  1  0  0  0  0
  6  7  2  0  0  0  0
  6  8  2  0  0  0  0
  6  9  1  0  0  0  0
  9 10  1  0  0  0  0
  9 33  1  0  0  0  0
 10 11  1  0  0  0  0
 10 34  1  0  0  0  0
 10 35  1  0  0  0  0
 11 22  1  0  0  0  0
 11 12  2  0  0  0  0
 12 13  1  0  0  0  0
 12 36  1  0  0  0  0
 13 14  2  0  0  0  0
 13 37  1  0  0  0  0
 14 15  1  0  0  0  0
 14 21  1  0  0  0  0
 15 20  1  0  0  0  0
 15 16  1  0  0  0  0
 16 17  1  0  0  0  0
 16 38  1  0  0  0  0
 16 39  1  0  0  0  0
 17 18  1  0  0  0  0
 17 40  1  0  0  0  0
 17 41  1  0  0  0  0
 18 19  1  0  0  0  0
 19 20  1  0  0  0  0
 19 42  1  0  0  0  0
 19 43  1  0  0  0  0
 20 44  1  0  0  0  0
 20 45  1  0  0  0  0
 21 22  2  0  0  0  0
 22 46  1  0  0  0  0
M  END
> <s_m_source_file>
AV-unprocessed.smi

> <i_m_source_file_index>
2168

> <i_lp_mmshare_version>
43012

> <i_f3d_flags>
0

> <s_epik_input>
W0NIM11bQ0gyXU4oW0NIMl1bQ0gzXSlTKD1PKSg9TylbTkhdW0NIMl1jMVtjSF1bY0hdYyhuW2NIXTEpTjJbQ0gyXVtDSDJdT1tDSDJdW0NIMl0y

> <s_epik_cmdline>
J2VwaWtfcHl0aG9uJywgJy1waCcsICc3LjAnLCAnLXRuJywgJzgnLCAnLW1hJywgJzIwMCcsICctbWV0YWxfYmluZGluZycsICctaW1hZScsICc8aW5maWxlLm1hZT4nLCAnLW9tYWUnLCAnPG91dGZpbGUubWFlPic=

> <r_lp_tautomer_probability>
1

> <r_epik_Ionization_Penalty>
0.0173889

> <r_epik_Ionization_Penalty_Charging>
0

> <r_epik_Ionization_Penalty_Neutral>
0.0173889

> <r_epik_State_Penalty>
0.0135122

> <r_epik_Charging_Adjusted_Penalty>
0.0135122

> <i_epik_Tot_Q>
0

> <i_epik_Tot_abs_Q>
0

> <r_epik_Metal_State_Penalty>
0.283451

> <b_epik_Metal_Only>
0

> <s_lp_Force_Field>
OPLS_2005

> <r_lp_Energy>
21.8709

> <b_lp_Chiralities_Consistent>
1

> <s_lp_Variant>
AV-unprocessed.smi:2168-1

> <Gold.Version>
5.8.1

> <Gold.Id.Protein>
6NUR|6NUR_protein|mol2

> <Gold.PLP.Fitness>
39.9979

> <Gold.PLP.PLP>
-34.9330

> <Gold.PLP.part.hbond>
-2.0000

> <Gold.PLP.part.metal>
0.0000

> <Gold.PLP.part.buried>
-6.6872

> <Gold.PLP.part.nonpolar>
-27.5982

> <Gold.PLP.part.repulsive>
0.4345

> <Gold.PLP.ligand.clash>
0.0000

> <Gold.PLP.ligand.torsion>
2.3105

> <Gold.PLP.Chemscore.Hbond>
1.8960

> <Gold.PLP.Chemscore.CHOScore>
0.0000

> <Gold.PLP.Chemscore.Metal>
0.0000

> <Gold.Chemscore.Hbonds>
donor molecule, donor type, donor heavy atom, donor atom, acceptor molecule, acceptor atom, score
      P1  H  6896  6909       L1     8  0.83
      P1  H 10752 10765       L1     7  0.62

> <Gold.PLP.Chemscore.Internal.Correction>
3.9979

> <Gold.Rescore>
     Score         DG    S(hbond)    S(metal)    S(lipo)     H(rot)  DE(clash)    DE(int)     intcor
     14.03     -16.44       1.87        0.00      78.00       1.72       0.00       2.41       ----

> <Gold.Chemscore.Fitness>
14.0342

> <Gold.Chemscore.DG>
-16.4423

> <Gold.Chemscore.ZeroCoef>
-5.4800

> <Gold.Chemscore.Hbond>
1.8662

> <Gold.Chemscore.Metal>
0.0000

> <Gold.Chemscore.Lipo>
78.0049

> <Gold.Chemscore.Internal_Hbond>
0.0000

> <Gold.Chemscore.DEClash>
0.0021

> <Gold.Chemscore.DEInternal>
2.4060

> <Gold.Chemscore.Rot>
1.7177

> <Gold.Chemscore.Internal.Correction>
   9.000000E+99

> <Gold.Chemscore.Hbonds>
donor molecule, donor type, donor heavy atom, donor atom, acceptor molecule, acceptor atom, score
      P1  H  6896  6909       L1     8  0.77
      P1  H 10752 10765       L1     7  0.62

> <Gold.Chemscore.Hbond.Weighted>
-6.2331

> <Gold.Chemscore.Metal.Weighted>
-0.0000

> <Gold.Chemscore.Lipo.Weighted>
-9.1266

> <Gold.Chemscore.Internal_Hbond.Weighted>
0.0000

> <Gold.Chemscore.DEClash.Weighted>
0.0021

> <Gold.Chemscore.DEInternal.Weighted>
2.4060

> <Gold.Chemscore.Rot.Weighted>
4.3974

> <Gold.Chemscore.Internal.Correction.Weighted>
   9.000000E+99

> <Gold.Protein.RotatedTorsions>
[ 6907 6896 6895 6894 ] final   82.84 input  -60.11 | X-H torsion
[ 7974 7965 7964 7962 ] final  -82.96 input  175.53 | X-H torsion
[ 8008 7997 7996 7995 ] final   64.80 input   59.86 | X-H torsion
[ 10167 10162 10161 10158 ] final   26.63 input  -65.29 | X-H torsion
[ 10718 10713 10712 10709 ] final  -53.64 input   66.30 | X-H torsion
[ 10763 10752 10751 10750 ] final -136.84 input  -60.55 | X-H torsion
[ 11005 11000 10999 10996 ] final  167.67 input  -57.11 | X-H torsion

> <Gold.Protein.ActiveResidues>
 VAL166  LYS551  ARG553  GLY616  TRP617  ASP618  TYR619  PRO620  LYS621  CYS622 
 ASP623  PHE694  ASN695  SER759  ASP760  ASP761  ALA762  ILE779  LEU786  VAL792 
 PHE793  MET794  SER795  GLU796  ALA797  LYS798  CYS799  TRP800  GLU811  SER814 

> <Gold.Protein.RotatedAtoms>
  152.5311  134.2987  159.9070 H   0  0  0  0  0  0  0  0  0  0  0  0  # atno 6907 bound_to 6896
  151.2938  133.4146  159.2642 H   0  0  0  0  0  0  0  0  0  0  0  0  # atno 6908 bound_to 6896
  151.0177  134.9462  159.8099 H   0  0  0  0  0  0  0  0  0  0  0  0  # atno 6909 bound_to 6896
  145.5263  140.9526  143.1627 H   0  0  0  0  0  0  0  0  0  0  0  0  # atno 7974 bound_to 7965
  155.6517  140.3497  155.4751 H   0  0  0  0  0  0  0  0  0  0  0  0  # atno 8008 bound_to 7997
  155.9842  140.1180  157.0722 H   0  0  0  0  0  0  0  0  0  0  0  0  # atno 8009 bound_to 7997
  154.4200  140.1132  156.5463 H   0  0  0  0  0  0  0  0  0  0  0  0  # atno 8010 bound_to 7997
  140.5007  144.0320  150.6331 H   0  0  0  0  0  0  0  0  0  0  0  0  # atno 10167 bound_to 10162
  156.1518  130.4151  149.9933 H   0  0  0  0  0  0  0  0  0  0  0  0  # atno 10718 bound_to 10713
  154.8675  135.3660  154.5126 H   0  0  0  0  0  0  0  0  0  0  0  0  # atno 10763 bound_to 10752
  153.5760  135.7019  153.5489 H   0  0  0  0  0  0  0  0  0  0  0  0  # atno 10764 bound_to 10752
  153.3499  135.4075  155.1601 H   0  0  0  0  0  0  0  0  0  0  0  0  # atno 10765 bound_to 10752
  140.2793  134.7764  157.3744 H   0  0  0  0  0  0  0  0  0  0  0  0  # atno 11005 bound_to 11000
  144.7649  139.6868  143.7219 LP  0  0  0  0  0  0  0  0  0  0  0  0  # atno 17320 bound_to 7965
  146.2073  139.5406  142.9704 LP  0  0  0  0  0  0  0  0  0  0  0  0  # atno 17321 bound_to 7965
  140.3615  143.2905  152.0378 LP  0  0  0  0  0  0  0  0  0  0  0  0  # atno 17342 bound_to 10162
  139.4871  144.6299  151.7090 LP  0  0  0  0  0  0  0  0  0  0  0  0  # atno 17343 bound_to 10162
  156.7789  130.9214  151.3645 LP  0  0  0  0  0  0  0  0  0  0  0  0  # atno 17370 bound_to 10713
  157.6663  130.9010  149.9939 LP  0  0  0  0  0  0  0  0  0  0  0  0  # atno 17371 bound_to 10713
  140.1299  134.5109  155.8114 LP  0  0  0  0  0  0  0  0  0  0  0  0  # atno 17394 bound_to 11000
  141.2165  133.6786  156.7020 LP  0  0  0  0  0  0  0  0  0  0  0  0  # atno 17395 bound_to 11000

$$$$
