AV-unprocessed.smi:2076|AV-procd|sdf|8457|dock9
  -GOLD-   2272011153D 1   1.00000     0.00000
 Structure written by MMmdl.
 44 45  0  0  0  0  0  0  0  0  1 V2000
  152.9729  141.8095  161.4072 C   0  0  0  0  0  0  0  0  0  0  0  0
  152.5002  142.6714  160.2741 C   0  0  0  0  0  0  0  0  0  0  0  0
  152.5018  144.0916  160.1859 C   0  0  0  0  0  0  0  0  0  0  0  0
  151.9624  144.3542  158.9582 C   0  0  0  0  0  0  0  0  0  0  0  0
  151.6887  145.6593  158.2860 C   0  0  0  0  0  0  0  0  0  0  0  0
  151.6728  143.1321  158.3773 N   0  0  0  0  0  0  0  0  0  0  0  0
  151.0626  142.8507  157.0862 C   0  0  0  0  0  0  0  0  0  0  0  0
  149.6685  142.2484  157.2641 C   0  0  0  0  0  0  0  0  0  0  0  0
  149.5076  141.2665  157.9885 O   0  0  0  0  0  0  0  0  0  0  0  0
  148.6762  142.8320  156.5747 N   0  0  0  0  0  0  0  0  0  0  0  0
  147.3091  142.3313  156.4830 C   0  0  0  0  0  0  0  0  0  0  0  0
  146.8288  142.1394  155.0141 C   0  0  2  0  0  0  0  0  0  0  0  0
  147.9489  141.4338  154.2056 C   0  0  0  0  0  0  0  0  0  0  0  0
  146.3682  143.3969  154.3809 N   0  0  0  0  0  0  0  0  0  0  0  0
  145.1711  143.9503  155.0249 C   0  0  0  0  0  0  0  0  0  0  0  0
  144.6690  145.2381  154.3490 C   0  0  0  0  0  0  0  0  0  0  0  0
  144.4144  144.9911  152.9732 O   0  0  0  0  0  0  0  0  0  0  0  0
  145.5719  144.5281  152.2922 C   0  0  0  0  0  0  0  0  0  0  0  0
  146.0774  143.2335  152.9516 C   0  0  0  0  0  0  0  0  0  0  0  0
  152.0057  142.1028  159.1870 N   0  0  0  0  0  0  0  0  0  0  0  0
  153.2234  142.4107  162.2814 H   0  0  0  0  0  0  0  0  0  0  0  0
  153.8625  141.2461  161.1257 H   0  0  0  0  0  0  0  0  0  0  0  0
  152.2052  141.0952  161.7062 H   0  0  0  0  0  0  0  0  0  0  0  0
  152.8433  144.8102  160.9163 H   0  0  0  0  0  0  0  0  0  0  0  0
  152.0272  146.4928  158.9016 H   0  0  0  0  0  0  0  0  0  0  0  0
  150.6211  145.7880  158.1075 H   0  0  0  0  0  0  0  0  0  0  0  0
  152.2043  145.7201  157.3275 H   0  0  0  0  0  0  0  0  0  0  0  0
  151.0056  143.7746  156.5096 H   0  0  0  0  0  0  0  0  0  0  0  0
  151.6949  142.1619  156.5236 H   0  0  0  0  0  0  0  0  0  0  0  0
  148.9056  143.6366  156.0088 H   0  0  0  0  0  0  0  0  0  0  0  0
  147.2728  141.4032  157.0521 H   0  0  0  0  0  0  0  0  0  0  0  0
  146.6556  143.0359  156.9978 H   0  0  0  0  0  0  0  0  0  0  0  0
  145.9813  141.4524  155.0416 H   0  0  0  0  0  0  0  0  0  0  0  0
  148.3092  140.5277  154.6918 H   0  0  0  0  0  0  0  0  0  0  0  0
  148.8066  142.0921  154.0638 H   0  0  0  0  0  0  0  0  0  0  0  0
  147.6087  141.1064  153.2245 H   0  0  0  0  0  0  0  0  0  0  0  0
  144.3729  143.2066  155.0251 H   0  0  0  0  0  0  0  0  0  0  0  0
  145.3726  144.2001  156.0643 H   0  0  0  0  0  0  0  0  0  0  0  0
  143.7495  145.5800  154.8240 H   0  0  0  0  0  0  0  0  0  0  0  0
  145.4011  146.0407  154.4538 H   0  0  0  0  0  0  0  0  0  0  0  0
  145.3209  144.3472  151.2471 H   0  0  0  0  0  0  0  0  0  0  0  0
  146.3458  145.2973  152.3066 H   0  0  0  0  0  0  0  0  0  0  0  0
  146.9713  142.9300  152.4098 H   0  0  0  0  0  0  0  0  0  0  0  0
  145.3376  142.4436  152.8121 H   0  0  0  0  0  0  0  0  0  0  0  0
  1  2  1  0  0  0  0
  1 21  1  0  0  0  0
  1 22  1  0  0  0  0
  1 23  1  0  0  0  0
  2 20  2  0  0  0  0
  2  3  1  0  0  0  0
  3  4  2  0  0  0  0
  3 24  1  0  0  0  0
  4  5  1  0  0  0  0
  4  6  1  0  0  0  0
  5 25  1  0  0  0  0
  5 26  1  0  0  0  0
  5 27  1  0  0  0  0
  6  7  1  0  0  0  0
  6 20  1  0  0  0  0
  7  8  1  0  0  0  0
  7 28  1  0  0  0  0
  7 29  1  0  0  0  0
  8  9  2  0  0  0  0
  8 10  1  0  0  0  0
 10 11  1  0  0  0  0
 10 30  1  0  0  0  0
 11 12  1  0  0  0  0
 11 31  1  0  0  0  0
 11 32  1  0  0  0  0
 12 13  1  0  0  0  0
 12 14  1  0  0  0  0
 12 33  1  0  0  0  0
 13 34  1  0  0  0  0
 13 35  1  0  0  0  0
 13 36  1  0  0  0  0
 14 19  1  0  0  0  0
 14 15  1  0  0  0  0
 15 16  1  0  0  0  0
 15 37  1  0  0  0  0
 15 38  1  0  0  0  0
 16 17  1  0  0  0  0
 16 39  1  0  0  0  0
 16 40  1  0  0  0  0
 17 18  1  0  0  0  0
 18 19  1  0  0  0  0
 18 41  1  0  0  0  0
 18 42  1  0  0  0  0
 19 43  1  0  0  0  0
 19 44  1  0  0  0  0
M  END
> <s_m_source_file>
AV-unprocessed.smi

> <i_m_source_file_index>
2076

> <i_lp_mmshare_version>
43012

> <i_f3d_flags>
0

> <s_epik_input>
W0NIM11jMVtjSF1jKFtDSDNdKW4objEpW0NIMl1DKD1PKVtOSF1bQ0gyXVtDQEhdKFtDSDNdKU4yW0NIMl1bQ0gyXU9bQ0gyXVtDSDJdMg==

> <s_epik_cmdline>
J2VwaWtfcHl0aG9uJywgJy1waCcsICc3LjAnLCAnLXRuJywgJzgnLCAnLW1hJywgJzIwMCcsICctbWV0YWxfYmluZGluZycsICctaW1hZScsICc8aW5maWxlLm1hZT4nLCAnLW9tYWUnLCAnPG91dGZpbGUubWFlPic=

> <r_lp_tautomer_probability>
1

> <r_epik_Ionization_Penalty>
0.197284

> <r_epik_Ionization_Penalty_Charging>
0

> <r_epik_Ionization_Penalty_Neutral>
0.197284

> <r_epik_State_Penalty>
0.186684

> <r_epik_Charging_Adjusted_Penalty>
0.186684

> <i_epik_Tot_Q>
0

> <i_epik_Tot_abs_Q>
0

> <r_epik_Metal_State_Penalty>
0.186636

> <b_epik_Metal_Only>
0

> <s_lp_Force_Field>
OPLS_2005

> <r_lp_Energy>
25.7273

> <b_lp_Chiralities_Consistent>
1

> <s_lp_Variant>
AV-unprocessed.smi:2076-1

> <Gold.Version>
5.8.1

> <Gold.Id.Protein>
6NUR|6NUR_protein|mol2

> <Gold.PLP.Fitness>
45.5943

> <Gold.PLP.PLP>
-43.3351

> <Gold.PLP.part.hbond>
-0.9958

> <Gold.PLP.part.metal>
0.0000

> <Gold.PLP.part.buried>
-6.5741

> <Gold.PLP.part.nonpolar>
-36.7158

> <Gold.PLP.part.repulsive>
0.5136

> <Gold.PLP.ligand.clash>
0.0000

> <Gold.PLP.ligand.torsion>
0.3721

> <Gold.PLP.Chemscore.Hbond>
0.9913

> <Gold.PLP.Chemscore.CHOScore>
0.0000

> <Gold.PLP.Chemscore.Metal>
0.0000

> <Gold.Chemscore.Hbonds>
donor molecule, donor type, donor heavy atom, donor atom, acceptor molecule, acceptor atom, score
      L1  H    10    30       P1  8028  0.02

> <Gold.PLP.Chemscore.Internal.Correction>
0.0298

> <Gold.Rescore>
     Score         DG    S(hbond)    S(metal)    S(lipo)     H(rot)  DE(clash)    DE(int)     intcor
     15.08     -16.64       1.00        0.00     104.17       1.70       1.06       0.50       ----

> <Gold.Chemscore.Fitness>
15.0803

> <Gold.Chemscore.DG>
-16.6423

> <Gold.Chemscore.ZeroCoef>
-5.4800

> <Gold.Chemscore.Hbond>
0.9954

> <Gold.Chemscore.Metal>
0.0000

> <Gold.Chemscore.Lipo>
104.1692

> <Gold.Chemscore.Internal_Hbond>
0.0000

> <Gold.Chemscore.DEClash>
1.0595

> <Gold.Chemscore.DEInternal>
0.5025

> <Gold.Chemscore.Rot>
1.6993

> <Gold.Chemscore.Internal.Correction>
   9.000000E+99

> <Gold.Chemscore.Hbonds>
donor molecule, donor type, donor heavy atom, donor atom, acceptor molecule, acceptor atom, score
      L1  H    10    30       P1  8028  0.07

> <Gold.Chemscore.Hbond.Weighted>
-3.3247

> <Gold.Chemscore.Metal.Weighted>
-0.0000

> <Gold.Chemscore.Lipo.Weighted>
-12.1878

> <Gold.Chemscore.Internal_Hbond.Weighted>
0.0000

> <Gold.Chemscore.DEClash.Weighted>
1.0595

> <Gold.Chemscore.DEInternal.Weighted>
0.5025

> <Gold.Chemscore.Rot.Weighted>
4.3502

> <Gold.Chemscore.Internal.Correction.Weighted>
   9.000000E+99

> <Gold.Protein.RotatedTorsions>
[ 6907 6896 6895 6894 ] final -152.70 input  -60.11 | X-H torsion
[ 7974 7965 7964 7962 ] final  -32.24 input  175.53 | X-H torsion
[ 8008 7997 7996 7995 ] final -174.62 input   59.86 | X-H torsion
[ 10167 10162 10161 10158 ] final  -55.87 input  -65.29 | X-H torsion
[ 10718 10713 10712 10709 ] final  142.25 input   66.30 | X-H torsion
[ 10763 10752 10751 10750 ] final   91.47 input  -60.55 | X-H torsion
[ 11005 11000 10999 10996 ] final   47.70 input  -57.11 | X-H torsion

> <Gold.Protein.ActiveResidues>
 VAL166  LYS551  ARG553  GLY616  TRP617  ASP618  TYR619  PRO620  LYS621  CYS622 
 ASP623  PHE694  ASN695  SER759  ASP760  ASP761  ALA762  ILE779  LEU786  VAL792 
 PHE793  MET794  SER795  GLU796  ALA797  LYS798  CYS799  TRP800  GLU811  SER814 

> <Gold.Protein.RotatedAtoms>
  151.2316  133.4447  159.2603 H   0  0  0  0  0  0  0  0  0  0  0  0  # atno 6907 bound_to 6896
  151.0789  134.9846  159.8356 H   0  0  0  0  0  0  0  0  0  0  0  0  # atno 6908 bound_to 6896
  152.5422  134.2257  159.8858 H   0  0  0  0  0  0  0  0  0  0  0  0  # atno 6909 bound_to 6896
  146.1005  140.5767  142.8823 H   0  0  0  0  0  0  0  0  0  0  0  0  # atno 7974 bound_to 7965
  155.9724  140.1165  157.0800 H   0  0  0  0  0  0  0  0  0  0  0  0  # atno 8008 bound_to 7997
  154.4160  140.1160  156.5392 H   0  0  0  0  0  0  0  0  0  0  0  0  # atno 8009 bound_to 7997
  155.6579  140.3473  155.4774 H   0  0  0  0  0  0  0  0  0  0  0  0  # atno 8010 bound_to 7997
  140.6350  143.2478  151.5142 H   0  0  0  0  0  0  0  0  0  0  0  0  # atno 10167 bound_to 10162
  157.3827  131.0994  151.0723 H   0  0  0  0  0  0  0  0  0  0  0  0  # atno 10718 bound_to 10713
  153.2086  135.4396  155.0352 H   0  0  0  0  0  0  0  0  0  0  0  0  # atno 10763 bound_to 10752
  154.8187  135.3327  154.7103 H   0  0  0  0  0  0  0  0  0  0  0  0  # atno 10764 bound_to 10752
  153.7543  135.6996  153.4994 H   0  0  0  0  0  0  0  0  0  0  0  0  # atno 10765 bound_to 10752
  140.1256  134.4772  155.8562 H   0  0  0  0  0  0  0  0  0  0  0  0  # atno 11005 bound_to 11000
  144.7429  140.4991  143.6856 LP  0  0  0  0  0  0  0  0  0  0  0  0  # atno 17320 bound_to 7965
  145.5863  139.1492  143.3207 LP  0  0  0  0  0  0  0  0  0  0  0  0  # atno 17321 bound_to 7965
  139.5561  144.2272  152.1614 LP  0  0  0  0  0  0  0  0  0  0  0  0  # atno 17342 bound_to 10162
  140.1526  144.5100  150.6678 LP  0  0  0  0  0  0  0  0  0  0  0  0  # atno 17343 bound_to 10162
  157.1786  130.6299  149.5664 LP  0  0  0  0  0  0  0  0  0  0  0  0  # atno 17370 bound_to 10713
  155.9779  130.4761  150.6624 LP  0  0  0  0  0  0  0  0  0  0  0  0  # atno 17371 bound_to 10713
  141.2160  133.6776  156.6972 LP  0  0  0  0  0  0  0  0  0  0  0  0  # atno 17394 bound_to 11000
  140.2908  134.8242  157.4015 LP  0  0  0  0  0  0  0  0  0  0  0  0  # atno 17395 bound_to 11000

$$$$
