AV-unprocessed.smi:1243|AV-procd|sdf|5218|dock4
  -GOLD-   22720 4313D 1   1.00000     0.00000
 Structure written by MMmdl.
 51 52  0  0  0  0  0  0  0  0  2 V2000
  144.3775  138.1628  161.2537 C   0  0  0  0  0  0  0  0  0  0  0  0
  145.6807  137.8826  160.7539 O   0  0  0  0  0  0  0  0  0  0  0  0
  146.2685  136.6766  161.0860 C   0  0  0  0  0  0  0  0  0  0  0  0
  145.7504  135.9688  162.1211 N   0  0  0  0  0  0  0  0  0  0  0  0
  146.3255  134.7931  162.4476 C   0  0  0  0  0  0  0  0  0  0  0  0
  147.4420  134.2671  161.7719 C   0  0  0  0  0  0  0  0  0  0  0  0
  147.9806  134.9988  160.6975 C   0  0  0  0  0  0  0  0  0  0  0  0
  147.3778  136.2268  160.3331 C   0  0  0  0  0  0  0  0  0  0  0  0
  147.8595  137.0496  159.2794 N   0  0  0  0  0  0  0  0  0  0  0  0
  148.9078  136.8281  158.4693 C   0  0  0  0  0  0  0  0  0  0  0  0
  149.6295  135.8316  158.5006 O   0  0  0  0  0  0  0  0  0  0  0  0
  149.0551  137.8280  157.5890 N   0  0  0  0  0  0  0  0  0  0  0  0
  150.0544  137.8898  156.5222 C   0  0  0  0  0  0  0  0  0  0  0  0
  149.9661  139.2043  155.6920 C   0  0  0  0  0  0  0  0  0  0  0  0
  150.3143  140.3957  156.6161 C   0  0  0  0  0  0  0  0  0  0  0  0
  151.0314  139.1194  154.5690 C   0  0  0  0  0  0  0  0  0  0  0  0
  148.6143  139.3508  155.0860 N   0  0  0  0  0  0  0  0  0  0  0  0
  148.1075  138.1451  154.4087 C   0  0  0  0  0  0  0  0  0  0  0  0
  146.6180  138.3139  154.0477 C   0  0  0  0  0  0  0  0  0  0  0  0
  146.4001  139.4872  153.1713 N   0  3  0  0  0  0  0  0  0  0  0  0
  146.7942  139.2665  151.7608 C   0  0  0  0  0  0  0  0  0  0  0  0
  146.9980  140.6972  153.7798 C   0  0  0  0  0  0  0  0  0  0  0  0
  148.4799  140.4742  154.1432 C   0  0  0  0  0  0  0  0  0  0  0  0
  144.0567  139.1409  160.8957 H   0  0  0  0  0  0  0  0  0  0  0  0
  144.3662  138.1900  162.3440 H   0  0  0  0  0  0  0  0  0  0  0  0
  143.6493  137.4286  160.9058 H   0  0  0  0  0  0  0  0  0  0  0  0
  145.8863  134.2588  163.2771 H   0  0  0  0  0  0  0  0  0  0  0  0
  147.8782  133.3267  162.0744 H   0  0  0  0  0  0  0  0  0  0  0  0
  148.8500  134.6166  160.1850 H   0  0  0  0  0  0  0  0  0  0  0  0
  147.2935  137.8586  159.0689 H   0  0  0  0  0  0  0  0  0  0  0  0
  148.4044  138.5976  157.6385 H   0  0  0  0  0  0  0  0  0  0  0  0
  151.0394  137.7612  156.9690 H   0  0  0  0  0  0  0  0  0  0  0  0
  149.9555  137.0322  155.8543 H   0  0  0  0  0  0  0  0  0  0  0  0
  151.3136  140.2753  157.0362 H   0  0  0  0  0  0  0  0  0  0  0  0
  149.6293  140.4800  157.4596 H   0  0  0  0  0  0  0  0  0  0  0  0
  150.3125  141.3479  156.0863 H   0  0  0  0  0  0  0  0  0  0  0  0
  151.9930  138.7907  154.9650 H   0  0  0  0  0  0  0  0  0  0  0  0
  151.2178  140.0824  154.0939 H   0  0  0  0  0  0  0  0  0  0  0  0
  150.7457  138.4115  153.7898 H   0  0  0  0  0  0  0  0  0  0  0  0
  148.6930  137.9275  153.5154 H   0  0  0  0  0  0  0  0  0  0  0  0
  148.1799  137.2714  155.0525 H   0  0  0  0  0  0  0  0  0  0  0  0
  146.2368  137.4129  153.5656 H   0  0  0  0  0  0  0  0  0  0  0  0
  146.0334  138.4453  154.9595 H   0  0  0  0  0  0  0  0  0  0  0  0
  147.8638  139.0831  151.6585 H   0  0  0  0  0  0  0  0  0  0  0  0
  146.5402  140.1363  151.1540 H   0  0  0  0  0  0  0  0  0  0  0  0
  146.2626  138.4091  151.3465 H   0  0  0  0  0  0  0  0  0  0  0  0
  146.8936  141.5456  153.1024 H   0  0  0  0  0  0  0  0  0  0  0  0
  146.4353  140.9514  154.6793 H   0  0  0  0  0  0  0  0  0  0  0  0
  148.8416  141.4020  154.5801 H   0  0  0  0  0  0  0  0  0  0  0  0
  149.0710  140.2986  153.2442 H   0  0  0  0  0  0  0  0  0  0  0  0
  145.4025  139.6431  153.1476 H   0  0  0  0  0  0  0  0  0  0  0  0
  1  2  1  0  0  0  0
  1 24  1  0  0  0  0
  1 25  1  0  0  0  0
  1 26  1  0  0  0  0
  2  3  1  0  0  0  0
  3  8  1  0  0  0  0
  3  4  2  0  0  0  0
  4  5  1  0  0  0  0
  5  6  2  0  0  0  0
  5 27  1  0  0  0  0
  6  7  1  0  0  0  0
  6 28  1  0  0  0  0
  7  8  2  0  0  0  0
  7 29  1  0  0  0  0
  8  9  1  0  0  0  0
  9 10  1  0  0  0  0
  9 30  1  0  0  0  0
 10 11  2  0  0  0  0
 10 12  1  0  0  0  0
 12 13  1  0  0  0  0
 12 31  1  0  0  0  0
 13 14  1  0  0  0  0
 13 32  1  0  0  0  0
 13 33  1  0  0  0  0
 14 15  1  0  0  0  0
 14 16  1  0  0  0  0
 14 17  1  0  0  0  0
 15 34  1  0  0  0  0
 15 35  1  0  0  0  0
 15 36  1  0  0  0  0
 16 37  1  0  0  0  0
 16 38  1  0  0  0  0
 16 39  1  0  0  0  0
 17 23  1  0  0  0  0
 17 18  1  0  0  0  0
 18 19  1  0  0  0  0
 18 40  1  0  0  0  0
 18 41  1  0  0  0  0
 19 20  1  0  0  0  0
 19 42  1  0  0  0  0
 19 43  1  0  0  0  0
 20 21  1  0  0  0  0
 20 22  1  0  0  0  0
 20 51  1  0  0  0  0
 21 44  1  0  0  0  0
 21 45  1  0  0  0  0
 21 46  1  0  0  0  0
 22 23  1  0  0  0  0
 22 47  1  0  0  0  0
 22 48  1  0  0  0  0
 23 49  1  0  0  0  0
 23 50  1  0  0  0  0
M  CHG  1  20   1
M  END
> <s_m_source_file>
AV-unprocessed.smi

> <i_m_source_file_index>
1243

> <i_lp_mmshare_version>
43012

> <i_f3d_flags>
0

> <s_epik_input>
W0NIM11PYzFuW2NIXVtjSF1bY0hdYzFbTkhdQyg9TylbTkhdW0NIMl1DKFtDSDNdKShbQ0gzXSlOMltDSDJdW0NIMl1OKFtDSDNdKVtDSDJdW0NIMl0y

> <s_epik_cmdline>
J2VwaWtfcHl0aG9uJywgJy1waCcsICc3LjAnLCAnLXRuJywgJzgnLCAnLW1hJywgJzIwMCcsICctbWV0YWxfYmluZGluZycsICctaW1hZScsICc8aW5maWxlLm1hZT4nLCAnLW9tYWUnLCAnPG91dGZpbGUubWFlPic=

> <r_lp_tautomer_probability>
1

> <r_epik_Ionization_Penalty>
0.0248754

> <r_epik_Ionization_Penalty_Charging>
0.0238192

> <r_epik_Ionization_Penalty_Neutral>
0.00105626

> <r_epik_State_Penalty>
0.139266

> <r_epik_Charging_Adjusted_Penalty>
0.163085

> <i_epik_Tot_Q>
1

> <i_epik_Tot_abs_Q>
1

> <r_epik_Metal_State_Penalty>
0.139265

> <b_epik_Metal_Only>
0

> <s_lp_Force_Field>
OPLS_2005

> <r_lp_Energy>
29.8064

> <b_lp_Chiralities_Consistent>
1

> <s_lp_Variant>
AV-unprocessed.smi:1243-1

> <Gold.Version>
5.8.1

> <Gold.Id.Protein>
6NUR|6NUR_protein|mol2

> <Gold.PLP.Fitness>
42.2894

> <Gold.PLP.PLP>
-31.0729

> <Gold.PLP.part.hbond>
-3.0000

> <Gold.PLP.part.metal>
0.0000

> <Gold.PLP.part.buried>
-2.0701

> <Gold.PLP.part.nonpolar>
-26.6477

> <Gold.PLP.part.repulsive>
0.2892

> <Gold.PLP.ligand.clash>
0.0000

> <Gold.PLP.ligand.torsion>
0.3538

> <Gold.PLP.Chemscore.Hbond>
3.9600

> <Gold.PLP.Chemscore.CHOScore>
0.0000

> <Gold.PLP.Chemscore.Metal>
0.0000

> <Gold.Chemscore.Hbonds>
donor molecule, donor type, donor heavy atom, donor atom, acceptor molecule, acceptor atom, score
      L1  H    20    51       P1 10175  2.00
      P1  H  6896  6909       L1    11  1.00
      P1  H  6934  6947       L1     2  0.96

> <Gold.PLP.Chemscore.Internal.Correction>
0.0441

> <Gold.Rescore>
     Score         DG    S(hbond)    S(metal)    S(lipo)     H(rot)  DE(clash)    DE(int)     intcor
     17.46     -19.52       2.71        0.00      80.32       1.72       0.29       1.77       ----

> <Gold.Chemscore.Fitness>
17.4553

> <Gold.Chemscore.DG>
-19.5201

> <Gold.Chemscore.ZeroCoef>
-5.4800

> <Gold.Chemscore.Hbond>
2.7092

> <Gold.Chemscore.Metal>
0.0000

> <Gold.Chemscore.Lipo>
80.3242

> <Gold.Chemscore.Internal_Hbond>
0.0000

> <Gold.Chemscore.DEClash>
0.2942

> <Gold.Chemscore.DEInternal>
1.7706

> <Gold.Chemscore.Rot>
1.7213

> <Gold.Chemscore.Internal.Correction>
   9.000000E+99

> <Gold.Chemscore.Hbonds>
donor molecule, donor type, donor heavy atom, donor atom, acceptor molecule, acceptor atom, score
      L1  H    20    51       P1 10175  0.92
      P1  H  6896  6909       L1    11  0.97
      P1  H  6934  6947       L1     2  0.28

> <Gold.Chemscore.Hbond.Weighted>
-9.0487

> <Gold.Chemscore.Metal.Weighted>
-0.0000

> <Gold.Chemscore.Lipo.Weighted>
-9.3979

> <Gold.Chemscore.Internal_Hbond.Weighted>
0.0000

> <Gold.Chemscore.DEClash.Weighted>
0.2942

> <Gold.Chemscore.DEInternal.Weighted>
1.7706

> <Gold.Chemscore.Rot.Weighted>
4.4066

> <Gold.Chemscore.Internal.Correction.Weighted>
   9.000000E+99

> <Gold.Protein.RotatedTorsions>
[ 6907 6896 6895 6894 ] final   44.43 input  -60.11 | X-H torsion
[ 7974 7965 7964 7962 ] final   85.86 input  175.53 | X-H torsion
[ 8008 7997 7996 7995 ] final  178.54 input   59.86 | X-H torsion
[ 10167 10162 10161 10158 ] final  -87.11 input  -65.29 | X-H torsion
[ 10718 10713 10712 10709 ] final   11.57 input   66.30 | X-H torsion
[ 10763 10752 10751 10750 ] final  -22.71 input  -60.55 | X-H torsion
[ 11005 11000 10999 10996 ] final  118.75 input  -57.11 | X-H torsion

> <Gold.Protein.ActiveResidues>
 VAL166  LYS551  ARG553  GLY616  TRP617  ASP618  TYR619  PRO620  LYS621  CYS622 
 ASP623  PHE694  ASN695  SER759  ASP760  ASP761  ALA762  ILE779  LEU786  VAL792 
 PHE793  MET794  SER795  GLU796  ALA797  LYS798  CYS799  TRP800  GLU811  SER814 

> <Gold.Protein.RotatedAtoms>
  152.2323  134.8309  160.0471 H   0  0  0  0  0  0  0  0  0  0  0  0  # atno 6907 bound_to 6896
  151.9054  133.3543  159.3853 H   0  0  0  0  0  0  0  0  0  0  0  0  # atno 6908 bound_to 6896
  150.7029  134.4712  159.5470 H   0  0  0  0  0  0  0  0  0  0  0  0  # atno 6909 bound_to 6896
  145.5800  139.2324  143.2358 H   0  0  0  0  0  0  0  0  0  0  0  0  # atno 7974 bound_to 7965
  156.0535  140.1331  157.0023 H   0  0  0  0  0  0  0  0  0  0  0  0  # atno 8008 bound_to 7997
  154.4446  140.1006  156.6482 H   0  0  0  0  0  0  0  0  0  0  0  0  # atno 8009 bound_to 7997
  155.5487  140.3462  155.4465 H   0  0  0  0  0  0  0  0  0  0  0  0  # atno 8010 bound_to 7997
  140.3876  143.2719  151.9305 H   0  0  0  0  0  0  0  0  0  0  0  0  # atno 10167 bound_to 10162
  156.9975  130.6066  149.5692 H   0  0  0  0  0  0  0  0  0  0  0  0  # atno 10718 bound_to 10713
  153.6562  135.6978  153.5192 H   0  0  0  0  0  0  0  0  0  0  0  0  # atno 10763 bound_to 10752
  153.2667  135.4227  155.0947 H   0  0  0  0  0  0  0  0  0  0  0  0  # atno 10764 bound_to 10752
  154.8464  135.3568  154.6107 H   0  0  0  0  0  0  0  0  0  0  0  0  # atno 10765 bound_to 10752
  139.9121  134.9623  156.7551 H   0  0  0  0  0  0  0  0  0  0  0  0  # atno 11005 bound_to 11000
  146.1723  140.6626  142.9227 LP  0  0  0  0  0  0  0  0  0  0  0  0  # atno 17320 bound_to 7965
  144.7398  140.4911  143.6877 LP  0  0  0  0  0  0  0  0  0  0  0  0  # atno 17321 bound_to 7965
  139.4791  144.5758  151.8013 LP  0  0  0  0  0  0  0  0  0  0  0  0  # atno 17342 bound_to 10162
  140.4873  144.1362  150.5943 LP  0  0  0  0  0  0  0  0  0  0  0  0  # atno 17343 bound_to 10162
  156.0184  130.5278  150.8202 LP  0  0  0  0  0  0  0  0  0  0  0  0  # atno 17370 bound_to 10713
  157.5414  131.0941  150.9822 LP  0  0  0  0  0  0  0  0  0  0  0  0  # atno 17371 bound_to 10713
  140.6742  133.9532  155.7873 LP  0  0  0  0  0  0  0  0  0  0  0  0  # atno 17394 bound_to 11000
  141.0556  134.0421  157.3727 LP  0  0  0  0  0  0  0  0  0  0  0  0  # atno 17395 bound_to 11000

$$$$
