AV-unprocessed.smi:634|AV-procd|sdf|3134|dock2
  -GOLD-   22720 0 53D 1   1.00000     0.00000
 Structure written by MMmdl.
 33 34  0  0  0  0  0  0  0  0  1 V2000
  146.7489  134.1828  161.9882 C   0  0  0  0  0  0  0  0  0  0  0  0
  147.3648  135.2447  161.1431 C   0  0  0  0  0  0  0  0  0  0  0  0
  147.5028  135.3960  159.7918 C   0  0  0  0  0  0  0  0  0  0  0  0
  148.1872  136.6353  159.6767 C   0  0  0  0  0  0  0  0  0  0  0  0
  148.5270  137.1647  158.4053 N   0  0  0  0  0  0  0  0  0  0  0  0
  149.2670  138.2556  158.1430 C   0  0  0  0  0  0  0  0  0  0  0  0
  149.7913  138.9738  158.9943 O   0  0  0  0  0  0  0  0  0  0  0  0
  149.3642  138.4661  156.8194 N   0  0  0  0  0  0  0  0  0  0  0  0
  150.0756  139.5450  156.1188 C   0  0  2  0  0  0  0  0  0  0  0  0
  149.3845  140.9018  156.3736 C   0  0  0  0  0  0  0  0  0  0  0  0
  150.0353  139.2124  154.6075 C   0  0  0  0  0  0  0  0  0  0  0  0
  151.0449  138.1016  154.2953 C   0  0  0  0  0  0  0  0  0  0  0  0
  152.4393  138.3679  155.4480 S   0  0  0  0  0  0  0  0  0  0  0  0
  152.6770  137.1281  156.2027 O   0  0  0  0  0  0  0  0  0  0  0  0
  153.5365  139.0490  154.7441 O   0  0  0  0  0  0  0  0  0  0  0  0
  151.5712  139.5804  156.5160 C   0  0  0  0  0  0  0  0  0  0  0  0
  148.4438  137.1902  160.8514 N   0  0  0  0  0  0  0  0  0  0  0  0
  147.9187  136.3016  161.7969 O   0  0  0  0  0  0  0  0  0  0  0  0
  146.1016  133.5380  161.3936 H   0  0  0  0  0  0  0  0  0  0  0  0
  146.1479  134.6209  162.7851 H   0  0  0  0  0  0  0  0  0  0  0  0
  147.5176  133.5609  162.4467 H   0  0  0  0  0  0  0  0  0  0  0  0
  147.1667  134.7260  159.0144 H   0  0  0  0  0  0  0  0  0  0  0  0
  148.1607  136.6625  157.6105 H   0  0  0  0  0  0  0  0  0  0  0  0
  148.8910  137.8040  156.2221 H   0  0  0  0  0  0  0  0  0  0  0  0
  149.8375  141.6945  155.7774 H   0  0  0  0  0  0  0  0  0  0  0  0
  149.4587  141.2097  157.4165 H   0  0  0  0  0  0  0  0  0  0  0  0
  148.3262  140.8622  156.1136 H   0  0  0  0  0  0  0  0  0  0  0  0
  149.0330  138.9458  154.2696 H   0  0  0  0  0  0  0  0  0  0  0  0
  150.3253  140.0976  154.0397 H   0  0  0  0  0  0  0  0  0  0  0  0
  150.6199  137.1191  154.5006 H   0  0  0  0  0  0  0  0  0  0  0  0
  151.3975  138.1212  153.2642 H   0  0  0  0  0  0  0  0  0  0  0  0
  152.0003  140.5595  156.3012 H   0  0  0  0  0  0  0  0  0  0  0  0
  151.7690  139.3606  157.5648 H   0  0  0  0  0  0  0  0  0  0  0  0
  1  2  1  0  0  0  0
  1 19  1  0  0  0  0
  1 20  1  0  0  0  0
  1 21  1  0  0  0  0
  2 18  1  0  0  0  0
  2  3  2  0  0  0  0
  3  4  1  0  0  0  0
  3 22  1  0  0  0  0
  4  5  1  0  0  0  0
  4 17  2  0  0  0  0
  5  6  1  0  0  0  0
  5 23  1  0  0  0  0
  6  7  2  0  0  0  0
  6  8  1  0  0  0  0
  8  9  1  0  0  0  0
  8 24  1  0  0  0  0
  9 16  1  0  0  0  0
  9 10  1  0  0  0  0
  9 11  1  0  0  0  0
 10 25  1  0  0  0  0
 10 26  1  0  0  0  0
 10 27  1  0  0  0  0
 11 12  1  0  0  0  0
 11 28  1  0  0  0  0
 11 29  1  0  0  0  0
 12 13  1  0  0  0  0
 12 30  1  0  0  0  0
 12 31  1  0  0  0  0
 13 14  2  0  0  0  0
 13 15  2  0  0  0  0
 13 16  1  0  0  0  0
 16 32  1  0  0  0  0
 16 33  1  0  0  0  0
 17 18  1  0  0  0  0
M  END
> <s_m_source_file>
AV-unprocessed.smi

> <i_m_source_file_index>
634

> <i_lp_mmshare_version>
43012

> <i_f3d_flags>
0

> <s_epik_input>
W0NIM11jMVtjSF1jKG5vMSlbTkhdQyg9TylbTkhdW0NAQF0yKFtDSDNdKVtDSDJdW0NIMl1TKD1PKSg9TylbQ0gyXTI=

> <s_epik_cmdline>
J2VwaWtfcHl0aG9uJywgJy1waCcsICc3LjAnLCAnLXRuJywgJzgnLCAnLW1hJywgJzIwMCcsICctbWV0YWxfYmluZGluZycsICctaW1hZScsICc8aW5maWxlLm1hZT4nLCAnLW9tYWUnLCAnPG91dGZpbGUubWFlPic=

> <r_lp_tautomer_probability>
1

> <r_epik_Ionization_Penalty>
3.87281e-05

> <r_epik_Ionization_Penalty_Charging>
0

> <r_epik_Ionization_Penalty_Neutral>
3.87281e-05

> <r_epik_State_Penalty>
-0

> <r_epik_Charging_Adjusted_Penalty>
0

> <i_epik_Tot_Q>
0

> <i_epik_Tot_abs_Q>
0

> <r_epik_Metal_State_Penalty>
0.0249287

> <b_epik_Metal_Only>
0

> <s_lp_Force_Field>
OPLS_2005

> <r_lp_Energy>
3.31823

> <b_lp_Chiralities_Consistent>
1

> <s_lp_Variant>
AV-unprocessed.smi:634-2

> <Gold.Version>
5.8.1

> <Gold.Id.Protein>
6NUR|6NUR_protein|mol2

> <Gold.PLP.Fitness>
34.7425

> <Gold.PLP.PLP>
-25.9297

> <Gold.PLP.part.hbond>
-5.6242

> <Gold.PLP.part.metal>
0.0000

> <Gold.PLP.part.buried>
-3.1452

> <Gold.PLP.part.nonpolar>
-18.5574

> <Gold.PLP.part.repulsive>
0.1288

> <Gold.PLP.ligand.clash>
0.0000

> <Gold.PLP.ligand.torsion>
0.0769

> <Gold.PLP.Chemscore.Hbond>
2.9842

> <Gold.PLP.Chemscore.CHOScore>
0.0000

> <Gold.PLP.Chemscore.Metal>
0.0000

> <Gold.Chemscore.Hbonds>
donor molecule, donor type, donor heavy atom, donor atom, acceptor molecule, acceptor atom, score
      P1  H  6931  6943       L1    17  0.76
      P1  H  6934  6947       L1    17  0.29
      P1  H  7997  8009       L1    15  1.00
      P1  H 10752 10763       L1    14  0.77

> <Gold.PLP.Chemscore.Internal.Correction>
0.0139

> <Gold.Rescore>
     Score         DG    S(hbond)    S(metal)    S(lipo)     H(rot)  DE(clash)    DE(int)     intcor
     14.89     -16.43       2.52        0.00      43.57       1.00       0.24       1.30       ----

> <Gold.Chemscore.Fitness>
14.8880

> <Gold.Chemscore.DG>
-16.4282

> <Gold.Chemscore.ZeroCoef>
-5.4800

> <Gold.Chemscore.Hbond>
2.5182

> <Gold.Chemscore.Metal>
0.0000

> <Gold.Chemscore.Lipo>
43.5680

> <Gold.Chemscore.Internal_Hbond>
0.0000

> <Gold.Chemscore.DEClash>
0.2386

> <Gold.Chemscore.DEInternal>
1.3016

> <Gold.Chemscore.Rot>
1.0000

> <Gold.Chemscore.Internal.Correction>
   9.000000E+99

> <Gold.Chemscore.Hbonds>
donor molecule, donor type, donor heavy atom, donor atom, acceptor molecule, acceptor atom, score
      P1  H  6931  6943       L1    17  0.13
      P1  H  6934  6947       L1    17  0.10
      P1  H  7997  8009       L1    15  0.90
      P1  H 10752 10763       L1    14  0.66

> <Gold.Chemscore.Hbond.Weighted>
-8.4108

> <Gold.Chemscore.Metal.Weighted>
-0.0000

> <Gold.Chemscore.Lipo.Weighted>
-5.0975

> <Gold.Chemscore.Internal_Hbond.Weighted>
0.0000

> <Gold.Chemscore.DEClash.Weighted>
0.2386

> <Gold.Chemscore.DEInternal.Weighted>
1.3016

> <Gold.Chemscore.Rot.Weighted>
2.5600

> <Gold.Chemscore.Internal.Correction.Weighted>
   9.000000E+99

> <Gold.Protein.RotatedTorsions>
[ 6907 6896 6895 6894 ] final -115.97 input  -60.11 | X-H torsion
[ 7974 7965 7964 7962 ] final  111.50 input  175.53 | X-H torsion
[ 8008 7997 7996 7995 ] final -129.48 input   59.86 | X-H torsion
[ 10167 10162 10161 10158 ] final   80.82 input  -65.29 | X-H torsion
[ 10718 10713 10712 10709 ] final  124.70 input   66.30 | X-H torsion
[ 10763 10752 10751 10750 ] final   94.25 input  -60.55 | X-H torsion
[ 11005 11000 10999 10996 ] final  -33.49 input  -57.11 | X-H torsion

> <Gold.Protein.ActiveResidues>
 VAL166  LYS551  ARG553  GLY616  TRP617  ASP618  TYR619  PRO620  LYS621  CYS622 
 ASP623  PHE694  ASN695  SER759  ASP760  ASP761  ALA762  ILE779  LEU786  VAL792 
 PHE793  MET794  SER795  GLU796  ALA797  LYS798  CYS799  TRP800  GLU811  SER814 

> <Gold.Protein.RotatedAtoms>
  150.8019  133.8583  159.3224 H   0  0  0  0  0  0  0  0  0  0  0  0  # atno 6907 bound_to 6896
  151.6392  135.1013  160.0147 H   0  0  0  0  0  0  0  0  0  0  0  0  # atno 6908 bound_to 6896
  152.4107  133.6919  159.6430 H   0  0  0  0  0  0  0  0  0  0  0  0  # atno 6909 bound_to 6896
  145.2414  139.2777  143.4116 H   0  0  0  0  0  0  0  0  0  0  0  0  # atno 7974 bound_to 7965
  155.2800  140.0443  157.3014 H   0  0  0  0  0  0  0  0  0  0  0  0  # atno 8008 bound_to 7997
  154.5602  140.2344  155.8315 H   0  0  0  0  0  0  0  0  0  0  0  0  # atno 8009 bound_to 7997
  156.2041  140.3017  155.9597 H   0  0  0  0  0  0  0  0  0  0  0  0  # atno 8010 bound_to 7997
  139.9457  144.6060  150.8208 H   0  0  0  0  0  0  0  0  0  0  0  0  # atno 10167 bound_to 10162
  157.5564  131.1092  150.8615 H   0  0  0  0  0  0  0  0  0  0  0  0  # atno 10718 bound_to 10713
  153.2395  135.4296  155.0682 H   0  0  0  0  0  0  0  0  0  0  0  0  # atno 10763 bound_to 10752
  154.8334  135.3399  154.6670 H   0  0  0  0  0  0  0  0  0  0  0  0  # atno 10764 bound_to 10752
  153.7095  135.7023  153.5098 H   0  0  0  0  0  0  0  0  0  0  0  0  # atno 10765 bound_to 10752
  140.9639  133.7148  156.1414 H   0  0  0  0  0  0  0  0  0  0  0  0  # atno 11005 bound_to 11000
  146.3327  140.2778  142.8609 LP  0  0  0  0  0  0  0  0  0  0  0  0  # atno 17320 bound_to 7965
  144.9586  140.8252  143.5528 LP  0  0  0  0  0  0  0  0  0  0  0  0  # atno 17321 bound_to 7965
  140.7598  143.3136  151.2786 LP  0  0  0  0  0  0  0  0  0  0  0  0  # atno 17342 bound_to 10162
  139.6668  144.0090  152.2728 LP  0  0  0  0  0  0  0  0  0  0  0  0  # atno 17343 bound_to 10162
  156.9125  130.5286  149.5280 LP  0  0  0  0  0  0  0  0  0  0  0  0  # atno 17370 bound_to 10713
  156.0622  130.5672  150.9216 LP  0  0  0  0  0  0  0  0  0  0  0  0  # atno 17371 bound_to 10713
  140.7427  134.4132  157.5552 LP  0  0  0  0  0  0  0  0  0  0  0  0  # atno 17394 bound_to 11000
  139.8888  134.8847  156.2456 LP  0  0  0  0  0  0  0  0  0  0  0  0  # atno 17395 bound_to 11000

$$$$
