AV-unprocessed.smi:1985|AV-procd|sdf|8043|dock9
  -GOLD-   2272010243D 1   1.00000     0.00000
 Structure written by MMmdl.
 50 51  0  0  0  0  0  0  0  0  1 V2000
  152.7633  138.1147  154.8009 C   0  0  0  0  0  0  0  0  0  0  0  0
  151.5280  137.3471  155.3049 C   0  0  0  0  0  0  0  0  0  0  0  0
  150.7337  138.0312  156.4639 C   0  0  2  0  0  0  0  0  0  0  0  0
  151.7143  138.1310  157.6649 C   0  0  0  0  0  0  0  0  0  0  0  0
  149.5563  137.0894  156.8693 C   0  0  0  0  0  0  0  0  0  0  0  0
  149.1640  137.2629  158.2631 N   0  0  0  0  0  0  0  0  0  0  0  0
  148.6533  136.3192  159.0691 C   0  0  0  0  0  0  0  0  0  0  0  0
  148.4068  135.1758  158.6886 O   0  0  0  0  0  0  0  0  0  0  0  0
  148.3771  136.7024  160.5342 C   0  0  0  0  0  0  0  0  0  0  0  0
  147.2240  136.0151  161.1385 N   0  0  0  0  0  0  0  0  0  0  0  0
  147.2212  134.6345  161.2219 C   0  0  0  0  0  0  0  0  0  0  0  0
  146.1884  133.9199  161.7191 C   0  0  0  0  0  0  0  0  0  0  0  0
  144.9873  134.5850  162.2077 C   0  0  0  0  0  0  0  0  0  0  0  0
  144.0095  133.9789  162.6481 O   0  0  0  0  0  0  0  0  0  0  0  0
  145.0209  135.9961  162.1271 N   0  0  0  0  0  0  0  0  0  0  0  0
  143.8388  136.7017  162.5765 C   0  0  0  0  0  0  0  0  0  0  0  0
  146.1023  136.7394  161.6004 C   0  0  0  0  0  0  0  0  0  0  0  0
  146.0802  137.9694  161.5188 O   0  0  0  0  0  0  0  0  0  0  0  0
  150.2575  139.3852  156.0628 N   0  0  0  0  0  0  0  0  0  0  0  0
  149.5068  139.4359  154.8026 C   0  0  0  0  0  0  0  0  0  0  0  0
  148.9277  140.8355  154.5330 C   0  0  0  0  0  0  0  0  0  0  0  0
  149.9762  141.7968  154.5293 O   0  0  0  0  0  0  0  0  0  0  0  0
  150.6966  141.8193  155.7558 C   0  0  0  0  0  0  0  0  0  0  0  0
  151.2906  140.4278  156.0331 C   0  0  0  0  0  0  0  0  0  0  0  0
  153.2389  137.5737  153.9829 H   0  0  0  0  0  0  0  0  0  0  0  0
  153.5105  138.2374  155.5845 H   0  0  0  0  0  0  0  0  0  0  0  0
  152.5025  139.1047  154.4269 H   0  0  0  0  0  0  0  0  0  0  0  0
  150.8684  137.1485  154.4602 H   0  0  0  0  0  0  0  0  0  0  0  0
  151.8697  136.3595  155.6168 H   0  0  0  0  0  0  0  0  0  0  0  0
  152.2637  137.2026  157.8273 H   0  0  0  0  0  0  0  0  0  0  0  0
  151.1946  138.3476  158.5985 H   0  0  0  0  0  0  0  0  0  0  0  0
  152.4548  138.9170  157.5150 H   0  0  0  0  0  0  0  0  0  0  0  0
  148.6714  137.2799  156.2627 H   0  0  0  0  0  0  0  0  0  0  0  0
  149.8304  136.0471  156.7039 H   0  0  0  0  0  0  0  0  0  0  0  0
  149.3305  138.1746  158.6637 H   0  0  0  0  0  0  0  0  0  0  0  0
  149.2764  136.4902  161.1140 H   0  0  0  0  0  0  0  0  0  0  0  0
  148.2424  137.7836  160.5941 H   0  0  0  0  0  0  0  0  0  0  0  0
  148.0863  134.0955  160.8634 H   0  0  0  0  0  0  0  0  0  0  0  0
  146.2491  132.8419  161.7492 H   0  0  0  0  0  0  0  0  0  0  0  0
  144.0431  137.7643  162.7054 H   0  0  0  0  0  0  0  0  0  0  0  0
  143.5434  136.2862  163.5417 H   0  0  0  0  0  0  0  0  0  0  0  0
  143.0685  136.5434  161.8203 H   0  0  0  0  0  0  0  0  0  0  0  0
  150.1492  139.1573  153.9674 H   0  0  0  0  0  0  0  0  0  0  0  0
  148.6774  138.7309  154.8140 H   0  0  0  0  0  0  0  0  0  0  0  0
  148.4220  140.8566  153.5677 H   0  0  0  0  0  0  0  0  0  0  0  0
  148.1858  141.0980  155.2888 H   0  0  0  0  0  0  0  0  0  0  0  0
  151.4898  142.5640  155.6890 H   0  0  0  0  0  0  0  0  0  0  0  0
  150.0366  142.1260  156.5687 H   0  0  0  0  0  0  0  0  0  0  0  0
  151.8249  140.4771  156.9800 H   0  0  0  0  0  0  0  0  0  0  0  0
  152.0299  140.2058  155.2636 H   0  0  0  0  0  0  0  0  0  0  0  0
  1  2  1  0  0  0  0
  1 25  1  0  0  0  0
  1 26  1  0  0  0  0
  1 27  1  0  0  0  0
  2  3  1  0  0  0  0
  2 28  1  0  0  0  0
  2 29  1  0  0  0  0
  3  4  1  0  0  0  0
  3  5  1  0  0  0  0
  3 19  1  0  0  0  0
  4 30  1  0  0  0  0
  4 31  1  0  0  0  0
  4 32  1  0  0  0  0
  5  6  1  0  0  0  0
  5 33  1  0  0  0  0
  5 34  1  0  0  0  0
  6  7  1  0  0  0  0
  6 35  1  0  0  0  0
  7  8  2  0  0  0  0
  7  9  1  0  0  0  0
  9 10  1  0  0  0  0
  9 36  1  0  0  0  0
  9 37  1  0  0  0  0
 10 17  1  0  0  0  0
 10 11  1  0  0  0  0
 11 12  2  0  0  0  0
 11 38  1  0  0  0  0
 12 13  1  0  0  0  0
 12 39  1  0  0  0  0
 13 14  2  0  0  0  0
 13 15  1  0  0  0  0
 15 16  1  0  0  0  0
 15 17  1  0  0  0  0
 16 40  1  0  0  0  0
 16 41  1  0  0  0  0
 16 42  1  0  0  0  0
 17 18  2  0  0  0  0
 19 24  1  0  0  0  0
 19 20  1  0  0  0  0
 20 21  1  0  0  0  0
 20 43  1  0  0  0  0
 20 44  1  0  0  0  0
 21 22  1  0  0  0  0
 21 45  1  0  0  0  0
 21 46  1  0  0  0  0
 22 23  1  0  0  0  0
 23 24  1  0  0  0  0
 23 47  1  0  0  0  0
 23 48  1  0  0  0  0
 24 49  1  0  0  0  0
 24 50  1  0  0  0  0
M  END
> <s_m_source_file>
AV-unprocessed.smi

> <i_m_source_file_index>
1985

> <i_lp_mmshare_version>
43012

> <i_f3d_flags>
0

> <s_epik_input>
W0NIMl0xW0NIMl1PW0NIMl1bQ0gyXU4xW0NAQF0oW0NIM10pKFtDSDJdW0NIM10pW0NIMl1bTkhdQyg9TylbQ0gyXW4yW2NIXVtjSF1jKD1PKW4oW0NIM10pYzI9Tw==

> <s_epik_cmdline>
J2VwaWtfcHl0aG9uJywgJy1waCcsICc3LjAnLCAnLXRuJywgJzgnLCAnLW1hJywgJzIwMCcsICctbWV0YWxfYmluZGluZycsICctaW1hZScsICc8aW5maWxlLm1hZT4nLCAnLW9tYWUnLCAnPG91dGZpbGUubWFlPic=

> <r_lp_tautomer_probability>
1

> <r_epik_Ionization_Penalty>
0.318667

> <r_epik_Ionization_Penalty_Charging>
1.17294e-08

> <r_epik_Ionization_Penalty_Neutral>
0.318667

> <r_epik_State_Penalty>
0.313095

> <r_epik_Charging_Adjusted_Penalty>
0.313095

> <i_epik_Tot_Q>
0

> <i_epik_Tot_abs_Q>
0

> <r_epik_Metal_State_Penalty>
0.313065

> <b_epik_Metal_Only>
0

> <s_lp_Force_Field>
OPLS_2005

> <r_lp_Energy>
50.9959

> <b_lp_Chiralities_Consistent>
1

> <s_lp_Variant>
AV-unprocessed.smi:1985-2

> <Gold.Version>
5.8.1

> <Gold.Id.Protein>
6NUR|6NUR_protein|mol2

> <Gold.PLP.Fitness>
45.3543

> <Gold.PLP.PLP>
-39.5259

> <Gold.PLP.part.hbond>
-4.3854

> <Gold.PLP.part.metal>
0.0000

> <Gold.PLP.part.buried>
-2.1448

> <Gold.PLP.part.nonpolar>
-32.3890

> <Gold.PLP.part.repulsive>
0.4040

> <Gold.PLP.ligand.clash>
0.0000

> <Gold.PLP.ligand.torsion>
1.2243

> <Gold.PLP.Chemscore.Hbond>
2.7054

> <Gold.PLP.Chemscore.CHOScore>
0.0000

> <Gold.PLP.Chemscore.Metal>
0.0000

> <Gold.Chemscore.Hbonds>
donor molecule, donor type, donor heavy atom, donor atom, acceptor molecule, acceptor atom, score
      P1  H  6934  6947       L1    18  0.85
      P1  H  7989  7998       L1    22  0.10
      P1  H  8011  8017       L1    22  0.13

> <Gold.PLP.Chemscore.Internal.Correction>
0.1606

> <Gold.Rescore>
     Score         DG    S(hbond)    S(metal)    S(lipo)     H(rot)  DE(clash)    DE(int)     intcor
     11.02     -14.59       1.66        0.00      78.48       2.20       0.78       2.79       ----

> <Gold.Chemscore.Fitness>
11.0167

> <Gold.Chemscore.DG>
-14.5878

> <Gold.Chemscore.ZeroCoef>
-5.4800

> <Gold.Chemscore.Hbond>
1.6602

> <Gold.Chemscore.Metal>
0.0000

> <Gold.Chemscore.Lipo>
78.4829

> <Gold.Chemscore.Internal_Hbond>
0.0000

> <Gold.Chemscore.DEClash>
0.7807

> <Gold.Chemscore.DEInternal>
2.7904

> <Gold.Chemscore.Rot>
2.1952

> <Gold.Chemscore.Internal.Correction>
   9.000000E+99

> <Gold.Chemscore.Hbonds>
donor molecule, donor type, donor heavy atom, donor atom, acceptor molecule, acceptor atom, score
      P1  H  6934  6947       L1    18  0.82
      P1  H  8011  8017       L1    22  0.03

> <Gold.Chemscore.Hbond.Weighted>
-5.5450

> <Gold.Chemscore.Metal.Weighted>
-0.0000

> <Gold.Chemscore.Lipo.Weighted>
-9.1825

> <Gold.Chemscore.Internal_Hbond.Weighted>
0.0000

> <Gold.Chemscore.DEClash.Weighted>
0.7807

> <Gold.Chemscore.DEInternal.Weighted>
2.7904

> <Gold.Chemscore.Rot.Weighted>
5.6197

> <Gold.Chemscore.Internal.Correction.Weighted>
   9.000000E+99

> <Gold.Protein.RotatedTorsions>
[ 6907 6896 6895 6894 ] final  169.98 input  -60.11 | X-H torsion
[ 7974 7965 7964 7962 ] final  173.10 input  175.53 | X-H torsion
[ 8008 7997 7996 7995 ] final  -24.89 input   59.86 | X-H torsion
[ 10167 10162 10161 10158 ] final -130.78 input  -65.29 | X-H torsion
[ 10718 10713 10712 10709 ] final  -25.73 input   66.30 | X-H torsion
[ 10763 10752 10751 10750 ] final  119.75 input  -60.55 | X-H torsion
[ 11005 11000 10999 10996 ] final -148.34 input  -57.11 | X-H torsion

> <Gold.Protein.ActiveResidues>
 VAL166  LYS551  ARG553  GLY616  TRP617  ASP618  TYR619  PRO620  LYS621  CYS622 
 ASP623  PHE694  ASN695  SER759  ASP760  ASP761  ALA762  ILE779  LEU786  VAL792 
 PHE793  MET794  SER795  GLU796  ALA797  LYS798  CYS799  TRP800  GLU811  SER814 

> <Gold.Protein.RotatedAtoms>
  151.8233  133.3398  159.3590 H   0  0  0  0  0  0  0  0  0  0  0  0  # atno 6907 bound_to 6896
  150.7287  134.5553  159.5824 H   0  0  0  0  0  0  0  0  0  0  0  0  # atno 6908 bound_to 6896
  152.2990  134.7634  160.0413 H   0  0  0  0  0  0  0  0  0  0  0  0  # atno 6909 bound_to 6896
  144.7251  139.9598  143.6434 H   0  0  0  0  0  0  0  0  0  0  0  0  # atno 7974 bound_to 7965
  154.4505  140.1941  156.0534 H   0  0  0  0  0  0  0  0  0  0  0  0  # atno 8008 bound_to 7997
  156.0637  140.3293  155.7464 H   0  0  0  0  0  0  0  0  0  0  0  0  # atno 8009 bound_to 7997
  155.5372  140.0583  157.2868 H   0  0  0  0  0  0  0  0  0  0  0  0  # atno 8010 bound_to 7997
  139.9258  143.6329  152.2542 H   0  0  0  0  0  0  0  0  0  0  0  0  # atno 10167 bound_to 10162
  156.4605  130.4503  149.6931 H   0  0  0  0  0  0  0  0  0  0  0  0  # atno 10718 bound_to 10713
  153.5878  135.3471  155.2899 H   0  0  0  0  0  0  0  0  0  0  0  0  # atno 10763 bound_to 10752
  154.8657  135.4197  154.2549 H   0  0  0  0  0  0  0  0  0  0  0  0  # atno 10764 bound_to 10752
  153.3350  135.7046  153.6986 H   0  0  0  0  0  0  0  0  0  0  0  0  # atno 10765 bound_to 10752
  140.7623  134.3284  157.5098 H   0  0  0  0  0  0  0  0  0  0  0  0  # atno 11005 bound_to 11000
  146.0646  139.3638  143.0560 LP  0  0  0  0  0  0  0  0  0  0  0  0  # atno 17320 bound_to 7965
  145.8048  140.9754  143.0980 LP  0  0  0  0  0  0  0  0  0  0  0  0  # atno 17321 bound_to 7965
  139.6823  144.7654  151.1586 LP  0  0  0  0  0  0  0  0  0  0  0  0  # atno 17342 bound_to 10162
  140.7650  143.5706  150.8999 LP  0  0  0  0  0  0  0  0  0  0  0  0  # atno 17343 bound_to 10162
  156.3721  130.7536  151.2520 LP  0  0  0  0  0  0  0  0  0  0  0  0  # atno 17370 bound_to 10713
  157.7498  131.0320  150.4207 LP  0  0  0  0  0  0  0  0  0  0  0  0  # atno 17371 bound_to 10713
  139.8769  134.9209  156.3263 LP  0  0  0  0  0  0  0  0  0  0  0  0  # atno 17394 bound_to 11000
  140.9652  133.7363  156.0456 LP  0  0  0  0  0  0  0  0  0  0  0  0  # atno 17395 bound_to 11000

$$$$
