AV-unprocessed.smi:1287|AV-procd|sdf|5379|dock6
  -GOLD-   22720 4523D 1   1.00000     0.00000
 Structure written by MMmdl.
 44 45  0  0  0  0  0  0  0  0  1 V2000
  149.3262  132.5542  152.7167 C   0  0  0  0  0  0  0  0  0  0  0  0
  149.2740  133.2317  154.0816 C   0  0  0  0  0  0  0  0  0  0  0  0
  149.2064  132.5537  155.1066 O   0  0  0  0  0  0  0  0  0  0  0  0
  149.3083  134.5739  154.0804 N   0  0  0  0  0  0  0  0  0  0  0  0
  149.2935  135.4192  155.2733 C   0  0  2  0  0  0  0  0  0  0  0  0
  147.9477  136.1618  155.3177 C   0  0  0  0  0  0  0  0  0  0  0  0
  150.4213  136.4608  155.2022 C   0  0  0  0  0  0  0  0  0  0  0  0
  151.2142  136.5907  156.1365 O   0  0  0  0  0  0  0  0  0  0  0  0
  150.4775  137.1986  154.0831 N   0  0  0  0  0  0  0  0  0  0  0  0
  151.4321  138.2758  153.8423 C   0  0  0  0  0  0  0  0  0  0  0  0
  151.5740  139.2557  154.9993 C   0  0  0  0  0  0  0  0  0  0  0  0
  150.5840  140.2163  155.2966 C   0  0  0  0  0  0  0  0  0  0  0  0
  150.7838  141.0913  156.3811 C   0  0  0  0  0  0  0  0  0  0  0  0
  151.9711  140.9874  157.1443 C   0  0  0  0  0  0  0  0  0  0  0  0
  152.1899  141.8500  158.2410 N   0  0  0  0  0  0  0  0  0  0  0  0
  152.5139  141.2467  159.5328 C   0  0  0  0  0  0  0  0  0  0  0  0
  152.9937  142.3214  160.5227 C   0  0  0  0  0  0  0  0  0  0  0  0
  152.0139  143.3487  160.6271 O   0  0  0  0  0  0  0  0  0  0  0  0
  151.7957  143.9993  159.3798 C   0  0  0  0  0  0  0  0  0  0  0  0
  151.2765  142.9856  158.3454 C   0  0  0  0  0  0  0  0  0  0  0  0
  152.9269  140.0728  156.8449 N   0  0  0  0  0  0  0  0  0  0  0  0
  152.7297  139.2354  155.8051 C   0  0  0  0  0  0  0  0  0  0  0  0
  150.1868  132.9074  152.1474 H   0  0  0  0  0  0  0  0  0  0  0  0
  148.4213  132.7730  152.1490 H   0  0  0  0  0  0  0  0  0  0  0  0
  149.4099  131.4721  152.8241 H   0  0  0  0  0  0  0  0  0  0  0  0
  149.3725  135.0459  153.1902 H   0  0  0  0  0  0  0  0  0  0  0  0
  149.4001  134.8021  156.1681 H   0  0  0  0  0  0  0  0  0  0  0  0
  147.8838  136.8138  156.1898 H   0  0  0  0  0  0  0  0  0  0  0  0
  147.1176  135.4574  155.3793 H   0  0  0  0  0  0  0  0  0  0  0  0
  147.7920  136.7768  154.4298 H   0  0  0  0  0  0  0  0  0  0  0  0
  149.7914  137.0245  153.3629 H   0  0  0  0  0  0  0  0  0  0  0  0
  152.4072  137.8532  153.5938 H   0  0  0  0  0  0  0  0  0  0  0  0
  151.1041  138.8311  152.9634 H   0  0  0  0  0  0  0  0  0  0  0  0
  149.6827  140.2915  154.7062 H   0  0  0  0  0  0  0  0  0  0  0  0
  150.0339  141.8355  156.6034 H   0  0  0  0  0  0  0  0  0  0  0  0
  151.6304  140.7431  159.9278 H   0  0  0  0  0  0  0  0  0  0  0  0
  153.2941  140.4937  159.4134 H   0  0  0  0  0  0  0  0  0  0  0  0
  153.1524  141.8805  161.5069 H   0  0  0  0  0  0  0  0  0  0  0  0
  153.9484  142.7444  160.2058 H   0  0  0  0  0  0  0  0  0  0  0  0
  151.0670  144.7980  159.5192 H   0  0  0  0  0  0  0  0  0  0  0  0
  152.7191  144.4677  159.0351 H   0  0  0  0  0  0  0  0  0  0  0  0
  151.1485  143.4920  157.3898 H   0  0  0  0  0  0  0  0  0  0  0  0
  150.2934  142.6194  158.6437 H   0  0  0  0  0  0  0  0  0  0  0  0
  153.5203  138.5249  155.6132 H   0  0  0  0  0  0  0  0  0  0  0  0
  1  2  1  0  0  0  0
  1 23  1  0  0  0  0
  1 24  1  0  0  0  0
  1 25  1  0  0  0  0
  2  3  2  0  0  0  0
  2  4  1  0  0  0  0
  4  5  1  0  0  0  0
  4 26  1  0  0  0  0
  5  6  1  0  0  0  0
  5  7  1  0  0  0  0
  5 27  1  0  0  0  0
  6 28  1  0  0  0  0
  6 29  1  0  0  0  0
  6 30  1  0  0  0  0
  7  8  2  0  0  0  0
  7  9  1  0  0  0  0
  9 10  1  0  0  0  0
  9 31  1  0  0  0  0
 10 11  1  0  0  0  0
 10 32  1  0  0  0  0
 10 33  1  0  0  0  0
 11 22  1  0  0  0  0
 11 12  2  0  0  0  0
 12 13  1  0  0  0  0
 12 34  1  0  0  0  0
 13 14  2  0  0  0  0
 13 35  1  0  0  0  0
 14 15  1  0  0  0  0
 14 21  1  0  0  0  0
 15 20  1  0  0  0  0
 15 16  1  0  0  0  0
 16 17  1  0  0  0  0
 16 36  1  0  0  0  0
 16 37  1  0  0  0  0
 17 18  1  0  0  0  0
 17 38  1  0  0  0  0
 17 39  1  0  0  0  0
 18 19  1  0  0  0  0
 19 20  1  0  0  0  0
 19 40  1  0  0  0  0
 19 41  1  0  0  0  0
 20 42  1  0  0  0  0
 20 43  1  0  0  0  0
 21 22  2  0  0  0  0
 22 44  1  0  0  0  0
M  END
> <s_m_source_file>
AV-unprocessed.smi

> <i_m_source_file_index>
1287

> <i_lp_mmshare_version>
43012

> <i_f3d_flags>
0

> <s_epik_input>
W0NIM11DKD1PKVtOSF1bQ0BIXShbQ0gzXSlDKD1PKVtOSF1bQ0gyXWMxW2NIXVtjSF1jKG5bY0hdMSlOMltDSDJdW0NIMl1PW0NIMl1bQ0gyXTI=

> <s_epik_cmdline>
J2VwaWtfcHl0aG9uJywgJy1waCcsICc3LjAnLCAnLXRuJywgJzgnLCAnLW1hJywgJzIwMCcsICctbWV0YWxfYmluZGluZycsICctaW1hZScsICc8aW5maWxlLm1hZT4nLCAnLW9tYWUnLCAnPG91dGZpbGUubWFlPic=

> <r_lp_tautomer_probability>
1

> <r_epik_Ionization_Penalty>
0.00481935

> <r_epik_Ionization_Penalty_Charging>
0

> <r_epik_Ionization_Penalty_Neutral>
0.00481935

> <r_epik_State_Penalty>
0.00349439

> <r_epik_Charging_Adjusted_Penalty>
0.00349439

> <i_epik_Tot_Q>
0

> <i_epik_Tot_abs_Q>
0

> <r_epik_Metal_State_Penalty>
-0

> <b_epik_Metal_Only>
0

> <s_lp_Force_Field>
OPLS_2005

> <r_lp_Energy>
14.7746

> <b_lp_Chiralities_Consistent>
1

> <s_lp_Variant>
AV-unprocessed.smi:1287-1

> <Gold.Version>
5.8.1

> <Gold.Id.Protein>
6NUR|6NUR_protein|mol2

> <Gold.PLP.Fitness>
46.6322

> <Gold.PLP.PLP>
-38.4349

> <Gold.PLP.part.hbond>
-3.4979

> <Gold.PLP.part.metal>
0.0000

> <Gold.PLP.part.buried>
-3.6049

> <Gold.PLP.part.nonpolar>
-31.0959

> <Gold.PLP.part.repulsive>
0.1182

> <Gold.PLP.ligand.clash>
0.0000

> <Gold.PLP.ligand.torsion>
0.5961

> <Gold.PLP.Chemscore.Hbond>
3.0000

> <Gold.PLP.Chemscore.CHOScore>
0.0000

> <Gold.PLP.Chemscore.Metal>
0.0000

> <Gold.Chemscore.Hbonds>
donor molecule, donor type, donor heavy atom, donor atom, acceptor molecule, acceptor atom, score
      L1  H     4    26       P1  7948  0.50
      L1  H     9    31       P1  7948  1.00
      P1  H  7997  8009       L1    21  0.79

> <Gold.PLP.Chemscore.Internal.Correction>
0.3895

> <Gold.Rescore>
     Score         DG    S(hbond)    S(metal)    S(lipo)     H(rot)  DE(clash)    DE(int)     intcor
     16.44     -18.47       2.52        0.00      86.33       2.16       0.15       1.88       ----

> <Gold.Chemscore.Fitness>
16.4411

> <Gold.Chemscore.DG>
-18.4661

> <Gold.Chemscore.ZeroCoef>
-5.4800

> <Gold.Chemscore.Hbond>
2.5205

> <Gold.Chemscore.Metal>
0.0000

> <Gold.Chemscore.Lipo>
86.3349

> <Gold.Chemscore.Internal_Hbond>
0.0000

> <Gold.Chemscore.DEClash>
0.1496

> <Gold.Chemscore.DEInternal>
1.8755

> <Gold.Chemscore.Rot>
2.1616

> <Gold.Chemscore.Internal.Correction>
   9.000000E+99

> <Gold.Chemscore.Hbonds>
donor molecule, donor type, donor heavy atom, donor atom, acceptor molecule, acceptor atom, score
      L1  H     4    26       P1  7948  0.02
      L1  H     9    31       P1  7948  0.50
      P1  H  7997  8009       L1    21  0.17

> <Gold.Chemscore.Hbond.Weighted>
-8.4186

> <Gold.Chemscore.Metal.Weighted>
-0.0000

> <Gold.Chemscore.Lipo.Weighted>
-10.1012

> <Gold.Chemscore.Internal_Hbond.Weighted>
0.0000

> <Gold.Chemscore.DEClash.Weighted>
0.1496

> <Gold.Chemscore.DEInternal.Weighted>
1.8755

> <Gold.Chemscore.Rot.Weighted>
5.5336

> <Gold.Chemscore.Internal.Correction.Weighted>
   9.000000E+99

> <Gold.Protein.RotatedTorsions>
[ 6907 6896 6895 6894 ] final  -49.15 input  -60.11 | X-H torsion
[ 7974 7965 7964 7962 ] final  142.93 input  175.53 | X-H torsion
[ 8008 7997 7996 7995 ] final  164.92 input   59.86 | X-H torsion
[ 10167 10162 10161 10158 ] final  102.75 input  -65.29 | X-H torsion
[ 10718 10713 10712 10709 ] final -167.62 input   66.30 | X-H torsion
[ 10763 10752 10751 10750 ] final  110.85 input  -60.55 | X-H torsion
[ 11005 11000 10999 10996 ] final  -11.97 input  -57.11 | X-H torsion

> <Gold.Protein.ActiveResidues>
 VAL166  LYS551  ARG553  GLY616  TRP617  ASP618  TYR619  PRO620  LYS621  CYS622 
 ASP623  PHE694  ASN695  SER759  ASP760  ASP761  ALA762  ILE779  LEU786  VAL792 
 PHE793  MET794  SER795  GLU796  ALA797  LYS798  CYS799  TRP800  GLU811  SER814 

> <Gold.Protein.RotatedAtoms>
  150.8834  134.8228  159.7241 H   0  0  0  0  0  0  0  0  0  0  0  0  # atno 6907 bound_to 6896
  152.4792  134.4761  159.9660 H   0  0  0  0  0  0  0  0  0  0  0  0  # atno 6908 bound_to 6896
  151.4832  133.3503  159.2877 H   0  0  0  0  0  0  0  0  0  0  0  0  # atno 6909 bound_to 6896
  144.8964  139.5484  143.5774 H   0  0  0  0  0  0  0  0  0  0  0  0  # atno 7974 bound_to 7965
  156.1842  140.1684  156.8218 H   0  0  0  0  0  0  0  0  0  0  0  0  # atno 8008 bound_to 7997
  154.5394  140.0740  156.8517 H   0  0  0  0  0  0  0  0  0  0  0  0  # atno 8009 bound_to 7997
  155.3245  140.3375  155.4243 H   0  0  0  0  0  0  0  0  0  0  0  0  # atno 8010 bound_to 7997
  139.7323  144.7033  151.0703 H   0  0  0  0  0  0  0  0  0  0  0  0  # atno 10167 bound_to 10162
  156.6850  130.9137  151.3062 H   0  0  0  0  0  0  0  0  0  0  0  0  # atno 10718 bound_to 10713
  153.4549  135.3735  155.2305 H   0  0  0  0  0  0  0  0  0  0  0  0  # atno 10763 bound_to 10752
  154.8757  135.3894  154.3994 H   0  0  0  0  0  0  0  0  0  0  0  0  # atno 10764 bound_to 10752
  153.4559  135.7086  153.6144 H   0  0  0  0  0  0  0  0  0  0  0  0  # atno 10765 bound_to 10752
  140.7609  133.8516  155.9124 H   0  0  0  0  0  0  0  0  0  0  0  0  # atno 11005 bound_to 11000
  146.3084  139.7659  142.9039 LP  0  0  0  0  0  0  0  0  0  0  0  0  # atno 17320 bound_to 7965
  145.3692  141.0340  143.3241 LP  0  0  0  0  0  0  0  0  0  0  0  0  # atno 17321 bound_to 7965
  140.7773  143.5028  150.9750 LP  0  0  0  0  0  0  0  0  0  0  0  0  # atno 17342 bound_to 10162
  139.8716  143.7185  152.3166 LP  0  0  0  0  0  0  0  0  0  0  0  0  # atno 17343 bound_to 10162
  157.7030  130.9353  150.0843 LP  0  0  0  0  0  0  0  0  0  0  0  0  # atno 17370 bound_to 10713
  156.1839  130.3651  149.8998 LP  0  0  0  0  0  0  0  0  0  0  0  0  # atno 17371 bound_to 10713
  140.9664  134.1588  157.4612 LP  0  0  0  0  0  0  0  0  0  0  0  0  # atno 17394 bound_to 11000
  139.8771  134.9963  156.5788 LP  0  0  0  0  0  0  0  0  0  0  0  0  # atno 17395 bound_to 11000

$$$$
