AV-unprocessed.smi:1748|AV-procd|sdf|7041|dock2
  -GOLD-   22720 8263D 1   1.00000     0.00000
 Structure written by MMmdl.
 39 40  0  0  0  0  0  0  0  0  3 V2000
  146.1417  133.9240  150.8136 C   0  0  0  0  0  0  0  0  0  0  0  0
  146.8075  134.0674  152.1258 N   0  3  2  0  0  0  0  0  0  0  0  0
  147.2266  132.7622  152.6958 C   0  0  0  0  0  0  0  0  0  0  0  0
  148.0263  132.9547  153.9964 C   0  0  0  0  0  0  0  0  0  0  0  0
  147.2457  133.8049  155.0143 C   0  0  0  0  0  0  0  0  0  0  0  0
  146.7877  135.1341  154.3867 C   0  0  1  0  0  0  0  0  0  0  0  0
  147.9476  135.9891  154.1352 N   0  0  0  0  0  0  0  0  0  0  0  0
  148.5752  136.7385  155.0523 C   0  0  0  0  0  0  0  0  0  0  0  0
  148.2431  136.7713  156.2369 O   0  0  0  0  0  0  0  0  0  0  0  0
  149.5638  137.4538  154.4879 N   0  0  0  0  0  0  0  0  0  0  0  0
  150.4391  138.3752  155.0850 C   0  0  0  0  0  0  0  0  0  0  0  0
  150.0493  139.4057  155.8848 C   0  0  0  0  0  0  0  0  0  0  0  0
  151.0030  140.3291  156.4865 C   0  0  0  0  0  0  0  0  0  0  0  0
  150.6084  141.4370  157.4473 C   0  0  0  0  0  0  0  0  0  0  0  0
  151.1801  141.2675  158.6398 F   0  0  0  0  0  0  0  0  0  0  0  0
  150.9960  142.6164  156.9634 F   0  0  0  0  0  0  0  0  0  0  0  0
  149.2867  141.4718  157.6161 F   0  0  0  0  0  0  0  0  0  0  0  0
  152.3103  140.0109  156.1720 C   0  0  0  0  0  0  0  0  0  0  0  0
  152.7783  139.0176  155.3840 N   0  5  0  0  0  0  0  0  0  0  0  0
  151.8772  138.1628  154.8234 C   0  0  0  0  0  0  0  0  0  0  0  0
  152.2341  137.2270  154.1064 O   0  0  0  0  0  0  0  0  0  0  0  0
  145.9963  134.8526  153.0898 C   0  0  0  0  0  0  0  0  0  0  0  0
  145.2053  133.3727  150.9074 H   0  0  0  0  0  0  0  0  0  0  0  0
  146.7844  133.3913  150.1121 H   0  0  0  0  0  0  0  0  0  0  0  0
  145.9220  134.9027  150.3853 H   0  0  0  0  0  0  0  0  0  0  0  0
  146.3452  132.1474  152.8854 H   0  0  0  0  0  0  0  0  0  0  0  0
  147.8381  132.2247  151.9699 H   0  0  0  0  0  0  0  0  0  0  0  0
  148.2675  131.9844  154.4313 H   0  0  0  0  0  0  0  0  0  0  0  0
  148.9804  133.4322  153.7700 H   0  0  0  0  0  0  0  0  0  0  0  0
  146.3723  133.2466  155.3541 H   0  0  0  0  0  0  0  0  0  0  0  0
  147.8545  133.9888  155.9005 H   0  0  0  0  0  0  0  0  0  0  0  0
  146.1364  135.6449  155.0981 H   0  0  0  0  0  0  0  0  0  0  0  0
  148.2944  136.0184  153.1873 H   0  0  0  0  0  0  0  0  0  0  0  0
  149.6654  137.3754  153.4865 H   0  0  0  0  0  0  0  0  0  0  0  0
  149.0077  139.5610  156.1143 H   0  0  0  0  0  0  0  0  0  0  0  0
  153.1000  140.6460  156.6271 H   0  0  0  0  0  0  0  0  0  0  0  0
  145.6830  135.7896  152.6272 H   0  0  0  0  0  0  0  0  0  0  0  0
  145.0815  134.3052  153.3226 H   0  0  0  0  0  0  0  0  0  0  0  0
  147.6510  134.5985  151.9618 H   0  0  0  0  0  0  0  0  0  0  0  0
  1  2  1  0  0  0  0
  1 23  1  0  0  0  0
  1 24  1  0  0  0  0
  1 25  1  0  0  0  0
  2 22  1  0  0  0  0
  2  3  1  0  0  0  0
  2 39  1  0  0  0  0
  3  4  1  0  0  0  0
  3 26  1  0  0  0  0
  3 27  1  0  0  0  0
  4  5  1  0  0  0  0
  4 28  1  0  0  0  0
  4 29  1  0  0  0  0
  5  6  1  0  0  0  0
  5 30  1  0  0  0  0
  5 31  1  0  0  0  0
  6  7  1  0  0  0  0
  6 22  1  0  0  0  0
  6 32  1  0  0  0  0
  7  8  1  0  0  0  0
  7 33  1  0  0  0  0
  8  9  2  0  0  0  0
  8 10  1  0  0  0  0
 10 11  1  0  0  0  0
 10 34  1  0  0  0  0
 11 20  1  0  0  0  0
 11 12  2  0  0  0  0
 12 13  1  0  0  0  0
 12 35  1  0  0  0  0
 13 14  1  0  0  0  0
 13 18  2  0  0  0  0
 14 15  1  0  0  0  0
 14 16  1  0  0  0  0
 14 17  1  0  0  0  0
 18 19  1  0  0  0  0
 18 36  1  0  0  0  0
 19 20  1  0  0  0  0
 20 21  2  0  0  0  0
 22 37  1  0  0  0  0
 22 38  1  0  0  0  0
M  CHG  1   2   1
M  CHG  1  19  -1
M  END
> <s_m_source_file>
AV-unprocessed.smi

> <i_m_source_file_index>
1748

> <i_lp_mmshare_version>
43012

> <i_f3d_flags>
0

> <s_epik_input>
W0NIM11OMVtDSDJdW0NIMl1bQ0gyXVtDQEhdKFtDSDJdMSlbTkhdQyg9TylbTkhdYzJbY0hdYyhDKEYpKEYpRilbY0hdW25IXWMyPU8=

> <s_epik_cmdline>
J2VwaWtfcHl0aG9uJywgJy1waCcsICc3LjAnLCAnLXRuJywgJzgnLCAnLW1hJywgJzIwMCcsICctbWV0YWxfYmluZGluZycsICctaW1hZScsICc8aW5maWxlLm1hZT4nLCAnLW9tYWUnLCAnPG91dGZpbGUubWFlPic=

> <r_lp_tautomer_probability>
1

> <r_epik_Ionization_Penalty>
3.00907

> <r_epik_Ionization_Penalty_Charging>
0.148702

> <r_epik_Ionization_Penalty_Neutral>
2.86036

> <r_epik_State_Penalty>
2.85557

> <r_epik_Charging_Adjusted_Penalty>
3.00428

> <i_epik_Tot_Q>
0

> <i_epik_Tot_abs_Q>
2

> <r_epik_Metal_State_Penalty>
0.443779

> <b_epik_Metal_Only>
1

> <s_lp_Force_Field>
OPLS_2005

> <r_lp_Energy>
32.6678

> <b_lp_Chiralities_Consistent>
1

> <s_lp_Variant>
AV-unprocessed.smi:1748-6

> <Gold.Version>
5.8.1

> <Gold.Id.Protein>
6NUR|6NUR_protein|mol2

> <Gold.PLP.Fitness>
41.6178

> <Gold.PLP.PLP>
-29.4852

> <Gold.PLP.part.hbond>
-4.6287

> <Gold.PLP.part.metal>
0.0000

> <Gold.PLP.part.buried>
-3.5224

> <Gold.PLP.part.nonpolar>
-22.7582

> <Gold.PLP.part.repulsive>
0.5910

> <Gold.PLP.ligand.clash>
0.0000

> <Gold.PLP.ligand.torsion>
0.7714

> <Gold.PLP.Chemscore.Hbond>
4.5405

> <Gold.PLP.Chemscore.CHOScore>
0.0000

> <Gold.PLP.Chemscore.Metal>
0.0000

> <Gold.Chemscore.Hbonds>
donor molecule, donor type, donor heavy atom, donor atom, acceptor molecule, acceptor atom, score
      L1  H     2    39       P1  7948  1.95
      L1  H     7    33       P1  7948  0.89
      L1  H    10    34       P1  7948  0.73
      P1  H  7997  8009       L1    19  0.03
      P1  H 10752 10764       L1    21  0.88

> <Gold.PLP.Chemscore.Internal.Correction>
0.0539

> <Gold.Rescore>
     Score         DG    S(hbond)    S(metal)    S(lipo)     H(rot)  DE(clash)    DE(int)     intcor
     18.26     -19.16       3.24        0.00      46.41       1.00       0.11       0.79       ----

> <Gold.Chemscore.Fitness>
18.2649

> <Gold.Chemscore.DG>
-19.1593

> <Gold.Chemscore.ZeroCoef>
-5.4800

> <Gold.Chemscore.Hbond>
3.2362

> <Gold.Chemscore.Metal>
0.0000

> <Gold.Chemscore.Lipo>
46.4123

> <Gold.Chemscore.Internal_Hbond>
0.0000

> <Gold.Chemscore.DEClash>
0.1084

> <Gold.Chemscore.DEInternal>
0.7859

> <Gold.Chemscore.Rot>
1.0000

> <Gold.Chemscore.Internal.Correction>
   9.000000E+99

> <Gold.Chemscore.Hbonds>
donor molecule, donor type, donor heavy atom, donor atom, acceptor molecule, acceptor atom, score
      L1  H     2    39       P1  7948  0.46
      L1  H     7    33       P1  7948  0.87
      L1  H    10    34       P1  7948  0.56
      P1  H 10752 10764       L1    21  0.86

> <Gold.Chemscore.Hbond.Weighted>
-10.8090

> <Gold.Chemscore.Metal.Weighted>
-0.0000

> <Gold.Chemscore.Lipo.Weighted>
-5.4302

> <Gold.Chemscore.Internal_Hbond.Weighted>
0.0000

> <Gold.Chemscore.DEClash.Weighted>
0.1084

> <Gold.Chemscore.DEInternal.Weighted>
0.7859

> <Gold.Chemscore.Rot.Weighted>
2.5600

> <Gold.Chemscore.Internal.Correction.Weighted>
   9.000000E+99

> <Gold.Protein.RotatedTorsions>
[ 6907 6896 6895 6894 ] final  -79.88 input  -60.11 | X-H torsion
[ 7974 7965 7964 7962 ] final  173.87 input  175.53 | X-H torsion
[ 8008 7997 7996 7995 ] final -108.32 input   59.86 | X-H torsion
[ 10167 10162 10161 10158 ] final  146.94 input  -65.29 | X-H torsion
[ 10718 10713 10712 10709 ] final  146.54 input   66.30 | X-H torsion
[ 10763 10752 10751 10750 ] final  -87.02 input  -60.55 | X-H torsion
[ 11005 11000 10999 10996 ] final  -82.47 input  -57.11 | X-H torsion

> <Gold.Protein.ActiveResidues>
 VAL166  LYS551  ARG553  GLY616  TRP617  ASP618  TYR619  PRO620  LYS621  CYS622 
 ASP623  PHE694  ASN695  SER759  ASP760  ASP761  ALA762  ILE779  LEU786  VAL792 
 PHE793  MET794  SER795  GLU796  ALA797  LYS798  CYS799  TRP800  GLU811  SER814 

> <Gold.Protein.RotatedAtoms>
  150.6940  134.4054  159.5137 H   0  0  0  0  0  0  0  0  0  0  0  0  # atno 6907 bound_to 6896
  152.1821  134.8742  160.0534 H   0  0  0  0  0  0  0  0  0  0  0  0  # atno 6908 bound_to 6896
  151.9729  133.3697  159.4115 H   0  0  0  0  0  0  0  0  0  0  0  0  # atno 6909 bound_to 6896
  144.7234  139.9713  143.6437 H   0  0  0  0  0  0  0  0  0  0  0  0  # atno 7974 bound_to 7965
  154.9425  140.0402  157.2104 H   0  0  0  0  0  0  0  0  0  0  0  0  # atno 8008 bound_to 7997
  154.8055  140.2859  155.5868 H   0  0  0  0  0  0  0  0  0  0  0  0  # atno 8009 bound_to 7997
  156.2966  140.2547  156.2933 H   0  0  0  0  0  0  0  0  0  0  0  0  # atno 8010 bound_to 7997
  139.4898  144.5792  151.6905 H   0  0  0  0  0  0  0  0  0  0  0  0  # atno 10167 bound_to 10162
  157.3319  131.0922  151.1155 H   0  0  0  0  0  0  0  0  0  0  0  0  # atno 10718 bound_to 10713
  154.6289  135.5428  153.7658 H   0  0  0  0  0  0  0  0  0  0  0  0  # atno 10763 bound_to 10752
  153.0275  135.6431  154.1330 H   0  0  0  0  0  0  0  0  0  0  0  0  # atno 10764 bound_to 10752
  154.1261  135.2917  155.3176 H   0  0  0  0  0  0  0  0  0  0  0  0  # atno 10765 bound_to 10752
  141.1663  133.7246  156.8577 H   0  0  0  0  0  0  0  0  0  0  0  0  # atno 11005 bound_to 11000
  146.0561  139.3558  143.0610 LP  0  0  0  0  0  0  0  0  0  0  0  0  # atno 17320 bound_to 7965
  145.8153  140.9706  143.0927 LP  0  0  0  0  0  0  0  0  0  0  0  0  # atno 17321 bound_to 7965
  140.5395  144.0602  150.6083 LP  0  0  0  0  0  0  0  0  0  0  0  0  # atno 17342 bound_to 10162
  140.3619  143.2903  152.0374 LP  0  0  0  0  0  0  0  0  0  0  0  0  # atno 17343 bound_to 10162
  157.2400  130.6565  149.5886 LP  0  0  0  0  0  0  0  0  0  0  0  0  # atno 17370 bound_to 10713
  155.9697  130.4571  150.5951 LP  0  0  0  0  0  0  0  0  0  0  0  0  # atno 17371 bound_to 10713
  140.1871  134.8992  157.3017 LP  0  0  0  0  0  0  0  0  0  0  0  0  # atno 17394 bound_to 11000
  140.2331  134.3885  155.7513 LP  0  0  0  0  0  0  0  0  0  0  0  0  # atno 17395 bound_to 11000

$$$$
