AV-unprocessed.smi:1224|AV-procd|sdf|5132|dock3
  -GOLD-   22720 4193D 1   1.00000     0.00000
 Structure written by MMmdl.
 43 45  0  0  0  0  0  0  0  0  1 V2000
  153.0879  142.5824  161.4249 C   0  0  0  0  0  0  0  0  0  0  0  0
  152.4984  142.2981  160.0545 C   0  0  0  0  0  0  0  0  0  0  0  0
  152.6176  140.9988  159.5112 C   0  0  0  0  0  0  0  0  0  0  0  0
  152.0826  140.6933  158.2405 C   0  0  0  0  0  0  0  0  0  0  0  0
  152.0832  139.5074  157.5259 N   0  0  0  0  0  0  0  0  0  0  0  0
  151.4331  139.8605  156.4205 C   0  0  0  0  0  0  0  0  0  0  0  0
  151.0119  141.1370  156.3343 N   0  0  0  0  0  0  0  0  0  0  0  0
  150.2892  141.7514  155.2348 C   0  0  0  0  0  0  0  0  0  0  0  0
  149.0097  140.9775  154.8650 C   0  0  2  0  0  0  0  0  0  0  0  0
  148.6529  141.2910  153.5328 O   0  0  0  0  0  0  0  0  0  0  0  0
  147.8336  141.3503  155.7823 C   0  0  0  0  0  0  0  0  0  0  0  0
  147.1624  142.5599  155.3161 N   0  0  0  0  0  0  0  0  0  0  0  0
  145.9901  142.2874  154.4928 C   0  0  0  0  0  0  0  0  0  0  0  0
  145.2846  143.5420  154.1002 C   0  0  0  0  0  0  0  0  0  0  0  0
  145.4874  144.3018  152.9761 C   0  0  0  0  0  0  0  0  0  0  0  0
  144.6337  145.4417  152.9077 C   0  0  0  0  0  0  0  0  0  0  0  0
  143.7894  145.5374  153.9819 C   0  0  0  0  0  0  0  0  0  0  0  0
  144.0277  144.2239  155.1016 S   0  0  0  0  0  0  0  0  0  0  0  0
  151.4203  141.7316  157.5226 C   0  0  0  0  0  0  0  0  0  0  0  0
  151.2948  143.0278  158.0524 C   0  0  0  0  0  0  0  0  0  0  0  0
  151.8347  143.3159  159.3233 C   0  0  0  0  0  0  0  0  0  0  0  0
  151.6922  144.7182  159.8878 C   0  0  0  0  0  0  0  0  0  0  0  0
  153.5650  141.6965  161.8448 H   0  0  0  0  0  0  0  0  0  0  0  0
  152.3087  142.9025  162.1168 H   0  0  0  0  0  0  0  0  0  0  0  0
  153.8407  143.3682  161.3615 H   0  0  0  0  0  0  0  0  0  0  0  0
  153.1220  140.2228  160.0678 H   0  0  0  0  0  0  0  0  0  0  0  0
  151.2499  139.1502  155.6275 H   0  0  0  0  0  0  0  0  0  0  0  0
  150.0415  142.7734  155.5239 H   0  0  0  0  0  0  0  0  0  0  0  0
  150.9554  141.8238  154.3737 H   0  0  0  0  0  0  0  0  0  0  0  0
  149.2105  139.9070  154.9342 H   0  0  0  0  0  0  0  0  0  0  0  0
  149.3208  140.9477  152.9587 H   0  0  0  0  0  0  0  0  0  0  0  0
  147.1144  140.5301  155.7849 H   0  0  0  0  0  0  0  0  0  0  0  0
  148.1727  141.4652  156.8129 H   0  0  0  0  0  0  0  0  0  0  0  0
  147.8207  143.1217  154.7856 H   0  0  0  0  0  0  0  0  0  0  0  0
  146.2839  141.7364  153.5985 H   0  0  0  0  0  0  0  0  0  0  0  0
  145.2969  141.6440  155.0357 H   0  0  0  0  0  0  0  0  0  0  0  0
  146.2116  144.0790  152.2066 H   0  0  0  0  0  0  0  0  0  0  0  0
  144.6677  146.1406  152.0851 H   0  0  0  0  0  0  0  0  0  0  0  0
  143.0459  146.2947  154.1828 H   0  0  0  0  0  0  0  0  0  0  0  0
  150.7855  143.7926  157.4847 H   0  0  0  0  0  0  0  0  0  0  0  0
  151.1749  145.3774  159.1900 H   0  0  0  0  0  0  0  0  0  0  0  0
  152.6720  145.1505  160.0918 H   0  0  0  0  0  0  0  0  0  0  0  0
  151.1212  144.6988  160.8162 H   0  0  0  0  0  0  0  0  0  0  0  0
  1  2  1  0  0  0  0
  1 23  1  0  0  0  0
  1 24  1  0  0  0  0
  1 25  1  0  0  0  0
  2 21  1  0  0  0  0
  2  3  2  0  0  0  0
  3  4  1  0  0  0  0
  3 26  1  0  0  0  0
  4 19  2  0  0  0  0
  4  5  1  0  0  0  0
  5  6  2  0  0  0  0
  6  7  1  0  0  0  0
  6 27  1  0  0  0  0
  7  8  1  0  0  0  0
  7 19  1  0  0  0  0
  8  9  1  0  0  0  0
  8 28  1  0  0  0  0
  8 29  1  0  0  0  0
  9 10  1  0  0  0  0
  9 11  1  0  0  0  0
  9 30  1  0  0  0  0
 10 31  1  0  0  0  0
 11 12  1  0  0  0  0
 11 32  1  0  0  0  0
 11 33  1  0  0  0  0
 12 13  1  0  0  0  0
 12 34  1  0  0  0  0
 13 14  1  0  0  0  0
 13 35  1  0  0  0  0
 13 36  1  0  0  0  0
 14 18  1  0  0  0  0
 14 15  2  0  0  0  0
 15 16  1  0  0  0  0
 15 37  1  0  0  0  0
 16 17  2  0  0  0  0
 16 38  1  0  0  0  0
 17 18  1  0  0  0  0
 17 39  1  0  0  0  0
 19 20  1  0  0  0  0
 20 21  2  0  0  0  0
 20 40  1  0  0  0  0
 21 22  1  0  0  0  0
 22 41  1  0  0  0  0
 22 42  1  0  0  0  0
 22 43  1  0  0  0  0
M  END
> <s_m_source_file>
AV-unprocessed.smi

> <i_m_source_file_index>
1224

> <i_lp_mmshare_version>
43012

> <i_f3d_flags>
0

> <s_epik_input>
W0NIM11jKFtjSF0xKWMoW0NIM10pW2NIXWMoYzEyKW4oW2NIXW4yKVtDSDJdW0NASF0oW09IXSlbQ0gyXVtOSF1bQ0gyXWMzW2NIXVtjSF1bY0hdczM=

> <s_epik_cmdline>
J2VwaWtfcHl0aG9uJywgJy1waCcsICc3LjAnLCAnLXRuJywgJzgnLCAnLW1hJywgJzIwMCcsICctbWV0YWxfYmluZGluZycsICctaW1hZScsICc8aW5maWxlLm1hZT4nLCAnLW9tYWUnLCAnPG91dGZpbGUubWFlPic=

> <r_epik_Ionization_Penalty>
1.55566

> <r_epik_Ionization_Penalty_Charging>
0

> <r_epik_Ionization_Penalty_Neutral>
1.55566

> <r_epik_State_Penalty>
1.63945

> <r_epik_Charging_Adjusted_Penalty>
1.63945

> <i_epik_Tot_Q>
0

> <i_epik_Tot_abs_Q>
0

> <r_epik_Metal_State_Penalty>
1.52326

> <b_epik_Metal_Only>
0

> <s_lp_Force_Field>
OPLS_2005

> <r_lp_Energy>
13.7285

> <b_lp_Chiralities_Consistent>
1

> <s_lp_Variant>
AV-unprocessed.smi:1224-5

> <Gold.Version>
5.8.1

> <Gold.Id.Protein>
6NUR|6NUR_protein|mol2

> <Gold.PLP.Fitness>
54.2865

> <Gold.PLP.PLP>
-52.6271

> <Gold.PLP.part.hbond>
-3.0000

> <Gold.PLP.part.metal>
0.0000

> <Gold.PLP.part.buried>
-3.2592

> <Gold.PLP.part.nonpolar>
-46.4594

> <Gold.PLP.part.repulsive>
0.0000

> <Gold.PLP.ligand.clash>
0.0000

> <Gold.PLP.ligand.torsion>
1.1446

> <Gold.PLP.Chemscore.Hbond>
1.2678

> <Gold.PLP.Chemscore.CHOScore>
0.0000

> <Gold.PLP.Chemscore.Metal>
0.0000

> <Gold.Chemscore.Hbonds>
donor molecule, donor type, donor heavy atom, donor atom, acceptor molecule, acceptor atom, score
      L1  H    10    31       P1  7957  0.86
      L1  H    12    34       P1  8028  0.40

> <Gold.PLP.Chemscore.Internal.Correction>
0.1451

> <Gold.Rescore>
     Score         DG    S(hbond)    S(metal)    S(lipo)     H(rot)  DE(clash)    DE(int)     intcor
     14.52     -18.91       1.15        0.00     132.67       2.32       2.17       2.23       ----

> <Gold.Chemscore.Fitness>
14.5166

> <Gold.Chemscore.DG>
-18.9099

> <Gold.Chemscore.ZeroCoef>
-5.4800

> <Gold.Chemscore.Hbond>
1.1498

> <Gold.Chemscore.Metal>
0.0000

> <Gold.Chemscore.Lipo>
132.6671

> <Gold.Chemscore.Internal_Hbond>
0.0000

> <Gold.Chemscore.DEClash>
2.1675

> <Gold.Chemscore.DEInternal>
2.2258

> <Gold.Chemscore.Rot>
2.3173

> <Gold.Chemscore.Internal.Correction>
   9.000000E+99

> <Gold.Chemscore.Hbonds>
donor molecule, donor type, donor heavy atom, donor atom, acceptor molecule, acceptor atom, score
      L1  H    10    31       P1  7957  0.79
      L1  H    12    34       P1  8028  0.30

> <Gold.Chemscore.Hbond.Weighted>
-3.8403

> <Gold.Chemscore.Metal.Weighted>
-0.0000

> <Gold.Chemscore.Lipo.Weighted>
-15.5221

> <Gold.Chemscore.Internal_Hbond.Weighted>
0.0000

> <Gold.Chemscore.DEClash.Weighted>
2.1675

> <Gold.Chemscore.DEInternal.Weighted>
2.2258

> <Gold.Chemscore.Rot.Weighted>
5.9324

> <Gold.Chemscore.Internal.Correction.Weighted>
   9.000000E+99

> <Gold.Protein.RotatedTorsions>
[ 6907 6896 6895 6894 ] final  -77.45 input  -60.11 | X-H torsion
[ 7974 7965 7964 7962 ] final   77.71 input  175.53 | X-H torsion
[ 8008 7997 7996 7995 ] final   71.52 input   59.86 | X-H torsion
[ 10167 10162 10161 10158 ] final  134.82 input  -65.29 | X-H torsion
[ 10718 10713 10712 10709 ] final   37.12 input   66.30 | X-H torsion
[ 10763 10752 10751 10750 ] final  163.67 input  -60.55 | X-H torsion
[ 11005 11000 10999 10996 ] final -150.00 input  -57.11 | X-H torsion

> <Gold.Protein.ActiveResidues>
 VAL166  LYS551  ARG553  GLY616  TRP617  ASP618  TYR619  PRO620  LYS621  CYS622 
 ASP623  PHE694  ASN695  SER759  ASP760  ASP761  ALA762  ILE779  LEU786  VAL792 
 PHE793  MET794  SER795  GLU796  ALA797  LYS798  CYS799  TRP800  GLU811  SER814 

> <Gold.Protein.RotatedAtoms>
  150.6998  134.4420  159.5296 H   0  0  0  0  0  0  0  0  0  0  0  0  # atno 6907 bound_to 6896
  152.2128  134.8483  160.0504 H   0  0  0  0  0  0  0  0  0  0  0  0  # atno 6908 bound_to 6896
  151.9362  133.3590  159.3985 H   0  0  0  0  0  0  0  0  0  0  0  0  # atno 6909 bound_to 6896
  145.6865  139.2539  143.1784 H   0  0  0  0  0  0  0  0  0  0  0  0  # atno 7974 bound_to 7965
  155.7551  140.3488  155.5170 H   0  0  0  0  0  0  0  0  0  0  0  0  # atno 8008 bound_to 7997
  155.8967  140.1027  157.1400 H   0  0  0  0  0  0  0  0  0  0  0  0  # atno 8009 bound_to 7997
  154.4039  140.1294  156.4371 H   0  0  0  0  0  0  0  0  0  0  0  0  # atno 8010 bound_to 7997
  139.5241  144.6548  151.5195 H   0  0  0  0  0  0  0  0  0  0  0  0  # atno 10167 bound_to 10162
  157.3431  130.7558  149.6925 H   0  0  0  0  0  0  0  0  0  0  0  0  # atno 10718 bound_to 10713
  154.2973  135.2760  155.2627 H   0  0  0  0  0  0  0  0  0  0  0  0  # atno 10763 bound_to 10752
  154.5080  135.5790  153.6586 H   0  0  0  0  0  0  0  0  0  0  0  0  # atno 10764 bound_to 10752
  152.9905  135.6174  154.3141 H   0  0  0  0  0  0  0  0  0  0  0  0  # atno 10765 bound_to 10752
  140.7448  134.3473  157.5139 H   0  0  0  0  0  0  0  0  0  0  0  0  # atno 11005 bound_to 11000
  146.0919  140.7645  142.9591 LP  0  0  0  0  0  0  0  0  0  0  0  0  # atno 17320 bound_to 7965
  144.7010  140.3651  143.7156 LP  0  0  0  0  0  0  0  0  0  0  0  0  # atno 17321 bound_to 7965
  140.6369  143.8967  150.6655 LP  0  0  0  0  0  0  0  0  0  0  0  0  # atno 17342 bound_to 10162
  140.2289  143.3751  152.1582 LP  0  0  0  0  0  0  0  0  0  0  0  0  # atno 17343 bound_to 10162
  155.9710  130.4162  150.4219 LP  0  0  0  0  0  0  0  0  0  0  0  0  # atno 17370 bound_to 10713
  157.2269  131.0495  151.2514 LP  0  0  0  0  0  0  0  0  0  0  0  0  # atno 17371 bound_to 10713
  139.8799  134.9104  156.3013 LP  0  0  0  0  0  0  0  0  0  0  0  0  # atno 17394 bound_to 11000
  140.9804  133.7271  156.0663 LP  0  0  0  0  0  0  0  0  0  0  0  0  # atno 17395 bound_to 11000

$$$$
