AV-unprocessed.smi:3068|AV-procd|sdf|11703|dock5
  -GOLD-   2272017103D 1   1.00000     0.00000
 Structure written by MMmdl.
 40 42  0  0  0  0  0  0  0  0  2 V2000
  151.1556  137.9208  154.4441 N   0  0  0  0  0  0  0  0  0  0  0  0
  150.2114  138.5710  154.2868 C   0  0  0  0  0  0  0  0  0  0  0  0
  149.0229  139.3907  154.0873 C   0  0  0  0  0  0  0  0  0  0  0  0
  149.1667  140.7236  154.2710 N   0  0  0  0  0  0  0  0  0  0  0  0
  148.0732  141.4946  154.0922 C   0  0  0  0  0  0  0  0  0  0  0  0
  146.8309  140.9390  153.7299 C   0  0  0  0  0  0  0  0  0  0  0  0
  146.6778  139.6105  153.5457 N   0  0  0  0  0  0  0  0  0  0  0  0
  147.7690  138.8237  153.7223 C   0  0  0  0  0  0  0  0  0  0  0  0
  147.6254  137.4363  153.5335 N   0  0  0  0  0  0  0  0  0  0  0  0
  146.5221  136.6861  154.1223 C   0  0  0  0  0  0  0  0  0  0  0  0
  146.0869  135.4968  153.2492 C   0  0  1  0  0  0  0  0  0  0  0  0
  145.2603  134.4754  154.0611 C   0  0  0  0  0  0  0  0  0  0  0  0
  144.7336  133.3905  153.1980 N   0  3  2  0  0  0  0  0  0  0  0  0
  145.7563  132.3706  152.8382 C   0  0  0  0  0  0  0  0  0  0  0  0
  145.1436  131.2360  152.0045 C   0  0  0  0  0  0  0  0  0  0  0  0
  144.4759  131.7928  150.7424 C   0  0  0  0  0  0  0  0  0  0  0  0
  143.4234  132.8405  151.1291 C   0  0  0  0  0  0  0  0  0  0  0  0
  143.9985  133.9531  152.0313 C   0  0  2  0  0  0  0  0  0  0  0  0
  144.8717  134.9798  151.2798 C   0  0  0  0  0  0  0  0  0  0  0  0
  145.2810  135.9975  152.1861 O   0  0  0  0  0  0  0  0  0  0  0  0
  148.1902  142.5582  154.2389 H   0  0  0  0  0  0  0  0  0  0  0  0
  145.9592  141.5603  153.5878 H   0  0  0  0  0  0  0  0  0  0  0  0
  148.3578  136.9221  153.0640 H   0  0  0  0  0  0  0  0  0  0  0  0
  146.8082  136.3424  155.1169 H   0  0  0  0  0  0  0  0  0  0  0  0
  145.6819  137.3653  154.2686 H   0  0  0  0  0  0  0  0  0  0  0  0
  146.9713  135.0101  152.8368 H   0  0  0  0  0  0  0  0  0  0  0  0
  145.8541  134.0540  154.8733 H   0  0  0  0  0  0  0  0  0  0  0  0
  144.4136  134.9805  154.5283 H   0  0  0  0  0  0  0  0  0  0  0  0
  146.5766  132.8267  152.2838 H   0  0  0  0  0  0  0  0  0  0  0  0
  146.1879  131.9568  153.7503 H   0  0  0  0  0  0  0  0  0  0  0  0
  145.9151  130.5154  151.7313 H   0  0  0  0  0  0  0  0  0  0  0  0
  144.4101  130.6934  152.6021 H   0  0  0  0  0  0  0  0  0  0  0  0
  145.2267  132.2365  150.0877 H   0  0  0  0  0  0  0  0  0  0  0  0
  144.0095  130.9849  150.1775 H   0  0  0  0  0  0  0  0  0  0  0  0
  142.9764  133.2729  150.2332 H   0  0  0  0  0  0  0  0  0  0  0  0
  142.6112  132.3406  151.6588 H   0  0  0  0  0  0  0  0  0  0  0  0
  143.1459  134.5026  152.4337 H   0  0  0  0  0  0  0  0  0  0  0  0
  145.7432  134.5157  150.8164 H   0  0  0  0  0  0  0  0  0  0  0  0
  144.2986  135.4437  150.4768 H   0  0  0  0  0  0  0  0  0  0  0  0
  144.0486  132.8954  153.7510 H   0  0  0  0  0  0  0  0  0  0  0  0
  1  2  3  0  0  0  0
  2  3  1  0  0  0  0
  3  8  1  0  0  0  0
  3  4  2  0  0  0  0
  4  5  1  0  0  0  0
  5  6  2  0  0  0  0
  5 21  1  0  0  0  0
  6  7  1  0  0  0  0
  6 22  1  0  0  0  0
  7  8  2  0  0  0  0
  8  9  1  0  0  0  0
  9 10  1  0  0  0  0
  9 23  1  0  0  0  0
 10 11  1  0  0  0  0
 10 24  1  0  0  0  0
 10 25  1  0  0  0  0
 11 20  1  0  0  0  0
 11 12  1  0  0  0  0
 11 26  1  0  0  0  0
 12 13  1  0  0  0  0
 12 27  1  0  0  0  0
 12 28  1  0  0  0  0
 13 18  1  0  0  0  0
 13 14  1  0  0  0  0
 13 40  1  0  0  0  0
 14 15  1  0  0  0  0
 14 29  1  0  0  0  0
 14 30  1  0  0  0  0
 15 16  1  0  0  0  0
 15 31  1  0  0  0  0
 15 32  1  0  0  0  0
 16 17  1  0  0  0  0
 16 33  1  0  0  0  0
 16 34  1  0  0  0  0
 17 18  1  0  0  0  0
 17 35  1  0  0  0  0
 17 36  1  0  0  0  0
 18 19  1  0  0  0  0
 18 37  1  0  0  0  0
 19 20  1  0  0  0  0
 19 38  1  0  0  0  0
 19 39  1  0  0  0  0
M  CHG  1  13   1
M  END
> <s_m_source_file>
AV-unprocessed.smi

> <i_m_source_file_index>
3068

> <i_lp_mmshare_version>
43012

> <i_f3d_flags>
0

> <s_epik_input>
TiNDYzFuW2NIXVtjSF1uYzFbTkhdW0NIMl1bQ0BIXShbQ0gyXTIpT1tDSDJdW0NAQEhdKE4yMylbQ0gyXVtDSDJdW0NIMl1bQ0gyXTM=

> <s_epik_cmdline>
J2VwaWtfcHl0aG9uJywgJy1waCcsICc3LjAnLCAnLXRuJywgJzgnLCAnLW1hJywgJzIwMCcsICctbWV0YWxfYmluZGluZycsICctaW1hZScsICc8aW5maWxlLm1hZT4nLCAnLW9tYWUnLCAnPG91dGZpbGUubWFlPic=

> <r_epik_Ionization_Penalty>
0.0804321

> <r_epik_Ionization_Penalty_Charging>
0.0803403

> <r_epik_Ionization_Penalty_Neutral>
9.17277e-05

> <r_epik_State_Penalty>
0.0711481

> <r_epik_Charging_Adjusted_Penalty>
0.151488

> <i_epik_Tot_Q>
1

> <i_epik_Tot_abs_Q>
1

> <r_epik_Metal_State_Penalty>
0.0711481

> <b_epik_Metal_Only>
0

> <s_lp_Force_Field>
OPLS_2005

> <r_lp_Energy>
39.7851

> <b_lp_Chiralities_Consistent>
1

> <s_lp_Variant>
AV-unprocessed.smi:3068-6

> <Gold.Version>
5.8.1

> <Gold.Id.Protein>
6NUR|6NUR_protein|mol2

> <Gold.PLP.Fitness>
40.6170

> <Gold.PLP.PLP>
-29.4681

> <Gold.PLP.part.hbond>
-1.9546

> <Gold.PLP.part.metal>
0.0000

> <Gold.PLP.part.buried>
-6.4151

> <Gold.PLP.part.nonpolar>
-23.9647

> <Gold.PLP.part.repulsive>
0.6491

> <Gold.PLP.ligand.clash>
0.0000

> <Gold.PLP.ligand.torsion>
0.7487

> <Gold.PLP.Chemscore.Hbond>
2.9825

> <Gold.PLP.Chemscore.CHOScore>
1.2302

> <Gold.PLP.Chemscore.Metal>
0.0000

> <Gold.Chemscore.Hbonds>
donor molecule, donor type, donor heavy atom, donor atom, acceptor molecule, acceptor atom, score
      L1  H     9    23       P1  7948  0.94
      L1  H    13    40       P1 10957  1.85
      L1  C     5    21       P1  8028  0.71
      L1  C     6    22       P1 10175  0.35

> <Gold.PLP.Chemscore.Internal.Correction>
0.0083

> <Gold.Rescore>
     Score         DG    S(hbond)    S(metal)    S(lipo)     H(rot)  DE(clash)    DE(int)     intcor
     15.14     -15.93       1.89        0.00      64.18       1.32       0.04       0.76       ----

> <Gold.Chemscore.Fitness>
15.1355

> <Gold.Chemscore.DG>
-15.9317

> <Gold.Chemscore.ZeroCoef>
-5.4800

> <Gold.Chemscore.Hbond>
1.8923

> <Gold.Chemscore.Metal>
0.0000

> <Gold.Chemscore.Lipo>
64.1782

> <Gold.Chemscore.Internal_Hbond>
0.0000

> <Gold.Chemscore.DEClash>
0.0396

> <Gold.Chemscore.DEInternal>
0.7566

> <Gold.Chemscore.Rot>
1.3193

> <Gold.Chemscore.Internal.Correction>
   9.000000E+99

> <Gold.Chemscore.Hbonds>
donor molecule, donor type, donor heavy atom, donor atom, acceptor molecule, acceptor atom, score
      L1  H     9    23       P1  7948  0.87
      L1  H    13    40       P1 10957  0.76

> <Gold.Chemscore.Hbond.Weighted>
-6.3202

> <Gold.Chemscore.Metal.Weighted>
-0.0000

> <Gold.Chemscore.Lipo.Weighted>
-7.5089

> <Gold.Chemscore.Internal_Hbond.Weighted>
0.0000

> <Gold.Chemscore.DEClash.Weighted>
0.0396

> <Gold.Chemscore.DEInternal.Weighted>
0.7566

> <Gold.Chemscore.Rot.Weighted>
3.3774

> <Gold.Chemscore.Internal.Correction.Weighted>
   9.000000E+99

> <Gold.Protein.RotatedTorsions>
[ 6907 6896 6895 6894 ] final  160.46 input  -60.11 | X-H torsion
[ 7974 7965 7964 7962 ] final  -97.27 input  175.53 | X-H torsion
[ 8008 7997 7996 7995 ] final  -89.22 input   59.86 | X-H torsion
[ 10167 10162 10161 10158 ] final -153.27 input  -65.29 | X-H torsion
[ 10718 10713 10712 10709 ] final  140.53 input   66.30 | X-H torsion
[ 10763 10752 10751 10750 ] final   15.11 input  -60.55 | X-H torsion
[ 11005 11000 10999 10996 ] final -132.84 input  -57.11 | X-H torsion

> <Gold.Protein.ActiveResidues>
 VAL166  LYS551  ARG553  GLY616  TRP617  ASP618  TYR619  PRO620  LYS621  CYS622 
 ASP623  PHE694  ASN695  SER759  ASP760  ASP761  ALA762  ILE779  LEU786  VAL792 
 PHE793  MET794  SER795  GLU796  ALA797  LYS798  CYS799  TRP800  GLU811  SER814 

> <Gold.Protein.RotatedAtoms>
  151.9703  133.3723  159.4068 H   0  0  0  0  0  0  0  0  0  0  0  0  # atno 6907 bound_to 6896
  150.6950  134.4147  159.5187 H   0  0  0  0  0  0  0  0  0  0  0  0  # atno 6908 bound_to 6896
  152.1850  134.8721  160.0573 H   0  0  0  0  0  0  0  0  0  0  0  0  # atno 6909 bound_to 6896
  145.3359  140.9450  143.2635 H   0  0  0  0  0  0  0  0  0  0  0  0  # atno 7974 bound_to 7965
  154.6840  140.0544  157.0295 H   0  0  0  0  0  0  0  0  0  0  0  0  # atno 8008 bound_to 7997
  155.0911  140.3219  155.4555 H   0  0  0  0  0  0  0  0  0  0  0  0  # atno 8009 bound_to 7997
  156.2704  140.2048  156.6038 H   0  0  0  0  0  0  0  0  0  0  0  0  # atno 8010 bound_to 7997
  139.7111  143.9107  152.2468 H   0  0  0  0  0  0  0  0  0  0  0  0  # atno 10167 bound_to 10162
  157.4022  131.1018  151.0540 H   0  0  0  0  0  0  0  0  0  0  0  0  # atno 10718 bound_to 10713
  153.1556  135.6786  153.8817 H   0  0  0  0  0  0  0  0  0  0  0  0  # atno 10763 bound_to 10752
  153.8229  135.3128  155.3413 H   0  0  0  0  0  0  0  0  0  0  0  0  # atno 10764 bound_to 10752
  154.7895  135.4843  154.0108 H   0  0  0  0  0  0  0  0  0  0  0  0  # atno 10765 bound_to 10752
  140.9134  134.1538  157.4371 H   0  0  0  0  0  0  0  0  0  0  0  0  # atno 11005 bound_to 11000
  144.8828  139.4880  143.6715 LP  0  0  0  0  0  0  0  0  0  0  0  0  # atno 17320 bound_to 7965
  146.3027  139.7478  142.9079 LP  0  0  0  0  0  0  0  0  0  0  0  0  # atno 17321 bound_to 7965
  139.8976  144.6930  150.8700 LP  0  0  0  0  0  0  0  0  0  0  0  0  # atno 17342 bound_to 10162
  140.7733  143.3538  151.1962 LP  0  0  0  0  0  0  0  0  0  0  0  0  # atno 17343 bound_to 10162
  157.1534  130.6194  149.5589 LP  0  0  0  0  0  0  0  0  0  0  0  0  # atno 17370 bound_to 10713
  155.9826  130.4841  150.6892 LP  0  0  0  0  0  0  0  0  0  0  0  0  # atno 17371 bound_to 10713
  139.8761  134.9944  156.5693 LP  0  0  0  0  0  0  0  0  0  0  0  0  # atno 17394 bound_to 11000
  140.8081  133.8451  155.8785 LP  0  0  0  0  0  0  0  0  0  0  0  0  # atno 17395 bound_to 11000

$$$$
