AV-unprocessed.smi:2995|AV-procd|sdf|11408|dock5
  -GOLD-   2272016333D 1   1.00000     0.00000
 Structure written by MMmdl.
 50 52  0  0  0  0  0  0  0  0  3 V2000
  147.2576  132.5301  151.9708 C   0  0  0  0  0  0  0  0  0  0  0  0
  145.9054  132.9455  151.4172 C   0  0  0  0  0  0  0  0  0  0  0  0
  145.0558  131.9689  150.8512 C   0  0  0  0  0  0  0  0  0  0  0  0
  143.8003  132.3540  150.3427 C   0  0  0  0  0  0  0  0  0  0  0  0
  143.4212  133.6472  150.4043 N   0  3  0  0  0  0  0  0  0  0  0  0
  144.1988  134.6153  150.9340 C   0  0  0  0  0  0  0  0  0  0  0  0
  145.4798  134.2985  151.4534 C   0  0  0  0  0  0  0  0  0  0  0  0
  146.3365  135.2711  152.0444 N   0  0  0  0  0  0  0  0  0  0  0  0
  146.0001  136.4000  152.6922 C   0  0  0  0  0  0  0  0  0  0  0  0
  144.8509  136.8112  152.8488 O   0  0  0  0  0  0  0  0  0  0  0  0
  147.0880  137.0459  153.1374 N   0  0  0  0  0  0  0  0  0  0  0  0
  147.0874  138.3106  153.8694 C   0  0  2  0  0  0  0  0  0  0  0  0
  146.0381  138.2748  154.9890 C   0  0  0  0  0  0  0  0  0  0  0  0
  145.9518  139.6285  155.7146 C   0  0  0  0  0  0  0  0  0  0  0  0
  145.6577  140.7430  154.7700 N   0  3  1  0  0  0  0  0  0  0  0  0
  145.4665  142.0540  155.4570 C   0  0  0  0  0  0  0  0  0  0  0  0
  144.2144  142.1139  156.3459 C   0  0  0  0  0  0  0  0  0  0  0  0
  143.8931  143.6040  156.5089 C   0  0  0  0  0  0  0  0  0  0  0  0
  144.5937  144.3244  155.3494 C   0  0  0  0  0  0  0  0  0  0  0  0
  145.2352  143.2282  154.4948 C   0  0  0  0  0  0  0  0  0  0  0  0
  146.6743  140.8038  153.6823 C   0  0  0  0  0  0  0  0  0  0  0  0
  146.7707  139.4726  152.9181 C   0  0  0  0  0  0  0  0  0  0  0  0
  147.4252  131.4594  151.8499 H   0  0  0  0  0  0  0  0  0  0  0  0
  147.3213  132.7622  153.0341 H   0  0  0  0  0  0  0  0  0  0  0  0
  148.0599  133.0561  151.4526 H   0  0  0  0  0  0  0  0  0  0  0  0
  145.3588  130.9330  150.8077 H   0  0  0  0  0  0  0  0  0  0  0  0
  143.0911  131.6713  149.8979 H   0  0  0  0  0  0  0  0  0  0  0  0
  143.7543  135.5989  150.9313 H   0  0  0  0  0  0  0  0  0  0  0  0
  147.3249  135.1106  151.9163 H   0  0  0  0  0  0  0  0  0  0  0  0
  147.9901  136.6310  152.9542 H   0  0  0  0  0  0  0  0  0  0  0  0
  148.0656  138.4945  154.3178 H   0  0  0  0  0  0  0  0  0  0  0  0
  145.0602  138.0232  154.5752 H   0  0  0  0  0  0  0  0  0  0  0  0
  146.2825  137.4888  155.7049 H   0  0  0  0  0  0  0  0  0  0  0  0
  145.1739  139.5536  156.4736 H   0  0  0  0  0  0  0  0  0  0  0  0
  146.8863  139.8335  156.2393 H   0  0  0  0  0  0  0  0  0  0  0  0
  146.3440  142.2678  156.0705 H   0  0  0  0  0  0  0  0  0  0  0  0
  143.3792  141.6194  155.8475 H   0  0  0  0  0  0  0  0  0  0  0  0
  144.3584  141.6276  157.3112 H   0  0  0  0  0  0  0  0  0  0  0  0
  142.8164  143.7768  156.5013 H   0  0  0  0  0  0  0  0  0  0  0  0
  144.2751  143.9748  157.4608 H   0  0  0  0  0  0  0  0  0  0  0  0
  143.9037  144.9362  154.7671 H   0  0  0  0  0  0  0  0  0  0  0  0
  145.3653  144.9874  155.7433 H   0  0  0  0  0  0  0  0  0  0  0  0
  146.1523  143.5778  154.0197 H   0  0  0  0  0  0  0  0  0  0  0  0
  144.5422  142.9329  153.7053 H   0  0  0  0  0  0  0  0  0  0  0  0
  146.4237  141.5852  152.9659 H   0  0  0  0  0  0  0  0  0  0  0  0
  147.6454  141.0645  154.1064 H   0  0  0  0  0  0  0  0  0  0  0  0
  147.5408  139.5461  152.1488 H   0  0  0  0  0  0  0  0  0  0  0  0
  145.8303  139.2844  152.3978 H   0  0  0  0  0  0  0  0  0  0  0  0
  144.7764  140.5210  154.3292 H   0  0  0  0  0  0  0  0  0  0  0  0
  142.5047  133.9054  150.0377 H   0  0  0  0  0  0  0  0  0  0  0  0
  1  2  1  0  0  0  0
  1 23  1  0  0  0  0
  1 24  1  0  0  0  0
  1 25  1  0  0  0  0
  2  7  1  0  0  0  0
  2  3  2  0  0  0  0
  3  4  1  0  0  0  0
  3 26  1  0  0  0  0
  4  5  2  0  0  0  0
  4 27  1  0  0  0  0
  5  6  1  0  0  0  0
  5 50  1  0  0  0  0
  6  7  2  0  0  0  0
  6 28  1  0  0  0  0
  7  8  1  0  0  0  0
  8  9  1  0  0  0  0
  8 29  1  0  0  0  0
  9 10  2  0  0  0  0
  9 11  1  0  0  0  0
 11 12  1  0  0  0  0
 11 30  1  0  0  0  0
 12 22  1  0  0  0  0
 12 13  1  0  0  0  0
 12 31  1  0  0  0  0
 13 14  1  0  0  0  0
 13 32  1  0  0  0  0
 13 33  1  0  0  0  0
 14 15  1  0  0  0  0
 14 34  1  0  0  0  0
 14 35  1  0  0  0  0
 15 16  1  0  0  0  0
 15 21  1  0  0  0  0
 15 49  1  0  0  0  0
 16 20  1  0  0  0  0
 16 17  1  0  0  0  0
 16 36  1  0  0  0  0
 17 18  1  0  0  0  0
 17 37  1  0  0  0  0
 17 38  1  0  0  0  0
 18 19  1  0  0  0  0
 18 39  1  0  0  0  0
 18 40  1  0  0  0  0
 19 20  1  0  0  0  0
 19 41  1  0  0  0  0
 19 42  1  0  0  0  0
 20 43  1  0  0  0  0
 20 44  1  0  0  0  0
 21 22  1  0  0  0  0
 21 45  1  0  0  0  0
 21 46  1  0  0  0  0
 22 47  1  0  0  0  0
 22 48  1  0  0  0  0
M  CHG  1   5   1
M  CHG  1  15   1
M  END
> <s_m_source_file>
AV-unprocessed.smi

> <i_m_source_file_index>
2995

> <i_lp_mmshare_version>
43012

> <i_f3d_flags>
0

> <s_epik_input>
W0NIM11jMVtjSF1bY0hdbltjSF1jMVtOSF1DKD1PKVtOSF1bQ0hdMltDSDJdW0NIMl1OKFtDSDJdW0NIMl0yKVtDSF0zW0NIMl1bQ0gyXVtDSDJdW0NIMl0z

> <s_epik_cmdline>
J2VwaWtfcHl0aG9uJywgJy1waCcsICc3LjAnLCAnLXRuJywgJzgnLCAnLW1hJywgJzIwMCcsICctbWV0YWxfYmluZGluZycsICctaW1hZScsICc8aW5maWxlLm1hZT4nLCAnLW9tYWUnLCAnPG91dGZpbGUubWFlPic=

> <r_epik_Ionization_Penalty>
2.08537

> <r_epik_Ionization_Penalty_Charging>
2.08535

> <r_epik_Ionization_Penalty_Neutral>
2.13957e-05

> <r_epik_State_Penalty>
2.21824

> <r_epik_Charging_Adjusted_Penalty>
4.30358

> <i_epik_Tot_Q>
2

> <i_epik_Tot_abs_Q>
2

> <r_epik_Metal_State_Penalty>
2.23856

> <b_epik_Metal_Only>
0

> <s_lp_Force_Field>
OPLS_2005

> <r_lp_Energy>
48.7268

> <b_lp_Chiralities_Consistent>
1

> <s_lp_Variant>
AV-unprocessed.smi:2995-3

> <Gold.Version>
5.8.1

> <Gold.Id.Protein>
6NUR|6NUR_protein|mol2

> <Gold.PLP.Fitness>
50.5429

> <Gold.PLP.PLP>
-35.5847

> <Gold.PLP.part.hbond>
-3.4838

> <Gold.PLP.part.metal>
0.0000

> <Gold.PLP.part.buried>
-4.9600

> <Gold.PLP.part.nonpolar>
-28.6108

> <Gold.PLP.part.repulsive>
0.3014

> <Gold.PLP.ligand.clash>
0.0000

> <Gold.PLP.ligand.torsion>
0.4339

> <Gold.PLP.Chemscore.Hbond>
5.2640

> <Gold.PLP.Chemscore.CHOScore>
0.0000

> <Gold.PLP.Chemscore.Metal>
0.0000

> <Gold.Chemscore.Hbonds>
donor molecule, donor type, donor heavy atom, donor atom, acceptor molecule, acceptor atom, score
      L1  H     5    50       P1 10186  2.00
      L1  H     8    29       P1  7948  0.75
      L1  H    11    30       P1  7948  0.83
      L1  H    15    49       P1 10175  1.30

> <Gold.PLP.Chemscore.Internal.Correction>
0.0340

> <Gold.Rescore>
     Score         DG    S(hbond)    S(metal)    S(lipo)     H(rot)  DE(clash)    DE(int)     intcor
     21.38     -24.52       3.54        0.00      87.74       1.19       0.20       2.94       ----

> <Gold.Chemscore.Fitness>
21.3810

> <Gold.Chemscore.DG>
-24.5208

> <Gold.Chemscore.ZeroCoef>
-5.4800

> <Gold.Chemscore.Hbond>
3.5363

> <Gold.Chemscore.Metal>
0.0000

> <Gold.Chemscore.Lipo>
87.7434

> <Gold.Chemscore.Internal_Hbond>
0.0000

> <Gold.Chemscore.DEClash>
0.1963

> <Gold.Chemscore.DEInternal>
2.9435

> <Gold.Chemscore.Rot>
1.1861

> <Gold.Chemscore.Internal.Correction>
   9.000000E+99

> <Gold.Chemscore.Hbonds>
donor molecule, donor type, donor heavy atom, donor atom, acceptor molecule, acceptor atom, score
      L1  H     5    50       P1 10186  1.00
      L1  H     8    29       P1  7948  0.70
      L1  H    11    30       P1  7948  0.78
      L1  H    15    49       P1 10175  0.65

> <Gold.Chemscore.Hbond.Weighted>
-11.8112

> <Gold.Chemscore.Metal.Weighted>
-0.0000

> <Gold.Chemscore.Lipo.Weighted>
-10.2660

> <Gold.Chemscore.Internal_Hbond.Weighted>
0.0000

> <Gold.Chemscore.DEClash.Weighted>
0.1963

> <Gold.Chemscore.DEInternal.Weighted>
2.9435

> <Gold.Chemscore.Rot.Weighted>
3.0364

> <Gold.Chemscore.Internal.Correction.Weighted>
   9.000000E+99

> <Gold.Protein.RotatedTorsions>
[ 6907 6896 6895 6894 ] final    8.79 input  -60.11 | X-H torsion
[ 7974 7965 7964 7962 ] final  -11.97 input  175.53 | X-H torsion
[ 8008 7997 7996 7995 ] final  -63.22 input   59.86 | X-H torsion
[ 10167 10162 10161 10158 ] final   31.03 input  -65.29 | X-H torsion
[ 10718 10713 10712 10709 ] final  -17.29 input   66.30 | X-H torsion
[ 10763 10752 10751 10750 ] final  -31.11 input  -60.55 | X-H torsion
[ 11005 11000 10999 10996 ] final   86.99 input  -57.11 | X-H torsion

> <Gold.Protein.ActiveResidues>
 VAL166  LYS551  ARG553  GLY616  TRP617  ASP618  TYR619  PRO620  LYS621  CYS622 
 ASP623  PHE694  ASN695  SER759  ASP760  ASP761  ALA762  ILE779  LEU786  VAL792 
 PHE793  MET794  SER795  GLU796  ALA797  LYS798  CYS799  TRP800  GLU811  SER814 

> <Gold.Protein.RotatedAtoms>
  151.7117  135.0911  160.0268 H   0  0  0  0  0  0  0  0  0  0  0  0  # atno 6907 bound_to 6896
  152.3658  133.6350  159.6057 H   0  0  0  0  0  0  0  0  0  0  0  0  # atno 6908 bound_to 6896
  150.7636  133.9267  159.3456 H   0  0  0  0  0  0  0  0  0  0  0  0  # atno 6909 bound_to 6896
  146.2168  140.2989  142.8374 H   0  0  0  0  0  0  0  0  0  0  0  0  # atno 7974 bound_to 7965
  154.4542  140.0979  156.6709 H   0  0  0  0  0  0  0  0  0  0  0  0  # atno 8008 bound_to 7997
  155.5189  140.3478  155.4384 H   0  0  0  0  0  0  0  0  0  0  0  0  # atno 8009 bound_to 7997
  156.0744  140.1357  156.9778 H   0  0  0  0  0  0  0  0  0  0  0  0  # atno 8010 bound_to 7997
  140.4625  144.0885  150.6216 H   0  0  0  0  0  0  0  0  0  0  0  0  # atno 10167 bound_to 10162
  156.5756  130.4761  149.6343 H   0  0  0  0  0  0  0  0  0  0  0  0  # atno 10718 bound_to 10713
  153.7920  135.6897  153.4870 H   0  0  0  0  0  0  0  0  0  0  0  0  # atno 10763 bound_to 10752
  153.1743  135.4530  154.9943 H   0  0  0  0  0  0  0  0  0  0  0  0  # atno 10764 bound_to 10752
  154.8040  135.3349  154.7416 H   0  0  0  0  0  0  0  0  0  0  0  0  # atno 10765 bound_to 10752
  139.8930  134.8392  156.2797 H   0  0  0  0  0  0  0  0  0  0  0  0  # atno 11005 bound_to 11000
  144.9071  140.7713  143.5830 LP  0  0  0  0  0  0  0  0  0  0  0  0  # atno 17320 bound_to 7965
  145.2918  139.1881  143.4736 LP  0  0  0  0  0  0  0  0  0  0  0  0  # atno 17321 bound_to 7965
  140.4076  143.2673  151.9872 LP  0  0  0  0  0  0  0  0  0  0  0  0  # atno 17342 bound_to 10162
  139.4808  144.5943  151.7717 LP  0  0  0  0  0  0  0  0  0  0  0  0  # atno 17343 bound_to 10162
  156.2676  130.6998  151.1786 LP  0  0  0  0  0  0  0  0  0  0  0  0  # atno 17370 bound_to 10713
  157.7338  131.0587  150.5557 LP  0  0  0  0  0  0  0  0  0  0  0  0  # atno 17371 bound_to 10713
  141.0047  133.7131  156.1015 LP  0  0  0  0  0  0  0  0  0  0  0  0  # atno 17394 bound_to 11000
  140.7450  134.4108  157.5549 LP  0  0  0  0  0  0  0  0  0  0  0  0  # atno 17395 bound_to 11000

$$$$
