AV-unprocessed.smi:1644|AV-procd|sdf|6589|dock3
  -GOLD-   22720 7283D 1   1.00000     0.00000
 Structure written by MMmdl.
 50 52  0  0  0  0  0  0  0  0  2 V2000
  146.8339  135.2166  162.1469 C   0  0  0  0  0  0  0  0  0  0  0  0
  147.5004  136.3970  161.4322 C   0  0  0  0  0  0  0  0  0  0  0  0
  147.8986  136.0546  159.9819 C   0  0  0  0  0  0  0  0  0  0  0  0
  148.4917  137.2172  159.1533 C   0  0  1  0  0  0  0  0  0  0  0  0
  149.9140  137.4030  159.3624 N   0  0  0  0  0  0  0  0  0  0  0  0
  150.6152  137.3114  158.2246 C   0  0  0  0  0  0  0  0  0  0  0  0
  151.8337  137.4513  158.1286 O   0  0  0  0  0  0  0  0  0  0  0  0
  149.7603  137.0510  157.2181 N   0  0  0  0  0  0  0  0  0  0  0  0
  150.1598  136.8876  155.8172 C   0  0  0  0  0  0  0  0  0  0  0  0
  150.1931  138.2375  155.0726 C   0  0  2  0  0  0  0  0  0  0  0  0
  150.3807  137.9950  153.6919 O   0  0  0  0  0  0  0  0  0  0  0  0
  151.3472  139.1320  155.5649 C   0  0  0  0  0  0  0  0  0  0  0  0
  150.8980  140.4778  155.9418 N   0  0  0  0  0  0  0  0  0  0  0  0
  150.0190  141.3143  155.3270 C   0  0  0  0  0  0  0  0  0  0  0  0
  149.9404  142.4487  156.0770 N   0  3  0  0  0  0  0  0  0  0  0  0
  150.7813  142.3328  157.1868 C   0  0  0  0  0  0  0  0  0  0  0  0
  151.0417  143.2130  158.2304 C   0  0  0  0  0  0  0  0  0  0  0  0
  151.9591  142.7888  159.2186 C   0  0  0  0  0  0  0  0  0  0  0  0
  152.2667  143.7269  160.3735 C   0  0  0  0  0  0  0  0  0  0  0  0
  152.5817  141.5158  159.1393 C   0  0  0  0  0  0  0  0  0  0  0  0
  153.5639  141.0680  160.2083 C   0  0  0  0  0  0  0  0  0  0  0  0
  152.3053  140.6358  158.0688 C   0  0  0  0  0  0  0  0  0  0  0  0
  151.3989  141.0702  157.1049 C   0  0  0  0  0  0  0  0  0  0  0  0
  148.4963  136.9788  157.6542 C   0  0  0  0  0  0  0  0  0  0  0  0
  147.4856  136.7645  156.9857 O   0  0  0  0  0  0  0  0  0  0  0  0
  146.5617  135.4841  163.1680 H   0  0  0  0  0  0  0  0  0  0  0  0
  147.5036  134.3576  162.1953 H   0  0  0  0  0  0  0  0  0  0  0  0
  145.9251  134.9055  161.6311 H   0  0  0  0  0  0  0  0  0  0  0  0
  146.8169  137.2463  161.4408 H   0  0  0  0  0  0  0  0  0  0  0  0
  148.3781  136.7018  162.0024 H   0  0  0  0  0  0  0  0  0  0  0  0
  148.6125  135.2298  159.9927 H   0  0  0  0  0  0  0  0  0  0  0  0
  147.0202  135.6746  159.4591 H   0  0  0  0  0  0  0  0  0  0  0  0
  147.9668  138.1487  159.3690 H   0  0  0  0  0  0  0  0  0  0  0  0
  150.3154  137.5970  160.2685 H   0  0  0  0  0  0  0  0  0  0  0  0
  151.1549  136.4396  155.8073 H   0  0  0  0  0  0  0  0  0  0  0  0
  149.5219  136.1688  155.2992 H   0  0  0  0  0  0  0  0  0  0  0  0
  149.2492  138.7667  155.2085 H   0  0  0  0  0  0  0  0  0  0  0  0
  149.6569  137.4749  153.3766 H   0  0  0  0  0  0  0  0  0  0  0  0
  151.8455  138.6877  156.4275 H   0  0  0  0  0  0  0  0  0  0  0  0
  152.1068  139.2395  154.7889 H   0  0  0  0  0  0  0  0  0  0  0  0
  149.4792  141.1122  154.4129 H   0  0  0  0  0  0  0  0  0  0  0  0
  150.5630  144.1799  158.2852 H   0  0  0  0  0  0  0  0  0  0  0  0
  153.3308  143.9629  160.4027 H   0  0  0  0  0  0  0  0  0  0  0  0
  151.9869  143.2692  161.3226 H   0  0  0  0  0  0  0  0  0  0  0  0
  151.7202  144.6660  160.2822 H   0  0  0  0  0  0  0  0  0  0  0  0
  153.9457  140.0668  160.0052 H   0  0  0  0  0  0  0  0  0  0  0  0
  153.0831  141.0483  161.1866 H   0  0  0  0  0  0  0  0  0  0  0  0
  154.4160  141.7467  160.2536 H   0  0  0  0  0  0  0  0  0  0  0  0
  152.7777  139.6662  158.0071 H   0  0  0  0  0  0  0  0  0  0  0  0
  149.3539  143.2406  155.8468 H   0  0  0  0  0  0  0  0  0  0  0  0
  1  2  1  0  0  0  0
  1 26  1  0  0  0  0
  1 27  1  0  0  0  0
  1 28  1  0  0  0  0
  2  3  1  0  0  0  0
  2 29  1  0  0  0  0
  2 30  1  0  0  0  0
  3  4  1  0  0  0  0
  3 31  1  0  0  0  0
  3 32  1  0  0  0  0
  4 24  1  0  0  0  0
  4  5  1  0  0  0  0
  4 33  1  0  0  0  0
  5  6  1  0  0  0  0
  5 34  1  0  0  0  0
  6  7  2  0  0  0  0
  6  8  1  0  0  0  0
  8  9  1  0  0  0  0
  8 24  1  0  0  0  0
  9 10  1  0  0  0  0
  9 35  1  0  0  0  0
  9 36  1  0  0  0  0
 10 11  1  0  0  0  0
 10 12  1  0  0  0  0
 10 37  1  0  0  0  0
 11 38  1  0  0  0  0
 12 13  1  0  0  0  0
 12 39  1  0  0  0  0
 12 40  1  0  0  0  0
 13 23  1  0  0  0  0
 13 14  1  0  0  0  0
 14 15  2  0  0  0  0
 14 41  1  0  0  0  0
 15 16  1  0  0  0  0
 15 50  1  0  0  0  0
 16 23  2  0  0  0  0
 16 17  1  0  0  0  0
 17 18  2  0  0  0  0
 17 42  1  0  0  0  0
 18 19  1  0  0  0  0
 18 20  1  0  0  0  0
 19 43  1  0  0  0  0
 19 44  1  0  0  0  0
 19 45  1  0  0  0  0
 20 21  1  0  0  0  0
 20 22  2  0  0  0  0
 21 46  1  0  0  0  0
 21 47  1  0  0  0  0
 21 48  1  0  0  0  0
 22 23  1  0  0  0  0
 22 49  1  0  0  0  0
 24 25  2  0  0  0  0
M  CHG  1  15   1
M  END
> <s_m_source_file>
AV-unprocessed.smi

> <i_m_source_file_index>
1644

> <i_lp_mmshare_version>
43012

> <i_f3d_flags>
0

> <s_epik_input>
W0NIM11bQ0gyXVtDSDJdW0NAQEhdMVtOSF1DKD1PKU4oQzE9TylbQ0gyXVtDQEhdKFtPSF0pW0NIMl1uKFtjSF1uMiljKGMyMylbY0hdYyhbQ0gzXSljKFtjSF0zKVtDSDNd

> <s_epik_cmdline>
J2VwaWtfcHl0aG9uJywgJy1waCcsICc3LjAnLCAnLXRuJywgJzgnLCAnLW1hJywgJzIwMCcsICctbWV0YWxfYmluZGluZycsICctaW1hZScsICc8aW5maWxlLm1hZT4nLCAnLW9tYWUnLCAnPG91dGZpbGUubWFlPic=

> <r_lp_tautomer_probability>
1

> <r_epik_Ionization_Penalty>
1.06742

> <r_epik_Ionization_Penalty_Charging>
1.06736

> <r_epik_Ionization_Penalty_Neutral>
5.56132e-05

> <r_epik_State_Penalty>
1.12163

> <r_epik_Charging_Adjusted_Penalty>
2.18899

> <i_epik_Tot_Q>
1

> <i_epik_Tot_abs_Q>
1

> <r_epik_Metal_State_Penalty>
1.26636

> <b_epik_Metal_Only>
0

> <s_lp_Force_Field>
OPLS_2005

> <r_lp_Energy>
29.5638

> <b_lp_Chiralities_Consistent>
1

> <s_lp_Variant>
AV-unprocessed.smi:1644-6

> <Gold.Version>
5.8.1

> <Gold.Id.Protein>
6NUR|6NUR_protein|mol2

> <Gold.PLP.Fitness>
53.3829

> <Gold.PLP.PLP>
-47.9448

> <Gold.PLP.part.hbond>
-3.0000

> <Gold.PLP.part.metal>
0.0000

> <Gold.PLP.part.buried>
-5.2154

> <Gold.PLP.part.nonpolar>
-39.0014

> <Gold.PLP.part.repulsive>
0.3482

> <Gold.PLP.ligand.clash>
0.0000

> <Gold.PLP.ligand.torsion>
1.5710

> <Gold.PLP.Chemscore.Hbond>
2.8151

> <Gold.PLP.Chemscore.CHOScore>
0.0000

> <Gold.PLP.Chemscore.Metal>
0.0000

> <Gold.Chemscore.Hbonds>
donor molecule, donor type, donor heavy atom, donor atom, acceptor molecule, acceptor atom, score
      L1  H    11    38       P1  7948  0.86
      L1  H    15    50       P1  8028  2.00

> <Gold.PLP.Chemscore.Internal.Correction>
0.1347

> <Gold.Rescore>
     Score         DG    S(hbond)    S(metal)    S(lipo)     H(rot)  DE(clash)    DE(int)     intcor
     15.19     -16.85       1.53        0.00     114.58       2.80       0.10       1.56       ----

> <Gold.Chemscore.Fitness>
15.1932

> <Gold.Chemscore.DG>
-16.8536

> <Gold.Chemscore.ZeroCoef>
-5.4800

> <Gold.Chemscore.Hbond>
1.5348

> <Gold.Chemscore.Metal>
0.0000

> <Gold.Chemscore.Lipo>
114.5756

> <Gold.Chemscore.Internal_Hbond>
0.0000

> <Gold.Chemscore.DEClash>
0.0971

> <Gold.Chemscore.DEInternal>
1.5633

> <Gold.Chemscore.Rot>
2.7961

> <Gold.Chemscore.Internal.Correction>
   9.000000E+99

> <Gold.Chemscore.Hbonds>
donor molecule, donor type, donor heavy atom, donor atom, acceptor molecule, acceptor atom, score
      L1  H    11    38       P1  7948  0.62
      L1  H    15    50       P1  8028  0.96

> <Gold.Chemscore.Hbond.Weighted>
-5.1263

> <Gold.Chemscore.Metal.Weighted>
-0.0000

> <Gold.Chemscore.Lipo.Weighted>
-13.4053

> <Gold.Chemscore.Internal_Hbond.Weighted>
0.0000

> <Gold.Chemscore.DEClash.Weighted>
0.0971

> <Gold.Chemscore.DEInternal.Weighted>
1.5633

> <Gold.Chemscore.Rot.Weighted>
7.1580

> <Gold.Chemscore.Internal.Correction.Weighted>
   9.000000E+99

> <Gold.Protein.RotatedTorsions>
[ 6907 6896 6895 6894 ] final   82.97 input  -60.11 | X-H torsion
[ 7974 7965 7964 7962 ] final  -16.81 input  175.53 | X-H torsion
[ 8008 7997 7996 7995 ] final  133.54 input   59.86 | X-H torsion
[ 10167 10162 10161 10158 ] final   68.72 input  -65.29 | X-H torsion
[ 10718 10713 10712 10709 ] final   81.75 input   66.30 | X-H torsion
[ 10763 10752 10751 10750 ] final   80.23 input  -60.55 | X-H torsion
[ 11005 11000 10999 10996 ] final -107.58 input  -57.11 | X-H torsion

> <Gold.Protein.ActiveResidues>
 VAL166  LYS551  ARG553  GLY616  TRP617  ASP618  TYR619  PRO620  LYS621  CYS622 
 ASP623  PHE694  ASN695  SER759  ASP760  ASP761  ALA762  ILE779  LEU786  VAL792 
 PHE793  MET794  SER795  GLU796  ALA797  LYS798  CYS799  TRP800  GLU811  SER814 

> <Gold.Protein.RotatedAtoms>
  152.5314  134.2968  159.9063 H   0  0  0  0  0  0  0  0  0  0  0  0  # atno 6907 bound_to 6896
  151.2919  133.4155  159.2641 H   0  0  0  0  0  0  0  0  0  0  0  0  # atno 6908 bound_to 6896
  151.0193  134.9473  159.8108 H   0  0  0  0  0  0  0  0  0  0  0  0  # atno 6909 bound_to 6896
  146.1970  140.3690  142.8437 H   0  0  0  0  0  0  0  0  0  0  0  0  # atno 7974 bound_to 7965
  156.2993  140.2518  156.3271 H   0  0  0  0  0  0  0  0  0  0  0  0  # atno 8008 bound_to 7997
  154.9180  140.0401  157.2002 H   0  0  0  0  0  0  0  0  0  0  0  0  # atno 8009 bound_to 7997
  154.8339  140.2880  155.5708 H   0  0  0  0  0  0  0  0  0  0  0  0  # atno 8010 bound_to 7997
  140.0756  144.5115  150.7197 H   0  0  0  0  0  0  0  0  0  0  0  0  # atno 10167 bound_to 10162
  157.6841  131.0018  150.2273 H   0  0  0  0  0  0  0  0  0  0  0  0  # atno 10718 bound_to 10713
  153.1017  135.4810  154.8878 H   0  0  0  0  0  0  0  0  0  0  0  0  # atno 10763 bound_to 10752
  154.7386  135.3077  154.8771 H   0  0  0  0  0  0  0  0  0  0  0  0  # atno 10764 bound_to 10752
  153.9385  135.6836  153.4798 H   0  0  0  0  0  0  0  0  0  0  0  0  # atno 10765 bound_to 10752
  141.0946  133.8994  157.1993 H   0  0  0  0  0  0  0  0  0  0  0  0  # atno 11005 bound_to 11000
  144.8602  140.7128  143.6112 LP  0  0  0  0  0  0  0  0  0  0  0  0  # atno 17320 bound_to 7965
  145.3610  139.1682  143.4383 LP  0  0  0  0  0  0  0  0  0  0  0  0  # atno 17321 bound_to 7965
  140.7104  143.2500  151.4600 LP  0  0  0  0  0  0  0  0  0  0  0  0  # atno 17342 bound_to 10162
  139.5810  144.1710  152.1967 LP  0  0  0  0  0  0  0  0  0  0  0  0  # atno 17343 bound_to 10162
  156.2912  130.3746  149.7839 LP  0  0  0  0  0  0  0  0  0  0  0  0  # atno 17370 bound_to 10713
  156.5498  130.8337  151.3296 LP  0  0  0  0  0  0  0  0  0  0  0  0  # atno 17371 bound_to 10713
  139.9780  135.0107  156.9679 LP  0  0  0  0  0  0  0  0  0  0  0  0  # atno 17394 bound_to 11000
  140.5170  134.0945  155.7283 LP  0  0  0  0  0  0  0  0  0  0  0  0  # atno 17395 bound_to 11000

$$$$
