AV-unprocessed.smi:2256|AV-procd|sdf|9127|dock10
  -GOLD-   2272012333D 1   1.00000     0.00000
 Structure written by MMmdl.
 42 44  0  0  0  0  0  0  0  0  1 V2000
  146.0399  139.6438  157.3686 C   0  0  0  0  0  0  0  0  0  0  0  0
  147.5236  139.7844  157.0781 C   0  0  0  0  0  0  0  0  0  0  0  0
  148.3731  139.6094  158.1744 N   0  0  0  0  0  0  0  0  0  0  0  0
  149.6532  139.7062  158.0201 C   0  0  0  0  0  0  0  0  0  0  0  0
  150.2264  139.9830  156.7684 N   0  0  0  0  0  0  0  0  0  0  0  0
  151.6958  140.0663  156.7289 C   0  0  0  0  0  0  0  0  0  0  0  0
  152.3566  139.1640  157.7952 C   0  0  1  0  0  0  0  0  0  0  0  0
  153.6354  138.7457  157.3625 O   0  0  0  0  0  0  0  0  0  0  0  0
  152.5300  139.8615  159.1548 C   0  0  0  0  0  0  0  0  0  0  0  0
  152.6178  141.2690  158.9674 O   0  0  0  0  0  0  0  0  0  0  0  0
  152.7000  142.0785  160.0806 C   0  0  0  0  0  0  0  0  0  0  0  0
  153.2970  141.6790  161.3050 C   0  0  0  0  0  0  0  0  0  0  0  0
  153.3469  142.5579  162.4037 C   0  0  0  0  0  0  0  0  0  0  0  0
  152.8020  143.8482  162.2965 C   0  0  0  0  0  0  0  0  0  0  0  0
  152.2112  144.2450  161.0853 C   0  0  0  0  0  0  0  0  0  0  0  0
  151.6075  145.4220  160.6882 N   0  0  0  0  0  0  0  0  0  0  0  0
  151.1717  145.3299  159.3782 C   0  0  0  0  0  0  0  0  0  0  0  0
  151.4841  144.0867  158.8932 C   0  0  0  0  0  0  0  0  0  0  0  0
  152.1452  143.3769  159.9554 C   0  0  0  0  0  0  0  0  0  0  0  0
  149.4699  140.1864  155.6512 C   0  0  0  0  0  0  0  0  0  0  0  0
  149.9820  140.4562  154.5630 O   0  0  0  0  0  0  0  0  0  0  0  0
  148.0155  140.0641  155.8402 C   0  0  0  0  0  0  0  0  0  0  0  0
  147.1397  140.2633  154.6094 C   0  0  0  0  0  0  0  0  0  0  0  0
  151.4873  146.2504  161.2535 H   0  0  0  0  0  0  0  0  0  0  0  0
  145.6121  138.8260  156.7882 H   0  0  0  0  0  0  0  0  0  0  0  0
  145.5128  140.5642  157.1166 H   0  0  0  0  0  0  0  0  0  0  0  0
  145.8590  139.4352  158.4237 H   0  0  0  0  0  0  0  0  0  0  0  0
  150.3594  139.5840  158.8433 H   0  0  0  0  0  0  0  0  0  0  0  0
  152.0930  139.8424  155.7365 H   0  0  0  0  0  0  0  0  0  0  0  0
  151.9873  141.1038  156.9034 H   0  0  0  0  0  0  0  0  0  0  0  0
  151.7576  138.2668  157.9555 H   0  0  0  0  0  0  0  0  0  0  0  0
  153.8894  137.9896  157.8699 H   0  0  0  0  0  0  0  0  0  0  0  0
  151.6592  139.6388  159.7736 H   0  0  0  0  0  0  0  0  0  0  0  0
  153.4112  139.4763  159.6711 H   0  0  0  0  0  0  0  0  0  0  0  0
  153.7270  140.6968  161.4289 H   0  0  0  0  0  0  0  0  0  0  0  0
  153.8042  142.2399  163.3291 H   0  0  0  0  0  0  0  0  0  0  0  0
  152.8376  144.5270  163.1358 H   0  0  0  0  0  0  0  0  0  0  0  0
  150.6736  146.1588  158.8972 H   0  0  0  0  0  0  0  0  0  0  0  0
  151.2788  143.7020  157.9053 H   0  0  0  0  0  0  0  0  0  0  0  0
  147.2895  141.2623  154.1995 H   0  0  0  0  0  0  0  0  0  0  0  0
  146.0768  140.1496  154.8154 H   0  0  0  0  0  0  0  0  0  0  0  0
  147.4030  139.5381  153.8389 H   0  0  0  0  0  0  0  0  0  0  0  0
  1  2  1  0  0  0  0
  1 25  1  0  0  0  0
  1 26  1  0  0  0  0
  1 27  1  0  0  0  0
  2 22  2  0  0  0  0
  2  3  1  0  0  0  0
  3  4  2  0  0  0  0
  4  5  1  0  0  0  0
  4 28  1  0  0  0  0
  5  6  1  0  0  0  0
  5 20  1  0  0  0  0
  6  7  1  0  0  0  0
  6 29  1  0  0  0  0
  6 30  1  0  0  0  0
  7  8  1  0  0  0  0
  7  9  1  0  0  0  0
  7 31  1  0  0  0  0
  8 32  1  0  0  0  0
  9 10  1  0  0  0  0
  9 33  1  0  0  0  0
  9 34  1  0  0  0  0
 10 11  1  0  0  0  0
 11 19  1  0  0  0  0
 11 12  2  0  0  0  0
 12 13  1  0  0  0  0
 12 35  1  0  0  0  0
 13 14  2  0  0  0  0
 13 36  1  0  0  0  0
 14 15  1  0  0  0  0
 14 37  1  0  0  0  0
 15 19  2  0  0  0  0
 15 16  1  0  0  0  0
 16 24  1  0  0  0  0
 16 17  1  0  0  0  0
 17 18  2  0  0  0  0
 17 38  1  0  0  0  0
 18 19  1  0  0  0  0
 18 39  1  0  0  0  0
 20 21  2  0  0  0  0
 20 22  1  0  0  0  0
 22 23  1  0  0  0  0
 23 40  1  0  0  0  0
 23 41  1  0  0  0  0
 23 42  1  0  0  0  0
M  END
> <s_m_source_file>
AV-unprocessed.smi

> <i_m_source_file_index>
2256

> <i_lp_mmshare_version>
43012

> <i_f3d_flags>
0

> <s_epik_input>
W0NIM11jMW5bY0hdbihjKD1PKWMxW0NIM10pW0NIMl1bQ0BIXShbT0hdKVtDSDJdT2MoW2NIXVtjSF1bY0hdMiljKGMyMylbY0hdW2NIXVtuSF0z

> <s_epik_cmdline>
J2VwaWtfcHl0aG9uJywgJy1waCcsICc3LjAnLCAnLXRuJywgJzgnLCAnLW1hJywgJzIwMCcsICctbWV0YWxfYmluZGluZycsICctaW1hZScsICc8aW5maWxlLm1hZT4nLCAnLW9tYWUnLCAnPG91dGZpbGUubWFlPic=

> <r_lp_tautomer_probability>
1

> <r_epik_Ionization_Penalty>
4.18314e-05

> <r_epik_Ionization_Penalty_Charging>
1.04093e-07

> <r_epik_Ionization_Penalty_Neutral>
4.17273e-05

> <r_epik_State_Penalty>
-0

> <r_epik_Charging_Adjusted_Penalty>
1.04093e-07

> <i_epik_Tot_Q>
0

> <i_epik_Tot_abs_Q>
0

> <r_epik_Metal_State_Penalty>
-0

> <b_epik_Metal_Only>
0

> <s_lp_Force_Field>
OPLS_2005

> <r_lp_Energy>
26.3199

> <b_lp_Chiralities_Consistent>
1

> <s_lp_Variant>
AV-unprocessed.smi:2256-2

> <Gold.Version>
5.8.1

> <Gold.Id.Protein>
6NUR|6NUR_protein|mol2

> <Gold.PLP.Fitness>
49.1476

> <Gold.PLP.PLP>
-46.2331

> <Gold.PLP.part.hbond>
-3.2492

> <Gold.PLP.part.metal>
0.0000

> <Gold.PLP.part.buried>
-8.1790

> <Gold.PLP.part.nonpolar>
-35.5969

> <Gold.PLP.part.repulsive>
0.2511

> <Gold.PLP.ligand.clash>
0.0000

> <Gold.PLP.ligand.torsion>
1.5582

> <Gold.PLP.Chemscore.Hbond>
2.0000

> <Gold.PLP.Chemscore.CHOScore>
0.0000

> <Gold.PLP.Chemscore.Metal>
0.0000

> <Gold.Chemscore.Hbonds>
donor molecule, donor type, donor heavy atom, donor atom, acceptor molecule, acceptor atom, score
      P1  H  7989  7998       L1    21  0.90
      P1  H  7997  8008       L1     8  0.98

> <Gold.PLP.Chemscore.Internal.Correction>
0.0309

> <Gold.Rescore>
     Score         DG    S(hbond)    S(metal)    S(lipo)     H(rot)  DE(clash)    DE(int)     intcor
     17.16     -18.91       1.85        0.00     118.59       2.58       0.16       1.59       ----

> <Gold.Chemscore.Fitness>
17.1556

> <Gold.Chemscore.DG>
-18.9128

> <Gold.Chemscore.ZeroCoef>
-5.4800

> <Gold.Chemscore.Hbond>
1.8453

> <Gold.Chemscore.Metal>
0.0000

> <Gold.Chemscore.Lipo>
118.5934

> <Gold.Chemscore.Internal_Hbond>
0.0000

> <Gold.Chemscore.DEClash>
0.1645

> <Gold.Chemscore.DEInternal>
1.5928

> <Gold.Chemscore.Rot>
2.5804

> <Gold.Chemscore.Internal.Correction>
   9.000000E+99

> <Gold.Chemscore.Hbonds>
donor molecule, donor type, donor heavy atom, donor atom, acceptor molecule, acceptor atom, score
      P1  H  7989  7998       L1    21  0.85
      P1  H  7997  8008       L1     8  0.79

> <Gold.Chemscore.Hbond.Weighted>
-6.1634

> <Gold.Chemscore.Metal.Weighted>
-0.0000

> <Gold.Chemscore.Lipo.Weighted>
-13.8754

> <Gold.Chemscore.Internal_Hbond.Weighted>
0.0000

> <Gold.Chemscore.DEClash.Weighted>
0.1645

> <Gold.Chemscore.DEInternal.Weighted>
1.5928

> <Gold.Chemscore.Rot.Weighted>
6.6059

> <Gold.Chemscore.Internal.Correction.Weighted>
   9.000000E+99

> <Gold.Protein.RotatedTorsions>
[ 6907 6896 6895 6894 ] final  123.44 input  -60.11 | X-H torsion
[ 7974 7965 7964 7962 ] final  -96.47 input  175.53 | X-H torsion
[ 8008 7997 7996 7995 ] final  -91.67 input   59.86 | X-H torsion
[ 10167 10162 10161 10158 ] final  -73.82 input  -65.29 | X-H torsion
[ 10718 10713 10712 10709 ] final -154.56 input   66.30 | X-H torsion
[ 10763 10752 10751 10750 ] final -158.02 input  -60.55 | X-H torsion
[ 11005 11000 10999 10996 ] final -144.04 input  -57.11 | X-H torsion

> <Gold.Protein.ActiveResidues>
 VAL166  LYS551  ARG553  GLY616  TRP617  ASP618  TYR619  PRO620  LYS621  CYS622 
 ASP623  PHE694  ASN695  SER759  ASP760  ASP761  ALA762  ILE779  LEU786  VAL792 
 PHE793  MET794  SER795  GLU796  ALA797  LYS798  CYS799  TRP800  GLU811  SER814 

> <Gold.Protein.RotatedAtoms>
  152.4161  133.7041  159.6440 H   0  0  0  0  0  0  0  0  0  0  0  0  # atno 6907 bound_to 6896
  150.8039  133.8536  159.3221 H   0  0  0  0  0  0  0  0  0  0  0  0  # atno 6908 bound_to 6896
  151.6266  135.1029  160.0164 H   0  0  0  0  0  0  0  0  0  0  0  0  # atno 6909 bound_to 6896
  145.3465  140.9469  143.2578 H   0  0  0  0  0  0  0  0  0  0  0  0  # atno 7974 bound_to 7965
  154.7136  140.0517  157.0573 H   0  0  0  0  0  0  0  0  0  0  0  0  # atno 8008 bound_to 7997
  155.0521  140.3180  155.4669 H   0  0  0  0  0  0  0  0  0  0  0  0  # atno 8009 bound_to 7997
  156.2796  140.2114  156.5647 H   0  0  0  0  0  0  0  0  0  0  0  0  # atno 8010 bound_to 7997
  140.5078  143.2350  151.7644 H   0  0  0  0  0  0  0  0  0  0  0  0  # atno 10167 bound_to 10162
  156.5009  130.8391  151.2609 H   0  0  0  0  0  0  0  0  0  0  0  0  # atno 10718 bound_to 10713
  154.7590  135.3112  154.8415 H   0  0  0  0  0  0  0  0  0  0  0  0  # atno 10763 bound_to 10752
  153.9181  135.6798  153.4753 H   0  0  0  0  0  0  0  0  0  0  0  0  # atno 10764 bound_to 10752
  153.1189  135.4831  154.9093 H   0  0  0  0  0  0  0  0  0  0  0  0  # atno 10765 bound_to 10752
  140.8064  134.2796  157.4958 H   0  0  0  0  0  0  0  0  0  0  0  0  # atno 11005 bound_to 11000
  144.8750  139.4984  143.6750 LP  0  0  0  0  0  0  0  0  0  0  0  0  # atno 17320 bound_to 7965
  146.2986  139.7354  142.9108 LP  0  0  0  0  0  0  0  0  0  0  0  0  # atno 17321 bound_to 7965
  139.4888  144.4432  151.9740 LP  0  0  0  0  0  0  0  0  0  0  0  0  # atno 17342 bound_to 10162
  140.3524  144.3073  150.5947 LP  0  0  0  0  0  0  0  0  0  0  0  0  # atno 17343 bound_to 10162
  157.7463  130.9982  150.2843 LP  0  0  0  0  0  0  0  0  0  0  0  0  # atno 17370 bound_to 10713
  156.3333  130.3804  149.7472 LP  0  0  0  0  0  0  0  0  0  0  0  0  # atno 17371 bound_to 10713
  139.8717  134.9459  156.3922 LP  0  0  0  0  0  0  0  0  0  0  0  0  # atno 17394 bound_to 11000
  140.9242  133.7624  155.9944 LP  0  0  0  0  0  0  0  0  0  0  0  0  # atno 17395 bound_to 11000

$$$$
