AV-unprocessed.smi:2526|AV-procd|sdf|9935|dock1
  -GOLD-   2272013583D 1   1.00000     0.00000
 Structure written by MMmdl.
 29 30  0  0  0  0  0  0  0  0  2 V2000
  152.4955  143.6525  160.9412 C   0  0  0  0  0  0  0  0  0  0  0  0
  152.0196  143.5612  159.5774 N   0  0  0  0  0  0  0  0  0  0  0  0
  151.6995  142.4352  158.8511 C   0  0  0  0  0  0  0  0  0  0  0  0
  151.2885  142.8439  157.6108 C   0  0  0  0  0  0  0  0  0  0  0  0
  150.8155  142.0215  156.4287 C   0  0  1  0  0  0  0  0  0  0  0  0
  151.8083  141.0046  156.0713 N   0  0  0  0  0  0  0  0  0  0  0  0
  151.7941  139.7075  156.4320 C   0  0  0  0  0  0  0  0  0  0  0  0
  152.7373  138.9630  156.1777 O   0  0  0  0  0  0  0  0  0  0  0  0
  150.5494  139.1345  157.1307 C   0  0  0  0  0  0  0  0  0  0  0  0
  149.5696  140.1980  157.6593 C   0  0  0  0  0  0  0  0  0  0  0  0
  149.4345  141.3656  156.6727 C   0  0  1  0  0  0  0  0  0  0  0  0
  148.4146  142.3370  157.1104 N   0  3  0  0  0  0  0  0  0  0  0  0
  151.4126  144.2621  157.6825 C   0  0  0  0  0  0  0  0  0  0  0  0
  151.8412  144.6873  158.8585 N   0  0  0  0  0  0  0  0  0  0  0  0
  152.5604  142.6576  161.3824 H   0  0  0  0  0  0  0  0  0  0  0  0
  151.8083  144.2580  161.5330 H   0  0  0  0  0  0  0  0  0  0  0  0
  153.4842  144.1122  160.9572 H   0  0  0  0  0  0  0  0  0  0  0  0
  151.7835  141.4449  159.2749 H   0  0  0  0  0  0  0  0  0  0  0  0
  150.7242  142.6711  155.5573 H   0  0  0  0  0  0  0  0  0  0  0  0
  152.6232  141.3324  155.5723 H   0  0  0  0  0  0  0  0  0  0  0  0
  150.0357  138.5069  156.4019 H   0  0  0  0  0  0  0  0  0  0  0  0
  150.8575  138.4743  157.9421 H   0  0  0  0  0  0  0  0  0  0  0  0
  148.5962  139.7369  157.8293 H   0  0  0  0  0  0  0  0  0  0  0  0
  149.9078  140.5596  158.6315 H   0  0  0  0  0  0  0  0  0  0  0  0
  149.0777  140.9596  155.7248 H   0  0  0  0  0  0  0  0  0  0  0  0
  148.3732  143.0998  156.4494 H   0  0  0  0  0  0  0  0  0  0  0  0
  148.6590  142.6954  158.0226 H   0  0  0  0  0  0  0  0  0  0  0  0
  151.1972  144.9929  156.9170 H   0  0  0  0  0  0  0  0  0  0  0  0
  147.5134  141.8835  157.1576 H   0  0  0  0  0  0  0  0  0  0  0  0
  1  2  1  0  0  0  0
  1 15  1  0  0  0  0
  1 16  1  0  0  0  0
  1 17  1  0  0  0  0
  2 14  1  0  0  0  0
  2  3  1  0  0  0  0
  3  4  2  0  0  0  0
  3 18  1  0  0  0  0
  4  5  1  0  0  0  0
  4 13  1  0  0  0  0
  5 11  1  0  0  0  0
  5  6  1  0  0  0  0
  5 19  1  0  0  0  0
  6  7  1  0  0  0  0
  6 20  1  0  0  0  0
  7  8  2  0  0  0  0
  7  9  1  0  0  0  0
  9 10  1  0  0  0  0
  9 21  1  0  0  0  0
  9 22  1  0  0  0  0
 10 11  1  0  0  0  0
 10 23  1  0  0  0  0
 10 24  1  0  0  0  0
 11 12  1  0  0  0  0
 11 25  1  0  0  0  0
 12 26  1  0  0  0  0
 12 27  1  0  0  0  0
 12 29  1  0  0  0  0
 13 14  2  0  0  0  0
 13 28  1  0  0  0  0
M  CHG  1  12   1
M  END
> <s_m_source_file>
AV-unprocessed.smi

> <i_m_source_file_index>
2526

> <i_lp_mmshare_version>
43012

> <i_f3d_flags>
0

> <s_epik_input>
W0NIM11uMVtjSF1jKFtjSF1uMSlbQ0BASF0yW05IXUMoPU8pW0NIMl1bQ0gyXVtDQEhdMltOSDJd

> <s_epik_cmdline>
J2VwaWtfcHl0aG9uJywgJy1waCcsICc3LjAnLCAnLXRuJywgJzgnLCAnLW1hJywgJzIwMCcsICctbWV0YWxfYmluZGluZycsICctaW1hZScsICc8aW5maWxlLm1hZT4nLCAnLW9tYWUnLCAnPG91dGZpbGUubWFlPic=

> <r_lp_tautomer_probability>
1

> <r_epik_Ionization_Penalty>
0.00878543

> <r_epik_Ionization_Penalty_Charging>
0.00874185

> <r_epik_Ionization_Penalty_Neutral>
4.35793e-05

> <r_epik_State_Penalty>
0.00660351

> <r_epik_Charging_Adjusted_Penalty>
0.0153454

> <i_epik_Tot_Q>
1

> <i_epik_Tot_abs_Q>
1

> <r_epik_Metal_State_Penalty>
0.00660727

> <b_epik_Metal_Only>
0

> <s_lp_Force_Field>
OPLS_2005

> <r_lp_Energy>
11.1602

> <b_lp_Chiralities_Consistent>
1

> <s_lp_Variant>
AV-unprocessed.smi:2526-2

> <Gold.Version>
5.8.1

> <Gold.Id.Protein>
6NUR|6NUR_protein|mol2

> <Gold.PLP.Fitness>
35.4243

> <Gold.PLP.PLP>
-24.3387

> <Gold.PLP.part.hbond>
-2.0000

> <Gold.PLP.part.metal>
0.0000

> <Gold.PLP.part.buried>
-1.8460

> <Gold.PLP.part.nonpolar>
-20.8548

> <Gold.PLP.part.repulsive>
0.2726

> <Gold.PLP.ligand.clash>
0.0000

> <Gold.PLP.ligand.torsion>
0.1138

> <Gold.PLP.Chemscore.Hbond>
3.0000

> <Gold.PLP.Chemscore.CHOScore>
0.7648

> <Gold.PLP.Chemscore.Metal>
0.0000

> <Gold.Chemscore.Hbonds>
donor molecule, donor type, donor heavy atom, donor atom, acceptor molecule, acceptor atom, score
      L1  H    12    26       P1  8028  2.00
      P1  H  7997  8008       L1     8  1.00
      L1  C    13    28       P1  8028  0.62

> <Gold.PLP.Chemscore.Internal.Correction>
0.0187

> <Gold.Rescore>
     Score         DG    S(hbond)    S(metal)    S(lipo)     H(rot)  DE(clash)    DE(int)     intcor
     14.52     -16.13       1.72        0.00      63.96       1.00       1.57       0.04       ----

> <Gold.Chemscore.Fitness>
14.5245

> <Gold.Chemscore.DG>
-16.1339

> <Gold.Chemscore.ZeroCoef>
-5.4800

> <Gold.Chemscore.Hbond>
1.7158

> <Gold.Chemscore.Metal>
0.0000

> <Gold.Chemscore.Lipo>
63.9593

> <Gold.Chemscore.Internal_Hbond>
0.0000

> <Gold.Chemscore.DEClash>
1.5652

> <Gold.Chemscore.DEInternal>
0.0442

> <Gold.Chemscore.Rot>
1.0000

> <Gold.Chemscore.Internal.Correction>
   9.000000E+99

> <Gold.Chemscore.Hbonds>
donor molecule, donor type, donor heavy atom, donor atom, acceptor molecule, acceptor atom, score
      L1  H    12    26       P1  8028  0.69
      P1  H  7997  8008       L1     8  0.49

> <Gold.Chemscore.Hbond.Weighted>
-5.7307

> <Gold.Chemscore.Metal.Weighted>
-0.0000

> <Gold.Chemscore.Lipo.Weighted>
-7.4832

> <Gold.Chemscore.Internal_Hbond.Weighted>
0.0000

> <Gold.Chemscore.DEClash.Weighted>
1.5652

> <Gold.Chemscore.DEInternal.Weighted>
0.0442

> <Gold.Chemscore.Rot.Weighted>
2.5600

> <Gold.Chemscore.Internal.Correction.Weighted>
   9.000000E+99

> <Gold.Protein.RotatedTorsions>
[ 6907 6896 6895 6894 ] final   86.31 input  -60.11 | X-H torsion
[ 7974 7965 7964 7962 ] final   98.04 input  175.53 | X-H torsion
[ 8008 7997 7996 7995 ] final  -42.33 input   59.86 | X-H torsion
[ 10167 10162 10161 10158 ] final   63.88 input  -65.29 | X-H torsion
[ 10718 10713 10712 10709 ] final  -15.84 input   66.30 | X-H torsion
[ 10763 10752 10751 10750 ] final   14.31 input  -60.55 | X-H torsion
[ 11005 11000 10999 10996 ] final  143.50 input  -57.11 | X-H torsion

> <Gold.Protein.ActiveResidues>
 VAL166  LYS551  ARG553  GLY616  TRP617  ASP618  TYR619  PRO620  LYS621  CYS622 
 ASP623  PHE694  ASN695  SER759  ASP760  ASP761  ALA762  ILE779  LEU786  VAL792 
 PHE793  MET794  SER795  GLU796  ALA797  LYS798  CYS799  TRP800  GLU811  SER814 

> <Gold.Protein.RotatedAtoms>
  152.5392  134.2451  159.8876 H   0  0  0  0  0  0  0  0  0  0  0  0  # atno 6907 bound_to 6896
  151.2416  133.4390  159.2615 H   0  0  0  0  0  0  0  0  0  0  0  0  # atno 6908 bound_to 6896
  151.0621  134.9757  159.8322 H   0  0  0  0  0  0  0  0  0  0  0  0  # atno 6909 bound_to 6896
  145.4175  139.2325  143.3214 H   0  0  0  0  0  0  0  0  0  0  0  0  # atno 7974 bound_to 7965
  154.3999  140.1476  156.3337 H   0  0  0  0  0  0  0  0  0  0  0  0  # atno 8008 bound_to 7997
  155.8420  140.3461  155.5616 H   0  0  0  0  0  0  0  0  0  0  0  0  # atno 8009 bound_to 7997
  155.8077  140.0879  157.1912 H   0  0  0  0  0  0  0  0  0  0  0  0  # atno 8010 bound_to 7997
  140.1282  144.4668  150.6880 H   0  0  0  0  0  0  0  0  0  0  0  0  # atno 10167 bound_to 10162
  156.5960  130.4811  149.6259 H   0  0  0  0  0  0  0  0  0  0  0  0  # atno 10718 bound_to 10713
  153.1635  135.6800  153.8709 H   0  0  0  0  0  0  0  0  0  0  0  0  # atno 10763 bound_to 10752
  153.8096  135.3144  155.3400 H   0  0  0  0  0  0  0  0  0  0  0  0  # atno 10764 bound_to 10752
  154.7949  135.4813  154.0227 H   0  0  0  0  0  0  0  0  0  0  0  0  # atno 10765 bound_to 10752
  140.0559  134.9231  157.1099 H   0  0  0  0  0  0  0  0  0  0  0  0  # atno 11005 bound_to 11000
  146.2673  140.4895  142.8828 LP  0  0  0  0  0  0  0  0  0  0  0  0  # atno 17320 bound_to 7965
  144.8267  140.6641  143.6317 LP  0  0  0  0  0  0  0  0  0  0  0  0  # atno 17321 bound_to 7965
  140.6832  143.2337  151.5328 LP  0  0  0  0  0  0  0  0  0  0  0  0  # atno 17342 bound_to 10162
  139.5533  144.2339  152.1569 LP  0  0  0  0  0  0  0  0  0  0  0  0  # atno 17343 bound_to 10162
  156.2509  130.6907  151.1644 LP  0  0  0  0  0  0  0  0  0  0  0  0  # atno 17370 bound_to 10713
  157.7292  131.0626  150.5786 LP  0  0  0  0  0  0  0  0  0  0  0  0  # atno 17371 bound_to 10713
  140.3845  134.2251  155.7169 LP  0  0  0  0  0  0  0  0  0  0  0  0  # atno 17394 bound_to 11000
  141.1952  133.8112  157.0726 LP  0  0  0  0  0  0  0  0  0  0  0  0  # atno 17395 bound_to 11000

$$$$
