AV-unprocessed.smi:3063|AV-procd|sdf|11686|dock1
  -GOLD-   2272017 93D 1   1.00000     0.00000
 Structure written by MMmdl.
 44 45  0  0  0  0  0  0  0  0  1 V2000
  148.6316  136.5179  158.0738 C   0  0  0  0  0  0  0  0  0  0  0  0
  149.8600  136.4426  157.1642 C   0  0  0  0  0  0  0  0  0  0  0  0
  150.9554  136.2327  157.6856 O   0  0  0  0  0  0  0  0  0  0  0  0
  149.7048  136.5894  155.8256 N   0  0  0  0  0  0  0  0  0  0  0  0
  148.4063  136.9499  155.2373 C   0  0  0  0  0  0  0  0  0  0  0  0
  148.2201  138.4812  155.1875 C   0  0  0  0  0  0  0  0  0  0  0  0
  149.3043  139.2074  154.3620 C   0  0  0  0  0  0  0  0  0  0  0  0
  150.6512  139.0013  154.9296 N   0  0  0  0  0  0  0  0  0  0  0  0
  151.2106  139.7588  155.9091 C   0  0  0  0  0  0  0  0  0  0  0  0
  152.3922  139.6661  156.2447 O   0  0  0  0  0  0  0  0  0  0  0  0
  150.3655  140.6186  156.5042 N   0  0  0  0  0  0  0  0  0  0  0  0
  150.7051  141.5453  157.5820 C   0  0  1  0  0  0  0  0  0  0  0  0
  151.5188  140.7978  158.6506 C   0  0  0  0  0  0  0  0  0  0  0  0
  151.4185  142.8093  157.0440 C   0  0  0  0  0  0  0  0  0  0  0  0
  151.7737  143.7662  158.0785 N   0  0  0  0  0  0  0  0  0  0  0  0
  151.3473  145.0691  158.2296 C   0  0  0  0  0  0  0  0  0  0  0  0
  151.9522  145.5682  159.3476 C   0  0  0  0  0  0  0  0  0  0  0  0
  152.7457  144.4835  159.8149 C   0  0  0  0  0  0  0  0  0  0  0  0
  152.6379  143.4093  159.0515 N   0  0  0  0  0  0  0  0  0  0  0  0
  151.3552  137.8382  154.3601 C   0  0  0  0  0  0  0  0  0  0  0  0
  150.7960  136.4730  154.8418 C   0  0  0  0  0  0  0  0  0  0  0  0
  147.8404  135.8574  157.7190 H   0  0  0  0  0  0  0  0  0  0  0  0
  148.2482  137.5375  158.1191 H   0  0  0  0  0  0  0  0  0  0  0  0
  148.8878  136.2105  159.0881 H   0  0  0  0  0  0  0  0  0  0  0  0
  148.3188  136.5428  154.2293 H   0  0  0  0  0  0  0  0  0  0  0  0
  147.5863  136.4959  155.7961 H   0  0  0  0  0  0  0  0  0  0  0  0
  147.2426  138.7020  154.7580 H   0  0  0  0  0  0  0  0  0  0  0  0
  148.1953  138.8824  156.2006 H   0  0  0  0  0  0  0  0  0  0  0  0
  149.2711  138.8421  153.3347 H   0  0  0  0  0  0  0  0  0  0  0  0
  149.0671  140.2690  154.2818 H   0  0  0  0  0  0  0  0  0  0  0  0
  149.4071  140.6258  156.1873 H   0  0  0  0  0  0  0  0  0  0  0  0
  149.7739  141.8666  158.0520 H   0  0  0  0  0  0  0  0  0  0  0  0
  151.7914  141.4624  159.4707 H   0  0  0  0  0  0  0  0  0  0  0  0
  152.4384  140.3793  158.2402 H   0  0  0  0  0  0  0  0  0  0  0  0
  150.9437  139.9735  159.0736 H   0  0  0  0  0  0  0  0  0  0  0  0
  152.3192  142.5427  156.4888 H   0  0  0  0  0  0  0  0  0  0  0  0
  150.7670  143.3160  156.3312 H   0  0  0  0  0  0  0  0  0  0  0  0
  150.6535  145.5257  157.5391 H   0  0  0  0  0  0  0  0  0  0  0  0
  151.8455  146.5575  159.7668 H   0  0  0  0  0  0  0  0  0  0  0  0
  153.3932  144.4435  160.6785 H   0  0  0  0  0  0  0  0  0  0  0  0
  151.2990  137.8870  153.2720 H   0  0  0  0  0  0  0  0  0  0  0  0
  152.4253  137.8734  154.5690 H   0  0  0  0  0  0  0  0  0  0  0  0
  151.6128  135.8527  155.2099 H   0  0  0  0  0  0  0  0  0  0  0  0
  150.4286  135.9209  153.9761 H   0  0  0  0  0  0  0  0  0  0  0  0
  1  2  1  0  0  0  0
  1 22  1  0  0  0  0
  1 23  1  0  0  0  0
  1 24  1  0  0  0  0
  2  3  2  0  0  0  0
  2  4  1  0  0  0  0
  4 21  1  0  0  0  0
  4  5  1  0  0  0  0
  5  6  1  0  0  0  0
  5 25  1  0  0  0  0
  5 26  1  0  0  0  0
  6  7  1  0  0  0  0
  6 27  1  0  0  0  0
  6 28  1  0  0  0  0
  7  8  1  0  0  0  0
  7 29  1  0  0  0  0
  7 30  1  0  0  0  0
  8  9  1  0  0  0  0
  8 20  1  0  0  0  0
  9 10  2  0  0  0  0
  9 11  1  0  0  0  0
 11 12  1  0  0  0  0
 11 31  1  0  0  0  0
 12 13  1  0  0  0  0
 12 14  1  0  0  0  0
 12 32  1  0  0  0  0
 13 33  1  0  0  0  0
 13 34  1  0  0  0  0
 13 35  1  0  0  0  0
 14 15  1  0  0  0  0
 14 36  1  0  0  0  0
 14 37  1  0  0  0  0
 15 19  1  0  0  0  0
 15 16  1  0  0  0  0
 16 17  2  0  0  0  0
 16 38  1  0  0  0  0
 17 18  1  0  0  0  0
 17 39  1  0  0  0  0
 18 19  2  0  0  0  0
 18 40  1  0  0  0  0
 20 21  1  0  0  0  0
 20 41  1  0  0  0  0
 20 42  1  0  0  0  0
 21 43  1  0  0  0  0
 21 44  1  0  0  0  0
M  END
> <s_m_source_file>
AV-unprocessed.smi

> <i_m_source_file_index>
3063

> <i_lp_mmshare_version>
43012

> <i_f3d_flags>
0

> <s_epik_input>
W0NIM11DKD1PKU4xW0NIMl1bQ0gyXVtDSDJdTihbQ0gyXVtDSDJdMSlDKD1PKVtOSF1bQ0BIXShbQ0gzXSlbQ0gyXW4yW2NIXVtjSF1bY0hdbjI=

> <s_epik_cmdline>
J2VwaWtfcHl0aG9uJywgJy1waCcsICc3LjAnLCAnLXRuJywgJzgnLCAnLW1hJywgJzIwMCcsICctbWV0YWxfYmluZGluZycsICctaW1hZScsICc8aW5maWxlLm1hZT4nLCAnLW9tYWUnLCAnPG91dGZpbGUubWFlPic=

> <r_lp_tautomer_probability>
1

> <r_epik_Ionization_Penalty>
6.19559e-05

> <r_epik_Ionization_Penalty_Charging>
0

> <r_epik_Ionization_Penalty_Neutral>
6.19559e-05

> <r_epik_State_Penalty>
-0

> <r_epik_Charging_Adjusted_Penalty>
0

> <i_epik_Tot_Q>
0

> <i_epik_Tot_abs_Q>
0

> <r_epik_Metal_State_Penalty>
-0

> <b_epik_Metal_Only>
0

> <s_lp_Force_Field>
OPLS_2005

> <r_lp_Energy>
38.4864

> <b_lp_Chiralities_Consistent>
1

> <s_lp_Variant>
AV-unprocessed.smi:3063-2

> <Gold.Version>
5.8.1

> <Gold.Id.Protein>
6NUR|6NUR_protein|mol2

> <Gold.PLP.Fitness>
42.9356

> <Gold.PLP.PLP>
-37.8302

> <Gold.PLP.part.hbond>
-2.0000

> <Gold.PLP.part.metal>
0.0000

> <Gold.PLP.part.buried>
-5.8554

> <Gold.PLP.part.nonpolar>
-30.4628

> <Gold.PLP.part.repulsive>
0.0424

> <Gold.PLP.ligand.clash>
0.0000

> <Gold.PLP.ligand.torsion>
0.2813

> <Gold.PLP.Chemscore.Hbond>
1.0744

> <Gold.PLP.Chemscore.CHOScore>
0.7986

> <Gold.PLP.Chemscore.Metal>
0.0000

> <Gold.Chemscore.Hbonds>
donor molecule, donor type, donor heavy atom, donor atom, acceptor molecule, acceptor atom, score
      P1  H  6896  6907       L1     3  0.03
      P1  H  7997  8009       L1    10  1.00
      L1  C    16    38       P1  8028  0.39
      L1  C    16    38       P1  8029  0.11

> <Gold.PLP.Chemscore.Internal.Correction>
0.0490

> <Gold.Rescore>
     Score         DG    S(hbond)    S(metal)    S(lipo)     H(rot)  DE(clash)    DE(int)     intcor
     13.19     -16.69       1.53        0.00      83.62       1.44       0.38       3.12       ----

> <Gold.Chemscore.Fitness>
13.1941

> <Gold.Chemscore.DG>
-16.6906

> <Gold.Chemscore.ZeroCoef>
-5.4800

> <Gold.Chemscore.Hbond>
1.5287

> <Gold.Chemscore.Metal>
0.0000

> <Gold.Chemscore.Lipo>
83.6153

> <Gold.Chemscore.Internal_Hbond>
0.0000

> <Gold.Chemscore.DEClash>
0.3767

> <Gold.Chemscore.DEInternal>
3.1198

> <Gold.Chemscore.Rot>
1.4368

> <Gold.Chemscore.Internal.Correction>
   9.000000E+99

> <Gold.Chemscore.Hbonds>
donor molecule, donor type, donor heavy atom, donor atom, acceptor molecule, acceptor atom, score
      P1  H  6896  6907       L1     3  0.05
      P1  H  7997  8009       L1    10  0.96

> <Gold.Chemscore.Hbond.Weighted>
-5.1058

> <Gold.Chemscore.Metal.Weighted>
-0.0000

> <Gold.Chemscore.Lipo.Weighted>
-9.7830

> <Gold.Chemscore.Internal_Hbond.Weighted>
0.0000

> <Gold.Chemscore.DEClash.Weighted>
0.3767

> <Gold.Chemscore.DEInternal.Weighted>
3.1198

> <Gold.Chemscore.Rot.Weighted>
3.6782

> <Gold.Chemscore.Internal.Correction.Weighted>
   9.000000E+99

> <Gold.Protein.RotatedTorsions>
[ 6907 6896 6895 6894 ] final  -39.09 input  -60.11 | X-H torsion
[ 7974 7965 7964 7962 ] final  104.76 input  175.53 | X-H torsion
[ 8008 7997 7996 7995 ] final -157.84 input   59.86 | X-H torsion
[ 10167 10162 10161 10158 ] final  -35.97 input  -65.29 | X-H torsion
[ 10718 10713 10712 10709 ] final   87.01 input   66.30 | X-H torsion
[ 10763 10752 10751 10750 ] final   70.92 input  -60.55 | X-H torsion
[ 11005 11000 10999 10996 ] final   51.98 input  -57.11 | X-H torsion

> <Gold.Protein.ActiveResidues>
 VAL166  LYS551  ARG553  GLY616  TRP617  ASP618  TYR619  PRO620  LYS621  CYS622 
 ASP623  PHE694  ASN695  SER759  ASP760  ASP761  ALA762  ILE779  LEU786  VAL792 
 PHE793  MET794  SER795  GLU796  ALA797  LYS798  CYS799  TRP800  GLU811  SER814 

> <Gold.Protein.RotatedAtoms>
  150.9946  134.9273  159.7918 H   0  0  0  0  0  0  0  0  0  0  0  0  # atno 6907 bound_to 6896
  152.5261  134.3236  159.9167 H   0  0  0  0  0  0  0  0  0  0  0  0  # atno 6908 bound_to 6896
  151.3242  133.3986  159.2691 H   0  0  0  0  0  0  0  0  0  0  0  0  # atno 6909 bound_to 6896
  145.3285  139.2493  143.3673 H   0  0  0  0  0  0  0  0  0  0  0  0  # atno 7974 bound_to 7965
  155.7386  140.0811  157.2256 H   0  0  0  0  0  0  0  0  0  0  0  0  # atno 8008 bound_to 7997
  154.4024  140.1582  156.2645 H   0  0  0  0  0  0  0  0  0  0  0  0  # atno 8009 bound_to 7997
  155.9042  140.3408  155.6052 H   0  0  0  0  0  0  0  0  0  0  0  0  # atno 8010 bound_to 7997
  140.7153  143.3440  151.2295 H   0  0  0  0  0  0  0  0  0  0  0  0  # atno 10167 bound_to 10162
  157.6935  131.0238  150.3059 H   0  0  0  0  0  0  0  0  0  0  0  0  # atno 10718 bound_to 10713
  153.0369  135.5156  154.7515 H   0  0  0  0  0  0  0  0  0  0  0  0  # atno 10763 bound_to 10752
  154.6484  135.2921  155.0020 H   0  0  0  0  0  0  0  0  0  0  0  0  # atno 10764 bound_to 10752
  154.0913  135.6650  153.4905 H   0  0  0  0  0  0  0  0  0  0  0  0  # atno 10765 bound_to 10752
  140.0887  134.5239  155.8873 H   0  0  0  0  0  0  0  0  0  0  0  0  # atno 11005 bound_to 11000
  146.3055  140.3858  142.8689 LP  0  0  0  0  0  0  0  0  0  0  0  0  # atno 17320 bound_to 7965
  144.8883  140.7490  143.5943 LP  0  0  0  0  0  0  0  0  0  0  0  0  # atno 17321 bound_to 7965
  139.6955  143.9620  152.2880 LP  0  0  0  0  0  0  0  0  0  0  0  0  # atno 17342 bound_to 10162
  139.9296  144.6750  150.8377 LP  0  0  0  0  0  0  0  0  0  0  0  0  # atno 17343 bound_to 10162
  156.3567  130.3840  149.7284 LP  0  0  0  0  0  0  0  0  0  0  0  0  # atno 17370 bound_to 10713
  156.4744  130.8011  151.3028 LP  0  0  0  0  0  0  0  0  0  0  0  0  # atno 17371 bound_to 10713
  141.2071  133.6661  156.6283 LP  0  0  0  0  0  0  0  0  0  0  0  0  # atno 17394 bound_to 11000
  140.3383  134.7870  157.4378 LP  0  0  0  0  0  0  0  0  0  0  0  0  # atno 17395 bound_to 11000

$$$$
