AV-unprocessed.smi:2083|AV-procd|sdf|8493|dock2
  -GOLD-   2272011203D 1   1.00000     0.00000
 Structure written by MMmdl.
 45 46  0  0  0  0  0  0  0  0  2 V2000
  144.5211  132.3446  149.6782 C   0  0  0  0  0  0  0  0  0  0  0  0
  144.7888  133.5517  150.5100 C   0  0  0  0  0  0  0  0  0  0  0  0
  145.9320  134.2339  150.8196 C   0  0  0  0  0  0  0  0  0  0  0  0
  145.4627  135.2808  151.6566 C   0  0  0  0  0  0  0  0  0  0  0  0
  146.3607  136.2293  152.2101 N   0  0  0  0  0  0  0  0  0  0  0  0
  146.0781  137.2062  153.0887 C   0  0  0  0  0  0  0  0  0  0  0  0
  144.9571  137.4653  153.5274 O   0  0  0  0  0  0  0  0  0  0  0  0
  147.1809  137.8821  153.4424 N   0  0  0  0  0  0  0  0  0  0  0  0
  147.2108  138.9989  154.3827 C   0  0  0  0  0  0  0  0  0  0  0  0
  148.3654  139.9911  154.1034 C   0  0  1  0  0  0  0  0  0  0  0  0
  148.0113  141.4451  154.4847 C   0  0  0  0  0  0  0  0  0  0  0  0
  149.6343  139.5157  154.7298 N   0  3  2  0  0  0  0  0  0  0  0  0
  150.5191  140.5863  155.2660 C   0  0  0  0  0  0  0  0  0  0  0  0
  151.6591  139.9843  156.1017 C   0  0  0  0  0  0  0  0  0  0  0  0
  152.4647  138.9684  155.2787 C   0  0  0  0  0  0  0  0  0  0  0  0
  151.5486  137.8951  154.6609 C   0  0  1  0  0  0  0  0  0  0  0  0
  151.0514  136.8713  155.6964 C   0  0  0  0  0  0  0  0  0  0  0  0
  150.3877  138.5506  153.8832 C   0  0  0  0  0  0  0  0  0  0  0  0
  144.1522  135.2412  151.8422 N   0  0  0  0  0  0  0  0  0  0  0  0
  143.7137  134.1326  151.1084 O   0  0  0  0  0  0  0  0  0  0  0  0
  145.4208  132.0269  149.1511 H   0  0  0  0  0  0  0  0  0  0  0  0
  143.7495  132.5496  148.9360 H   0  0  0  0  0  0  0  0  0  0  0  0
  144.1821  131.5155  150.2995 H   0  0  0  0  0  0  0  0  0  0  0  0
  146.9393  134.0152  150.4976 H   0  0  0  0  0  0  0  0  0  0  0  0
  147.3225  136.1436  151.9170 H   0  0  0  0  0  0  0  0  0  0  0  0
  148.0614  137.6077  153.0310 H   0  0  0  0  0  0  0  0  0  0  0  0
  146.2465  139.5005  154.3115 H   0  0  0  0  0  0  0  0  0  0  0  0
  147.2810  138.6126  155.4011 H   0  0  0  0  0  0  0  0  0  0  0  0
  148.5282  139.9764  153.0250 H   0  0  0  0  0  0  0  0  0  0  0  0
  147.1691  141.8111  153.8971 H   0  0  0  0  0  0  0  0  0  0  0  0
  148.8430  142.1243  154.2988 H   0  0  0  0  0  0  0  0  0  0  0  0
  147.7329  141.5331  155.5350 H   0  0  0  0  0  0  0  0  0  0  0  0
  150.9398  141.1693  154.4457 H   0  0  0  0  0  0  0  0  0  0  0  0
  149.9519  141.2779  155.8876 H   0  0  0  0  0  0  0  0  0  0  0  0
  152.3183  140.7778  156.4555 H   0  0  0  0  0  0  0  0  0  0  0  0
  151.2519  139.5060  156.9931 H   0  0  0  0  0  0  0  0  0  0  0  0
  152.9897  139.4946  154.4801 H   0  0  0  0  0  0  0  0  0  0  0  0
  153.2356  138.5061  155.8962 H   0  0  0  0  0  0  0  0  0  0  0  0
  152.1466  137.3346  153.9412 H   0  0  0  0  0  0  0  0  0  0  0  0
  150.4177  137.3317  156.4544 H   0  0  0  0  0  0  0  0  0  0  0  0
  151.8883  136.3955  156.2085 H   0  0  0  0  0  0  0  0  0  0  0  0
  150.4708  136.0821  155.2178 H   0  0  0  0  0  0  0  0  0  0  0  0
  149.7198  137.7732  153.5096 H   0  0  0  0  0  0  0  0  0  0  0  0
  150.7808  139.0693  153.0077 H   0  0  0  0  0  0  0  0  0  0  0  0
  149.3384  138.9768  155.5313 H   0  0  0  0  0  0  0  0  0  0  0  0
  1  2  1  0  0  0  0
  1 21  1  0  0  0  0
  1 22  1  0  0  0  0
  1 23  1  0  0  0  0
  2 20  1  0  0  0  0
  2  3  2  0  0  0  0
  3  4  1  0  0  0  0
  3 24  1  0  0  0  0
  4  5  1  0  0  0  0
  4 19  2  0  0  0  0
  5  6  1  0  0  0  0
  5 25  1  0  0  0  0
  6  7  2  0  0  0  0
  6  8  1  0  0  0  0
  8  9  1  0  0  0  0
  8 26  1  0  0  0  0
  9 10  1  0  0  0  0
  9 27  1  0  0  0  0
  9 28  1  0  0  0  0
 10 11  1  0  0  0  0
 10 12  1  0  0  0  0
 10 29  1  0  0  0  0
 11 30  1  0  0  0  0
 11 31  1  0  0  0  0
 11 32  1  0  0  0  0
 12 18  1  0  0  0  0
 12 13  1  0  0  0  0
 12 45  1  0  0  0  0
 13 14  1  0  0  0  0
 13 33  1  0  0  0  0
 13 34  1  0  0  0  0
 14 15  1  0  0  0  0
 14 35  1  0  0  0  0
 14 36  1  0  0  0  0
 15 16  1  0  0  0  0
 15 37  1  0  0  0  0
 15 38  1  0  0  0  0
 16 17  1  0  0  0  0
 16 18  1  0  0  0  0
 16 39  1  0  0  0  0
 17 40  1  0  0  0  0
 17 41  1  0  0  0  0
 17 42  1  0  0  0  0
 18 43  1  0  0  0  0
 18 44  1  0  0  0  0
 19 20  1  0  0  0  0
M  CHG  1  12   1
M  END
> <s_m_source_file>
AV-unprocessed.smi

> <i_m_source_file_index>
2083

> <i_lp_mmshare_version>
43012

> <i_f3d_flags>
0

> <s_epik_input>
W0NIM11jMVtjSF1jKG5vMSlbTkhdQyg9TylbTkhdW0NIMl1bQ0BIXShbQ0gzXSlOMltDSDJdW0NIMl1bQ0gyXVtDQEBIXShbQ0gzXSlbQ0gyXTI=

> <s_epik_cmdline>
J2VwaWtfcHl0aG9uJywgJy1waCcsICc3LjAnLCAnLXRuJywgJzgnLCAnLW1hJywgJzIwMCcsICctbWV0YWxfYmluZGluZycsICctaW1hZScsICc8aW5maWxlLm1hZT4nLCAnLW9tYWUnLCAnPG91dGZpbGUubWFlPic=

> <r_epik_Ionization_Penalty>
0.00216453

> <r_epik_Ionization_Penalty_Charging>
0.00212879

> <r_epik_Ionization_Penalty_Neutral>
3.57418e-05

> <r_epik_State_Penalty>
0.00146033

> <r_epik_Charging_Adjusted_Penalty>
0.00358912

> <i_epik_Tot_Q>
1

> <i_epik_Tot_abs_Q>
1

> <r_epik_Metal_State_Penalty>
0.0215827

> <b_epik_Metal_Only>
0

> <s_lp_Force_Field>
OPLS_2005

> <r_lp_Energy>
19.7178

> <b_lp_Chiralities_Consistent>
1

> <s_lp_Variant>
AV-unprocessed.smi:2083-4

> <Gold.Version>
5.8.1

> <Gold.Id.Protein>
6NUR|6NUR_protein|mol2

> <Gold.PLP.Fitness>
36.6700

> <Gold.PLP.PLP>
-33.7210

> <Gold.PLP.part.hbond>
-2.0000

> <Gold.PLP.part.metal>
0.0000

> <Gold.PLP.part.buried>
-2.8996

> <Gold.PLP.part.nonpolar>
-28.7564

> <Gold.PLP.part.repulsive>
0.6252

> <Gold.PLP.ligand.clash>
0.0000

> <Gold.PLP.ligand.torsion>
1.4195

> <Gold.PLP.Chemscore.Hbond>
1.8800

> <Gold.PLP.Chemscore.CHOScore>
0.0000

> <Gold.PLP.Chemscore.Metal>
0.0000

> <Gold.Chemscore.Hbonds>
donor molecule, donor type, donor heavy atom, donor atom, acceptor molecule, acceptor atom, score
      L1  H     5    25       P1  7948  1.00
      L1  H     8    26       P1  7948  0.90

> <Gold.PLP.Chemscore.Internal.Correction>
0.1480

> <Gold.Rescore>
     Score         DG    S(hbond)    S(metal)    S(lipo)     H(rot)  DE(clash)    DE(int)     intcor
     14.68     -17.62       1.87        0.00      84.19       1.55       0.32       2.62       ----

> <Gold.Chemscore.Fitness>
14.6827

> <Gold.Chemscore.DG>
-17.6242

> <Gold.Chemscore.ZeroCoef>
-5.4800

> <Gold.Chemscore.Hbond>
1.8729

> <Gold.Chemscore.Metal>
0.0000

> <Gold.Chemscore.Lipo>
84.1890

> <Gold.Chemscore.Internal_Hbond>
0.0000

> <Gold.Chemscore.DEClash>
0.3184

> <Gold.Chemscore.DEInternal>
2.6230

> <Gold.Chemscore.Rot>
1.5474

> <Gold.Chemscore.Internal.Correction>
   9.000000E+99

> <Gold.Chemscore.Hbonds>
donor molecule, donor type, donor heavy atom, donor atom, acceptor molecule, acceptor atom, score
      L1  H     5    25       P1  7948  0.99
      L1  H     8    26       P1  7948  0.85

> <Gold.Chemscore.Hbond.Weighted>
-6.2553

> <Gold.Chemscore.Metal.Weighted>
-0.0000

> <Gold.Chemscore.Lipo.Weighted>
-9.8501

> <Gold.Chemscore.Internal_Hbond.Weighted>
0.0000

> <Gold.Chemscore.DEClash.Weighted>
0.3184

> <Gold.Chemscore.DEInternal.Weighted>
2.6230

> <Gold.Chemscore.Rot.Weighted>
3.9612

> <Gold.Chemscore.Internal.Correction.Weighted>
   9.000000E+99

> <Gold.Protein.RotatedTorsions>
[ 6907 6896 6895 6894 ] final   41.83 input  -60.11 | X-H torsion
[ 7974 7965 7964 7962 ] final   72.07 input  175.53 | X-H torsion
[ 8008 7997 7996 7995 ] final   25.01 input   59.86 | X-H torsion
[ 10167 10162 10161 10158 ] final  161.20 input  -65.29 | X-H torsion
[ 10718 10713 10712 10709 ] final -174.10 input   66.30 | X-H torsion
[ 10763 10752 10751 10750 ] final  109.59 input  -60.55 | X-H torsion
[ 11005 11000 10999 10996 ] final  135.44 input  -57.11 | X-H torsion

> <Gold.Protein.ActiveResidues>
 VAL166  LYS551  ARG553  GLY616  TRP617  ASP618  TYR619  PRO620  LYS621  CYS622 
 ASP623  PHE694  ASN695  SER759  ASP760  ASP761  ALA762  ILE779  LEU786  VAL792 
 PHE793  MET794  SER795  GLU796  ALA797  LYS798  CYS799  TRP800  GLU811  SER814 

> <Gold.Protein.RotatedAtoms>
  152.2002  134.8594  160.0508 H   0  0  0  0  0  0  0  0  0  0  0  0  # atno 6907 bound_to 6896
  151.9451  133.3644  159.3987 H   0  0  0  0  0  0  0  0  0  0  0  0  # atno 6908 bound_to 6896
  150.6953  134.4323  159.5298 H   0  0  0  0  0  0  0  0  0  0  0  0  # atno 6909 bound_to 6896
  145.7579  139.2788  143.1393 H   0  0  0  0  0  0  0  0  0  0  0  0  # atno 7974 bound_to 7965
  155.0052  140.3130  155.4851 H   0  0  0  0  0  0  0  0  0  0  0  0  # atno 8008 bound_to 7997
  156.2918  140.2224  156.5104 H   0  0  0  0  0  0  0  0  0  0  0  0  # atno 8009 bound_to 7997
  154.7583  140.0461  157.0940 H   0  0  0  0  0  0  0  0  0  0  0  0  # atno 8010 bound_to 7997
  139.4847  144.4559  151.8769 H   0  0  0  0  0  0  0  0  0  0  0  0  # atno 10167 bound_to 10162
  156.7801  130.9480  151.3120 H   0  0  0  0  0  0  0  0  0  0  0  0  # atno 10718 bound_to 10713
  153.4370  135.3775  155.2205 H   0  0  0  0  0  0  0  0  0  0  0  0  # atno 10763 bound_to 10752
  154.8752  135.3853  154.4199 H   0  0  0  0  0  0  0  0  0  0  0  0  # atno 10764 bound_to 10752
  153.4739  135.7087  153.6040 H   0  0  0  0  0  0  0  0  0  0  0  0  # atno 10765 bound_to 10752
  139.9980  134.9490  157.0007 H   0  0  0  0  0  0  0  0  0  0  0  0  # atno 11005 bound_to 11000
  146.0292  140.8274  142.9884 LP  0  0  0  0  0  0  0  0  0  0  0  0  # atno 17320 bound_to 7965
  144.6836  140.2744  143.7301 LP  0  0  0  0  0  0  0  0  0  0  0  0  # atno 17321 bound_to 7965
  140.4019  144.2482  150.5892 LP  0  0  0  0  0  0  0  0  0  0  0  0  # atno 17342 bound_to 10162
  140.5049  143.2307  151.8623 LP  0  0  0  0  0  0  0  0  0  0  0  0  # atno 17343 bound_to 10162
  157.6650  130.9000  149.9912 LP  0  0  0  0  0  0  0  0  0  0  0  0  # atno 17370 bound_to 10713
  156.1223  130.3645  149.9867 LP  0  0  0  0  0  0  0  0  0  0  0  0  # atno 17371 bound_to 10713
  140.4782  134.1317  155.7213 LP  0  0  0  0  0  0  0  0  0  0  0  0  # atno 17394 bound_to 11000
  141.1619  133.8776  157.1823 LP  0  0  0  0  0  0  0  0  0  0  0  0  # atno 17395 bound_to 11000

$$$$
