AV-unprocessed.smi:721|AV-procd|sdf|3503|dock10
  -GOLD-   22720 0503D 1   1.00000     0.00000
 Structure written by MMmdl.
 29 30  0  0  0  0  0  0  0  0  1 V2000
  146.4790  138.2739  152.0948 Cl  0  0  0  0  0  0  0  0  0  0  0  0
  147.3111  139.3450  153.1611 C   0  0  0  0  0  0  0  0  0  0  0  0
  146.8881  140.6749  153.3555 C   0  0  0  0  0  0  0  0  0  0  0  0
  147.5429  141.5105  154.1916 N   0  0  0  0  0  0  0  0  0  0  0  0
  148.6106  141.0210  154.8282 C   0  0  0  0  0  0  0  0  0  0  0  0
  149.2517  141.9063  155.6758 N   0  0  0  0  0  0  0  0  0  0  0  0
  149.9157  141.5383  156.9191 C   0  0  0  0  0  0  0  0  0  0  0  0
  149.2570  142.1841  158.1454 C   0  0  0  0  0  0  0  0  0  0  0  0
  150.2202  142.9668  158.8307 O   0  0  0  0  0  0  0  0  0  0  0  0
  151.3992  142.2408  159.1305 C   0  0  0  0  0  0  0  0  0  0  0  0
  152.4517  143.2023  159.6383 C   0  0  0  0  0  0  0  0  0  0  0  0
  152.1723  144.0824  160.8349 C   0  0  0  0  0  0  0  0  0  0  0  0
  152.2795  144.6936  159.4607 C   0  0  0  0  0  0  0  0  0  0  0  0
  149.0985  139.7788  154.7160 N   0  0  0  0  0  0  0  0  0  0  0  0
  148.4497  138.9359  153.8831 C   0  0  0  0  0  0  0  0  0  0  0  0
  146.0250  141.0708  152.8410 H   0  0  0  0  0  0  0  0  0  0  0  0
  149.1551  142.8898  155.4678 H   0  0  0  0  0  0  0  0  0  0  0  0
  149.9090  140.4528  157.0216 H   0  0  0  0  0  0  0  0  0  0  0  0
  150.9633  141.8343  156.8594 H   0  0  0  0  0  0  0  0  0  0  0  0
  148.3984  142.7917  157.8560 H   0  0  0  0  0  0  0  0  0  0  0  0
  148.8904  141.4008  158.8105 H   0  0  0  0  0  0  0  0  0  0  0  0
  151.2021  141.4918  159.8989 H   0  0  0  0  0  0  0  0  0  0  0  0
  151.7674  141.7244  158.2424 H   0  0  0  0  0  0  0  0  0  0  0  0
  153.4694  142.8265  159.5492 H   0  0  0  0  0  0  0  0  0  0  0  0
  151.1830  144.0251  161.2847 H   0  0  0  0  0  0  0  0  0  0  0  0
  152.9908  144.2570  161.5301 H   0  0  0  0  0  0  0  0  0  0  0  0
  153.1696  145.2787  159.2386 H   0  0  0  0  0  0  0  0  0  0  0  0
  151.3605  145.0479  158.9977 H   0  0  0  0  0  0  0  0  0  0  0  0
  148.8421  137.9337  153.7938 H   0  0  0  0  0  0  0  0  0  0  0  0
  1  2  1  0  0  0  0
  2 15  1  0  0  0  0
  2  3  2  0  0  0  0
  3  4  1  0  0  0  0
  3 16  1  0  0  0  0
  4  5  2  0  0  0  0
  5  6  1  0  0  0  0
  5 14  1  0  0  0  0
  6  7  1  0  0  0  0
  6 17  1  0  0  0  0
  7  8  1  0  0  0  0
  7 18  1  0  0  0  0
  7 19  1  0  0  0  0
  8  9  1  0  0  0  0
  8 20  1  0  0  0  0
  8 21  1  0  0  0  0
  9 10  1  0  0  0  0
 10 11  1  0  0  0  0
 10 22  1  0  0  0  0
 10 23  1  0  0  0  0
 11 13  1  0  0  0  0
 11 12  1  0  0  0  0
 11 24  1  0  0  0  0
 12 13  1  0  0  0  0
 12 25  1  0  0  0  0
 12 26  1  0  0  0  0
 13 27  1  0  0  0  0
 13 28  1  0  0  0  0
 14 15  2  0  0  0  0
 15 29  1  0  0  0  0
M  END
> <s_m_source_file>
AV-unprocessed.smi

> <i_m_source_file_index>
721

> <i_lp_mmshare_version>
43012

> <i_f3d_flags>
0

> <s_epik_input>
Q2xjMVtjSF1uYyhuW2NIXTEpW05IXVtDSDJdW0NIMl1PW0NIMl1bQ0hdMltDSDJdW0NIMl0y

> <s_epik_cmdline>
J2VwaWtfcHl0aG9uJywgJy1waCcsICc3LjAnLCAnLXRuJywgJzgnLCAnLW1hJywgJzIwMCcsICctbWV0YWxfYmluZGluZycsICctaW1hZScsICc8aW5maWxlLm1hZT4nLCAnLW9tYWUnLCAnPG91dGZpbGUubWFlPic=

> <r_lp_tautomer_probability>
1

> <r_epik_Ionization_Penalty>
7.18353e-06

> <r_epik_Ionization_Penalty_Charging>
0

> <r_epik_Ionization_Penalty_Neutral>
7.18353e-06

> <r_epik_State_Penalty>
-0

> <r_epik_Charging_Adjusted_Penalty>
0

> <i_epik_Tot_Q>
0

> <i_epik_Tot_abs_Q>
0

> <r_epik_Metal_State_Penalty>
-0

> <b_epik_Metal_Only>
0

> <s_lp_Force_Field>
OPLS_2005

> <r_lp_Energy>
6.1156

> <b_lp_Chiralities_Consistent>
1

> <s_lp_Variant>
AV-unprocessed.smi:721-1

> <Gold.Version>
5.8.1

> <Gold.Id.Protein>
6NUR|6NUR_protein|mol2

> <Gold.PLP.Fitness>
37.6785

> <Gold.PLP.PLP>
-30.2140

> <Gold.PLP.part.hbond>
-1.0813

> <Gold.PLP.part.metal>
0.0000

> <Gold.PLP.part.buried>
-2.0283

> <Gold.PLP.part.nonpolar>
-28.0214

> <Gold.PLP.part.repulsive>
0.4681

> <Gold.PLP.ligand.clash>
0.0000

> <Gold.PLP.ligand.torsion>
0.9723

> <Gold.PLP.Chemscore.Hbond>
1.0000

> <Gold.PLP.Chemscore.CHOScore>
1.9498

> <Gold.PLP.Chemscore.Metal>
0.0000

> <Gold.Chemscore.Hbonds>
donor molecule, donor type, donor heavy atom, donor atom, acceptor molecule, acceptor atom, score
      L1  H     6    17       P1  8028  1.00
      L1  C     3    16       P1 10175  0.92
      L1  C    15    29       P1  7948  0.93

> <Gold.PLP.Chemscore.Internal.Correction>
0.5597

> <Gold.Rescore>
     Score         DG    S(hbond)    S(metal)    S(lipo)     H(rot)  DE(clash)    DE(int)     intcor
     12.04     -13.56       0.99        0.00      79.49       1.77       0.24       1.27       ----

> <Gold.Chemscore.Fitness>
12.0428

> <Gold.Chemscore.DG>
-13.5556

> <Gold.Chemscore.ZeroCoef>
-5.4800

> <Gold.Chemscore.Hbond>
0.9915

> <Gold.Chemscore.Metal>
0.0000

> <Gold.Chemscore.Lipo>
79.4946

> <Gold.Chemscore.Internal_Hbond>
0.0000

> <Gold.Chemscore.DEClash>
0.2434

> <Gold.Chemscore.DEInternal>
1.2694

> <Gold.Chemscore.Rot>
1.7722

> <Gold.Chemscore.Internal.Correction>
   9.000000E+99

> <Gold.Chemscore.Hbonds>
donor molecule, donor type, donor heavy atom, donor atom, acceptor molecule, acceptor atom, score
      L1  H     6    17       P1  8028  1.00

> <Gold.Chemscore.Hbond.Weighted>
-3.3115

> <Gold.Chemscore.Metal.Weighted>
-0.0000

> <Gold.Chemscore.Lipo.Weighted>
-9.3009

> <Gold.Chemscore.Internal_Hbond.Weighted>
0.0000

> <Gold.Chemscore.DEClash.Weighted>
0.2434

> <Gold.Chemscore.DEInternal.Weighted>
1.2694

> <Gold.Chemscore.Rot.Weighted>
4.5367

> <Gold.Chemscore.Internal.Correction.Weighted>
   9.000000E+99

> <Gold.Protein.RotatedTorsions>
[ 6907 6896 6895 6894 ] final  -12.25 input  -60.11 | X-H torsion
[ 7974 7965 7964 7962 ] final -120.73 input  175.53 | X-H torsion
[ 8008 7997 7996 7995 ] final   50.32 input   59.86 | X-H torsion
[ 10167 10162 10161 10158 ] final -123.56 input  -65.29 | X-H torsion
[ 10718 10713 10712 10709 ] final  -51.68 input   66.30 | X-H torsion
[ 10763 10752 10751 10750 ] final -150.13 input  -60.55 | X-H torsion
[ 11005 11000 10999 10996 ] final  -74.96 input  -57.11 | X-H torsion

> <Gold.Protein.ActiveResidues>
 VAL166  LYS551  ARG553  GLY616  TRP617  ASP618  TYR619  PRO620  LYS621  CYS622 
 ASP623  PHE694  ASN695  SER759  ASP760  ASP761  ALA762  ILE779  LEU786  VAL792 
 PHE793  MET794  SER795  GLU796  ALA797  LYS798  CYS799  TRP800  GLU811  SER814 

> <Gold.Protein.RotatedAtoms>
  151.3735  135.0927  159.9472 H   0  0  0  0  0  0  0  0  0  0  0  0  # atno 6907 bound_to 6896
  152.5129  133.9142  159.7513 H   0  0  0  0  0  0  0  0  0  0  0  0  # atno 6908 bound_to 6896
  150.9560  133.6442  159.2792 H   0  0  0  0  0  0  0  0  0  0  0  0  # atno 6909 bound_to 6896
  145.0482  140.8197  143.4225 H   0  0  0  0  0  0  0  0  0  0  0  0  # atno 7974 bound_to 7965
  155.4169  140.3445  155.4268 H   0  0  0  0  0  0  0  0  0  0  0  0  # atno 8008 bound_to 7997
  156.1416  140.1544  156.8943 H   0  0  0  0  0  0  0  0  0  0  0  0  # atno 8009 bound_to 7997
  154.4976  140.0823  156.7710 H   0  0  0  0  0  0  0  0  0  0  0  0  # atno 8010 bound_to 7997
  140.0022  143.5528  152.2298 H   0  0  0  0  0  0  0  0  0  0  0  0  # atno 10167 bound_to 10162
  156.1689  130.4149  149.9678 H   0  0  0  0  0  0  0  0  0  0  0  0  # atno 10718 bound_to 10713
  154.8137  135.3292  154.7235 H   0  0  0  0  0  0  0  0  0  0  0  0  # atno 10763 bound_to 10752
  153.7879  135.6913  153.4881 H   0  0  0  0  0  0  0  0  0  0  0  0  # atno 10764 bound_to 10752
  153.1936  135.4542  155.0127 H   0  0  0  0  0  0  0  0  0  0  0  0  # atno 10765 bound_to 10752
  141.1641  133.6930  156.7445 H   0  0  0  0  0  0  0  0  0  0  0  0  # atno 11005 bound_to 11000
  145.1561  139.2485  143.5415 LP  0  0  0  0  0  0  0  0  0  0  0  0  # atno 17320 bound_to 7965
  146.3515  140.1276  142.8598 LP  0  0  0  0  0  0  0  0  0  0  0  0  # atno 17321 bound_to 7965
  139.6263  144.7637  151.2631 LP  0  0  0  0  0  0  0  0  0  0  0  0  # atno 17342 bound_to 10162
  140.7414  143.6558  150.8208 LP  0  0  0  0  0  0  0  0  0  0  0  0  # atno 17343 bound_to 10162
  156.7484  130.9106  151.3636 LP  0  0  0  0  0  0  0  0  0  0  0  0  # atno 17370 bound_to 10713
  157.6788  130.9120  150.0216 LP  0  0  0  0  0  0  0  0  0  0  0  0  # atno 17371 bound_to 10713
  140.2650  134.8437  157.3794 LP  0  0  0  0  0  0  0  0  0  0  0  0  # atno 17394 bound_to 11000
  140.1575  134.4771  155.7917 LP  0  0  0  0  0  0  0  0  0  0  0  0  # atno 17395 bound_to 11000

$$$$
