AV-unprocessed.smi:193|AV-procd|sdf|1502|dock5
  -GOLD-   2262019333D 1   1.00000     0.00000
 Structure written by MMmdl.
 62 66  0  0  0  0  0  0  0  0  2 V2000
  147.6149  142.2361  156.7283 C   0  0  0  0  0  0  0  0  0  0  0  0
  149.0591  141.8256  157.0540 C   0  0  2  0  0  0  0  0  0  0  0  0
  149.0882  140.4762  157.7974 C   0  0  0  0  0  0  0  0  0  0  0  0
  150.3203  139.7363  157.5307 N   0  0  0  0  0  0  0  0  0  0  0  0
  150.1691  138.4041  157.6822 C   0  0  0  0  0  0  0  0  0  0  0  0
  149.6451  137.9626  158.8513 N   0  0  0  0  0  0  0  0  0  0  0  0
  149.4790  136.6511  159.0522 C   0  0  0  0  0  0  0  0  0  0  0  0
  149.7630  135.6375  158.2307 N   0  0  0  0  0  0  0  0  0  0  0  0
  150.2888  136.0831  157.0532 C   0  0  0  0  0  0  0  0  0  0  0  0
  150.5256  137.4401  156.6988 C   0  0  0  0  0  0  0  0  0  0  0  0
  151.0710  137.5125  155.4229 N   0  0  0  0  0  0  0  0  0  0  0  0
  151.1493  136.2659  155.0425 C   0  0  0  0  0  0  0  0  0  0  0  0
  150.6960  135.3421  155.9577 N   0  0  0  0  0  0  0  0  0  0  0  0
  150.6648  133.8964  155.7939 C   0  0  0  0  0  0  0  0  0  0  0  0
  149.4299  133.3801  155.0143 C   0  0  0  0  0  0  0  0  0  0  0  0
  148.2993  134.1003  155.4749 O   0  0  0  0  0  0  0  0  0  0  0  0
  149.5939  133.6467  153.5042 C   0  0  0  0  0  0  0  0  0  0  0  0
  148.4705  132.9992  152.6746 C   0  0  0  0  0  0  0  0  0  0  0  0
  148.4037  131.6054  152.9495 O   0  0  0  0  0  0  0  0  0  0  0  0
  148.0773  131.3274  154.3054 C   0  0  0  0  0  0  0  0  0  0  0  0
  149.1735  131.8735  155.2375 C   0  0  0  0  0  0  0  0  0  0  0  0
  151.5828  140.2141  158.0862 C   0  0  0  0  0  0  0  0  0  0  0  0
  151.9034  141.6720  157.7232 C   0  0  0  0  0  0  0  0  0  0  0  0
  151.0390  142.5992  158.4923 N   0  3  1  0  0  0  0  0  0  0  0  0
  151.7763  143.7930  158.9693 C   0  0  1  0  0  0  0  0  0  0  0  0
  151.3736  144.2527  160.3526 C   0  0  0  0  0  0  0  0  0  0  0  0
  152.6988  143.5505  160.1506 C   0  0  1  0  0  0  0  0  0  0  0  0
  152.9366  142.1792  160.7566 C   0  0  0  0  0  0  0  0  0  0  0  0
  149.7679  142.9703  157.8161 C   0  0  0  0  0  0  0  0  0  0  0  0
  147.0252  142.3709  157.6355 H   0  0  0  0  0  0  0  0  0  0  0  0
  147.1185  141.4800  156.1190 H   0  0  0  0  0  0  0  0  0  0  0  0
  147.5881  143.1728  156.1703 H   0  0  0  0  0  0  0  0  0  0  0  0
  149.5567  141.6890  156.0924 H   0  0  0  0  0  0  0  0  0  0  0  0
  148.9558  140.6236  158.8702 H   0  0  0  0  0  0  0  0  0  0  0  0
  148.2447  139.8685  157.4642 H   0  0  0  0  0  0  0  0  0  0  0  0
  149.0592  136.3737  160.0081 H   0  0  0  0  0  0  0  0  0  0  0  0
  151.5371  135.9824  154.0747 H   0  0  0  0  0  0  0  0  0  0  0  0
  151.5849  133.5899  155.2942 H   0  0  0  0  0  0  0  0  0  0  0  0
  150.6955  133.4436  156.7858 H   0  0  0  0  0  0  0  0  0  0  0  0
  147.5788  133.9343  154.8863 H   0  0  0  0  0  0  0  0  0  0  0  0
  149.6351  134.7187  153.3058 H   0  0  0  0  0  0  0  0  0  0  0  0
  150.5478  133.2383  153.1675 H   0  0  0  0  0  0  0  0  0  0  0  0
  147.5074  133.4690  152.8796 H   0  0  0  0  0  0  0  0  0  0  0  0
  148.6668  133.1368  151.6112 H   0  0  0  0  0  0  0  0  0  0  0  0
  147.1037  131.7538  154.5516 H   0  0  0  0  0  0  0  0  0  0  0  0
  147.9880  130.2482  154.4301 H   0  0  0  0  0  0  0  0  0  0  0  0
  150.0946  131.3211  155.0482 H   0  0  0  0  0  0  0  0  0  0  0  0
  148.9036  131.6732  156.2750 H   0  0  0  0  0  0  0  0  0  0  0  0
  151.5831  140.0923  159.1699 H   0  0  0  0  0  0  0  0  0  0  0  0
  152.3845  139.5792  157.7052 H   0  0  0  0  0  0  0  0  0  0  0  0
  152.9445  141.8492  157.9969 H   0  0  0  0  0  0  0  0  0  0  0  0
  151.8437  141.8565  156.6499 H   0  0  0  0  0  0  0  0  0  0  0  0
  152.0345  144.5269  158.2078 H   0  0  0  0  0  0  0  0  0  0  0  0
  151.4047  145.3212  160.5564 H   0  0  0  0  0  0  0  0  0  0  0  0
  150.5874  143.7066  160.8712 H   0  0  0  0  0  0  0  0  0  0  0  0
  153.5813  144.1868  160.1826 H   0  0  0  0  0  0  0  0  0  0  0  0
  152.0100  141.6088  160.8273 H   0  0  0  0  0  0  0  0  0  0  0  0
  153.3476  142.2841  161.7609 H   0  0  0  0  0  0  0  0  0  0  0  0
  153.6482  141.6186  160.1500 H   0  0  0  0  0  0  0  0  0  0  0  0
  149.9586  143.7874  157.1186 H   0  0  0  0  0  0  0  0  0  0  0  0
  149.0986  143.3699  158.5790 H   0  0  0  0  0  0  0  0  0  0  0  0
  150.7778  142.0893  159.3241 H   0  0  0  0  0  0  0  0  0  0  0  0
  1  2  1  0  0  0  0
  1 30  1  0  0  0  0
  1 31  1  0  0  0  0
  1 32  1  0  0  0  0
  2 29  1  0  0  0  0
  2  3  1  0  0  0  0
  2 33  1  0  0  0  0
  3  4  1  0  0  0  0
  3 34  1  0  0  0  0
  3 35  1  0  0  0  0
  4  5  1  0  0  0  0
  4 22  1  0  0  0  0
  5 10  1  0  0  0  0
  5  6  2  0  0  0  0
  6  7  1  0  0  0  0
  7  8  2  0  0  0  0
  7 36  1  0  0  0  0
  8  9  1  0  0  0  0
  9 13  1  0  0  0  0
  9 10  2  0  0  0  0
 10 11  1  0  0  0  0
 11 12  2  0  0  0  0
 12 13  1  0  0  0  0
 12 37  1  0  0  0  0
 13 14  1  0  0  0  0
 14 15  1  0  0  0  0
 14 38  1  0  0  0  0
 14 39  1  0  0  0  0
 15 21  1  0  0  0  0
 15 16  1  0  0  0  0
 15 17  1  0  0  0  0
 16 40  1  0  0  0  0
 17 18  1  0  0  0  0
 17 41  1  0  0  0  0
 17 42  1  0  0  0  0
 18 19  1  0  0  0  0
 18 43  1  0  0  0  0
 18 44  1  0  0  0  0
 19 20  1  0  0  0  0
 20 21  1  0  0  0  0
 20 45  1  0  0  0  0
 20 46  1  0  0  0  0
 21 47  1  0  0  0  0
 21 48  1  0  0  0  0
 22 23  1  0  0  0  0
 22 49  1  0  0  0  0
 22 50  1  0  0  0  0
 23 24  1  0  0  0  0
 23 51  1  0  0  0  0
 23 52  1  0  0  0  0
 24 25  1  0  0  0  0
 24 29  1  0  0  0  0
 24 62  1  0  0  0  0
 25 27  1  0  0  0  0
 25 26  1  0  0  0  0
 25 53  1  0  0  0  0
 26 27  1  0  0  0  0
 26 54  1  0  0  0  0
 26 55  1  0  0  0  0
 27 28  1  0  0  0  0
 27 56  1  0  0  0  0
 28 57  1  0  0  0  0
 28 58  1  0  0  0  0
 28 59  1  0  0  0  0
 29 60  1  0  0  0  0
 29 61  1  0  0  0  0
M  CHG  1  24   1
M  END
> <s_m_source_file>
AV-unprocessed.smi

> <i_m_source_file_index>
193

> <i_lp_mmshare_version>
43012

> <i_f3d_flags>
0

> <s_epik_input>
W0NIM11bQ0BASF0xW0NIMl1bQ0BIXTFOKFtDSDJdMilbQ0gyXVtDSDJdTihbQ0gyXVtDQEhdMltDSDNdKWMobltjSF1uMyljKGMzNCluW2NIXW40W0NIMl1DNShbT0hdKVtDSDJdW0NIMl1PW0NIMl1bQ0gyXTU=

> <s_epik_cmdline>
J2VwaWtfcHl0aG9uJywgJy1waCcsICc3LjAnLCAnLXRuJywgJzgnLCAnLW1hJywgJzIwMCcsICctbWV0YWxfYmluZGluZycsICctaW1hZScsICc8aW5maWxlLm1hZT4nLCAnLW9tYWUnLCAnPG91dGZpbGUubWFlPic=

> <r_lp_tautomer_probability>
1

> <r_epik_Ionization_Penalty>
0.0540825

> <r_epik_Ionization_Penalty_Charging>
0.0538476

> <r_epik_Ionization_Penalty_Neutral>
0.000234891

> <r_epik_State_Penalty>
0.0200719

> <r_epik_Charging_Adjusted_Penalty>
0.0739194

> <i_epik_Tot_Q>
1

> <i_epik_Tot_abs_Q>
1

> <r_epik_Metal_State_Penalty>
0.0199414

> <b_epik_Metal_Only>
0

> <s_lp_Force_Field>
OPLS_2005

> <r_lp_Energy>
58.7768

> <b_lp_Chiralities_Consistent>
1

> <s_lp_Variant>
AV-unprocessed.smi:193-7

> <Gold.Version>
5.8.1

> <Gold.Id.Protein>
6NUR|6NUR_protein|mol2

> <Gold.PLP.Fitness>
43.3556

> <Gold.PLP.PLP>
-39.3210

> <Gold.PLP.part.hbond>
-1.2488

> <Gold.PLP.part.metal>
0.0000

> <Gold.PLP.part.buried>
-2.1349

> <Gold.PLP.part.nonpolar>
-34.8908

> <Gold.PLP.part.repulsive>
0.3439

> <Gold.PLP.ligand.clash>
0.0000

> <Gold.PLP.ligand.torsion>
1.5842

> <Gold.PLP.Chemscore.Hbond>
0.9600

> <Gold.PLP.Chemscore.CHOScore>
0.9060

> <Gold.PLP.Chemscore.Metal>
0.0000

> <Gold.Chemscore.Hbonds>
donor molecule, donor type, donor heavy atom, donor atom, acceptor molecule, acceptor atom, score
      P1  H  6896  6908       L1     8  0.98
      L1  C    12    37       P1  7949  0.82

> <Gold.PLP.Chemscore.Internal.Correction>
1.6049

> <Gold.Rescore>
     Score         DG    S(hbond)    S(metal)    S(lipo)     H(rot)  DE(clash)    DE(int)     intcor
     12.53     -14.24       0.66        0.00     104.24       2.20       0.13       1.58       ----

> <Gold.Chemscore.Fitness>
12.5288

> <Gold.Chemscore.DG>
-14.2361

> <Gold.Chemscore.ZeroCoef>
-5.4800

> <Gold.Chemscore.Hbond>
0.6577

> <Gold.Chemscore.Metal>
0.0000

> <Gold.Chemscore.Lipo>
104.2382

> <Gold.Chemscore.Internal_Hbond>
0.0000

> <Gold.Chemscore.DEClash>
0.1278

> <Gold.Chemscore.DEInternal>
1.5795

> <Gold.Chemscore.Rot>
2.2018

> <Gold.Chemscore.Internal.Correction>
   9.000000E+99

> <Gold.Chemscore.Hbonds>
donor molecule, donor type, donor heavy atom, donor atom, acceptor molecule, acceptor atom, score
      P1  H  6896  6908       L1     8  0.24

> <Gold.Chemscore.Hbond.Weighted>
-2.1968

> <Gold.Chemscore.Metal.Weighted>
-0.0000

> <Gold.Chemscore.Lipo.Weighted>
-12.1959

> <Gold.Chemscore.Internal_Hbond.Weighted>
0.0000

> <Gold.Chemscore.DEClash.Weighted>
0.1278

> <Gold.Chemscore.DEInternal.Weighted>
1.5795

> <Gold.Chemscore.Rot.Weighted>
5.6366

> <Gold.Chemscore.Internal.Correction.Weighted>
   9.000000E+99

> <Gold.Protein.RotatedTorsions>
[ 6907 6896 6895 6894 ] final  158.64 input  -60.11 | X-H torsion
[ 7974 7965 7964 7962 ] final  136.66 input  175.53 | X-H torsion
[ 8008 7997 7996 7995 ] final  137.75 input   59.86 | X-H torsion
[ 10167 10162 10161 10158 ] final  146.52 input  -65.29 | X-H torsion
[ 10718 10713 10712 10709 ] final  135.95 input   66.30 | X-H torsion
[ 10763 10752 10751 10750 ] final  -83.90 input  -60.55 | X-H torsion
[ 11005 11000 10999 10996 ] final  -13.35 input  -57.11 | X-H torsion

> <Gold.Protein.ActiveResidues>
 VAL166  LYS551  ARG553  GLY616  TRP617  ASP618  TYR619  PRO620  LYS621  CYS622 
 ASP623  PHE694  ASN695  SER759  ASP760  ASP761  ALA762  ILE779  LEU786  VAL792 
 PHE793  MET794  SER795  GLU796  ALA797  LYS798  CYS799  TRP800  GLU811  SER814 

> <Gold.Protein.RotatedAtoms>
  151.9974  133.3813  159.4168 H   0  0  0  0  0  0  0  0  0  0  0  0  # atno 6907 bound_to 6896
  150.6914  134.3871  159.5069 H   0  0  0  0  0  0  0  0  0  0  0  0  # atno 6908 bound_to 6896
  152.1613  134.8909  160.0592 H   0  0  0  0  0  0  0  0  0  0  0  0  # atno 6909 bound_to 6896
  144.9543  139.4782  143.5510 H   0  0  0  0  0  0  0  0  0  0  0  0  # atno 7974 bound_to 7965
  156.3001  140.2411  156.3961 H   0  0  0  0  0  0  0  0  0  0  0  0  # atno 8008 bound_to 7997
  154.8570  140.0421  157.1660 H   0  0  0  0  0  0  0  0  0  0  0  0  # atno 8009 bound_to 7997
  154.8937  140.2967  155.5360 H   0  0  0  0  0  0  0  0  0  0  0  0  # atno 8010 bound_to 7997
  139.4906  144.5823  151.6847 H   0  0  0  0  0  0  0  0  0  0  0  0  # atno 10167 bound_to 10162
  157.4517  131.1066  151.0025 H   0  0  0  0  0  0  0  0  0  0  0  0  # atno 10718 bound_to 10713
  154.5932  135.5539  153.7299 H   0  0  0  0  0  0  0  0  0  0  0  0  # atno 10763 bound_to 10752
  153.0125  135.6348  154.1819 H   0  0  0  0  0  0  0  0  0  0  0  0  # atno 10764 bound_to 10752
  154.1760  135.2889  155.3046 H   0  0  0  0  0  0  0  0  0  0  0  0  # atno 10765 bound_to 10752
  140.7752  133.8407  155.9242 H   0  0  0  0  0  0  0  0  0  0  0  0  # atno 11005 bound_to 11000
  146.3332  139.8650  142.8849 LP  0  0  0  0  0  0  0  0  0  0  0  0  # atno 17320 bound_to 7965
  145.2795  141.0134  143.3725 LP  0  0  0  0  0  0  0  0  0  0  0  0  # atno 17321 bound_to 7965
  140.5432  144.0546  150.6096 LP  0  0  0  0  0  0  0  0  0  0  0  0  # atno 17342 bound_to 10162
  140.3575  143.2927  152.0420 LP  0  0  0  0  0  0  0  0  0  0  0  0  # atno 17343 bound_to 10162
  157.0852  130.5919  149.5428 LP  0  0  0  0  0  0  0  0  0  0  0  0  # atno 17370 bound_to 10713
  155.9990  130.5065  150.7591 LP  0  0  0  0  0  0  0  0  0  0  0  0  # atno 17371 bound_to 10713
  140.9536  134.1747  157.4709 LP  0  0  0  0  0  0  0  0  0  0  0  0  # atno 17394 bound_to 11000
  139.8750  134.9918  156.5568 LP  0  0  0  0  0  0  0  0  0  0  0  0  # atno 17395 bound_to 11000

$$$$
