AV-unprocessed.smi:837|AV-procd|sdf|3900|dock6
  -GOLD-   22720 1363D 1   1.00000     0.00000
 Structure written by MMmdl.
 48 50  0  0  0  0  0  0  0  0  2 V2000
  152.4499  138.6017  158.4779 C   0  0  0  0  0  0  0  0  0  0  0  0
  152.5261  140.1379  158.3381 C   0  0  2  0  0  0  0  0  0  0  0  0
  152.5055  140.8171  159.7246 C   0  0  0  0  0  0  0  0  0  0  0  0
  152.6986  142.3371  159.6185 C   0  0  0  0  0  0  0  0  0  0  0  0
  151.6426  142.9683  158.7016 C   0  0  0  0  0  0  0  0  0  0  0  0
  151.6447  142.3097  157.3108 C   0  0  0  0  0  0  0  0  0  0  0  0
  151.4660  140.7705  157.3779 C   0  0  2  0  0  0  0  0  0  0  0  0
  150.1076  140.4404  157.7804 N   0  5  0  0  0  0  0  0  0  0  0  0
  149.5018  139.7689  156.7742 C   0  0  0  0  0  0  0  0  0  0  0  0
  148.3530  139.3275  156.7723 O   0  0  0  0  0  0  0  0  0  0  0  0
  150.3295  139.6227  155.7220 N   0  0  0  0  0  0  0  0  0  0  0  0
  149.9881  138.9167  154.4799 C   0  0  0  0  0  0  0  0  0  0  0  0
  148.6147  139.3189  153.9265 C   0  0  0  0  0  0  0  0  0  0  0  0
  148.0360  140.3222  154.3457 O   0  0  0  0  0  0  0  0  0  0  0  0
  148.0915  138.5044  152.9980 N   0  0  0  0  0  0  0  0  0  0  0  0
  146.7953  138.6917  152.3541 C   0  0  0  0  0  0  0  0  0  0  0  0
  146.3928  137.4885  151.4813 C   0  0  0  0  0  0  0  0  0  0  0  0
  145.6055  136.4340  152.2399 C   0  0  0  0  0  0  0  0  0  0  0  0
  146.0890  135.8978  153.4514 C   0  0  0  0  0  0  0  0  0  0  0  0
  145.3238  134.9171  154.1117 C   0  0  0  0  0  0  0  0  0  0  0  0
  144.1053  134.5132  153.5304 C   0  0  0  0  0  0  0  0  0  0  0  0
  143.6332  135.0193  152.3707 N   0  0  0  0  0  0  0  0  0  0  0  0
  144.3719  135.9605  151.7450 C   0  0  0  0  0  0  0  0  0  0  0  0
  151.5201  140.1764  155.9770 C   0  0  0  0  0  0  0  0  0  0  0  0
  152.5062  140.2104  155.2392 O   0  0  0  0  0  0  0  0  0  0  0  0
  151.4992  138.2834  158.9061 H   0  0  0  0  0  0  0  0  0  0  0  0
  153.2413  138.2323  159.1302 H   0  0  0  0  0  0  0  0  0  0  0  0
  152.5678  138.0986  157.5183 H   0  0  0  0  0  0  0  0  0  0  0  0
  153.5072  140.3506  157.9096 H   0  0  0  0  0  0  0  0  0  0  0  0
  151.5626  140.6021  160.2295 H   0  0  0  0  0  0  0  0  0  0  0  0
  153.2905  140.3991  160.3554 H   0  0  0  0  0  0  0  0  0  0  0  0
  152.6456  142.7875  160.6099 H   0  0  0  0  0  0  0  0  0  0  0  0
  153.6954  142.5535  159.2325 H   0  0  0  0  0  0  0  0  0  0  0  0
  150.6562  142.8682  159.1559 H   0  0  0  0  0  0  0  0  0  0  0  0
  151.8278  144.0381  158.6044 H   0  0  0  0  0  0  0  0  0  0  0  0
  150.8675  142.7623  156.6921 H   0  0  0  0  0  0  0  0  0  0  0  0
  152.5907  142.5452  156.8203 H   0  0  0  0  0  0  0  0  0  0  0  0
  150.7601  139.1015  153.7308 H   0  0  0  0  0  0  0  0  0  0  0  0
  149.9877  137.8379  154.6428 H   0  0  0  0  0  0  0  0  0  0  0  0
  148.6308  137.6987  152.7161 H   0  0  0  0  0  0  0  0  0  0  0  0
  146.0265  138.8922  153.1018 H   0  0  0  0  0  0  0  0  0  0  0  0
  146.8607  139.5869  151.7352 H   0  0  0  0  0  0  0  0  0  0  0  0
  145.8031  137.8306  150.6296 H   0  0  0  0  0  0  0  0  0  0  0  0
  147.2864  137.0250  151.0620 H   0  0  0  0  0  0  0  0  0  0  0  0
  147.0304  136.2277  153.8663 H   0  0  0  0  0  0  0  0  0  0  0  0
  145.6632  134.4836  155.0408 H   0  0  0  0  0  0  0  0  0  0  0  0
  143.4944  133.7623  154.0090 H   0  0  0  0  0  0  0  0  0  0  0  0
  143.9689  136.3439  150.8191 H   0  0  0  0  0  0  0  0  0  0  0  0
  1  2  1  0  0  0  0
  1 26  1  0  0  0  0
  1 27  1  0  0  0  0
  1 28  1  0  0  0  0
  2  7  1  0  0  0  0
  2  3  1  0  0  0  0
  2 29  1  0  0  0  0
  3  4  1  0  0  0  0
  3 30  1  0  0  0  0
  3 31  1  0  0  0  0
  4  5  1  0  0  0  0
  4 32  1  0  0  0  0
  4 33  1  0  0  0  0
  5  6  1  0  0  0  0
  5 34  1  0  0  0  0
  5 35  1  0  0  0  0
  6  7  1  0  0  0  0
  6 36  1  0  0  0  0
  6 37  1  0  0  0  0
  7 24  1  0  0  0  0
  7  8  1  0  0  0  0
  8  9  1  0  0  0  0
  9 10  2  0  0  0  0
  9 11  1  0  0  0  0
 11 12  1  0  0  0  0
 11 24  1  0  0  0  0
 12 13  1  0  0  0  0
 12 38  1  0  0  0  0
 12 39  1  0  0  0  0
 13 14  2  0  0  0  0
 13 15  1  0  0  0  0
 15 16  1  0  0  0  0
 15 40  1  0  0  0  0
 16 17  1  0  0  0  0
 16 41  1  0  0  0  0
 16 42  1  0  0  0  0
 17 18  1  0  0  0  0
 17 43  1  0  0  0  0
 17 44  1  0  0  0  0
 18 23  1  0  0  0  0
 18 19  2  0  0  0  0
 19 20  1  0  0  0  0
 19 45  1  0  0  0  0
 20 21  2  0  0  0  0
 20 46  1  0  0  0  0
 21 22  1  0  0  0  0
 21 47  1  0  0  0  0
 22 23  2  0  0  0  0
 23 48  1  0  0  0  0
 24 25  2  0  0  0  0
M  CHG  1   8  -1
M  END
> <s_m_source_file>
AV-unprocessed.smi

> <i_m_source_file_index>
837

> <i_lp_mmshare_version>
43012

> <i_f3d_flags>
0

> <s_epik_input>
W0NIMl0xW0NIMl1bQ0gyXVtDSDJdW0NAQEhdKFtDSDNdKVtDQEBdMTJbTkhdQyg9TylOKEMyPU8pW0NIMl1DKD1PKVtOSF1bQ0gyXVtDSDJdYzNbY0hdW2NIXVtjSF1uW2NIXTM=

> <s_epik_cmdline>
J2VwaWtfcHl0aG9uJywgJy1waCcsICc3LjAnLCAnLXRuJywgJzgnLCAnLW1hJywgJzIwMCcsICctbWV0YWxfYmluZGluZycsICctaW1hZScsICc8aW5maWxlLm1hZT4nLCAnLW9tYWUnLCAnPG91dGZpbGUubWFlPic=

> <r_lp_tautomer_probability>
1

> <r_epik_Ionization_Penalty>
6.03002

> <r_epik_Ionization_Penalty_Charging>
6.01728

> <r_epik_Ionization_Penalty_Neutral>
0.0127382

> <r_epik_State_Penalty>
6.02713

> <r_epik_Charging_Adjusted_Penalty>
12.0444

> <i_epik_Tot_Q>
-1

> <i_epik_Tot_abs_Q>
1

> <r_epik_Metal_State_Penalty>
1.99078

> <b_epik_Metal_Only>
1

> <s_lp_Force_Field>
OPLS_2005

> <r_lp_Energy>
20.4671

> <b_lp_Chiralities_Consistent>
1

> <s_lp_Variant>
AV-unprocessed.smi:837-9

> <Gold.Version>
5.8.1

> <Gold.Id.Protein>
6NUR|6NUR_protein|mol2

> <Gold.PLP.Fitness>
47.5290

> <Gold.PLP.PLP>
-35.2328

> <Gold.PLP.part.hbond>
-4.0000

> <Gold.PLP.part.metal>
0.0000

> <Gold.PLP.part.buried>
2.2289

> <Gold.PLP.part.nonpolar>
-33.3710

> <Gold.PLP.part.repulsive>
0.3328

> <Gold.PLP.ligand.clash>
0.0000

> <Gold.PLP.ligand.torsion>
0.6346

> <Gold.PLP.Chemscore.Hbond>
2.5146

> <Gold.PLP.Chemscore.CHOScore>
2.0000

> <Gold.PLP.Chemscore.Metal>
0.0000

> <Gold.Chemscore.Hbonds>
donor molecule, donor type, donor heavy atom, donor atom, acceptor molecule, acceptor atom, score
      L1  H    15    40       P1  7948  1.00
      P1  H  7989  7998       L1    25  0.53
      P1  H  7997  8008       L1    25  0.98
      L1  C    21    47       P1 10957  1.00
      L1  C    23    48       P1 10171  1.00

> <Gold.PLP.Chemscore.Internal.Correction>
0.0215

> <Gold.Rescore>
     Score         DG    S(hbond)    S(metal)    S(lipo)     H(rot)  DE(clash)    DE(int)     intcor
     13.03     -18.51       2.13        0.00      90.15       1.81       0.63       4.85       ----

> <Gold.Chemscore.Fitness>
13.0350

> <Gold.Chemscore.DG>
-18.5119

> <Gold.Chemscore.ZeroCoef>
-5.4800

> <Gold.Chemscore.Hbond>
2.1305

> <Gold.Chemscore.Metal>
0.0000

> <Gold.Chemscore.Lipo>
90.1467

> <Gold.Chemscore.Internal_Hbond>
0.0000

> <Gold.Chemscore.DEClash>
0.6250

> <Gold.Chemscore.DEInternal>
4.8519

> <Gold.Chemscore.Rot>
1.8090

> <Gold.Chemscore.Internal.Correction>
   9.000000E+99

> <Gold.Chemscore.Hbonds>
donor molecule, donor type, donor heavy atom, donor atom, acceptor molecule, acceptor atom, score
      L1  H    15    40       P1  7948  0.99
      P1  H  7989  7998       L1    25  0.17
      P1  H  7997  8008       L1    25  0.91

> <Gold.Chemscore.Hbond.Weighted>
-7.1157

> <Gold.Chemscore.Metal.Weighted>
-0.0000

> <Gold.Chemscore.Lipo.Weighted>
-10.5472

> <Gold.Chemscore.Internal_Hbond.Weighted>
0.0000

> <Gold.Chemscore.DEClash.Weighted>
0.6250

> <Gold.Chemscore.DEInternal.Weighted>
4.8519

> <Gold.Chemscore.Rot.Weighted>
4.6310

> <Gold.Chemscore.Internal.Correction.Weighted>
   9.000000E+99

> <Gold.Protein.RotatedTorsions>
[ 6907 6896 6895 6894 ] final -167.87 input  -60.11 | X-H torsion
[ 7974 7965 7964 7962 ] final  -39.18 input  175.53 | X-H torsion
[ 8008 7997 7996 7995 ] final  -20.78 input   59.86 | X-H torsion
[ 10167 10162 10161 10158 ] final  170.07 input  -65.29 | X-H torsion
[ 10718 10713 10712 10709 ] final -144.55 input   66.30 | X-H torsion
[ 10763 10752 10751 10750 ] final   61.93 input  -60.55 | X-H torsion
[ 11005 11000 10999 10996 ] final -152.81 input  -57.11 | X-H torsion

> <Gold.Protein.ActiveResidues>
 VAL166  LYS551  ARG553  GLY616  TRP617  ASP618  TYR619  PRO620  LYS621  CYS622 
 ASP623  PHE694  ASN695  SER759  ASP760  ASP761  ALA762  ILE779  LEU786  VAL792 
 PHE793  MET794  SER795  GLU796  ALA797  LYS798  CYS799  TRP800  GLU811  SER814 

> <Gold.Protein.RotatedAtoms>
  151.4664  133.3580  159.2816 H   0  0  0  0  0  0  0  0  0  0  0  0  # atno 6907 bound_to 6896
  150.8990  134.8403  159.7358 H   0  0  0  0  0  0  0  0  0  0  0  0  # atno 6908 bound_to 6896
  152.4868  134.4582  159.9648 H   0  0  0  0  0  0  0  0  0  0  0  0  # atno 6909 bound_to 6896
  146.0420  140.6596  142.9082 H   0  0  0  0  0  0  0  0  0  0  0  0  # atno 7974 bound_to 7965
  154.4748  140.2052  155.9906 H   0  0  0  0  0  0  0  0  0  0  0  0  # atno 8008 bound_to 7997
  156.1070  140.3235  155.7990 H   0  0  0  0  0  0  0  0  0  0  0  0  # atno 8009 bound_to 7997
  155.4700  140.0530  157.2971 H   0  0  0  0  0  0  0  0  0  0  0  0  # atno 8010 bound_to 7997
  139.5009  144.3636  151.9798 H   0  0  0  0  0  0  0  0  0  0  0  0  # atno 10167 bound_to 10162
  156.3715  130.7790  151.1971 H   0  0  0  0  0  0  0  0  0  0  0  0  # atno 10718 bound_to 10713
  152.9966  135.5483  154.6112 H   0  0  0  0  0  0  0  0  0  0  0  0  # atno 10763 bound_to 10752
  154.5432  135.2821  155.1078 H   0  0  0  0  0  0  0  0  0  0  0  0  # atno 10764 bound_to 10752
  154.2347  135.6427  153.5239 H   0  0  0  0  0  0  0  0  0  0  0  0  # atno 10765 bound_to 10752
  140.7149  134.3792  157.5192 H   0  0  0  0  0  0  0  0  0  0  0  0  # atno 11005 bound_to 11000
  144.7079  140.3925  143.7103 LP  0  0  0  0  0  0  0  0  0  0  0  0  # atno 17320 bound_to 7965
  145.6869  139.1630  143.2669 LP  0  0  0  0  0  0  0  0  0  0  0  0  # atno 17321 bound_to 7965
  140.3072  144.3579  150.6043 LP  0  0  0  0  0  0  0  0  0  0  0  0  # atno 17342 bound_to 10162
  140.5827  143.2172  151.7399 LP  0  0  0  0  0  0  0  0  0  0  0  0  # atno 17343 bound_to 10162
  157.7484  131.0371  150.4440 LP  0  0  0  0  0  0  0  0  0  0  0  0  # atno 17370 bound_to 10713
  156.4667  130.4044  149.6543 LP  0  0  0  0  0  0  0  0  0  0  0  0  # atno 17371 bound_to 10713
  139.8862  134.8915  156.2597 LP  0  0  0  0  0  0  0  0  0  0  0  0  # atno 17394 bound_to 11000
  141.0053  133.7127  156.1025 LP  0  0  0  0  0  0  0  0  0  0  0  0  # atno 17395 bound_to 11000

$$$$
