AV-unprocessed.smi:223|AV-procd|sdf|1704|dock5
  -GOLD-   2262020163D 1   1.00000     0.00000
 Structure written by MMmdl.
 47 50  0  0  0  0  0  0  0  0  1 V2000
  146.4780  142.1196  154.0222 C   0  0  0  0  0  0  0  0  0  0  0  0
  147.3991  140.9261  154.2992 C   0  0  1  0  0  0  0  0  0  0  0  0
  147.0316  139.7847  153.4450 C   0  0  0  0  0  0  0  0  0  0  0  0
  146.7412  138.8873  152.7747 N   0  0  0  0  0  0  0  0  0  0  0  0
  148.8824  141.3243  154.1469 C   0  0  0  0  0  0  0  0  0  0  0  0
  149.7286  140.9063  155.2650 N   0  0  0  0  0  0  0  0  0  0  0  0
  150.3582  139.7062  155.1436 C   0  0  0  0  0  0  0  0  0  0  0  0
  151.6618  139.6760  154.7558 N   0  0  0  0  0  0  0  0  0  0  0  0
  152.2980  138.5121  154.6019 C   0  0  0  0  0  0  0  0  0  0  0  0
  151.8301  137.2766  154.7818 N   0  0  0  0  0  0  0  0  0  0  0  0
  150.5274  137.2950  155.1837 C   0  0  0  0  0  0  0  0  0  0  0  0
  149.7219  138.4530  155.3832 C   0  0  0  0  0  0  0  0  0  0  0  0
  148.4482  138.0712  155.7892 N   0  0  0  0  0  0  0  0  0  0  0  0
  148.4955  136.7679  155.8186 C   0  0  0  0  0  0  0  0  0  0  0  0
  149.7107  136.2173  155.4818 N   0  0  0  0  0  0  0  0  0  0  0  0
  150.0431  134.8010  155.4305 C   0  0  0  0  0  0  0  0  0  0  0  0
  149.5855  133.9926  156.6720 C   0  0  1  0  0  0  0  0  0  0  0  0
  148.1731  133.8980  156.6764 O   0  0  0  0  0  0  0  0  0  0  0  0
  150.1802  132.5848  156.7587 C   0  0  0  0  0  0  0  0  0  0  0  0
  151.3245  132.7543  157.7478 C   0  0  0  0  0  0  0  0  0  0  0  0
  150.7734  133.6498  158.6960 O   0  0  0  0  0  0  0  0  0  0  0  0
  150.0614  134.6530  157.9823 C   0  0  0  0  0  0  0  0  0  0  0  0
  150.3897  141.9546  156.0390 C   0  0  0  0  0  0  0  0  0  0  0  0
  150.9907  141.6080  157.3831 C   0  0  0  0  0  0  0  0  0  0  0  0
  149.7319  142.4395  157.3095 C   0  0  0  0  0  0  0  0  0  0  0  0
  145.4318  141.8457  154.1611 H   0  0  0  0  0  0  0  0  0  0  0  0
  146.5951  142.4798  152.9997 H   0  0  0  0  0  0  0  0  0  0  0  0
  146.6950  142.9481  154.6971 H   0  0  0  0  0  0  0  0  0  0  0  0
  147.2162  140.6049  155.3246 H   0  0  0  0  0  0  0  0  0  0  0  0
  149.2758  140.8807  153.2315 H   0  0  0  0  0  0  0  0  0  0  0  0
  148.9733  142.4000  154.0046 H   0  0  0  0  0  0  0  0  0  0  0  0
  153.3292  138.5810  154.2881 H   0  0  0  0  0  0  0  0  0  0  0  0
  147.6397  136.1690  156.0946 H   0  0  0  0  0  0  0  0  0  0  0  0
  149.5980  134.3822  154.5269 H   0  0  0  0  0  0  0  0  0  0  0  0
  151.1231  134.7127  155.3050 H   0  0  0  0  0  0  0  0  0  0  0  0
  147.9206  133.2091  157.2717 H   0  0  0  0  0  0  0  0  0  0  0  0
  149.4571  131.8850  157.1813 H   0  0  0  0  0  0  0  0  0  0  0  0
  150.5098  132.1722  155.8069 H   0  0  0  0  0  0  0  0  0  0  0  0
  151.6285  131.8141  158.2083 H   0  0  0  0  0  0  0  0  0  0  0  0
  152.1951  133.2066  157.2704 H   0  0  0  0  0  0  0  0  0  0  0  0
  150.7436  135.4806  157.7824 H   0  0  0  0  0  0  0  0  0  0  0  0
  149.2455  135.0452  158.5909 H   0  0  0  0  0  0  0  0  0  0  0  0
  150.9251  142.7056  155.4623 H   0  0  0  0  0  0  0  0  0  0  0  0
  150.8952  140.5822  157.7342 H   0  0  0  0  0  0  0  0  0  0  0  0
  151.9129  142.1126  157.6633 H   0  0  0  0  0  0  0  0  0  0  0  0
  149.8140  143.4990  157.5436 H   0  0  0  0  0  0  0  0  0  0  0  0
  148.8005  141.9657  157.6137 H   0  0  0  0  0  0  0  0  0  0  0  0
  1  2  1  0  0  0  0
  1 26  1  0  0  0  0
  1 27  1  0  0  0  0
  1 28  1  0  0  0  0
  2  3  1  0  0  0  0
  2  5  1  0  0  0  0
  2 29  1  0  0  0  0
  3  4  3  0  0  0  0
  5  6  1  0  0  0  0
  5 30  1  0  0  0  0
  5 31  1  0  0  0  0
  6  7  1  0  0  0  0
  6 23  1  0  0  0  0
  7 12  1  0  0  0  0
  7  8  2  0  0  0  0
  8  9  1  0  0  0  0
  9 10  2  0  0  0  0
  9 32  1  0  0  0  0
 10 11  1  0  0  0  0
 11 15  1  0  0  0  0
 11 12  2  0  0  0  0
 12 13  1  0  0  0  0
 13 14  2  0  0  0  0
 14 15  1  0  0  0  0
 14 33  1  0  0  0  0
 15 16  1  0  0  0  0
 16 17  1  0  0  0  0
 16 34  1  0  0  0  0
 16 35  1  0  0  0  0
 17 22  1  0  0  0  0
 17 18  1  0  0  0  0
 17 19  1  0  0  0  0
 18 36  1  0  0  0  0
 19 20  1  0  0  0  0
 19 37  1  0  0  0  0
 19 38  1  0  0  0  0
 20 21  1  0  0  0  0
 20 39  1  0  0  0  0
 20 40  1  0  0  0  0
 21 22  1  0  0  0  0
 22 41  1  0  0  0  0
 22 42  1  0  0  0  0
 23 25  1  0  0  0  0
 23 24  1  0  0  0  0
 23 43  1  0  0  0  0
 24 25  1  0  0  0  0
 24 44  1  0  0  0  0
 24 45  1  0  0  0  0
 25 46  1  0  0  0  0
 25 47  1  0  0  0  0
M  END
> <s_m_source_file>
AV-unprocessed.smi

> <i_m_source_file_index>
223

> <i_lp_mmshare_version>
43012

> <i_f3d_flags>
0

> <s_epik_input>
TiNDW0NAQEhdKFtDSDNdKVtDSDJdTihbQ0hdMVtDSDJdW0NIMl0xKWMobltjSF1uMiljKGMyMyluW2NIXW4zW0NIMl1bQ0BAXTQoW09IXSlbQ0gyXVtDSDJdT1tDSDJdNA==

> <s_epik_cmdline>
J2VwaWtfcHl0aG9uJywgJy1waCcsICc3LjAnLCAnLXRuJywgJzgnLCAnLW1hJywgJzIwMCcsICctbWV0YWxfYmluZGluZycsICctaW1hZScsICc8aW5maWxlLm1hZT4nLCAnLW9tYWUnLCAnPG91dGZpbGUubWFlPic=

> <r_lp_tautomer_probability>
1

> <r_epik_Ionization_Penalty>
0.000756152

> <r_epik_Ionization_Penalty_Charging>
0

> <r_epik_Ionization_Penalty_Neutral>
0.000756152

> <r_epik_State_Penalty>
0.00038036

> <r_epik_Charging_Adjusted_Penalty>
0.00038036

> <i_epik_Tot_Q>
0

> <i_epik_Tot_abs_Q>
0

> <r_epik_Metal_State_Penalty>
-0

> <b_epik_Metal_Only>
0

> <s_lp_Force_Field>
OPLS_2005

> <r_lp_Energy>
37.1098

> <b_lp_Chiralities_Consistent>
1

> <s_lp_Variant>
AV-unprocessed.smi:223-2

> <Gold.Version>
5.8.1

> <Gold.Id.Protein>
6NUR|6NUR_protein|mol2

> <Gold.PLP.Fitness>
45.4664

> <Gold.PLP.PLP>
-40.4716

> <Gold.PLP.part.hbond>
-3.0000

> <Gold.PLP.part.metal>
0.0000

> <Gold.PLP.part.buried>
-3.7515

> <Gold.PLP.part.nonpolar>
-35.5041

> <Gold.PLP.part.repulsive>
0.7666

> <Gold.PLP.ligand.clash>
0.0000

> <Gold.PLP.ligand.torsion>
2.5904

> <Gold.PLP.Chemscore.Hbond>
2.9500

> <Gold.PLP.Chemscore.CHOScore>
0.0000

> <Gold.PLP.Chemscore.Metal>
0.0000

> <Gold.Chemscore.Hbonds>
donor molecule, donor type, donor heavy atom, donor atom, acceptor molecule, acceptor atom, score
      P1  H  7989  7998       L1     8  1.00
      P1  H 10752 10765       L1    10  0.99

> <Gold.PLP.Chemscore.Internal.Correction>
1.3256

> <Gold.Rescore>
     Score         DG    S(hbond)    S(metal)    S(lipo)     H(rot)  DE(clash)    DE(int)     intcor
     10.99     -14.02       2.47        0.00      61.93       2.72       0.22       2.81       ----

> <Gold.Chemscore.Fitness>
10.9943

> <Gold.Chemscore.DG>
-14.0163

> <Gold.Chemscore.ZeroCoef>
-5.4800

> <Gold.Chemscore.Hbond>
2.4691

> <Gold.Chemscore.Metal>
0.0000

> <Gold.Chemscore.Lipo>
61.9261

> <Gold.Chemscore.Internal_Hbond>
0.0000

> <Gold.Chemscore.DEClash>
0.2160

> <Gold.Chemscore.DEInternal>
2.8061

> <Gold.Chemscore.Rot>
2.7171

> <Gold.Chemscore.Internal.Correction>
   9.000000E+99

> <Gold.Chemscore.Hbonds>
donor molecule, donor type, donor heavy atom, donor atom, acceptor molecule, acceptor atom, score
      P1  H  7989  7998       L1     8  0.29
      P1  H 10752 10765       L1    10  0.90

> <Gold.Chemscore.Hbond.Weighted>
-8.2468

> <Gold.Chemscore.Metal.Weighted>
-0.0000

> <Gold.Chemscore.Lipo.Weighted>
-7.2454

> <Gold.Chemscore.Internal_Hbond.Weighted>
0.0000

> <Gold.Chemscore.DEClash.Weighted>
0.2160

> <Gold.Chemscore.DEInternal.Weighted>
2.8061

> <Gold.Chemscore.Rot.Weighted>
6.9558

> <Gold.Chemscore.Internal.Correction.Weighted>
   9.000000E+99

> <Gold.Protein.RotatedTorsions>
[ 6907 6896 6895 6894 ] final  -29.77 input  -60.11 | X-H torsion
[ 7974 7965 7964 7962 ] final  119.47 input  175.53 | X-H torsion
[ 8008 7997 7996 7995 ] final  179.66 input   59.86 | X-H torsion
[ 10167 10162 10161 10158 ] final   29.23 input  -65.29 | X-H torsion
[ 10718 10713 10712 10709 ] final   76.65 input   66.30 | X-H torsion
[ 10763 10752 10751 10750 ] final  170.96 input  -60.55 | X-H torsion
[ 11005 11000 10999 10996 ] final   85.32 input  -57.11 | X-H torsion

> <Gold.Protein.ActiveResidues>
 VAL166  LYS551  ARG553  GLY616  TRP617  ASP618  TYR619  PRO620  LYS621  CYS622 
 ASP623  PHE694  ASN695  SER759  ASP760  ASP761  ALA762  ILE779  LEU786  VAL792 
 PHE793  MET794  SER795  GLU796  ALA797  LYS798  CYS799  TRP800  GLU811  SER814 

> <Gold.Protein.RotatedAtoms>
  151.1147  135.0046  159.8510 H   0  0  0  0  0  0  0  0  0  0  0  0  # atno 6907 bound_to 6896
  152.5445  134.1794  159.8639 H   0  0  0  0  0  0  0  0  0  0  0  0  # atno 6908 bound_to 6896
  151.1847  133.4659  159.2627 H   0  0  0  0  0  0  0  0  0  0  0  0  # atno 6909 bound_to 6896
  145.1427  139.3258  143.4607 H   0  0  0  0  0  0  0  0  0  0  0  0  # atno 7974 bound_to 7965
  156.0409  140.1303  157.0157 H   0  0  0  0  0  0  0  0  0  0  0  0  # atno 8008 bound_to 7997
  154.4390  140.1030  156.6305 H   0  0  0  0  0  0  0  0  0  0  0  0  # atno 8009 bound_to 7997
  155.5668  140.3466  155.4507 H   0  0  0  0  0  0  0  0  0  0  0  0  # atno 8010 bound_to 7997
  140.4784  144.0655  150.6257 H   0  0  0  0  0  0  0  0  0  0  0  0  # atno 10167 bound_to 10162
  157.6681  130.9784  150.1528 H   0  0  0  0  0  0  0  0  0  0  0  0  # atno 10718 bound_to 10713
  154.4051  135.2755  155.2072 H   0  0  0  0  0  0  0  0  0  0  0  0  # atno 10763 bound_to 10752
  154.4081  135.6029  153.5940 H   0  0  0  0  0  0  0  0  0  0  0  0  # atno 10764 bound_to 10752
  152.9831  135.5943  154.4325 H   0  0  0  0  0  0  0  0  0  0  0  0  # atno 10765 bound_to 10752
  139.8975  134.8278  156.2566 H   0  0  0  0  0  0  0  0  0  0  0  0  # atno 11005 bound_to 11000
  146.3503  140.1471  142.8593 LP  0  0  0  0  0  0  0  0  0  0  0  0  # atno 17320 bound_to 7965
  145.0515  140.9021  143.4993 LP  0  0  0  0  0  0  0  0  0  0  0  0  # atno 17321 bound_to 7965
  140.3890  143.2762  152.0083 LP  0  0  0  0  0  0  0  0  0  0  0  0  # atno 17342 bound_to 10162
  139.4829  144.6093  151.7463 LP  0  0  0  0  0  0  0  0  0  0  0  0  # atno 17343 bound_to 10162
  156.2323  130.3683  149.8431 LP  0  0  0  0  0  0  0  0  0  0  0  0  # atno 17370 bound_to 10713
  156.6254  130.8644  151.3484 LP  0  0  0  0  0  0  0  0  0  0  0  0  # atno 17371 bound_to 10713
  141.0189  133.7052  156.1235 LP  0  0  0  0  0  0  0  0  0  0  0  0  # atno 17394 bound_to 11000
  140.7261  134.4305  157.5570 LP  0  0  0  0  0  0  0  0  0  0  0  0  # atno 17395 bound_to 11000

$$$$
