AV-unprocessed.smi:929|AV-procd|sdf|4195|dock7
  -GOLD-   22720 2103D 1   1.00000     0.00000
 Structure written by MMmdl.
 34 35  0  0  0  0  0  0  0  0  1 V2000
  152.7938  143.1900  162.0423 C   0  0  0  0  0  0  0  0  0  0  0  0
  152.1358  143.6975  160.7971 C   0  0  0  0  0  0  0  0  0  0  0  0
  151.7565  142.8798  159.6856 C   0  0  0  0  0  0  0  0  0  0  0  0
  151.1702  143.6040  158.6776 C   0  0  0  0  0  0  0  0  0  0  0  0
  150.6671  143.2363  157.4727 N   0  0  0  0  0  0  0  0  0  0  0  0
  150.5941  142.0004  156.9503 C   0  0  0  0  0  0  0  0  0  0  0  0
  151.0118  140.9741  157.4875 O   0  0  0  0  0  0  0  0  0  0  0  0
  149.9982  142.0165  155.7487 N   0  0  0  0  0  0  0  0  0  0  0  0
  149.7297  140.8387  154.9255 C   0  0  0  0  0  0  0  0  0  0  0  0
  150.8640  139.7970  154.9607 C   0  0  0  0  0  0  0  0  0  0  0  0
  152.0398  140.1670  154.9647 O   0  0  0  0  0  0  0  0  0  0  0  0
  150.5264  138.4916  154.9986 N   0  0  0  0  0  0  0  0  0  0  0  0
  149.1634  137.9619  155.0309 C   0  0  0  0  0  0  0  0  0  0  0  0
  149.3082  136.4685  155.3262 C   0  0  0  0  0  0  0  0  0  0  0  0
  150.6989  136.1209  154.8139 C   0  0  0  0  0  0  0  0  0  0  0  0
  151.5033  137.4046  155.0200 C   0  0  0  0  0  0  0  0  0  0  0  0
  151.1382  145.2583  159.1931 S   0  0  0  0  0  0  0  0  0  0  0  0
  151.8724  144.9815  160.6763 N   0  0  0  0  0  0  0  0  0  0  0  0
  152.7387  142.1031  162.1076 H   0  0  0  0  0  0  0  0  0  0  0  0
  152.3183  143.5952  162.9358 H   0  0  0  0  0  0  0  0  0  0  0  0
  153.8473  143.4686  162.0712 H   0  0  0  0  0  0  0  0  0  0  0  0
  151.9281  141.8140  159.6812 H   0  0  0  0  0  0  0  0  0  0  0  0
  150.2917  143.9862  156.9108 H   0  0  0  0  0  0  0  0  0  0  0  0
  149.6811  142.9037  155.3867 H   0  0  0  0  0  0  0  0  0  0  0  0
  148.8151  140.3740  155.2944 H   0  0  0  0  0  0  0  0  0  0  0  0
  149.5351  141.1475  153.8972 H   0  0  0  0  0  0  0  0  0  0  0  0
  148.5452  138.4513  155.7847 H   0  0  0  0  0  0  0  0  0  0  0  0
  148.6981  138.1127  154.0558 H   0  0  0  0  0  0  0  0  0  0  0  0
  149.2660  136.3034  156.4037 H   0  0  0  0  0  0  0  0  0  0  0  0
  148.5238  135.8678  154.8649 H   0  0  0  0  0  0  0  0  0  0  0  0
  151.1358  135.2610  155.3222 H   0  0  0  0  0  0  0  0  0  0  0  0
  150.6471  135.8890  153.7492 H   0  0  0  0  0  0  0  0  0  0  0  0
  152.2664  137.5220  154.2488 H   0  0  0  0  0  0  0  0  0  0  0  0
  152.0006  137.3944  155.9910 H   0  0  0  0  0  0  0  0  0  0  0  0
  1  2  1  0  0  0  0
  1 19  1  0  0  0  0
  1 20  1  0  0  0  0
  1 21  1  0  0  0  0
  2 18  2  0  0  0  0
  2  3  1  0  0  0  0
  3  4  2  0  0  0  0
  3 22  1  0  0  0  0
  4  5  1  0  0  0  0
  4 17  1  0  0  0  0
  5  6  1  0  0  0  0
  5 23  1  0  0  0  0
  6  7  2  0  0  0  0
  6  8  1  0  0  0  0
  8  9  1  0  0  0  0
  8 24  1  0  0  0  0
  9 10  1  0  0  0  0
  9 25  1  0  0  0  0
  9 26  1  0  0  0  0
 10 11  2  0  0  0  0
 10 12  1  0  0  0  0
 12 16  1  0  0  0  0
 12 13  1  0  0  0  0
 13 14  1  0  0  0  0
 13 27  1  0  0  0  0
 13 28  1  0  0  0  0
 14 15  1  0  0  0  0
 14 29  1  0  0  0  0
 14 30  1  0  0  0  0
 15 16  1  0  0  0  0
 15 31  1  0  0  0  0
 15 32  1  0  0  0  0
 16 33  1  0  0  0  0
 16 34  1  0  0  0  0
 17 18  1  0  0  0  0
M  END
> <s_m_source_file>
AV-unprocessed.smi

> <i_m_source_file_index>
929

> <i_lp_mmshare_version>
43012

> <i_f3d_flags>
0

> <s_epik_input>
W0NIM11jMVtjSF1jKHNuMSlbTkhdQyg9TylbTkhdW0NIMl1DKD1PKU4yW0NIMl1bQ0gyXVtDSDJdW0NIMl0y

> <s_epik_cmdline>
J2VwaWtfcHl0aG9uJywgJy1waCcsICc3LjAnLCAnLXRuJywgJzgnLCAnLW1hJywgJzIwMCcsICctbWV0YWxfYmluZGluZycsICctaW1hZScsICc8aW5maWxlLm1hZT4nLCAnLW9tYWUnLCAnPG91dGZpbGUubWFlPic=

> <r_lp_tautomer_probability>
1

> <r_epik_Ionization_Penalty>
3.14678e-05

> <r_epik_Ionization_Penalty_Charging>
0

> <r_epik_Ionization_Penalty_Neutral>
3.14678e-05

> <r_epik_State_Penalty>
-0

> <r_epik_Charging_Adjusted_Penalty>
0

> <i_epik_Tot_Q>
0

> <i_epik_Tot_abs_Q>
0

> <r_epik_Metal_State_Penalty>
-0

> <b_epik_Metal_Only>
0

> <s_lp_Force_Field>
OPLS_2005

> <r_lp_Energy>
23.5851

> <b_lp_Chiralities_Consistent>
1

> <s_lp_Variant>
AV-unprocessed.smi:929-1

> <Gold.Version>
5.8.1

> <Gold.Id.Protein>
6NUR|6NUR_protein|mol2

> <Gold.PLP.Fitness>
42.9307

> <Gold.PLP.PLP>
-36.9734

> <Gold.PLP.part.hbond>
-3.0000

> <Gold.PLP.part.metal>
0.0000

> <Gold.PLP.part.buried>
-4.6250

> <Gold.PLP.part.nonpolar>
-29.7617

> <Gold.PLP.part.repulsive>
0.3843

> <Gold.PLP.ligand.clash>
0.0000

> <Gold.PLP.ligand.torsion>
0.4426

> <Gold.PLP.Chemscore.Hbond>
2.2800

> <Gold.PLP.Chemscore.CHOScore>
0.0000

> <Gold.PLP.Chemscore.Metal>
0.0000

> <Gold.Chemscore.Hbonds>
donor molecule, donor type, donor heavy atom, donor atom, acceptor molecule, acceptor atom, score
      L1  H     5    23       P1  8028  1.00
      L1  H     8    24       P1  8028  1.00
      P1  H  7989  7998       L1    11  0.19

> <Gold.PLP.Chemscore.Internal.Correction>
0.0024

> <Gold.Rescore>
     Score         DG    S(hbond)    S(metal)    S(lipo)     H(rot)  DE(clash)    DE(int)     intcor
     17.54     -20.02       2.74        0.00      74.35       1.29       0.02       2.47       ----

> <Gold.Chemscore.Fitness>
17.5368

> <Gold.Chemscore.DG>
-20.0208

> <Gold.Chemscore.ZeroCoef>
-5.4800

> <Gold.Chemscore.Hbond>
2.7403

> <Gold.Chemscore.Metal>
0.0000

> <Gold.Chemscore.Lipo>
74.3465

> <Gold.Chemscore.Internal_Hbond>
0.0000

> <Gold.Chemscore.DEClash>
0.0178

> <Gold.Chemscore.DEInternal>
2.4662

> <Gold.Chemscore.Rot>
1.2931

> <Gold.Chemscore.Internal.Correction>
   9.000000E+99

> <Gold.Chemscore.Hbonds>
donor molecule, donor type, donor heavy atom, donor atom, acceptor molecule, acceptor atom, score
      L1  H     5    23       P1  8028  0.91
      L1  H     8    24       P1  8028  0.93

> <Gold.Chemscore.Hbond.Weighted>
-9.1527

> <Gold.Chemscore.Metal.Weighted>
-0.0000

> <Gold.Chemscore.Lipo.Weighted>
-8.6985

> <Gold.Chemscore.Internal_Hbond.Weighted>
0.0000

> <Gold.Chemscore.DEClash.Weighted>
0.0178

> <Gold.Chemscore.DEInternal.Weighted>
2.4662

> <Gold.Chemscore.Rot.Weighted>
3.3105

> <Gold.Chemscore.Internal.Correction.Weighted>
   9.000000E+99

> <Gold.Protein.RotatedTorsions>
[ 6907 6896 6895 6894 ] final  -19.35 input  -60.11 | X-H torsion
[ 7974 7965 7964 7962 ] final   54.87 input  175.53 | X-H torsion
[ 8008 7997 7996 7995 ] final  -10.47 input   59.86 | X-H torsion
[ 10167 10162 10161 10158 ] final -156.98 input  -65.29 | X-H torsion
[ 10718 10713 10712 10709 ] final   31.40 input   66.30 | X-H torsion
[ 10763 10752 10751 10750 ] final  -41.22 input  -60.55 | X-H torsion
[ 11005 11000 10999 10996 ] final  -10.92 input  -57.11 | X-H torsion

> <Gold.Protein.ActiveResidues>
 VAL166  LYS551  ARG553  GLY616  TRP617  ASP618  TYR619  PRO620  LYS621  CYS622 
 ASP623  PHE694  ASN695  SER759  ASP760  ASP761  ALA762  ILE779  LEU786  VAL792 
 PHE793  MET794  SER795  GLU796  ALA797  LYS798  CYS799  TRP800  GLU811  SER814 

> <Gold.Protein.RotatedAtoms>
  151.2644  135.0664  159.9110 H   0  0  0  0  0  0  0  0  0  0  0  0  # atno 6907 bound_to 6896
  152.5361  134.0197  159.7986 H   0  0  0  0  0  0  0  0  0  0  0  0  # atno 6908 bound_to 6896
  151.0425  133.5644  159.2681 H   0  0  0  0  0  0  0  0  0  0  0  0  # atno 6909 bound_to 6896
  145.9563  139.4018  143.0275 H   0  0  0  0  0  0  0  0  0  0  0  0  # atno 7974 bound_to 7965
  154.5551  140.2328  155.8423 H   0  0  0  0  0  0  0  0  0  0  0  0  # atno 8008 bound_to 7997
  156.1981  140.3060  155.9430 H   0  0  0  0  0  0  0  0  0  0  0  0  # atno 8009 bound_to 7997
  155.2995  140.0430  157.3019 H   0  0  0  0  0  0  0  0  0  0  0  0  # atno 8010 bound_to 7997
  139.6807  143.9586  152.2335 H   0  0  0  0  0  0  0  0  0  0  0  0  # atno 10167 bound_to 10162
  157.2719  130.7212  149.6509 H   0  0  0  0  0  0  0  0  0  0  0  0  # atno 10718 bound_to 10713
  153.9589  135.6742  153.4745 H   0  0  0  0  0  0  0  0  0  0  0  0  # atno 10763 bound_to 10752
  153.0848  135.4905  154.8571 H   0  0  0  0  0  0  0  0  0  0  0  0  # atno 10764 bound_to 10752
  154.7284  135.3132  154.8893 H   0  0  0  0  0  0  0  0  0  0  0  0  # atno 10765 bound_to 10752
  140.7498  133.8602  155.9035 H   0  0  0  0  0  0  0  0  0  0  0  0  # atno 11005 bound_to 11000
  145.8102  140.9729  143.0953 LP  0  0  0  0  0  0  0  0  0  0  0  0  # atno 17320 bound_to 7965
  144.6806  139.9911  143.7484 LP  0  0  0  0  0  0  0  0  0  0  0  0  # atno 17321 bound_to 7965
  139.9376  144.6702  150.8299 LP  0  0  0  0  0  0  0  0  0  0  0  0  # atno 17342 bound_to 10162
  140.7651  143.3266  151.2502 LP  0  0  0  0  0  0  0  0  0  0  0  0  # atno 17343 bound_to 10162
  155.9663  130.4365  150.5135 LP  0  0  0  0  0  0  0  0  0  0  0  0  # atno 17370 bound_to 10713
  157.3061  131.0655  151.2034 LP  0  0  0  0  0  0  0  0  0  0  0  0  # atno 17371 bound_to 10713
  140.9761  134.1467  157.4535 LP  0  0  0  0  0  0  0  0  0  0  0  0  # atno 17394 bound_to 11000
  139.8790  134.9995  156.5958 LP  0  0  0  0  0  0  0  0  0  0  0  0  # atno 17395 bound_to 11000

$$$$
