AV-unprocessed.smi:1434|AV-procd|sdf|5855|dock1
  -GOLD-   22720 5523D 1   1.00000     0.00000
 Structure written by MMmdl.
 44 45  0  0  0  0  0  0  0  0  3 V2000
  147.1656  134.6854  160.1034 C   0  0  0  0  0  0  0  0  0  0  0  0
  148.0416  136.2993  160.1308 S   0  0  0  0  0  0  0  0  0  0  0  0
  147.1386  137.2571  159.4726 O   0  0  0  0  0  0  0  0  0  0  0  0
  148.3728  136.5484  161.5432 O   0  0  0  0  0  0  0  0  0  0  0  0
  149.3438  135.9456  159.2306 N   0  5  0  0  0  0  0  0  0  0  0  0
  149.4818  136.5140  157.8972 C   0  0  2  0  0  0  0  0  0  0  0  0
  149.7609  135.4085  156.8439 C   0  0  0  0  0  0  0  0  0  0  0  0
  150.1714  135.9666  155.4548 C   0  0  0  0  0  0  0  0  0  0  0  0
  151.3129  137.0043  155.5458 C   0  0  0  0  0  0  0  0  0  0  0  0
  150.8873  138.0493  156.5043 N   0  0  0  0  0  0  0  0  0  0  0  0
  150.7104  139.3656  156.2129 C   0  0  0  0  0  0  0  0  0  0  0  0
  151.1019  139.8881  155.1683 O   0  0  0  0  0  0  0  0  0  0  0  0
  150.1128  140.0825  157.1790 N   0  0  0  0  0  0  0  0  0  0  0  0
  149.8603  141.5150  157.1075 C   0  0  0  0  0  0  0  0  0  0  0  0
  151.1728  142.3041  157.2007 C   0  0  0  0  0  0  0  0  0  0  0  0
  151.1521  143.3160  158.3302 C   0  0  0  0  0  0  0  0  0  0  0  0
  152.1255  143.3198  159.3528 C   0  0  0  0  0  0  0  0  0  0  0  0
  152.0536  144.2957  160.3688 C   0  0  0  0  0  0  0  0  0  0  0  0
  151.0124  145.2465  160.3403 C   0  0  0  0  0  0  0  0  0  0  0  0
  150.0681  145.1978  159.2946 C   0  0  0  0  0  0  0  0  0  0  0  0
  150.1707  144.2473  158.3396 N   0  3  0  0  0  0  0  0  0  0  0  0
  150.6694  137.5158  157.8692 C   0  0  0  0  0  0  0  0  0  0  0  0
  146.2448  134.7657  160.6798 H   0  0  0  0  0  0  0  0  0  0  0  0
  147.8036  133.9189  160.5429 H   0  0  0  0  0  0  0  0  0  0  0  0
  146.9288  134.4173  159.0743 H   0  0  0  0  0  0  0  0  0  0  0  0
  148.5838  137.0569  157.5990 H   0  0  0  0  0  0  0  0  0  0  0  0
  150.5646  134.7645  157.2045 H   0  0  0  0  0  0  0  0  0  0  0  0
  148.8872  134.7667  156.7295 H   0  0  0  0  0  0  0  0  0  0  0  0
  150.4762  135.1429  154.8088 H   0  0  0  0  0  0  0  0  0  0  0  0
  149.3073  136.4234  154.9683 H   0  0  0  0  0  0  0  0  0  0  0  0
  152.2198  136.5285  155.9216 H   0  0  0  0  0  0  0  0  0  0  0  0
  151.5639  137.3710  154.5508 H   0  0  0  0  0  0  0  0  0  0  0  0
  149.8312  139.6017  158.0211 H   0  0  0  0  0  0  0  0  0  0  0  0
  149.3539  141.7506  156.1699 H   0  0  0  0  0  0  0  0  0  0  0  0
  149.1878  141.7988  157.9185 H   0  0  0  0  0  0  0  0  0  0  0  0
  152.0111  141.6225  157.3511 H   0  0  0  0  0  0  0  0  0  0  0  0
  151.3627  142.8241  156.2605 H   0  0  0  0  0  0  0  0  0  0  0  0
  152.9198  142.5873  159.3592 H   0  0  0  0  0  0  0  0  0  0  0  0
  152.7893  144.3154  161.1595 H   0  0  0  0  0  0  0  0  0  0  0  0
  150.9402  146.0028  161.1083 H   0  0  0  0  0  0  0  0  0  0  0  0
  149.2410  145.8852  159.1931 H   0  0  0  0  0  0  0  0  0  0  0  0
  150.4912  138.3065  158.5998 H   0  0  0  0  0  0  0  0  0  0  0  0
  151.5859  137.0209  158.1952 H   0  0  0  0  0  0  0  0  0  0  0  0
  149.4773  144.2324  157.5912 H   0  0  0  0  0  0  0  0  0  0  0  0
  1  2  1  0  0  0  0
  1 23  1  0  0  0  0
  1 24  1  0  0  0  0
  1 25  1  0  0  0  0
  2  3  2  0  0  0  0
  2  4  2  0  0  0  0
  2  5  1  0  0  0  0
  5  6  1  0  0  0  0
  6 22  1  0  0  0  0
  6  7  1  0  0  0  0
  6 26  1  0  0  0  0
  7  8  1  0  0  0  0
  7 27  1  0  0  0  0
  7 28  1  0  0  0  0
  8  9  1  0  0  0  0
  8 29  1  0  0  0  0
  8 30  1  0  0  0  0
  9 10  1  0  0  0  0
  9 31  1  0  0  0  0
  9 32  1  0  0  0  0
 10 11  1  0  0  0  0
 10 22  1  0  0  0  0
 11 12  2  0  0  0  0
 11 13  1  0  0  0  0
 13 14  1  0  0  0  0
 13 33  1  0  0  0  0
 14 15  1  0  0  0  0
 14 34  1  0  0  0  0
 14 35  1  0  0  0  0
 15 16  1  0  0  0  0
 15 36  1  0  0  0  0
 15 37  1  0  0  0  0
 16 21  1  0  0  0  0
 16 17  2  0  0  0  0
 17 18  1  0  0  0  0
 17 38  1  0  0  0  0
 18 19  2  0  0  0  0
 18 39  1  0  0  0  0
 19 20  1  0  0  0  0
 19 40  1  0  0  0  0
 20 21  2  0  0  0  0
 20 41  1  0  0  0  0
 21 44  1  0  0  0  0
 22 42  1  0  0  0  0
 22 43  1  0  0  0  0
M  CHG  1   5  -1
M  CHG  1  21   1
M  END
> <s_m_source_file>
AV-unprocessed.smi

> <i_m_source_file_index>
1434

> <i_lp_mmshare_version>
43012

> <i_f3d_flags>
0

> <s_epik_input>
W0NIM11TKD1PKSg9TylbTkhdW0NAQEhdMVtDSDJdW0NIMl1bQ0gyXU4oW0NIMl0xKUMoPU8pW05IXVtDSDJdW0NIMl1jMltjSF1bY0hdW2NIXVtjSF1uMg==

> <s_epik_cmdline>
J2VwaWtfcHl0aG9uJywgJy1waCcsICc3LjAnLCAnLXRuJywgJzgnLCAnLW1hJywgJzIwMCcsICctbWV0YWxfYmluZGluZycsICctaW1hZScsICc8aW5maWxlLm1hZT4nLCAnLW9tYWUnLCAnPG91dGZpbGUubWFlPic=

> <r_epik_Ionization_Penalty>
8.07847

> <r_epik_Ionization_Penalty_Charging>
8.0784

> <r_epik_Ionization_Penalty_Neutral>
6.25603e-05

> <r_epik_State_Penalty>
8.17261

> <r_epik_Charging_Adjusted_Penalty>
16.251

> <i_epik_Tot_Q>
0

> <i_epik_Tot_abs_Q>
2

> <r_epik_Metal_State_Penalty>
4.14042

> <b_epik_Metal_Only>
1

> <s_lp_Force_Field>
OPLS_2005

> <r_lp_Energy>
29.5402

> <b_lp_Chiralities_Consistent>
1

> <s_lp_Variant>
AV-unprocessed.smi:1434-7

> <Gold.Version>
5.8.1

> <Gold.Id.Protein>
6NUR|6NUR_protein|mol2

> <Gold.PLP.Fitness>
51.7153

> <Gold.PLP.PLP>
-35.3832

> <Gold.PLP.part.hbond>
-5.5016

> <Gold.PLP.part.metal>
0.0000

> <Gold.PLP.part.buried>
-5.9960

> <Gold.PLP.part.nonpolar>
-24.8890

> <Gold.PLP.part.repulsive>
0.1381

> <Gold.PLP.ligand.clash>
1.2488

> <Gold.PLP.ligand.torsion>
1.0486

> <Gold.PLP.Chemscore.Hbond>
6.1960

> <Gold.PLP.Chemscore.CHOScore>
0.0000

> <Gold.PLP.Chemscore.Metal>
0.0000

> <Gold.Chemscore.Hbonds>
donor molecule, donor type, donor heavy atom, donor atom, acceptor molecule, acceptor atom, score
      L1  H    21    44       P1  8028  1.44
      P1  H  6896  6909       L1     5  1.53
      P1  H  6931  6943       L1     4  1.00
      P1  H  6934  6947       L1     3  0.36
      P1  H  7989  7998       L1    12  1.00

> <Gold.PLP.Chemscore.Internal.Correction>
1.0903

> <Gold.Rescore>
     Score         DG    S(hbond)    S(metal)    S(lipo)     H(rot)  DE(clash)    DE(int)     intcor
     23.14     -25.54       4.02        0.00      95.31       1.77       1.22       1.18       ----

> <Gold.Chemscore.Fitness>
23.1383

> <Gold.Chemscore.DG>
-25.5393

> <Gold.Chemscore.ZeroCoef>
-5.4800

> <Gold.Chemscore.Hbond>
4.0209

> <Gold.Chemscore.Metal>
0.0000

> <Gold.Chemscore.Lipo>
95.3052

> <Gold.Chemscore.Internal_Hbond>
0.0000

> <Gold.Chemscore.DEClash>
1.2168

> <Gold.Chemscore.DEInternal>
1.1843

> <Gold.Chemscore.Rot>
1.7661

> <Gold.Chemscore.Internal.Correction>
   9.000000E+99

> <Gold.Chemscore.Hbonds>
donor molecule, donor type, donor heavy atom, donor atom, acceptor molecule, acceptor atom, score
      L1  H    21    44       P1  8028  0.08
      P1  H  6896  6909       L1     5  0.54
      P1  H  6931  6943       L1     4  0.91
      P1  H  6934  6947       L1     3  0.14
      P1  H  7989  7998       L1    12  0.95

> <Gold.Chemscore.Hbond.Weighted>
-13.4298

> <Gold.Chemscore.Metal.Weighted>
-0.0000

> <Gold.Chemscore.Lipo.Weighted>
-11.1507

> <Gold.Chemscore.Internal_Hbond.Weighted>
0.0000

> <Gold.Chemscore.DEClash.Weighted>
1.2168

> <Gold.Chemscore.DEInternal.Weighted>
1.1843

> <Gold.Chemscore.Rot.Weighted>
4.5211

> <Gold.Chemscore.Internal.Correction.Weighted>
   9.000000E+99

> <Gold.Protein.RotatedTorsions>
[ 6907 6896 6895 6894 ] final   34.89 input  -60.11 | X-H torsion
[ 7974 7965 7964 7962 ] final  -47.20 input  175.53 | X-H torsion
[ 8008 7997 7996 7995 ] final  153.25 input   59.86 | X-H torsion
[ 10167 10162 10161 10158 ] final   61.48 input  -65.29 | X-H torsion
[ 10718 10713 10712 10709 ] final   90.68 input   66.30 | X-H torsion
[ 10763 10752 10751 10750 ] final   74.37 input  -60.55 | X-H torsion
[ 11005 11000 10999 10996 ] final   76.95 input  -57.11 | X-H torsion

> <Gold.Protein.ActiveResidues>
 VAL166  LYS551  ARG553  GLY616  TRP617  ASP618  TYR619  PRO620  LYS621  CYS622 
 ASP623  PHE694  ASN695  SER759  ASP760  ASP761  ALA762  ILE779  LEU786  VAL792 
 PHE793  MET794  SER795  GLU796  ALA797  LYS798  CYS799  TRP800  GLU811  SER814 

> <Gold.Protein.RotatedAtoms>
  152.1087  134.9290  160.0567 H   0  0  0  0  0  0  0  0  0  0  0  0  # atno 6907 bound_to 6896
  152.0476  133.4000  159.4371 H   0  0  0  0  0  0  0  0  0  0  0  0  # atno 6908 bound_to 6896
  150.6842  134.3265  159.4852 H   0  0  0  0  0  0  0  0  0  0  0  0  # atno 6909 bound_to 6896
  145.9641  140.7449  142.9443 H   0  0  0  0  0  0  0  0  0  0  0  0  # atno 7974 bound_to 7965
  156.2590  140.1999  156.6461 H   0  0  0  0  0  0  0  0  0  0  0  0  # atno 8008 bound_to 7997
  154.6572  140.0565  157.0047 H   0  0  0  0  0  0  0  0  0  0  0  0  # atno 8009 bound_to 7997
  155.1329  140.3235  155.4472 H   0  0  0  0  0  0  0  0  0  0  0  0  # atno 8010 bound_to 7997
  140.1543  144.4432  150.6743 H   0  0  0  0  0  0  0  0  0  0  0  0  # atno 10167 bound_to 10162
  157.6959  131.0380  150.3615 H   0  0  0  0  0  0  0  0  0  0  0  0  # atno 10718 bound_to 10713
  153.0582  135.5028  154.8031 H   0  0  0  0  0  0  0  0  0  0  0  0  # atno 10763 bound_to 10752
  154.6841  135.2973  154.9574 H   0  0  0  0  0  0  0  0  0  0  0  0  # atno 10764 bound_to 10752
  154.0351  135.6724  153.4837 H   0  0  0  0  0  0  0  0  0  0  0  0  # atno 10765 bound_to 10752
  139.9275  134.7643  156.1461 H   0  0  0  0  0  0  0  0  0  0  0  0  # atno 11005 bound_to 11000
  144.6821  140.2640  143.7315 LP  0  0  0  0  0  0  0  0  0  0  0  0  # atno 17320 bound_to 7965
  145.7998  139.1960  143.2054 LP  0  0  0  0  0  0  0  0  0  0  0  0  # atno 17321 bound_to 7965
  140.6683  143.2276  151.5688 LP  0  0  0  0  0  0  0  0  0  0  0  0  # atno 17342 bound_to 10162
  139.5411  144.2645  152.1352 LP  0  0  0  0  0  0  0  0  0  0  0  0  # atno 17343 bound_to 10162
  156.4051  130.3923  149.6932 LP  0  0  0  0  0  0  0  0  0  0  0  0  # atno 17370 bound_to 10713
  156.4235  130.7780  151.2798 LP  0  0  0  0  0  0  0  0  0  0  0  0  # atno 17371 bound_to 10713
  141.0843  133.6741  156.2403 LP  0  0  0  0  0  0  0  0  0  0  0  0  # atno 17394 bound_to 11000
  140.6294  134.5280  157.5557 LP  0  0  0  0  0  0  0  0  0  0  0  0  # atno 17395 bound_to 11000

$$$$
