AV-unprocessed.smi:55|AV-procd|sdf|567|dock5
  -GOLD-   2262016473D 1   1.00000     0.00000
 Structure written by MMmdl.
 31 32  0  0  0  0  0  0  0  0  1 V2000
  150.4781  144.9362  159.2977 C   0  0  0  0  0  0  0  0  0  0  0  0
  150.9718  143.5881  158.7993 C   0  0  0  0  0  0  0  0  0  0  0  0
  150.2122  142.7781  158.0184 C   0  0  0  0  0  0  0  0  0  0  0  0
  150.6369  141.5450  157.5435 N   0  0  0  0  0  0  0  0  0  0  0  0
  149.7432  140.6941  156.6700 C   0  0  2  0  0  0  0  0  0  0  0  0
  150.2567  140.6705  155.2292 C   0  0  0  0  0  0  0  0  0  0  0  0
  148.9620  140.7083  154.4445 C   0  0  2  0  0  0  0  0  0  0  0  0
  149.1733  141.2587  153.1606 O   0  0  0  0  0  0  0  0  0  0  0  0
  148.0815  141.5971  155.3286 C   0  0  1  0  0  0  0  0  0  0  0  0
  146.5700  141.3826  155.1549 C   0  0  0  0  0  0  0  0  0  0  0  0
  146.2038  141.5074  153.7973 O   0  0  0  0  0  0  0  0  0  0  0  0
  148.4587  141.2462  156.6587 O   0  0  0  0  0  0  0  0  0  0  0  0
  151.9362  141.0944  157.8567 C   0  0  0  0  0  0  0  0  0  0  0  0
  152.3952  140.0288  157.4475 O   0  0  0  0  0  0  0  0  0  0  0  0
  152.7150  141.9230  158.6625 N   0  0  0  0  0  0  0  0  0  0  0  0
  152.3228  143.1622  159.1748 C   0  0  0  0  0  0  0  0  0  0  0  0
  153.1012  143.8014  159.8803 O   0  0  0  0  0  0  0  0  0  0  0  0
  149.6693  139.7032  157.1206 H   0  0  0  0  0  0  0  0  0  0  0  0
  148.5431  139.7043  154.3633 H   0  0  0  0  0  0  0  0  0  0  0  0
  148.3357  142.6479  155.1796 H   0  0  0  0  0  0  0  0  0  0  0  0
  153.6448  141.6029  158.8917 H   0  0  0  0  0  0  0  0  0  0  0  0
  149.4581  145.1396  158.9707 H   0  0  0  0  0  0  0  0  0  0  0  0
  151.1158  145.7372  158.9219 H   0  0  0  0  0  0  0  0  0  0  0  0
  150.4924  144.9695  160.3876 H   0  0  0  0  0  0  0  0  0  0  0  0
  149.2248  143.1194  157.7476 H   0  0  0  0  0  0  0  0  0  0  0  0
  150.8538  141.5639  155.0365 H   0  0  0  0  0  0  0  0  0  0  0  0
  150.8661  139.7866  155.0390 H   0  0  0  0  0  0  0  0  0  0  0  0
  149.1586  140.5560  152.5282 H   0  0  0  0  0  0  0  0  0  0  0  0
  146.2665  140.4043  155.5289 H   0  0  0  0  0  0  0  0  0  0  0  0
  146.0188  142.1303  155.7255 H   0  0  0  0  0  0  0  0  0  0  0  0
  145.3929  141.0414  153.6609 H   0  0  0  0  0  0  0  0  0  0  0  0
  1  2  1  0  0  0  0
  1 22  1  0  0  0  0
  1 23  1  0  0  0  0
  1 24  1  0  0  0  0
  2 16  1  0  0  0  0
  2  3  2  0  0  0  0
  3  4  1  0  0  0  0
  3 25  1  0  0  0  0
  4  5  1  0  0  0  0
  4 13  1  0  0  0  0
  5 18  1  0  0  0  0
  5 12  1  0  0  0  0
  5  6  1  0  0  0  0
  6  7  1  0  0  0  0
  6 26  1  0  0  0  0
  6 27  1  0  0  0  0
  7 19  1  0  0  0  0
  7  8  1  0  0  0  0
  7  9  1  0  0  0  0
  8 28  1  0  0  0  0
  9 20  1  0  0  0  0
  9 10  1  0  0  0  0
  9 12  1  0  0  0  0
 10 11  1  0  0  0  0
 10 29  1  0  0  0  0
 10 30  1  0  0  0  0
 11 31  1  0  0  0  0
 13 14  2  0  0  0  0
 13 15  1  0  0  0  0
 15 21  1  0  0  0  0
 15 16  1  0  0  0  0
 16 17  2  0  0  0  0
M  END
> <s_m_source_file>
AV-unprocessed.smi

> <i_m_source_file_index>
55

> <i_lp_mmshare_version>
43012

> <i_f3d_flags>
0

> <s_epik_input>
Tz1jMVtuSF1jKD1PKW4oW2NIXWMxW0NIM10pW0NAQEhdMltDSDJdW0NAQEhdKFtPSF0pW0NAQEhdKE8yKVtDSDJdW09IXQ==

> <s_epik_cmdline>
J2VwaWtfcHl0aG9uJywgJy1waCcsICc3LjAnLCAnLXRuJywgJzgnLCAnLW1hJywgJzIwMCcsICctbWV0YWxfYmluZGluZycsICctaW1hZScsICc8aW5maWxlLm1hZT4nLCAnLW9tYWUnLCAnPG91dGZpbGUubWFlPic=

> <r_lp_tautomer_probability>
0.999537

> <r_epik_Ionization_Penalty>
0.00121888

> <r_epik_Ionization_Penalty_Charging>
0.00121876

> <r_epik_Ionization_Penalty_Neutral>
1.19946e-07

> <r_epik_State_Penalty>
0.000805124

> <r_epik_Charging_Adjusted_Penalty>
0.00202389

> <i_epik_Tot_Q>
0

> <i_epik_Tot_abs_Q>
0

> <r_epik_Metal_State_Penalty>
0.662472

> <b_epik_Metal_Only>
0

> <s_epik_Chemistry_Notes>
This compound contains an acetal/aminal-like group ( X-CH(R)-Y where X, Y are N, S, or O) that may be acid/base labile, releasing an aldehyde.

> <s_lp_Force_Field>
OPLS_2005

> <r_lp_Energy>
24.0727

> <b_lp_Chiralities_Consistent>
1

> <s_lp_Variant>
AV-unprocessed.smi:55-7

> <Gold.Version>
5.8.1

> <Gold.Id.Protein>
6NUR|6NUR_protein|mol2

> <Gold.PLP.Fitness>
39.1576

> <Gold.PLP.PLP>
-27.7262

> <Gold.PLP.part.hbond>
-4.2198

> <Gold.PLP.part.metal>
0.0000

> <Gold.PLP.part.buried>
-1.1156

> <Gold.PLP.part.nonpolar>
-21.4057

> <Gold.PLP.part.repulsive>
0.1651

> <Gold.PLP.ligand.clash>
0.0000

> <Gold.PLP.ligand.torsion>
0.2173

> <Gold.PLP.Chemscore.Hbond>
3.3657

> <Gold.PLP.Chemscore.CHOScore>
0.5870

> <Gold.PLP.Chemscore.Metal>
0.0000

> <Gold.Chemscore.Hbonds>
donor molecule, donor type, donor heavy atom, donor atom, acceptor molecule, acceptor atom, score
      L1  H     8    28       P1  7957  0.94
      L1  H    11    31       P1 10175  0.71
      P1  H  7997  8009       L1    14  0.75
      P1  H  8011  8017       L1     8  1.00
      L1  C     3    25       P1  8028  0.60

> <Gold.PLP.Chemscore.Internal.Correction>
0.0077

> <Gold.Rescore>
     Score         DG    S(hbond)    S(metal)    S(lipo)     H(rot)  DE(clash)    DE(int)     intcor
     13.67     -13.94       2.95        0.00      47.57       2.73       0.09       0.17       ----

> <Gold.Chemscore.Fitness>
13.6708

> <Gold.Chemscore.DG>
-13.9358

> <Gold.Chemscore.ZeroCoef>
-5.4800

> <Gold.Chemscore.Hbond>
2.9543

> <Gold.Chemscore.Metal>
0.0000

> <Gold.Chemscore.Lipo>
47.5681

> <Gold.Chemscore.Internal_Hbond>
0.0000

> <Gold.Chemscore.DEClash>
0.0920

> <Gold.Chemscore.DEInternal>
0.1730

> <Gold.Chemscore.Rot>
2.7253

> <Gold.Chemscore.Internal.Correction>
   9.000000E+99

> <Gold.Chemscore.Hbonds>
donor molecule, donor type, donor heavy atom, donor atom, acceptor molecule, acceptor atom, score
      L1  H     8    28       P1  7957  0.84
      L1  H    11    31       P1 10175  0.48
      P1  H  7997  8009       L1    14  0.68
      P1  H  8011  8017       L1     8  0.28

> <Gold.Chemscore.Hbond.Weighted>
-9.8672

> <Gold.Chemscore.Metal.Weighted>
-0.0000

> <Gold.Chemscore.Lipo.Weighted>
-5.5655

> <Gold.Chemscore.Internal_Hbond.Weighted>
0.0000

> <Gold.Chemscore.DEClash.Weighted>
0.0920

> <Gold.Chemscore.DEInternal.Weighted>
0.1730

> <Gold.Chemscore.Rot.Weighted>
6.9769

> <Gold.Chemscore.Internal.Correction.Weighted>
   9.000000E+99

> <Gold.Protein.RotatedTorsions>
[ 6907 6896 6895 6894 ] final  -95.18 input  -60.11 | X-H torsion
[ 7974 7965 7964 7962 ] final  -80.31 input  175.53 | X-H torsion
[ 8008 7997 7996 7995 ] final  176.92 input   59.86 | X-H torsion
[ 10167 10162 10161 10158 ] final   11.00 input  -65.29 | X-H torsion
[ 10718 10713 10712 10709 ] final  143.65 input   66.30 | X-H torsion
[ 10763 10752 10751 10750 ] final   52.98 input  -60.55 | X-H torsion
[ 11005 11000 10999 10996 ] final   86.79 input  -57.11 | X-H torsion

> <Gold.Protein.ActiveResidues>
 VAL166  LYS551  ARG553  GLY616  TRP617  ASP618  TYR619  PRO620  LYS621  CYS622 
 ASP623  PHE694  ASN695  SER759  ASP760  ASP761  ALA762  ILE779  LEU786  VAL792 
 PHE793  MET794  SER795  GLU796  ALA797  LYS798  CYS799  TRP800  GLU811  SER814 

> <Gold.Protein.RotatedAtoms>
  150.6958  134.1697  159.4207 H   0  0  0  0  0  0  0  0  0  0  0  0  # atno 6907 bound_to 6896
  151.9675  135.0091  160.0560 H   0  0  0  0  0  0  0  0  0  0  0  0  # atno 6908 bound_to 6896
  152.1871  133.4712  159.5025 H   0  0  0  0  0  0  0  0  0  0  0  0  # atno 6909 bound_to 6896
  145.5617  140.9481  143.1444 H   0  0  0  0  0  0  0  0  0  0  0  0  # atno 7974 bound_to 7965
  156.0712  140.1371  156.9826 H   0  0  0  0  0  0  0  0  0  0  0  0  # atno 8008 bound_to 7997
  154.4533  140.0971  156.6734 H   0  0  0  0  0  0  0  0  0  0  0  0  # atno 8009 bound_to 7997
  155.5224  140.3456  155.4412 H   0  0  0  0  0  0  0  0  0  0  0  0  # atno 8010 bound_to 7997
  140.6159  143.8308  150.7118 H   0  0  0  0  0  0  0  0  0  0  0  0  # atno 10167 bound_to 10162
  157.3664  131.0972  151.0868 H   0  0  0  0  0  0  0  0  0  0  0  0  # atno 10718 bound_to 10713
  152.9792  135.5794  154.4666 H   0  0  0  0  0  0  0  0  0  0  0  0  # atno 10763 bound_to 10752
  154.4235  135.2772  155.1962 H   0  0  0  0  0  0  0  0  0  0  0  0  # atno 10764 bound_to 10752
  154.3701  135.6170  153.5789 H   0  0  0  0  0  0  0  0  0  0  0  0  # atno 10765 bound_to 10752
  139.8935  134.8379  156.2770 H   0  0  0  0  0  0  0  0  0  0  0  0  # atno 11005 bound_to 11000
  144.7480  139.7269  143.7284 LP  0  0  0  0  0  0  0  0  0  0  0  0  # atno 17320 bound_to 7965
  146.1847  139.5056  142.9844 LP  0  0  0  0  0  0  0  0  0  0  0  0  # atno 17321 bound_to 7965
  140.1887  143.4054  152.1879 LP  0  0  0  0  0  0  0  0  0  0  0  0  # atno 17342 bound_to 10162
  139.5398  144.7246  151.4770 LP  0  0  0  0  0  0  0  0  0  0  0  0  # atno 17343 bound_to 10162
  157.1989  130.6385  149.5731 LP  0  0  0  0  0  0  0  0  0  0  0  0  # atno 17370 bound_to 10713
  155.9747  130.4697  150.6406 LP  0  0  0  0  0  0  0  0  0  0  0  0  # atno 17371 bound_to 10713
  141.0064  133.7121  156.1041 LP  0  0  0  0  0  0  0  0  0  0  0  0  # atno 17394 bound_to 11000
  140.7428  134.4131  157.5552 LP  0  0  0  0  0  0  0  0  0  0  0  0  # atno 17395 bound_to 11000

$$$$
