AV-unprocessed.smi:927|AV-procd|sdf|4188|dock1
  -GOLD-   22720 2 93D 1   1.00000     0.00000
 Structure written by MMmdl.
 21 21  0  0  0  0  0  0  0  0  2 V2000
  146.1016  136.6701  150.8420 N   0  3  0  0  0  0  0  0  0  0  0  0
  145.3120  136.1493  151.9722 C   0  0  0  0  0  0  0  0  0  0  0  0
  145.7403  134.7226  152.3601 C   0  0  1  0  0  0  0  0  0  0  0  0
  145.2956  134.4560  153.6762 O   0  0  0  0  0  0  0  0  0  0  0  0
  145.2086  133.6995  151.3686 C   0  0  0  0  0  0  0  0  0  0  0  0
  143.8230  133.4650  151.2326 C   0  0  0  0  0  0  0  0  0  0  0  0
  143.3902  132.5078  150.2932 C   0  0  0  0  0  0  0  0  0  0  0  0
  144.2351  131.8026  149.5110 N   0  0  0  0  0  0  0  0  0  0  0  0
  145.5589  132.0323  149.6431 C   0  0  0  0  0  0  0  0  0  0  0  0
  146.0953  132.9667  150.5518 C   0  0  0  0  0  0  0  0  0  0  0  0
  147.0371  136.8872  151.1543 H   0  0  0  0  0  0  0  0  0  0  0  0
  145.6637  137.5046  150.4789 H   0  0  0  0  0  0  0  0  0  0  0  0
  145.4130  136.8281  152.8200 H   0  0  0  0  0  0  0  0  0  0  0  0
  144.2611  136.1578  151.6806 H   0  0  0  0  0  0  0  0  0  0  0  0
  146.8296  134.6622  152.3667 H   0  0  0  0  0  0  0  0  0  0  0  0
  145.7675  135.0189  154.2718 H   0  0  0  0  0  0  0  0  0  0  0  0
  143.1039  134.0043  151.8318 H   0  0  0  0  0  0  0  0  0  0  0  0
  142.3371  132.3047  150.1658 H   0  0  0  0  0  0  0  0  0  0  0  0
  146.2111  131.4552  149.0044 H   0  0  0  0  0  0  0  0  0  0  0  0
  147.1637  133.1124  150.6158 H   0  0  0  0  0  0  0  0  0  0  0  0
  146.1423  135.9692  150.1157 H   0  0  0  0  0  0  0  0  0  0  0  0
  1  2  1  0  0  0  0
  1 11  1  0  0  0  0
  1 12  1  0  0  0  0
  1 21  1  0  0  0  0
  2  3  1  0  0  0  0
  2 13  1  0  0  0  0
  2 14  1  0  0  0  0
  3  4  1  0  0  0  0
  3  5  1  0  0  0  0
  3 15  1  0  0  0  0
  4 16  1  0  0  0  0
  5 10  1  0  0  0  0
  5  6  2  0  0  0  0
  6  7  1  0  0  0  0
  6 17  1  0  0  0  0
  7  8  2  0  0  0  0
  7 18  1  0  0  0  0
  8  9  1  0  0  0  0
  9 10  2  0  0  0  0
  9 19  1  0  0  0  0
 10 20  1  0  0  0  0
M  CHG  1   1   1
M  END
> <s_m_source_file>
AV-unprocessed.smi

> <i_m_source_file_index>
927

> <i_lp_mmshare_version>
43012

> <i_f3d_flags>
0

> <s_epik_input>
W05IMl1bQ0gyXVtDQEhdKFtPSF0pYzFbY0hdW2NIXW5bY0hdW2NIXTE=

> <s_epik_cmdline>
J2VwaWtfcHl0aG9uJywgJy1waCcsICc3LjAnLCAnLXRuJywgJzgnLCAnLW1hJywgJzIwMCcsICctbWV0YWxfYmluZGluZycsICctaW1hZScsICc8aW5maWxlLm1hZT4nLCAnLW9tYWUnLCAnPG91dGZpbGUubWFlPic=

> <r_epik_Ionization_Penalty>
0.0159363

> <r_epik_Ionization_Penalty_Charging>
0.0140431

> <r_epik_Ionization_Penalty_Neutral>
0.00189321

> <r_epik_State_Penalty>
0.0109628

> <r_epik_Charging_Adjusted_Penalty>
0.0250059

> <i_epik_Tot_Q>
1

> <i_epik_Tot_abs_Q>
1

> <r_epik_Metal_State_Penalty>
0.0113463

> <b_epik_Metal_Only>
0

> <s_lp_Force_Field>
OPLS_2005

> <r_lp_Energy>
4.52461

> <b_lp_Chiralities_Consistent>
1

> <s_lp_Variant>
AV-unprocessed.smi:927-2

> <Gold.Version>
5.8.1

> <Gold.Id.Protein>
6NUR|6NUR_protein|mol2

> <Gold.PLP.Fitness>
32.8736

> <Gold.PLP.PLP>
-19.3468

> <Gold.PLP.part.hbond>
-2.5481

> <Gold.PLP.part.metal>
0.0000

> <Gold.PLP.part.buried>
-2.9293

> <Gold.PLP.part.nonpolar>
-15.7158

> <Gold.PLP.part.repulsive>
0.3019

> <Gold.PLP.ligand.clash>
0.0000

> <Gold.PLP.ligand.torsion>
0.1992

> <Gold.PLP.Chemscore.Hbond>
3.0345

> <Gold.PLP.Chemscore.CHOScore>
1.6051

> <Gold.PLP.Chemscore.Metal>
0.0000

> <Gold.Chemscore.Hbonds>
donor molecule, donor type, donor heavy atom, donor atom, acceptor molecule, acceptor atom, score
      L1  H     1    11       P1  7948  1.64
      L1  H     1    12       P1 10171  0.60
      P1  H 10785 10796       L1     8  0.51
      L1  C     7    18       P1 10186  0.60
      L1  C     7    18       P1 10952  0.99

> <Gold.PLP.Chemscore.Internal.Correction>
0.0065

> <Gold.Rescore>
     Score         DG    S(hbond)    S(metal)    S(lipo)     H(rot)  DE(clash)    DE(int)     intcor
     13.15     -13.37       2.04        0.00      50.72       1.90       0.03       0.19       ----

> <Gold.Chemscore.Fitness>
13.1495

> <Gold.Chemscore.DG>
-13.3697

> <Gold.Chemscore.ZeroCoef>
-5.4800

> <Gold.Chemscore.Hbond>
2.0403

> <Gold.Chemscore.Metal>
0.0000

> <Gold.Chemscore.Lipo>
50.7194

> <Gold.Chemscore.Internal_Hbond>
0.0000

> <Gold.Chemscore.DEClash>
0.0310

> <Gold.Chemscore.DEInternal>
0.1892

> <Gold.Chemscore.Rot>
1.8981

> <Gold.Chemscore.Internal.Correction>
   9.000000E+99

> <Gold.Chemscore.Hbonds>
donor molecule, donor type, donor heavy atom, donor atom, acceptor molecule, acceptor atom, score
      L1  H     1    11       P1  7948  0.76
      L1  H     1    12       P1 10171  0.58
      P1  H 10785 10796       L1     8  0.36

> <Gold.Chemscore.Hbond.Weighted>
-6.8147

> <Gold.Chemscore.Metal.Weighted>
-0.0000

> <Gold.Chemscore.Lipo.Weighted>
-5.9342

> <Gold.Chemscore.Internal_Hbond.Weighted>
0.0000

> <Gold.Chemscore.DEClash.Weighted>
0.0310

> <Gold.Chemscore.DEInternal.Weighted>
0.1892

> <Gold.Chemscore.Rot.Weighted>
4.8592

> <Gold.Chemscore.Internal.Correction.Weighted>
   9.000000E+99

> <Gold.Protein.RotatedTorsions>
[ 6907 6896 6895 6894 ] final  174.24 input  -60.11 | X-H torsion
[ 7974 7965 7964 7962 ] final   51.85 input  175.53 | X-H torsion
[ 8008 7997 7996 7995 ] final   30.43 input   59.86 | X-H torsion
[ 10167 10162 10161 10158 ] final   72.96 input  -65.29 | X-H torsion
[ 10718 10713 10712 10709 ] final   20.94 input   66.30 | X-H torsion
[ 10763 10752 10751 10750 ] final   92.02 input  -60.55 | X-H torsion
[ 11005 11000 10999 10996 ] final    7.69 input  -57.11 | X-H torsion

> <Gold.Protein.ActiveResidues>
 VAL166  LYS551  ARG553  GLY616  TRP617  ASP618  TYR619  PRO620  LYS621  CYS622 
 ASP623  PHE694  ASN695  SER759  ASP760  ASP761  ALA762  ILE779  LEU786  VAL792 
 PHE793  MET794  SER795  GLU796  ALA797  LYS798  CYS799  TRP800  GLU811  SER814 

> <Gold.Protein.RotatedAtoms>
  151.7555  133.3330  159.3402 H   0  0  0  0  0  0  0  0  0  0  0  0  # atno 6907 bound_to 6896
  150.7518  134.6153  159.6117 H   0  0  0  0  0  0  0  0  0  0  0  0  # atno 6908 bound_to 6896
  152.3440  134.7098  160.0307 H   0  0  0  0  0  0  0  0  0  0  0  0  # atno 6909 bound_to 6896
  145.9872  139.4301  143.0096 H   0  0  0  0  0  0  0  0  0  0  0  0  # atno 7974 bound_to 7965
  155.0903  140.3219  155.4575 H   0  0  0  0  0  0  0  0  0  0  0  0  # atno 8008 bound_to 7997
  156.2744  140.2079  156.5976 H   0  0  0  0  0  0  0  0  0  0  0  0  # atno 8009 bound_to 7997
  154.6909  140.0516  157.0349 H   0  0  0  0  0  0  0  0  0  0  0  0  # atno 8010 bound_to 7997
  140.0296  144.5476  150.7517 H   0  0  0  0  0  0  0  0  0  0  0  0  # atno 10167 bound_to 10162
  157.1316  130.6593  149.5953 H   0  0  0  0  0  0  0  0  0  0  0  0  # atno 10718 bound_to 10713
  153.2146  135.4376  155.0419 H   0  0  0  0  0  0  0  0  0  0  0  0  # atno 10763 bound_to 10752
  154.8218  135.3341  154.7018 H   0  0  0  0  0  0  0  0  0  0  0  0  # atno 10764 bound_to 10752
  153.7453  135.7002  153.5013 H   0  0  0  0  0  0  0  0  0  0  0  0  # atno 10765 bound_to 10752
  140.5453  134.0335  155.7918 H   0  0  0  0  0  0  0  0  0  0  0  0  # atno 11005 bound_to 11000
  145.7684  140.9907  143.1163 LP  0  0  0  0  0  0  0  0  0  0  0  0  # atno 17320 bound_to 7965
  144.6878  139.9416  143.7475 LP  0  0  0  0  0  0  0  0  0  0  0  0  # atno 17321 bound_to 7965
  140.7308  143.2687  151.3960 LP  0  0  0  0  0  0  0  0  0  0  0  0  # atno 17342 bound_to 10162
  139.6085  144.1147  152.2274 LP  0  0  0  0  0  0  0  0  0  0  0  0  # atno 17343 bound_to 10162
  155.9807  130.4809  150.6786 LP  0  0  0  0  0  0  0  0  0  0  0  0  # atno 17370 bound_to 10713
  157.4387  131.0858  151.0965 LP  0  0  0  0  0  0  0  0  0  0  0  0  # atno 17371 bound_to 10713
  141.1203  133.9472  157.2742 LP  0  0  0  0  0  0  0  0  0  0  0  0  # atno 17394 bound_to 11000
  139.9483  135.0180  156.8917 LP  0  0  0  0  0  0  0  0  0  0  0  0  # atno 17395 bound_to 11000

$$$$
