AV-unprocessed.smi:862|AV-procd|sdf|3980|dock1
  -GOLD-   22720 1453D 1   1.00000     0.00000
 Structure written by MMmdl.
 45 47  0  0  0  0  0  0  0  0  3 V2000
  143.4666  134.4826  153.7599 N   0  0  0  0  0  0  0  0  0  0  0  0
  144.0782  134.5839  152.5758 C   0  0  0  0  0  0  0  0  0  0  0  0
  144.4366  133.5815  151.9603 O   0  0  0  0  0  0  0  0  0  0  0  0
  144.2220  135.8483  152.1045 N   0  0  0  0  0  0  0  0  0  0  0  0
  144.0058  137.0884  152.8681 C   0  0  0  0  0  0  0  0  0  0  0  0
  145.3757  137.6970  153.2212 C   0  0  0  0  0  0  0  0  0  0  0  0
  146.2191  137.9550  151.9544 C   0  0  0  0  0  0  0  0  0  0  0  0
  147.5749  138.4094  152.3385 N   0  3  0  0  0  0  0  0  0  0  0  0
  147.6664  139.2235  153.5735 C   0  0  2  0  0  0  0  0  0  0  0  0
  146.8537  140.5204  153.5138 C   0  0  0  0  0  0  0  0  0  0  0  0
  147.4952  141.4425  154.5574 C   0  0  0  0  0  0  0  0  0  0  0  0
  148.9341  140.9417  154.7567 C   0  0  0  0  0  0  0  0  0  0  0  0
  149.0949  139.7298  153.8230 C   0  0  1  0  0  0  0  0  0  0  0  0
  150.0172  138.7033  154.3361 N   0  0  0  0  0  0  0  0  0  0  0  0
  149.7462  137.3686  154.5038 C   0  0  0  0  0  0  0  0  0  0  0  0
  150.8873  136.7940  155.0015 C   0  0  0  0  0  0  0  0  0  0  0  0
  151.8076  137.7997  155.1198 N   0  3  0  0  0  0  0  0  0  0  0  0
  151.2780  138.9592  154.7170 C   0  0  0  0  0  0  0  0  0  0  0  0
  146.2786  136.6870  151.0724 C   0  0  0  0  0  0  0  0  0  0  0  0
  144.8690  136.1240  150.8162 C   0  0  0  0  0  0  0  0  0  0  0  0
  143.3142  133.5706  154.1659 H   0  0  0  0  0  0  0  0  0  0  0  0
  143.1485  135.3123  154.2386 H   0  0  0  0  0  0  0  0  0  0  0  0
  143.4316  137.7881  152.2593 H   0  0  0  0  0  0  0  0  0  0  0  0
  143.4210  136.9495  153.7772 H   0  0  0  0  0  0  0  0  0  0  0  0
  145.2349  138.6281  153.7715 H   0  0  0  0  0  0  0  0  0  0  0  0
  145.9068  137.0187  153.8912 H   0  0  0  0  0  0  0  0  0  0  0  0
  145.7232  138.7476  151.3916 H   0  0  0  0  0  0  0  0  0  0  0  0
  148.1231  137.5769  152.5005 H   0  0  0  0  0  0  0  0  0  0  0  0
  147.3337  138.6321  154.4282 H   0  0  0  0  0  0  0  0  0  0  0  0
  146.9458  140.9762  152.5265 H   0  0  0  0  0  0  0  0  0  0  0  0
  145.7928  140.3605  153.7088 H   0  0  0  0  0  0  0  0  0  0  0  0
  147.4665  142.4851  154.2388 H   0  0  0  0  0  0  0  0  0  0  0  0
  146.9505  141.3768  155.5002 H   0  0  0  0  0  0  0  0  0  0  0  0
  149.6664  141.7154  154.5233 H   0  0  0  0  0  0  0  0  0  0  0  0
  149.0783  140.6723  155.8033 H   0  0  0  0  0  0  0  0  0  0  0  0
  149.5054  140.0910  152.8778 H   0  0  0  0  0  0  0  0  0  0  0  0
  148.7874  136.9337  154.2596 H   0  0  0  0  0  0  0  0  0  0  0  0
  151.1083  135.7714  155.2716 H   0  0  0  0  0  0  0  0  0  0  0  0
  151.7766  139.9123  154.6984 H   0  0  0  0  0  0  0  0  0  0  0  0
  146.7586  136.8999  150.1183 H   0  0  0  0  0  0  0  0  0  0  0  0
  146.8873  135.9236  151.5596 H   0  0  0  0  0  0  0  0  0  0  0  0
  144.9289  135.2393  150.1806 H   0  0  0  0  0  0  0  0  0  0  0  0
  144.2712  136.8460  150.2581 H   0  0  0  0  0  0  0  0  0  0  0  0
  147.9871  138.9124  151.5654 H   0  0  0  0  0  0  0  0  0  0  0  0
  152.7550  137.6836  155.4582 H   0  0  0  0  0  0  0  0  0  0  0  0
  1  2  1  0  0  0  0
  1 21  1  0  0  0  0
  1 22  1  0  0  0  0
  2  3  2  0  0  0  0
  2  4  1  0  0  0  0
  4 20  1  0  0  0  0
  4  5  1  0  0  0  0
  5  6  1  0  0  0  0
  5 23  1  0  0  0  0
  5 24  1  0  0  0  0
  6  7  1  0  0  0  0
  6 25  1  0  0  0  0
  6 26  1  0  0  0  0
  7  8  1  0  0  0  0
  7 19  1  0  0  0  0
  7 27  1  0  0  0  0
  8  9  1  0  0  0  0
  8 28  1  0  0  0  0
  8 44  1  0  0  0  0
  9 13  1  0  0  0  0
  9 10  1  0  0  0  0
  9 29  1  0  0  0  0
 10 11  1  0  0  0  0
 10 30  1  0  0  0  0
 10 31  1  0  0  0  0
 11 12  1  0  0  0  0
 11 32  1  0  0  0  0
 11 33  1  0  0  0  0
 12 13  1  0  0  0  0
 12 34  1  0  0  0  0
 12 35  1  0  0  0  0
 13 14  1  0  0  0  0
 13 36  1  0  0  0  0
 14 18  1  0  0  0  0
 14 15  1  0  0  0  0
 15 16  2  0  0  0  0
 15 37  1  0  0  0  0
 16 17  1  0  0  0  0
 16 38  1  0  0  0  0
 17 18  2  0  0  0  0
 17 45  1  0  0  0  0
 18 39  1  0  0  0  0
 19 20  1  0  0  0  0
 19 40  1  0  0  0  0
 19 41  1  0  0  0  0
 20 42  1  0  0  0  0
 20 43  1  0  0  0  0
M  CHG  1   8   1
M  CHG  1  17   1
M  END
> <s_m_source_file>
AV-unprocessed.smi

> <i_m_source_file_index>
862

> <i_lp_mmshare_version>
43012

> <i_f3d_flags>
0

> <s_epik_input>
W05IMl1DKD1PKU4xW0NIMl1bQ0gyXVtDSF0oW0NIMl1bQ0gyXTEpW05IXVtDQEBIXTJbQ0gyXVtDSDJdW0NIMl1bQ0BIXTJuM1tjSF1bY0hdbltjSF0z

> <s_epik_cmdline>
J2VwaWtfcHl0aG9uJywgJy1waCcsICc3LjAnLCAnLXRuJywgJzgnLCAnLW1hJywgJzIwMCcsICctbWV0YWxfYmluZGluZycsICctaW1hZScsICc8aW5maWxlLm1hZT4nLCAnLW9tYWUnLCAnPG91dGZpbGUubWFlPic=

> <r_lp_tautomer_probability>
1

> <r_epik_Ionization_Penalty>
1.30217

> <r_epik_Ionization_Penalty_Charging>
0.00439521

> <r_epik_Ionization_Penalty_Neutral>
1.29777

> <r_epik_State_Penalty>
0.977606

> <r_epik_Charging_Adjusted_Penalty>
0.982001

> <i_epik_Tot_Q>
2

> <i_epik_Tot_abs_Q>
2

> <r_epik_Metal_State_Penalty>
1.03289

> <b_epik_Metal_Only>
0

> <s_lp_Force_Field>
OPLS_2005

> <r_lp_Energy>
65.3299

> <b_lp_Chiralities_Consistent>
1

> <s_lp_Variant>
AV-unprocessed.smi:862-5

> <Gold.Version>
5.8.1

> <Gold.Id.Protein>
6NUR|6NUR_protein|mol2

> <Gold.PLP.Fitness>
42.7642

> <Gold.PLP.PLP>
-30.8823

> <Gold.PLP.part.hbond>
-3.0000

> <Gold.PLP.part.metal>
0.0000

> <Gold.PLP.part.buried>
6.0255

> <Gold.PLP.part.nonpolar>
-35.2669

> <Gold.PLP.part.repulsive>
0.3243

> <Gold.PLP.ligand.clash>
0.0000

> <Gold.PLP.ligand.torsion>
0.3850

> <Gold.PLP.Chemscore.Hbond>
3.7040

> <Gold.PLP.Chemscore.CHOScore>
0.4958

> <Gold.PLP.Chemscore.Metal>
0.0000

> <Gold.Chemscore.Hbonds>
donor molecule, donor type, donor heavy atom, donor atom, acceptor molecule, acceptor atom, score
      L1  H     1    21       P1 10957  1.00
      L1  H     8    28       P1  7948  1.92
      L1  H     8    44       P1  7957  0.82
      L1  C    15    37       P1  7948  0.50

> <Gold.PLP.Chemscore.Internal.Correction>
0.0524

> <Gold.Rescore>
     Score         DG    S(hbond)    S(metal)    S(lipo)     H(rot)  DE(clash)    DE(int)     intcor
     15.69     -18.55       2.70        0.00      71.30       1.68       2.53       0.34       ----

> <Gold.Chemscore.Fitness>
15.6862

> <Gold.Chemscore.DG>
-18.5503

> <Gold.Chemscore.ZeroCoef>
-5.4800

> <Gold.Chemscore.Hbond>
2.7042

> <Gold.Chemscore.Metal>
0.0000

> <Gold.Chemscore.Lipo>
71.3032

> <Gold.Chemscore.Internal_Hbond>
0.0000

> <Gold.Chemscore.DEClash>
2.5255

> <Gold.Chemscore.DEInternal>
0.3386

> <Gold.Chemscore.Rot>
1.6814

> <Gold.Chemscore.Internal.Correction>
   9.000000E+99

> <Gold.Chemscore.Hbonds>
donor molecule, donor type, donor heavy atom, donor atom, acceptor molecule, acceptor atom, score
      L1  H     1    21       P1 10957  0.94
      L1  H     8    28       P1  7948  0.92
      L1  H     8    44       P1  7957  0.62

> <Gold.Chemscore.Hbond.Weighted>
-9.0321

> <Gold.Chemscore.Metal.Weighted>
-0.0000

> <Gold.Chemscore.Lipo.Weighted>
-8.3425

> <Gold.Chemscore.Internal_Hbond.Weighted>
0.0000

> <Gold.Chemscore.DEClash.Weighted>
2.5255

> <Gold.Chemscore.DEInternal.Weighted>
0.3386

> <Gold.Chemscore.Rot.Weighted>
4.3043

> <Gold.Chemscore.Internal.Correction.Weighted>
   9.000000E+99

> <Gold.Protein.RotatedTorsions>
[ 6907 6896 6895 6894 ] final  -41.27 input  -60.11 | X-H torsion
[ 7974 7965 7964 7962 ] final -163.38 input  175.53 | X-H torsion
[ 8008 7997 7996 7995 ] final   -2.39 input   59.86 | X-H torsion
[ 10167 10162 10161 10158 ] final   56.46 input  -65.29 | X-H torsion
[ 10718 10713 10712 10709 ] final    1.82 input   66.30 | X-H torsion
[ 10763 10752 10751 10750 ] final  143.07 input  -60.55 | X-H torsion
[ 11005 11000 10999 10996 ] final   -4.65 input  -57.11 | X-H torsion

> <Gold.Protein.ActiveResidues>
 VAL166  LYS551  ARG553  GLY616  TRP617  ASP618  TYR619  PRO620  LYS621  CYS622 
 ASP623  PHE694  ASN695  SER759  ASP760  ASP761  ALA762  ILE779  LEU786  VAL792 
 PHE793  MET794  SER795  GLU796  ALA797  LYS798  CYS799  TRP800  GLU811  SER814 

> <Gold.Protein.RotatedAtoms>
  150.9687  134.9063  159.7774 H   0  0  0  0  0  0  0  0  0  0  0  0  # atno 6907 bound_to 6896
  152.5182  134.3572  159.9282 H   0  0  0  0  0  0  0  0  0  0  0  0  # atno 6908 bound_to 6896
  151.3581  133.3859  159.2721 H   0  0  0  0  0  0  0  0  0  0  0  0  # atno 6909 bound_to 6896
  144.7328  140.3116  143.6187 H   0  0  0  0  0  0  0  0  0  0  0  0  # atno 7974 bound_to 7965
  154.6363  140.2535  155.7375 H   0  0  0  0  0  0  0  0  0  0  0  0  # atno 8008 bound_to 7997
  156.2506  140.2896  156.0657 H   0  0  0  0  0  0  0  0  0  0  0  0  # atno 8009 bound_to 7997
  155.1666  140.0385  157.2844 H   0  0  0  0  0  0  0  0  0  0  0  0  # atno 8010 bound_to 7997
  140.2084  144.3914  150.6499 H   0  0  0  0  0  0  0  0  0  0  0  0  # atno 10167 bound_to 10162
  156.8538  130.5563  149.5667 H   0  0  0  0  0  0  0  0  0  0  0  0  # atno 10718 bound_to 10713
  153.9662  135.2955  155.3430 H   0  0  0  0  0  0  0  0  0  0  0  0  # atno 10763 bound_to 10752
  154.7347  135.5052  153.9025 H   0  0  0  0  0  0  0  0  0  0  0  0  # atno 10764 bound_to 10752
  153.0922  135.6711  153.9943 H   0  0  0  0  0  0  0  0  0  0  0  0  # atno 10765 bound_to 10752
  140.6826  133.9141  155.8565 H   0  0  0  0  0  0  0  0  0  0  0  0  # atno 11005 bound_to 11000
  145.7659  139.1840  143.2240 LP  0  0  0  0  0  0  0  0  0  0  0  0  # atno 17320 bound_to 7965
  146.0949  140.7612  142.9577 LP  0  0  0  0  0  0  0  0  0  0  0  0  # atno 17321 bound_to 7965
  140.6341  143.2192  151.6433 LP  0  0  0  0  0  0  0  0  0  0  0  0  # atno 17342 bound_to 10162
  139.5189  144.3269  152.0861 LP  0  0  0  0  0  0  0  0  0  0  0  0  # atno 17343 bound_to 10162
  156.0813  130.5823  150.9569 LP  0  0  0  0  0  0  0  0  0  0  0  0  # atno 17370 bound_to 10713
  157.6288  131.0923  150.8481 LP  0  0  0  0  0  0  0  0  0  0  0  0  # atno 17371 bound_to 10713
  141.0306  134.0762  157.4019 LP  0  0  0  0  0  0  0  0  0  0  0  0  # atno 17394 bound_to 11000
  139.8947  135.0137  156.6965 LP  0  0  0  0  0  0  0  0  0  0  0  0  # atno 17395 bound_to 11000

$$$$
