AV-unprocessed.smi:1940|AV-procd|sdf|7839|dock2
  -GOLD-   22720 9583D 1   1.00000     0.00000
 Structure written by MMmdl.
 49 51  0  0  0  0  0  0  0  0  1 V2000
  144.2447  136.6163  153.0255 C   0  0  0  0  0  0  0  0  0  0  0  0
  145.3978  135.6031  153.0718 C   0  0  2  0  0  0  0  0  0  0  0  0
  146.6543  136.3218  153.2791 N   0  0  0  0  0  0  0  0  0  0  0  0
  146.9424  137.1248  154.3137 C   0  0  0  0  0  0  0  0  0  0  0  0
  146.1557  137.3640  155.2286 O   0  0  0  0  0  0  0  0  0  0  0  0
  148.1875  137.6190  154.2026 N   0  0  0  0  0  0  0  0  0  0  0  0
  148.8919  138.5029  155.0663 C   0  0  0  0  0  0  0  0  0  0  0  0
  148.6238  138.6807  156.4444 C   0  0  0  0  0  0  0  0  0  0  0  0
  149.4096  139.5883  157.1805 C   0  0  0  0  0  0  0  0  0  0  0  0
  150.4460  140.2962  156.5289 C   0  0  0  0  0  0  0  0  0  0  0  0
  151.2399  141.2128  157.2515 N   0  0  0  0  0  0  0  0  0  0  0  0
  150.7206  142.5719  157.4242 C   0  0  0  0  0  0  0  0  0  0  0  0
  151.8267  143.5350  157.8872 C   0  0  0  0  0  0  0  0  0  0  0  0
  152.5244  143.0072  159.1490 C   0  0  0  0  0  0  0  0  0  0  0  0
  153.0502  141.5851  158.9029 C   0  0  0  0  0  0  0  0  0  0  0  0
  151.9254  140.6540  158.4187 C   0  0  0  0  0  0  0  0  0  0  0  0
  150.7071  140.1161  155.2113 N   0  0  0  0  0  0  0  0  0  0  0  0
  149.9512  139.2469  154.5094 C   0  0  0  0  0  0  0  0  0  0  0  0
  145.4775  134.7598  151.7841 C   0  0  1  0  0  0  0  0  0  0  0  0
  146.5436  133.6628  151.8005 C   0  0  0  0  0  0  0  0  0  0  0  0
  146.0149  132.7112  150.7525 C   0  0  0  0  0  0  0  0  0  0  0  0
  144.5103  132.7759  150.9992 C   0  0  0  0  0  0  0  0  0  0  0  0
  144.2552  134.0599  151.5648 O   0  0  0  0  0  0  0  0  0  0  0  0
  143.2846  136.1140  152.9035 H   0  0  0  0  0  0  0  0  0  0  0  0
  144.3613  137.3157  152.1969 H   0  0  0  0  0  0  0  0  0  0  0  0
  144.1946  137.1963  153.9476 H   0  0  0  0  0  0  0  0  0  0  0  0
  145.2087  134.9265  153.9073 H   0  0  0  0  0  0  0  0  0  0  0  0
  147.3672  136.1873  152.5770 H   0  0  0  0  0  0  0  0  0  0  0  0
  148.6933  137.3428  153.3739 H   0  0  0  0  0  0  0  0  0  0  0  0
  147.8457  138.1421  156.9603 H   0  0  0  0  0  0  0  0  0  0  0  0
  149.2201  139.7205  158.2354 H   0  0  0  0  0  0  0  0  0  0  0  0
  150.3013  142.9362  156.4854 H   0  0  0  0  0  0  0  0  0  0  0  0
  149.9108  142.5552  158.1550 H   0  0  0  0  0  0  0  0  0  0  0  0
  152.5601  143.6581  157.0890 H   0  0  0  0  0  0  0  0  0  0  0  0
  151.4063  144.5229  158.0763 H   0  0  0  0  0  0  0  0  0  0  0  0
  153.3428  143.6695  159.4326 H   0  0  0  0  0  0  0  0  0  0  0  0
  151.8217  143.0010  159.9833 H   0  0  0  0  0  0  0  0  0  0  0  0
  153.8456  141.6140  158.1569 H   0  0  0  0  0  0  0  0  0  0  0  0
  153.4956  141.1877  159.8152 H   0  0  0  0  0  0  0  0  0  0  0  0
  151.1931  140.5128  159.2146 H   0  0  0  0  0  0  0  0  0  0  0  0
  152.3469  139.6725  158.2060 H   0  0  0  0  0  0  0  0  0  0  0  0
  150.2022  139.1441  153.4637 H   0  0  0  0  0  0  0  0  0  0  0  0
  145.6488  135.4060  150.9210 H   0  0  0  0  0  0  0  0  0  0  0  0
  147.5434  134.0344  151.5741 H   0  0  0  0  0  0  0  0  0  0  0  0
  146.5736  133.1694  152.7732 H   0  0  0  0  0  0  0  0  0  0  0  0
  146.2490  133.0872  149.7557 H   0  0  0  0  0  0  0  0  0  0  0  0
  146.4198  131.7030  150.8421 H   0  0  0  0  0  0  0  0  0  0  0  0
  143.9357  132.6240  150.0852 H   0  0  0  0  0  0  0  0  0  0  0  0
  144.2074  132.0156  151.7198 H   0  0  0  0  0  0  0  0  0  0  0  0
  1  2  1  0  0  0  0
  1 24  1  0  0  0  0
  1 25  1  0  0  0  0
  1 26  1  0  0  0  0
  2  3  1  0  0  0  0
  2 19  1  0  0  0  0
  2 27  1  0  0  0  0
  3  4  1  0  0  0  0
  3 28  1  0  0  0  0
  4  5  2  0  0  0  0
  4  6  1  0  0  0  0
  6  7  1  0  0  0  0
  6 29  1  0  0  0  0
  7 18  1  0  0  0  0
  7  8  2  0  0  0  0
  8  9  1  0  0  0  0
  8 30  1  0  0  0  0
  9 10  2  0  0  0  0
  9 31  1  0  0  0  0
 10 11  1  0  0  0  0
 10 17  1  0  0  0  0
 11 16  1  0  0  0  0
 11 12  1  0  0  0  0
 12 13  1  0  0  0  0
 12 32  1  0  0  0  0
 12 33  1  0  0  0  0
 13 14  1  0  0  0  0
 13 34  1  0  0  0  0
 13 35  1  0  0  0  0
 14 15  1  0  0  0  0
 14 36  1  0  0  0  0
 14 37  1  0  0  0  0
 15 16  1  0  0  0  0
 15 38  1  0  0  0  0
 15 39  1  0  0  0  0
 16 40  1  0  0  0  0
 16 41  1  0  0  0  0
 17 18  2  0  0  0  0
 18 42  1  0  0  0  0
 19 23  1  0  0  0  0
 19 20  1  0  0  0  0
 19 43  1  0  0  0  0
 20 21  1  0  0  0  0
 20 44  1  0  0  0  0
 20 45  1  0  0  0  0
 21 22  1  0  0  0  0
 21 46  1  0  0  0  0
 21 47  1  0  0  0  0
 22 23  1  0  0  0  0
 22 48  1  0  0  0  0
 22 49  1  0  0  0  0
M  END
> <s_m_source_file>
AV-unprocessed.smi

> <i_m_source_file_index>
1940

> <i_lp_mmshare_version>
43012

> <i_f3d_flags>
0

> <s_epik_input>
TzFbQ0gyXVtDSDJdW0NIMl1bQ0BIXTFbQ0BIXShbQ0gzXSlbTkhdQyg9TylbTkhdYzJbY0hdW2NIXWMobltjSF0yKU4zW0NIMl1bQ0gyXVtDSDJdW0NIMl1bQ0gyXTM=

> <s_epik_cmdline>
J2VwaWtfcHl0aG9uJywgJy1waCcsICc3LjAnLCAnLXRuJywgJzgnLCAnLW1hJywgJzIwMCcsICctbWV0YWxfYmluZGluZycsICctaW1hZScsICc8aW5maWxlLm1hZT4nLCAnLW9tYWUnLCAnPG91dGZpbGUubWFlPic=

> <r_lp_tautomer_probability>
1

> <r_epik_Ionization_Penalty>
0.105688

> <r_epik_Ionization_Penalty_Charging>
0

> <r_epik_Ionization_Penalty_Neutral>
0.105688

> <r_epik_State_Penalty>
0.0895745

> <r_epik_Charging_Adjusted_Penalty>
0.0895745

> <i_epik_Tot_Q>
0

> <i_epik_Tot_abs_Q>
0

> <r_epik_Metal_State_Penalty>
0.0765749

> <b_epik_Metal_Only>
0

> <s_lp_Force_Field>
OPLS_2005

> <r_lp_Energy>
32.8596

> <b_lp_Chiralities_Consistent>
1

> <s_lp_Variant>
AV-unprocessed.smi:1940-3

> <Gold.Version>
5.8.1

> <Gold.Id.Protein>
6NUR|6NUR_protein|mol2

> <Gold.PLP.Fitness>
45.7340

> <Gold.PLP.PLP>
-35.5331

> <Gold.PLP.part.hbond>
-3.0000

> <Gold.PLP.part.metal>
0.0000

> <Gold.PLP.part.buried>
-5.8585

> <Gold.PLP.part.nonpolar>
-27.7898

> <Gold.PLP.part.repulsive>
0.3052

> <Gold.PLP.ligand.clash>
0.0000

> <Gold.PLP.ligand.torsion>
0.4740

> <Gold.PLP.Chemscore.Hbond>
2.5760

> <Gold.PLP.Chemscore.CHOScore>
1.0000

> <Gold.PLP.Chemscore.Metal>
0.0000

> <Gold.Chemscore.Hbonds>
donor molecule, donor type, donor heavy atom, donor atom, acceptor molecule, acceptor atom, score
      L1  H     3    28       P1  7948  1.00
      L1  H     6    29       P1  7948  1.00
      P1  H  7989  7998       L1    17  0.56
      L1  C    18    42       P1  7957  1.00

> <Gold.PLP.Chemscore.Internal.Correction>
0.4210

> <Gold.Rescore>
     Score         DG    S(hbond)    S(metal)    S(lipo)     H(rot)  DE(clash)    DE(int)     intcor
     18.50     -19.98       2.11        0.00      92.91       1.34       0.20       1.29       ----

> <Gold.Chemscore.Fitness>
18.4981

> <Gold.Chemscore.DG>
-19.9813

> <Gold.Chemscore.ZeroCoef>
-5.4800

> <Gold.Chemscore.Hbond>
2.1112

> <Gold.Chemscore.Metal>
0.0000

> <Gold.Chemscore.Lipo>
92.9052

> <Gold.Chemscore.Internal_Hbond>
0.0000

> <Gold.Chemscore.DEClash>
0.1972

> <Gold.Chemscore.DEInternal>
1.2859

> <Gold.Chemscore.Rot>
1.3359

> <Gold.Chemscore.Internal.Correction>
   9.000000E+99

> <Gold.Chemscore.Hbonds>
donor molecule, donor type, donor heavy atom, donor atom, acceptor molecule, acceptor atom, score
      L1  H     3    28       P1  7948  0.99
      L1  H     6    29       P1  7948  0.97
      P1  H  7989  7998       L1    17  0.05

> <Gold.Chemscore.Hbond.Weighted>
-7.0513

> <Gold.Chemscore.Metal.Weighted>
-0.0000

> <Gold.Chemscore.Lipo.Weighted>
-10.8699

> <Gold.Chemscore.Internal_Hbond.Weighted>
0.0000

> <Gold.Chemscore.DEClash.Weighted>
0.1972

> <Gold.Chemscore.DEInternal.Weighted>
1.2859

> <Gold.Chemscore.Rot.Weighted>
3.4199

> <Gold.Chemscore.Internal.Correction.Weighted>
   9.000000E+99

> <Gold.Protein.RotatedTorsions>
[ 6907 6896 6895 6894 ] final   51.78 input  -60.11 | X-H torsion
[ 7974 7965 7964 7962 ] final    5.54 input  175.53 | X-H torsion
[ 8008 7997 7996 7995 ] final  -31.55 input   59.86 | X-H torsion
[ 10167 10162 10161 10158 ] final  133.61 input  -65.29 | X-H torsion
[ 10718 10713 10712 10709 ] final -110.67 input   66.30 | X-H torsion
[ 10763 10752 10751 10750 ] final   42.30 input  -60.55 | X-H torsion
[ 11005 11000 10999 10996 ] final  -97.43 input  -57.11 | X-H torsion

> <Gold.Protein.ActiveResidues>
 VAL166  LYS551  ARG553  GLY616  TRP617  ASP618  TYR619  PRO620  LYS621  CYS622 
 ASP623  PHE694  ASN695  SER759  ASP760  ASP761  ALA762  ILE779  LEU786  VAL792 
 PHE793  MET794  SER795  GLU796  ALA797  LYS798  CYS799  TRP800  GLU811  SER814 

> <Gold.Protein.RotatedAtoms>
  152.3163  134.7435  160.0324 H   0  0  0  0  0  0  0  0  0  0  0  0  # atno 6907 bound_to 6896
  151.7898  133.3353  159.3504 H   0  0  0  0  0  0  0  0  0  0  0  0  # atno 6908 bound_to 6896
  150.7346  134.5783  159.5970 H   0  0  0  0  0  0  0  0  0  0  0  0  # atno 6909 bound_to 6896
  146.2440  140.0368  142.8385 H   0  0  0  0  0  0  0  0  0  0  0  0  # atno 7974 bound_to 7965
  154.4210  140.1761  156.1584 H   0  0  0  0  0  0  0  0  0  0  0  0  # atno 8008 bound_to 7997
  155.9858  140.3373  155.6681 H   0  0  0  0  0  0  0  0  0  0  0  0  # atno 8009 bound_to 7997
  155.6439  140.0683  157.2600 H   0  0  0  0  0  0  0  0  0  0  0  0  # atno 8010 bound_to 7997
  139.5290  144.6607  151.5021 H   0  0  0  0  0  0  0  0  0  0  0  0  # atno 10167 bound_to 10162
  156.0604  130.5827  150.8269 H   0  0  0  0  0  0  0  0  0  0  0  0  # atno 10718 bound_to 10713
  152.9886  135.6136  154.2927 H   0  0  0  0  0  0  0  0  0  0  0  0  # atno 10763 bound_to 10752
  154.2651  135.2781  155.2763 H   0  0  0  0  0  0  0  0  0  0  0  0  # atno 10764 bound_to 10752
  154.5171  135.5825  153.6708 H   0  0  0  0  0  0  0  0  0  0  0  0  # atno 10765 bound_to 10752
  141.1379  133.8170  157.0705 H   0  0  0  0  0  0  0  0  0  0  0  0  # atno 11005 bound_to 11000
  145.1105  140.9402  143.4659 LP  0  0  0  0  0  0  0  0  0  0  0  0  # atno 17320 bound_to 7965
  145.0581  139.3127  143.5894 LP  0  0  0  0  0  0  0  0  0  0  0  0  # atno 17321 bound_to 7965
  140.6454  143.8805  150.6732 LP  0  0  0  0  0  0  0  0  0  0  0  0  # atno 17342 bound_to 10162
  140.2152  143.3852  152.1686 LP  0  0  0  0  0  0  0  0  0  0  0  0  # atno 17343 bound_to 10162
  157.5608  131.0946  150.9562 LP  0  0  0  0  0  0  0  0  0  0  0  0  # atno 17370 bound_to 10713
  156.9800  130.5523  149.5296 LP  0  0  0  0  0  0  0  0  0  0  0  0  # atno 17371 bound_to 10713
  140.0514  134.9803  157.1143 LP  0  0  0  0  0  0  0  0  0  0  0  0  # atno 17394 bound_to 11000
  140.3984  134.2109  155.7164 LP  0  0  0  0  0  0  0  0  0  0  0  0  # atno 17395 bound_to 11000

$$$$
