AV-unprocessed.smi:184|AV-procd|sdf|1463|dock5
  -GOLD-   2262019273D 1   1.00000     0.00000
 Structure written by MMmdl.
 54 58  0  0  0  0  0  0  0  0  1 V2000
  149.4285  141.7793  154.5610 O   0  0  0  0  0  0  0  0  0  0  0  0
  150.0839  141.6968  155.5971 C   0  0  0  0  0  0  0  0  0  0  0  0
  150.1920  140.3409  156.3191 C   0  0  0  0  0  0  0  0  0  0  0  0
  151.0096  140.3524  157.5417 N   0  0  0  0  0  0  0  0  0  0  0  0
  150.8491  139.2152  158.2552 C   0  0  0  0  0  0  0  0  0  0  0  0
  151.9228  138.7618  158.9474 N   0  0  0  0  0  0  0  0  0  0  0  0
  151.8249  137.6438  159.6730 C   0  0  0  0  0  0  0  0  0  0  0  0
  150.7692  136.8430  159.8349 N   0  0  0  0  0  0  0  0  0  0  0  0
  149.6913  137.2920  159.1299 C   0  0  0  0  0  0  0  0  0  0  0  0
  149.6456  138.4576  158.3151 C   0  0  0  0  0  0  0  0  0  0  0  0
  148.3864  138.5871  157.7428 N   0  0  0  0  0  0  0  0  0  0  0  0
  147.7220  137.5621  158.2015 C   0  0  0  0  0  0  0  0  0  0  0  0
  148.4255  136.7375  159.0508 N   0  0  0  0  0  0  0  0  0  0  0  0
  147.9309  135.5348  159.7044 C   0  0  0  0  0  0  0  0  0  0  0  0
  146.7254  135.7812  160.6526 C   0  0  0  0  0  0  0  0  0  0  0  0
  145.6299  136.1880  159.8525 O   0  0  0  0  0  0  0  0  0  0  0  0
  146.3022  134.4925  161.3857 C   0  0  0  0  0  0  0  0  0  0  0  0
  147.2825  134.1349  162.5181 C   0  0  0  0  0  0  0  0  0  0  0  0
  147.4016  135.2274  163.4229 O   0  0  0  0  0  0  0  0  0  0  0  0
  147.9225  136.4030  162.8122 C   0  0  0  0  0  0  0  0  0  0  0  0
  146.9677  136.8846  161.7054 C   0  0  0  0  0  0  0  0  0  0  0  0
  151.0844  141.6124  158.2874 C   0  0  1  0  0  0  0  0  0  0  0  0
  152.0391  141.5708  159.5052 C   0  0  0  0  0  0  0  0  0  0  0  0
  152.0795  142.9317  160.2211 C   0  0  0  0  0  0  0  0  0  0  0  0
  152.4651  144.0676  159.2599 C   0  0  0  0  0  0  0  0  0  0  0  0
  151.5447  144.0981  158.0289 C   0  0  0  0  0  0  0  0  0  0  0  0
  151.5332  142.7314  157.3229 C   0  0  2  0  0  0  0  0  0  0  0  0
  150.6974  142.7673  156.1275 N   0  0  0  0  0  0  0  0  0  0  0  0
  149.1785  140.0071  156.5492 H   0  0  0  0  0  0  0  0  0  0  0  0
  150.6133  139.6159  155.6212 H   0  0  0  0  0  0  0  0  0  0  0  0
  152.7202  137.3492  160.2003 H   0  0  0  0  0  0  0  0  0  0  0  0
  146.6905  137.3808  157.9359 H   0  0  0  0  0  0  0  0  0  0  0  0
  147.6560  134.8200  158.9271 H   0  0  0  0  0  0  0  0  0  0  0  0
  148.7615  135.0805  160.2439 H   0  0  0  0  0  0  0  0  0  0  0  0
  145.9352  136.8293  159.2289 H   0  0  0  0  0  0  0  0  0  0  0  0
  145.3119  134.6278  161.8240 H   0  0  0  0  0  0  0  0  0  0  0  0
  146.2143  133.6612  160.6849 H   0  0  0  0  0  0  0  0  0  0  0  0
  146.9151  133.2675  163.0667 H   0  0  0  0  0  0  0  0  0  0  0  0
  148.2633  133.8633  162.1264 H   0  0  0  0  0  0  0  0  0  0  0  0
  148.0279  137.1757  163.5740 H   0  0  0  0  0  0  0  0  0  0  0  0
  148.9216  136.2086  162.4219 H   0  0  0  0  0  0  0  0  0  0  0  0
  147.3457  137.7988  161.2477 H   0  0  0  0  0  0  0  0  0  0  0  0
  146.0197  137.1566  162.1724 H   0  0  0  0  0  0  0  0  0  0  0  0
  150.0810  141.8521  158.6433 H   0  0  0  0  0  0  0  0  0  0  0  0
  151.7280  140.8119  160.2231 H   0  0  0  0  0  0  0  0  0  0  0  0
  153.0434  141.2953  159.1803 H   0  0  0  0  0  0  0  0  0  0  0  0
  151.1016  143.1408  160.6566 H   0  0  0  0  0  0  0  0  0  0  0  0
  152.7849  142.8929  161.0517 H   0  0  0  0  0  0  0  0  0  0  0  0
  152.4235  145.0251  159.7799 H   0  0  0  0  0  0  0  0  0  0  0  0
  153.4987  143.9359  158.9376 H   0  0  0  0  0  0  0  0  0  0  0  0
  150.5327  144.3678  158.3342 H   0  0  0  0  0  0  0  0  0  0  0  0
  151.8800  144.8752  157.3409 H   0  0  0  0  0  0  0  0  0  0  0  0
  152.5469  142.5135  156.9813 H   0  0  0  0  0  0  0  0  0  0  0  0
  150.6053  143.6542  155.6538 H   0  0  0  0  0  0  0  0  0  0  0  0
  1  2  2  0  0  0  0
  2 28  1  0  0  0  0
  2  3  1  0  0  0  0
  3  4  1  0  0  0  0
  3 29  1  0  0  0  0
  3 30  1  0  0  0  0
  4  5  1  0  0  0  0
  4 22  1  0  0  0  0
  5 10  1  0  0  0  0
  5  6  2  0  0  0  0
  6  7  1  0  0  0  0
  7  8  2  0  0  0  0
  7 31  1  0  0  0  0
  8  9  1  0  0  0  0
  9 13  1  0  0  0  0
  9 10  2  0  0  0  0
 10 11  1  0  0  0  0
 11 12  2  0  0  0  0
 12 13  1  0  0  0  0
 12 32  1  0  0  0  0
 13 14  1  0  0  0  0
 14 15  1  0  0  0  0
 14 33  1  0  0  0  0
 14 34  1  0  0  0  0
 15 21  1  0  0  0  0
 15 16  1  0  0  0  0
 15 17  1  0  0  0  0
 16 35  1  0  0  0  0
 17 18  1  0  0  0  0
 17 36  1  0  0  0  0
 17 37  1  0  0  0  0
 18 19  1  0  0  0  0
 18 38  1  0  0  0  0
 18 39  1  0  0  0  0
 19 20  1  0  0  0  0
 20 21  1  0  0  0  0
 20 40  1  0  0  0  0
 20 41  1  0  0  0  0
 21 42  1  0  0  0  0
 21 43  1  0  0  0  0
 22 27  1  0  0  0  0
 22 23  1  0  0  0  0
 22 44  1  0  0  0  0
 23 24  1  0  0  0  0
 23 45  1  0  0  0  0
 23 46  1  0  0  0  0
 24 25  1  0  0  0  0
 24 47  1  0  0  0  0
 24 48  1  0  0  0  0
 25 26  1  0  0  0  0
 25 49  1  0  0  0  0
 25 50  1  0  0  0  0
 26 27  1  0  0  0  0
 26 51  1  0  0  0  0
 26 52  1  0  0  0  0
 27 28  1  0  0  0  0
 27 53  1  0  0  0  0
 28 54  1  0  0  0  0
M  END
> <s_m_source_file>
AV-unprocessed.smi

> <i_m_source_file_index>
184

> <i_lp_mmshare_version>
43012

> <i_f3d_flags>
0

> <s_epik_input>
W0NIMl0xW0NIMl1bQ0gyXVtDSDJdW0NASF0oW0NASF0xMilbTkhdQyg9TylbQ0gyXU4yYyhuW2NIXW4zKWMoYzM0KW5bY0hdbjRbQ0gyXUM1KFtPSF0pW0NIMl1bQ0gyXU9bQ0gyXVtDSDJdNQ==

> <s_epik_cmdline>
J2VwaWtfcHl0aG9uJywgJy1waCcsICc3LjAnLCAnLXRuJywgJzgnLCAnLW1hJywgJzIwMCcsICctbWV0YWxfYmluZGluZycsICctaW1hZScsICc8aW5maWxlLm1hZT4nLCAnLW9tYWUnLCAnPG91dGZpbGUubWFlPic=

> <r_lp_tautomer_probability>
1

> <r_epik_Ionization_Penalty>
0.000822761

> <r_epik_Ionization_Penalty_Charging>
0

> <r_epik_Ionization_Penalty_Neutral>
0.000822761

> <r_epik_State_Penalty>
0.000403048

> <r_epik_Charging_Adjusted_Penalty>
0.000403048

> <i_epik_Tot_Q>
0

> <i_epik_Tot_abs_Q>
0

> <r_epik_Metal_State_Penalty>
-0

> <b_epik_Metal_Only>
0

> <s_lp_Force_Field>
OPLS_2005

> <r_lp_Energy>
32.8133

> <b_lp_Chiralities_Consistent>
1

> <s_lp_Variant>
AV-unprocessed.smi:184-3

> <Gold.Version>
5.8.1

> <Gold.Id.Protein>
6NUR|6NUR_protein|mol2

> <Gold.PLP.Fitness>
50.8997

> <Gold.PLP.PLP>
-46.9648

> <Gold.PLP.part.hbond>
-4.1986

> <Gold.PLP.part.metal>
0.0000

> <Gold.PLP.part.buried>
-4.9310

> <Gold.PLP.part.nonpolar>
-38.3641

> <Gold.PLP.part.repulsive>
0.3238

> <Gold.PLP.ligand.clash>
0.0505

> <Gold.PLP.ligand.torsion>
0.5454

> <Gold.PLP.Chemscore.Hbond>
1.5703

> <Gold.PLP.Chemscore.CHOScore>
0.0000

> <Gold.PLP.Chemscore.Metal>
0.0000

> <Gold.Chemscore.Hbonds>
donor molecule, donor type, donor heavy atom, donor atom, acceptor molecule, acceptor atom, score
      L1  H    28    54       P1  8028  0.48
      P1  H  6896  6907       L1     8  0.99
      P1  H  8011  8017       L1     1  0.10

> <Gold.PLP.Chemscore.Internal.Correction>
0.3655

> <Gold.Rescore>
     Score         DG    S(hbond)    S(metal)    S(lipo)     H(rot)  DE(clash)    DE(int)     intcor
     14.09     -17.96       1.56        0.00     109.47       2.17       0.03       3.85       ----

> <Gold.Chemscore.Fitness>
14.0856

> <Gold.Chemscore.DG>
-17.9587

> <Gold.Chemscore.ZeroCoef>
-5.4800

> <Gold.Chemscore.Hbond>
1.5641

> <Gold.Chemscore.Metal>
0.0000

> <Gold.Chemscore.Lipo>
109.4705

> <Gold.Chemscore.Internal_Hbond>
0.0000

> <Gold.Chemscore.DEClash>
0.0279

> <Gold.Chemscore.DEInternal>
3.8452

> <Gold.Chemscore.Rot>
2.1693

> <Gold.Chemscore.Internal.Correction>
   9.000000E+99

> <Gold.Chemscore.Hbonds>
donor molecule, donor type, donor heavy atom, donor atom, acceptor molecule, acceptor atom, score
      L1  H    28    54       P1  8028  0.46
      P1  H  6896  6907       L1     8  0.80
      P1  H  8011  8017       L1     1  0.10

> <Gold.Chemscore.Hbond.Weighted>
-5.2240

> <Gold.Chemscore.Metal.Weighted>
-0.0000

> <Gold.Chemscore.Lipo.Weighted>
-12.8080

> <Gold.Chemscore.Internal_Hbond.Weighted>
0.0000

> <Gold.Chemscore.DEClash.Weighted>
0.0279

> <Gold.Chemscore.DEInternal.Weighted>
3.8452

> <Gold.Chemscore.Rot.Weighted>
5.5533

> <Gold.Chemscore.Internal.Correction.Weighted>
   9.000000E+99

> <Gold.Protein.RotatedTorsions>
[ 6907 6896 6895 6894 ] final  -40.28 input  -60.11 | X-H torsion
[ 7974 7965 7964 7962 ] final -130.64 input  175.53 | X-H torsion
[ 8008 7997 7996 7995 ] final  133.99 input   59.86 | X-H torsion
[ 10167 10162 10161 10158 ] final -172.02 input  -65.29 | X-H torsion
[ 10718 10713 10712 10709 ] final   33.93 input   66.30 | X-H torsion
[ 10763 10752 10751 10750 ] final  -75.33 input  -60.55 | X-H torsion
[ 11005 11000 10999 10996 ] final  -67.20 input  -57.11 | X-H torsion

> <Gold.Protein.ActiveResidues>
 VAL166  LYS551  ARG553  GLY616  TRP617  ASP618  TYR619  PRO620  LYS621  CYS622 
 ASP623  PHE694  ASN695  SER759  ASP760  ASP761  ALA762  ILE779  LEU786  VAL792 
 PHE793  MET794  SER795  GLU796  ALA797  LYS798  CYS799  TRP800  GLU811  SER814 

> <Gold.Protein.RotatedAtoms>
  150.9804  134.9160  159.7840 H   0  0  0  0  0  0  0  0  0  0  0  0  # atno 6907 bound_to 6896
  152.5220  134.3419  159.9230 H   0  0  0  0  0  0  0  0  0  0  0  0  # atno 6908 bound_to 6896
  151.3426  133.3915  159.2707 H   0  0  0  0  0  0  0  0  0  0  0  0  # atno 6909 bound_to 6896
  144.9455  140.7287  143.4820 H   0  0  0  0  0  0  0  0  0  0  0  0  # atno 7974 bound_to 7965
  156.2996  140.2507  156.3344 H   0  0  0  0  0  0  0  0  0  0  0  0  # atno 8008 bound_to 7997
  154.9114  140.0403  157.1967 H   0  0  0  0  0  0  0  0  0  0  0  0  # atno 8009 bound_to 7997
  154.8401  140.2889  155.5669 H   0  0  0  0  0  0  0  0  0  0  0  0  # atno 8010 bound_to 7997
  139.5768  144.1513  152.1462 H   0  0  0  0  0  0  0  0  0  0  0  0  # atno 10167 bound_to 10162
  157.3040  130.7365  149.6684 H   0  0  0  0  0  0  0  0  0  0  0  0  # atno 10718 bound_to 10713
  154.4851  135.5835  153.6418 H   0  0  0  0  0  0  0  0  0  0  0  0  # atno 10763 bound_to 10752
  152.9853  135.6099  154.3197 H   0  0  0  0  0  0  0  0  0  0  0  0  # atno 10764 bound_to 10752
  154.3091  135.2845  155.2553 H   0  0  0  0  0  0  0  0  0  0  0  0  # atno 10765 bound_to 10752
  141.1502  133.6714  156.6256 H   0  0  0  0  0  0  0  0  0  0  0  0  # atno 11005 bound_to 11000
  145.2924  139.1879  143.4733 LP  0  0  0  0  0  0  0  0  0  0  0  0  # atno 17320 bound_to 7965
  146.3302  140.2903  142.8615 LP  0  0  0  0  0  0  0  0  0  0  0  0  # atno 17321 bound_to 7965
  140.1058  144.5500  150.6958 LP  0  0  0  0  0  0  0  0  0  0  0  0  # atno 17342 bound_to 10162
  140.7050  143.2461  151.4753 LP  0  0  0  0  0  0  0  0  0  0  0  0  # atno 17343 bound_to 10162
  155.9673  130.4271  150.4730 LP  0  0  0  0  0  0  0  0  0  0  0  0  # atno 17370 bound_to 10713
  157.2716  131.0588  151.2256 LP  0  0  0  0  0  0  0  0  0  0  0  0  # atno 17371 bound_to 10713
  140.3506  134.7772  157.4464 LP  0  0  0  0  0  0  0  0  0  0  0  0  # atno 17394 bound_to 11000
  140.0864  134.5661  155.8488 LP  0  0  0  0  0  0  0  0  0  0  0  0  # atno 17395 bound_to 11000

$$$$
