AV-unprocessed.smi:2960|AV-procd|sdf|11312|dock10
  -GOLD-   2272016213D 1   1.00000     0.00000
 Structure written by MMmdl.
 49 51  0  0  0  0  0  0  0  0  2 V2000
  146.7251  139.3706  151.8646 C   0  0  0  0  0  0  0  0  0  0  0  0
  147.0985  140.0211  153.1922 C   0  0  0  0  0  0  0  0  0  0  0  0
  146.3685  139.8868  154.1740 O   0  0  0  0  0  0  0  0  0  0  0  0
  148.2406  140.7244  153.2087 N   0  0  0  0  0  0  0  0  0  0  0  0
  148.7698  141.4316  154.3687 C   0  0  0  0  0  0  0  0  0  0  0  0
  149.1628  140.4631  155.4964 C   0  0  0  0  0  0  0  0  0  0  0  0
  150.0009  141.1385  156.5338 C   0  0  0  0  0  0  0  0  0  0  0  0
  150.3007  142.4681  156.5643 N   0  3  0  0  0  0  0  0  0  0  0  0
  151.1122  142.7462  157.6647 C   0  0  0  0  0  0  0  0  0  0  0  0
  151.6653  143.9424  158.1114 C   0  0  0  0  0  0  0  0  0  0  0  0
  152.4533  143.8779  159.2795 C   0  0  0  0  0  0  0  0  0  0  0  0
  152.6664  142.6587  159.9555 C   0  0  0  0  0  0  0  0  0  0  0  0
  152.1005  141.4524  159.4926 C   0  0  0  0  0  0  0  0  0  0  0  0
  151.3227  141.5253  158.3373 C   0  0  0  0  0  0  0  0  0  0  0  0
  150.6246  140.5604  157.6023 N   0  0  0  0  0  0  0  0  0  0  0  0
  150.6600  139.1622  158.0537 C   0  0  0  0  0  0  0  0  0  0  0  0
  149.2581  138.6166  158.3570 C   0  0  0  0  0  0  0  0  0  0  0  0
  149.2783  137.2059  158.1958 O   0  0  0  0  0  0  0  0  0  0  0  0
  148.6894  136.4306  159.1719 C   0  0  0  0  0  0  0  0  0  0  0  0
  148.4571  135.0753  158.8600 C   0  0  0  0  0  0  0  0  0  0  0  0
  147.8634  134.2102  159.7989 C   0  0  0  0  0  0  0  0  0  0  0  0
  147.4925  134.6926  161.0690 C   0  0  0  0  0  0  0  0  0  0  0  0
  146.8565  133.7571  162.0765 C   0  0  0  0  0  0  0  0  0  0  0  0
  147.7180  136.0456  161.3917 C   0  0  0  0  0  0  0  0  0  0  0  0
  148.3112  136.9105  160.4516 C   0  0  0  0  0  0  0  0  0  0  0  0
  147.5091  138.6843  151.5422 H   0  0  0  0  0  0  0  0  0  0  0  0
  146.5913  140.1294  151.0930 H   0  0  0  0  0  0  0  0  0  0  0  0
  145.7952  138.8077  151.9558 H   0  0  0  0  0  0  0  0  0  0  0  0
  148.7753  140.7824  152.3536 H   0  0  0  0  0  0  0  0  0  0  0  0
  149.6400  142.0005  154.0438 H   0  0  0  0  0  0  0  0  0  0  0  0
  148.0384  142.1592  154.7254 H   0  0  0  0  0  0  0  0  0  0  0  0
  148.2707  140.0626  155.9795 H   0  0  0  0  0  0  0  0  0  0  0  0
  149.7039  139.6070  155.0932 H   0  0  0  0  0  0  0  0  0  0  0  0
  151.5040  144.8774  157.5954 H   0  0  0  0  0  0  0  0  0  0  0  0
  152.9033  144.7814  159.6649 H   0  0  0  0  0  0  0  0  0  0  0  0
  153.2766  142.6479  160.8471 H   0  0  0  0  0  0  0  0  0  0  0  0
  152.2702  140.5232  160.0164 H   0  0  0  0  0  0  0  0  0  0  0  0
  151.1579  138.5621  157.2914 H   0  0  0  0  0  0  0  0  0  0  0  0
  151.2839  139.1073  158.9455 H   0  0  0  0  0  0  0  0  0  0  0  0
  148.9749  138.8758  159.3776 H   0  0  0  0  0  0  0  0  0  0  0  0
  148.5267  139.0592  157.6792 H   0  0  0  0  0  0  0  0  0  0  0  0
  148.7381  134.6940  157.8892 H   0  0  0  0  0  0  0  0  0  0  0  0
  147.6942  133.1747  159.5416 H   0  0  0  0  0  0  0  0  0  0  0  0
  146.6443  134.2680  163.0163 H   0  0  0  0  0  0  0  0  0  0  0  0
  147.5223  132.9199  162.2875 H   0  0  0  0  0  0  0  0  0  0  0  0
  145.9191  133.3606  161.6851 H   0  0  0  0  0  0  0  0  0  0  0  0
  147.4375  136.4271  162.3627 H   0  0  0  0  0  0  0  0  0  0  0  0
  148.4662  137.9391  160.7389 H   0  0  0  0  0  0  0  0  0  0  0  0
  149.9708  143.1357  155.8789 H   0  0  0  0  0  0  0  0  0  0  0  0
  1  2  1  0  0  0  0
  1 26  1  0  0  0  0
  1 27  1  0  0  0  0
  1 28  1  0  0  0  0
  2  3  2  0  0  0  0
  2  4  1  0  0  0  0
  4  5  1  0  0  0  0
  4 29  1  0  0  0  0
  5  6  1  0  0  0  0
  5 30  1  0  0  0  0
  5 31  1  0  0  0  0
  6  7  1  0  0  0  0
  6 32  1  0  0  0  0
  6 33  1  0  0  0  0
  7 15  1  0  0  0  0
  7  8  2  0  0  0  0
  8  9  1  0  0  0  0
  8 49  1  0  0  0  0
  9 14  2  0  0  0  0
  9 10  1  0  0  0  0
 10 11  2  0  0  0  0
 10 34  1  0  0  0  0
 11 12  1  0  0  0  0
 11 35  1  0  0  0  0
 12 13  2  0  0  0  0
 12 36  1  0  0  0  0
 13 14  1  0  0  0  0
 13 37  1  0  0  0  0
 14 15  1  0  0  0  0
 15 16  1  0  0  0  0
 16 17  1  0  0  0  0
 16 38  1  0  0  0  0
 16 39  1  0  0  0  0
 17 18  1  0  0  0  0
 17 40  1  0  0  0  0
 17 41  1  0  0  0  0
 18 19  1  0  0  0  0
 19 25  1  0  0  0  0
 19 20  2  0  0  0  0
 20 21  1  0  0  0  0
 20 42  1  0  0  0  0
 21 22  2  0  0  0  0
 21 43  1  0  0  0  0
 22 23  1  0  0  0  0
 22 24  1  0  0  0  0
 23 44  1  0  0  0  0
 23 45  1  0  0  0  0
 23 46  1  0  0  0  0
 24 25  2  0  0  0  0
 24 47  1  0  0  0  0
 25 48  1  0  0  0  0
M  CHG  1   8   1
M  END
> <s_m_source_file>
AV-unprocessed.smi

> <i_m_source_file_index>
2960

> <i_lp_mmshare_version>
43012

> <i_f3d_flags>
0

> <s_epik_input>
W0NIM11DKD1PKVtOSF1bQ0gyXVtDSDJdYyhuMSluKGMoYzEyKVtjSF1bY0hdW2NIXVtjSF0yKVtDSDJdW0NIMl1PYzNbY0hdW2NIXWMoW0NIM10pW2NIXVtjSF0z

> <s_epik_cmdline>
J2VwaWtfcHl0aG9uJywgJy1waCcsICc3LjAnLCAnLXRuJywgJzgnLCAnLW1hJywgJzIwMCcsICctbWV0YWxfYmluZGluZycsICctaW1hZScsICc8aW5maWxlLm1hZT4nLCAnLW9tYWUnLCAnPG91dGZpbGUubWFlPic=

> <r_lp_tautomer_probability>
1

> <r_epik_Ionization_Penalty>
1.10884

> <r_epik_Ionization_Penalty_Charging>
1.10884

> <r_epik_Ionization_Penalty_Neutral>
3.05925e-07

> <r_epik_State_Penalty>
1.16664

> <r_epik_Charging_Adjusted_Penalty>
2.27548

> <i_epik_Tot_Q>
1

> <i_epik_Tot_abs_Q>
1

> <r_epik_Metal_State_Penalty>
1.2527

> <b_epik_Metal_Only>
0

> <s_lp_Force_Field>
OPLS_2005

> <r_lp_Energy>
19.8643

> <b_lp_Chiralities_Consistent>
1

> <s_lp_Variant>
AV-unprocessed.smi:2960-2

> <Gold.Version>
5.8.1

> <Gold.Id.Protein>
6NUR|6NUR_protein|mol2

> <Gold.PLP.Fitness>
56.0797

> <Gold.PLP.PLP>
-49.2003

> <Gold.PLP.part.hbond>
-1.9590

> <Gold.PLP.part.metal>
0.0000

> <Gold.PLP.part.buried>
-1.6101

> <Gold.PLP.part.nonpolar>
-46.3500

> <Gold.PLP.part.repulsive>
0.3344

> <Gold.PLP.ligand.clash>
0.0000

> <Gold.PLP.ligand.torsion>
0.7353

> <Gold.PLP.Chemscore.Hbond>
2.7600

> <Gold.PLP.Chemscore.CHOScore>
0.0000

> <Gold.PLP.Chemscore.Metal>
0.0000

> <Gold.Chemscore.Hbonds>
donor molecule, donor type, donor heavy atom, donor atom, acceptor molecule, acceptor atom, score
      L1  H     4    29       P1  7957  1.00
      L1  H     8    49       P1  8028  1.73

> <Gold.PLP.Chemscore.Internal.Correction>
0.0700

> <Gold.Rescore>
     Score         DG    S(hbond)    S(metal)    S(lipo)     H(rot)  DE(clash)    DE(int)     intcor
     20.44     -21.20       1.83        0.00     129.96       2.18       0.16       0.60       ----

> <Gold.Chemscore.Fitness>
20.4426

> <Gold.Chemscore.DG>
-21.2037

> <Gold.Chemscore.ZeroCoef>
-5.4800

> <Gold.Chemscore.Hbond>
1.8256

> <Gold.Chemscore.Metal>
0.0000

> <Gold.Chemscore.Lipo>
129.9605

> <Gold.Chemscore.Internal_Hbond>
0.0000

> <Gold.Chemscore.DEClash>
0.1622

> <Gold.Chemscore.DEInternal>
0.5989

> <Gold.Chemscore.Rot>
2.1793

> <Gold.Chemscore.Internal.Correction>
   9.000000E+99

> <Gold.Chemscore.Hbonds>
donor molecule, donor type, donor heavy atom, donor atom, acceptor molecule, acceptor atom, score
      L1  H     4    29       P1  7957  0.95
      L1  H     8    49       P1  8028  0.86

> <Gold.Chemscore.Hbond.Weighted>
-6.0975

> <Gold.Chemscore.Metal.Weighted>
-0.0000

> <Gold.Chemscore.Lipo.Weighted>
-15.2054

> <Gold.Chemscore.Internal_Hbond.Weighted>
0.0000

> <Gold.Chemscore.DEClash.Weighted>
0.1622

> <Gold.Chemscore.DEInternal.Weighted>
0.5989

> <Gold.Chemscore.Rot.Weighted>
5.5791

> <Gold.Chemscore.Internal.Correction.Weighted>
   9.000000E+99

> <Gold.Protein.RotatedTorsions>
[ 6907 6896 6895 6894 ] final  175.50 input  -60.11 | X-H torsion
[ 7974 7965 7964 7962 ] final   27.72 input  175.53 | X-H torsion
[ 8008 7997 7996 7995 ] final  -36.12 input   59.86 | X-H torsion
[ 10167 10162 10161 10158 ] final  151.87 input  -65.29 | X-H torsion
[ 10718 10713 10712 10709 ] final  145.03 input   66.30 | X-H torsion
[ 10763 10752 10751 10750 ] final   25.22 input  -60.55 | X-H torsion
[ 11005 11000 10999 10996 ] final   48.57 input  -57.11 | X-H torsion

> <Gold.Protein.ActiveResidues>
 VAL166  LYS551  ARG553  GLY616  TRP617  ASP618  TYR619  PRO620  LYS621  CYS622 
 ASP623  PHE694  ASN695  SER759  ASP760  ASP761  ALA762  ILE779  LEU786  VAL792 
 PHE793  MET794  SER795  GLU796  ALA797  LYS798  CYS799  TRP800  GLU811  SER814 

> <Gold.Protein.RotatedAtoms>
  151.7352  133.3319  159.3350 H   0  0  0  0  0  0  0  0  0  0  0  0  # atno 6907 bound_to 6896
  150.7596  134.6327  159.6204 H   0  0  0  0  0  0  0  0  0  0  0  0  # atno 6908 bound_to 6896
  152.3566  134.6933  160.0272 H   0  0  0  0  0  0  0  0  0  0  0  0  # atno 6909 bound_to 6896
  146.1768  139.7152  142.8928 H   0  0  0  0  0  0  0  0  0  0  0  0  # atno 7974 bound_to 7965
  154.4080  140.1639  156.2322 H   0  0  0  0  0  0  0  0  0  0  0  0  # atno 8008 bound_to 7997
  155.9272  140.3417  155.6197 H   0  0  0  0  0  0  0  0  0  0  0  0  # atno 8009 bound_to 7997
  155.7150  140.0761  157.2346 H   0  0  0  0  0  0  0  0  0  0  0  0  # atno 8010 bound_to 7997
  139.4837  144.5405  151.7572 H   0  0  0  0  0  0  0  0  0  0  0  0  # atno 10167 bound_to 10162
  157.3501  131.0949  151.1007 H   0  0  0  0  0  0  0  0  0  0  0  0  # atno 10718 bound_to 10713
  153.0708  135.6588  154.0253 H   0  0  0  0  0  0  0  0  0  0  0  0  # atno 10763 bound_to 10752
  153.9899  135.2947  155.3414 H   0  0  0  0  0  0  0  0  0  0  0  0  # atno 10764 bound_to 10752
  154.7081  135.5216  153.8695 H   0  0  0  0  0  0  0  0  0  0  0  0  # atno 10765 bound_to 10752
  140.1179  134.4869  155.8622 H   0  0  0  0  0  0  0  0  0  0  0  0  # atno 11005 bound_to 11000
  145.4188  141.0404  143.2975 LP  0  0  0  0  0  0  0  0  0  0  0  0  # atno 17320 bound_to 7965
  144.8250  139.5726  143.6970 LP  0  0  0  0  0  0  0  0  0  0  0  0  # atno 17321 bound_to 7965
  140.4944  144.1263  150.5957 LP  0  0  0  0  0  0  0  0  0  0  0  0  # atno 17342 bound_to 10162
  140.4134  143.2646  151.9804 LP  0  0  0  0  0  0  0  0  0  0  0  0  # atno 17343 bound_to 10162
  157.2186  130.6471  149.5802 LP  0  0  0  0  0  0  0  0  0  0  0  0  # atno 17370 bound_to 10713
  155.9720  130.4636  150.6190 LP  0  0  0  0  0  0  0  0  0  0  0  0  # atno 17371 bound_to 10713
  141.2145  133.6750  156.6831 LP  0  0  0  0  0  0  0  0  0  0  0  0  # atno 17394 bound_to 11000
  140.3004  134.8168  157.4093 LP  0  0  0  0  0  0  0  0  0  0  0  0  # atno 17395 bound_to 11000

$$$$
