AV-unprocessed.smi:794|AV-procd|sdf|3760|dock8
  -GOLD-   22720 1193D 1   1.00000     0.00000
 Structure written by MMmdl.
 41 43  0  0  0  0  0  0  0  0  1 V2000
  152.1757  135.4076  157.0599 C   0  0  0  0  0  0  0  0  0  0  0  0
  151.3461  134.4608  156.2476 C   0  0  0  0  0  0  0  0  0  0  0  0
  150.4096  134.9666  155.3411 N   0  0  0  0  0  0  0  0  0  0  0  0
  149.7515  133.9967  154.6982 C   0  0  0  0  0  0  0  0  0  0  0  0
  148.7481  134.2216  153.7194 N   0  0  0  0  0  0  0  0  0  0  0  0
  147.6103  133.5326  153.5237 C   0  0  0  0  0  0  0  0  0  0  0  0
  147.2571  132.5435  154.1661 O   0  0  0  0  0  0  0  0  0  0  0  0
  146.8843  134.0670  152.5308 N   0  0  0  0  0  0  0  0  0  0  0  0
  145.5951  133.5596  152.0580 C   0  0  2  0  0  0  0  0  0  0  0  0
  145.7862  132.2079  151.3362 C   0  0  1  0  0  0  0  0  0  0  0  0
  144.4198  131.5116  151.2019 C   0  0  0  0  0  0  0  0  0  0  0  0
  143.7131  132.3662  150.1326 C   0  0  0  0  0  0  0  0  0  0  0  0
  144.7700  133.4370  149.7947 C   0  0  2  0  0  0  0  0  0  0  0  0
  146.0593  132.6325  149.8985 C   0  0  0  0  0  0  0  0  0  0  0  0
  144.8904  134.4329  150.9746 C   0  0  2  0  0  0  0  0  0  0  0  0
  145.5982  135.7525  150.5906 C   0  0  0  0  0  0  0  0  0  0  0  0
  145.0205  136.3012  149.4246 O   0  0  0  0  0  0  0  0  0  0  0  0
  150.2447  132.3797  155.1697 S   0  0  0  0  0  0  0  0  0  0  0  0
  151.3925  133.0859  156.2803 C   0  0  0  0  0  0  0  0  0  0  0  0
  152.2712  132.2232  157.1236 C   0  0  0  0  0  0  0  0  0  0  0  0
  152.0848  135.1947  158.1254 H   0  0  0  0  0  0  0  0  0  0  0  0
  151.8741  136.4441  156.9063 H   0  0  0  0  0  0  0  0  0  0  0  0
  153.2306  135.3295  156.7960 H   0  0  0  0  0  0  0  0  0  0  0  0
  148.9079  135.0088  153.1084 H   0  0  0  0  0  0  0  0  0  0  0  0
  147.2510  134.8795  152.0569 H   0  0  0  0  0  0  0  0  0  0  0  0
  144.9376  133.4214  152.9185 H   0  0  0  0  0  0  0  0  0  0  0  0
  146.5501  131.5693  151.7816 H   0  0  0  0  0  0  0  0  0  0  0  0
  144.5392  130.4851  150.8532 H   0  0  0  0  0  0  0  0  0  0  0  0
  143.8706  131.4826  152.1437 H   0  0  0  0  0  0  0  0  0  0  0  0
  143.4784  131.7623  149.2550 H   0  0  0  0  0  0  0  0  0  0  0  0
  142.7811  132.8012  150.4952 H   0  0  0  0  0  0  0  0  0  0  0  0
  144.6027  133.9087  148.8261 H   0  0  0  0  0  0  0  0  0  0  0  0
  146.9619  133.2346  149.7866 H   0  0  0  0  0  0  0  0  0  0  0  0
  146.1030  131.7943  149.2009 H   0  0  0  0  0  0  0  0  0  0  0  0
  143.8930  134.6956  151.3316 H   0  0  0  0  0  0  0  0  0  0  0  0
  145.4910  136.4896  151.3863 H   0  0  0  0  0  0  0  0  0  0  0  0
  146.6653  135.6034  150.4250 H   0  0  0  0  0  0  0  0  0  0  0  0
  145.4105  135.8846  148.6712 H   0  0  0  0  0  0  0  0  0  0  0  0
  153.2939  132.6008  157.1317 H   0  0  0  0  0  0  0  0  0  0  0  0
  152.2968  131.1996  156.7489 H   0  0  0  0  0  0  0  0  0  0  0  0
  151.9125  132.1969  158.1526 H   0  0  0  0  0  0  0  0  0  0  0  0
  1  2  1  0  0  0  0
  1 21  1  0  0  0  0
  1 22  1  0  0  0  0
  1 23  1  0  0  0  0
  2 19  2  0  0  0  0
  2  3  1  0  0  0  0
  3  4  2  0  0  0  0
  4  5  1  0  0  0  0
  4 18  1  0  0  0  0
  5  6  1  0  0  0  0
  5 24  1  0  0  0  0
  6  7  2  0  0  0  0
  6  8  1  0  0  0  0
  8  9  1  0  0  0  0
  8 25  1  0  0  0  0
  9 15  1  0  0  0  0
  9 10  1  0  0  0  0
  9 26  1  0  0  0  0
 10 14  1  0  0  0  0
 10 11  1  0  0  0  0
 10 27  1  0  0  0  0
 11 12  1  0  0  0  0
 11 28  1  0  0  0  0
 11 29  1  0  0  0  0
 12 13  1  0  0  0  0
 12 30  1  0  0  0  0
 12 31  1  0  0  0  0
 13 14  1  0  0  0  0
 13 15  1  0  0  0  0
 13 32  1  0  0  0  0
 14 33  1  0  0  0  0
 14 34  1  0  0  0  0
 15 16  1  0  0  0  0
 15 35  1  0  0  0  0
 16 17  1  0  0  0  0
 16 36  1  0  0  0  0
 16 37  1  0  0  0  0
 17 38  1  0  0  0  0
 18 19  1  0  0  0  0
 19 20  1  0  0  0  0
 20 39  1  0  0  0  0
 20 40  1  0  0  0  0
 20 41  1  0  0  0  0
M  END
> <s_m_source_file>
AV-unprocessed.smi

> <i_m_source_file_index>
794

> <i_lp_mmshare_version>
43012

> <i_f3d_flags>
0

> <s_epik_input>
W0NIM11jMW5jKHNjMVtDSDNdKVtOSF1DKD1PKVtOSF1bQ0BIXShbQ0BASF0yMylbQ0BIXShbQ0gyXVtPSF0pW0NAQEhdKFtDSDJdMylbQ0gyXVtDSDJdMg==

> <s_epik_cmdline>
J2VwaWtfcHl0aG9uJywgJy1waCcsICc3LjAnLCAnLXRuJywgJzgnLCAnLW1hJywgJzIwMCcsICctbWV0YWxfYmluZGluZycsICctaW1hZScsICc8aW5maWxlLm1hZT4nLCAnLW9tYWUnLCAnPG91dGZpbGUubWFlPic=

> <r_lp_tautomer_probability>
0.999

> <r_epik_Ionization_Penalty>
0.000713029

> <r_epik_Ionization_Penalty_Charging>
0

> <r_epik_Ionization_Penalty_Neutral>
0.000713029

> <r_epik_State_Penalty>
0.000177984

> <r_epik_Charging_Adjusted_Penalty>
0.000177984

> <i_epik_Tot_Q>
0

> <i_epik_Tot_abs_Q>
0

> <r_epik_Metal_State_Penalty>
-0

> <b_epik_Metal_Only>
0

> <s_lp_Force_Field>
OPLS_2005

> <r_lp_Energy>
48.2777

> <b_lp_Chiralities_Consistent>
1

> <s_lp_Variant>
AV-unprocessed.smi:794-5

> <Gold.Version>
5.8.1

> <Gold.Id.Protein>
6NUR|6NUR_protein|mol2

> <Gold.PLP.Fitness>
40.7433

> <Gold.PLP.PLP>
-33.6300

> <Gold.PLP.part.hbond>
-3.9787

> <Gold.PLP.part.metal>
0.0000

> <Gold.PLP.part.buried>
0.4126

> <Gold.PLP.part.nonpolar>
-28.3594

> <Gold.PLP.part.repulsive>
0.1576

> <Gold.PLP.ligand.clash>
0.0000

> <Gold.PLP.ligand.torsion>
0.4058

> <Gold.PLP.Chemscore.Hbond>
2.6373

> <Gold.PLP.Chemscore.CHOScore>
0.0000

> <Gold.PLP.Chemscore.Metal>
0.0000

> <Gold.Chemscore.Hbonds>
donor molecule, donor type, donor heavy atom, donor atom, acceptor molecule, acceptor atom, score
      L1  H     5    24       P1  7948  1.00
      L1  H     8    25       P1  7948  0.65
      L1  H    17    38       P1  7921  1.00

> <Gold.PLP.Chemscore.Internal.Correction>
0.0131

> <Gold.Rescore>
     Score         DG    S(hbond)    S(metal)    S(lipo)     H(rot)  DE(clash)    DE(int)     intcor
     16.99     -17.62       1.89        0.00      88.71       1.78       0.16       0.48       ----

> <Gold.Chemscore.Fitness>
16.9850

> <Gold.Chemscore.DG>
-17.6247

> <Gold.Chemscore.ZeroCoef>
-5.4800

> <Gold.Chemscore.Hbond>
1.8927

> <Gold.Chemscore.Metal>
0.0000

> <Gold.Chemscore.Lipo>
88.7134

> <Gold.Chemscore.Internal_Hbond>
0.0000

> <Gold.Chemscore.DEClash>
0.1603

> <Gold.Chemscore.DEInternal>
0.4794

> <Gold.Chemscore.Rot>
1.7798

> <Gold.Chemscore.Internal.Correction>
   9.000000E+99

> <Gold.Chemscore.Hbonds>
donor molecule, donor type, donor heavy atom, donor atom, acceptor molecule, acceptor atom, score
      L1  H     5    24       P1  7948  0.26
      L1  H     8    25       P1  7948  0.60
      L1  H    17    38       P1  7921  1.00

> <Gold.Chemscore.Hbond.Weighted>
-6.3215

> <Gold.Chemscore.Metal.Weighted>
-0.0000

> <Gold.Chemscore.Lipo.Weighted>
-10.3795

> <Gold.Chemscore.Internal_Hbond.Weighted>
0.0000

> <Gold.Chemscore.DEClash.Weighted>
0.1603

> <Gold.Chemscore.DEInternal.Weighted>
0.4794

> <Gold.Chemscore.Rot.Weighted>
4.5562

> <Gold.Chemscore.Internal.Correction.Weighted>
   9.000000E+99

> <Gold.Protein.RotatedTorsions>
[ 6907 6896 6895 6894 ] final   -7.17 input  -60.11 | X-H torsion
[ 7974 7965 7964 7962 ] final -169.89 input  175.53 | X-H torsion
[ 8008 7997 7996 7995 ] final -153.06 input   59.86 | X-H torsion
[ 10167 10162 10161 10158 ] final  116.76 input  -65.29 | X-H torsion
[ 10718 10713 10712 10709 ] final   18.36 input   66.30 | X-H torsion
[ 10763 10752 10751 10750 ] final   58.31 input  -60.55 | X-H torsion
[ 11005 11000 10999 10996 ] final   37.42 input  -57.11 | X-H torsion

> <Gold.Protein.ActiveResidues>
 VAL166  LYS551  ARG553  GLY616  TRP617  ASP618  TYR619  PRO620  LYS621  CYS622 
 ASP623  PHE694  ASN695  SER759  ASP760  ASP761  ALA762  ILE779  LEU786  VAL792 
 PHE793  MET794  SER795  GLU796  ALA797  LYS798  CYS799  TRP800  GLU811  SER814 

> <Gold.Protein.RotatedAtoms>
  151.4538  135.1032  159.9704 H   0  0  0  0  0  0  0  0  0  0  0  0  # atno 6907 bound_to 6896
  152.4878  133.8416  159.7166 H   0  0  0  0  0  0  0  0  0  0  0  0  # atno 6908 bound_to 6896
  150.9004  133.7066  159.2908 H   0  0  0  0  0  0  0  0  0  0  0  0  # atno 6909 bound_to 6896
  144.7178  140.2154  143.6322 H   0  0  0  0  0  0  0  0  0  0  0  0  # atno 7974 bound_to 7965
  155.6649  140.0726  157.2541 H   0  0  0  0  0  0  0  0  0  0  0  0  # atno 8008 bound_to 7997
  154.4135  140.1709  156.1867 H   0  0  0  0  0  0  0  0  0  0  0  0  # atno 8009 bound_to 7997
  155.9666  140.3365  155.6541 H   0  0  0  0  0  0  0  0  0  0  0  0  # atno 8010 bound_to 7997
  139.6225  144.7103  151.2604 H   0  0  0  0  0  0  0  0  0  0  0  0  # atno 10167 bound_to 10162
  157.0953  130.6445  149.5859 H   0  0  0  0  0  0  0  0  0  0  0  0  # atno 10718 bound_to 10713
  152.9868  135.5611  154.5531 H   0  0  0  0  0  0  0  0  0  0  0  0  # atno 10763 bound_to 10752
  154.4964  135.2795  155.1457 H   0  0  0  0  0  0  0  0  0  0  0  0  # atno 10764 bound_to 10752
  154.2906  135.6327  153.5436 H   0  0  0  0  0  0  0  0  0  0  0  0  # atno 10765 bound_to 10752
  140.2227  134.3621  155.7998 H   0  0  0  0  0  0  0  0  0  0  0  0  # atno 11005 bound_to 11000
  145.8551  139.2195  143.1749 LP  0  0  0  0  0  0  0  0  0  0  0  0  # atno 17320 bound_to 7965
  146.0225  140.8335  142.9916 LP  0  0  0  0  0  0  0  0  0  0  0  0  # atno 17321 bound_to 7965
  140.7390  143.6630  150.8148 LP  0  0  0  0  0  0  0  0  0  0  0  0  # atno 17342 bound_to 10162
  140.0242  143.5510  152.2787 LP  0  0  0  0  0  0  0  0  0  0  0  0  # atno 17343 bound_to 10162
  155.9887  130.4932  150.7183 LP  0  0  0  0  0  0  0  0  0  0  0  0  # atno 17370 bound_to 10713
  157.4687  131.0891  151.0666 LP  0  0  0  0  0  0  0  0  0  0  0  0  # atno 17371 bound_to 10713
  141.2222  133.7202  156.8602 LP  0  0  0  0  0  0  0  0  0  0  0  0  # atno 17394 bound_to 11000
  140.1833  134.9018  157.2974 LP  0  0  0  0  0  0  0  0  0  0  0  0  # atno 17395 bound_to 11000

$$$$
