AV-unprocessed.smi:36|AV-procd|sdf|279|dock2
  -GOLD-   2262016 53D 1   1.00000     0.00000
 Structure written by MMmdl.
 64 67  0  0  0  0  0  0  0  0  1 V2000
  143.8044  133.1448  150.7794 C   0  0  0  0  0  0  0  0  0  0  0  0
  144.9157  133.8857  151.5412 C   0  0  0  0  0  0  0  0  0  0  0  0
  145.2731  135.1895  150.8070 C   0  0  0  0  0  0  0  0  0  0  0  0
  144.4460  134.2086  152.9696 C   0  0  0  0  0  0  0  0  0  0  0  0
  146.4715  132.7809  151.6344 Si  0  0  0  0  0  0  0  0  0  0  0  0
  146.1048  131.1333  152.5060 C   0  0  0  0  0  0  0  0  0  0  0  0
  147.1787  132.4534  149.9006 C   0  0  0  0  0  0  0  0  0  0  0  0
  147.6303  133.6105  152.5449 O   0  0  0  0  0  0  0  0  0  0  0  0
  148.8153  133.0273  153.0499 C   0  0  0  0  0  0  0  0  0  0  0  0
  148.9770  133.3970  154.5317 C   0  0  2  0  0  0  0  0  0  0  0  0
  149.4647  134.7348  154.6383 O   0  0  0  0  0  0  0  0  0  0  0  0
  150.7519  134.6882  155.1609 C   0  0  1  0  0  0  0  0  0  0  0  0
  151.0332  135.9645  155.8735 N   0  0  0  0  0  0  0  0  0  0  0  0
  151.4391  136.1644  157.1753 C   0  0  0  0  0  0  0  0  0  0  0  0
  151.5983  137.4142  157.5220 N   0  0  0  0  0  0  0  0  0  0  0  0
  151.2845  138.1264  156.3708 C   0  0  0  0  0  0  0  0  0  0  0  0
  151.2465  139.5072  156.0455 C   0  0  0  0  0  0  0  0  0  0  0  0
  151.5517  140.4356  156.9825 N   0  0  0  0  0  0  0  0  0  0  0  0
  151.2160  141.8488  156.9880 C   0  0  0  0  0  0  0  0  0  0  0  0
  150.5406  142.3660  156.0975 O   0  0  0  0  0  0  0  0  0  0  0  0
  151.6734  142.6311  158.1849 C   0  0  0  0  0  0  0  0  0  0  0  0
  152.2702  141.9633  159.2781 C   0  0  0  0  0  0  0  0  0  0  0  0
  152.6918  142.6854  160.4114 C   0  0  0  0  0  0  0  0  0  0  0  0
  152.5134  144.0806  160.4648 C   0  0  0  0  0  0  0  0  0  0  0  0
  151.9083  144.7525  159.3860 C   0  0  0  0  0  0  0  0  0  0  0  0
  151.4858  144.0314  158.2518 C   0  0  0  0  0  0  0  0  0  0  0  0
  150.8880  139.8405  154.7771 N   0  0  0  0  0  0  0  0  0  0  0  0
  150.5844  138.8881  153.8899 C   0  0  0  0  0  0  0  0  0  0  0  0
  150.5724  137.5640  154.0584 N   0  0  0  0  0  0  0  0  0  0  0  0
  150.9331  137.2244  155.3293 C   0  0  0  0  0  0  0  0  0  0  0  0
  150.7533  133.5133  156.1248 C   0  0  0  0  0  0  0  0  0  0  0  0
  149.9658  132.5068  155.3108 C   0  0  1  0  0  0  0  0  0  0  0  0
  149.3129  131.5744  156.1473 O   0  0  0  0  0  0  0  0  0  0  0  0
  142.9012  133.7518  150.7077 H   0  0  0  0  0  0  0  0  0  0  0  0
  143.5350  132.2126  151.2768 H   0  0  0  0  0  0  0  0  0  0  0  0
  144.1150  132.8981  149.7638 H   0  0  0  0  0  0  0  0  0  0  0  0
  145.6022  134.9943  149.7863 H   0  0  0  0  0  0  0  0  0  0  0  0
  146.0772  135.7229  151.3148 H   0  0  0  0  0  0  0  0  0  0  0  0
  144.4159  135.8614  150.7516 H   0  0  0  0  0  0  0  0  0  0  0  0
  143.5714  134.8599  152.9620 H   0  0  0  0  0  0  0  0  0  0  0  0
  145.2277  134.7133  153.5388 H   0  0  0  0  0  0  0  0  0  0  0  0
  144.1757  133.3028  153.5134 H   0  0  0  0  0  0  0  0  0  0  0  0
  145.3567  130.5525  151.9672 H   0  0  0  0  0  0  0  0  0  0  0  0
  145.7302  131.2893  153.5174 H   0  0  0  0  0  0  0  0  0  0  0  0
  146.9995  130.5162  152.5852 H   0  0  0  0  0  0  0  0  0  0  0  0
  146.4664  131.9180  149.2734 H   0  0  0  0  0  0  0  0  0  0  0  0
  148.0868  131.8528  149.9433 H   0  0  0  0  0  0  0  0  0  0  0  0
  147.4284  133.3808  149.3861 H   0  0  0  0  0  0  0  0  0  0  0  0
  148.7541  131.9452  152.9319 H   0  0  0  0  0  0  0  0  0  0  0  0
  149.6815  133.3646  152.4798 H   0  0  0  0  0  0  0  0  0  0  0  0
  147.9979  133.3834  155.0130 H   0  0  0  0  0  0  0  0  0  0  0  0
  151.4975  134.6132  154.3675 H   0  0  0  0  0  0  0  0  0  0  0  0
  151.6107  135.3513  157.8657 H   0  0  0  0  0  0  0  0  0  0  0  0
  152.0853  140.1063  157.7737 H   0  0  0  0  0  0  0  0  0  0  0  0
  152.4138  140.8923  159.2528 H   0  0  0  0  0  0  0  0  0  0  0  0
  153.1518  142.1677  161.2401 H   0  0  0  0  0  0  0  0  0  0  0  0
  152.8371  144.6340  161.3342 H   0  0  0  0  0  0  0  0  0  0  0  0
  151.7657  145.8222  159.4291 H   0  0  0  0  0  0  0  0  0  0  0  0
  151.0157  144.5662  157.4393 H   0  0  0  0  0  0  0  0  0  0  0  0
  150.3104  139.2375  152.9056 H   0  0  0  0  0  0  0  0  0  0  0  0
  151.7673  133.1950  156.3695 H   0  0  0  0  0  0  0  0  0  0  0  0
  150.2246  133.7948  157.0374 H   0  0  0  0  0  0  0  0  0  0  0  0
  150.6402  131.9803  154.6354 H   0  0  0  0  0  0  0  0  0  0  0  0
  148.3999  131.5411  155.9059 H   0  0  0  0  0  0  0  0  0  0  0  0
  1  2  1  0  0  0  0
  1 34  1  0  0  0  0
  1 35  1  0  0  0  0
  1 36  1  0  0  0  0
  2  3  1  0  0  0  0
  2  4  1  0  0  0  0
  2  5  1  0  0  0  0
  3 37  1  0  0  0  0
  3 38  1  0  0  0  0
  3 39  1  0  0  0  0
  4 40  1  0  0  0  0
  4 41  1  0  0  0  0
  4 42  1  0  0  0  0
  5  6  1  0  0  0  0
  5  7  1  0  0  0  0
  5  8  1  0  0  0  0
  6 43  1  0  0  0  0
  6 44  1  0  0  0  0
  6 45  1  0  0  0  0
  7 46  1  0  0  0  0
  7 47  1  0  0  0  0
  7 48  1  0  0  0  0
  8  9  1  0  0  0  0
  9 10  1  0  0  0  0
  9 49  1  0  0  0  0
  9 50  1  0  0  0  0
 10 32  1  0  0  0  0
 10 11  1  0  0  0  0
 10 51  1  0  0  0  0
 11 12  1  0  0  0  0
 12 13  1  0  0  0  0
 12 31  1  0  0  0  0
 12 52  1  0  0  0  0
 13 30  1  0  0  0  0
 13 14  1  0  0  0  0
 14 15  2  0  0  0  0
 14 53  1  0  0  0  0
 15 16  1  0  0  0  0
 16 30  2  0  0  0  0
 16 17  1  0  0  0  0
 17 18  1  0  0  0  0
 17 27  2  0  0  0  0
 18 19  1  0  0  0  0
 18 54  1  0  0  0  0
 19 20  2  0  0  0  0
 19 21  1  0  0  0  0
 21 26  1  0  0  0  0
 21 22  2  0  0  0  0
 22 23  1  0  0  0  0
 22 55  1  0  0  0  0
 23 24  2  0  0  0  0
 23 56  1  0  0  0  0
 24 25  1  0  0  0  0
 24 57  1  0  0  0  0
 25 26  2  0  0  0  0
 25 58  1  0  0  0  0
 26 59  1  0  0  0  0
 27 28  1  0  0  0  0
 28 29  2  0  0  0  0
 28 60  1  0  0  0  0
 29 30  1  0  0  0  0
 31 32  1  0  0  0  0
 31 61  1  0  0  0  0
 31 62  1  0  0  0  0
 32 33  1  0  0  0  0
 32 63  1  0  0  0  0
 33 64  1  0  0  0  0
M  END
> <s_m_source_file>
AV-unprocessed.smi

> <i_m_source_file_index>
36

> <i_lp_mmshare_version>
43012

> <i_f3d_flags>
0

> <s_epik_input>
W0NIM11DKFtDSDNdKShbQ0gzXSlbU2ldKFtDSDNdKShbQ0gzXSlPW0NIMl1bQ0BASF0xT1tDQEhdKFtDSDJdW0NASF0xW09IXSluKFtjSF1uMiljKGMyMyluW2NIXW5jM1tOSF1DKD1PKWM0W2NIXVtjSF1bY0hdW2NIXVtjSF00

> <s_epik_cmdline>
J2VwaWtfcHl0aG9uJywgJy1waCcsICc3LjAnLCAnLXRuJywgJzgnLCAnLW1hJywgJzIwMCcsICctbWV0YWxfYmluZGluZycsICctaW1hZScsICc8aW5maWxlLm1hZT4nLCAnLW9tYWUnLCAnPG91dGZpbGUubWFlPic=

> <r_lp_tautomer_probability>
1

> <r_epik_Ionization_Penalty>
0.00150433

> <r_epik_Ionization_Penalty_Charging>
0

> <r_epik_Ionization_Penalty_Neutral>
0.00150433

> <r_epik_State_Penalty>
0.00724046

> <r_epik_Charging_Adjusted_Penalty>
0.00724046

> <i_epik_Tot_Q>
0

> <i_epik_Tot_abs_Q>
0

> <r_epik_Metal_State_Penalty>
0.323355

> <b_epik_Metal_Only>
0

> <s_epik_Chemistry_Notes>
This compound contains an acetal/aminal-like group ( X-CH(R)-Y where X, Y are N, S, or O) that may be acid/base labile, releasing an aldehyde.

> <s_lp_Force_Field>
OPLS_2005

> <r_lp_Energy>
30.8875

> <b_lp_Chiralities_Consistent>
1

> <s_lp_Variant>
AV-unprocessed.smi:36-1

> <Gold.Version>
5.8.1

> <Gold.Id.Protein>
6NUR|6NUR_protein|mol2

> <Gold.PLP.Fitness>
55.6961

> <Gold.PLP.PLP>
-52.1202

> <Gold.PLP.part.hbond>
-1.0000

> <Gold.PLP.part.metal>
0.0000

> <Gold.PLP.part.buried>
-2.8112

> <Gold.PLP.part.nonpolar>
-50.0584

> <Gold.PLP.part.repulsive>
3.5379

> <Gold.PLP.ligand.clash>
0.0000

> <Gold.PLP.ligand.torsion>
0.8287

> <Gold.PLP.Chemscore.Hbond>
0.6500

> <Gold.PLP.Chemscore.CHOScore>
1.0000

> <Gold.PLP.Chemscore.Metal>
0.0000

> <Gold.Chemscore.Hbonds>
donor molecule, donor type, donor heavy atom, donor atom, acceptor molecule, acceptor atom, score
      P1  H  7989  7998       L1    27  0.60
      L1  C    28    60       P1  7957  1.00

> <Gold.PLP.Chemscore.Internal.Correction>
0.2833

> <Gold.Rescore>
     Score         DG    S(hbond)    S(metal)    S(lipo)     H(rot)  DE(clash)    DE(int)     intcor
      9.24     -14.57       0.07        0.00     134.81       2.70       3.26       2.08       ----

> <Gold.Chemscore.Fitness>
9.2386

> <Gold.Chemscore.DG>
-14.5749

> <Gold.Chemscore.ZeroCoef>
-5.4800

> <Gold.Chemscore.Hbond>
0.0732

> <Gold.Chemscore.Metal>
0.0000

> <Gold.Chemscore.Lipo>
134.8111

> <Gold.Chemscore.Internal_Hbond>
0.0000

> <Gold.Chemscore.DEClash>
3.2611

> <Gold.Chemscore.DEInternal>
2.0752

> <Gold.Chemscore.Rot>
2.7041

> <Gold.Chemscore.Internal.Correction>
   9.000000E+99

> <Gold.Chemscore.Hbonds>
donor molecule, donor type, donor heavy atom, donor atom, acceptor molecule, acceptor atom, score
      P1  H  7989  7998       L1    27  0.04

> <Gold.Chemscore.Hbond.Weighted>
-0.2445

> <Gold.Chemscore.Metal.Weighted>
-0.0000

> <Gold.Chemscore.Lipo.Weighted>
-15.7729

> <Gold.Chemscore.Internal_Hbond.Weighted>
0.0000

> <Gold.Chemscore.DEClash.Weighted>
3.2611

> <Gold.Chemscore.DEInternal.Weighted>
2.0752

> <Gold.Chemscore.Rot.Weighted>
6.9225

> <Gold.Chemscore.Internal.Correction.Weighted>
   9.000000E+99

> <Gold.Protein.RotatedTorsions>
[ 6907 6896 6895 6894 ] final -111.39 input  -60.11 | X-H torsion
[ 7974 7965 7964 7962 ] final  -62.52 input  175.53 | X-H torsion
[ 8008 7997 7996 7995 ] final   30.17 input   59.86 | X-H torsion
[ 10167 10162 10161 10158 ] final    2.38 input  -65.29 | X-H torsion
[ 10718 10713 10712 10709 ] final -148.44 input   66.30 | X-H torsion
[ 10763 10752 10751 10750 ] final  166.51 input  -60.55 | X-H torsion
[ 11005 11000 10999 10996 ] final -150.88 input  -57.11 | X-H torsion

> <Gold.Protein.ActiveResidues>
 VAL166  LYS551  ARG553  GLY616  TRP617  ASP618  TYR619  PRO620  LYS621  CYS622 
 ASP623  PHE694  ASN695  SER759  ASP760  ASP761  ALA762  ILE779  LEU786  VAL792 
 PHE793  MET794  SER795  GLU796  ALA797  LYS798  CYS799  TRP800  GLU811  SER814 

> <Gold.Protein.RotatedAtoms>
  150.7687  133.9242  159.3406 H   0  0  0  0  0  0  0  0  0  0  0  0  # atno 6907 bound_to 6896
  151.7133  135.0906  160.0281 H   0  0  0  0  0  0  0  0  0  0  0  0  # atno 6908 bound_to 6896
  152.3695  133.6363  159.6112 H   0  0  0  0  0  0  0  0  0  0  0  0  # atno 6909 bound_to 6896
  145.7903  140.8713  143.0284 H   0  0  0  0  0  0  0  0  0  0  0  0  # atno 7974 bound_to 7965
  155.0861  140.3215  155.4587 H   0  0  0  0  0  0  0  0  0  0  0  0  # atno 8008 bound_to 7997
  156.2755  140.2086  156.5934 H   0  0  0  0  0  0  0  0  0  0  0  0  # atno 8009 bound_to 7997
  154.6940  140.0513  157.0379 H   0  0  0  0  0  0  0  0  0  0  0  0  # atno 8010 bound_to 7997
  140.6638  143.7234  150.7788 H   0  0  0  0  0  0  0  0  0  0  0  0  # atno 10167 bound_to 10162
  156.4203  130.8025  151.2248 H   0  0  0  0  0  0  0  0  0  0  0  0  # atno 10718 bound_to 10713
  154.3400  135.2754  155.2427 H   0  0  0  0  0  0  0  0  0  0  0  0  # atno 10763 bound_to 10752
  154.4702  135.5885  153.6320 H   0  0  0  0  0  0  0  0  0  0  0  0  # atno 10764 bound_to 10752
  152.9858  135.6086  154.3600 H   0  0  0  0  0  0  0  0  0  0  0  0  # atno 10765 bound_to 10752
  140.7355  134.3573  157.5158 H   0  0  0  0  0  0  0  0  0  0  0  0  # atno 11005 bound_to 11000
  144.6783  140.0113  143.7484 LP  0  0  0  0  0  0  0  0  0  0  0  0  # atno 17320 bound_to 7965
  145.9984  139.3071  143.0942 LP  0  0  0  0  0  0  0  0  0  0  0  0  # atno 17321 bound_to 7965
  140.0907  143.4880  152.2480 LP  0  0  0  0  0  0  0  0  0  0  0  0  # atno 17342 bound_to 10162
  139.5880  144.7539  151.3472 LP  0  0  0  0  0  0  0  0  0  0  0  0  # atno 17343 bound_to 10162
  157.7508  131.0230  150.3816 LP  0  0  0  0  0  0  0  0  0  0  0  0  # atno 17370 bound_to 10713
  156.4132  130.3938  149.6877 LP  0  0  0  0  0  0  0  0  0  0  0  0  # atno 17371 bound_to 10713
  139.8817  134.9047  156.2882 LP  0  0  0  0  0  0  0  0  0  0  0  0  # atno 17394 bound_to 11000
  140.9883  133.7224  156.0775 LP  0  0  0  0  0  0  0  0  0  0  0  0  # atno 17395 bound_to 11000

$$$$
