AV-unprocessed.smi:2342|AV-procd|sdf|9354|dock2
  -GOLD-   2272012573D 1   1.00000     0.00000
 Structure written by MMmdl.
 38 38  0  0  0  0  0  0  0  0  2 V2000
  150.5054  139.2281  154.3554 C   0  0  0  0  0  0  0  0  0  0  0  0
  151.0213  137.8117  154.6573 C   0  0  2  0  0  0  0  0  0  0  0  0
  149.9280  136.9325  155.3162 C   0  0  0  0  0  0  0  0  0  0  0  0
  150.0917  135.5109  155.0266 N   0  0  0  0  0  0  0  0  0  0  0  0
  149.1086  134.6814  154.6454 C   0  0  0  0  0  0  0  0  0  0  0  0
  147.9173  134.9916  154.6441 O   0  0  0  0  0  0  0  0  0  0  0  0
  149.5428  133.2991  154.1572 C   0  0  0  0  0  0  0  0  0  0  0  0
  148.3582  132.5790  153.5801 C   0  0  0  0  0  0  0  0  0  0  0  0
  147.9090  131.3280  153.9200 C   0  0  0  0  0  0  0  0  0  0  0  0
  146.4644  130.8998  153.0488 S   0  0  0  0  0  0  0  0  0  0  0  0
  146.5235  132.4603  152.2213 C   0  0  0  0  0  0  0  0  0  0  0  0
  145.5182  132.9379  151.2013 C   0  0  0  0  0  0  0  0  0  0  0  0
  144.0956  132.8486  151.7868 C   0  0  0  0  0  0  0  0  0  0  0  0
  145.5532  132.0653  149.9280 C   0  0  0  0  0  0  0  0  0  0  0  0
  145.8453  134.3844  150.7826 C   0  0  0  0  0  0  0  0  0  0  0  0
  147.5706  133.1994  152.6052 N   0  0  0  0  0  0  0  0  0  0  0  0
  152.2981  137.8913  155.5139 C   0  0  0  0  0  0  0  0  0  0  0  0
  152.6780  136.8431  156.0818 O   0  0  0  0  0  0  0  0  0  0  0  0
  152.8744  138.9993  155.5808 O   0  5  0  0  0  0  0  0  0  0  0  0
  151.2786  139.8430  153.8929 H   0  0  0  0  0  0  0  0  0  0  0  0
  150.1736  139.7354  155.2622 H   0  0  0  0  0  0  0  0  0  0  0  0
  149.6602  139.1941  153.6678 H   0  0  0  0  0  0  0  0  0  0  0  0
  151.2955  137.3482  153.7081 H   0  0  0  0  0  0  0  0  0  0  0  0
  149.9577  137.0531  156.3995 H   0  0  0  0  0  0  0  0  0  0  0  0
  148.9374  137.2664  155.0034 H   0  0  0  0  0  0  0  0  0  0  0  0
  151.0401  135.1651  154.9904 H   0  0  0  0  0  0  0  0  0  0  0  0
  150.3362  133.4095  153.4167 H   0  0  0  0  0  0  0  0  0  0  0  0
  149.9680  132.7354  154.9885 H   0  0  0  0  0  0  0  0  0  0  0  0
  148.3270  130.6444  154.6437 H   0  0  0  0  0  0  0  0  0  0  0  0
  143.3472  133.1876  151.0699 H   0  0  0  0  0  0  0  0  0  0  0  0
  143.9900  133.4627  152.6818 H   0  0  0  0  0  0  0  0  0  0  0  0
  143.8454  131.8234  152.0625 H   0  0  0  0  0  0  0  0  0  0  0  0
  145.3136  131.0240  150.1477 H   0  0  0  0  0  0  0  0  0  0  0  0
  146.5336  132.0888  149.4505 H   0  0  0  0  0  0  0  0  0  0  0  0
  144.8281  132.4117  149.1909 H   0  0  0  0  0  0  0  0  0  0  0  0
  145.1434  134.7504  150.0327 H   0  0  0  0  0  0  0  0  0  0  0  0
  146.8479  134.4572  150.3596 H   0  0  0  0  0  0  0  0  0  0  0  0
  145.7964  135.0669  151.6319 H   0  0  0  0  0  0  0  0  0  0  0  0
  1  2  1  0  0  0  0
  1 20  1  0  0  0  0
  1 21  1  0  0  0  0
  1 22  1  0  0  0  0
  2  3  1  0  0  0  0
  2 17  1  0  0  0  0
  2 23  1  0  0  0  0
  3  4  1  0  0  0  0
  3 24  1  0  0  0  0
  3 25  1  0  0  0  0
  4  5  1  0  0  0  0
  4 26  1  0  0  0  0
  5  6  2  0  0  0  0
  5  7  1  0  0  0  0
  7  8  1  0  0  0  0
  7 27  1  0  0  0  0
  7 28  1  0  0  0  0
  8 16  1  0  0  0  0
  8  9  2  0  0  0  0
  9 10  1  0  0  0  0
  9 29  1  0  0  0  0
 10 11  1  0  0  0  0
 11 12  1  0  0  0  0
 11 16  2  0  0  0  0
 12 13  1  0  0  0  0
 12 14  1  0  0  0  0
 12 15  1  0  0  0  0
 13 30  1  0  0  0  0
 13 31  1  0  0  0  0
 13 32  1  0  0  0  0
 14 33  1  0  0  0  0
 14 34  1  0  0  0  0
 14 35  1  0  0  0  0
 15 36  1  0  0  0  0
 15 37  1  0  0  0  0
 15 38  1  0  0  0  0
 17 18  2  0  0  0  0
 17 19  1  0  0  0  0
M  CHG  1  19  -1
M  END
> <s_m_source_file>
AV-unprocessed.smi

> <i_m_source_file_index>
2342

> <i_lp_mmshare_version>
43012

> <i_f3d_flags>
0

> <s_epik_input>
Tz1DKFtPSF0pW0NASF0oW0NIM10pW0NIMl1bTkhdQyg9TylbQ0gyXWMxW2NIXXNjKG4xKUMoW0NIM10pKFtDSDNdKVtDSDNd

> <s_epik_cmdline>
J2VwaWtfcHl0aG9uJywgJy1waCcsICc3LjAnLCAnLXRuJywgJzgnLCAnLW1hJywgJzIwMCcsICctbWV0YWxfYmluZGluZycsICctaW1hZScsICc8aW5maWxlLm1hZT4nLCAnLW9tYWUnLCAnPG91dGZpbGUubWFlPic=

> <r_epik_Ionization_Penalty>
0.00120065

> <r_epik_Ionization_Penalty_Charging>
0.00115909

> <r_epik_Ionization_Penalty_Neutral>
4.15663e-05

> <r_epik_State_Penalty>
0.00076313

> <r_epik_Charging_Adjusted_Penalty>
0.00192222

> <i_epik_Tot_Q>
-1

> <i_epik_Tot_abs_Q>
1

> <r_epik_Metal_State_Penalty>
-0

> <b_epik_Metal_Only>
0

> <s_lp_Force_Field>
OPLS_2005

> <r_lp_Energy>
-10.4991

> <b_lp_Chiralities_Consistent>
1

> <s_lp_Variant>
AV-unprocessed.smi:2342-1

> <Gold.Version>
5.8.1

> <Gold.Id.Protein>
6NUR|6NUR_protein|mol2

> <Gold.PLP.Fitness>
43.8427

> <Gold.PLP.PLP>
-34.3363

> <Gold.PLP.part.hbond>
-2.0000

> <Gold.PLP.part.metal>
0.0000

> <Gold.PLP.part.buried>
-5.3927

> <Gold.PLP.part.nonpolar>
-27.9925

> <Gold.PLP.part.repulsive>
0.3658

> <Gold.PLP.ligand.clash>
0.0000

> <Gold.PLP.ligand.torsion>
1.0517

> <Gold.PLP.Chemscore.Hbond>
3.8240

> <Gold.PLP.Chemscore.CHOScore>
0.0000

> <Gold.PLP.Chemscore.Metal>
0.0000

> <Gold.Chemscore.Hbonds>
donor molecule, donor type, donor heavy atom, donor atom, acceptor molecule, acceptor atom, score
      P1  H  7997  8009       L1    19  2.00
      P1  H 10752 10763       L1    18  1.73

> <Gold.PLP.Chemscore.Internal.Correction>
0.1378

> <Gold.Rescore>
     Score         DG    S(hbond)    S(metal)    S(lipo)     H(rot)  DE(clash)    DE(int)     intcor
     10.92     -14.09       1.89        0.00      71.69       2.38       0.21       2.96       ----

> <Gold.Chemscore.Fitness>
10.9226

> <Gold.Chemscore.DG>
-14.0921

> <Gold.Chemscore.ZeroCoef>
-5.4800

> <Gold.Chemscore.Hbond>
1.8923

> <Gold.Chemscore.Metal>
0.0000

> <Gold.Chemscore.Lipo>
71.6896

> <Gold.Chemscore.Internal_Hbond>
0.0000

> <Gold.Chemscore.DEClash>
0.2090

> <Gold.Chemscore.DEInternal>
2.9605

> <Gold.Chemscore.Rot>
2.3812

> <Gold.Chemscore.Internal.Correction>
   9.000000E+99

> <Gold.Chemscore.Hbonds>
donor molecule, donor type, donor heavy atom, donor atom, acceptor molecule, acceptor atom, score
      P1  H  7997  8009       L1    19  0.98
      P1  H 10752 10763       L1    18  0.82

> <Gold.Chemscore.Hbond.Weighted>
-6.3204

> <Gold.Chemscore.Metal.Weighted>
-0.0000

> <Gold.Chemscore.Lipo.Weighted>
-8.3877

> <Gold.Chemscore.Internal_Hbond.Weighted>
0.0000

> <Gold.Chemscore.DEClash.Weighted>
0.2090

> <Gold.Chemscore.DEInternal.Weighted>
2.9605

> <Gold.Chemscore.Rot.Weighted>
6.0959

> <Gold.Chemscore.Internal.Correction.Weighted>
   9.000000E+99

> <Gold.Protein.RotatedTorsions>
[ 6907 6896 6895 6894 ] final  -19.66 input  -60.11 | X-H torsion
[ 7974 7965 7964 7962 ] final   16.93 input  175.53 | X-H torsion
[ 8008 7997 7996 7995 ] final -144.43 input   59.86 | X-H torsion
[ 10167 10162 10161 10158 ] final   28.89 input  -65.29 | X-H torsion
[ 10718 10713 10712 10709 ] final -155.43 input   66.30 | X-H torsion
[ 10763 10752 10751 10750 ] final   93.96 input  -60.55 | X-H torsion
[ 11005 11000 10999 10996 ] final    1.13 input  -57.11 | X-H torsion

> <Gold.Protein.ActiveResidues>
 VAL166  LYS551  ARG553  GLY616  TRP617  ASP618  TYR619  PRO620  LYS621  CYS622 
 ASP623  PHE694  ASN695  SER759  ASP760  ASP761  ALA762  ILE779  LEU786  VAL792 
 PHE793  MET794  SER795  GLU796  ALA797  LYS798  CYS799  TRP800  GLU811  SER814 

> <Gold.Protein.RotatedAtoms>
  151.2597  135.0650  159.9093 H   0  0  0  0  0  0  0  0  0  0  0  0  # atno 6907 bound_to 6896
  152.5368  134.0244  159.8006 H   0  0  0  0  0  0  0  0  0  0  0  0  # atno 6908 bound_to 6896
  151.0465  133.5611  159.2677 H   0  0  0  0  0  0  0  0  0  0  0  0  # atno 6909 bound_to 6896
  146.2234  139.8675  142.8593 H   0  0  0  0  0  0  0  0  0  0  0  0  # atno 7974 bound_to 7965
  155.5267  140.0596  157.2896 H   0  0  0  0  0  0  0  0  0  0  0  0  # atno 8008 bound_to 7997
  154.4498  140.1943  156.0498 H   0  0  0  0  0  0  0  0  0  0  0  0  # atno 8009 bound_to 7997
  156.0681  140.3263  155.7546 H   0  0  0  0  0  0  0  0  0  0  0  0  # atno 8010 bound_to 7997
  140.4813  144.0611  150.6266 H   0  0  0  0  0  0  0  0  0  0  0  0  # atno 10167 bound_to 10162
  156.5128  130.8442  151.2653 H   0  0  0  0  0  0  0  0  0  0  0  0  # atno 10718 bound_to 10713
  153.2362  135.4306  155.0649 H   0  0  0  0  0  0  0  0  0  0  0  0  # atno 10763 bound_to 10752
  154.8320  135.3391  154.6715 H   0  0  0  0  0  0  0  0  0  0  0  0  # atno 10764 bound_to 10752
  153.7140  135.7021  153.5086 H   0  0  0  0  0  0  0  0  0  0  0  0  # atno 10765 bound_to 10752
  140.6189  133.9680  155.8214 H   0  0  0  0  0  0  0  0  0  0  0  0  # atno 11005 bound_to 11000
  145.2641  141.0087  143.3809 LP  0  0  0  0  0  0  0  0  0  0  0  0  # atno 17320 bound_to 7965
  144.9275  139.4338  143.6511 LP  0  0  0  0  0  0  0  0  0  0  0  0  # atno 17321 bound_to 7965
  140.3854  143.2780  152.0122 LP  0  0  0  0  0  0  0  0  0  0  0  0  # atno 17342 bound_to 10162
  139.4834  144.6121  151.7415 LP  0  0  0  0  0  0  0  0  0  0  0  0  # atno 17343 bound_to 10162
  157.7448  130.9944  150.2705 LP  0  0  0  0  0  0  0  0  0  0  0  0  # atno 17370 bound_to 10713
  156.3224  130.3788  149.7563 LP  0  0  0  0  0  0  0  0  0  0  0  0  # atno 17371 bound_to 10713
  141.0756  134.0140  157.3462 LP  0  0  0  0  0  0  0  0  0  0  0  0  # atno 17394 bound_to 11000
  139.9161  135.0197  156.7887 LP  0  0  0  0  0  0  0  0  0  0  0  0  # atno 17395 bound_to 11000

$$$$
