AV-unprocessed.smi:2390|AV-procd|sdf|9477|dock2
  -GOLD-   2272013103D 1   1.00000     0.00000
 Structure written by MMmdl.
 46 47  0  0  0  0  0  0  0  0  2 V2000
  151.9647  145.7529  160.2779 C   0  0  0  0  0  0  0  0  0  0  0  0
  151.9587  144.3993  159.5986 C   0  0  0  0  0  0  0  0  0  0  0  0
  152.8707  143.3974  159.9827 C   0  0  0  0  0  0  0  0  0  0  0  0
  152.8070  142.1564  159.3254 C   0  0  0  0  0  0  0  0  0  0  0  0
  151.8459  141.9705  158.3132 C   0  0  0  0  0  0  0  0  0  0  0  0
  150.9770  143.0397  157.9747 C   0  0  0  0  0  0  0  0  0  0  0  0
  149.9799  142.8724  156.9776 N   0  0  0  0  0  0  0  0  0  0  0  0
  149.2755  141.7656  156.6853 C   0  0  0  0  0  0  0  0  0  0  0  0
  149.3867  140.6804  157.2571 O   0  0  0  0  0  0  0  0  0  0  0  0
  148.4197  141.9837  155.6752 N   0  0  0  0  0  0  0  0  0  0  0  0
  147.5069  140.9964  155.0945 C   0  0  2  0  0  0  0  0  0  0  0  0
  148.0019  140.6161  153.6891 C   0  0  0  0  0  0  0  0  0  0  0  0
  146.0255  141.4825  155.1161 C   0  0  2  0  0  0  0  0  0  0  0  0
  145.8584  142.8275  154.3656 C   0  0  0  0  0  0  0  0  0  0  0  0
  145.5034  141.5038  156.5227 N   0  3  0  0  0  0  0  0  0  0  0  0
  145.6785  140.2633  157.3249 C   0  0  0  0  0  0  0  0  0  0  0  0
  145.0068  140.4111  158.7014 C   0  0  0  0  0  0  0  0  0  0  0  0
  145.5357  141.5412  159.3811 O   0  0  0  0  0  0  0  0  0  0  0  0
  145.2925  142.7450  158.6666 C   0  0  0  0  0  0  0  0  0  0  0  0
  145.9898  142.6748  157.2990 C   0  0  0  0  0  0  0  0  0  0  0  0
  151.0340  144.2219  158.6298 N   0  0  0  0  0  0  0  0  0  0  0  0
  152.9482  145.9761  160.6926 H   0  0  0  0  0  0  0  0  0  0  0  0
  151.2380  145.7684  161.0906 H   0  0  0  0  0  0  0  0  0  0  0  0
  151.7088  146.5447  159.5728 H   0  0  0  0  0  0  0  0  0  0  0  0
  153.5953  143.5704  160.7648 H   0  0  0  0  0  0  0  0  0  0  0  0
  153.4799  141.3564  159.5970 H   0  0  0  0  0  0  0  0  0  0  0  0
  151.7834  141.0103  157.8242 H   0  0  0  0  0  0  0  0  0  0  0  0
  149.8603  143.6561  156.3527 H   0  0  0  0  0  0  0  0  0  0  0  0
  148.4025  142.9065  155.2653 H   0  0  0  0  0  0  0  0  0  0  0  0
  147.5879  140.0794  155.6782 H   0  0  0  0  0  0  0  0  0  0  0  0
  147.3332  139.8952  153.2180 H   0  0  0  0  0  0  0  0  0  0  0  0
  148.9905  140.1579  153.7382 H   0  0  0  0  0  0  0  0  0  0  0  0
  148.0807  141.4807  153.0305 H   0  0  0  0  0  0  0  0  0  0  0  0
  145.4244  140.7562  154.5661 H   0  0  0  0  0  0  0  0  0  0  0  0
  146.2417  142.7690  153.3480 H   0  0  0  0  0  0  0  0  0  0  0  0
  146.3840  143.6421  154.8649 H   0  0  0  0  0  0  0  0  0  0  0  0
  144.8100  143.1100  154.2691 H   0  0  0  0  0  0  0  0  0  0  0  0
  145.2222  139.4083  156.8268 H   0  0  0  0  0  0  0  0  0  0  0  0
  146.7415  140.0481  157.4456 H   0  0  0  0  0  0  0  0  0  0  0  0
  143.9247  140.5092  158.5967 H   0  0  0  0  0  0  0  0  0  0  0  0
  145.1875  139.5210  159.3043 H   0  0  0  0  0  0  0  0  0  0  0  0
  144.2197  142.9088  158.5510 H   0  0  0  0  0  0  0  0  0  0  0  0
  145.6826  143.5830  159.2447 H   0  0  0  0  0  0  0  0  0  0  0  0
  147.0697  142.5998  157.4367 H   0  0  0  0  0  0  0  0  0  0  0  0
  145.8049  143.6035  156.7611 H   0  0  0  0  0  0  0  0  0  0  0  0
  144.5035  141.6216  156.4328 H   0  0  0  0  0  0  0  0  0  0  0  0
  1  2  1  0  0  0  0
  1 22  1  0  0  0  0
  1 23  1  0  0  0  0
  1 24  1  0  0  0  0
  2 21  1  0  0  0  0
  2  3  2  0  0  0  0
  3  4  1  0  0  0  0
  3 25  1  0  0  0  0
  4  5  2  0  0  0  0
  4 26  1  0  0  0  0
  5  6  1  0  0  0  0
  5 27  1  0  0  0  0
  6  7  1  0  0  0  0
  6 21  2  0  0  0  0
  7  8  1  0  0  0  0
  7 28  1  0  0  0  0
  8  9  2  0  0  0  0
  8 10  1  0  0  0  0
 10 11  1  0  0  0  0
 10 29  1  0  0  0  0
 11 12  1  0  0  0  0
 11 13  1  0  0  0  0
 11 30  1  0  0  0  0
 12 31  1  0  0  0  0
 12 32  1  0  0  0  0
 12 33  1  0  0  0  0
 13 14  1  0  0  0  0
 13 15  1  0  0  0  0
 13 34  1  0  0  0  0
 14 35  1  0  0  0  0
 14 36  1  0  0  0  0
 14 37  1  0  0  0  0
 15 20  1  0  0  0  0
 15 16  1  0  0  0  0
 15 46  1  0  0  0  0
 16 17  1  0  0  0  0
 16 38  1  0  0  0  0
 16 39  1  0  0  0  0
 17 18  1  0  0  0  0
 17 40  1  0  0  0  0
 17 41  1  0  0  0  0
 18 19  1  0  0  0  0
 19 20  1  0  0  0  0
 19 42  1  0  0  0  0
 19 43  1  0  0  0  0
 20 44  1  0  0  0  0
 20 45  1  0  0  0  0
M  CHG  1  15   1
M  END
> <s_m_source_file>
AV-unprocessed.smi

> <i_m_source_file_index>
2390

> <i_lp_mmshare_version>
43012

> <i_f3d_flags>
0

> <s_epik_input>
W0NIM11jMVtjSF1bY0hdW2NIXWMobjEpW05IXUMoPU8pW05IXVtDQEhdKFtDSDNdKVtDQEhdKFtDSDNdKU4yW0NIMl1bQ0gyXU9bQ0gyXVtDSDJdMg==

> <s_epik_cmdline>
J2VwaWtfcHl0aG9uJywgJy1waCcsICc3LjAnLCAnLXRuJywgJzgnLCAnLW1hJywgJzIwMCcsICctbWV0YWxfYmluZGluZycsICctaW1hZScsICc8aW5maWxlLm1hZT4nLCAnLW9tYWUnLCAnPG91dGZpbGUubWFlPic=

> <r_epik_Ionization_Penalty>
0.60259

> <r_epik_Ionization_Penalty_Charging>
0.602531

> <r_epik_Ionization_Penalty_Neutral>
5.9516e-05

> <r_epik_State_Penalty>
0.617039

> <r_epik_Charging_Adjusted_Penalty>
1.21957

> <i_epik_Tot_Q>
1

> <i_epik_Tot_abs_Q>
1

> <r_epik_Metal_State_Penalty>
0.617047

> <b_epik_Metal_Only>
0

> <s_lp_Force_Field>
OPLS_2005

> <r_lp_Energy>
33.8136

> <b_lp_Chiralities_Consistent>
1

> <s_lp_Variant>
AV-unprocessed.smi:2390-5

> <Gold.Version>
5.8.1

> <Gold.Id.Protein>
6NUR|6NUR_protein|mol2

> <Gold.PLP.Fitness>
41.9915

> <Gold.PLP.PLP>
-34.4196

> <Gold.PLP.part.hbond>
-2.9504

> <Gold.PLP.part.metal>
0.0000

> <Gold.PLP.part.buried>
-4.4101

> <Gold.PLP.part.nonpolar>
-28.7470

> <Gold.PLP.part.repulsive>
0.2626

> <Gold.PLP.ligand.clash>
0.0000

> <Gold.PLP.ligand.torsion>
0.5263

> <Gold.PLP.Chemscore.Hbond>
2.8320

> <Gold.PLP.Chemscore.CHOScore>
0.0000

> <Gold.PLP.Chemscore.Metal>
0.0000

> <Gold.Chemscore.Hbonds>
donor molecule, donor type, donor heavy atom, donor atom, acceptor molecule, acceptor atom, score
      L1  H     7    28       P1  8028  0.99
      L1  H    10    29       P1  8028  0.85
      P1  H  6934  6946       L1    18  0.98

> <Gold.PLP.Chemscore.Internal.Correction>
0.1286

> <Gold.Rescore>
     Score         DG    S(hbond)    S(metal)    S(lipo)     H(rot)  DE(clash)    DE(int)     intcor
     17.20     -20.03       2.73        0.00      79.03       1.48       0.16       2.68       ----

> <Gold.Chemscore.Fitness>
17.1982

> <Gold.Chemscore.DG>
-20.0346

> <Gold.Chemscore.ZeroCoef>
-5.4800

> <Gold.Chemscore.Hbond>
2.7270

> <Gold.Chemscore.Metal>
0.0000

> <Gold.Chemscore.Lipo>
79.0296

> <Gold.Chemscore.Internal_Hbond>
0.0000

> <Gold.Chemscore.DEClash>
0.1574

> <Gold.Chemscore.DEInternal>
2.6790

> <Gold.Chemscore.Rot>
1.4844

> <Gold.Chemscore.Internal.Correction>
   9.000000E+99

> <Gold.Chemscore.Hbonds>
donor molecule, donor type, donor heavy atom, donor atom, acceptor molecule, acceptor atom, score
      L1  H     7    28       P1  8028  0.92
      L1  H    10    29       P1  8028  0.83
      P1  H  6934  6946       L1    18  0.49

> <Gold.Chemscore.Hbond.Weighted>
-9.1081

> <Gold.Chemscore.Metal.Weighted>
-0.0000

> <Gold.Chemscore.Lipo.Weighted>
-9.2465

> <Gold.Chemscore.Internal_Hbond.Weighted>
0.0000

> <Gold.Chemscore.DEClash.Weighted>
0.1574

> <Gold.Chemscore.DEInternal.Weighted>
2.6790

> <Gold.Chemscore.Rot.Weighted>
3.8000

> <Gold.Chemscore.Internal.Correction.Weighted>
   9.000000E+99

> <Gold.Protein.RotatedTorsions>
[ 6907 6896 6895 6894 ] final  -87.40 input  -60.11 | X-H torsion
[ 7974 7965 7964 7962 ] final   75.14 input  175.53 | X-H torsion
[ 8008 7997 7996 7995 ] final  151.82 input   59.86 | X-H torsion
[ 10167 10162 10161 10158 ] final   35.35 input  -65.29 | X-H torsion
[ 10718 10713 10712 10709 ] final   70.50 input   66.30 | X-H torsion
[ 10763 10752 10751 10750 ] final  136.58 input  -60.55 | X-H torsion
[ 11005 11000 10999 10996 ] final   49.66 input  -57.11 | X-H torsion

> <Gold.Protein.ActiveResidues>
 VAL166  LYS551  ARG553  GLY616  TRP617  ASP618  TYR619  PRO620  LYS621  CYS622 
 ASP623  PHE694  ASN695  SER759  ASP760  ASP761  ALA762  ILE779  LEU786  VAL792 
 PHE793  MET794  SER795  GLU796  ALA797  LYS798  CYS799  TRP800  GLU811  SER814 

> <Gold.Protein.RotatedAtoms>
  150.6866  134.2902  159.4663 H   0  0  0  0  0  0  0  0  0  0  0  0  # atno 6907 bound_to 6896
  152.0807  134.9470  160.0582 H   0  0  0  0  0  0  0  0  0  0  0  0  # atno 6908 bound_to 6896
  152.0824  133.4124  159.4544 H   0  0  0  0  0  0  0  0  0  0  0  0  # atno 6909 bound_to 6896
  145.7194  139.2643  143.1605 H   0  0  0  0  0  0  0  0  0  0  0  0  # atno 7974 bound_to 7965
  156.2657  140.2037  156.6236 H   0  0  0  0  0  0  0  0  0  0  0  0  # atno 8008 bound_to 7997
  154.6738  140.0547  157.0218 H   0  0  0  0  0  0  0  0  0  0  0  0  # atno 8009 bound_to 7997
  155.1099  140.3214  155.4527 H   0  0  0  0  0  0  0  0  0  0  0  0  # atno 8010 bound_to 7997
  140.4230  144.1433  150.6150 H   0  0  0  0  0  0  0  0  0  0  0  0  # atno 10167 bound_to 10162
  157.6403  130.9480  150.0660 H   0  0  0  0  0  0  0  0  0  0  0  0  # atno 10718 bound_to 10713
  153.8589  135.3070  155.3437 H   0  0  0  0  0  0  0  0  0  0  0  0  # atno 10763 bound_to 10752
  154.7858  135.4810  153.9945 H   0  0  0  0  0  0  0  0  0  0  0  0  # atno 10764 bound_to 10752
  153.1473  135.6836  153.9029 H   0  0  0  0  0  0  0  0  0  0  0  0  # atno 10765 bound_to 10752
  140.1084  134.4987  155.8699 H   0  0  0  0  0  0  0  0  0  0  0  0  # atno 11005 bound_to 11000
  146.0640  140.7940  142.9721 LP  0  0  0  0  0  0  0  0  0  0  0  0  # atno 17320 bound_to 7965
  144.6921  140.3240  143.7227 LP  0  0  0  0  0  0  0  0  0  0  0  0  # atno 17321 bound_to 7965
  140.4513  143.2486  151.9344 LP  0  0  0  0  0  0  0  0  0  0  0  0  # atno 17342 bound_to 10162
  139.4783  144.5559  151.8314 LP  0  0  0  0  0  0  0  0  0  0  0  0  # atno 17343 bound_to 10162
  156.1678  130.3645  149.9207 LP  0  0  0  0  0  0  0  0  0  0  0  0  # atno 17370 bound_to 10713
  156.7190  130.8999  151.3616 LP  0  0  0  0  0  0  0  0  0  0  0  0  # atno 17371 bound_to 10713
  141.2124  133.6719  156.6657 LP  0  0  0  0  0  0  0  0  0  0  0  0  # atno 17394 bound_to 11000
  140.3124  134.8075  157.4187 LP  0  0  0  0  0  0  0  0  0  0  0  0  # atno 17395 bound_to 11000

$$$$
