AV-unprocessed.smi:724|AV-procd|sdf|3507|dock7
  -GOLD-   22720 0503D 1   1.00000     0.00000
 Structure written by MMmdl.
 36 37  0  0  0  0  0  0  0  0  1 V2000
  150.1947  144.2967  159.0795 C   0  0  0  0  0  0  0  0  0  0  0  0
  151.6989  144.4576  159.3824 C   0  0  0  0  0  0  0  0  0  0  0  0
  152.4856  144.4374  158.0555 C   0  0  0  0  0  0  0  0  0  0  0  0
  151.9282  145.8189  160.0807 C   0  0  0  0  0  0  0  0  0  0  0  0
  152.1535  143.2599  160.2503 C   0  0  0  0  0  0  0  0  0  0  0  0
  151.8248  143.2125  161.4370 O   0  0  0  0  0  0  0  0  0  0  0  0
  152.9209  142.3128  159.6809 N   0  0  0  0  0  0  0  0  0  0  0  0
  153.5082  141.1640  160.3689 C   0  0  0  0  0  0  0  0  0  0  0  0
  154.1008  140.1280  159.3927 C   0  0  0  0  0  0  0  0  0  0  0  0
  153.1048  139.5659  158.4304 C   0  0  0  0  0  0  0  0  0  0  0  0
  153.1056  139.6984  157.1067 N   0  0  0  0  0  0  0  0  0  0  0  0
  151.9160  139.1190  156.7881 C   0  0  0  0  0  0  0  0  0  0  0  0
  151.4188  139.0120  155.3828 C   0  0  0  0  0  0  0  0  0  0  0  0
  151.0952  137.6594  154.7840 C   0  0  0  0  0  0  0  0  0  0  0  0
  152.2963  138.4228  154.2982 C   0  0  0  0  0  0  0  0  0  0  0  0
  151.2261  138.6104  157.8014 N   0  0  0  0  0  0  0  0  0  0  0  0
  152.0121  138.9288  158.9174 O   0  0  0  0  0  0  0  0  0  0  0  0
  149.8295  145.1096  158.4511 H   0  0  0  0  0  0  0  0  0  0  0  0
  149.6013  144.3020  159.9949 H   0  0  0  0  0  0  0  0  0  0  0  0
  149.9814  143.3636  158.5557 H   0  0  0  0  0  0  0  0  0  0  0  0
  152.3154  143.5166  157.4953 H   0  0  0  0  0  0  0  0  0  0  0  0
  153.5596  144.5250  158.2267 H   0  0  0  0  0  0  0  0  0  0  0  0
  152.1906  145.2651  157.4096 H   0  0  0  0  0  0  0  0  0  0  0  0
  151.6004  146.6433  159.4466 H   0  0  0  0  0  0  0  0  0  0  0  0
  152.9829  145.9869  160.3033 H   0  0  0  0  0  0  0  0  0  0  0  0
  151.3705  145.8950  161.0156 H   0  0  0  0  0  0  0  0  0  0  0  0
  153.1469  142.4201  158.7025 H   0  0  0  0  0  0  0  0  0  0  0  0
  154.2787  141.4935  161.0680 H   0  0  0  0  0  0  0  0  0  0  0  0
  152.7339  140.6939  160.9753 H   0  0  0  0  0  0  0  0  0  0  0  0
  154.9174  140.5775  158.8270 H   0  0  0  0  0  0  0  0  0  0  0  0
  154.5361  139.3018  159.9560 H   0  0  0  0  0  0  0  0  0  0  0  0
  150.7783  139.8534  155.1255 H   0  0  0  0  0  0  0  0  0  0  0  0
  151.2768  136.7775  155.3956 H   0  0  0  0  0  0  0  0  0  0  0  0
  150.2349  137.5979  154.1207 H   0  0  0  0  0  0  0  0  0  0  0  0
  152.2405  138.8719  153.3087 H   0  0  0  0  0  0  0  0  0  0  0  0
  153.2768  138.0479  154.5860 H   0  0  0  0  0  0  0  0  0  0  0  0
  1  2  1  0  0  0  0
  1 18  1  0  0  0  0
  1 19  1  0  0  0  0
  1 20  1  0  0  0  0
  2  3  1  0  0  0  0
  2  4  1  0  0  0  0
  2  5  1  0  0  0  0
  3 21  1  0  0  0  0
  3 22  1  0  0  0  0
  3 23  1  0  0  0  0
  4 24  1  0  0  0  0
  4 25  1  0  0  0  0
  4 26  1  0  0  0  0
  5  6  2  0  0  0  0
  5  7  1  0  0  0  0
  7  8  1  0  0  0  0
  7 27  1  0  0  0  0
  8  9  1  0  0  0  0
  8 28  1  0  0  0  0
  8 29  1  0  0  0  0
  9 10  1  0  0  0  0
  9 30  1  0  0  0  0
  9 31  1  0  0  0  0
 10 17  1  0  0  0  0
 10 11  2  0  0  0  0
 11 12  1  0  0  0  0
 12 13  1  0  0  0  0
 12 16  2  0  0  0  0
 13 15  1  0  0  0  0
 13 14  1  0  0  0  0
 13 32  1  0  0  0  0
 14 15  1  0  0  0  0
 14 33  1  0  0  0  0
 14 34  1  0  0  0  0
 15 35  1  0  0  0  0
 15 36  1  0  0  0  0
 16 17  1  0  0  0  0
M  END
> <s_m_source_file>
AV-unprocessed.smi

> <i_m_source_file_index>
724

> <i_lp_mmshare_version>
43012

> <i_f3d_flags>
0

> <s_epik_input>
W0NIM11DKFtDSDNdKShbQ0gzXSlDKD1PKVtOSF1bQ0gyXVtDSDJdYzFuYyhubzEpW0NIXTJbQ0gyXVtDSDJdMg==

> <s_epik_cmdline>
J2VwaWtfcHl0aG9uJywgJy1waCcsICc3LjAnLCAnLXRuJywgJzgnLCAnLW1hJywgJzIwMCcsICctbWV0YWxfYmluZGluZycsICctaW1hZScsICc8aW5maWxlLm1hZT4nLCAnLW9tYWUnLCAnPG91dGZpbGUubWFlPic=

> <r_lp_tautomer_probability>
1

> <r_epik_Ionization_Penalty>
2.89377e-08

> <r_epik_Ionization_Penalty_Charging>
0

> <r_epik_Ionization_Penalty_Neutral>
2.89377e-08

> <r_epik_State_Penalty>
-0

> <r_epik_Charging_Adjusted_Penalty>
0

> <i_epik_Tot_Q>
0

> <i_epik_Tot_abs_Q>
0

> <r_epik_Metal_State_Penalty>
-0

> <b_epik_Metal_Only>
0

> <s_lp_Force_Field>
OPLS_2005

> <r_lp_Energy>
6.75537

> <b_lp_Chiralities_Consistent>
1

> <s_lp_Variant>
AV-unprocessed.smi:724-1

> <Gold.Version>
5.8.1

> <Gold.Id.Protein>
6NUR|6NUR_protein|mol2

> <Gold.PLP.Fitness>
39.4825

> <Gold.PLP.PLP>
-38.1826

> <Gold.PLP.part.hbond>
-1.8313

> <Gold.PLP.part.metal>
0.0000

> <Gold.PLP.part.buried>
-5.2764

> <Gold.PLP.part.nonpolar>
-31.8242

> <Gold.PLP.part.repulsive>
0.2148

> <Gold.PLP.ligand.clash>
1.4362

> <Gold.PLP.ligand.torsion>
0.5435

> <Gold.PLP.Chemscore.Hbond>
1.2143

> <Gold.PLP.Chemscore.CHOScore>
0.0000

> <Gold.PLP.Chemscore.Metal>
0.0000

> <Gold.Chemscore.Hbonds>
donor molecule, donor type, donor heavy atom, donor atom, acceptor molecule, acceptor atom, score
      P1  H  6933  6945       L1     6  0.01
      P1  H  7997  8010       L1    11  0.75

> <Gold.PLP.Chemscore.Internal.Correction>
0.1801

> <Gold.Rescore>
     Score         DG    S(hbond)    S(metal)    S(lipo)     H(rot)  DE(clash)    DE(int)     intcor
     14.89     -15.41       1.45        0.00      85.34       1.91       0.00       0.52       ----

> <Gold.Chemscore.Fitness>
14.8885

> <Gold.Chemscore.DG>
-15.4088

> <Gold.Chemscore.ZeroCoef>
-5.4800

> <Gold.Chemscore.Hbond>
1.4494

> <Gold.Chemscore.Metal>
0.0000

> <Gold.Chemscore.Lipo>
85.3392

> <Gold.Chemscore.Internal_Hbond>
0.0000

> <Gold.Chemscore.DEClash>
0.0004

> <Gold.Chemscore.DEInternal>
0.5198

> <Gold.Chemscore.Rot>
1.9129

> <Gold.Chemscore.Internal.Correction>
   9.000000E+99

> <Gold.Chemscore.Hbonds>
donor molecule, donor type, donor heavy atom, donor atom, acceptor molecule, acceptor atom, score
      P1  H  6933  6945       L1     6  0.04
      P1  H  7997  8010       L1    11  0.68

> <Gold.Chemscore.Hbond.Weighted>
-4.8411

> <Gold.Chemscore.Metal.Weighted>
-0.0000

> <Gold.Chemscore.Lipo.Weighted>
-9.9847

> <Gold.Chemscore.Internal_Hbond.Weighted>
0.0000

> <Gold.Chemscore.DEClash.Weighted>
0.0004

> <Gold.Chemscore.DEInternal.Weighted>
0.5198

> <Gold.Chemscore.Rot.Weighted>
4.8970

> <Gold.Chemscore.Internal.Correction.Weighted>
   9.000000E+99

> <Gold.Protein.RotatedTorsions>
[ 6907 6896 6895 6894 ] final -177.70 input  -60.11 | X-H torsion
[ 7974 7965 7964 7962 ] final  -78.30 input  175.53 | X-H torsion
[ 8008 7997 7996 7995 ] final   67.33 input   59.86 | X-H torsion
[ 10167 10162 10161 10158 ] final -177.75 input  -65.29 | X-H torsion
[ 10718 10713 10712 10709 ] final   19.61 input   66.30 | X-H torsion
[ 10763 10752 10751 10750 ] final  148.88 input  -60.55 | X-H torsion
[ 11005 11000 10999 10996 ] final -103.83 input  -57.11 | X-H torsion

> <Gold.Protein.ActiveResidues>
 VAL166  LYS551  ARG553  GLY616  TRP617  ASP618  TYR619  PRO620  LYS621  CYS622 
 ASP623  PHE694  ASN695  SER759  ASP760  ASP761  ALA762  ILE779  LEU786  VAL792 
 PHE793  MET794  SER795  GLU796  ALA797  LYS798  CYS799  TRP800  GLU811  SER814 

> <Gold.Protein.RotatedAtoms>
  151.6253  133.3336  159.3096 H   0  0  0  0  0  0  0  0  0  0  0  0  # atno 6907 bound_to 6896
  150.8084  134.7228  159.6677 H   0  0  0  0  0  0  0  0  0  0  0  0  # atno 6908 bound_to 6896
  152.4180  134.6011  160.0051 H   0  0  0  0  0  0  0  0  0  0  0  0  # atno 6909 bound_to 6896
  145.5883  140.9434  143.1306 H   0  0  0  0  0  0  0  0  0  0  0  0  # atno 7974 bound_to 7965
  155.6911  140.3496  155.4894 H   0  0  0  0  0  0  0  0  0  0  0  0  # atno 8008 bound_to 7997
  155.9523  140.1121  157.0989 H   0  0  0  0  0  0  0  0  0  0  0  0  # atno 8009 bound_to 7997
  154.4124  140.1192  156.5055 H   0  0  0  0  0  0  0  0  0  0  0  0  # atno 8010 bound_to 7997
  139.5465  144.2222  152.0997 H   0  0  0  0  0  0  0  0  0  0  0  0  # atno 10167 bound_to 10162
  157.1128  130.6516  149.5902 H   0  0  0  0  0  0  0  0  0  0  0  0  # atno 10718 bound_to 10713
  154.0620  135.2873  155.3323 H   0  0  0  0  0  0  0  0  0  0  0  0  # atno 10763 bound_to 10752
  154.6802  135.5266  153.8256 H   0  0  0  0  0  0  0  0  0  0  0  0  # atno 10764 bound_to 10752
  153.0519  135.6579  154.0808 H   0  0  0  0  0  0  0  0  0  0  0  0  # atno 10765 bound_to 10752
  141.1128  133.8673  157.1535 H   0  0  0  0  0  0  0  0  0  0  0  0  # atno 11005 bound_to 11000
  144.7363  139.7577  143.7328 LP  0  0  0  0  0  0  0  0  0  0  0  0  # atno 17320 bound_to 7965
  146.1666  139.4800  142.9954 LP  0  0  0  0  0  0  0  0  0  0  0  0  # atno 17321 bound_to 7965
  140.1709  144.4936  150.6580 LP  0  0  0  0  0  0  0  0  0  0  0  0  # atno 17342 bound_to 10162
  140.6715  143.2287  151.5614 LP  0  0  0  0  0  0  0  0  0  0  0  0  # atno 17343 bound_to 10162
  155.9846  130.4872  150.6992 LP  0  0  0  0  0  0  0  0  0  0  0  0  # atno 17370 bound_to 10713
  157.4544  131.0876  151.0812 LP  0  0  0  0  0  0  0  0  0  0  0  0  # atno 17371 bound_to 10713
  140.0032  135.0019  157.0235 LP  0  0  0  0  0  0  0  0  0  0  0  0  # atno 17394 bound_to 11000
  140.4729  134.1368  155.7205 LP  0  0  0  0  0  0  0  0  0  0  0  0  # atno 17395 bound_to 11000

$$$$
