AV-unprocessed.smi:125|AV-procd|sdf|1149|dock8
  -GOLD-   2262018283D 1   1.00000     0.00000
 Structure written by MMmdl.
 59 62  0  0  0  0  0  0  0  0  1 V2000
  143.7427  136.2348  152.2740 C   0  0  0  0  0  0  0  0  0  0  0  0
  145.0659  136.9089  152.5970 C   0  0  0  0  0  0  0  0  0  0  0  0
  145.5733  137.8594  151.6866 C   0  0  0  0  0  0  0  0  0  0  0  0
  146.7942  138.5147  151.9318 C   0  0  0  0  0  0  0  0  0  0  0  0
  147.5398  138.2190  153.0964 C   0  0  0  0  0  0  0  0  0  0  0  0
  148.7703  138.8488  153.4268 N   0  0  0  0  0  0  0  0  0  0  0  0
  149.3964  138.9078  154.6164 C   0  0  0  0  0  0  0  0  0  0  0  0
  148.9411  138.4594  155.6691 O   0  0  0  0  0  0  0  0  0  0  0  0
  150.7450  139.6438  154.6106 C   0  0  0  0  0  0  0  0  0  0  0  0
  151.2201  139.9931  155.9673 N   0  0  0  0  0  0  0  0  0  0  0  0
  152.0055  139.0448  156.6690 C   0  0  0  0  0  0  0  0  0  0  0  0
  152.2941  137.9579  156.1655 O   0  0  0  0  0  0  0  0  0  0  0  0
  152.4334  139.4451  158.0045 C   0  0  0  0  0  0  0  0  0  0  0  0
  153.1994  138.6166  158.7344 F   0  0  0  0  0  0  0  0  0  0  0  0
  152.0755  140.6391  158.5192 C   0  0  0  0  0  0  0  0  0  0  0  0
  151.2916  141.5468  157.8311 N   0  0  0  0  0  0  0  0  0  0  0  0
  150.9118  142.8778  158.4413 C   0  0  2  0  0  0  0  0  0  0  0  0
  151.6052  144.0209  157.6919 C   0  0  0  0  0  0  0  0  0  0  0  0
  152.8437  144.2395  158.5335 C   0  0  0  0  0  0  0  0  0  0  0  0
  152.3155  143.9526  159.9342 C   0  0  0  0  0  0  0  0  0  0  0  0
  151.3533  142.9141  159.7683 O   0  0  0  0  0  0  0  0  0  0  0  0
  150.8525  141.2415  156.5244 C   0  0  0  0  0  0  0  0  0  0  0  0
  150.1679  142.0443  155.8869 O   0  0  0  0  0  0  0  0  0  0  0  0
  147.0297  137.2827  154.0171 C   0  0  0  0  0  0  0  0  0  0  0  0
  145.8048  136.6253  153.7751 C   0  0  0  0  0  0  0  0  0  0  0  0
  145.2491  135.4222  154.9950 S   0  0  0  0  0  0  0  0  0  0  0  0
  145.8602  135.7303  156.2976 O   0  0  0  0  0  0  0  0  0  0  0  0
  143.7870  135.3040  154.8823 O   0  0  0  0  0  0  0  0  0  0  0  0
  145.9631  133.9495  154.4295 N   0  0  0  0  0  0  0  0  0  0  0  0
  146.2065  132.8471  155.3734 C   0  0  0  0  0  0  0  0  0  0  0  0
  146.4299  131.5220  154.6257 C   0  0  0  0  0  0  0  0  0  0  0  0
  147.4357  131.6755  153.6353 O   0  0  0  0  0  0  0  0  0  0  0  0
  147.0501  132.6174  152.6454 C   0  0  0  0  0  0  0  0  0  0  0  0
  146.8760  134.0066  153.2784 C   0  0  0  0  0  0  0  0  0  0  0  0
  143.2914  136.6655  151.3797 H   0  0  0  0  0  0  0  0  0  0  0  0
  143.0269  136.3582  153.0850 H   0  0  0  0  0  0  0  0  0  0  0  0
  143.8846  135.1722  152.0840 H   0  0  0  0  0  0  0  0  0  0  0  0
  145.0224  138.0984  150.7888 H   0  0  0  0  0  0  0  0  0  0  0  0
  147.1292  139.2501  151.2170 H   0  0  0  0  0  0  0  0  0  0  0  0
  149.2141  139.3513  152.6717 H   0  0  0  0  0  0  0  0  0  0  0  0
  151.4880  139.0330  154.0943 H   0  0  0  0  0  0  0  0  0  0  0  0
  150.6452  140.5270  153.9783 H   0  0  0  0  0  0  0  0  0  0  0  0
  152.4258  140.8845  159.5108 H   0  0  0  0  0  0  0  0  0  0  0  0
  149.8222  142.9280  158.4176 H   0  0  0  0  0  0  0  0  0  0  0  0
  151.8113  143.7724  156.6502 H   0  0  0  0  0  0  0  0  0  0  0  0
  150.9608  144.9002  157.7254 H   0  0  0  0  0  0  0  0  0  0  0  0
  153.6165  143.5188  158.2644 H   0  0  0  0  0  0  0  0  0  0  0  0
  153.2601  145.2419  158.4314 H   0  0  0  0  0  0  0  0  0  0  0  0
  153.1028  143.6612  160.6294 H   0  0  0  0  0  0  0  0  0  0  0  0
  151.8137  144.8329  160.3377 H   0  0  0  0  0  0  0  0  0  0  0  0
  147.5922  137.0677  154.9136 H   0  0  0  0  0  0  0  0  0  0  0  0
  147.0798  133.0920  155.9787 H   0  0  0  0  0  0  0  0  0  0  0  0
  145.3616  132.7421  156.0535 H   0  0  0  0  0  0  0  0  0  0  0  0
  146.7388  130.7461  155.3263 H   0  0  0  0  0  0  0  0  0  0  0  0
  145.5024  131.1781  154.1650 H   0  0  0  0  0  0  0  0  0  0  0  0
  147.8186  132.6536  151.8733 H   0  0  0  0  0  0  0  0  0  0  0  0
  146.1281  132.2954  152.1585 H   0  0  0  0  0  0  0  0  0  0  0  0
  146.4919  134.7089  152.5384 H   0  0  0  0  0  0  0  0  0  0  0  0
  147.8401  134.3895  153.6145 H   0  0  0  0  0  0  0  0  0  0  0  0
  1  2  1  0  0  0  0
  1 35  1  0  0  0  0
  1 36  1  0  0  0  0
  1 37  1  0  0  0  0
  2 25  1  0  0  0  0
  2  3  2  0  0  0  0
  3  4  1  0  0  0  0
  3 38  1  0  0  0  0
  4  5  2  0  0  0  0
  4 39  1  0  0  0  0
  5  6  1  0  0  0  0
  5 24  1  0  0  0  0
  6  7  1  0  0  0  0
  6 40  1  0  0  0  0
  7  8  2  0  0  0  0
  7  9  1  0  0  0  0
  9 10  1  0  0  0  0
  9 41  1  0  0  0  0
  9 42  1  0  0  0  0
 10 22  1  0  0  0  0
 10 11  1  0  0  0  0
 11 12  2  0  0  0  0
 11 13  1  0  0  0  0
 13 14  1  0  0  0  0
 13 15  2  0  0  0  0
 15 16  1  0  0  0  0
 15 43  1  0  0  0  0
 16 17  1  0  0  0  0
 16 22  1  0  0  0  0
 17 21  1  0  0  0  0
 17 18  1  0  0  0  0
 17 44  1  0  0  0  0
 18 19  1  0  0  0  0
 18 45  1  0  0  0  0
 18 46  1  0  0  0  0
 19 20  1  0  0  0  0
 19 47  1  0  0  0  0
 19 48  1  0  0  0  0
 20 21  1  0  0  0  0
 20 49  1  0  0  0  0
 20 50  1  0  0  0  0
 22 23  2  0  0  0  0
 24 25  2  0  0  0  0
 24 51  1  0  0  0  0
 25 26  1  0  0  0  0
 26 27  2  0  0  0  0
 26 28  2  0  0  0  0
 26 29  1  0  0  0  0
 29 34  1  0  0  0  0
 29 30  1  0  0  0  0
 30 31  1  0  0  0  0
 30 52  1  0  0  0  0
 30 53  1  0  0  0  0
 31 32  1  0  0  0  0
 31 54  1  0  0  0  0
 31 55  1  0  0  0  0
 32 33  1  0  0  0  0
 33 34  1  0  0  0  0
 33 56  1  0  0  0  0
 33 57  1  0  0  0  0
 34 58  1  0  0  0  0
 34 59  1  0  0  0  0
M  END
> <s_m_source_file>
AV-unprocessed.smi

> <i_m_source_file_index>
125

> <i_lp_mmshare_version>
43012

> <i_f3d_flags>
0

> <s_epik_input>
W0NIMl0xW0NIMl1PW0NIMl1bQ0gyXU4xUyg9TykoPU8pYzJbY0hdYyhbY0hdW2NIXWMyW0NIM10pW05IXUMoPU8pW0NIMl1uM2MoPU8pYyhGKVtjSF1uKGMzPU8pW0NAQEhdNFtDSDJdW0NIMl1bQ0gyXU80

> <s_epik_cmdline>
J2VwaWtfcHl0aG9uJywgJy1waCcsICc3LjAnLCAnLXRuJywgJzgnLCAnLW1hJywgJzIwMCcsICctbWV0YWxfYmluZGluZycsICctaW1hZScsICc8aW5maWxlLm1hZT4nLCAnLW9tYWUnLCAnPG91dGZpbGUubWFlPic=

> <r_lp_tautomer_probability>
1

> <r_epik_Ionization_Penalty>
4.12263e-06

> <r_epik_Ionization_Penalty_Charging>
3.88729e-08

> <r_epik_Ionization_Penalty_Neutral>
4.08376e-06

> <r_epik_State_Penalty>
-0

> <r_epik_Charging_Adjusted_Penalty>
3.88729e-08

> <i_epik_Tot_Q>
0

> <i_epik_Tot_abs_Q>
0

> <r_epik_Metal_State_Penalty>
-0

> <b_epik_Metal_Only>
0

> <s_epik_Chemistry_Notes>
This compound contains an acetal/aminal-like group ( X-CH(R)-Y where X, Y are N, S, or O) that may be acid/base labile, releasing an aldehyde.

> <s_lp_Force_Field>
OPLS_2005

> <r_lp_Energy>
38.613

> <b_lp_Chiralities_Consistent>
1

> <s_lp_Variant>
AV-unprocessed.smi:125-1

> <Gold.Version>
5.8.1

> <Gold.Id.Protein>
6NUR|6NUR_protein|mol2

> <Gold.PLP.Fitness>
45.5395

> <Gold.PLP.PLP>
-44.2868

> <Gold.PLP.part.hbond>
-2.4222

> <Gold.PLP.part.metal>
0.0000

> <Gold.PLP.part.buried>
4.0964

> <Gold.PLP.part.nonpolar>
-48.2725

> <Gold.PLP.part.repulsive>
1.3562

> <Gold.PLP.ligand.clash>
0.0000

> <Gold.PLP.ligand.torsion>
2.9102

> <Gold.PLP.Chemscore.Hbond>
1.0000

> <Gold.PLP.Chemscore.CHOScore>
0.0000

> <Gold.PLP.Chemscore.Metal>
0.0000

> <Gold.Chemscore.Hbonds>
donor molecule, donor type, donor heavy atom, donor atom, acceptor molecule, acceptor atom, score
      L1  H     6    40       P1  7957  1.00

> <Gold.PLP.Chemscore.Internal.Correction>
4.0732

> <Gold.Rescore>
     Score         DG    S(hbond)    S(metal)    S(lipo)     H(rot)  DE(clash)    DE(int)     intcor
      8.33     -16.43       0.99        0.00     101.37       1.65       1.60       6.50       ----

> <Gold.Chemscore.Fitness>
8.3348

> <Gold.Chemscore.DG>
-16.4320

> <Gold.Chemscore.ZeroCoef>
-5.4800

> <Gold.Chemscore.Hbond>
0.9936

> <Gold.Chemscore.Metal>
0.0000

> <Gold.Chemscore.Lipo>
101.3664

> <Gold.Chemscore.Internal_Hbond>
0.0000

> <Gold.Chemscore.DEClash>
1.6022

> <Gold.Chemscore.DEInternal>
6.4951

> <Gold.Chemscore.Rot>
1.6510

> <Gold.Chemscore.Internal.Correction>
   9.000000E+99

> <Gold.Chemscore.Hbonds>
donor molecule, donor type, donor heavy atom, donor atom, acceptor molecule, acceptor atom, score
      L1  H     6    40       P1  7957  1.00

> <Gold.Chemscore.Hbond.Weighted>
-3.3186

> <Gold.Chemscore.Metal.Weighted>
-0.0000

> <Gold.Chemscore.Lipo.Weighted>
-11.8599

> <Gold.Chemscore.Internal_Hbond.Weighted>
0.0000

> <Gold.Chemscore.DEClash.Weighted>
1.6022

> <Gold.Chemscore.DEInternal.Weighted>
6.4951

> <Gold.Chemscore.Rot.Weighted>
4.2265

> <Gold.Chemscore.Internal.Correction.Weighted>
   9.000000E+99

> <Gold.Protein.RotatedTorsions>
[ 6907 6896 6895 6894 ] final  -56.95 input  -60.11 | X-H torsion
[ 7974 7965 7964 7962 ] final  -77.35 input  175.53 | X-H torsion
[ 8008 7997 7996 7995 ] final -163.89 input   59.86 | X-H torsion
[ 10167 10162 10161 10158 ] final   17.33 input  -65.29 | X-H torsion
[ 10718 10713 10712 10709 ] final  -24.37 input   66.30 | X-H torsion
[ 10763 10752 10751 10750 ] final  -26.14 input  -60.55 | X-H torsion
[ 11005 11000 10999 10996 ] final -107.18 input  -57.11 | X-H torsion

> <Gold.Protein.ActiveResidues>
 VAL166  LYS551  ARG553  GLY616  TRP617  ASP618  TYR619  PRO620  LYS621  CYS622 
 ASP623  PHE694  ASN695  SER759  ASP760  ASP761  ALA762  ILE779  LEU786  VAL792 
 PHE793  MET794  SER795  GLU796  ALA797  LYS798  CYS799  TRP800  GLU811  SER814 

> <Gold.Protein.RotatedAtoms>
  150.8126  134.7289  159.6700 H   0  0  0  0  0  0  0  0  0  0  0  0  # atno 6907 bound_to 6896
  152.4245  134.5890  159.9978 H   0  0  0  0  0  0  0  0  0  0  0  0  # atno 6908 bound_to 6896
  151.6096  133.3311  159.3100 H   0  0  0  0  0  0  0  0  0  0  0  0  # atno 6909 bound_to 6896
  145.6009  140.9409  143.1241 H   0  0  0  0  0  0  0  0  0  0  0  0  # atno 7974 bound_to 7965
  155.8277  140.0929  157.1811 H   0  0  0  0  0  0  0  0  0  0  0  0  # atno 8008 bound_to 7997
  154.3979  140.1425  156.3637 H   0  0  0  0  0  0  0  0  0  0  0  0  # atno 8009 bound_to 7997
  155.8199  140.3446  155.5510 H   0  0  0  0  0  0  0  0  0  0  0  0  # atno 8010 bound_to 7997
  140.5733  143.9119  150.6730 H   0  0  0  0  0  0  0  0  0  0  0  0  # atno 10167 bound_to 10162
  156.4786  130.4540  149.6825 H   0  0  0  0  0  0  0  0  0  0  0  0  # atno 10718 bound_to 10713
  153.7111  135.6950  153.5037 H   0  0  0  0  0  0  0  0  0  0  0  0  # atno 10763 bound_to 10752
  153.2272  135.4350  155.0554 H   0  0  0  0  0  0  0  0  0  0  0  0  # atno 10764 bound_to 10752
  154.8314  135.3475  154.6648 H   0  0  0  0  0  0  0  0  0  0  0  0  # atno 10765 bound_to 10752
  141.0967  133.8958  157.1944 H   0  0  0  0  0  0  0  0  0  0  0  0  # atno 11005 bound_to 11000
  144.7310  139.7725  143.7347 LP  0  0  0  0  0  0  0  0  0  0  0  0  # atno 17320 bound_to 7965
  146.1577  139.4680  143.0008 LP  0  0  0  0  0  0  0  0  0  0  0  0  # atno 17321 bound_to 7965
  140.2600  143.3531  152.1331 LP  0  0  0  0  0  0  0  0  0  0  0  0  # atno 17342 bound_to 10162
  139.5129  144.6924  151.5722 LP  0  0  0  0  0  0  0  0  0  0  0  0  # atno 17343 bound_to 10162
  156.3545  130.7449  151.2413 LP  0  0  0  0  0  0  0  0  0  0  0  0  # atno 17370 bound_to 10713
  157.7485  131.0368  150.4425 LP  0  0  0  0  0  0  0  0  0  0  0  0  # atno 17371 bound_to 10713
  139.9806  135.0099  156.9740 LP  0  0  0  0  0  0  0  0  0  0  0  0  # atno 17394 bound_to 11000
  140.5122  134.0991  155.7273 LP  0  0  0  0  0  0  0  0  0  0  0  0  # atno 17395 bound_to 11000

$$$$
