AV-unprocessed.smi:2335|AV-procd|sdf|9323|dock1
  -GOLD-   2272012543D 1   1.00000     0.00000
 Structure written by MMmdl.
 42 43  0  0  0  0  0  0  0  0  1 V2000
  145.3576  130.2981  151.5779 C   0  0  0  0  0  0  0  0  0  0  0  0
  146.4990  129.7645  152.4498 C   0  0  0  0  0  0  0  0  0  0  0  0
  147.3889  130.8494  152.9578 C   0  0  0  0  0  0  0  0  0  0  0  0
  148.4324  130.6121  153.7625 N   0  0  0  0  0  0  0  0  0  0  0  0
  149.0984  131.7765  154.1186 N   0  0  0  0  0  0  0  0  0  0  0  0
  148.5252  132.8632  153.5834 C   0  0  0  0  0  0  0  0  0  0  0  0
  149.0004  134.1858  153.7840 N   0  0  0  0  0  0  0  0  0  0  0  0
  149.6605  134.6823  154.8450 C   0  0  0  0  0  0  0  0  0  0  0  0
  149.9464  134.0540  155.8643 O   0  0  0  0  0  0  0  0  0  0  0  0
  149.9870  135.9678  154.6518 N   0  0  0  0  0  0  0  0  0  0  0  0
  150.7568  136.7921  155.5819 C   0  0  2  0  0  0  0  0  0  0  0  0
  150.0236  136.9804  156.8956 C   0  0  0  0  0  0  0  0  0  0  0  0
  150.6183  138.2821  157.4473 C   0  0  0  0  0  0  0  0  0  0  0  0
  149.5714  139.1374  158.1777 C   0  0  0  0  0  0  0  0  0  0  0  0
  151.8406  138.0215  158.3441 C   0  0  0  0  0  0  0  0  0  0  0  0
  151.0784  139.0062  156.3072 O   0  0  0  0  0  0  0  0  0  0  0  0
  150.9617  138.2470  155.1051 C   0  0  0  0  0  0  0  0  0  0  0  0
  152.2641  138.4243  154.3089 C   0  0  0  0  0  0  0  0  0  0  0  0
  149.7650  138.8371  154.3291 C   0  0  0  0  0  0  0  0  0  0  0  0
  147.1075  132.5488  152.5976 S   0  0  0  0  0  0  0  0  0  0  0  0
  144.7236  129.4838  151.2269 H   0  0  0  0  0  0  0  0  0  0  0  0
  145.7435  130.8214  150.7024 H   0  0  0  0  0  0  0  0  0  0  0  0
  144.7292  130.9932  152.1351 H   0  0  0  0  0  0  0  0  0  0  0  0
  146.0913  129.2155  153.2995 H   0  0  0  0  0  0  0  0  0  0  0  0
  147.1017  129.0561  151.8811 H   0  0  0  0  0  0  0  0  0  0  0  0
  148.8457  134.8215  153.0157 H   0  0  0  0  0  0  0  0  0  0  0  0
  149.7080  136.4040  153.7854 H   0  0  0  0  0  0  0  0  0  0  0  0
  151.7212  136.3270  155.7966 H   0  0  0  0  0  0  0  0  0  0  0  0
  148.9549  137.1011  156.7110 H   0  0  0  0  0  0  0  0  0  0  0  0
  150.1430  136.1332  157.5718 H   0  0  0  0  0  0  0  0  0  0  0  0
  149.1779  138.6179  159.0520 H   0  0  0  0  0  0  0  0  0  0  0  0
  148.7307  139.3764  157.5257 H   0  0  0  0  0  0  0  0  0  0  0  0
  150.0002  140.0811  158.5163 H   0  0  0  0  0  0  0  0  0  0  0  0
  151.5635  137.4565  159.2347 H   0  0  0  0  0  0  0  0  0  0  0  0
  152.2926  138.9576  158.6737 H   0  0  0  0  0  0  0  0  0  0  0  0
  152.6093  137.4553  157.8176 H   0  0  0  0  0  0  0  0  0  0  0  0
  152.2347  137.8683  153.3718 H   0  0  0  0  0  0  0  0  0  0  0  0
  153.1265  138.0748  154.8770 H   0  0  0  0  0  0  0  0  0  0  0  0
  152.4359  139.4729  154.0653 H   0  0  0  0  0  0  0  0  0  0  0  0
  149.6274  138.3439  153.3665 H   0  0  0  0  0  0  0  0  0  0  0  0
  149.9169  139.8982  154.1299 H   0  0  0  0  0  0  0  0  0  0  0  0
  148.8344  138.7422  154.8891 H   0  0  0  0  0  0  0  0  0  0  0  0
  1  2  1  0  0  0  0
  1 21  1  0  0  0  0
  1 22  1  0  0  0  0
  1 23  1  0  0  0  0
  2  3  1  0  0  0  0
  2 24  1  0  0  0  0
  2 25  1  0  0  0  0
  3 20  1  0  0  0  0
  3  4  2  0  0  0  0
  4  5  1  0  0  0  0
  5  6  2  0  0  0  0
  6  7  1  0  0  0  0
  6 20  1  0  0  0  0
  7  8  1  0  0  0  0
  7 26  1  0  0  0  0
  8  9  2  0  0  0  0
  8 10  1  0  0  0  0
 10 11  1  0  0  0  0
 10 27  1  0  0  0  0
 11 17  1  0  0  0  0
 11 12  1  0  0  0  0
 11 28  1  0  0  0  0
 12 13  1  0  0  0  0
 12 29  1  0  0  0  0
 12 30  1  0  0  0  0
 13 14  1  0  0  0  0
 13 15  1  0  0  0  0
 13 16  1  0  0  0  0
 14 31  1  0  0  0  0
 14 32  1  0  0  0  0
 14 33  1  0  0  0  0
 15 34  1  0  0  0  0
 15 35  1  0  0  0  0
 15 36  1  0  0  0  0
 16 17  1  0  0  0  0
 17 18  1  0  0  0  0
 17 19  1  0  0  0  0
 18 37  1  0  0  0  0
 18 38  1  0  0  0  0
 18 39  1  0  0  0  0
 19 40  1  0  0  0  0
 19 41  1  0  0  0  0
 19 42  1  0  0  0  0
M  END
> <s_m_source_file>
AV-unprocessed.smi

> <i_m_source_file_index>
2335

> <i_lp_mmshare_version>
43012

> <i_f3d_flags>
0

> <s_epik_input>
W0NIM11bQ0gyXWMxbm5jKHMxKVtOSF1DKD1PKVtOSF1bQ0BASF0oQyhPMikoW0NIM10pW0NIM10pW0NIMl1DMihbQ0gzXSlbQ0gzXQ==

> <s_epik_cmdline>
J2VwaWtfcHl0aG9uJywgJy1waCcsICc3LjAnLCAnLXRuJywgJzgnLCAnLW1hJywgJzIwMCcsICctbWV0YWxfYmluZGluZycsICctaW1hZScsICc8aW5maWxlLm1hZT4nLCAnLW9tYWUnLCAnPG91dGZpbGUubWFlPic=

> <r_lp_tautomer_probability>
1

> <r_epik_Ionization_Penalty>
0.000542824

> <r_epik_Ionization_Penalty_Charging>
0

> <r_epik_Ionization_Penalty_Neutral>
0.000542824

> <r_epik_State_Penalty>
-0

> <r_epik_Charging_Adjusted_Penalty>
0

> <i_epik_Tot_Q>
0

> <i_epik_Tot_abs_Q>
0

> <r_epik_Metal_State_Penalty>
0.227439

> <b_epik_Metal_Only>
0

> <s_lp_Force_Field>
OPLS_2005

> <r_lp_Energy>
12.6376

> <b_lp_Chiralities_Consistent>
1

> <s_lp_Variant>
AV-unprocessed.smi:2335-1

> <Gold.Version>
5.8.1

> <Gold.Id.Protein>
6NUR|6NUR_protein|mol2

> <Gold.PLP.Fitness>
34.6902

> <Gold.PLP.PLP>
-29.3405

> <Gold.PLP.part.hbond>
-2.0000

> <Gold.PLP.part.metal>
0.0000

> <Gold.PLP.part.buried>
-5.0635

> <Gold.PLP.part.nonpolar>
-22.2243

> <Gold.PLP.part.repulsive>
0.1906

> <Gold.PLP.ligand.clash>
0.0000

> <Gold.PLP.ligand.torsion>
0.1875

> <Gold.PLP.Chemscore.Hbond>
1.9000

> <Gold.PLP.Chemscore.CHOScore>
0.0000

> <Gold.PLP.Chemscore.Metal>
0.0000

> <Gold.Chemscore.Hbonds>
donor molecule, donor type, donor heavy atom, donor atom, acceptor molecule, acceptor atom, score
      L1  H     7    26       P1  7948  0.85
      L1  H    10    27       P1  7948  0.97

> <Gold.PLP.Chemscore.Internal.Correction>
0.0247

> <Gold.Rescore>
     Score         DG    S(hbond)    S(metal)    S(lipo)     H(rot)  DE(clash)    DE(int)     intcor
     13.58     -14.91       1.46        0.00      65.29       1.21       0.05       1.28       ----

> <Gold.Chemscore.Fitness>
13.5830

> <Gold.Chemscore.DG>
-14.9075

> <Gold.Chemscore.ZeroCoef>
-5.4800

> <Gold.Chemscore.Hbond>
1.4604

> <Gold.Chemscore.Metal>
0.0000

> <Gold.Chemscore.Lipo>
65.2933

> <Gold.Chemscore.Internal_Hbond>
0.0000

> <Gold.Chemscore.DEClash>
0.0491

> <Gold.Chemscore.DEInternal>
1.2754

> <Gold.Chemscore.Rot>
1.2068

> <Gold.Chemscore.Internal.Correction>
   9.000000E+99

> <Gold.Chemscore.Hbonds>
donor molecule, donor type, donor heavy atom, donor atom, acceptor molecule, acceptor atom, score
      L1  H     7    26       P1  7948  0.15
      L1  H    10    27       P1  7948  0.43

> <Gold.Chemscore.Hbond.Weighted>
-4.8777

> <Gold.Chemscore.Metal.Weighted>
-0.0000

> <Gold.Chemscore.Lipo.Weighted>
-7.6393

> <Gold.Chemscore.Internal_Hbond.Weighted>
0.0000

> <Gold.Chemscore.DEClash.Weighted>
0.0491

> <Gold.Chemscore.DEInternal.Weighted>
1.2754

> <Gold.Chemscore.Rot.Weighted>
3.0895

> <Gold.Chemscore.Internal.Correction.Weighted>
   9.000000E+99

> <Gold.Protein.RotatedTorsions>
[ 6907 6896 6895 6894 ] final  -51.09 input  -60.11 | X-H torsion
[ 7974 7965 7964 7962 ] final  157.07 input  175.53 | X-H torsion
[ 8008 7997 7996 7995 ] final  -18.05 input   59.86 | X-H torsion
[ 10167 10162 10161 10158 ] final  122.30 input  -65.29 | X-H torsion
[ 10718 10713 10712 10709 ] final  129.13 input   66.30 | X-H torsion
[ 10763 10752 10751 10750 ] final  -63.23 input  -60.55 | X-H torsion
[ 11005 11000 10999 10996 ] final -153.94 input  -57.11 | X-H torsion

> <Gold.Protein.ActiveResidues>
 VAL166  LYS551  ARG553  GLY616  TRP617  ASP618  TYR619  PRO620  LYS621  CYS622 
 ASP623  PHE694  ASN695  SER759  ASP760  ASP761  ALA762  ILE779  LEU786  VAL792 
 PHE793  MET794  SER795  GLU796  ALA797  LYS798  CYS799  TRP800  GLU811  SER814 

> <Gold.Protein.RotatedAtoms>
  150.8644  134.8004  159.7107 H   0  0  0  0  0  0  0  0  0  0  0  0  # atno 6907 bound_to 6896
  152.4671  134.5047  159.9745 H   0  0  0  0  0  0  0  0  0  0  0  0  # atno 6908 bound_to 6896
  151.5145  133.3440  159.2926 H   0  0  0  0  0  0  0  0  0  0  0  0  # atno 6909 bound_to 6896
  144.7925  139.7290  143.6215 H   0  0  0  0  0  0  0  0  0  0  0  0  # atno 7974 bound_to 7965
  154.4934  140.2126  155.9499 H   0  0  0  0  0  0  0  0  0  0  0  0  # atno 8008 bound_to 7997
  156.1337  140.3192  155.8356 H   0  0  0  0  0  0  0  0  0  0  0  0  # atno 8009 bound_to 7997
  155.4250  140.0499  157.3013 H   0  0  0  0  0  0  0  0  0  0  0  0  # atno 8010 bound_to 7997
  139.5867  144.7009  151.3391 H   0  0  0  0  0  0  0  0  0  0  0  0  # atno 10167 bound_to 10162
  157.5182  131.1098  150.9193 H   0  0  0  0  0  0  0  0  0  0  0  0  # atno 10718 bound_to 10713
  154.3120  135.6213  153.5469 H   0  0  0  0  0  0  0  0  0  0  0  0  # atno 10763 bound_to 10752
  152.9828  135.5703  154.5167 H   0  0  0  0  0  0  0  0  0  0  0  0  # atno 10764 bound_to 10752
  154.4818  135.2863  155.1541 H   0  0  0  0  0  0  0  0  0  0  0  0  # atno 10765 bound_to 10752
  140.7027  134.3919  157.5207 H   0  0  0  0  0  0  0  0  0  0  0  0  # atno 11005 bound_to 11000
  146.2182  139.5588  142.9636 LP  0  0  0  0  0  0  0  0  0  0  0  0  # atno 17320 bound_to 7965
  145.5757  141.0389  143.2149 LP  0  0  0  0  0  0  0  0  0  0  0  0  # atno 17321 bound_to 7965
  140.7137  143.7322  150.7615 LP  0  0  0  0  0  0  0  0  0  0  0  0  # atno 17342 bound_to 10162
  140.0868  143.4916  152.2500 LP  0  0  0  0  0  0  0  0  0  0  0  0  # atno 17343 bound_to 10162
  156.9811  130.5527  149.5296 LP  0  0  0  0  0  0  0  0  0  0  0  0  # atno 17370 bound_to 10713
  156.0335  130.5424  150.8595 LP  0  0  0  0  0  0  0  0  0  0  0  0  # atno 17371 bound_to 10713
  139.8892  134.8836  156.2432 LP  0  0  0  0  0  0  0  0  0  0  0  0  # atno 17394 bound_to 11000
  141.0150  133.7074  156.1173 LP  0  0  0  0  0  0  0  0  0  0  0  0  # atno 17395 bound_to 11000

$$$$
