AV-unprocessed.smi:87|AV-procd|sdf|820|dock10
  -GOLD-   2262017223D 1   1.00000     0.00000
 Structure written by MMmdl.
 58 60  0  0  0  0  0  0  0  0  1 V2000
  149.3428  129.2428  158.5069 C   0  0  0  0  0  0  0  0  0  0  0  0
  148.5175  130.0240  159.5400 C   0  0  0  0  0  0  0  0  0  0  0  0
  149.3029  131.1349  160.2772 C   0  0  0  0  0  0  0  0  0  0  0  0
  150.4079  130.5394  161.1807 C   0  0  0  0  0  0  0  0  0  0  0  0
  149.8816  129.6373  162.3070 C   0  0  0  0  0  0  0  0  0  0  0  0
  148.3555  132.0431  161.1037 C   0  0  0  0  0  0  0  0  0  0  0  0
  147.7232  133.1144  160.3282 N   0  0  0  0  0  0  0  0  0  0  0  0
  146.7242  133.9713  160.9659 C   0  0  0  0  0  0  0  0  0  0  0  0
  147.3345  134.9021  162.0247 C   0  0  0  0  0  0  0  0  0  0  0  0
  147.3926  136.3000  161.5741 C   0  0  0  0  0  0  0  0  0  0  0  0
  147.4385  137.4002  161.2198 N   0  0  0  0  0  0  0  0  0  0  0  0
  147.8779  133.1120  158.9755 C   0  0  0  0  0  0  0  0  0  0  0  0
  148.9753  133.7295  158.4627 N   0  0  0  0  0  0  0  0  0  0  0  0
  149.1874  133.7597  157.1447 C   0  0  0  0  0  0  0  0  0  0  0  0
  148.4408  133.2427  156.1687 N   0  0  0  0  0  0  0  0  0  0  0  0
  147.3412  132.6127  156.6711 C   0  0  0  0  0  0  0  0  0  0  0  0
  146.9848  132.4971  158.0463 C   0  0  0  0  0  0  0  0  0  0  0  0
  145.8055  131.7670  158.1575 N   0  0  0  0  0  0  0  0  0  0  0  0
  145.4805  131.4798  156.9274 C   0  0  0  0  0  0  0  0  0  0  0  0
  146.3489  131.9496  155.9709 N   0  0  0  0  0  0  0  0  0  0  0  0
  146.2346  131.7717  154.5330 C   0  0  0  0  0  0  0  0  0  0  0  0
  145.8731  133.0823  153.7964 C   0  0  2  0  0  0  0  0  0  0  0  0
  144.6099  133.5128  154.2695 O   0  0  0  0  0  0  0  0  0  0  0  0
  145.7581  132.9376  152.2596 C   0  0  2  0  0  0  0  0  0  0  0  0
  145.4322  134.2315  151.4934 C   0  0  0  0  0  0  0  0  0  0  0  0
  143.9237  134.2184  151.4116 C   0  0  0  0  0  0  0  0  0  0  0  0
  143.6608  132.7360  151.2032 C   0  0  0  0  0  0  0  0  0  0  0  0
  144.6409  132.0817  151.9996 O   0  0  0  0  0  0  0  0  0  0  0  0
  148.7090  128.5438  157.9609 H   0  0  0  0  0  0  0  0  0  0  0  0
  150.1378  128.6603  158.9705 H   0  0  0  0  0  0  0  0  0  0  0  0
  149.7966  129.9140  157.7772 H   0  0  0  0  0  0  0  0  0  0  0  0
  147.6800  130.4635  159.0005 H   0  0  0  0  0  0  0  0  0  0  0  0
  148.0795  129.3346  160.2625 H   0  0  0  0  0  0  0  0  0  0  0  0
  149.7964  131.7466  159.5211 H   0  0  0  0  0  0  0  0  0  0  0  0
  151.1263  129.9873  160.5735 H   0  0  0  0  0  0  0  0  0  0  0  0
  150.9724  131.3408  161.6543 H   0  0  0  0  0  0  0  0  0  0  0  0
  150.6961  129.3278  162.9620 H   0  0  0  0  0  0  0  0  0  0  0  0
  149.4155  128.7307  161.9231 H   0  0  0  0  0  0  0  0  0  0  0  0
  149.1471  130.1611  162.9193 H   0  0  0  0  0  0  0  0  0  0  0  0
  147.5857  131.4273  161.5697 H   0  0  0  0  0  0  0  0  0  0  0  0
  148.8893  132.5035  161.9337 H   0  0  0  0  0  0  0  0  0  0  0  0
  146.1887  134.5475  160.2127 H   0  0  0  0  0  0  0  0  0  0  0  0
  145.9699  133.3482  161.4469 H   0  0  0  0  0  0  0  0  0  0  0  0
  146.7437  134.8718  162.9402 H   0  0  0  0  0  0  0  0  0  0  0  0
  148.3486  134.6036  162.2871 H   0  0  0  0  0  0  0  0  0  0  0  0
  150.0842  134.2708  156.8272 H   0  0  0  0  0  0  0  0  0  0  0  0
  144.5960  130.9099  156.6827 H   0  0  0  0  0  0  0  0  0  0  0  0
  147.1873  131.3773  154.1819 H   0  0  0  0  0  0  0  0  0  0  0  0
  145.4857  131.0043  154.3339 H   0  0  0  0  0  0  0  0  0  0  0  0
  146.6125  133.8454  154.0429 H   0  0  0  0  0  0  0  0  0  0  0  0
  144.1481  132.7653  154.6176 H   0  0  0  0  0  0  0  0  0  0  0  0
  146.6706  132.4962  151.8555 H   0  0  0  0  0  0  0  0  0  0  0  0
  145.8255  135.1448  151.9348 H   0  0  0  0  0  0  0  0  0  0  0  0
  145.8429  134.1643  150.4849 H   0  0  0  0  0  0  0  0  0  0  0  0
  143.4886  134.5551  152.3534 H   0  0  0  0  0  0  0  0  0  0  0  0
  143.5304  134.8391  150.6063 H   0  0  0  0  0  0  0  0  0  0  0  0
  142.6502  132.4420  151.4875 H   0  0  0  0  0  0  0  0  0  0  0  0
  143.8154  132.4633  150.1584 H   0  0  0  0  0  0  0  0  0  0  0  0
  1  2  1  0  0  0  0
  1 29  1  0  0  0  0
  1 30  1  0  0  0  0
  1 31  1  0  0  0  0
  2  3  1  0  0  0  0
  2 32  1  0  0  0  0
  2 33  1  0  0  0  0
  3  4  1  0  0  0  0
  3  6  1  0  0  0  0
  3 34  1  0  0  0  0
  4  5  1  0  0  0  0
  4 35  1  0  0  0  0
  4 36  1  0  0  0  0
  5 37  1  0  0  0  0
  5 38  1  0  0  0  0
  5 39  1  0  0  0  0
  6  7  1  0  0  0  0
  6 40  1  0  0  0  0
  6 41  1  0  0  0  0
  7  8  1  0  0  0  0
  7 12  1  0  0  0  0
  8  9  1  0  0  0  0
  8 42  1  0  0  0  0
  8 43  1  0  0  0  0
  9 10  1  0  0  0  0
  9 44  1  0  0  0  0
  9 45  1  0  0  0  0
 10 11  3  0  0  0  0
 12 17  1  0  0  0  0
 12 13  2  0  0  0  0
 13 14  1  0  0  0  0
 14 15  2  0  0  0  0
 14 46  1  0  0  0  0
 15 16  1  0  0  0  0
 16 20  1  0  0  0  0
 16 17  2  0  0  0  0
 17 18  1  0  0  0  0
 18 19  2  0  0  0  0
 19 20  1  0  0  0  0
 19 47  1  0  0  0  0
 20 21  1  0  0  0  0
 21 22  1  0  0  0  0
 21 48  1  0  0  0  0
 21 49  1  0  0  0  0
 22 23  1  0  0  0  0
 22 24  1  0  0  0  0
 22 50  1  0  0  0  0
 23 51  1  0  0  0  0
 24 28  1  0  0  0  0
 24 25  1  0  0  0  0
 24 52  1  0  0  0  0
 25 26  1  0  0  0  0
 25 53  1  0  0  0  0
 25 54  1  0  0  0  0
 26 27  1  0  0  0  0
 26 55  1  0  0  0  0
 26 56  1  0  0  0  0
 27 28  1  0  0  0  0
 27 57  1  0  0  0  0
 27 58  1  0  0  0  0
M  END
> <s_m_source_file>
AV-unprocessed.smi

> <i_m_source_file_index>
87

> <i_lp_mmshare_version>
43012

> <i_f3d_flags>
0

> <s_epik_input>
W0NIM11bQ0gyXVtDSF0oW0NIMl1bQ0gzXSlbQ0gyXU4oW0NIMl1bQ0gyXUMjTiljKG5bY0hdbjEpYyhjMTIpbltjSF1uMltDSDJdW0NASF0oW09IXSlbQ0BASF0zW0NIMl1bQ0gyXVtDSDJdTzM=

> <s_epik_cmdline>
J2VwaWtfcHl0aG9uJywgJy1waCcsICc3LjAnLCAnLXRuJywgJzgnLCAnLW1hJywgJzIwMCcsICctbWV0YWxfYmluZGluZycsICctaW1hZScsICc8aW5maWxlLm1hZT4nLCAnLW9tYWUnLCAnPG91dGZpbGUubWFlPic=

> <r_lp_tautomer_probability>
1

> <r_epik_Ionization_Penalty>
0.000348566

> <r_epik_Ionization_Penalty_Charging>
0

> <r_epik_Ionization_Penalty_Neutral>
0.000348566

> <r_epik_State_Penalty>
-0

> <r_epik_Charging_Adjusted_Penalty>
0

> <i_epik_Tot_Q>
0

> <i_epik_Tot_abs_Q>
0

> <r_epik_Metal_State_Penalty>
-0

> <b_epik_Metal_Only>
0

> <s_lp_Force_Field>
OPLS_2005

> <r_lp_Energy>
36.7846

> <b_lp_Chiralities_Consistent>
1

> <s_lp_Variant>
AV-unprocessed.smi:87-1

> <Gold.Version>
5.8.1

> <Gold.Id.Protein>
6NUR|6NUR_protein|mol2

> <Gold.PLP.Fitness>
43.1843

> <Gold.PLP.PLP>
-32.4239

> <Gold.PLP.part.hbond>
-4.0000

> <Gold.PLP.part.metal>
0.0000

> <Gold.PLP.part.buried>
-5.1477

> <Gold.PLP.part.nonpolar>
-23.1782

> <Gold.PLP.part.repulsive>
0.1670

> <Gold.PLP.ligand.clash>
0.0000

> <Gold.PLP.ligand.torsion>
2.3355

> <Gold.PLP.Chemscore.Hbond>
3.8400

> <Gold.PLP.Chemscore.CHOScore>
1.1038

> <Gold.PLP.Chemscore.Metal>
0.0000

> <Gold.Chemscore.Hbonds>
donor molecule, donor type, donor heavy atom, donor atom, acceptor molecule, acceptor atom, score
      L1  H    23    51       P1 10957  1.00
      P1  H  6896  6909       L1    13  1.00
      P1  H  6931  6943       L1    11  0.78
      P1  H  6934  6947       L1    11  0.94
      L1  C    19    47       P1 10956  0.61
      L1  C    19    47       P1 10957  0.21

> <Gold.PLP.Chemscore.Internal.Correction>
0.5998

> <Gold.Rescore>
     Score         DG    S(hbond)    S(metal)    S(lipo)     H(rot)  DE(clash)    DE(int)     intcor
     10.19     -13.11       2.62        0.00      64.14       3.37       0.01       2.91       ----

> <Gold.Chemscore.Fitness>
10.1853

> <Gold.Chemscore.DG>
-13.1066

> <Gold.Chemscore.ZeroCoef>
-5.4800

> <Gold.Chemscore.Hbond>
2.6173

> <Gold.Chemscore.Metal>
0.0000

> <Gold.Chemscore.Lipo>
64.1431

> <Gold.Chemscore.Internal_Hbond>
0.0000

> <Gold.Chemscore.DEClash>
0.0073

> <Gold.Chemscore.DEInternal>
2.9140

> <Gold.Chemscore.Rot>
3.3672

> <Gold.Chemscore.Internal.Correction>
   9.000000E+99

> <Gold.Chemscore.Hbonds>
donor molecule, donor type, donor heavy atom, donor atom, acceptor molecule, acceptor atom, score
      L1  H    23    51       P1 10957  0.96
      P1  H  6896  6909       L1    13  0.47
      P1  H  6931  6943       L1    11  0.61
      P1  H  6934  6947       L1    11  0.91

> <Gold.Chemscore.Hbond.Weighted>
-8.7419

> <Gold.Chemscore.Metal.Weighted>
-0.0000

> <Gold.Chemscore.Lipo.Weighted>
-7.5047

> <Gold.Chemscore.Internal_Hbond.Weighted>
0.0000

> <Gold.Chemscore.DEClash.Weighted>
0.0073

> <Gold.Chemscore.DEInternal.Weighted>
2.9140

> <Gold.Chemscore.Rot.Weighted>
8.6201

> <Gold.Chemscore.Internal.Correction.Weighted>
   9.000000E+99

> <Gold.Protein.RotatedTorsions>
[ 6907 6896 6895 6894 ] final   -3.30 input  -60.11 | X-H torsion
[ 7974 7965 7964 7962 ] final  159.76 input  175.53 | X-H torsion
[ 8008 7997 7996 7995 ] final  -29.77 input   59.86 | X-H torsion
[ 10167 10162 10161 10158 ] final -115.07 input  -65.29 | X-H torsion
[ 10718 10713 10712 10709 ] final   52.57 input   66.30 | X-H torsion
[ 10763 10752 10751 10750 ] final  -67.78 input  -60.55 | X-H torsion
[ 11005 11000 10999 10996 ] final -113.30 input  -57.11 | X-H torsion

> <Gold.Protein.ActiveResidues>
 VAL166  LYS551  ARG553  GLY616  TRP617  ASP618  TYR619  PRO620  LYS621  CYS622 
 ASP623  PHE694  ASN695  SER759  ASP760  ASP761  ALA762  ILE779  LEU786  VAL792 
 PHE793  MET794  SER795  GLU796  ALA797  LYS798  CYS799  TRP800  GLU811  SER814 

> <Gold.Protein.RotatedAtoms>
  151.5160  135.1066  159.9865 H   0  0  0  0  0  0  0  0  0  0  0  0  # atno 6907 bound_to 6896
  152.4641  133.7881  159.6897 H   0  0  0  0  0  0  0  0  0  0  0  0  # atno 6908 bound_to 6896
  150.8616  133.7570  159.3016 H   0  0  0  0  0  0  0  0  0  0  0  0  # atno 6909 bound_to 6896
  144.7773  139.7662  143.6274 H   0  0  0  0  0  0  0  0  0  0  0  0  # atno 7974 bound_to 7965
  154.4277  140.1809  156.1300 H   0  0  0  0  0  0  0  0  0  0  0  0  # atno 8008 bound_to 7997
  156.0075  140.3354  155.6882 H   0  0  0  0  0  0  0  0  0  0  0  0  # atno 8009 bound_to 7997
  155.6157  140.0654  157.2684 H   0  0  0  0  0  0  0  0  0  0  0  0  # atno 8010 bound_to 7997
  140.0940  143.4673  152.1852 H   0  0  0  0  0  0  0  0  0  0  0  0  # atno 10167 bound_to 10162
  157.5087  130.8486  149.8408 H   0  0  0  0  0  0  0  0  0  0  0  0  # atno 10718 bound_to 10713
  154.3794  135.6077  153.5783 H   0  0  0  0  0  0  0  0  0  0  0  0  # atno 10763 bound_to 10752
  152.9788  135.5857  154.4427 H   0  0  0  0  0  0  0  0  0  0  0  0  # atno 10764 bound_to 10752
  154.4194  135.2845  155.1963 H   0  0  0  0  0  0  0  0  0  0  0  0  # atno 10765 bound_to 10752
  141.0623  133.9515  157.2644 H   0  0  0  0  0  0  0  0  0  0  0  0  # atno 11005 bound_to 11000
  146.1960  139.5226  142.9774 LP  0  0  0  0  0  0  0  0  0  0  0  0  # atno 17320 bound_to 7965
  145.6150  141.0333  143.1946 LP  0  0  0  0  0  0  0  0  0  0  0  0  # atno 17321 bound_to 7965
  139.5708  144.7461  151.3895 LP  0  0  0  0  0  0  0  0  0  0  0  0  # atno 17342 bound_to 10162
  140.7013  143.7624  150.7408 LP  0  0  0  0  0  0  0  0  0  0  0  0  # atno 17343 bound_to 10162
  156.0275  130.3775  150.1781 LP  0  0  0  0  0  0  0  0  0  0  0  0  # atno 17370 bound_to 10713
  156.9971  130.9911  151.3400 LP  0  0  0  0  0  0  0  0  0  0  0  0  # atno 17371 bound_to 10713
  139.9444  135.0186  156.8806 LP  0  0  0  0  0  0  0  0  0  0  0  0  # atno 17394 bound_to 11000
  140.5844  134.0321  155.7476 LP  0  0  0  0  0  0  0  0  0  0  0  0  # atno 17395 bound_to 11000

$$$$
