AV-unprocessed.smi:1772|AV-procd|sdf|7162|dock7
  -GOLD-   22720 8403D 1   1.00000     0.00000
 Structure written by MMmdl.
 34 35  0  0  0  0  0  0  0  0  2 V2000
  144.5817  136.6586  152.1325 O   0  0  0  0  0  0  0  0  0  0  0  0
  145.7844  136.4743  151.9478 C   0  0  0  0  0  0  0  0  0  0  0  0
  146.7238  137.3843  152.2420 N   0  0  0  0  0  0  0  0  0  0  0  0
  146.4623  138.7065  152.8024 C   0  0  0  0  0  0  0  0  0  0  0  0
  147.7603  139.4449  153.1841 C   0  0  1  0  0  0  0  0  0  0  0  0
  147.4937  140.8685  153.7100 C   0  0  0  0  0  0  0  0  0  0  0  0
  148.7913  141.4189  154.3103 C   0  0  0  0  0  0  0  0  0  0  0  0
  149.6488  139.9752  155.0414 S   0  0  0  0  0  0  0  0  0  0  0  0
  151.0126  139.9013  154.4964 O   0  0  0  0  0  0  0  0  0  0  0  0
  149.4101  139.9446  156.4922 O   0  0  0  0  0  0  0  0  0  0  0  0
  148.5988  138.7042  154.2400 C   0  0  0  0  0  0  0  0  0  0  0  0
  146.3319  135.3524  151.4483 N   0  0  0  0  0  0  0  0  0  0  0  0
  145.6822  134.1644  151.0144 C   0  0  0  0  0  0  0  0  0  0  0  0
  146.4930  133.1301  150.4961 C   0  0  0  0  0  0  0  0  0  0  0  0
  145.8943  131.9378  150.0403 C   0  0  0  0  0  0  0  0  0  0  0  0
  144.5526  131.7966  150.0927 N   0  3  0  0  0  0  0  0  0  0  0  0
  143.7352  132.7620  150.5653 C   0  0  0  0  0  0  0  0  0  0  0  0
  144.2765  133.9761  151.0352 C   0  0  0  0  0  0  0  0  0  0  0  0
  147.6898  137.1505  152.0641 H   0  0  0  0  0  0  0  0  0  0  0  0
  145.8824  139.3010  152.0943 H   0  0  0  0  0  0  0  0  0  0  0  0
  145.8323  138.5793  153.6833 H   0  0  0  0  0  0  0  0  0  0  0  0
  148.3785  139.5491  152.2910 H   0  0  0  0  0  0  0  0  0  0  0  0
  147.1088  141.5231  152.9276 H   0  0  0  0  0  0  0  0  0  0  0  0
  146.7341  140.8266  154.4920 H   0  0  0  0  0  0  0  0  0  0  0  0
  149.4323  141.8331  153.5315 H   0  0  0  0  0  0  0  0  0  0  0  0
  148.6228  142.1837  155.0687 H   0  0  0  0  0  0  0  0  0  0  0  0
  147.9633  138.2659  155.0100 H   0  0  0  0  0  0  0  0  0  0  0  0
  149.2226  137.9179  153.8143 H   0  0  0  0  0  0  0  0  0  0  0  0
  147.3408  135.3248  151.4298 H   0  0  0  0  0  0  0  0  0  0  0  0
  147.5668  133.2423  150.4522 H   0  0  0  0  0  0  0  0  0  0  0  0
  146.4446  131.1000  149.6371 H   0  0  0  0  0  0  0  0  0  0  0  0
  142.6785  132.5385  150.5482 H   0  0  0  0  0  0  0  0  0  0  0  0
  143.6020  134.7401  151.3901 H   0  0  0  0  0  0  0  0  0  0  0  0
  144.1387  130.9263  149.7569 H   0  0  0  0  0  0  0  0  0  0  0  0
  1  2  2  0  0  0  0
  2  3  1  0  0  0  0
  2 12  1  0  0  0  0
  3  4  1  0  0  0  0
  3 19  1  0  0  0  0
  4  5  1  0  0  0  0
  4 20  1  0  0  0  0
  4 21  1  0  0  0  0
  5 11  1  0  0  0  0
  5  6  1  0  0  0  0
  5 22  1  0  0  0  0
  6  7  1  0  0  0  0
  6 23  1  0  0  0  0
  6 24  1  0  0  0  0
  7  8  1  0  0  0  0
  7 25  1  0  0  0  0
  7 26  1  0  0  0  0
  8  9  2  0  0  0  0
  8 10  2  0  0  0  0
  8 11  1  0  0  0  0
 11 27  1  0  0  0  0
 11 28  1  0  0  0  0
 12 13  1  0  0  0  0
 12 29  1  0  0  0  0
 13 18  1  0  0  0  0
 13 14  2  0  0  0  0
 14 15  1  0  0  0  0
 14 30  1  0  0  0  0
 15 16  2  0  0  0  0
 15 31  1  0  0  0  0
 16 17  1  0  0  0  0
 16 34  1  0  0  0  0
 17 18  2  0  0  0  0
 17 32  1  0  0  0  0
 18 33  1  0  0  0  0
M  CHG  1  16   1
M  END
> <s_m_source_file>
AV-unprocessed.smi

> <i_m_source_file_index>
1772

> <i_lp_mmshare_version>
43012

> <i_f3d_flags>
0

> <s_epik_input>
W2NIXTFbY0hdbltjSF1bY0hdYzFbTkhdQyg9TylbTkhdW0NIMl1bQ0BASF0oW0NIMl0yKVtDSDJdW0NIMl1TMig9Tyk9Tw==

> <s_epik_cmdline>
J2VwaWtfcHl0aG9uJywgJy1waCcsICc3LjAnLCAnLXRuJywgJzgnLCAnLW1hJywgJzIwMCcsICctbWV0YWxfYmluZGluZycsICctaW1hZScsICc8aW5maWxlLm1hZT4nLCAnLW9tYWUnLCAnPG91dGZpbGUubWFlPic=

> <r_epik_Ionization_Penalty>
1.04917

> <r_epik_Ionization_Penalty_Charging>
1.04915

> <r_epik_Ionization_Penalty_Neutral>
1.90771e-05

> <r_epik_State_Penalty>
1.10185

> <r_epik_Charging_Adjusted_Penalty>
2.151

> <i_epik_Tot_Q>
1

> <i_epik_Tot_abs_Q>
1

> <r_epik_Metal_State_Penalty>
1.19638

> <b_epik_Metal_Only>
0

> <s_lp_Force_Field>
OPLS_2005

> <r_lp_Energy>
14.8117

> <b_lp_Chiralities_Consistent>
1

> <s_lp_Variant>
AV-unprocessed.smi:1772-4

> <Gold.Version>
5.8.1

> <Gold.Id.Protein>
6NUR|6NUR_protein|mol2

> <Gold.PLP.Fitness>
40.9044

> <Gold.PLP.PLP>
-32.0745

> <Gold.PLP.part.hbond>
-2.9740

> <Gold.PLP.part.metal>
0.0000

> <Gold.PLP.part.buried>
-2.6803

> <Gold.PLP.part.nonpolar>
-27.8148

> <Gold.PLP.part.repulsive>
0.7598

> <Gold.PLP.ligand.clash>
0.0000

> <Gold.PLP.ligand.torsion>
0.0265

> <Gold.PLP.Chemscore.Hbond>
2.9600

> <Gold.PLP.Chemscore.CHOScore>
0.0000

> <Gold.PLP.Chemscore.Metal>
0.0000

> <Gold.Chemscore.Hbonds>
donor molecule, donor type, donor heavy atom, donor atom, acceptor molecule, acceptor atom, score
      L1  H     3    19       P1  7948  1.00
      L1  H    12    29       P1  7948  0.96
      P1  H  7989  7998       L1     9  0.98

> <Gold.PLP.Chemscore.Internal.Correction>
0.0029

> <Gold.Rescore>
     Score         DG    S(hbond)    S(metal)    S(lipo)     H(rot)  DE(clash)    DE(int)     intcor
     18.62     -19.90       2.96        0.00      67.61       1.32       0.02       1.26       ----

> <Gold.Chemscore.Fitness>
18.6162

> <Gold.Chemscore.DG>
-19.9032

> <Gold.Chemscore.ZeroCoef>
-5.4800

> <Gold.Chemscore.Hbond>
2.9581

> <Gold.Chemscore.Metal>
0.0000

> <Gold.Chemscore.Lipo>
67.6093

> <Gold.Chemscore.Internal_Hbond>
0.0000

> <Gold.Chemscore.DEClash>
0.0232

> <Gold.Chemscore.DEInternal>
1.2638

> <Gold.Chemscore.Rot>
1.3153

> <Gold.Chemscore.Internal.Correction>
   9.000000E+99

> <Gold.Chemscore.Hbonds>
donor molecule, donor type, donor heavy atom, donor atom, acceptor molecule, acceptor atom, score
      L1  H     3    19       P1  7948  0.95
      L1  H    12    29       P1  7948  0.79
      P1  H  7989  7998       L1     9  0.92

> <Gold.Chemscore.Hbond.Weighted>
-9.8802

> <Gold.Chemscore.Metal.Weighted>
-0.0000

> <Gold.Chemscore.Lipo.Weighted>
-7.9103

> <Gold.Chemscore.Internal_Hbond.Weighted>
0.0000

> <Gold.Chemscore.DEClash.Weighted>
0.0232

> <Gold.Chemscore.DEInternal.Weighted>
1.2638

> <Gold.Chemscore.Rot.Weighted>
3.3673

> <Gold.Chemscore.Internal.Correction.Weighted>
   9.000000E+99

> <Gold.Protein.RotatedTorsions>
[ 6907 6896 6895 6894 ] final   26.16 input  -60.11 | X-H torsion
[ 7974 7965 7964 7962 ] final  149.87 input  175.53 | X-H torsion
[ 8008 7997 7996 7995 ] final  158.74 input   59.86 | X-H torsion
[ 10167 10162 10161 10158 ] final  -41.15 input  -65.29 | X-H torsion
[ 10718 10713 10712 10709 ] final -106.75 input   66.30 | X-H torsion
[ 10763 10752 10751 10750 ] final -178.92 input  -60.55 | X-H torsion
[ 11005 11000 10999 10996 ] final  -23.59 input  -57.11 | X-H torsion

> <Gold.Protein.ActiveResidues>
 VAL166  LYS551  ARG553  GLY616  TRP617  ASP618  TYR619  PRO620  LYS621  CYS622 
 ASP623  PHE694  ASN695  SER759  ASP760  ASP761  ALA762  ILE779  LEU786  VAL792 
 PHE793  MET794  SER795  GLU796  ALA797  LYS798  CYS799  TRP800  GLU811  SER814 

> <Gold.Protein.RotatedAtoms>
  151.9833  135.0017  160.0558 H   0  0  0  0  0  0  0  0  0  0  0  0  # atno 6907 bound_to 6896
  152.1676  133.4617  159.4901 H   0  0  0  0  0  0  0  0  0  0  0  0  # atno 6908 bound_to 6896
  150.6897  134.1911  159.4328 H   0  0  0  0  0  0  0  0  0  0  0  0  # atno 6909 bound_to 6896
  144.8406  139.6336  143.6018 H   0  0  0  0  0  0  0  0  0  0  0  0  # atno 7974 bound_to 7965
  156.2283  140.1850  156.7306 H   0  0  0  0  0  0  0  0  0  0  0  0  # atno 8008 bound_to 7997
  154.5979  140.0640  156.9357 H   0  0  0  0  0  0  0  0  0  0  0  0  # atno 8009 bound_to 7997
  155.2224  140.3308  155.4316 H   0  0  0  0  0  0  0  0  0  0  0  0  # atno 8010 bound_to 7997
  140.7012  143.3111  151.3026 H   0  0  0  0  0  0  0  0  0  0  0  0  # atno 10167 bound_to 10162
  156.0404  130.5628  150.7725 H   0  0  0  0  0  0  0  0  0  0  0  0  # atno 10718 bound_to 10713
  154.5416  135.2806  155.1090 H   0  0  0  0  0  0  0  0  0  0  0  0  # atno 10763 bound_to 10752
  154.2571  135.6328  153.5264 H   0  0  0  0  0  0  0  0  0  0  0  0  # atno 10764 bound_to 10752
  152.9980  135.5596  154.5957 H   0  0  0  0  0  0  0  0  0  0  0  0  # atno 10765 bound_to 10752
  140.8766  133.7683  156.0251 H   0  0  0  0  0  0  0  0  0  0  0  0  # atno 11005 bound_to 11000
  146.2699  139.6609  142.9303 LP  0  0  0  0  0  0  0  0  0  0  0  0  # atno 17320 bound_to 7965
  145.4703  141.0436  143.2702 LP  0  0  0  0  0  0  0  0  0  0  0  0  # atno 17321 bound_to 7965
  139.6534  144.0320  152.2643 LP  0  0  0  0  0  0  0  0  0  0  0  0  # atno 17342 bound_to 10162
  139.9864  144.6392  150.7854 LP  0  0  0  0  0  0  0  0  0  0  0  0  # atno 17343 bound_to 10162
  157.5215  131.0932  151.0072 LP  0  0  0  0  0  0  0  0  0  0  0  0  # atno 17370 bound_to 10713
  157.0402  130.5746  149.5355 LP  0  0  0  0  0  0  0  0  0  0  0  0  # atno 17371 bound_to 10713
  140.8511  134.2953  157.5275 LP  0  0  0  0  0  0  0  0  0  0  0  0  # atno 17394 bound_to 11000
  139.8716  134.9468  156.3948 LP  0  0  0  0  0  0  0  0  0  0  0  0  # atno 17395 bound_to 11000

$$$$
