AV-unprocessed.smi:3199|AV-procd|sdf|12233|dock4
  -GOLD-   2272018 63D 1   1.00000     0.00000
 Structure written by MMmdl.
 36 37  0  0  0  0  0  0  0  0  2 V2000
  145.7446  143.1950  153.7014 C   0  0  0  0  0  0  0  0  0  0  0  0
  146.7165  142.0441  153.8529 C   0  0  0  0  0  0  0  0  0  0  0  0
  147.9870  142.2030  154.4474 C   0  0  0  0  0  0  0  0  0  0  0  0
  148.8411  141.0857  154.5570 C   0  0  0  0  0  0  0  0  0  0  0  0
  148.4081  139.8329  154.0698 C   0  0  0  0  0  0  0  0  0  0  0  0
  149.2986  138.6100  154.1695 C   0  0  0  0  0  0  0  0  0  0  0  0
  150.7333  138.9691  154.5911 C   0  0  0  0  0  0  0  0  0  0  0  0
  150.9150  138.8521  156.0328 N   0  0  0  0  0  0  0  0  0  0  0  0
  152.0918  138.9546  156.6718 C   0  0  0  0  0  0  0  0  0  0  0  0
  153.1519  139.1770  156.0861 O   0  0  0  0  0  0  0  0  0  0  0  0
  152.0746  138.8095  158.2008 C   0  0  2  0  0  0  0  0  0  0  0  0
  151.2407  139.8784  158.9338 C   0  0  0  0  0  0  0  0  0  0  0  0
  152.2068  140.4787  159.9421 C   0  0  0  0  0  0  0  0  0  0  0  0
  153.2874  139.4124  160.0568 C   0  0  0  0  0  0  0  0  0  0  0  0
  153.3947  138.9435  158.7242 O   0  0  0  0  0  0  0  0  0  0  0  0
  147.1266  139.7337  153.4869 C   0  0  0  0  0  0  0  0  0  0  0  0
  146.3378  140.8272  153.4013 N   0  3  0  0  0  0  0  0  0  0  0  0
  146.2464  144.1521  153.8473 H   0  0  0  0  0  0  0  0  0  0  0  0
  144.9439  143.1124  154.4366 H   0  0  0  0  0  0  0  0  0  0  0  0
  145.2998  143.1944  152.7058 H   0  0  0  0  0  0  0  0  0  0  0  0
  148.3052  143.1676  154.8156 H   0  0  0  0  0  0  0  0  0  0  0  0
  149.8161  141.1923  155.0100 H   0  0  0  0  0  0  0  0  0  0  0  0
  148.8538  137.9181  154.8862 H   0  0  0  0  0  0  0  0  0  0  0  0
  149.3096  138.0911  153.2100 H   0  0  0  0  0  0  0  0  0  0  0  0
  151.4436  138.3019  154.1021 H   0  0  0  0  0  0  0  0  0  0  0  0
  150.9861  139.9811  154.2700 H   0  0  0  0  0  0  0  0  0  0  0  0
  150.0918  138.6694  156.5890 H   0  0  0  0  0  0  0  0  0  0  0  0
  151.7032  137.8155  158.4553 H   0  0  0  0  0  0  0  0  0  0  0  0
  150.8366  140.6514  158.2786 H   0  0  0  0  0  0  0  0  0  0  0  0
  150.3988  139.4080  159.4428 H   0  0  0  0  0  0  0  0  0  0  0  0
  152.6371  141.3973  159.5411 H   0  0  0  0  0  0  0  0  0  0  0  0
  151.7367  140.7123  160.8977 H   0  0  0  0  0  0  0  0  0  0  0  0
  154.2347  139.8076  160.4239 H   0  0  0  0  0  0  0  0  0  0  0  0
  152.9709  138.5990  160.7116 H   0  0  0  0  0  0  0  0  0  0  0  0
  146.7107  138.8187  153.0904 H   0  0  0  0  0  0  0  0  0  0  0  0
  145.4152  140.7305  152.9766 H   0  0  0  0  0  0  0  0  0  0  0  0
  1  2  1  0  0  0  0
  1 18  1  0  0  0  0
  1 19  1  0  0  0  0
  1 20  1  0  0  0  0
  2 17  1  0  0  0  0
  2  3  2  0  0  0  0
  3  4  1  0  0  0  0
  3 21  1  0  0  0  0
  4  5  2  0  0  0  0
  4 22  1  0  0  0  0
  5  6  1  0  0  0  0
  5 16  1  0  0  0  0
  6  7  1  0  0  0  0
  6 23  1  0  0  0  0
  6 24  1  0  0  0  0
  7  8  1  0  0  0  0
  7 25  1  0  0  0  0
  7 26  1  0  0  0  0
  8  9  1  0  0  0  0
  8 27  1  0  0  0  0
  9 10  2  0  0  0  0
  9 11  1  0  0  0  0
 11 15  1  0  0  0  0
 11 12  1  0  0  0  0
 11 28  1  0  0  0  0
 12 13  1  0  0  0  0
 12 29  1  0  0  0  0
 12 30  1  0  0  0  0
 13 14  1  0  0  0  0
 13 31  1  0  0  0  0
 13 32  1  0  0  0  0
 14 15  1  0  0  0  0
 14 33  1  0  0  0  0
 14 34  1  0  0  0  0
 16 17  2  0  0  0  0
 16 35  1  0  0  0  0
 17 36  1  0  0  0  0
M  CHG  1  17   1
M  END
> <s_m_source_file>
AV-unprocessed.smi

> <i_m_source_file_index>
3199

> <i_lp_mmshare_version>
43012

> <i_f3d_flags>
0

> <s_epik_input>
W0NIM11jMVtjSF1bY0hdYyhbY0hdbjEpW0NIMl1bQ0gyXVtOSF1DKD1PKVtDQEBIXTJbQ0gyXVtDSDJdW0NIMl1PMg==

> <s_epik_cmdline>
J2VwaWtfcHl0aG9uJywgJy1waCcsICc3LjAnLCAnLXRuJywgJzgnLCAnLW1hJywgJzIwMCcsICctbWV0YWxfYmluZGluZycsICctaW1hZScsICc8aW5maWxlLm1hZT4nLCAnLW9tYWUnLCAnPG91dGZpbGUubWFlPic=

> <r_epik_Ionization_Penalty>
1.4683

> <r_epik_Ionization_Penalty_Charging>
1.4683

> <r_epik_Ionization_Penalty_Neutral>
5.71603e-08

> <r_epik_State_Penalty>
1.5559

> <r_epik_Charging_Adjusted_Penalty>
3.0242

> <i_epik_Tot_Q>
1

> <i_epik_Tot_abs_Q>
1

> <r_epik_Metal_State_Penalty>
1.60421

> <b_epik_Metal_Only>
0

> <s_lp_Force_Field>
OPLS_2005

> <r_lp_Energy>
23.6243

> <b_lp_Chiralities_Consistent>
1

> <s_lp_Variant>
AV-unprocessed.smi:3199-3

> <Gold.Version>
5.8.1

> <Gold.Id.Protein>
6NUR|6NUR_protein|mol2

> <Gold.PLP.Fitness>
43.0187

> <Gold.PLP.PLP>
-32.7579

> <Gold.PLP.part.hbond>
-2.6373

> <Gold.PLP.part.metal>
0.0000

> <Gold.PLP.part.buried>
-0.9128

> <Gold.PLP.part.nonpolar>
-28.8226

> <Gold.PLP.part.repulsive>
0.0882

> <Gold.PLP.ligand.clash>
0.0000

> <Gold.PLP.ligand.torsion>
0.3680

> <Gold.PLP.Chemscore.Hbond>
3.6640

> <Gold.PLP.Chemscore.CHOScore>
0.0000

> <Gold.PLP.Chemscore.Metal>
0.0000

> <Gold.Chemscore.Hbonds>
donor molecule, donor type, donor heavy atom, donor atom, acceptor molecule, acceptor atom, score
      L1  H    17    36       P1 10175  2.00
      P1  H  7997  8008       L1    10  0.40
      P1  H  7997  8010       L1    15  0.03

> <Gold.PLP.Chemscore.Internal.Correction>
0.0049

> <Gold.Rescore>
     Score         DG    S(hbond)    S(metal)    S(lipo)     H(rot)  DE(clash)    DE(int)     intcor
     18.62     -19.17       2.39        0.00      82.83       1.56       0.08       0.46       ----

> <Gold.Chemscore.Fitness>
18.6200

> <Gold.Chemscore.DG>
-19.1677

> <Gold.Chemscore.ZeroCoef>
-5.4800

> <Gold.Chemscore.Hbond>
2.3932

> <Gold.Chemscore.Metal>
0.0000

> <Gold.Chemscore.Lipo>
82.8321

> <Gold.Chemscore.Internal_Hbond>
0.0000

> <Gold.Chemscore.DEClash>
0.0832

> <Gold.Chemscore.DEInternal>
0.4646

> <Gold.Chemscore.Rot>
1.5613

> <Gold.Chemscore.Internal.Correction>
   9.000000E+99

> <Gold.Chemscore.Hbonds>
donor molecule, donor type, donor heavy atom, donor atom, acceptor molecule, acceptor atom, score
      L1  H    17    36       P1 10175  0.60
      P1  H  7997  8008       L1    10  0.40
      P1  H  7997  8010       L1    15  0.07

> <Gold.Chemscore.Hbond.Weighted>
-7.9933

> <Gold.Chemscore.Metal.Weighted>
-0.0000

> <Gold.Chemscore.Lipo.Weighted>
-9.6914

> <Gold.Chemscore.Internal_Hbond.Weighted>
0.0000

> <Gold.Chemscore.DEClash.Weighted>
0.0832

> <Gold.Chemscore.DEInternal.Weighted>
0.4646

> <Gold.Chemscore.Rot.Weighted>
3.9969

> <Gold.Chemscore.Internal.Correction.Weighted>
   9.000000E+99

> <Gold.Protein.RotatedTorsions>
[ 6907 6896 6895 6894 ] final -110.47 input  -60.11 | X-H torsion
[ 7974 7965 7964 7962 ] final  151.79 input  175.53 | X-H torsion
[ 8008 7997 7996 7995 ] final    2.63 input   59.86 | X-H torsion
[ 10167 10162 10161 10158 ] final  -68.83 input  -65.29 | X-H torsion
[ 10718 10713 10712 10709 ] final  -54.95 input   66.30 | X-H torsion
[ 10763 10752 10751 10750 ] final   -2.54 input  -60.55 | X-H torsion
[ 11005 11000 10999 10996 ] final -152.28 input  -57.11 | X-H torsion

> <Gold.Protein.ActiveResidues>
 VAL166  LYS551  ARG553  GLY616  TRP617  ASP618  TYR619  PRO620  LYS621  CYS622 
 ASP623  PHE694  ASN695  SER759  ASP760  ASP761  ALA762  ILE779  LEU786  VAL792 
 PHE793  MET794  SER795  GLU796  ALA797  LYS798  CYS799  TRP800  GLU811  SER814 

> <Gold.Protein.RotatedAtoms>
  150.7627  133.9377  159.3446 H   0  0  0  0  0  0  0  0  0  0  0  0  # atno 6907 bound_to 6896
  151.7282  135.0878  160.0305 H   0  0  0  0  0  0  0  0  0  0  0  0  # atno 6908 bound_to 6896
  152.3607  133.6255  159.6048 H   0  0  0  0  0  0  0  0  0  0  0  0  # atno 6909 bound_to 6896
  144.8268  139.6583  143.6076 H   0  0  0  0  0  0  0  0  0  0  0  0  # atno 7974 bound_to 7965
  154.6939  140.2659  155.6785 H   0  0  0  0  0  0  0  0  0  0  0  0  # atno 8008 bound_to 7997
  156.2742  140.2785  156.1450 H   0  0  0  0  0  0  0  0  0  0  0  0  # atno 8009 bound_to 7997
  155.0858  140.0373  157.2643 H   0  0  0  0  0  0  0  0  0  0  0  0  # atno 8010 bound_to 7997
  140.5477  143.2312  151.6970 H   0  0  0  0  0  0  0  0  0  0  0  0  # atno 10167 bound_to 10162
  156.1409  130.4154  150.0105 H   0  0  0  0  0  0  0  0  0  0  0  0  # atno 10718 bound_to 10713
  153.3594  135.6989  153.6724 H   0  0  0  0  0  0  0  0  0  0  0  0  # atno 10763 bound_to 10752
  153.5419  135.3571  155.2722 H   0  0  0  0  0  0  0  0  0  0  0  0  # atno 10764 bound_to 10752
  154.8666  135.4205  154.2847 H   0  0  0  0  0  0  0  0  0  0  0  0  # atno 10765 bound_to 10752
  140.7206  134.3731  157.5184 H   0  0  0  0  0  0  0  0  0  0  0  0  # atno 11005 bound_to 11000
  146.2572  139.6330  142.9386 LP  0  0  0  0  0  0  0  0  0  0  0  0  # atno 17320 bound_to 7965
  145.4984  141.0438  143.2554 LP  0  0  0  0  0  0  0  0  0  0  0  0  # atno 17321 bound_to 7965
  139.5014  144.3868  152.0320 LP  0  0  0  0  0  0  0  0  0  0  0  0  # atno 17342 bound_to 10162
  140.2982  144.3676  150.6068 LP  0  0  0  0  0  0  0  0  0  0  0  0  # atno 17343 bound_to 10162
  156.7991  130.9284  151.3646 LP  0  0  0  0  0  0  0  0  0  0  0  0  # atno 17370 bound_to 10713
  157.6574  130.8936  149.9758 LP  0  0  0  0  0  0  0  0  0  0  0  0  # atno 17371 bound_to 10713
  139.8849  134.8952  156.2675 LP  0  0  0  0  0  0  0  0  0  0  0  0  # atno 17394 bound_to 11000
  141.0007  133.7153  156.0955 LP  0  0  0  0  0  0  0  0  0  0  0  0  # atno 17395 bound_to 11000

$$$$
