AV-unprocessed.smi:1400|AV-procd|sdf|5686|dock7
  -GOLD-   22720 5313D 1   1.00000     0.00000
 Structure written by MMmdl.
 34 35  0  0  0  0  0  0  0  0  1 V2000
  149.4539  140.5944  156.1833 C   0  0  0  0  0  0  0  0  0  0  0  0
  148.8114  140.9737  154.8470 C   0  0  0  0  0  0  0  0  0  0  0  0
  149.4275  141.7397  154.1058 O   0  0  0  0  0  0  0  0  0  0  0  0
  147.6028  140.4547  154.5220 N   0  0  0  0  0  0  0  0  0  0  0  0
  146.9614  140.6881  153.2228 C   0  0  0  0  0  0  0  0  0  0  0  0
  146.9897  139.3795  152.4118 C   0  0  0  0  0  0  0  0  0  0  0  0
  146.3305  138.2205  153.1908 C   0  0  0  0  0  0  0  0  0  0  0  0
  146.5582  136.9588  152.4910 N   0  0  0  0  0  0  0  0  0  0  0  0
  145.6122  136.0827  152.1213 C   0  0  0  0  0  0  0  0  0  0  0  0
  144.4099  136.2451  152.3326 O   0  0  0  0  0  0  0  0  0  0  0  0
  146.1537  135.0205  151.4996 N   0  0  0  0  0  0  0  0  0  0  0  0
  145.4929  133.8809  150.9698 C   0  0  0  0  0  0  0  0  0  0  0  0
  146.0905  132.9345  150.2361 N   0  0  0  0  0  0  0  0  0  0  0  0
  145.1990  131.9314  149.8475 C   0  0  0  0  0  0  0  0  0  0  0  0
  143.9175  132.1312  150.2970 C   0  0  0  0  0  0  0  0  0  0  0  0
  143.7786  133.5960  151.2326 S   0  0  0  0  0  0  0  0  0  0  0  0
  146.8760  138.1229  154.6317 C   0  0  0  0  0  0  0  0  0  0  0  0
  146.8456  139.4927  155.3326 C   0  0  0  0  0  0  0  0  0  0  0  0
  149.5829  139.5143  156.2586 H   0  0  0  0  0  0  0  0  0  0  0  0
  148.8426  140.9386  157.0179 H   0  0  0  0  0  0  0  0  0  0  0  0
  150.4384  141.0533  156.2795 H   0  0  0  0  0  0  0  0  0  0  0  0
  145.9310  141.0099  153.3805 H   0  0  0  0  0  0  0  0  0  0  0  0
  147.4375  141.4875  152.6536 H   0  0  0  0  0  0  0  0  0  0  0  0
  146.4853  139.5228  151.4556 H   0  0  0  0  0  0  0  0  0  0  0  0
  148.0259  139.1275  152.1802 H   0  0  0  0  0  0  0  0  0  0  0  0
  145.2620  138.4333  153.2592 H   0  0  0  0  0  0  0  0  0  0  0  0
  147.5177  136.7359  152.2696 H   0  0  0  0  0  0  0  0  0  0  0  0
  147.1578  135.0254  151.3959 H   0  0  0  0  0  0  0  0  0  0  0  0
  145.5629  131.1091  149.2494 H   0  0  0  0  0  0  0  0  0  0  0  0
  143.0507  131.5080  150.1349 H   0  0  0  0  0  0  0  0  0  0  0  0
  146.2944  137.3987  155.2033 H   0  0  0  0  0  0  0  0  0  0  0  0
  147.9025  137.7528  154.6167 H   0  0  0  0  0  0  0  0  0  0  0  0
  147.2124  139.3966  156.3534 H   0  0  0  0  0  0  0  0  0  0  0  0
  145.8151  139.8380  155.4272 H   0  0  0  0  0  0  0  0  0  0  0  0
  1  2  1  0  0  0  0
  1 19  1  0  0  0  0
  1 20  1  0  0  0  0
  1 21  1  0  0  0  0
  2  3  2  0  0  0  0
  2  4  1  0  0  0  0
  4 18  1  0  0  0  0
  4  5  1  0  0  0  0
  5  6  1  0  0  0  0
  5 22  1  0  0  0  0
  5 23  1  0  0  0  0
  6  7  1  0  0  0  0
  6 24  1  0  0  0  0
  6 25  1  0  0  0  0
  7  8  1  0  0  0  0
  7 17  1  0  0  0  0
  7 26  1  0  0  0  0
  8  9  1  0  0  0  0
  8 27  1  0  0  0  0
  9 10  2  0  0  0  0
  9 11  1  0  0  0  0
 11 12  1  0  0  0  0
 11 28  1  0  0  0  0
 12 16  1  0  0  0  0
 12 13  2  0  0  0  0
 13 14  1  0  0  0  0
 14 15  2  0  0  0  0
 14 29  1  0  0  0  0
 15 16  1  0  0  0  0
 15 30  1  0  0  0  0
 17 18  1  0  0  0  0
 17 31  1  0  0  0  0
 17 32  1  0  0  0  0
 18 33  1  0  0  0  0
 18 34  1  0  0  0  0
M  END
> <s_m_source_file>
AV-unprocessed.smi

> <i_m_source_file_index>
1400

> <i_lp_mmshare_version>
43012

> <i_f3d_flags>
0

> <s_epik_input>
W0NIM11DKD1PKU4xW0NIMl1bQ0gyXVtDSF0oW0NIMl1bQ0gyXTEpW05IXUMoPU8pW05IXWMybltjSF1bY0hdczI=

> <s_epik_cmdline>
J2VwaWtfcHl0aG9uJywgJy1waCcsICc3LjAnLCAnLXRuJywgJzgnLCAnLW1hJywgJzIwMCcsICctbWV0YWxfYmluZGluZycsICctaW1hZScsICc8aW5maWxlLm1hZT4nLCAnLW9tYWUnLCAnPG91dGZpbGUubWFlPic=

> <r_lp_tautomer_probability>
1

> <r_epik_Ionization_Penalty>
0.000151384

> <r_epik_Ionization_Penalty_Charging>
0

> <r_epik_Ionization_Penalty_Neutral>
0.000151384

> <r_epik_State_Penalty>
-0

> <r_epik_Charging_Adjusted_Penalty>
0

> <i_epik_Tot_Q>
0

> <i_epik_Tot_abs_Q>
0

> <r_epik_Metal_State_Penalty>
0.0312905

> <b_epik_Metal_Only>
0

> <s_lp_Force_Field>
OPLS_2005

> <r_lp_Energy>
21.754

> <b_lp_Chiralities_Consistent>
1

> <s_lp_Variant>
AV-unprocessed.smi:1400-1

> <Gold.Version>
5.8.1

> <Gold.Id.Protein>
6NUR|6NUR_protein|mol2

> <Gold.PLP.Fitness>
36.8967

> <Gold.PLP.PLP>
-27.7698

> <Gold.PLP.part.hbond>
-4.0000

> <Gold.PLP.part.metal>
0.0000

> <Gold.PLP.part.buried>
-1.6867

> <Gold.PLP.part.nonpolar>
-23.1376

> <Gold.PLP.part.repulsive>
0.6775

> <Gold.PLP.ligand.clash>
0.0000

> <Gold.PLP.ligand.torsion>
0.0827

> <Gold.PLP.Chemscore.Hbond>
2.1906

> <Gold.PLP.Chemscore.CHOScore>
0.9013

> <Gold.PLP.Chemscore.Metal>
0.0000

> <Gold.Chemscore.Hbonds>
donor molecule, donor type, donor heavy atom, donor atom, acceptor molecule, acceptor atom, score
      L1  H     8    27       P1  7948  1.00
      L1  H    11    28       P1  7948  0.59
      P1  H  7989  7998       L1     3  0.01
      P1  H  8011  8017       L1     3  0.53
      L1  C    15    30       P1 10952  0.88

> <Gold.PLP.Chemscore.Internal.Correction>
0.0165

> <Gold.Rescore>
     Score         DG    S(hbond)    S(metal)    S(lipo)     H(rot)  DE(clash)    DE(int)     intcor
     15.31     -16.83       2.21        0.00      55.81       1.00       0.30       1.22       ----

> <Gold.Chemscore.Fitness>
15.3074

> <Gold.Chemscore.DG>
-16.8296

> <Gold.Chemscore.ZeroCoef>
-5.4800

> <Gold.Chemscore.Hbond>
2.2094

> <Gold.Chemscore.Metal>
0.0000

> <Gold.Chemscore.Lipo>
55.8128

> <Gold.Chemscore.Internal_Hbond>
0.0000

> <Gold.Chemscore.DEClash>
0.2979

> <Gold.Chemscore.DEInternal>
1.2243

> <Gold.Chemscore.Rot>
1.0000

> <Gold.Chemscore.Internal.Correction>
   9.000000E+99

> <Gold.Chemscore.Hbonds>
donor molecule, donor type, donor heavy atom, donor atom, acceptor molecule, acceptor atom, score
      L1  H     8    27       P1  7948  0.97
      L1  H    11    28       P1  7948  0.43
      P1  H  7989  7998       L1     3  0.01
      P1  H  8011  8017       L1     3  0.52

> <Gold.Chemscore.Hbond.Weighted>
-7.3795

> <Gold.Chemscore.Metal.Weighted>
-0.0000

> <Gold.Chemscore.Lipo.Weighted>
-6.5301

> <Gold.Chemscore.Internal_Hbond.Weighted>
0.0000

> <Gold.Chemscore.DEClash.Weighted>
0.2979

> <Gold.Chemscore.DEInternal.Weighted>
1.2243

> <Gold.Chemscore.Rot.Weighted>
2.5600

> <Gold.Chemscore.Internal.Correction.Weighted>
   9.000000E+99

> <Gold.Protein.RotatedTorsions>
[ 6907 6896 6895 6894 ] final -129.89 input  -60.11 | X-H torsion
[ 7974 7965 7964 7962 ] final -147.47 input  175.53 | X-H torsion
[ 8008 7997 7996 7995 ] final -102.20 input   59.86 | X-H torsion
[ 10167 10162 10161 10158 ] final   51.45 input  -65.29 | X-H torsion
[ 10718 10713 10712 10709 ] final  152.29 input   66.30 | X-H torsion
[ 10763 10752 10751 10750 ] final   79.26 input  -60.55 | X-H torsion
[ 11005 11000 10999 10996 ] final   89.73 input  -57.11 | X-H torsion

> <Gold.Protein.ActiveResidues>
 VAL166  LYS551  ARG553  GLY616  TRP617  ASP618  TYR619  PRO620  LYS621  CYS622 
 ASP623  PHE694  ASN695  SER759  ASP760  ASP761  ALA762  ILE779  LEU786  VAL792 
 PHE793  MET794  SER795  GLU796  ALA797  LYS798  CYS799  TRP800  GLU811  SER814 

> <Gold.Protein.RotatedAtoms>
  150.9336  133.6737  159.2805 H   0  0  0  0  0  0  0  0  0  0  0  0  # atno 6907 bound_to 6896
  151.4151  135.0989  159.9606 H   0  0  0  0  0  0  0  0  0  0  0  0  # atno 6908 bound_to 6896
  152.5037  133.8801  159.7397 H   0  0  0  0  0  0  0  0  0  0  0  0  # atno 6909 bound_to 6896
  144.8091  140.5323  143.5654 H   0  0  0  0  0  0  0  0  0  0  0  0  # atno 7974 bound_to 7965
  154.8534  140.0430  157.1618 H   0  0  0  0  0  0  0  0  0  0  0  0  # atno 8008 bound_to 7997
  154.8918  140.2987  155.5346 H   0  0  0  0  0  0  0  0  0  0  0  0  # atno 8009 bound_to 7997
  156.2997  140.2392  156.3935 H   0  0  0  0  0  0  0  0  0  0  0  0  # atno 8010 bound_to 7997
  140.2617  144.3365  150.6316 H   0  0  0  0  0  0  0  0  0  0  0  0  # atno 10167 bound_to 10162
  157.2597  131.0795  151.1674 H   0  0  0  0  0  0  0  0  0  0  0  0  # atno 10718 bound_to 10713
  153.0939  135.4846  154.8742 H   0  0  0  0  0  0  0  0  0  0  0  0  # atno 10763 bound_to 10752
  154.7301  135.3058  154.8907 H   0  0  0  0  0  0  0  0  0  0  0  0  # atno 10764 bound_to 10752
  153.9545  135.6819  153.4797 H   0  0  0  0  0  0  0  0  0  0  0  0  # atno 10765 bound_to 10752
  139.8869  134.8570  156.3184 H   0  0  0  0  0  0  0  0  0  0  0  0  # atno 11005 bound_to 11000
  145.5366  139.1475  143.3470 LP  0  0  0  0  0  0  0  0  0  0  0  0  # atno 17320 bound_to 7965
  146.2388  140.5506  142.8943 LP  0  0  0  0  0  0  0  0  0  0  0  0  # atno 17321 bound_to 7965
  140.5960  143.2167  151.7163 LP  0  0  0  0  0  0  0  0  0  0  0  0  # atno 17342 bound_to 10162
  139.5015  144.3866  152.0322 LP  0  0  0  0  0  0  0  0  0  0  0  0  # atno 17343 bound_to 10162
  157.3188  130.6927  149.6257 LP  0  0  0  0  0  0  0  0  0  0  0  0  # atno 17370 bound_to 10713
  155.9664  130.4341  150.5036 LP  0  0  0  0  0  0  0  0  0  0  0  0  # atno 17371 bound_to 10713
  140.9803  133.7271  156.0662 LP  0  0  0  0  0  0  0  0  0  0  0  0  # atno 17394 bound_to 11000
  140.7758  134.3781  157.5498 LP  0  0  0  0  0  0  0  0  0  0  0  0  # atno 17395 bound_to 11000

$$$$
