AV-unprocessed.smi:67|AV-procd|sdf|630|dock3
  -GOLD-   2262016523D 1   1.00000     0.00000
 Structure written by MMmdl.
 49 51  0  0  0  0  0  0  0  0  3 V2000
  147.4026  137.3243  155.2918 O   0  0  0  0  0  0  0  0  0  0  0  0
  147.3843  138.5657  154.6081 C   0  0  2  0  0  0  0  0  0  0  0  0
  148.8272  138.9098  154.1757 C   0  0  0  0  0  0  0  0  0  0  0  0
  149.7456  139.0207  155.3404 N   0  3  2  0  0  0  0  0  0  0  0  0
  149.9634  140.4230  155.7813 C   0  0  0  0  0  0  0  0  0  0  0  0
  150.7216  140.4706  157.1181 C   0  0  0  0  0  0  0  0  0  0  0  0
  152.0346  139.6629  157.0343 C   0  0  1  0  0  0  0  0  0  0  0  0
  152.8459  139.7180  158.2106 O   0  0  0  0  0  0  0  0  0  0  0  0
  153.1218  140.8905  158.8891 C   0  0  0  0  0  0  0  0  0  0  0  0
  153.7280  140.7387  160.1531 C   0  0  0  0  0  0  0  0  0  0  0  0
  154.0575  141.8581  160.9398 C   0  0  0  0  0  0  0  0  0  0  0  0
  153.7833  143.1547  160.4695 C   0  0  0  0  0  0  0  0  0  0  0  0
  153.1769  143.3326  159.2084 C   0  0  0  0  0  0  0  0  0  0  0  0
  152.8647  144.7210  158.6707 C   0  0  0  0  0  0  0  0  0  0  0  0
  151.5550  144.8250  158.4459 F   0  0  0  0  0  0  0  0  0  0  0  0
  153.2268  145.6820  159.5211 F   0  0  0  0  0  0  0  0  0  0  0  0
  153.5116  144.9067  157.5202 F   0  0  0  0  0  0  0  0  0  0  0  0
  152.8507  142.2033  158.4277 C   0  0  0  0  0  0  0  0  0  0  0  0
  151.8374  138.2464  156.4533 C   0  0  0  0  0  0  0  0  0  0  0  0
  151.0314  138.3011  155.1457 C   0  0  0  0  0  0  0  0  0  0  0  0
  146.7654  139.6186  155.5322 C   0  0  0  0  0  0  0  0  0  0  0  0
  145.2562  139.4027  155.3909 C   0  0  0  0  0  0  0  0  0  0  0  0
  145.0447  138.8176  154.0527 N   0  3  0  0  0  0  0  0  0  0  0  0
  146.3609  138.5002  153.4627 C   0  0  0  0  0  0  0  0  0  0  0  0
  147.5052  136.6278  154.6601 H   0  0  0  0  0  0  0  0  0  0  0  0
  149.1987  138.1614  153.4735 H   0  0  0  0  0  0  0  0  0  0  0  0
  148.8132  139.8455  153.6139 H   0  0  0  0  0  0  0  0  0  0  0  0
  150.5142  140.9672  155.0123 H   0  0  0  0  0  0  0  0  0  0  0  0
  149.0026  140.9257  155.9007 H   0  0  0  0  0  0  0  0  0  0  0  0
  150.9456  141.5066  157.3739 H   0  0  0  0  0  0  0  0  0  0  0  0
  150.0620  140.1098  157.9027 H   0  0  0  0  0  0  0  0  0  0  0  0
  152.6446  140.1890  156.2987 H   0  0  0  0  0  0  0  0  0  0  0  0
  153.9442  139.7483  160.5261 H   0  0  0  0  0  0  0  0  0  0  0  0
  154.5214  141.7209  161.9056 H   0  0  0  0  0  0  0  0  0  0  0  0
  154.0413  144.0048  161.0834 H   0  0  0  0  0  0  0  0  0  0  0  0
  152.3905  142.3903  157.4740 H   0  0  0  0  0  0  0  0  0  0  0  0
  152.8099  137.7911  156.2636 H   0  0  0  0  0  0  0  0  0  0  0  0
  151.3298  137.5800  157.1454 H   0  0  0  0  0  0  0  0  0  0  0  0
  150.8429  137.2847  154.8001 H   0  0  0  0  0  0  0  0  0  0  0  0
  151.6114  138.7970  154.3655 H   0  0  0  0  0  0  0  0  0  0  0  0
  147.1088  139.5470  156.5651 H   0  0  0  0  0  0  0  0  0  0  0  0
  147.0156  140.6185  155.1743 H   0  0  0  0  0  0  0  0  0  0  0  0
  144.9047  138.6892  156.1370 H   0  0  0  0  0  0  0  0  0  0  0  0
  144.6904  140.3260  155.5163 H   0  0  0  0  0  0  0  0  0  0  0  0
  144.5033  137.9704  154.1512 H   0  0  0  0  0  0  0  0  0  0  0  0
  146.5751  139.2723  152.7232 H   0  0  0  0  0  0  0  0  0  0  0  0
  146.3518  137.5399  152.9452 H   0  0  0  0  0  0  0  0  0  0  0  0
  144.5503  139.4674  153.4578 H   0  0  0  0  0  0  0  0  0  0  0  0
  149.2708  138.5634  156.1062 H   0  0  0  0  0  0  0  0  0  0  0  0
  1  2  1  0  0  0  0
  1 25  1  0  0  0  0
  2 24  1  0  0  0  0
  2  3  1  0  0  0  0
  2 21  1  0  0  0  0
  3  4  1  0  0  0  0
  3 26  1  0  0  0  0
  3 27  1  0  0  0  0
  4 20  1  0  0  0  0
  4  5  1  0  0  0  0
  4 49  1  0  0  0  0
  5  6  1  0  0  0  0
  5 28  1  0  0  0  0
  5 29  1  0  0  0  0
  6  7  1  0  0  0  0
  6 30  1  0  0  0  0
  6 31  1  0  0  0  0
  7  8  1  0  0  0  0
  7 19  1  0  0  0  0
  7 32  1  0  0  0  0
  8  9  1  0  0  0  0
  9 18  1  0  0  0  0
  9 10  2  0  0  0  0
 10 11  1  0  0  0  0
 10 33  1  0  0  0  0
 11 12  2  0  0  0  0
 11 34  1  0  0  0  0
 12 13  1  0  0  0  0
 12 35  1  0  0  0  0
 13 14  1  0  0  0  0
 13 18  2  0  0  0  0
 14 15  1  0  0  0  0
 14 16  1  0  0  0  0
 14 17  1  0  0  0  0
 18 36  1  0  0  0  0
 19 20  1  0  0  0  0
 19 37  1  0  0  0  0
 19 38  1  0  0  0  0
 20 39  1  0  0  0  0
 20 40  1  0  0  0  0
 21 22  1  0  0  0  0
 21 41  1  0  0  0  0
 21 42  1  0  0  0  0
 22 23  1  0  0  0  0
 22 43  1  0  0  0  0
 22 44  1  0  0  0  0
 23 24  1  0  0  0  0
 23 45  1  0  0  0  0
 23 48  1  0  0  0  0
 24 46  1  0  0  0  0
 24 47  1  0  0  0  0
M  CHG  1   4   1
M  CHG  1  23   1
M  END
> <s_m_source_file>
AV-unprocessed.smi

> <i_m_source_file_index>
67

> <i_lp_mmshare_version>
43012

> <i_f3d_flags>
0

> <s_epik_input>
W0NIMl0xW05IXVtDSDJdW0NIMl1bQ0BAXTEoW09IXSlbQ0gyXU4yW0NIMl1bQ0gyXVtDSF0oW0NIMl1bQ0gyXTIpT2MzW2NIXVtjSF1bY0hdYyhDKEYpKEYpRilbY0hdMw==

> <s_epik_cmdline>
J2VwaWtfcHl0aG9uJywgJy1waCcsICc3LjAnLCAnLXRuJywgJzgnLCAnLW1hJywgJzIwMCcsICctbWV0YWxfYmluZGluZycsICctaW1hZScsICc8aW5maWxlLm1hZT4nLCAnLW9tYWUnLCAnPG91dGZpbGUubWFlPic=

> <r_lp_tautomer_probability>
1

> <r_epik_Ionization_Penalty>
0.0989853

> <r_epik_Ionization_Penalty_Charging>
0.0989662

> <r_epik_Ionization_Penalty_Neutral>
1.91014e-05

> <r_epik_State_Penalty>
0.0852826

> <r_epik_Charging_Adjusted_Penalty>
0.184249

> <i_epik_Tot_Q>
2

> <i_epik_Tot_abs_Q>
2

> <r_epik_Metal_State_Penalty>
0.0849414

> <b_epik_Metal_Only>
0

> <s_lp_Force_Field>
OPLS_2005

> <r_lp_Energy>
59.8113

> <b_lp_Chiralities_Consistent>
1

> <s_lp_Variant>
AV-unprocessed.smi:67-2

> <Gold.Version>
5.8.1

> <Gold.Id.Protein>
6NUR|6NUR_protein|mol2

> <Gold.PLP.Fitness>
60.5940

> <Gold.PLP.PLP>
-49.5496

> <Gold.PLP.part.hbond>
-3.0000

> <Gold.PLP.part.metal>
0.0000

> <Gold.PLP.part.buried>
-2.9685

> <Gold.PLP.part.nonpolar>
-44.0883

> <Gold.PLP.part.repulsive>
0.0696

> <Gold.PLP.ligand.clash>
0.0000

> <Gold.PLP.ligand.torsion>
0.7579

> <Gold.PLP.Chemscore.Hbond>
4.0000

> <Gold.PLP.Chemscore.CHOScore>
0.0000

> <Gold.PLP.Chemscore.Metal>
0.0000

> <Gold.Chemscore.Hbonds>
donor molecule, donor type, donor heavy atom, donor atom, acceptor molecule, acceptor atom, score
      L1  H    23    48       P1 10175  2.00
      P1  H  7997  8008       L1     8  0.15

> <Gold.PLP.Chemscore.Internal.Correction>
0.5603

> <Gold.Rescore>
     Score         DG    S(hbond)    S(metal)    S(lipo)     H(rot)  DE(clash)    DE(int)     intcor
     18.34     -21.44       2.01        0.00     127.93       2.24       1.53       1.57       ----

> <Gold.Chemscore.Fitness>
18.3410

> <Gold.Chemscore.DG>
-21.4413

> <Gold.Chemscore.ZeroCoef>
-5.4800

> <Gold.Chemscore.Hbond>
2.0107

> <Gold.Chemscore.Metal>
0.0000

> <Gold.Chemscore.Lipo>
127.9299

> <Gold.Chemscore.Internal_Hbond>
0.0000

> <Gold.Chemscore.DEClash>
1.5330

> <Gold.Chemscore.DEInternal>
1.5673

> <Gold.Chemscore.Rot>
2.2352

> <Gold.Chemscore.Internal.Correction>
   9.000000E+99

> <Gold.Chemscore.Hbonds>
donor molecule, donor type, donor heavy atom, donor atom, acceptor molecule, acceptor atom, score
      L1  H    23    48       P1 10175  1.00

> <Gold.Chemscore.Hbond.Weighted>
-6.7156

> <Gold.Chemscore.Metal.Weighted>
-0.0000

> <Gold.Chemscore.Lipo.Weighted>
-14.9678

> <Gold.Chemscore.Internal_Hbond.Weighted>
0.0000

> <Gold.Chemscore.DEClash.Weighted>
1.5330

> <Gold.Chemscore.DEInternal.Weighted>
1.5673

> <Gold.Chemscore.Rot.Weighted>
5.7221

> <Gold.Chemscore.Internal.Correction.Weighted>
   9.000000E+99

> <Gold.Protein.RotatedTorsions>
[ 6907 6896 6895 6894 ] final  166.97 input  -60.11 | X-H torsion
[ 7974 7965 7964 7962 ] final  -91.09 input  175.53 | X-H torsion
[ 8008 7997 7996 7995 ] final  -79.67 input   59.86 | X-H torsion
[ 10167 10162 10161 10158 ] final -121.32 input  -65.29 | X-H torsion
[ 10718 10713 10712 10709 ] final   28.17 input   66.30 | X-H torsion
[ 10763 10752 10751 10750 ] final  -76.93 input  -60.55 | X-H torsion
[ 11005 11000 10999 10996 ] final -110.03 input  -57.11 | X-H torsion

> <Gold.Protein.ActiveResidues>
 VAL166  LYS551  ARG553  GLY616  TRP617  ASP618  TYR619  PRO620  LYS621  CYS622 
 ASP623  PHE694  ASN695  SER759  ASP760  ASP761  ALA762  ILE779  LEU786  VAL792 
 PHE793  MET794  SER795  GLU796  ALA797  LYS798  CYS799  TRP800  GLU811  SER814 

> <Gold.Protein.RotatedAtoms>
  151.8706  133.3475  159.3733 H   0  0  0  0  0  0  0  0  0  0  0  0  # atno 6907 bound_to 6896
  150.7154  134.5117  159.5619 H   0  0  0  0  0  0  0  0  0  0  0  0  # atno 6908 bound_to 6896
  152.2648  134.7996  160.0475 H   0  0  0  0  0  0  0  0  0  0  0  0  # atno 6909 bound_to 6896
  145.4178  140.9549  143.2198 H   0  0  0  0  0  0  0  0  0  0  0  0  # atno 7974 bound_to 7965
  154.5808  140.0675  156.9100 H   0  0  0  0  0  0  0  0  0  0  0  0  # atno 8008 bound_to 7997
  155.2467  140.3348  155.4268 H   0  0  0  0  0  0  0  0  0  0  0  0  # atno 8009 bound_to 7997
  156.2187  140.1789  156.7512 H   0  0  0  0  0  0  0  0  0  0  0  0  # atno 8010 bound_to 7997
  140.0263  143.5294  152.2197 H   0  0  0  0  0  0  0  0  0  0  0  0  # atno 10167 bound_to 10162
  157.2299  130.7019  149.6308 H   0  0  0  0  0  0  0  0  0  0  0  0  # atno 10718 bound_to 10713
  154.5063  135.5781  153.6570 H   0  0  0  0  0  0  0  0  0  0  0  0  # atno 10763 bound_to 10752
  152.9888  135.6148  154.2936 H   0  0  0  0  0  0  0  0  0  0  0  0  # atno 10764 bound_to 10752
  154.2848  135.2850  155.2661 H   0  0  0  0  0  0  0  0  0  0  0  0  # atno 10765 bound_to 10752
  141.0815  133.9212  157.2279 H   0  0  0  0  0  0  0  0  0  0  0  0  # atno 11005 bound_to 11000
  144.8265  139.5700  143.6963 LP  0  0  0  0  0  0  0  0  0  0  0  0  # atno 17320 bound_to 7965
  146.2672  139.6548  142.9321 LP  0  0  0  0  0  0  0  0  0  0  0  0  # atno 17321 bound_to 7965
  139.6106  144.7607  151.2961 LP  0  0  0  0  0  0  0  0  0  0  0  0  # atno 17342 bound_to 10162
  140.7321  143.6832  150.7983 LP  0  0  0  0  0  0  0  0  0  0  0  0  # atno 17343 bound_to 10162
  155.9676  130.4492  150.5650 LP  0  0  0  0  0  0  0  0  0  0  0  0  # atno 17370 bound_to 10713
  157.3489  131.0730  151.1729 LP  0  0  0  0  0  0  0  0  0  0  0  0  # atno 17371 bound_to 10713
  139.9629  135.0149  156.9309 LP  0  0  0  0  0  0  0  0  0  0  0  0  # atno 17394 bound_to 11000
  140.5458  134.0675  155.7354 LP  0  0  0  0  0  0  0  0  0  0  0  0  # atno 17395 bound_to 11000

$$$$
