AV-unprocessed.smi:1553|AV-procd|sdf|6238|dock2
  -GOLD-   22720 6423D 1   1.00000     0.00000
 Structure written by MMmdl.
 37 38  0  0  0  0  0  0  0  0  1 V2000
  144.9141  139.9287  155.5769 C   0  0  0  0  0  0  0  0  0  0  0  0
  146.0772  140.7769  155.1931 C   0  0  0  0  0  0  0  0  0  0  0  0
  147.3471  140.4441  155.4373 N   0  0  0  0  0  0  0  0  0  0  0  0
  148.2515  141.4144  154.9957 C   0  0  0  0  0  0  0  0  0  0  0  0
  149.7219  141.2389  155.2463 C   0  0  0  0  0  0  0  0  0  0  0  0
  150.0692  141.0008  156.7301 C   0  0  0  0  0  0  0  0  0  0  0  0
  150.9534  142.0392  157.2568 N   0  0  0  0  0  0  0  0  0  0  0  0
  151.8453  141.8828  158.2530 C   0  0  0  0  0  0  0  0  0  0  0  0
  152.0718  140.7764  158.7413 O   0  0  0  0  0  0  0  0  0  0  0  0
  152.3623  143.0508  158.7256 N   0  0  0  0  0  0  0  0  0  0  0  0
  152.1562  144.3634  158.0892 C   0  0  0  0  0  0  0  0  0  0  0  0
  151.2489  145.2004  159.0050 C   0  0  0  0  0  0  0  0  0  0  0  0
  151.8847  145.3579  160.2697 O   0  0  0  0  0  0  0  0  0  0  0  0
  152.1881  144.1187  160.9064 C   0  0  0  0  0  0  0  0  0  0  0  0
  153.0927  143.2547  159.9995 C   0  0  1  0  0  0  0  0  0  0  0  0
  153.5647  141.9976  160.7594 C   0  0  0  0  0  0  0  0  0  0  0  0
  147.6432  142.4837  154.3859 C   0  0  0  0  0  0  0  0  0  0  0  0
  145.9093  142.3243  154.3738 S   0  0  0  0  0  0  0  0  0  0  0  0
  145.2329  139.1072  156.2193 H   0  0  0  0  0  0  0  0  0  0  0  0
  144.4450  139.5146  154.6844 H   0  0  0  0  0  0  0  0  0  0  0  0
  144.1788  140.5269  156.1152 H   0  0  0  0  0  0  0  0  0  0  0  0
  150.1050  140.4089  154.6518 H   0  0  0  0  0  0  0  0  0  0  0  0
  150.2585  142.1215  154.8963 H   0  0  0  0  0  0  0  0  0  0  0  0
  149.1536  140.9390  157.3204 H   0  0  0  0  0  0  0  0  0  0  0  0
  150.5647  140.0364  156.8412 H   0  0  0  0  0  0  0  0  0  0  0  0
  150.8065  142.9746  156.9068 H   0  0  0  0  0  0  0  0  0  0  0  0
  153.1170  144.8641  157.9612 H   0  0  0  0  0  0  0  0  0  0  0  0
  151.7340  144.3107  157.0854 H   0  0  0  0  0  0  0  0  0  0  0  0
  151.0764  146.1854  158.5714 H   0  0  0  0  0  0  0  0  0  0  0  0
  150.2736  144.7270  159.1301 H   0  0  0  0  0  0  0  0  0  0  0  0
  152.6886  144.3341  161.8507 H   0  0  0  0  0  0  0  0  0  0  0  0
  151.2635  143.5926  161.1495 H   0  0  0  0  0  0  0  0  0  0  0  0
  153.9955  143.8253  159.7755 H   0  0  0  0  0  0  0  0  0  0  0  0
  154.1286  142.2780  161.6494 H   0  0  0  0  0  0  0  0  0  0  0  0
  154.2252  141.3834  160.1467 H   0  0  0  0  0  0  0  0  0  0  0  0
  152.7269  141.3839  161.0931 H   0  0  0  0  0  0  0  0  0  0  0  0
  148.1071  143.3639  153.9664 H   0  0  0  0  0  0  0  0  0  0  0  0
  1  2  1  0  0  0  0
  1 19  1  0  0  0  0
  1 20  1  0  0  0  0
  1 21  1  0  0  0  0
  2 18  1  0  0  0  0
  2  3  2  0  0  0  0
  3  4  1  0  0  0  0
  4  5  1  0  0  0  0
  4 17  2  0  0  0  0
  5  6  1  0  0  0  0
  5 22  1  0  0  0  0
  5 23  1  0  0  0  0
  6  7  1  0  0  0  0
  6 24  1  0  0  0  0
  6 25  1  0  0  0  0
  7  8  1  0  0  0  0
  7 26  1  0  0  0  0
  8  9  2  0  0  0  0
  8 10  1  0  0  0  0
 10 15  1  0  0  0  0
 10 11  1  0  0  0  0
 11 12  1  0  0  0  0
 11 27  1  0  0  0  0
 11 28  1  0  0  0  0
 12 13  1  0  0  0  0
 12 29  1  0  0  0  0
 12 30  1  0  0  0  0
 13 14  1  0  0  0  0
 14 15  1  0  0  0  0
 14 31  1  0  0  0  0
 14 32  1  0  0  0  0
 15 16  1  0  0  0  0
 15 33  1  0  0  0  0
 16 34  1  0  0  0  0
 16 35  1  0  0  0  0
 16 36  1  0  0  0  0
 17 18  1  0  0  0  0
 17 37  1  0  0  0  0
M  END
> <s_m_source_file>
AV-unprocessed.smi

> <i_m_source_file_index>
1553

> <i_lp_mmshare_version>
43012

> <i_f3d_flags>
0

> <s_epik_input>
W0NIM11jMW5jKFtjSF1zMSlbQ0gyXVtDSDJdW05IXUMoPU8pTjJbQ0gyXVtDSDJdT1tDSDJdW0NASF0yW0NIM10=

> <s_epik_cmdline>
J2VwaWtfcHl0aG9uJywgJy1waCcsICc3LjAnLCAnLXRuJywgJzgnLCAnLW1hJywgJzIwMCcsICctbWV0YWxfYmluZGluZycsICctaW1hZScsICc8aW5maWxlLm1hZT4nLCAnLW9tYWUnLCAnPG91dGZpbGUubWFlPic=

> <r_epik_Ionization_Penalty>
0.0020768

> <r_epik_Ionization_Penalty_Charging>
0

> <r_epik_Ionization_Penalty_Neutral>
0.0020768

> <r_epik_State_Penalty>
0.00139904

> <r_epik_Charging_Adjusted_Penalty>
0.00139904

> <i_epik_Tot_Q>
0

> <i_epik_Tot_abs_Q>
0

> <r_epik_Metal_State_Penalty>
-0

> <b_epik_Metal_Only>
0

> <s_lp_Force_Field>
OPLS_2005

> <r_lp_Energy>
28.2448

> <b_lp_Chiralities_Consistent>
1

> <s_lp_Variant>
AV-unprocessed.smi:1553-1

> <Gold.Version>
5.8.1

> <Gold.Id.Protein>
6NUR|6NUR_protein|mol2

> <Gold.PLP.Fitness>
39.9342

> <Gold.PLP.PLP>
-39.3169

> <Gold.PLP.part.hbond>
0.0000

> <Gold.PLP.part.metal>
0.0000

> <Gold.PLP.part.buried>
-3.5616

> <Gold.PLP.part.nonpolar>
-36.6925

> <Gold.PLP.part.repulsive>
0.2416

> <Gold.PLP.ligand.clash>
0.1390

> <Gold.PLP.ligand.torsion>
0.6401

> <Gold.PLP.Chemscore.Hbond>
0.0000

> <Gold.PLP.Chemscore.CHOScore>
0.6292

> <Gold.PLP.Chemscore.Metal>
0.0000

> <Gold.Chemscore.Hbonds>
donor molecule, donor type, donor heavy atom, donor atom, acceptor molecule, acceptor atom, score
      L1  C    17    37       P1  8028  0.62

> <Gold.PLP.Chemscore.Internal.Correction>
0.1488

> <Gold.Rescore>
     Score         DG    S(hbond)    S(metal)    S(lipo)     H(rot)  DE(clash)    DE(int)     intcor
     10.99     -13.29       0.00        0.00      95.88       1.33       0.25       2.05       ----

> <Gold.Chemscore.Fitness>
10.9867

> <Gold.Chemscore.DG>
-13.2865

> <Gold.Chemscore.ZeroCoef>
-5.4800

> <Gold.Chemscore.Hbond>
0.0000

> <Gold.Chemscore.Metal>
0.0000

> <Gold.Chemscore.Lipo>
95.8768

> <Gold.Chemscore.Internal_Hbond>
0.0000

> <Gold.Chemscore.DEClash>
0.2530

> <Gold.Chemscore.DEInternal>
2.0468

> <Gold.Chemscore.Rot>
1.3325

> <Gold.Chemscore.Internal.Correction>
   9.000000E+99

> <Gold.Chemscore.Hbond.Weighted>
-0.0000

> <Gold.Chemscore.Metal.Weighted>
-0.0000

> <Gold.Chemscore.Lipo.Weighted>
-11.2176

> <Gold.Chemscore.Internal_Hbond.Weighted>
0.0000

> <Gold.Chemscore.DEClash.Weighted>
0.2530

> <Gold.Chemscore.DEInternal.Weighted>
2.0468

> <Gold.Chemscore.Rot.Weighted>
3.4111

> <Gold.Chemscore.Internal.Correction.Weighted>
   9.000000E+99

> <Gold.Protein.RotatedTorsions>
[ 6907 6896 6895 6894 ] final  -58.26 input  -60.11 | X-H torsion
[ 7974 7965 7964 7962 ] final   -9.34 input  175.53 | X-H torsion
[ 8008 7997 7996 7995 ] final -169.00 input   59.86 | X-H torsion
[ 10167 10162 10161 10158 ] final -169.65 input  -65.29 | X-H torsion
[ 10718 10713 10712 10709 ] final   86.27 input   66.30 | X-H torsion
[ 10763 10752 10751 10750 ] final -132.91 input  -60.55 | X-H torsion
[ 11005 11000 10999 10996 ] final  -28.64 input  -57.11 | X-H torsion

> <Gold.Protein.ActiveResidues>
 VAL166  LYS551  ARG553  GLY616  TRP617  ASP618  TYR619  PRO620  LYS621  CYS622 
 ASP623  PHE694  ASN695  SER759  ASP760  ASP761  ALA762  ILE779  LEU786  VAL792 
 PHE793  MET794  SER795  GLU796  ALA797  LYS798  CYS799  TRP800  GLU811  SER814 

> <Gold.Protein.RotatedAtoms>
  150.8021  134.7122  159.6609 H   0  0  0  0  0  0  0  0  0  0  0  0  # atno 6907 bound_to 6896
  152.4139  134.6073  160.0026 H   0  0  0  0  0  0  0  0  0  0  0  0  # atno 6908 bound_to 6896
  151.6308  133.3295  159.3144 H   0  0  0  0  0  0  0  0  0  0  0  0  # atno 6909 bound_to 6896
  146.2254  140.2602  142.8351 H   0  0  0  0  0  0  0  0  0  0  0  0  # atno 7974 bound_to 7965
  155.8990  140.1037  157.1364 H   0  0  0  0  0  0  0  0  0  0  0  0  # atno 8008 bound_to 7997
  154.4024  140.1296  156.4476 H   0  0  0  0  0  0  0  0  0  0  0  0  # atno 8009 bound_to 7997
  155.7445  140.3466  155.5122 H   0  0  0  0  0  0  0  0  0  0  0  0  # atno 8010 bound_to 7997
  139.5910  144.1214  152.1633 H   0  0  0  0  0  0  0  0  0  0  0  0  # atno 10167 bound_to 10162
  157.6926  131.0208  150.2947 H   0  0  0  0  0  0  0  0  0  0  0  0  # atno 10718 bound_to 10713
  154.8738  135.3783  154.4486 H   0  0  0  0  0  0  0  0  0  0  0  0  # atno 10763 bound_to 10752
  153.5165  135.7029  153.5759 H   0  0  0  0  0  0  0  0  0  0  0  0  # atno 10764 bound_to 10752
  153.4025  135.3945  155.1963 H   0  0  0  0  0  0  0  0  0  0  0  0  # atno 10765 bound_to 10752
  140.9226  133.7389  156.0823 H   0  0  0  0  0  0  0  0  0  0  0  0  # atno 11005 bound_to 11000
  144.9345  140.8012  143.5668 LP  0  0  0  0  0  0  0  0  0  0  0  0  # atno 17320 bound_to 7965
  145.2548  139.2016  143.4923 LP  0  0  0  0  0  0  0  0  0  0  0  0  # atno 17321 bound_to 7965
  140.0788  144.5717  150.7137 LP  0  0  0  0  0  0  0  0  0  0  0  0  # atno 17342 bound_to 10162
  140.7172  143.2556  151.4394 LP  0  0  0  0  0  0  0  0  0  0  0  0  # atno 17343 bound_to 10162
  156.3472  130.3825  149.7359 LP  0  0  0  0  0  0  0  0  0  0  0  0  # atno 17370 bound_to 10713
  156.4848  130.8058  151.3070 LP  0  0  0  0  0  0  0  0  0  0  0  0  # atno 17371 bound_to 10713
  140.7967  134.3555  157.5450 LP  0  0  0  0  0  0  0  0  0  0  0  0  # atno 17394 bound_to 11000
  139.8779  134.9173  156.3175 LP  0  0  0  0  0  0  0  0  0  0  0  0  # atno 17395 bound_to 11000

$$$$
