AV-unprocessed.smi:284|AV-procd|sdf|2160|dock8
  -GOLD-   2262021513D 1   1.00000     0.00000
 Structure written by MMmdl.
 60 62  0  0  0  0  0  0  0  0  1 V2000
  147.5376  139.1798  154.0811 C   0  0  0  0  0  0  0  0  0  0  0  0
  148.5212  138.1170  154.5450 C   0  0  0  0  0  0  0  0  0  0  0  0
  148.1663  136.8181  154.6774 C   0  0  0  0  0  0  0  0  0  0  0  0
  149.0348  135.8274  155.0963 N   0  0  0  0  0  0  0  0  0  0  0  0
  148.5826  134.3896  155.2302 C   0  0  1  0  0  0  0  0  0  0  0  0
  147.3748  134.2944  156.1652 C   0  0  0  0  0  0  0  0  0  0  0  0
  146.2251  134.1892  155.1839 C   0  0  2  0  0  0  0  0  0  0  0  0
  145.1285  133.5107  155.7610 O   0  0  0  0  0  0  0  0  0  0  0  0
  146.8590  133.4038  154.0331 C   0  0  1  0  0  0  0  0  0  0  0  0
  146.1541  133.6111  152.6831 C   0  0  0  0  0  0  0  0  0  0  0  0
  146.2708  134.9578  152.2766 O   0  0  0  0  0  0  0  0  0  0  0  0
  148.1911  133.9114  153.9761 O   0  0  0  0  0  0  0  0  0  0  0  0
  150.3602  136.1620  155.4405 C   0  0  0  0  0  0  0  0  0  0  0  0
  151.1456  135.3015  155.8450 O   0  0  0  0  0  0  0  0  0  0  0  0
  150.7634  137.5105  155.3135 N   0  0  0  0  0  0  0  0  0  0  0  0
  152.1636  137.8581  155.6437 C   0  0  0  0  0  0  0  0  0  0  0  0
  152.2860  138.7771  156.8693 C   0  0  0  0  0  0  0  0  0  0  0  0
  152.7473  138.3432  157.9255 O   0  0  0  0  0  0  0  0  0  0  0  0
  151.8991  140.0506  156.6708 N   0  0  0  0  0  0  0  0  0  0  0  0
  151.8551  141.1279  157.5976 C   0  0  0  0  0  0  0  0  0  0  0  0
  150.8852  142.1254  157.3793 C   0  0  0  0  0  0  0  0  0  0  0  0
  150.7605  143.2145  158.2631 C   0  0  0  0  0  0  0  0  0  0  0  0
  151.6021  143.3291  159.3967 C   0  0  0  0  0  0  0  0  0  0  0  0
  151.4972  144.5037  160.3883 C   0  0  0  0  0  0  0  0  0  0  0  0
  152.3982  144.2326  161.6115 C   0  0  0  0  0  0  0  0  0  0  0  0
  150.0591  144.7279  160.9081 C   0  0  0  0  0  0  0  0  0  0  0  0
  151.9535  145.8056  159.6977 C   0  0  0  0  0  0  0  0  0  0  0  0
  152.5660  142.3168  159.6147 C   0  0  0  0  0  0  0  0  0  0  0  0
  152.6905  141.2256  158.7341 C   0  0  0  0  0  0  0  0  0  0  0  0
  149.8912  138.5301  154.8586 C   0  0  0  0  0  0  0  0  0  0  0  0
  150.2885  139.6908  154.7398 O   0  0  0  0  0  0  0  0  0  0  0  0
  146.5512  138.7604  153.8805 H   0  0  0  0  0  0  0  0  0  0  0  0
  147.8912  139.6525  153.1640 H   0  0  0  0  0  0  0  0  0  0  0  0
  147.4228  139.9515  154.8429 H   0  0  0  0  0  0  0  0  0  0  0  0
  147.1469  136.5501  154.4452 H   0  0  0  0  0  0  0  0  0  0  0  0
  149.4455  133.8166  155.5722 H   0  0  0  0  0  0  0  0  0  0  0  0
  147.4741  133.3810  156.7541 H   0  0  0  0  0  0  0  0  0  0  0  0
  147.3044  135.1452  156.8442 H   0  0  0  0  0  0  0  0  0  0  0  0
  145.9184  135.1832  154.8550 H   0  0  0  0  0  0  0  0  0  0  0  0
  145.4587  132.8133  156.3066 H   0  0  0  0  0  0  0  0  0  0  0  0
  146.9003  132.3453  154.2979 H   0  0  0  0  0  0  0  0  0  0  0  0
  146.6276  132.9984  151.9153 H   0  0  0  0  0  0  0  0  0  0  0  0
  145.1053  133.3173  152.7302 H   0  0  0  0  0  0  0  0  0  0  0  0
  147.1795  135.2114  152.3320 H   0  0  0  0  0  0  0  0  0  0  0  0
  152.7687  136.9689  155.8261 H   0  0  0  0  0  0  0  0  0  0  0  0
  152.6481  138.3320  154.7879 H   0  0  0  0  0  0  0  0  0  0  0  0
  151.6368  140.2863  155.7248 H   0  0  0  0  0  0  0  0  0  0  0  0
  150.2283  142.0619  156.5240 H   0  0  0  0  0  0  0  0  0  0  0  0
  150.0031  143.9502  158.0431 H   0  0  0  0  0  0  0  0  0  0  0  0
  152.3275  145.0388  162.3428 H   0  0  0  0  0  0  0  0  0  0  0  0
  153.4493  144.1438  161.3372 H   0  0  0  0  0  0  0  0  0  0  0  0
  152.1119  143.3087  162.1154 H   0  0  0  0  0  0  0  0  0  0  0  0
  149.6802  143.8529  161.4380 H   0  0  0  0  0  0  0  0  0  0  0  0
  149.3678  144.9594  160.0968 H   0  0  0  0  0  0  0  0  0  0  0  0
  150.0185  145.5640  161.6072 H   0  0  0  0  0  0  0  0  0  0  0  0
  151.8710  146.6610  160.3693 H   0  0  0  0  0  0  0  0  0  0  0  0
  151.3440  146.0198  158.8190 H   0  0  0  0  0  0  0  0  0  0  0  0
  152.9925  145.7558  159.3716 H   0  0  0  0  0  0  0  0  0  0  0  0
  153.2221  142.3641  160.4708 H   0  0  0  0  0  0  0  0  0  0  0  0
  153.4264  140.4709  158.9630 H   0  0  0  0  0  0  0  0  0  0  0  0
  1  2  1  0  0  0  0
  1 32  1  0  0  0  0
  1 33  1  0  0  0  0
  1 34  1  0  0  0  0
  2 30  1  0  0  0  0
  2  3  2  0  0  0  0
  3  4  1  0  0  0  0
  3 35  1  0  0  0  0
  4  5  1  0  0  0  0
  4 13  1  0  0  0  0
  5 12  1  0  0  0  0
  5  6  1  0  0  0  0
  5 36  1  0  0  0  0
  6  7  1  0  0  0  0
  6 37  1  0  0  0  0
  6 38  1  0  0  0  0
  7  8  1  0  0  0  0
  7  9  1  0  0  0  0
  7 39  1  0  0  0  0
  8 40  1  0  0  0  0
  9 10  1  0  0  0  0
  9 12  1  0  0  0  0
  9 41  1  0  0  0  0
 10 11  1  0  0  0  0
 10 42  1  0  0  0  0
 10 43  1  0  0  0  0
 11 44  1  0  0  0  0
 13 14  2  0  0  0  0
 13 15  1  0  0  0  0
 15 16  1  0  0  0  0
 15 30  1  0  0  0  0
 16 17  1  0  0  0  0
 16 45  1  0  0  0  0
 16 46  1  0  0  0  0
 17 18  2  0  0  0  0
 17 19  1  0  0  0  0
 19 20  1  0  0  0  0
 19 47  1  0  0  0  0
 20 29  1  0  0  0  0
 20 21  2  0  0  0  0
 21 22  1  0  0  0  0
 21 48  1  0  0  0  0
 22 23  2  0  0  0  0
 22 49  1  0  0  0  0
 23 24  1  0  0  0  0
 23 28  1  0  0  0  0
 24 25  1  0  0  0  0
 24 26  1  0  0  0  0
 24 27  1  0  0  0  0
 25 50  1  0  0  0  0
 25 51  1  0  0  0  0
 25 52  1  0  0  0  0
 26 53  1  0  0  0  0
 26 54  1  0  0  0  0
 26 55  1  0  0  0  0
 27 56  1  0  0  0  0
 27 57  1  0  0  0  0
 27 58  1  0  0  0  0
 28 29  2  0  0  0  0
 28 59  1  0  0  0  0
 29 60  1  0  0  0  0
 30 31  2  0  0  0  0
M  END
> <s_m_source_file>
AV-unprocessed.smi

> <i_m_source_file_index>
284

> <i_lp_mmshare_version>
43012

> <i_f3d_flags>
0

> <s_epik_input>
W09IXVtDSDJdW0NAQEhdKE8xKVtDQEhdKFtPSF0pW0NIMl1bQ0BIXTFuKFtjSF1jMltDSDNdKWMoPU8pbihjMj1PKVtDSDJdQyg9TylbTkhdYzNbY0hdW2NIXWMoQyhbQ0gzXSkoW0NIM10pW0NIM10pW2NIXVtjSF0z

> <s_epik_cmdline>
J2VwaWtfcHl0aG9uJywgJy1waCcsICc3LjAnLCAnLXRuJywgJzgnLCAnLW1hJywgJzIwMCcsICctbWV0YWxfYmluZGluZycsICctaW1hZScsICc8aW5maWxlLm1hZT4nLCAnLW9tYWUnLCAnPG91dGZpbGUubWFlPic=

> <r_lp_tautomer_probability>
1

> <r_epik_Ionization_Penalty>
4.92358e-06

> <r_epik_Ionization_Penalty_Charging>
1.29777e-07

> <r_epik_Ionization_Penalty_Neutral>
4.79381e-06

> <r_epik_State_Penalty>
-0

> <r_epik_Charging_Adjusted_Penalty>
1.29777e-07

> <i_epik_Tot_Q>
0

> <i_epik_Tot_abs_Q>
0

> <r_epik_Metal_State_Penalty>
-0

> <b_epik_Metal_Only>
0

> <s_epik_Chemistry_Notes>
This compound contains an acetal/aminal-like group ( X-CH(R)-Y where X, Y are N, S, or O) that may be acid/base labile, releasing an aldehyde.

> <s_lp_Force_Field>
OPLS_2005

> <r_lp_Energy>
39.3511

> <b_lp_Chiralities_Consistent>
1

> <s_lp_Variant>
AV-unprocessed.smi:284-4

> <Gold.Version>
5.8.1

> <Gold.Id.Protein>
6NUR|6NUR_protein|mol2

> <Gold.PLP.Fitness>
50.3516

> <Gold.PLP.PLP>
-42.3693

> <Gold.PLP.part.hbond>
-3.3973

> <Gold.PLP.part.metal>
0.0000

> <Gold.PLP.part.buried>
-0.3818

> <Gold.PLP.part.nonpolar>
-39.2198

> <Gold.PLP.part.repulsive>
0.7780

> <Gold.PLP.ligand.clash>
0.0000

> <Gold.PLP.ligand.torsion>
0.5542

> <Gold.PLP.Chemscore.Hbond>
3.0000

> <Gold.PLP.Chemscore.CHOScore>
0.0000

> <Gold.PLP.Chemscore.Metal>
0.0000

> <Gold.Chemscore.Hbonds>
donor molecule, donor type, donor heavy atom, donor atom, acceptor molecule, acceptor atom, score
      L1  H    11    44       P1  7948  0.89
      P1  H  7989  7998       L1    31  0.63
      P1  H 10752 10765       L1    14  0.75

> <Gold.PLP.Chemscore.Internal.Correction>
0.0908

> <Gold.Rescore>
     Score         DG    S(hbond)    S(metal)    S(lipo)     H(rot)  DE(clash)    DE(int)     intcor
     15.10     -20.77       2.66        0.00     126.34       3.27       1.83       3.85       ----

> <Gold.Chemscore.Fitness>
15.0951

> <Gold.Chemscore.DG>
-20.7720

> <Gold.Chemscore.ZeroCoef>
-5.4800

> <Gold.Chemscore.Hbond>
2.6618

> <Gold.Chemscore.Metal>
0.0000

> <Gold.Chemscore.Lipo>
126.3394

> <Gold.Chemscore.Internal_Hbond>
0.0000

> <Gold.Chemscore.DEClash>
1.8265

> <Gold.Chemscore.DEInternal>
3.8504

> <Gold.Chemscore.Rot>
3.2735

> <Gold.Chemscore.Internal.Correction>
   9.000000E+99

> <Gold.Chemscore.Hbonds>
donor molecule, donor type, donor heavy atom, donor atom, acceptor molecule, acceptor atom, score
      L1  H    11    44       P1  7948  0.86
      P1  H  7989  7998       L1    31  0.65
      P1  H 10752 10765       L1    14  0.62

> <Gold.Chemscore.Hbond.Weighted>
-8.8903

> <Gold.Chemscore.Metal.Weighted>
-0.0000

> <Gold.Chemscore.Lipo.Weighted>
-14.7817

> <Gold.Chemscore.Internal_Hbond.Weighted>
0.0000

> <Gold.Chemscore.DEClash.Weighted>
1.8265

> <Gold.Chemscore.DEInternal.Weighted>
3.8504

> <Gold.Chemscore.Rot.Weighted>
8.3801

> <Gold.Chemscore.Internal.Correction.Weighted>
   9.000000E+99

> <Gold.Protein.RotatedTorsions>
[ 6907 6896 6895 6894 ] final -123.26 input  -60.11 | X-H torsion
[ 7974 7965 7964 7962 ] final  134.52 input  175.53 | X-H torsion
[ 8008 7997 7996 7995 ] final  -77.72 input   59.86 | X-H torsion
[ 10167 10162 10161 10158 ] final  -81.83 input  -65.29 | X-H torsion
[ 10718 10713 10712 10709 ] final   93.50 input   66.30 | X-H torsion
[ 10763 10752 10751 10750 ] final -153.28 input  -60.55 | X-H torsion
[ 11005 11000 10999 10996 ] final  123.66 input  -57.11 | X-H torsion

> <Gold.Protein.ActiveResidues>
 VAL166  LYS551  ARG553  GLY616  TRP617  ASP618  TYR619  PRO620  LYS621  CYS622 
 ASP623  PHE694  ASN695  SER759  ASP760  ASP761  ALA762  ILE779  LEU786  VAL792 
 PHE793  MET794  SER795  GLU796  ALA797  LYS798  CYS799  TRP800  GLU811  SER814 

> <Gold.Protein.RotatedAtoms>
  150.8654  133.7582  159.2978 H   0  0  0  0  0  0  0  0  0  0  0  0  # atno 6907 bound_to 6896
  151.5211  135.1065  159.9888 H   0  0  0  0  0  0  0  0  0  0  0  0  # atno 6908 bound_to 6896
  152.4657  133.7873  159.6939 H   0  0  0  0  0  0  0  0  0  0  0  0  # atno 6909 bound_to 6896
  144.9755  139.4559  143.5412 H   0  0  0  0  0  0  0  0  0  0  0  0  # atno 7974 bound_to 7965
  154.5622  140.0706  156.8837 H   0  0  0  0  0  0  0  0  0  0  0  0  # atno 8008 bound_to 7997
  155.2789  140.3370  155.4241 H   0  0  0  0  0  0  0  0  0  0  0  0  # atno 8009 bound_to 7997
  156.2052  140.1737  156.7801 H   0  0  0  0  0  0  0  0  0  0  0  0  # atno 8010 bound_to 7997
  140.4376  143.2526  151.8671 H   0  0  0  0  0  0  0  0  0  0  0  0  # atno 10167 bound_to 10162
  157.6954  131.0480  150.4043 H   0  0  0  0  0  0  0  0  0  0  0  0  # atno 10718 bound_to 10713
  154.7938  135.3216  154.7715 H   0  0  0  0  0  0  0  0  0  0  0  0  # atno 10763 bound_to 10752
  153.8398  135.6872  153.4808 H   0  0  0  0  0  0  0  0  0  0  0  0  # atno 10764 bound_to 10752
  153.1620  135.4657  154.9726 H   0  0  0  0  0  0  0  0  0  0  0  0  # atno 10765 bound_to 10752
  139.9323  134.9641  156.8293 H   0  0  0  0  0  0  0  0  0  0  0  0  # atno 11005 bound_to 11000
  146.3394  139.8995  142.8796 LP  0  0  0  0  0  0  0  0  0  0  0  0  # atno 17320 bound_to 7965
  145.2496  141.0039  143.3889 LP  0  0  0  0  0  0  0  0  0  0  0  0  # atno 17321 bound_to 7965
  139.4788  144.5265  151.8728 LP  0  0  0  0  0  0  0  0  0  0  0  0  # atno 17342 bound_to 10162
  140.4355  144.2057  150.5889 LP  0  0  0  0  0  0  0  0  0  0  0  0  # atno 17343 bound_to 10162
  156.4434  130.3996  149.6683 LP  0  0  0  0  0  0  0  0  0  0  0  0  # atno 17370 bound_to 10713
  156.3858  130.7602  151.2599 LP  0  0  0  0  0  0  0  0  0  0  0  0  # atno 17371 bound_to 10713
  140.6169  134.0030  155.7601 LP  0  0  0  0  0  0  0  0  0  0  0  0  # atno 17394 bound_to 11000
  141.0918  133.9905  157.3225 LP  0  0  0  0  0  0  0  0  0  0  0  0  # atno 17395 bound_to 11000

$$$$
