AV-unprocessed.smi:3058|AV-procd|sdf|11669|dock4
  -GOLD-   2272017 73D 1   1.00000     0.00000
 Structure written by MMmdl.
 38 40  0  0  0  0  0  0  0  0  1 V2000
  146.6882  134.0633  153.4890 O   0  0  0  0  0  0  0  0  0  0  0  0
  147.0120  133.3576  152.5333 C   0  0  0  0  0  0  0  0  0  0  0  0
  148.0480  132.5054  152.5736 N   0  0  0  0  0  0  0  0  0  0  0  0
  148.9196  132.2987  153.7238 C   0  0  0  0  0  0  0  0  0  0  0  0
  149.2932  130.8168  153.8936 C   0  0  0  0  0  0  0  0  0  0  0  0
  150.5583  130.6372  154.7095 C   0  0  0  0  0  0  0  0  0  0  0  0
  150.9905  131.6416  155.5998 C   0  0  0  0  0  0  0  0  0  0  0  0
  152.1693  131.4301  156.3403 C   0  0  0  0  0  0  0  0  0  0  0  0
  152.8683  130.2202  156.1571 C   0  0  0  0  0  0  0  0  0  0  0  0
  152.4637  129.2513  155.3076 N   0  0  0  0  0  0  0  0  0  0  0  0
  151.3315  129.4616  154.6020 C   0  0  0  0  0  0  0  0  0  0  0  0
  146.2325  133.4137  151.2079 C   0  0  2  0  0  0  0  0  0  0  0  0
  144.9043  134.2034  151.3125 C   0  0  0  0  0  0  0  0  0  0  0  0
  143.8547  133.1993  150.7973 C   0  0  1  0  0  0  0  0  0  0  0  0
  144.0583  132.9729  149.2868 C   0  0  0  0  0  0  0  0  0  0  0  0
  145.3471  132.1290  149.2403 C   0  0  0  0  0  0  0  0  0  0  0  0
  145.7351  132.0261  150.7276 C   0  0  2  0  0  0  0  0  0  0  0  0
  144.3601  131.8877  151.3811 C   0  0  0  0  0  0  0  0  0  0  0  0
  148.2462  131.9603  151.7470 H   0  0  0  0  0  0  0  0  0  0  0  0
  149.8165  132.9129  153.6256 H   0  0  0  0  0  0  0  0  0  0  0  0
  148.3963  132.6536  154.6121 H   0  0  0  0  0  0  0  0  0  0  0  0
  148.4758  130.2777  154.3743 H   0  0  0  0  0  0  0  0  0  0  0  0
  149.4393  130.3471  152.9199 H   0  0  0  0  0  0  0  0  0  0  0  0
  150.4284  132.5569  155.7152 H   0  0  0  0  0  0  0  0  0  0  0  0
  152.5296  132.1773  157.0319 H   0  0  0  0  0  0  0  0  0  0  0  0
  153.7767  130.0256  156.7079 H   0  0  0  0  0  0  0  0  0  0  0  0
  151.0343  128.6670  153.9336 H   0  0  0  0  0  0  0  0  0  0  0  0
  146.8747  133.8610  150.4469 H   0  0  0  0  0  0  0  0  0  0  0  0
  144.6767  134.4934  152.3397 H   0  0  0  0  0  0  0  0  0  0  0  0
  144.9229  135.1157  150.7151 H   0  0  0  0  0  0  0  0  0  0  0  0
  142.8306  133.4596  151.0668 H   0  0  0  0  0  0  0  0  0  0  0  0
  143.2219  132.4191  148.8583 H   0  0  0  0  0  0  0  0  0  0  0  0
  144.1548  133.9110  148.7390 H   0  0  0  0  0  0  0  0  0  0  0  0
  145.1421  131.1411  148.8258 H   0  0  0  0  0  0  0  0  0  0  0  0
  146.1273  132.5888  148.6326 H   0  0  0  0  0  0  0  0  0  0  0  0
  146.4229  131.2064  150.9396 H   0  0  0  0  0  0  0  0  0  0  0  0
  144.3781  131.8786  152.4712 H   0  0  0  0  0  0  0  0  0  0  0  0
  143.8020  131.0169  151.0325 H   0  0  0  0  0  0  0  0  0  0  0  0
  1  2  2  0  0  0  0
  2  3  1  0  0  0  0
  2 12  1  0  0  0  0
  3  4  1  0  0  0  0
  3 19  1  0  0  0  0
  4  5  1  0  0  0  0
  4 20  1  0  0  0  0
  4 21  1  0  0  0  0
  5  6  1  0  0  0  0
  5 22  1  0  0  0  0
  5 23  1  0  0  0  0
  6 11  1  0  0  0  0
  6  7  2  0  0  0  0
  7  8  1  0  0  0  0
  7 24  1  0  0  0  0
  8  9  2  0  0  0  0
  8 25  1  0  0  0  0
  9 10  1  0  0  0  0
  9 26  1  0  0  0  0
 10 11  2  0  0  0  0
 11 27  1  0  0  0  0
 12 17  1  0  0  0  0
 12 13  1  0  0  0  0
 12 28  1  0  0  0  0
 13 14  1  0  0  0  0
 13 29  1  0  0  0  0
 13 30  1  0  0  0  0
 14 18  1  0  0  0  0
 14 15  1  0  0  0  0
 14 31  1  0  0  0  0
 15 16  1  0  0  0  0
 15 32  1  0  0  0  0
 15 33  1  0  0  0  0
 16 17  1  0  0  0  0
 16 34  1  0  0  0  0
 16 35  1  0  0  0  0
 17 18  1  0  0  0  0
 17 36  1  0  0  0  0
 18 37  1  0  0  0  0
 18 38  1  0  0  0  0
M  END
> <s_m_source_file>
AV-unprocessed.smi

> <i_m_source_file_index>
3058

> <i_lp_mmshare_version>
43012

> <i_f3d_flags>
0

> <s_epik_input>
W0NIMl0xW0NIMl1bQ0BIXShbQ0gyXTIpW0NAQEhdKFtDSDJdW0NAQEhdMTIpQyg9TylbTkhdW0NIMl1bQ0gyXWMzW2NIXVtjSF1bY0hdbltjSF0z

> <s_epik_cmdline>
J2VwaWtfcHl0aG9uJywgJy1waCcsICc3LjAnLCAnLXRuJywgJzgnLCAnLW1hJywgJzIwMCcsICctbWV0YWxfYmluZGluZycsICctaW1hZScsICc8aW5maWxlLm1hZT4nLCAnLW9tYWUnLCAnPG91dGZpbGUubWFlPic=

> <r_epik_Ionization_Penalty>
0.0135821

> <r_epik_Ionization_Penalty_Charging>
0

> <r_epik_Ionization_Penalty_Neutral>
0.0135821

> <r_epik_State_Penalty>
0.0105782

> <r_epik_Charging_Adjusted_Penalty>
0.0105782

> <i_epik_Tot_Q>
0

> <i_epik_Tot_abs_Q>
0

> <r_epik_Metal_State_Penalty>
0.0103407

> <b_epik_Metal_Only>
0

> <s_lp_Force_Field>
OPLS_2005

> <r_lp_Energy>
46.4183

> <b_lp_Chiralities_Consistent>
1

> <s_lp_Variant>
AV-unprocessed.smi:3058-1

> <Gold.Version>
5.8.1

> <Gold.Id.Protein>
6NUR|6NUR_protein|mol2

> <Gold.PLP.Fitness>
43.1197

> <Gold.PLP.PLP>
-38.5319

> <Gold.PLP.part.hbond>
-1.0000

> <Gold.PLP.part.metal>
0.0000

> <Gold.PLP.part.buried>
-5.3003

> <Gold.PLP.part.nonpolar>
-31.6713

> <Gold.PLP.part.repulsive>
0.1448

> <Gold.PLP.ligand.clash>
0.0000

> <Gold.PLP.ligand.torsion>
0.7242

> <Gold.PLP.Chemscore.Hbond>
1.0000

> <Gold.PLP.Chemscore.CHOScore>
1.0000

> <Gold.PLP.Chemscore.Metal>
0.0000

> <Gold.Chemscore.Hbonds>
donor molecule, donor type, donor heavy atom, donor atom, acceptor molecule, acceptor atom, score
      L1  H     3    19       P1 10747  1.00
      L1  C    11    27       P1 10737  0.83

> <Gold.PLP.Chemscore.Internal.Correction>
0.0362

> <Gold.Rescore>
     Score         DG    S(hbond)    S(metal)    S(lipo)     H(rot)  DE(clash)    DE(int)     intcor
     16.99     -17.53       0.98        0.00     104.96       1.37       0.00       0.54       ----

> <Gold.Chemscore.Fitness>
16.9881

> <Gold.Chemscore.DG>
-17.5328

> <Gold.Chemscore.ZeroCoef>
-5.4800

> <Gold.Chemscore.Hbond>
0.9784

> <Gold.Chemscore.Metal>
0.0000

> <Gold.Chemscore.Lipo>
104.9568

> <Gold.Chemscore.Internal_Hbond>
0.0000

> <Gold.Chemscore.DEClash>
0.0028

> <Gold.Chemscore.DEInternal>
0.5419

> <Gold.Chemscore.Rot>
1.3653

> <Gold.Chemscore.Internal.Correction>
   9.000000E+99

> <Gold.Chemscore.Hbonds>
donor molecule, donor type, donor heavy atom, donor atom, acceptor molecule, acceptor atom, score
      L1  H     3    19       P1 10747  0.98

> <Gold.Chemscore.Hbond.Weighted>
-3.2680

> <Gold.Chemscore.Metal.Weighted>
-0.0000

> <Gold.Chemscore.Lipo.Weighted>
-12.2799

> <Gold.Chemscore.Internal_Hbond.Weighted>
0.0000

> <Gold.Chemscore.DEClash.Weighted>
0.0028

> <Gold.Chemscore.DEInternal.Weighted>
0.5419

> <Gold.Chemscore.Rot.Weighted>
3.4951

> <Gold.Chemscore.Internal.Correction.Weighted>
   9.000000E+99

> <Gold.Protein.RotatedTorsions>
[ 6907 6896 6895 6894 ] final   -5.88 input  -60.11 | X-H torsion
[ 7974 7965 7964 7962 ] final   17.17 input  175.53 | X-H torsion
[ 8008 7997 7996 7995 ] final  -15.22 input   59.86 | X-H torsion
[ 10167 10162 10161 10158 ] final -119.47 input  -65.29 | X-H torsion
[ 10718 10713 10712 10709 ] final   57.24 input   66.30 | X-H torsion
[ 10763 10752 10751 10750 ] final  151.25 input  -60.55 | X-H torsion
[ 11005 11000 10999 10996 ] final    6.26 input  -57.11 | X-H torsion

> <Gold.Protein.ActiveResidues>
 VAL166  LYS551  ARG553  GLY616  TRP617  ASP618  TYR619  PRO620  LYS621  CYS622 
 ASP623  PHE694  ASN695  SER759  ASP760  ASP761  ALA762  ILE779  LEU786  VAL792 
 PHE793  MET794  SER795  GLU796  ALA797  LYS798  CYS799  TRP800  GLU811  SER814 

> <Gold.Protein.RotatedAtoms>
  151.4745  135.1048  159.9760 H   0  0  0  0  0  0  0  0  0  0  0  0  # atno 6907 bound_to 6896
  152.4803  133.8235  159.7076 H   0  0  0  0  0  0  0  0  0  0  0  0  # atno 6908 bound_to 6896
  150.8870  133.7233  159.2942 H   0  0  0  0  0  0  0  0  0  0  0  0  # atno 6909 bound_to 6896
  146.2227  139.8642  142.8599 H   0  0  0  0  0  0  0  0  0  0  0  0  # atno 7974 bound_to 7965
  154.5148  140.2202  155.9088 H   0  0  0  0  0  0  0  0  0  0  0  0  # atno 8008 bound_to 7997
  156.1594  140.3145  155.8747 H   0  0  0  0  0  0  0  0  0  0  0  0  # atno 8009 bound_to 7997
  155.3781  140.0470  157.3035 H   0  0  0  0  0  0  0  0  0  0  0  0  # atno 8010 bound_to 7997
  140.0463  143.5104  152.2105 H   0  0  0  0  0  0  0  0  0  0  0  0  # atno 10167 bound_to 10162
  157.5498  130.8757  149.8946 H   0  0  0  0  0  0  0  0  0  0  0  0  # atno 10718 bound_to 10713
  154.1007  135.2846  155.3252 H   0  0  0  0  0  0  0  0  0  0  0  0  # atno 10763 bound_to 10752
  154.6557  135.5353  153.7959 H   0  0  0  0  0  0  0  0  0  0  0  0  # atno 10764 bound_to 10752
  153.0380  135.6521  154.1171 H   0  0  0  0  0  0  0  0  0  0  0  0  # atno 10765 bound_to 10752
  140.5615  134.0188  155.7973 H   0  0  0  0  0  0  0  0  0  0  0  0  # atno 11005 bound_to 11000
  145.2674  141.0097  143.3791 LP  0  0  0  0  0  0  0  0  0  0  0  0  # atno 17320 bound_to 7965
  144.9251  139.4365  143.6522 LP  0  0  0  0  0  0  0  0  0  0  0  0  # atno 17321 bound_to 7965
  139.5981  144.7574  151.3236 LP  0  0  0  0  0  0  0  0  0  0  0  0  # atno 17342 bound_to 10162
  140.7237  143.7064  150.7804 LP  0  0  0  0  0  0  0  0  0  0  0  0  # atno 17343 bound_to 10162
  156.0566  130.3707  150.1076 LP  0  0  0  0  0  0  0  0  0  0  0  0  # atno 17370 bound_to 10713
  156.9250  130.9695  151.3542 LP  0  0  0  0  0  0  0  0  0  0  0  0  # atno 17371 bound_to 10713
  141.1112  133.9614  157.2907 LP  0  0  0  0  0  0  0  0  0  0  0  0  # atno 17394 bound_to 11000
  139.9405  135.0191  156.8694 LP  0  0  0  0  0  0  0  0  0  0  0  0  # atno 17395 bound_to 11000

$$$$
