AV-unprocessed.smi:1036|AV-procd|sdf|4519|dock3
  -GOLD-   22720 2533D 1   1.00000     0.00000
 Structure written by MMmdl.
 41 43  0  0  0  0  0  0  0  0  1 V2000
  151.4075  136.6250  154.1920 O   0  0  0  0  0  0  0  0  0  0  0  0
  151.3697  137.7656  155.0231 C   0  0  0  0  0  0  0  0  0  0  0  0
  152.7921  138.1478  155.4559 C   0  0  0  0  0  0  0  0  0  0  0  0
  152.8405  138.5803  156.8404 N   0  0  0  0  0  0  0  0  0  0  0  0
  153.3951  138.0090  157.9793 C   0  0  0  0  0  0  0  0  0  0  0  0
  154.0493  136.8487  157.9850 N   0  0  0  0  0  0  0  0  0  0  0  0
  154.4067  136.7201  159.3141 C   0  0  0  0  0  0  0  0  0  0  0  0
  155.1243  135.6989  159.9774 C   0  0  0  0  0  0  0  0  0  0  0  0
  155.3747  135.7860  161.3627 C   0  0  0  0  0  0  0  0  0  0  0  0
  154.9133  136.8933  162.1038 C   0  0  0  0  0  0  0  0  0  0  0  0
  154.1959  137.9222  161.4636 C   0  0  0  0  0  0  0  0  0  0  0  0
  153.9469  137.8300  160.0812 C   0  0  0  0  0  0  0  0  0  0  0  0
  153.2882  138.6482  159.1689 N   0  0  0  0  0  0  0  0  0  0  0  0
  152.6389  139.9188  159.4659 C   0  0  0  0  0  0  0  0  0  0  0  0
  153.6026  140.9421  160.0977 C   0  0  1  0  0  0  0  0  0  0  0  0
  154.8002  141.0061  159.3459 O   0  0  0  0  0  0  0  0  0  0  0  0
  152.9355  142.3027  160.2485 C   0  0  0  0  0  0  0  0  0  0  0  0
  152.4310  142.9833  159.1171 C   0  0  0  0  0  0  0  0  0  0  0  0
  151.8063  144.2374  159.2600 C   0  0  0  0  0  0  0  0  0  0  0  0
  151.3275  144.8832  158.1705 F   0  0  0  0  0  0  0  0  0  0  0  0
  151.6774  144.8186  160.5354 C   0  0  0  0  0  0  0  0  0  0  0  0
  152.1700  144.1430  161.6679 C   0  0  0  0  0  0  0  0  0  0  0  0
  152.7950  142.8882  161.5274 C   0  0  0  0  0  0  0  0  0  0  0  0
  153.2544  142.2479  162.6294 F   0  0  0  0  0  0  0  0  0  0  0  0
  151.3365  136.9068  153.2930 H   0  0  0  0  0  0  0  0  0  0  0  0
  150.9329  138.5791  154.4439 H   0  0  0  0  0  0  0  0  0  0  0  0
  150.7158  137.5947  155.8792 H   0  0  0  0  0  0  0  0  0  0  0  0
  153.4876  137.3233  155.2973 H   0  0  0  0  0  0  0  0  0  0  0  0
  153.1451  138.9771  154.8423 H   0  0  0  0  0  0  0  0  0  0  0  0
  152.4536  139.5020  156.9843 H   0  0  0  0  0  0  0  0  0  0  0  0
  155.4828  134.8467  159.4190 H   0  0  0  0  0  0  0  0  0  0  0  0
  155.9243  134.9996  161.8589 H   0  0  0  0  0  0  0  0  0  0  0  0
  155.1100  136.9526  163.1642 H   0  0  0  0  0  0  0  0  0  0  0  0
  153.8417  138.7718  162.0284 H   0  0  0  0  0  0  0  0  0  0  0  0
  152.1881  140.3214  158.5581 H   0  0  0  0  0  0  0  0  0  0  0  0
  151.8120  139.7196  160.1487 H   0  0  0  0  0  0  0  0  0  0  0  0
  153.8888  140.5876  161.0886 H   0  0  0  0  0  0  0  0  0  0  0  0
  155.0996  141.9023  159.3341 H   0  0  0  0  0  0  0  0  0  0  0  0
  152.5174  142.5453  158.1334 H   0  0  0  0  0  0  0  0  0  0  0  0
  151.1982  145.7801  160.6455 H   0  0  0  0  0  0  0  0  0  0  0  0
  152.0663  144.5868  162.6470 H   0  0  0  0  0  0  0  0  0  0  0  0
  1  2  1  0  0  0  0
  1 25  1  0  0  0  0
  2  3  1  0  0  0  0
  2 26  1  0  0  0  0
  2 27  1  0  0  0  0
  3  4  1  0  0  0  0
  3 28  1  0  0  0  0
  3 29  1  0  0  0  0
  4  5  1  0  0  0  0
  4 30  1  0  0  0  0
  5 13  1  0  0  0  0
  5  6  2  0  0  0  0
  6  7  1  0  0  0  0
  7 12  2  0  0  0  0
  7  8  1  0  0  0  0
  8  9  2  0  0  0  0
  8 31  1  0  0  0  0
  9 10  1  0  0  0  0
  9 32  1  0  0  0  0
 10 11  2  0  0  0  0
 10 33  1  0  0  0  0
 11 12  1  0  0  0  0
 11 34  1  0  0  0  0
 12 13  1  0  0  0  0
 13 14  1  0  0  0  0
 14 15  1  0  0  0  0
 14 35  1  0  0  0  0
 14 36  1  0  0  0  0
 15 16  1  0  0  0  0
 15 17  1  0  0  0  0
 15 37  1  0  0  0  0
 16 38  1  0  0  0  0
 17 23  1  0  0  0  0
 17 18  2  0  0  0  0
 18 19  1  0  0  0  0
 18 39  1  0  0  0  0
 19 20  1  0  0  0  0
 19 21  2  0  0  0  0
 21 22  1  0  0  0  0
 21 40  1  0  0  0  0
 22 23  2  0  0  0  0
 22 41  1  0  0  0  0
 23 24  1  0  0  0  0
M  END
> <s_m_source_file>
AV-unprocessed.smi

> <i_m_source_file_index>
1036

> <i_lp_mmshare_version>
43012

> <i_f3d_flags>
0

> <s_epik_input>
W09IXVtDSDJdW0NIMl1bTkhdYyhuMSluKGMoYzEyKVtjSF1bY0hdW2NIXVtjSF0yKVtDSDJdW0NASF0oW09IXSljM1tjSF1jKEYpW2NIXVtjSF1jM0Y=

> <s_epik_cmdline>
J2VwaWtfcHl0aG9uJywgJy1waCcsICc3LjAnLCAnLXRuJywgJzgnLCAnLW1hJywgJzIwMCcsICctbWV0YWxfYmluZGluZycsICctaW1hZScsICc8aW5maWxlLm1hZT4nLCAnLW9tYWUnLCAnPG91dGZpbGUubWFlPic=

> <r_epik_Ionization_Penalty>
1.30972

> <r_epik_Ionization_Penalty_Charging>
0

> <r_epik_Ionization_Penalty_Neutral>
1.30972

> <r_epik_State_Penalty>
1.38438

> <r_epik_Charging_Adjusted_Penalty>
1.38438

> <i_epik_Tot_Q>
0

> <i_epik_Tot_abs_Q>
0

> <r_epik_Metal_State_Penalty>
0.00551145

> <b_epik_Metal_Only>
0

> <s_lp_Force_Field>
OPLS_2005

> <r_lp_Energy>
10.9481

> <b_lp_Chiralities_Consistent>
1

> <s_lp_Variant>
AV-unprocessed.smi:1036-4

> <Gold.Version>
5.8.1

> <Gold.Id.Protein>
6NUR|6NUR_protein|mol2

> <Gold.PLP.Fitness>
58.7332

> <Gold.PLP.PLP>
-53.4510

> <Gold.PLP.part.hbond>
-3.0008

> <Gold.PLP.part.metal>
0.0000

> <Gold.PLP.part.buried>
-4.8099

> <Gold.PLP.part.nonpolar>
-46.3075

> <Gold.PLP.part.repulsive>
0.1335

> <Gold.PLP.ligand.clash>
0.0000

> <Gold.PLP.ligand.torsion>
0.3837

> <Gold.PLP.Chemscore.Hbond>
2.0021

> <Gold.PLP.Chemscore.CHOScore>
0.0000

> <Gold.PLP.Chemscore.Metal>
0.0000

> <Gold.Chemscore.Hbonds>
donor molecule, donor type, donor heavy atom, donor atom, acceptor molecule, acceptor atom, score
      L1  H     1    25       P1  7949  0.72
      P1  H  7997  8008       L1    16  0.26
      P1  H 10752 10764       L1     1  1.00

> <Gold.PLP.Chemscore.Internal.Correction>
0.0434

> <Gold.Rescore>
     Score         DG    S(hbond)    S(metal)    S(lipo)     H(rot)  DE(clash)    DE(int)     intcor
     16.51     -18.52       1.84        0.00     129.24       3.22       1.52       0.49       ----

> <Gold.Chemscore.Fitness>
16.5128

> <Gold.Chemscore.DG>
-18.5193

> <Gold.Chemscore.ZeroCoef>
-5.4800

> <Gold.Chemscore.Hbond>
1.8444

> <Gold.Chemscore.Metal>
0.0000

> <Gold.Chemscore.Lipo>
129.2374

> <Gold.Chemscore.Internal_Hbond>
0.0000

> <Gold.Chemscore.DEClash>
1.5184

> <Gold.Chemscore.DEInternal>
0.4881

> <Gold.Chemscore.Rot>
3.2194

> <Gold.Chemscore.Internal.Correction>
   9.000000E+99

> <Gold.Chemscore.Hbonds>
donor molecule, donor type, donor heavy atom, donor atom, acceptor molecule, acceptor atom, score
      L1  H     1    25       P1  7949  0.50
      P1  H  7997  8008       L1    16  0.17
      P1  H 10752 10764       L1     1  0.55

> <Gold.Chemscore.Hbond.Weighted>
-6.1601

> <Gold.Chemscore.Metal.Weighted>
-0.0000

> <Gold.Chemscore.Lipo.Weighted>
-15.1208

> <Gold.Chemscore.Internal_Hbond.Weighted>
0.0000

> <Gold.Chemscore.DEClash.Weighted>
1.5184

> <Gold.Chemscore.DEInternal.Weighted>
0.4881

> <Gold.Chemscore.Rot.Weighted>
8.2416

> <Gold.Chemscore.Internal.Correction.Weighted>
   9.000000E+99

> <Gold.Protein.RotatedTorsions>
[ 6907 6896 6895 6894 ] final  152.09 input  -60.11 | X-H torsion
[ 7974 7965 7964 7962 ] final   44.64 input  175.53 | X-H torsion
[ 8008 7997 7996 7995 ] final -126.34 input   59.86 | X-H torsion
[ 10167 10162 10161 10158 ] final -146.35 input  -65.29 | X-H torsion
[ 10718 10713 10712 10709 ] final  -11.46 input   66.30 | X-H torsion
[ 10763 10752 10751 10750 ] final  -74.53 input  -60.55 | X-H torsion
[ 11005 11000 10999 10996 ] final -109.57 input  -57.11 | X-H torsion

> <Gold.Protein.ActiveResidues>
 VAL166  LYS551  ARG553  GLY616  TRP617  ASP618  TYR619  PRO620  LYS621  CYS622 
 ASP623  PHE694  ASN695  SER759  ASP760  ASP761  ALA762  ILE779  LEU786  VAL792 
 PHE793  MET794  SER795  GLU796  ALA797  LYS798  CYS799  TRP800  GLU811  SER814 

> <Gold.Protein.RotatedAtoms>
  152.0916  133.4203  159.4546 H   0  0  0  0  0  0  0  0  0  0  0  0  # atno 6907 bound_to 6896
  150.6862  134.2865  159.4658 H   0  0  0  0  0  0  0  0  0  0  0  0  # atno 6908 bound_to 6896
  152.0717  134.9529  160.0625 H   0  0  0  0  0  0  0  0  0  0  0  0  # atno 6909 bound_to 6896
  146.0551  139.5052  142.9694 H   0  0  0  0  0  0  0  0  0  0  0  0  # atno 7974 bound_to 7965
  155.2282  140.0424  157.2958 H   0  0  0  0  0  0  0  0  0  0  0  0  # atno 8008 bound_to 7997
  154.5906  140.2425  155.7897 H   0  0  0  0  0  0  0  0  0  0  0  0  # atno 8009 bound_to 7997
  156.2256  140.2955  156.0068 H   0  0  0  0  0  0  0  0  0  0  0  0  # atno 8010 bound_to 7997
  139.7722  143.8222  152.2626 H   0  0  0  0  0  0  0  0  0  0  0  0  # atno 10167 bound_to 10162
  156.6587  130.4975  149.6038 H   0  0  0  0  0  0  0  0  0  0  0  0  # atno 10718 bound_to 10713
  154.4744  135.5861  153.6344 H   0  0  0  0  0  0  0  0  0  0  0  0  # atno 10763 bound_to 10752
  152.9839  135.6074  154.3326 H   0  0  0  0  0  0  0  0  0  0  0  0  # atno 10764 bound_to 10752
  154.3211  135.2843  155.2498 H   0  0  0  0  0  0  0  0  0  0  0  0  # atno 10765 bound_to 10752
  141.0840  133.9171  157.2226 H   0  0  0  0  0  0  0  0  0  0  0  0  # atno 11005 bound_to 11000
  145.6658  141.0229  143.1684 LP  0  0  0  0  0  0  0  0  0  0  0  0  # atno 17320 bound_to 7965
  144.7143  139.8253  143.7404 LP  0  0  0  0  0  0  0  0  0  0  0  0  # atno 17321 bound_to 7965
  139.8259  144.7275  150.9512 LP  0  0  0  0  0  0  0  0  0  0  0  0  # atno 17342 bound_to 10162
  140.7814  143.4115  151.0986 LP  0  0  0  0  0  0  0  0  0  0  0  0  # atno 17343 bound_to 10162
  156.2028  130.6630  151.1186 LP  0  0  0  0  0  0  0  0  0  0  0  0  # atno 17370 bound_to 10713
  157.7117  131.0731  150.6477 LP  0  0  0  0  0  0  0  0  0  0  0  0  # atno 17371 bound_to 10713
  139.9656  135.0142  156.9379 LP  0  0  0  0  0  0  0  0  0  0  0  0  # atno 17394 bound_to 11000
  140.5405  134.0725  155.7340 LP  0  0  0  0  0  0  0  0  0  0  0  0  # atno 17395 bound_to 11000

$$$$
