AV-unprocessed.smi:484|AV-procd|sdf|2688|dock6
  -GOLD-   2262023113D 1   1.00000     0.00000
 Structure written by MMmdl.
 46 48  0  0  0  0  0  0  0  0  1 V2000
  142.2813  146.9962  155.9134 C   0  0  0  0  0  0  0  0  0  0  0  0
  142.2499  146.0947  154.6743 C   0  0  0  0  0  0  0  0  0  0  0  0
  143.2262  144.9388  154.7817 C   0  0  0  0  0  0  0  0  0  0  0  0
  144.1995  144.7356  153.7833 C   0  0  0  0  0  0  0  0  0  0  0  0
  145.1094  143.6666  153.8909 C   0  0  0  0  0  0  0  0  0  0  0  0
  145.0648  142.7868  154.9918 C   0  0  0  0  0  0  0  0  0  0  0  0
  145.9961  141.7708  155.0183 O   0  0  0  0  0  0  0  0  0  0  0  0
  147.2359  141.9792  154.3555 C   0  0  0  0  0  0  0  0  0  0  0  0
  148.3475  141.2590  155.1407 C   0  0  1  0  0  0  0  0  0  0  0  0
  148.1836  139.8672  154.9643 O   0  0  0  0  0  0  0  0  0  0  0  0
  149.7749  141.6078  154.6690 C   0  0  0  0  0  0  0  0  0  0  0  0
  150.8083  141.2046  155.6146 N   0  0  0  0  0  0  0  0  0  0  0  0
  151.6521  140.1444  155.5330 C   0  0  0  0  0  0  0  0  0  0  0  0
  151.6126  139.1922  154.3712 C   0  0  0  0  0  0  0  0  0  0  0  0
  152.4146  138.0427  154.5506 O   0  0  0  0  0  0  0  0  0  0  0  0
  152.4995  140.0022  156.5551 N   0  0  0  0  0  0  0  0  0  0  0  0
  152.1837  141.0730  157.3675 C   0  0  0  0  0  0  0  0  0  0  0  0
  152.7284  141.4772  158.6074 C   0  0  0  0  0  0  0  0  0  0  0  0
  152.2323  142.6214  159.2658 C   0  0  0  0  0  0  0  0  0  0  0  0
  151.1871  143.3763  158.6953 C   0  0  0  0  0  0  0  0  0  0  0  0
  150.6317  142.9919  157.4598 C   0  0  0  0  0  0  0  0  0  0  0  0
  151.1303  141.8485  156.8064 C   0  0  0  0  0  0  0  0  0  0  0  0
  144.0816  142.9952  155.9921 C   0  0  0  0  0  0  0  0  0  0  0  0
  143.1705  144.0639  155.8850 C   0  0  0  0  0  0  0  0  0  0  0  0
  141.5725  147.8184  155.8136 H   0  0  0  0  0  0  0  0  0  0  0  0
  143.2721  147.4266  156.0614 H   0  0  0  0  0  0  0  0  0  0  0  0
  142.0201  146.4382  156.8131 H   0  0  0  0  0  0  0  0  0  0  0  0
  141.2436  145.7007  154.5280 H   0  0  0  0  0  0  0  0  0  0  0  0
  142.4821  146.6815  153.7849 H   0  0  0  0  0  0  0  0  0  0  0  0
  144.2539  145.4006  152.9337 H   0  0  0  0  0  0  0  0  0  0  0  0
  145.8524  143.5218  153.1206 H   0  0  0  0  0  0  0  0  0  0  0  0
  147.2057  141.6297  153.3218 H   0  0  0  0  0  0  0  0  0  0  0  0
  147.4235  143.0526  154.3398 H   0  0  0  0  0  0  0  0  0  0  0  0
  148.2522  141.4878  156.2019 H   0  0  0  0  0  0  0  0  0  0  0  0
  148.8443  139.4219  155.4728 H   0  0  0  0  0  0  0  0  0  0  0  0
  149.9816  141.1440  153.7045 H   0  0  0  0  0  0  0  0  0  0  0  0
  149.8603  142.6824  154.5033 H   0  0  0  0  0  0  0  0  0  0  0  0
  150.5834  138.8757  154.2038 H   0  0  0  0  0  0  0  0  0  0  0  0
  151.9537  139.6991  153.4689 H   0  0  0  0  0  0  0  0  0  0  0  0
  152.9693  138.1822  155.3032 H   0  0  0  0  0  0  0  0  0  0  0  0
  153.5281  140.9050  159.0537 H   0  0  0  0  0  0  0  0  0  0  0  0
  152.6554  142.9203  160.2137 H   0  0  0  0  0  0  0  0  0  0  0  0
  150.8107  144.2502  159.2069 H   0  0  0  0  0  0  0  0  0  0  0  0
  149.8285  143.5666  157.0233 H   0  0  0  0  0  0  0  0  0  0  0  0
  144.0043  142.3498  156.8538 H   0  0  0  0  0  0  0  0  0  0  0  0
  142.4288  144.2118  156.6564 H   0  0  0  0  0  0  0  0  0  0  0  0
  1  2  1  0  0  0  0
  1 25  1  0  0  0  0
  1 26  1  0  0  0  0
  1 27  1  0  0  0  0
  2  3  1  0  0  0  0
  2 28  1  0  0  0  0
  2 29  1  0  0  0  0
  3 24  1  0  0  0  0
  3  4  2  0  0  0  0
  4  5  1  0  0  0  0
  4 30  1  0  0  0  0
  5  6  2  0  0  0  0
  5 31  1  0  0  0  0
  6  7  1  0  0  0  0
  6 23  1  0  0  0  0
  7  8  1  0  0  0  0
  8  9  1  0  0  0  0
  8 32  1  0  0  0  0
  8 33  1  0  0  0  0
  9 10  1  0  0  0  0
  9 11  1  0  0  0  0
  9 34  1  0  0  0  0
 10 35  1  0  0  0  0
 11 12  1  0  0  0  0
 11 36  1  0  0  0  0
 11 37  1  0  0  0  0
 12 22  1  0  0  0  0
 12 13  1  0  0  0  0
 13 14  1  0  0  0  0
 13 16  2  0  0  0  0
 14 15  1  0  0  0  0
 14 38  1  0  0  0  0
 14 39  1  0  0  0  0
 15 40  1  0  0  0  0
 16 17  1  0  0  0  0
 17 22  2  0  0  0  0
 17 18  1  0  0  0  0
 18 19  2  0  0  0  0
 18 41  1  0  0  0  0
 19 20  1  0  0  0  0
 19 42  1  0  0  0  0
 20 21  2  0  0  0  0
 20 43  1  0  0  0  0
 21 22  1  0  0  0  0
 21 44  1  0  0  0  0
 23 24  2  0  0  0  0
 23 45  1  0  0  0  0
 24 46  1  0  0  0  0
M  END
> <s_m_source_file>
AV-unprocessed.smi

> <i_m_source_file_index>
484

> <i_lp_mmshare_version>
43012

> <i_f3d_flags>
0

> <s_epik_input>
W0NIM11bQ0gyXWMxW2NIXVtjSF1jKFtjSF1bY0hdMSlPW0NIMl1bQ0BIXShbT0hdKVtDSDJdbihjKG4yKVtDSDJdW09IXSljKGMyMylbY0hdW2NIXVtjSF1bY0hdMw==

> <s_epik_cmdline>
J2VwaWtfcHl0aG9uJywgJy1waCcsICc3LjAnLCAnLXRuJywgJzgnLCAnLW1hJywgJzIwMCcsICctbWV0YWxfYmluZGluZycsICctaW1hZScsICc8aW5maWxlLm1hZT4nLCAnLW9tYWUnLCAnPG91dGZpbGUubWFlPic=

> <r_lp_tautomer_probability>
1

> <r_epik_Ionization_Penalty>
0.0555463

> <r_epik_Ionization_Penalty_Charging>
0

> <r_epik_Ionization_Penalty_Neutral>
0.0555463

> <r_epik_State_Penalty>
0.0477854

> <r_epik_Charging_Adjusted_Penalty>
0.0477854

> <i_epik_Tot_Q>
0

> <i_epik_Tot_abs_Q>
0

> <r_epik_Metal_State_Penalty>
4.97632e-05

> <b_epik_Metal_Only>
0

> <s_lp_Force_Field>
OPLS_2005

> <r_lp_Energy>
17.3214

> <b_lp_Chiralities_Consistent>
1

> <s_lp_Variant>
AV-unprocessed.smi:484-2

> <Gold.Version>
5.8.1

> <Gold.Id.Protein>
6NUR|6NUR_protein|mol2

> <Gold.PLP.Fitness>
53.7739

> <Gold.PLP.PLP>
-51.4894

> <Gold.PLP.part.hbond>
-2.0000

> <Gold.PLP.part.metal>
0.0000

> <Gold.PLP.part.buried>
-3.5870

> <Gold.PLP.part.nonpolar>
-45.3259

> <Gold.PLP.part.repulsive>
0.1399

> <Gold.PLP.ligand.clash>
0.0000

> <Gold.PLP.ligand.torsion>
1.0715

> <Gold.PLP.Chemscore.Hbond>
1.4259

> <Gold.PLP.Chemscore.CHOScore>
0.0000

> <Gold.PLP.Chemscore.Metal>
0.0000

> <Gold.Chemscore.Hbonds>
donor molecule, donor type, donor heavy atom, donor atom, acceptor molecule, acceptor atom, score
      P1  H  7997  8009       L1    16  1.00

> <Gold.PLP.Chemscore.Internal.Correction>
0.1500

> <Gold.Rescore>
     Score         DG    S(hbond)    S(metal)    S(lipo)     H(rot)  DE(clash)    DE(int)     intcor
     13.10     -14.30       0.50        0.00     128.46       3.08       0.11       1.09       ----

> <Gold.Chemscore.Fitness>
13.1025

> <Gold.Chemscore.DG>
-14.2993

> <Gold.Chemscore.ZeroCoef>
-5.4800

> <Gold.Chemscore.Hbond>
0.5000

> <Gold.Chemscore.Metal>
0.0000

> <Gold.Chemscore.Lipo>
128.4607

> <Gold.Chemscore.Internal_Hbond>
0.0000

> <Gold.Chemscore.DEClash>
0.1096

> <Gold.Chemscore.DEInternal>
1.0872

> <Gold.Chemscore.Rot>
3.0783

> <Gold.Chemscore.Internal.Correction>
   9.000000E+99

> <Gold.Chemscore.Hbonds>
donor molecule, donor type, donor heavy atom, donor atom, acceptor molecule, acceptor atom, score
      P1  H  7997  8009       L1    16  0.39

> <Gold.Chemscore.Hbond.Weighted>
-1.6699

> <Gold.Chemscore.Metal.Weighted>
-0.0000

> <Gold.Chemscore.Lipo.Weighted>
-15.0299

> <Gold.Chemscore.Internal_Hbond.Weighted>
0.0000

> <Gold.Chemscore.DEClash.Weighted>
0.1096

> <Gold.Chemscore.DEInternal.Weighted>
1.0872

> <Gold.Chemscore.Rot.Weighted>
7.8805

> <Gold.Chemscore.Internal.Correction.Weighted>
   9.000000E+99

> <Gold.Protein.RotatedTorsions>
[ 6907 6896 6895 6894 ] final  172.55 input  -60.11 | X-H torsion
[ 7974 7965 7964 7962 ] final    7.82 input  175.53 | X-H torsion
[ 8008 7997 7996 7995 ] final -165.77 input   59.86 | X-H torsion
[ 10167 10162 10161 10158 ] final   48.69 input  -65.29 | X-H torsion
[ 10718 10713 10712 10709 ] final -111.14 input   66.30 | X-H torsion
[ 10763 10752 10751 10750 ] final   61.89 input  -60.55 | X-H torsion
[ 11005 11000 10999 10996 ] final -162.96 input  -57.11 | X-H torsion

> <Gold.Protein.ActiveResidues>
 VAL166  LYS551  ARG553  GLY616  TRP617  ASP618  TYR619  PRO620  LYS621  CYS622 
 ASP623  PHE694  ASN695  SER759  ASP760  ASP761  ALA762  ILE779  LEU786  VAL792 
 PHE793  MET794  SER795  GLU796  ALA797  LYS798  CYS799  TRP800  GLU811  SER814 

> <Gold.Protein.RotatedAtoms>
  151.7825  133.3351  159.3475 H   0  0  0  0  0  0  0  0  0  0  0  0  # atno 6907 bound_to 6896
  150.7421  134.5918  159.6001 H   0  0  0  0  0  0  0  0  0  0  0  0  # atno 6908 bound_to 6896
  152.3266  134.7314  160.0351 H   0  0  0  0  0  0  0  0  0  0  0  0  # atno 6909 bound_to 6896
  146.2423  140.0026  142.8414 H   0  0  0  0  0  0  0  0  0  0  0  0  # atno 7974 bound_to 7965
  155.8545  140.0968  157.1654 H   0  0  0  0  0  0  0  0  0  0  0  0  # atno 8008 bound_to 7997
  154.3987  140.1377  156.3946 H   0  0  0  0  0  0  0  0  0  0  0  0  # atno 8009 bound_to 7997
  155.7925  140.3455  155.5360 H   0  0  0  0  0  0  0  0  0  0  0  0  # atno 8010 bound_to 7997
  140.2906  144.3050  150.6241 H   0  0  0  0  0  0  0  0  0  0  0  0  # atno 10167 bound_to 10162
  156.0630  130.5852  150.8333 H   0  0  0  0  0  0  0  0  0  0  0  0  # atno 10718 bound_to 10713
  152.9965  135.5485  154.6105 H   0  0  0  0  0  0  0  0  0  0  0  0  # atno 10763 bound_to 10752
  154.5427  135.2821  155.1083 H   0  0  0  0  0  0  0  0  0  0  0  0  # atno 10764 bound_to 10752
  154.2354  135.6426  153.5242 H   0  0  0  0  0  0  0  0  0  0  0  0  # atno 10765 bound_to 10752
  140.6034  134.4923  157.5208 H   0  0  0  0  0  0  0  0  0  0  0  0  # atno 11005 bound_to 11000
  145.1401  140.9566  143.4493 LP  0  0  0  0  0  0  0  0  0  0  0  0  # atno 17320 bound_to 7965
  145.0304  139.3346  143.6027 LP  0  0  0  0  0  0  0  0  0  0  0  0  # atno 17321 bound_to 7965
  140.5735  143.2178  151.7557 LP  0  0  0  0  0  0  0  0  0  0  0  0  # atno 17342 bound_to 10162
  139.4939  144.4183  152.0006 LP  0  0  0  0  0  0  0  0  0  0  0  0  # atno 17343 bound_to 10162
  157.5652  131.0946  150.9500 LP  0  0  0  0  0  0  0  0  0  0  0  0  # atno 17370 bound_to 10713
  156.9729  130.5497  149.5291 LP  0  0  0  0  0  0  0  0  0  0  0  0  # atno 17371 bound_to 10713
  139.9222  134.8125  156.1175 LP  0  0  0  0  0  0  0  0  0  0  0  0  # atno 17394 bound_to 11000
  141.0857  133.6735  156.2430 LP  0  0  0  0  0  0  0  0  0  0  0  0  # atno 17395 bound_to 11000

$$$$
