AV-unprocessed.smi:2345|AV-procd|sdf|9362|dock2
  -GOLD-   2272012583D 1   1.00000     0.00000
 Structure written by MMmdl.
 37 38  0  0  0  0  0  0  0  0  1 V2000
  151.3370  139.2173  154.9548 C   0  0  0  0  0  0  0  0  0  0  0  0
  149.8406  139.5220  155.0564 C   0  0  0  0  0  0  0  0  0  0  0  0
  148.8399  138.1357  154.4494 S   0  0  0  0  0  0  0  0  0  0  0  0
  147.1665  138.8653  154.5333 C   0  0  1  0  0  0  0  0  0  0  0  0
  147.2697  140.3896  154.6175 C   0  0  0  0  0  0  0  0  0  0  0  0
  147.3920  140.8477  153.1655 C   0  0  0  0  0  0  0  0  0  0  0  0
  146.5377  139.8629  152.3604 C   0  0  0  0  0  0  0  0  0  0  0  0
  146.3144  138.6317  153.2610 C   0  0  1  0  0  0  0  0  0  0  0  0
  146.6253  137.3921  152.5505 N   0  0  0  0  0  0  0  0  0  0  0  0
  145.7269  136.4760  152.1634 C   0  0  0  0  0  0  0  0  0  0  0  0
  144.5167  136.5882  152.3579 O   0  0  0  0  0  0  0  0  0  0  0  0
  146.3283  135.4275  151.5765 N   0  0  0  0  0  0  0  0  0  0  0  0
  145.7409  134.2426  151.0554 C   0  0  0  0  0  0  0  0  0  0  0  0
  144.4763  134.1965  150.4196 C   0  0  0  0  0  0  0  0  0  0  0  0
  144.0125  132.9592  149.9291 C   0  0  0  0  0  0  0  0  0  0  0  0
  144.7143  131.8101  150.0249 N   0  0  0  0  0  0  0  0  0  0  0  0
  145.9255  131.8607  150.6188 C   0  0  0  0  0  0  0  0  0  0  0  0
  146.4819  133.0449  151.1427 C   0  0  0  0  0  0  0  0  0  0  0  0
  147.7060  133.0265  151.7237 F   0  0  0  0  0  0  0  0  0  0  0  0
  151.9299  140.0550  155.3223 H   0  0  0  0  0  0  0  0  0  0  0  0
  151.6314  139.0269  153.9224 H   0  0  0  0  0  0  0  0  0  0  0  0
  151.5984  138.3395  155.5467 H   0  0  0  0  0  0  0  0  0  0  0  0
  149.5798  139.7317  156.0928 H   0  0  0  0  0  0  0  0  0  0  0  0
  149.5952  140.4135  154.4787 H   0  0  0  0  0  0  0  0  0  0  0  0
  146.6668  138.4728  155.4195 H   0  0  0  0  0  0  0  0  0  0  0  0
  146.3521  140.7926  155.0483 H   0  0  0  0  0  0  0  0  0  0  0  0
  148.0990  140.7309  155.2382 H   0  0  0  0  0  0  0  0  0  0  0  0
  147.0781  141.8827  153.0273 H   0  0  0  0  0  0  0  0  0  0  0  0
  148.4327  140.7748  152.8466 H   0  0  0  0  0  0  0  0  0  0  0  0
  145.5780  140.3128  152.1035 H   0  0  0  0  0  0  0  0  0  0  0  0
  147.0333  139.6111  151.4218 H   0  0  0  0  0  0  0  0  0  0  0  0
  145.2621  138.6315  153.5519 H   0  0  0  0  0  0  0  0  0  0  0  0
  147.6006  137.2117  152.3626 H   0  0  0  0  0  0  0  0  0  0  0  0
  147.3376  135.4460  151.5655 H   0  0  0  0  0  0  0  0  0  0  0  0
  143.8648  135.0758  150.2882 H   0  0  0  0  0  0  0  0  0  0  0  0
  143.0519  132.8924  149.4399 H   0  0  0  0  0  0  0  0  0  0  0  0
  146.4689  130.9292  150.6772 H   0  0  0  0  0  0  0  0  0  0  0  0
  1  2  1  0  0  0  0
  1 20  1  0  0  0  0
  1 21  1  0  0  0  0
  1 22  1  0  0  0  0
  2  3  1  0  0  0  0
  2 23  1  0  0  0  0
  2 24  1  0  0  0  0
  3  4  1  0  0  0  0
  4  8  1  0  0  0  0
  4  5  1  0  0  0  0
  4 25  1  0  0  0  0
  5  6  1  0  0  0  0
  5 26  1  0  0  0  0
  5 27  1  0  0  0  0
  6  7  1  0  0  0  0
  6 28  1  0  0  0  0
  6 29  1  0  0  0  0
  7  8  1  0  0  0  0
  7 30  1  0  0  0  0
  7 31  1  0  0  0  0
  8  9  1  0  0  0  0
  8 32  1  0  0  0  0
  9 10  1  0  0  0  0
  9 33  1  0  0  0  0
 10 11  2  0  0  0  0
 10 12  1  0  0  0  0
 12 13  1  0  0  0  0
 12 34  1  0  0  0  0
 13 18  1  0  0  0  0
 13 14  2  0  0  0  0
 14 15  1  0  0  0  0
 14 35  1  0  0  0  0
 15 16  2  0  0  0  0
 15 36  1  0  0  0  0
 16 17  1  0  0  0  0
 17 18  2  0  0  0  0
 17 37  1  0  0  0  0
 18 19  1  0  0  0  0
M  END
> <s_m_source_file>
AV-unprocessed.smi

> <i_m_source_file_index>
2345

> <i_lp_mmshare_version>
43012

> <i_f3d_flags>
0

> <s_epik_input>
W0NIM11bQ0gyXVNbQ0BASF0xW0NIMl1bQ0gyXVtDSDJdW0NASF0xW05IXUMoPU8pW05IXWMyW2NIXVtjSF1uW2NIXWMyRg==

> <s_epik_cmdline>
J2VwaWtfcHl0aG9uJywgJy1waCcsICc3LjAnLCAnLXRuJywgJzgnLCAnLW1hJywgJzIwMCcsICctbWV0YWxfYmluZGluZycsICctaW1hZScsICc8aW5maWxlLm1hZT4nLCAnLW9tYWUnLCAnPG91dGZpbGUubWFlPic=

> <r_epik_Ionization_Penalty>
0.00333745

> <r_epik_Ionization_Penalty_Charging>
0

> <r_epik_Ionization_Penalty_Neutral>
0.00333745

> <r_epik_State_Penalty>
0.00233401

> <r_epik_Charging_Adjusted_Penalty>
0.00233401

> <i_epik_Tot_Q>
0

> <i_epik_Tot_abs_Q>
0

> <r_epik_Metal_State_Penalty>
-0

> <b_epik_Metal_Only>
0

> <s_lp_Force_Field>
OPLS_2005

> <r_lp_Energy>
24.8038

> <b_lp_Chiralities_Consistent>
1

> <s_lp_Variant>
AV-unprocessed.smi:2345-2

> <Gold.Version>
5.8.1

> <Gold.Id.Protein>
6NUR|6NUR_protein|mol2

> <Gold.PLP.Fitness>
38.4762

> <Gold.PLP.PLP>
-29.0793

> <Gold.PLP.part.hbond>
-2.2978

> <Gold.PLP.part.metal>
0.0000

> <Gold.PLP.part.buried>
1.4213

> <Gold.PLP.part.nonpolar>
-28.7836

> <Gold.PLP.part.repulsive>
0.4416

> <Gold.PLP.ligand.clash>
0.0481

> <Gold.PLP.ligand.torsion>
0.9551

> <Gold.PLP.Chemscore.Hbond>
2.0000

> <Gold.PLP.Chemscore.CHOScore>
1.7612

> <Gold.PLP.Chemscore.Metal>
0.0000

> <Gold.Chemscore.Hbonds>
donor molecule, donor type, donor heavy atom, donor atom, acceptor molecule, acceptor atom, score
      L1  H     9    33       P1  7948  1.00
      L1  H    12    34       P1  7948  1.00
      L1  C    15    36       P1 10186  0.95
      L1  C    17    37       P1 10747  0.82

> <Gold.PLP.Chemscore.Internal.Correction>
0.0715

> <Gold.Rescore>
     Score         DG    S(hbond)    S(metal)    S(lipo)     H(rot)  DE(clash)    DE(int)     intcor
     16.33     -18.76       1.93        0.00      87.88       1.35       1.48       0.95       ----

> <Gold.Chemscore.Fitness>
16.3301

> <Gold.Chemscore.DG>
-18.7635

> <Gold.Chemscore.ZeroCoef>
-5.4800

> <Gold.Chemscore.Hbond>
1.9316

> <Gold.Chemscore.Metal>
0.0000

> <Gold.Chemscore.Lipo>
87.8756

> <Gold.Chemscore.Internal_Hbond>
0.0000

> <Gold.Chemscore.DEClash>
1.4806

> <Gold.Chemscore.DEInternal>
0.9528

> <Gold.Chemscore.Rot>
1.3475

> <Gold.Chemscore.Internal.Correction>
   9.000000E+99

> <Gold.Chemscore.Hbonds>
donor molecule, donor type, donor heavy atom, donor atom, acceptor molecule, acceptor atom, score
      L1  H     9    33       P1  7948  0.98
      L1  H    12    34       P1  7948  0.94

> <Gold.Chemscore.Hbond.Weighted>
-6.4516

> <Gold.Chemscore.Metal.Weighted>
-0.0000

> <Gold.Chemscore.Lipo.Weighted>
-10.2814

> <Gold.Chemscore.Internal_Hbond.Weighted>
0.0000

> <Gold.Chemscore.DEClash.Weighted>
1.4806

> <Gold.Chemscore.DEInternal.Weighted>
0.9528

> <Gold.Chemscore.Rot.Weighted>
3.4496

> <Gold.Chemscore.Internal.Correction.Weighted>
   9.000000E+99

> <Gold.Protein.RotatedTorsions>
[ 6907 6896 6895 6894 ] final -175.87 input  -60.11 | X-H torsion
[ 7974 7965 7964 7962 ] final  140.81 input  175.53 | X-H torsion
[ 8008 7997 7996 7995 ] final   87.22 input   59.86 | X-H torsion
[ 10167 10162 10161 10158 ] final -151.19 input  -65.29 | X-H torsion
[ 10718 10713 10712 10709 ] final -166.69 input   66.30 | X-H torsion
[ 10763 10752 10751 10750 ] final -146.68 input  -60.55 | X-H torsion
[ 11005 11000 10999 10996 ] final    7.47 input  -57.11 | X-H torsion

> <Gold.Protein.ActiveResidues>
 VAL166  LYS551  ARG553  GLY616  TRP617  ASP618  TYR619  PRO620  LYS621  CYS622 
 ASP623  PHE694  ASN695  SER759  ASP760  ASP761  ALA762  ILE779  LEU786  VAL792 
 PHE793  MET794  SER795  GLU796  ALA797  LYS798  CYS799  TRP800  GLU811  SER814 

> <Gold.Protein.RotatedAtoms>
  151.5956  133.3362  159.3036 H   0  0  0  0  0  0  0  0  0  0  0  0  # atno 6907 bound_to 6896
  150.8236  134.7459  159.6805 H   0  0  0  0  0  0  0  0  0  0  0  0  # atno 6908 bound_to 6896
  152.4327  134.5752  159.9984 H   0  0  0  0  0  0  0  0  0  0  0  0  # atno 6909 bound_to 6896
  144.9153  139.5239  143.5689 H   0  0  0  0  0  0  0  0  0  0  0  0  # atno 7974 bound_to 7965
  155.9726  140.3384  155.6589 H   0  0  0  0  0  0  0  0  0  0  0  0  # atno 8008 bound_to 7997
  155.6655  140.0721  157.2557 H   0  0  0  0  0  0  0  0  0  0  0  0  # atno 8009 bound_to 7997
  154.4170  140.1701  156.1810 H   0  0  0  0  0  0  0  0  0  0  0  0  # atno 8010 bound_to 7997
  139.7289  143.8839  152.2528 H   0  0  0  0  0  0  0  0  0  0  0  0  # atno 10167 bound_to 10162
  156.6715  130.9086  151.3044 H   0  0  0  0  0  0  0  0  0  0  0  0  # atno 10718 bound_to 10713
  154.8324  135.3380  154.6700 H   0  0  0  0  0  0  0  0  0  0  0  0  # atno 10763 bound_to 10752
  153.7318  135.6951  153.4992 H   0  0  0  0  0  0  0  0  0  0  0  0  # atno 10764 bound_to 10752
  153.2306  135.4417  155.0543 H   0  0  0  0  0  0  0  0  0  0  0  0  # atno 10765 bound_to 10752
  140.5478  134.0312  155.7926 H   0  0  0  0  0  0  0  0  0  0  0  0  # atno 11005 bound_to 11000
  146.3178  139.7990  142.8969 LP  0  0  0  0  0  0  0  0  0  0  0  0  # atno 17320 bound_to 7965
  145.3386  141.0283  143.3405 LP  0  0  0  0  0  0  0  0  0  0  0  0  # atno 17321 bound_to 7965
  139.8757  144.7045  150.8936 LP  0  0  0  0  0  0  0  0  0  0  0  0  # atno 17342 bound_to 10162
  140.7768  143.3702  151.1664 LP  0  0  0  0  0  0  0  0  0  0  0  0  # atno 17343 bound_to 10162
  157.7075  130.9402  150.0980 LP  0  0  0  0  0  0  0  0  0  0  0  0  # atno 17370 bound_to 10713
  156.1935  130.3656  149.8879 LP  0  0  0  0  0  0  0  0  0  0  0  0  # atno 17371 bound_to 10713
  141.1189  133.9494  157.2768 LP  0  0  0  0  0  0  0  0  0  0  0  0  # atno 17394 bound_to 11000
  139.9470  135.0182  156.8883 LP  0  0  0  0  0  0  0  0  0  0  0  0  # atno 17395 bound_to 11000

$$$$
