AV-unprocessed.smi:232|AV-procd|sdf|1772|dock10
  -GOLD-   2262020313D 1   1.00000     0.00000
 Structure written by MMmdl.
 52 55  0  0  0  0  0  0  0  0  1 V2000
  151.4810  145.5908  160.1332 C   0  0  0  0  0  0  0  0  0  0  0  0
  150.7236  144.3379  159.6756 C   0  0  0  0  0  0  0  0  0  0  0  0
  151.6371  143.2836  159.0146 C   0  0  1  0  0  0  0  0  0  0  0  0
  152.9442  143.0274  159.7814 C   0  0  0  0  0  0  0  0  0  0  0  0
  153.2462  141.5396  159.5656 C   0  0  0  0  0  0  0  0  0  0  0  0
  152.1187  141.0472  158.6529 C   0  0  1  0  0  0  0  0  0  0  0  0
  151.7391  139.5758  158.8852 C   0  0  0  0  0  0  0  0  0  0  0  0
  151.0159  141.9685  158.9019 N   0  0  0  0  0  0  0  0  0  0  0  0
  149.9707  141.9044  158.0432 C   0  0  0  0  0  0  0  0  0  0  0  0
  150.1309  141.3894  156.7950 N   0  0  0  0  0  0  0  0  0  0  0  0
  149.0938  141.3463  155.9526 C   0  0  0  0  0  0  0  0  0  0  0  0
  147.8393  141.7594  156.1495 N   0  0  0  0  0  0  0  0  0  0  0  0
  147.6799  142.2784  157.4012 C   0  0  0  0  0  0  0  0  0  0  0  0
  148.6850  142.3861  158.4019 C   0  0  0  0  0  0  0  0  0  0  0  0
  148.1589  142.9664  159.5488 N   0  0  0  0  0  0  0  0  0  0  0  0
  146.9107  143.1943  159.2422 C   0  0  0  0  0  0  0  0  0  0  0  0
  146.5392  142.8146  157.9722 N   0  0  0  0  0  0  0  0  0  0  0  0
  145.2238  142.9628  157.3751 C   0  0  0  0  0  0  0  0  0  0  0  0
  145.2906  143.5603  155.9554 C   0  0  1  0  0  0  0  0  0  0  0  0
  145.4556  142.5142  155.0166 O   0  0  0  0  0  0  0  0  0  0  0  0
  144.0257  144.3618  155.5954 C   0  0  2  0  0  0  0  0  0  0  0  0
  144.0204  144.9249  154.1715 C   0  0  0  0  0  0  0  0  0  0  0  0
  143.0991  146.1140  154.3120 C   0  0  0  0  0  0  0  0  0  0  0  0
  143.4995  146.6467  155.6829 C   0  0  0  0  0  0  0  0  0  0  0  0
  143.9070  145.5084  156.4375 O   0  0  0  0  0  0  0  0  0  0  0  0
  150.7956  146.3213  160.5628 H   0  0  0  0  0  0  0  0  0  0  0  0
  151.9931  146.0678  159.2971 H   0  0  0  0  0  0  0  0  0  0  0  0
  152.2263  145.3530  160.8924 H   0  0  0  0  0  0  0  0  0  0  0  0
  150.2017  143.8949  160.5248 H   0  0  0  0  0  0  0  0  0  0  0  0
  149.9500  144.6505  158.9736 H   0  0  0  0  0  0  0  0  0  0  0  0
  151.8905  143.6216  158.0077 H   0  0  0  0  0  0  0  0  0  0  0  0
  153.7488  143.6688  159.4205 H   0  0  0  0  0  0  0  0  0  0  0  0
  152.8196  143.2215  160.8476 H   0  0  0  0  0  0  0  0  0  0  0  0
  154.2275  141.3732  159.1204 H   0  0  0  0  0  0  0  0  0  0  0  0
  153.2249  141.0210  160.5251 H   0  0  0  0  0  0  0  0  0  0  0  0
  152.4520  141.1643  157.6204 H   0  0  0  0  0  0  0  0  0  0  0  0
  152.6013  138.9245  158.7395 H   0  0  0  0  0  0  0  0  0  0  0  0
  150.9624  139.2518  158.1917 H   0  0  0  0  0  0  0  0  0  0  0  0
  151.3682  139.4175  159.8985 H   0  0  0  0  0  0  0  0  0  0  0  0
  149.2989  140.9206  154.9815 H   0  0  0  0  0  0  0  0  0  0  0  0
  146.2221  143.6536  159.9366 H   0  0  0  0  0  0  0  0  0  0  0  0
  144.7314  141.9895  157.3611 H   0  0  0  0  0  0  0  0  0  0  0  0
  144.6281  143.6024  158.0273 H   0  0  0  0  0  0  0  0  0  0  0  0
  146.1603  144.2147  155.8823 H   0  0  0  0  0  0  0  0  0  0  0  0
  144.7081  142.5093  154.4382 H   0  0  0  0  0  0  0  0  0  0  0  0
  143.1333  143.7505  155.7419 H   0  0  0  0  0  0  0  0  0  0  0  0
  145.0181  145.2608  153.8848 H   0  0  0  0  0  0  0  0  0  0  0  0
  143.6771  144.2034  153.4294 H   0  0  0  0  0  0  0  0  0  0  0  0
  143.2187  146.8489  153.5156 H   0  0  0  0  0  0  0  0  0  0  0  0
  142.0593  145.7838  154.3232 H   0  0  0  0  0  0  0  0  0  0  0  0
  144.3497  147.3242  155.5939 H   0  0  0  0  0  0  0  0  0  0  0  0
  142.6883  147.1838  156.1749 H   0  0  0  0  0  0  0  0  0  0  0  0
  1  2  1  0  0  0  0
  1 26  1  0  0  0  0
  1 27  1  0  0  0  0
  1 28  1  0  0  0  0
  2  3  1  0  0  0  0
  2 29  1  0  0  0  0
  2 30  1  0  0  0  0
  3  8  1  0  0  0  0
  3  4  1  0  0  0  0
  3 31  1  0  0  0  0
  4  5  1  0  0  0  0
  4 32  1  0  0  0  0
  4 33  1  0  0  0  0
  5  6  1  0  0  0  0
  5 34  1  0  0  0  0
  5 35  1  0  0  0  0
  6  7  1  0  0  0  0
  6  8  1  0  0  0  0
  6 36  1  0  0  0  0
  7 37  1  0  0  0  0
  7 38  1  0  0  0  0
  7 39  1  0  0  0  0
  8  9  1  0  0  0  0
  9 14  1  0  0  0  0
  9 10  2  0  0  0  0
 10 11  1  0  0  0  0
 11 12  2  0  0  0  0
 11 40  1  0  0  0  0
 12 13  1  0  0  0  0
 13 17  1  0  0  0  0
 13 14  2  0  0  0  0
 14 15  1  0  0  0  0
 15 16  2  0  0  0  0
 16 17  1  0  0  0  0
 16 41  1  0  0  0  0
 17 18  1  0  0  0  0
 18 19  1  0  0  0  0
 18 42  1  0  0  0  0
 18 43  1  0  0  0  0
 19 20  1  0  0  0  0
 19 21  1  0  0  0  0
 19 44  1  0  0  0  0
 20 45  1  0  0  0  0
 21 25  1  0  0  0  0
 21 22  1  0  0  0  0
 21 46  1  0  0  0  0
 22 23  1  0  0  0  0
 22 47  1  0  0  0  0
 22 48  1  0  0  0  0
 23 24  1  0  0  0  0
 23 49  1  0  0  0  0
 23 50  1  0  0  0  0
 24 25  1  0  0  0  0
 24 51  1  0  0  0  0
 24 52  1  0  0  0  0
M  END
> <s_m_source_file>
AV-unprocessed.smi

> <i_m_source_file_index>
232

> <i_lp_mmshare_version>
43012

> <i_f3d_flags>
0

> <s_epik_input>
W0NIM11bQ0gyXVtDQEBIXTFbQ0gyXVtDSDJdW0NAQEhdKFtDSDNdKU4xYyhuW2NIXW4yKWMoYzIzKW5bY0hdbjNbQ0gyXVtDQEhdKFtPSF0pW0NAQEhdNFtDSDJdW0NIMl1bQ0gyXU80

> <s_epik_cmdline>
J2VwaWtfcHl0aG9uJywgJy1waCcsICc3LjAnLCAnLXRuJywgJzgnLCAnLW1hJywgJzIwMCcsICctbWV0YWxfYmluZGluZycsICctaW1hZScsICc8aW5maWxlLm1hZT4nLCAnLW9tYWUnLCAnPG91dGZpbGUubWFlPic=

> <r_lp_tautomer_probability>
1

> <r_epik_Ionization_Penalty>
0.00258048

> <r_epik_Ionization_Penalty_Charging>
0

> <r_epik_Ionization_Penalty_Neutral>
0.00258048

> <r_epik_State_Penalty>
0.00168551

> <r_epik_Charging_Adjusted_Penalty>
0.00168551

> <i_epik_Tot_Q>
0

> <i_epik_Tot_abs_Q>
0

> <r_epik_Metal_State_Penalty>
-0

> <b_epik_Metal_Only>
0

> <s_lp_Force_Field>
OPLS_2005

> <r_lp_Energy>
51.197

> <b_lp_Chiralities_Consistent>
1

> <s_lp_Variant>
AV-unprocessed.smi:232-6

> <Gold.Version>
5.8.1

> <Gold.Id.Protein>
6NUR|6NUR_protein|mol2

> <Gold.PLP.Fitness>
42.2397

> <Gold.PLP.PLP>
-42.8232

> <Gold.PLP.part.hbond>
-1.0000

> <Gold.PLP.part.metal>
0.0000

> <Gold.PLP.part.buried>
-7.2800

> <Gold.PLP.part.nonpolar>
-35.1868

> <Gold.PLP.part.repulsive>
0.3775

> <Gold.PLP.ligand.clash>
0.0000

> <Gold.PLP.ligand.torsion>
1.1882

> <Gold.PLP.Chemscore.Hbond>
0.5829

> <Gold.PLP.Chemscore.CHOScore>
0.0000

> <Gold.PLP.Chemscore.Metal>
0.0000

> <Gold.Chemscore.Hbonds>
donor molecule, donor type, donor heavy atom, donor atom, acceptor molecule, acceptor atom, score
      P1  H  6933  6944       L1    15  0.59

> <Gold.PLP.Chemscore.Internal.Correction>
0.0441

> <Gold.Rescore>
     Score         DG    S(hbond)    S(metal)    S(lipo)     H(rot)  DE(clash)    DE(int)     intcor
     11.75     -13.14       0.63        0.00     100.52       2.43       0.08       1.31       ----

> <Gold.Chemscore.Fitness>
11.7465

> <Gold.Chemscore.DG>
-13.1370

> <Gold.Chemscore.ZeroCoef>
-5.4800

> <Gold.Chemscore.Hbond>
0.6307

> <Gold.Chemscore.Metal>
0.0000

> <Gold.Chemscore.Lipo>
100.5240

> <Gold.Chemscore.Internal_Hbond>
0.0000

> <Gold.Chemscore.DEClash>
0.0835

> <Gold.Chemscore.DEInternal>
1.3070

> <Gold.Chemscore.Rot>
2.4260

> <Gold.Chemscore.Internal.Correction>
   9.000000E+99

> <Gold.Chemscore.Hbonds>
donor molecule, donor type, donor heavy atom, donor atom, acceptor molecule, acceptor atom, score
      P1  H  6933  6944       L1    15  0.54

> <Gold.Chemscore.Hbond.Weighted>
-2.1064

> <Gold.Chemscore.Metal.Weighted>
-0.0000

> <Gold.Chemscore.Lipo.Weighted>
-11.7613

> <Gold.Chemscore.Internal_Hbond.Weighted>
0.0000

> <Gold.Chemscore.DEClash.Weighted>
0.0835

> <Gold.Chemscore.DEInternal.Weighted>
1.3070

> <Gold.Chemscore.Rot.Weighted>
6.2107

> <Gold.Chemscore.Internal.Correction.Weighted>
   9.000000E+99

> <Gold.Protein.RotatedTorsions>
[ 6907 6896 6895 6894 ] final -126.03 input  -60.11 | X-H torsion
[ 7974 7965 7964 7962 ] final   50.28 input  175.53 | X-H torsion
[ 8008 7997 7996 7995 ] final  -82.50 input   59.86 | X-H torsion
[ 10167 10162 10161 10158 ] final  103.13 input  -65.29 | X-H torsion
[ 10718 10713 10712 10709 ] final  -88.78 input   66.30 | X-H torsion
[ 10763 10752 10751 10750 ] final   -0.19 input  -60.55 | X-H torsion
[ 11005 11000 10999 10996 ] final  111.92 input  -57.11 | X-H torsion

> <Gold.Protein.ActiveResidues>
 VAL166  LYS551  ARG553  GLY616  TRP617  ASP618  TYR619  PRO620  LYS621  CYS622 
 ASP623  PHE694  ASN695  SER759  ASP760  ASP761  ALA762  ILE779  LEU786  VAL792 
 PHE793  MET794  SER795  GLU796  ALA797  LYS798  CYS799  TRP800  GLU811  SER814 

> <Gold.Protein.RotatedAtoms>
  150.8928  133.7221  159.2899 H   0  0  0  0  0  0  0  0  0  0  0  0  # atno 6907 bound_to 6896
  151.4766  135.1048  159.9775 H   0  0  0  0  0  0  0  0  0  0  0  0  # atno 6908 bound_to 6896
  152.4830  133.8255  159.7131 H   0  0  0  0  0  0  0  0  0  0  0  0  # atno 6909 bound_to 6896
  146.0027  139.4457  143.0005 H   0  0  0  0  0  0  0  0  0  0  0  0  # atno 7974 bound_to 7965
  154.6092  140.0632  156.9472 H   0  0  0  0  0  0  0  0  0  0  0  0  # atno 8008 bound_to 7997
  155.2001  140.3314  155.4326 H   0  0  0  0  0  0  0  0  0  0  0  0  # atno 8009 bound_to 7997
  156.2366  140.1866  156.7085 H   0  0  0  0  0  0  0  0  0  0  0  0  # atno 8010 bound_to 7997
  139.7290  144.7040  151.0753 H   0  0  0  0  0  0  0  0  0  0  0  0  # atno 10167 bound_to 10162
  155.9983  130.4848  150.5072 H   0  0  0  0  0  0  0  0  0  0  0  0  # atno 10718 bound_to 10713
  153.3287  135.6974  153.6966 H   0  0  0  0  0  0  0  0  0  0  0  0  # atno 10763 bound_to 10752
  153.5777  135.3504  155.2863 H   0  0  0  0  0  0  0  0  0  0  0  0  # atno 10764 bound_to 10752
  154.8613  135.4287  154.2471 H   0  0  0  0  0  0  0  0  0  0  0  0  # atno 10765 bound_to 10752
  139.8915  134.9519  156.6507 H   0  0  0  0  0  0  0  0  0  0  0  0  # atno 11005 bound_to 11000
  145.7463  140.9989  143.1274 LP  0  0  0  0  0  0  0  0  0  0  0  0  # atno 17320 bound_to 7965
  144.6925  139.9159  143.7465 LP  0  0  0  0  0  0  0  0  0  0  0  0  # atno 17321 bound_to 7965
  140.7768  143.5068  150.9702 LP  0  0  0  0  0  0  0  0  0  0  0  0  # atno 17342 bound_to 10162
  139.8756  143.7137  152.3162 LP  0  0  0  0  0  0  0  0  0  0  0  0  # atno 17343 bound_to 10162
  157.3049  131.0652  151.2042 LP  0  0  0  0  0  0  0  0  0  0  0  0  # atno 17370 bound_to 10713
  157.3008  130.6842  149.6163 LP  0  0  0  0  0  0  0  0  0  0  0  0  # atno 17371 bound_to 10713
  140.7523  133.8887  155.8356 LP  0  0  0  0  0  0  0  0  0  0  0  0  # atno 17394 bound_to 11000
  140.9990  134.1175  157.4335 LP  0  0  0  0  0  0  0  0  0  0  0  0  # atno 17395 bound_to 11000

$$$$
