AV-unprocessed.smi:157|AV-procd|sdf|1314|dock1
  -GOLD-   2262019 03D 1   1.00000     0.00000
 Structure written by MMmdl.
 36 38  0  0  0  0  0  0  0  0  2 V2000
  150.1301  144.1411  160.1648 O   0  0  0  0  0  0  0  0  0  0  0  0
  151.3288  144.8451  160.4136 C   0  0  0  0  0  0  0  0  0  0  0  0
  152.5562  143.9608  160.1146 C   0  0  2  0  0  0  0  0  0  0  0  0
  152.4898  143.6144  158.7287 O   0  0  0  0  0  0  0  0  0  0  0  0
  152.4186  142.2302  158.5774 C   0  0  2  0  0  0  0  0  0  0  0  0
  151.4536  141.9213  157.4806 N   0  0  0  0  0  0  0  0  0  0  0  0
  150.3967  142.6769  157.1158 C   0  0  0  0  0  0  0  0  0  0  0  0
  149.6913  142.1800  156.1139 N   0  3  0  0  0  0  0  0  0  0  0  0
  150.2981  140.9936  155.7597 C   0  0  0  0  0  0  0  0  0  0  0  0
  151.3956  140.8544  156.6136 C   0  0  0  0  0  0  0  0  0  0  0  0
  152.3536  139.8314  156.6855 N   0  0  0  0  0  0  0  0  0  0  0  0
  152.5335  138.9682  155.7391 C   0  0  0  0  0  0  0  0  0  0  0  0
  151.8180  138.7971  154.5656 N   0  0  0  0  0  0  0  0  0  0  0  0
  150.3667  138.7731  154.5198 C   0  0  0  0  0  0  0  0  0  0  0  0
  149.7227  140.1590  154.6585 C   0  0  2  0  0  0  0  0  0  0  0  0
  149.7734  140.8071  153.4043 O   0  0  0  0  0  0  0  0  0  0  0  0
  151.9216  141.6730  159.9037 C   0  0  0  0  0  0  0  0  0  0  0  0
  152.6172  142.6128  160.8625 C   0  0  2  0  0  0  0  0  0  0  0  0
  151.9954  142.6028  162.1315 O   0  0  0  0  0  0  0  0  0  0  0  0
  153.4696  144.5323  160.2851 H   0  0  0  0  0  0  0  0  0  0  0  0
  153.3841  141.8302  158.2657 H   0  0  0  0  0  0  0  0  0  0  0  0
  148.6644  140.0098  154.8763 H   0  0  0  0  0  0  0  0  0  0  0  0
  153.6586  142.3076  160.9753 H   0  0  0  0  0  0  0  0  0  0  0  0
  149.6944  144.5395  159.4266 H   0  0  0  0  0  0  0  0  0  0  0  0
  151.3509  145.7689  159.8350 H   0  0  0  0  0  0  0  0  0  0  0  0
  151.3255  145.1288  161.4665 H   0  0  0  0  0  0  0  0  0  0  0  0
  150.1530  143.6032  157.6046 H   0  0  0  0  0  0  0  0  0  0  0  0
  153.3454  138.2455  155.8317 H   0  0  0  0  0  0  0  0  0  0  0  0
  152.2198  138.2298  153.8324 H   0  0  0  0  0  0  0  0  0  0  0  0
  150.0361  138.2822  153.6039 H   0  0  0  0  0  0  0  0  0  0  0  0
  150.0256  138.1412  155.3414 H   0  0  0  0  0  0  0  0  0  0  0  0
  149.6526  140.1633  152.7234 H   0  0  0  0  0  0  0  0  0  0  0  0
  150.8368  141.7752  159.9684 H   0  0  0  0  0  0  0  0  0  0  0  0
  152.1973  140.6251  160.0254 H   0  0  0  0  0  0  0  0  0  0  0  0
  152.6610  142.4757  162.7910 H   0  0  0  0  0  0  0  0  0  0  0  0
  148.8641  142.5903  155.6993 H   0  0  0  0  0  0  0  0  0  0  0  0
  1  2  1  0  0  0  0
  1 24  1  0  0  0  0
  2  3  1  0  0  0  0
  2 25  1  0  0  0  0
  2 26  1  0  0  0  0
  3 20  1  0  0  0  0
  3 18  1  0  0  0  0
  3  4  1  0  0  0  0
  4  5  1  0  0  0  0
  5 21  1  0  0  0  0
  5  6  1  0  0  0  0
  5 17  1  0  0  0  0
  6 10  1  0  0  0  0
  6  7  1  0  0  0  0
  7  8  2  0  0  0  0
  7 27  1  0  0  0  0
  8  9  1  0  0  0  0
  8 36  1  0  0  0  0
  9 15  1  0  0  0  0
  9 10  2  0  0  0  0
 10 11  1  0  0  0  0
 11 12  2  0  0  0  0
 12 13  1  0  0  0  0
 12 28  1  0  0  0  0
 13 14  1  0  0  0  0
 13 29  1  0  0  0  0
 14 15  1  0  0  0  0
 14 30  1  0  0  0  0
 14 31  1  0  0  0  0
 15 22  1  0  0  0  0
 15 16  1  0  0  0  0
 16 32  1  0  0  0  0
 17 18  1  0  0  0  0
 17 33  1  0  0  0  0
 17 34  1  0  0  0  0
 18 23  1  0  0  0  0
 18 19  1  0  0  0  0
 19 35  1  0  0  0  0
M  CHG  1   8   1
M  END
> <s_m_source_file>
AV-unprocessed.smi

> <i_m_source_file_index>
157

> <i_lp_mmshare_version>
43012

> <i_f3d_flags>
0

> <s_epik_input>
W09IXVtDSDJdW0NASF0xT1tDQEhdKFtDSDJdW0NAQEhdMVtPSF0pbihbY0hdbjIpYyhjMjMpTj1bQ0hdW05IXVtDSDJdW0NASF0zW09IXQ==

> <s_epik_cmdline>
J2VwaWtfcHl0aG9uJywgJy1waCcsICc3LjAnLCAnLXRuJywgJzgnLCAnLW1hJywgJzIwMCcsICctbWV0YWxfYmluZGluZycsICctaW1hZScsICc8aW5maWxlLm1hZT4nLCAnLW9tYWUnLCAnPG91dGZpbGUubWFlPic=

> <r_epik_Ionization_Penalty>
1.68594

> <r_epik_Ionization_Penalty_Charging>
0

> <r_epik_Ionization_Penalty_Neutral>
1.68594

> <r_epik_State_Penalty>
1.79006

> <r_epik_Charging_Adjusted_Penalty>
1.79006

> <i_epik_Tot_Q>
1

> <i_epik_Tot_abs_Q>
1

> <r_epik_Metal_State_Penalty>
5.85324

> <b_epik_Metal_Only>
0

> <s_epik_Chemistry_Notes>
This compound has an imine and may undergo hydrolysis. This compound contains an acetal/aminal-like group ( X-CH(R)-Y where X, Y are N, S, or O) that may be acid/base labile, releasing an aldehyde.

> <s_lp_Force_Field>
OPLS_2005

> <r_lp_Energy>
55.0394

> <b_lp_Chiralities_Consistent>
1

> <s_lp_Variant>
AV-unprocessed.smi:157-24

> <Gold.Version>
5.8.1

> <Gold.Id.Protein>
6NUR|6NUR_protein|mol2

> <Gold.PLP.Fitness>
49.5778

> <Gold.PLP.PLP>
-39.1584

> <Gold.PLP.part.hbond>
-6.6471

> <Gold.PLP.part.metal>
0.0000

> <Gold.PLP.part.buried>
-3.2060

> <Gold.PLP.part.nonpolar>
-29.2508

> <Gold.PLP.part.repulsive>
0.2801

> <Gold.PLP.ligand.clash>
0.0000

> <Gold.PLP.ligand.torsion>
0.7491

> <Gold.PLP.Chemscore.Hbond>
3.6067

> <Gold.PLP.Chemscore.CHOScore>
0.3609

> <Gold.PLP.Chemscore.Metal>
0.0000

> <Gold.Chemscore.Hbonds>
donor molecule, donor type, donor heavy atom, donor atom, acceptor molecule, acceptor atom, score
      L1  H     8    36       P1  8028  0.44
      L1  H    16    32       P1  7957  0.82
      P1  H  6933  6945       L1    19  0.73
      P1  H  7989  7998       L1    16  0.18
      P1  H  7997  8009       L1    11  0.36
      P1  H  8011  8017       L1    16  0.95
      L1  C     7    27       P1  8028  0.36

> <Gold.PLP.Chemscore.Internal.Correction>
0.0145

> <Gold.Rescore>
     Score         DG    S(hbond)    S(metal)    S(lipo)     H(rot)  DE(clash)    DE(int)     intcor
     10.07     -11.83       2.53        0.00      62.17       3.67       1.15       0.61       ----

> <Gold.Chemscore.Fitness>
10.0694

> <Gold.Chemscore.DG>
-11.8337

> <Gold.Chemscore.ZeroCoef>
-5.4800

> <Gold.Chemscore.Hbond>
2.5343

> <Gold.Chemscore.Metal>
0.0000

> <Gold.Chemscore.Lipo>
62.1699

> <Gold.Chemscore.Internal_Hbond>
0.0000

> <Gold.Chemscore.DEClash>
1.1512

> <Gold.Chemscore.DEInternal>
0.6130

> <Gold.Chemscore.Rot>
3.6659

> <Gold.Chemscore.Internal.Correction>
   9.000000E+99

> <Gold.Chemscore.Hbonds>
donor molecule, donor type, donor heavy atom, donor atom, acceptor molecule, acceptor atom, score
      L1  H     8    36       P1  8028  0.22
      L1  H    16    32       P1  7957  0.79
      P1  H  6933  6945       L1    19  0.66
      P1  H  7997  8009       L1    11  0.01
      P1  H  8011  8017       L1    16  0.21

> <Gold.Chemscore.Hbond.Weighted>
-8.4646

> <Gold.Chemscore.Metal.Weighted>
-0.0000

> <Gold.Chemscore.Lipo.Weighted>
-7.2739

> <Gold.Chemscore.Internal_Hbond.Weighted>
0.0000

> <Gold.Chemscore.DEClash.Weighted>
1.1512

> <Gold.Chemscore.DEInternal.Weighted>
0.6130

> <Gold.Chemscore.Rot.Weighted>
9.3848

> <Gold.Chemscore.Internal.Correction.Weighted>
   9.000000E+99

> <Gold.Protein.RotatedTorsions>
[ 6907 6896 6895 6894 ] final  143.34 input  -60.11 | X-H torsion
[ 7974 7965 7964 7962 ] final  165.58 input  175.53 | X-H torsion
[ 8008 7997 7996 7995 ] final  173.12 input   59.86 | X-H torsion
[ 10167 10162 10161 10158 ] final   40.79 input  -65.29 | X-H torsion
[ 10718 10713 10712 10709 ] final   71.43 input   66.30 | X-H torsion
[ 10763 10752 10751 10750 ] final -145.02 input  -60.55 | X-H torsion
[ 11005 11000 10999 10996 ] final  142.39 input  -57.11 | X-H torsion

> <Gold.Protein.ActiveResidues>
 VAL166  LYS551  ARG553  GLY616  TRP617  ASP618  TYR619  PRO620  LYS621  CYS622 
 ASP623  PHE694  ASN695  SER759  ASP760  ASP761  ALA762  ILE779  LEU786  VAL792 
 PHE793  MET794  SER795  GLU796  ALA797  LYS798  CYS799  TRP800  GLU811  SER814 

> <Gold.Protein.RotatedAtoms>
  152.2075  133.4887  159.5091 H   0  0  0  0  0  0  0  0  0  0  0  0  # atno 6907 bound_to 6896
  150.6983  134.1510  159.4149 H   0  0  0  0  0  0  0  0  0  0  0  0  # atno 6908 bound_to 6896
  151.9428  135.0205  160.0587 H   0  0  0  0  0  0  0  0  0  0  0  0  # atno 6909 bound_to 6896
  144.7497  139.8491  143.6370 H   0  0  0  0  0  0  0  0  0  0  0  0  # atno 7974 bound_to 7965
  156.1107  140.1468  156.9342 H   0  0  0  0  0  0  0  0  0  0  0  0  # atno 8008 bound_to 7997
  154.4765  140.0893  156.7318 H   0  0  0  0  0  0  0  0  0  0  0  0  # atno 8009 bound_to 7997
  155.4600  140.3438  155.4314 H   0  0  0  0  0  0  0  0  0  0  0  0  # atno 8010 bound_to 7997
  140.3707  144.2108  150.6133 H   0  0  0  0  0  0  0  0  0  0  0  0  # atno 10167 bound_to 10162
  157.6451  130.9528  150.0788 H   0  0  0  0  0  0  0  0  0  0  0  0  # atno 10718 bound_to 10713
  154.8402  135.3424  154.6438 H   0  0  0  0  0  0  0  0  0  0  0  0  # atno 10763 bound_to 10752
  153.7050  135.6967  153.5057 H   0  0  0  0  0  0  0  0  0  0  0  0  # atno 10764 bound_to 10752
  153.2494  135.4358  155.0736 H   0  0  0  0  0  0  0  0  0  0  0  0  # atno 10765 bound_to 10752
  140.0473  134.9274  157.0953 H   0  0  0  0  0  0  0  0  0  0  0  0  # atno 11005 bound_to 11000
  146.1428  139.4490  143.0098 LP  0  0  0  0  0  0  0  0  0  0  0  0  # atno 17320 bound_to 7965
  145.6991  141.0141  143.1514 LP  0  0  0  0  0  0  0  0  0  0  0  0  # atno 17321 bound_to 7965
  140.5036  143.2311  151.8642 LP  0  0  0  0  0  0  0  0  0  0  0  0  # atno 17342 bound_to 10162
  139.4804  144.5031  151.9033 LP  0  0  0  0  0  0  0  0  0  0  0  0  # atno 17343 bound_to 10162
  156.1770  130.3648  149.9086 LP  0  0  0  0  0  0  0  0  0  0  0  0  # atno 17370 bound_to 10713
  156.7048  130.8947  151.3603 LP  0  0  0  0  0  0  0  0  0  0  0  0  # atno 17371 bound_to 10713
  140.3973  134.2120  155.7164 LP  0  0  0  0  0  0  0  0  0  0  0  0  # atno 17394 bound_to 11000
  141.1913  133.8198  157.0884 LP  0  0  0  0  0  0  0  0  0  0  0  0  # atno 17395 bound_to 11000

$$$$
