AV-unprocessed.smi:2188|AV-procd|sdf|8882|dock5
  -GOLD-   2272012 83D 1   1.00000     0.00000
 Structure written by MMmdl.
 38 40  0  0  0  0  0  0  0  0  2 V2000
  152.9851  139.6003  157.4782 O   0  0  0  0  0  0  0  0  0  0  0  0
  152.2379  140.3051  158.1696 C   0  0  0  0  0  0  0  0  0  0  0  0
  150.9605  140.6618  157.8287 N   0  5  0  0  0  0  0  0  0  0  0  0
  150.5801  141.4652  156.6660 C   0  0  0  0  0  0  0  0  0  0  0  0
  150.7075  140.6142  155.3864 C   0  0  0  0  0  0  0  0  0  0  0  0
  149.4044  140.4720  154.6112 C   0  0  0  0  0  0  0  0  0  0  0  0
  148.9322  139.2028  154.2104 C   0  0  0  0  0  0  0  0  0  0  0  0
  147.7279  139.1220  153.4856 C   0  0  0  0  0  0  0  0  0  0  0  0
  147.0450  140.3173  153.1856 C   0  0  0  0  0  0  0  0  0  0  0  0
  147.4874  141.5380  153.5565 N   0  0  0  0  0  0  0  0  0  0  0  0
  148.6428  141.6069  154.2527 C   0  0  0  0  0  0  0  0  0  0  0  0
  152.7423  140.8402  159.4516 C   0  0  0  0  0  0  0  0  0  0  0  0
  153.6352  140.0975  160.1589 C   0  0  0  0  0  0  0  0  0  0  0  0
  154.1868  140.5543  161.4098 C   0  0  0  0  0  0  0  0  0  0  0  0
  153.7701  141.7313  161.8871 C   0  0  0  0  0  0  0  0  0  0  0  0
  152.8336  142.5311  161.2349 N   0  0  0  0  0  0  0  0  0  0  0  0
  152.4006  143.7395  161.9287 C   0  0  0  0  0  0  0  0  0  0  0  0
  152.2764  144.8944  160.9520 C   0  0  0  0  0  0  0  0  0  0  0  0
  150.9543  144.4159  159.7837 S   0  0  0  0  0  0  0  0  0  0  0  0
  149.7182  144.2085  160.5544 O   0  0  0  0  0  0  0  0  0  0  0  0
  150.9577  145.3783  158.6715 O   0  0  0  0  0  0  0  0  0  0  0  0
  151.5342  142.9350  159.2595 N   0  0  0  0  0  0  0  0  0  0  0  0
  152.3124  142.1606  159.9624 C   0  0  0  0  0  0  0  0  0  0  0  0
  149.5562  141.8357  156.7341 H   0  0  0  0  0  0  0  0  0  0  0  0
  151.2108  142.3496  156.5707 H   0  0  0  0  0  0  0  0  0  0  0  0
  151.4602  141.0478  154.7262 H   0  0  0  0  0  0  0  0  0  0  0  0
  151.0669  139.6157  155.6404 H   0  0  0  0  0  0  0  0  0  0  0  0
  149.4814  138.3062  154.4581 H   0  0  0  0  0  0  0  0  0  0  0  0
  147.3370  138.1667  153.1679 H   0  0  0  0  0  0  0  0  0  0  0  0
  146.1189  140.2917  152.6308 H   0  0  0  0  0  0  0  0  0  0  0  0
  148.9691  142.5980  154.5325 H   0  0  0  0  0  0  0  0  0  0  0  0
  153.9556  139.1269  159.8074 H   0  0  0  0  0  0  0  0  0  0  0  0
  154.9146  139.9621  161.9444 H   0  0  0  0  0  0  0  0  0  0  0  0
  154.1455  142.1257  162.8201 H   0  0  0  0  0  0  0  0  0  0  0  0
  151.4503  143.5481  162.4281 H   0  0  0  0  0  0  0  0  0  0  0  0
  153.1121  144.0140  162.7080 H   0  0  0  0  0  0  0  0  0  0  0  0
  151.9859  145.8187  161.4507 H   0  0  0  0  0  0  0  0  0  0  0  0
  153.2014  145.0699  160.4016 H   0  0  0  0  0  0  0  0  0  0  0  0
  1  2  2  0  0  0  0
  2  3  1  0  0  0  0
  2 12  1  0  0  0  0
  3  4  1  0  0  0  0
  4  5  1  0  0  0  0
  4 24  1  0  0  0  0
  4 25  1  0  0  0  0
  5  6  1  0  0  0  0
  5 26  1  0  0  0  0
  5 27  1  0  0  0  0
  6 11  1  0  0  0  0
  6  7  2  0  0  0  0
  7  8  1  0  0  0  0
  7 28  1  0  0  0  0
  8  9  2  0  0  0  0
  8 29  1  0  0  0  0
  9 10  1  0  0  0  0
  9 30  1  0  0  0  0
 10 11  2  0  0  0  0
 11 31  1  0  0  0  0
 12 23  1  0  0  0  0
 12 13  2  0  0  0  0
 13 14  1  0  0  0  0
 13 32  1  0  0  0  0
 14 15  2  0  0  0  0
 14 33  1  0  0  0  0
 15 16  1  0  0  0  0
 15 34  1  0  0  0  0
 16 23  1  0  0  0  0
 16 17  1  0  0  0  0
 17 18  1  0  0  0  0
 17 35  1  0  0  0  0
 17 36  1  0  0  0  0
 18 19  1  0  0  0  0
 18 37  1  0  0  0  0
 18 38  1  0  0  0  0
 19 20  2  0  0  0  0
 19 21  2  0  0  0  0
 19 22  1  0  0  0  0
 22 23  2  0  0  0  0
M  CHG  1   3  -1
M  END
> <s_m_source_file>
AV-unprocessed.smi

> <i_m_source_file_index>
2188

> <i_lp_mmshare_version>
43012

> <i_f3d_flags>
0

> <s_epik_input>
W0NIMl0xW0NIMl1TKD1PKSg9TylOPUMoTjEyKUMoPVtDSF1bQ0hdPVtDSF0yKUMoPU8pW05IXVtDSDJdW0NIMl1jM1tjSF1bY0hdW2NIXW5bY0hdMw==

> <s_epik_cmdline>
J2VwaWtfcHl0aG9uJywgJy1waCcsICc3LjAnLCAnLXRuJywgJzgnLCAnLW1hJywgJzIwMCcsICctbWV0YWxfYmluZGluZycsICctaW1hZScsICc8aW5maWxlLm1hZT4nLCAnLW9tYWUnLCAnPG91dGZpbGUubWFlPic=

> <r_epik_Ionization_Penalty>
5.61471

> <r_epik_Ionization_Penalty_Charging>
5.5942

> <r_epik_Ionization_Penalty_Neutral>
0.0205175

> <r_epik_State_Penalty>
5.60129

> <r_epik_Charging_Adjusted_Penalty>
11.1955

> <i_epik_Tot_Q>
-1

> <i_epik_Tot_abs_Q>
1

> <r_epik_Metal_State_Penalty>
1.60393

> <b_epik_Metal_Only>
1

> <s_lp_Force_Field>
OPLS_2005

> <r_lp_Energy>
34.9518

> <b_lp_Chiralities_Consistent>
1

> <s_lp_Variant>
AV-unprocessed.smi:2188-3

> <Gold.Version>
5.8.1

> <Gold.Id.Protein>
6NUR|6NUR_protein|mol2

> <Gold.PLP.Fitness>
54.9356

> <Gold.PLP.PLP>
-48.4493

> <Gold.PLP.part.hbond>
-2.3753

> <Gold.PLP.part.metal>
0.0000

> <Gold.PLP.part.buried>
-2.4718

> <Gold.PLP.part.nonpolar>
-43.3068

> <Gold.PLP.part.repulsive>
0.5189

> <Gold.PLP.ligand.clash>
0.1243

> <Gold.PLP.ligand.torsion>
1.5622

> <Gold.PLP.Chemscore.Hbond>
1.1474

> <Gold.PLP.Chemscore.CHOScore>
2.0000

> <Gold.PLP.Chemscore.Metal>
0.0000

> <Gold.Chemscore.Hbonds>
donor molecule, donor type, donor heavy atom, donor atom, acceptor molecule, acceptor atom, score
      P1  H  6933  6944       L1    20  0.07
      P1  H  7997  8009       L1     1  1.00
      L1  C     9    30       P1 10175  1.00
      L1  C    11    31       P1  8028  1.00

> <Gold.PLP.Chemscore.Internal.Correction>
0.2927

> <Gold.Rescore>
     Score         DG    S(hbond)    S(metal)    S(lipo)     H(rot)  DE(clash)    DE(int)     intcor
     15.57     -18.64       1.34        0.00     105.81       1.44       0.17       2.90       ----

> <Gold.Chemscore.Fitness>
15.5687

> <Gold.Chemscore.DG>
-18.6407

> <Gold.Chemscore.ZeroCoef>
-5.4800

> <Gold.Chemscore.Hbond>
1.3399

> <Gold.Chemscore.Metal>
0.0000

> <Gold.Chemscore.Lipo>
105.8137

> <Gold.Chemscore.Internal_Hbond>
0.0000

> <Gold.Chemscore.DEClash>
0.1697

> <Gold.Chemscore.DEInternal>
2.9023

> <Gold.Chemscore.Rot>
1.4433

> <Gold.Chemscore.Internal.Correction>
   9.000000E+99

> <Gold.Chemscore.Hbonds>
donor molecule, donor type, donor heavy atom, donor atom, acceptor molecule, acceptor atom, score
      P1  H  6933  6944       L1    20  0.07
      P1  H  7997  8009       L1     1  0.95

> <Gold.Chemscore.Hbond.Weighted>
-4.4754

> <Gold.Chemscore.Metal.Weighted>
-0.0000

> <Gold.Chemscore.Lipo.Weighted>
-12.3802

> <Gold.Chemscore.Internal_Hbond.Weighted>
0.0000

> <Gold.Chemscore.DEClash.Weighted>
0.1697

> <Gold.Chemscore.DEInternal.Weighted>
2.9023

> <Gold.Chemscore.Rot.Weighted>
3.6949

> <Gold.Chemscore.Internal.Correction.Weighted>
   9.000000E+99

> <Gold.Protein.RotatedTorsions>
[ 6907 6896 6895 6894 ] final   81.75 input  -60.11 | X-H torsion
[ 7974 7965 7964 7962 ] final    2.64 input  175.53 | X-H torsion
[ 8008 7997 7996 7995 ] final  151.88 input   59.86 | X-H torsion
[ 10167 10162 10161 10158 ] final -173.46 input  -65.29 | X-H torsion
[ 10718 10713 10712 10709 ] final -165.95 input   66.30 | X-H torsion
[ 10763 10752 10751 10750 ] final  172.43 input  -60.55 | X-H torsion
[ 11005 11000 10999 10996 ] final   90.86 input  -57.11 | X-H torsion

> <Gold.Protein.ActiveResidues>
 VAL166  LYS551  ARG553  GLY616  TRP617  ASP618  TYR619  PRO620  LYS621  CYS622 
 ASP623  PHE694  ASN695  SER759  ASP760  ASP761  ALA762  ILE779  LEU786  VAL792 
 PHE793  MET794  SER795  GLU796  ALA797  LYS798  CYS799  TRP800  GLU811  SER814 

> <Gold.Protein.RotatedAtoms>
  152.5278  134.3156  159.9129 H   0  0  0  0  0  0  0  0  0  0  0  0  # atno 6907 bound_to 6896
  151.3106  133.4076  159.2654 H   0  0  0  0  0  0  0  0  0  0  0  0  # atno 6908 bound_to 6896
  151.0042  134.9363  159.8028 H   0  0  0  0  0  0  0  0  0  0  0  0  # atno 6909 bound_to 6896
  146.2444  140.0806  142.8357 H   0  0  0  0  0  0  0  0  0  0  0  0  # atno 7974 bound_to 7965
  156.2654  140.2036  156.6245 H   0  0  0  0  0  0  0  0  0  0  0  0  # atno 8008 bound_to 7997
  154.6731  140.0548  157.0210 H   0  0  0  0  0  0  0  0  0  0  0  0  # atno 8009 bound_to 7997
  155.1109  140.3215  155.4525 H   0  0  0  0  0  0  0  0  0  0  0  0  # atno 8010 bound_to 7997
  139.5687  144.1693  152.1352 H   0  0  0  0  0  0  0  0  0  0  0  0  # atno 10167 bound_to 10162
  156.6609  130.9045  151.3029 H   0  0  0  0  0  0  0  0  0  0  0  0  # atno 10718 bound_to 10713
  154.4259  135.2759  155.1945 H   0  0  0  0  0  0  0  0  0  0  0  0  # atno 10763 bound_to 10752
  154.3871  135.6074  153.5826 H   0  0  0  0  0  0  0  0  0  0  0  0  # atno 10764 bound_to 10752
  152.9834  135.5894  154.4562 H   0  0  0  0  0  0  0  0  0  0  0  0  # atno 10765 bound_to 10752
  139.8848  134.8639  156.3345 H   0  0  0  0  0  0  0  0  0  0  0  0  # atno 11005 bound_to 11000
  145.0737  140.9173  143.4867 LP  0  0  0  0  0  0  0  0  0  0  0  0  # atno 17320 bound_to 7965
  145.0945  139.2866  143.5718 LP  0  0  0  0  0  0  0  0  0  0  0  0  # atno 17321 bound_to 7965
  140.1221  144.5364  150.6856 LP  0  0  0  0  0  0  0  0  0  0  0  0  # atno 17342 bound_to 10162
  140.6971  143.2411  151.4969 LP  0  0  0  0  0  0  0  0  0  0  0  0  # atno 17343 bound_to 10162
  157.7110  130.9440  150.1089 LP  0  0  0  0  0  0  0  0  0  0  0  0  # atno 17370 bound_to 10713
  156.2012  130.3660  149.8786 LP  0  0  0  0  0  0  0  0  0  0  0  0  # atno 17371 bound_to 10713
  140.9700  133.7333  156.0522 LP  0  0  0  0  0  0  0  0  0  0  0  0  # atno 17394 bound_to 11000
  140.7882  134.3647  157.5471 LP  0  0  0  0  0  0  0  0  0  0  0  0  # atno 17395 bound_to 11000

$$$$
