AV-unprocessed.smi:623|AV-procd|sdf|3097|dock6
  -GOLD-   22720 0 13D 1   1.00000     0.00000
 Structure written by MMmdl.
 44 46  0  0  0  0  0  0  0  0  2 V2000
  147.2733  141.3733  156.6590 C   0  0  0  0  0  0  0  0  0  0  0  0
  146.8073  140.8888  155.2569 C   0  0  0  0  0  0  0  0  0  0  0  0
  145.2555  140.9784  155.2924 C   0  0  0  0  0  0  0  0  0  0  0  0
  147.4595  141.6384  154.0778 C   0  0  2  0  0  0  0  0  0  0  0  0
  146.9157  140.8985  152.8346 C   0  0  0  0  0  0  0  0  0  0  0  0
  146.8456  139.4350  153.3197 C   0  0  0  0  0  0  0  0  0  0  0  0
  147.3840  139.5291  154.7707 C   0  0  2  0  0  0  0  0  0  0  0  0
  147.0139  138.2964  155.6204 C   0  0  0  0  0  0  0  0  0  0  0  0
  148.9138  139.7881  154.6131 C   0  0  2  0  0  0  0  0  0  0  0  0
  149.6600  139.5086  155.8339 N   0  0  0  0  0  0  0  0  0  0  0  0
  150.9613  139.7490  156.0544 C   0  0  0  0  0  0  0  0  0  0  0  0
  151.7060  140.2340  155.2034 O   0  0  0  0  0  0  0  0  0  0  0  0
  151.5173  139.4150  157.4502 C   0  0  0  0  0  0  0  0  0  0  0  0
  151.9151  140.5963  158.2404 N   0  0  0  0  0  0  0  0  0  0  0  0
  151.0021  141.6634  158.3118 C   0  0  0  0  0  0  0  0  0  0  0  0
  151.2499  142.7634  159.0478 C   0  0  0  0  0  0  0  0  0  0  0  0
  152.5062  142.8324  159.7832 C   0  0  0  0  0  0  0  0  0  0  0  0
  152.7485  143.8274  160.4632 O   0  0  0  0  0  0  0  0  0  0  0  0
  153.3609  141.7730  159.6803 N   0  5  0  0  0  0  0  0  0  0  0  0
  153.0937  140.6588  158.9312 C   0  0  0  0  0  0  0  0  0  0  0  0
  153.8699  139.7054  158.8687 O   0  0  0  0  0  0  0  0  0  0  0  0
  148.9578  141.2752  154.1917 C   0  0  0  0  0  0  0  0  0  0  0  0
  146.8647  142.3598  156.8793 H   0  0  0  0  0  0  0  0  0  0  0  0
  148.3481  141.4640  156.7863 H   0  0  0  0  0  0  0  0  0  0  0  0
  146.9203  140.6999  157.4409 H   0  0  0  0  0  0  0  0  0  0  0  0
  144.7518  140.6646  154.3809 H   0  0  0  0  0  0  0  0  0  0  0  0
  144.9349  142.0033  155.4822 H   0  0  0  0  0  0  0  0  0  0  0  0
  144.8515  140.3631  156.0969 H   0  0  0  0  0  0  0  0  0  0  0  0
  147.2760  142.7129  154.0573 H   0  0  0  0  0  0  0  0  0  0  0  0
  145.9314  141.2677  152.5465 H   0  0  0  0  0  0  0  0  0  0  0  0
  147.5668  141.0130  151.9672 H   0  0  0  0  0  0  0  0  0  0  0  0
  145.8223  139.0603  153.2884 H   0  0  0  0  0  0  0  0  0  0  0  0
  147.4373  138.7667  152.6931 H   0  0  0  0  0  0  0  0  0  0  0  0
  147.4800  137.3952  155.2213 H   0  0  0  0  0  0  0  0  0  0  0  0
  145.9365  138.1321  155.6324 H   0  0  0  0  0  0  0  0  0  0  0  0
  147.3371  138.4033  156.6562 H   0  0  0  0  0  0  0  0  0  0  0  0
  149.3300  139.1550  153.8270 H   0  0  0  0  0  0  0  0  0  0  0  0
  149.1348  139.0986  156.5932 H   0  0  0  0  0  0  0  0  0  0  0  0
  150.7736  138.8254  157.9884 H   0  0  0  0  0  0  0  0  0  0  0  0
  152.3716  138.7480  157.3267 H   0  0  0  0  0  0  0  0  0  0  0  0
  150.0919  141.5272  157.7462 H   0  0  0  0  0  0  0  0  0  0  0  0
  150.5347  143.5711  159.0974 H   0  0  0  0  0  0  0  0  0  0  0  0
  149.4889  141.4130  153.2494 H   0  0  0  0  0  0  0  0  0  0  0  0
  149.4634  141.9002  154.9282 H   0  0  0  0  0  0  0  0  0  0  0  0
  1  2  1  0  0  0  0
  1 23  1  0  0  0  0
  1 24  1  0  0  0  0
  1 25  1  0  0  0  0
  2  7  1  0  0  0  0
  2  3  1  0  0  0  0
  2  4  1  0  0  0  0
  3 26  1  0  0  0  0
  3 27  1  0  0  0  0
  3 28  1  0  0  0  0
  4 22  1  0  0  0  0
  4  5  1  0  0  0  0
  4 29  1  0  0  0  0
  5  6  1  0  0  0  0
  5 30  1  0  0  0  0
  5 31  1  0  0  0  0
  6  7  1  0  0  0  0
  6 32  1  0  0  0  0
  6 33  1  0  0  0  0
  7  8  1  0  0  0  0
  7  9  1  0  0  0  0
  8 34  1  0  0  0  0
  8 35  1  0  0  0  0
  8 36  1  0  0  0  0
  9 10  1  0  0  0  0
  9 22  1  0  0  0  0
  9 37  1  0  0  0  0
 10 11  1  0  0  0  0
 10 38  1  0  0  0  0
 11 12  2  0  0  0  0
 11 13  1  0  0  0  0
 13 14  1  0  0  0  0
 13 39  1  0  0  0  0
 13 40  1  0  0  0  0
 14 20  1  0  0  0  0
 14 15  1  0  0  0  0
 15 16  2  0  0  0  0
 15 41  1  0  0  0  0
 16 17  1  0  0  0  0
 16 42  1  0  0  0  0
 17 18  2  0  0  0  0
 17 19  1  0  0  0  0
 19 20  1  0  0  0  0
 20 21  2  0  0  0  0
 22 43  1  0  0  0  0
 22 44  1  0  0  0  0
M  CHG  1  19  -1
M  END
> <s_m_source_file>
AV-unprocessed.smi

> <i_m_source_file_index>
623

> <i_lp_mmshare_version>
43012

> <i_f3d_flags>
0

> <s_epik_input>
W0NIM11bQ0BdMTJDKFtDSDNdKShbQ0gzXSlbQ0BIXShbQ0gyXVtDSDJdMSlbQ0gyXVtDQEBIXTJbTkhdQyg9TylbQ0gyXW4zW2NIXVtjSF1jKD1PKVtuSF1jMz1P

> <s_epik_cmdline>
J2VwaWtfcHl0aG9uJywgJy1waCcsICc3LjAnLCAnLXRuJywgJzgnLCAnLW1hJywgJzIwMCcsICctbWV0YWxfYmluZGluZycsICctaW1hZScsICc8aW5maWxlLm1hZT4nLCAnLW9tYWUnLCAnPG91dGZpbGUubWFlPic=

> <r_lp_tautomer_probability>
0.999537

> <r_epik_Ionization_Penalty>
3.12624

> <r_epik_Ionization_Penalty_Charging>
3.01273e-08

> <r_epik_Ionization_Penalty_Neutral>
3.12624

> <r_epik_State_Penalty>
3.12534

> <r_epik_Charging_Adjusted_Penalty>
3.12534

> <i_epik_Tot_Q>
-1

> <i_epik_Tot_abs_Q>
1

> <r_epik_Metal_State_Penalty>
0.46406

> <b_epik_Metal_Only>
1

> <s_lp_Force_Field>
OPLS_2005

> <r_lp_Energy>
63.0451

> <b_lp_Chiralities_Consistent>
1

> <s_lp_Variant>
AV-unprocessed.smi:623-7

> <Gold.Version>
5.8.1

> <Gold.Id.Protein>
6NUR|6NUR_protein|mol2

> <Gold.PLP.Fitness>
36.5807

> <Gold.PLP.PLP>
-31.2941

> <Gold.PLP.part.hbond>
-2.0000

> <Gold.PLP.part.metal>
0.0000

> <Gold.PLP.part.buried>
-3.4734

> <Gold.PLP.part.nonpolar>
-25.4430

> <Gold.PLP.part.repulsive>
0.0937

> <Gold.PLP.ligand.clash>
0.0000

> <Gold.PLP.ligand.torsion>
0.2315

> <Gold.PLP.Chemscore.Hbond>
1.9120

> <Gold.PLP.Chemscore.CHOScore>
0.0000

> <Gold.PLP.Chemscore.Metal>
0.0000

> <Gold.Chemscore.Hbonds>
donor molecule, donor type, donor heavy atom, donor atom, acceptor molecule, acceptor atom, score
      P1  H  7989  7998       L1    12  0.90
      P1  H  7997  8010       L1    21  1.00

> <Gold.PLP.Chemscore.Internal.Correction>
0.0135

> <Gold.Rescore>
     Score         DG    S(hbond)    S(metal)    S(lipo)     H(rot)  DE(clash)    DE(int)     intcor
     14.35     -14.86       1.78        0.00      65.08       1.63       0.29       0.22       ----

> <Gold.Chemscore.Fitness>
14.3485

> <Gold.Chemscore.DG>
-14.8581

> <Gold.Chemscore.ZeroCoef>
-5.4800

> <Gold.Chemscore.Hbond>
1.7792

> <Gold.Chemscore.Metal>
0.0000

> <Gold.Chemscore.Lipo>
65.0756

> <Gold.Chemscore.Internal_Hbond>
0.0000

> <Gold.Chemscore.DEClash>
0.2939

> <Gold.Chemscore.DEInternal>
0.2157

> <Gold.Chemscore.Rot>
1.6322

> <Gold.Chemscore.Internal.Correction>
   9.000000E+99

> <Gold.Chemscore.Hbonds>
donor molecule, donor type, donor heavy atom, donor atom, acceptor molecule, acceptor atom, score
      P1  H  7989  7998       L1    12  0.88
      P1  H  7997  8010       L1    21  0.44

> <Gold.Chemscore.Hbond.Weighted>
-5.9426

> <Gold.Chemscore.Metal.Weighted>
-0.0000

> <Gold.Chemscore.Lipo.Weighted>
-7.6138

> <Gold.Chemscore.Internal_Hbond.Weighted>
0.0000

> <Gold.Chemscore.DEClash.Weighted>
0.2939

> <Gold.Chemscore.DEInternal.Weighted>
0.2157

> <Gold.Chemscore.Rot.Weighted>
4.1783

> <Gold.Chemscore.Internal.Correction.Weighted>
   9.000000E+99

> <Gold.Protein.RotatedTorsions>
[ 6907 6896 6895 6894 ] final  -68.84 input  -60.11 | X-H torsion
[ 7974 7965 7964 7962 ] final  131.70 input  175.53 | X-H torsion
[ 8008 7997 7996 7995 ] final   14.16 input   59.86 | X-H torsion
[ 10167 10162 10161 10158 ] final  -54.47 input  -65.29 | X-H torsion
[ 10718 10713 10712 10709 ] final  174.99 input   66.30 | X-H torsion
[ 10763 10752 10751 10750 ] final  -84.40 input  -60.55 | X-H torsion
[ 11005 11000 10999 10996 ] final  -17.94 input  -57.11 | X-H torsion

> <Gold.Protein.ActiveResidues>
 VAL166  LYS551  ARG553  GLY616  TRP617  ASP618  TYR619  PRO620  LYS621  CYS622 
 ASP623  PHE694  ASN695  SER759  ASP760  ASP761  ALA762  ILE779  LEU786  VAL792 
 PHE793  MET794  SER795  GLU796  ALA797  LYS798  CYS799  TRP800  GLU811  SER814 

> <Gold.Protein.RotatedAtoms>
  150.7335  134.5682  159.5876 H   0  0  0  0  0  0  0  0  0  0  0  0  # atno 6907 bound_to 6896
  152.3128  134.7474  160.0341 H   0  0  0  0  0  0  0  0  0  0  0  0  # atno 6908 bound_to 6896
  151.8016  133.3335  159.3565 H   0  0  0  0  0  0  0  0  0  0  0  0  # atno 6909 bound_to 6896
  145.0045  139.4279  143.5275 H   0  0  0  0  0  0  0  0  0  0  0  0  # atno 7974 bound_to 7965
  154.8445  140.2920  155.5638 H   0  0  0  0  0  0  0  0  0  0  0  0  # atno 8008 bound_to 7997
  156.3013  140.2507  156.3325 H   0  0  0  0  0  0  0  0  0  0  0  0  # atno 8009 bound_to 7997
  154.9089  140.0389  157.1924 H   0  0  0  0  0  0  0  0  0  0  0  0  # atno 8010 bound_to 7997
  140.6429  143.2518  151.4940 H   0  0  0  0  0  0  0  0  0  0  0  0  # atno 10167 bound_to 10162
  156.9414  131.0002  151.2967 H   0  0  0  0  0  0  0  0  0  0  0  0  # atno 10718 bound_to 10713
  154.5990  135.5522  153.7355 H   0  0  0  0  0  0  0  0  0  0  0  0  # atno 10763 bound_to 10752
  153.0147  135.6362  154.1741 H   0  0  0  0  0  0  0  0  0  0  0  0  # atno 10764 bound_to 10752
  154.1681  135.2893  155.3069 H   0  0  0  0  0  0  0  0  0  0  0  0  # atno 10765 bound_to 10752
  140.8218  133.8062  155.9667 H   0  0  0  0  0  0  0  0  0  0  0  0  # atno 11005 bound_to 11000
  146.3458  139.9453  142.8735 LP  0  0  0  0  0  0  0  0  0  0  0  0  # atno 17320 bound_to 7965
  145.2107  140.9894  143.4102 LP  0  0  0  0  0  0  0  0  0  0  0  0  # atno 17321 bound_to 7965
  139.5638  144.2091  152.1733 LP  0  0  0  0  0  0  0  0  0  0  0  0  # atno 17342 bound_to 10162
  140.1367  144.5239  150.6769 LP  0  0  0  0  0  0  0  0  0  0  0  0  # atno 17343 bound_to 10162
  157.5782  130.8358  149.8485 LP  0  0  0  0  0  0  0  0  0  0  0  0  # atno 17370 bound_to 10713
  156.0403  130.3741  150.1454 LP  0  0  0  0  0  0  0  0  0  0  0  0  # atno 17371 bound_to 10713
  140.9091  134.2283  157.4997 LP  0  0  0  0  0  0  0  0  0  0  0  0  # atno 17394 bound_to 11000
  139.8708  134.9742  156.4836 LP  0  0  0  0  0  0  0  0  0  0  0  0  # atno 17395 bound_to 11000

$$$$
