AV-unprocessed.smi:1554|AV-procd|sdf|6261|dock5
  -GOLD-   22720 6443D 1   1.00000     0.00000
 Structure written by MMmdl.
 49 51  0  0  0  0  0  0  0  0  3 V2000
  151.9680  143.1382  160.6742 C   0  0  0  0  0  0  0  0  0  0  0  0
  151.8291  142.3151  159.4050 C   0  0  0  0  0  0  0  0  0  0  0  0
  150.9519  142.7738  158.3963 C   0  0  0  0  0  0  0  0  0  0  0  0
  150.8451  141.9986  157.2478 C   0  0  0  0  0  0  0  0  0  0  0  0
  150.0814  142.1735  156.0916 N   0  3  0  0  0  0  0  0  0  0  0  0
  150.3122  141.1415  155.2332 C   0  0  0  0  0  0  0  0  0  0  0  0
  151.2078  140.3068  155.8279 N   0  0  0  0  0  0  0  0  0  0  0  0
  151.7973  139.0507  155.3455 C   0  0  0  0  0  0  0  0  0  0  0  0
  150.8612  138.2749  154.3978 C   0  0  1  0  0  0  0  0  0  0  0  0
  151.4908  137.0684  154.0125 O   0  0  0  0  0  0  0  0  0  0  0  0
  149.5148  137.9439  155.0717 C   0  0  0  0  0  0  0  0  0  0  0  0
  148.3746  137.9570  154.1152 N   0  3  1  0  0  0  0  0  0  0  0  0
  147.0853  137.5466  154.7230 C   0  0  0  0  0  0  0  0  0  0  0  0
  146.4709  138.6909  155.5486 C   0  0  0  0  0  0  0  0  0  0  0  0
  146.3043  139.8342  154.7192 O   0  0  0  0  0  0  0  0  0  0  0  0
  147.5391  140.3219  154.2062 C   0  0  2  0  0  0  0  0  0  0  0  0
  147.2484  141.5833  153.3857 C   0  0  0  0  0  0  0  0  0  0  0  0
  148.2088  139.2220  153.3531 C   0  0  0  0  0  0  0  0  0  0  0  0
  151.5734  140.8047  157.0830 C   0  0  0  0  0  0  0  0  0  0  0  0
  152.4444  140.3394  158.0649 C   0  0  0  0  0  0  0  0  0  0  0  0
  152.5670  141.1139  159.2407 C   0  0  0  0  0  0  0  0  0  0  0  0
  153.5092  140.6320  160.3306 C   0  0  0  0  0  0  0  0  0  0  0  0
  151.3136  144.0103  160.6580 H   0  0  0  0  0  0  0  0  0  0  0  0
  152.9928  143.4921  160.7897 H   0  0  0  0  0  0  0  0  0  0  0  0
  151.7056  142.5429  161.5491 H   0  0  0  0  0  0  0  0  0  0  0  0
  150.3886  143.6882  158.5139 H   0  0  0  0  0  0  0  0  0  0  0  0
  149.8632  141.0090  154.2590 H   0  0  0  0  0  0  0  0  0  0  0  0
  152.7311  139.2996  154.8392 H   0  0  0  0  0  0  0  0  0  0  0  0
  152.0675  138.4447  156.2112 H   0  0  0  0  0  0  0  0  0  0  0  0
  150.6998  138.8715  153.5011 H   0  0  0  0  0  0  0  0  0  0  0  0
  151.2745  136.8913  153.1095 H   0  0  0  0  0  0  0  0  0  0  0  0
  149.5954  136.9567  155.5296 H   0  0  0  0  0  0  0  0  0  0  0  0
  149.3228  138.6376  155.8901 H   0  0  0  0  0  0  0  0  0  0  0  0
  146.3989  137.2739  153.9203 H   0  0  0  0  0  0  0  0  0  0  0  0
  147.2118  136.6509  155.3321 H   0  0  0  0  0  0  0  0  0  0  0  0
  145.4959  138.3924  155.9339 H   0  0  0  0  0  0  0  0  0  0  0  0
  147.0914  138.9355  156.4121 H   0  0  0  0  0  0  0  0  0  0  0  0
  148.1856  140.6012  155.0391 H   0  0  0  0  0  0  0  0  0  0  0  0
  148.1668  142.0077  152.9794 H   0  0  0  0  0  0  0  0  0  0  0  0
  146.7731  142.3479  154.0009 H   0  0  0  0  0  0  0  0  0  0  0  0
  146.5818  141.3666  152.5504 H   0  0  0  0  0  0  0  0  0  0  0  0
  149.1604  139.5715  152.9556 H   0  0  0  0  0  0  0  0  0  0  0  0
  147.5815  139.0080  152.4865 H   0  0  0  0  0  0  0  0  0  0  0  0
  153.0058  139.4255  157.9393 H   0  0  0  0  0  0  0  0  0  0  0  0
  154.0253  139.7175  160.0370 H   0  0  0  0  0  0  0  0  0  0  0  0
  152.9580  140.4237  161.2479 H   0  0  0  0  0  0  0  0  0  0  0  0
  154.2665  141.3865  160.5442 H   0  0  0  0  0  0  0  0  0  0  0  0
  148.5991  137.2395  153.4398 H   0  0  0  0  0  0  0  0  0  0  0  0
  149.4498  142.9407  155.8991 H   0  0  0  0  0  0  0  0  0  0  0  0
  1  2  1  0  0  0  0
  1 23  1  0  0  0  0
  1 24  1  0  0  0  0
  1 25  1  0  0  0  0
  2 21  1  0  0  0  0
  2  3  2  0  0  0  0
  3  4  1  0  0  0  0
  3 26  1  0  0  0  0
  4 19  2  0  0  0  0
  4  5  1  0  0  0  0
  5  6  2  0  0  0  0
  5 49  1  0  0  0  0
  6  7  1  0  0  0  0
  6 27  1  0  0  0  0
  7  8  1  0  0  0  0
  7 19  1  0  0  0  0
  8  9  1  0  0  0  0
  8 28  1  0  0  0  0
  8 29  1  0  0  0  0
  9 10  1  0  0  0  0
  9 11  1  0  0  0  0
  9 30  1  0  0  0  0
 10 31  1  0  0  0  0
 11 12  1  0  0  0  0
 11 32  1  0  0  0  0
 11 33  1  0  0  0  0
 12 18  1  0  0  0  0
 12 13  1  0  0  0  0
 12 48  1  0  0  0  0
 13 14  1  0  0  0  0
 13 34  1  0  0  0  0
 13 35  1  0  0  0  0
 14 15  1  0  0  0  0
 14 36  1  0  0  0  0
 14 37  1  0  0  0  0
 15 16  1  0  0  0  0
 16 17  1  0  0  0  0
 16 18  1  0  0  0  0
 16 38  1  0  0  0  0
 17 39  1  0  0  0  0
 17 40  1  0  0  0  0
 17 41  1  0  0  0  0
 18 42  1  0  0  0  0
 18 43  1  0  0  0  0
 19 20  1  0  0  0  0
 20 21  2  0  0  0  0
 20 44  1  0  0  0  0
 21 22  1  0  0  0  0
 22 45  1  0  0  0  0
 22 46  1  0  0  0  0
 22 47  1  0  0  0  0
M  CHG  1   5   1
M  CHG  1  12   1
M  END
> <s_m_source_file>
AV-unprocessed.smi

> <i_m_source_file_index>
1554

> <i_lp_mmshare_version>
43012

> <i_f3d_flags>
0

> <s_epik_input>
W0NIM11jKFtjSF0xKWMoW0NIM10pW2NIXWMoYzEyKW4oW2NIXW4yKVtDSDJdW0NASF0oW09IXSlbQ0gyXU4zW0NIMl1bQ0gyXU9bQ0BASF0oW0NIM10pW0NIMl0z

> <s_epik_cmdline>
J2VwaWtfcHl0aG9uJywgJy1waCcsICc3LjAnLCAnLXRuJywgJzgnLCAnLW1hJywgJzIwMCcsICctbWV0YWxfYmluZGluZycsICctaW1hZScsICc8aW5maWxlLm1hZT4nLCAnLW9tYWUnLCAnPG91dGZpbGUubWFlPic=

> <r_epik_Ionization_Penalty>
1.8848

> <r_epik_Ionization_Penalty_Charging>
1.88479

> <r_epik_Ionization_Penalty_Neutral>
1.42224e-05

> <r_epik_State_Penalty>
1.94551

> <r_epik_Charging_Adjusted_Penalty>
3.8303

> <i_epik_Tot_Q>
2

> <i_epik_Tot_abs_Q>
2

> <r_epik_Metal_State_Penalty>
5.95849

> <b_epik_Metal_Only>
0

> <s_lp_Force_Field>
OPLS_2005

> <r_lp_Energy>
31.3767

> <b_lp_Chiralities_Consistent>
1

> <s_lp_Variant>
AV-unprocessed.smi:1554-22

> <Gold.Version>
5.8.1

> <Gold.Id.Protein>
6NUR|6NUR_protein|mol2

> <Gold.PLP.Fitness>
56.2465

> <Gold.PLP.PLP>
-39.8765

> <Gold.PLP.part.hbond>
-4.0000

> <Gold.PLP.part.metal>
0.0000

> <Gold.PLP.part.buried>
-2.6946

> <Gold.PLP.part.nonpolar>
-33.0424

> <Gold.PLP.part.repulsive>
0.1661

> <Gold.PLP.ligand.clash>
0.0000

> <Gold.PLP.ligand.torsion>
0.8280

> <Gold.PLP.Chemscore.Hbond>
6.0000

> <Gold.PLP.Chemscore.CHOScore>
0.0000

> <Gold.PLP.Chemscore.Metal>
0.0000

> <Gold.Chemscore.Hbonds>
donor molecule, donor type, donor heavy atom, donor atom, acceptor molecule, acceptor atom, score
      L1  H     5    49       P1  8028  2.00
      L1  H    10    31       P1  7949  1.00
      L1  H    12    48       P1  7948  2.00
      P1  H 10752 10763       L1    10  0.94

> <Gold.PLP.Chemscore.Internal.Correction>
0.0260

> <Gold.Rescore>
     Score         DG    S(hbond)    S(metal)    S(lipo)     H(rot)  DE(clash)    DE(int)     intcor
     20.91     -23.19       3.26        0.00     104.53       2.11       1.46       0.82       ----

> <Gold.Chemscore.Fitness>
20.9079

> <Gold.Chemscore.DG>
-23.1907

> <Gold.Chemscore.ZeroCoef>
-5.4800

> <Gold.Chemscore.Hbond>
3.2598

> <Gold.Chemscore.Metal>
0.0000

> <Gold.Chemscore.Lipo>
104.5325

> <Gold.Chemscore.Internal_Hbond>
0.0000

> <Gold.Chemscore.DEClash>
1.4620

> <Gold.Chemscore.DEInternal>
0.8208

> <Gold.Chemscore.Rot>
2.1122

> <Gold.Chemscore.Internal.Correction>
   9.000000E+99

> <Gold.Chemscore.Hbonds>
donor molecule, donor type, donor heavy atom, donor atom, acceptor molecule, acceptor atom, score
      L1  H     5    49       P1  8028  0.99
      L1  H    10    31       P1  7949  0.65
      L1  H    12    48       P1  7948  1.00
      P1  H 10752 10763       L1    10  0.20

> <Gold.Chemscore.Hbond.Weighted>
-10.8877

> <Gold.Chemscore.Metal.Weighted>
-0.0000

> <Gold.Chemscore.Lipo.Weighted>
-12.2303

> <Gold.Chemscore.Internal_Hbond.Weighted>
0.0000

> <Gold.Chemscore.DEClash.Weighted>
1.4620

> <Gold.Chemscore.DEInternal.Weighted>
0.8208

> <Gold.Chemscore.Rot.Weighted>
5.4073

> <Gold.Chemscore.Internal.Correction.Weighted>
   9.000000E+99

> <Gold.Protein.RotatedTorsions>
[ 6907 6896 6895 6894 ] final -176.42 input  -60.11 | X-H torsion
[ 7974 7965 7964 7962 ] final -126.82 input  175.53 | X-H torsion
[ 8008 7997 7996 7995 ] final   27.73 input   59.86 | X-H torsion
[ 10167 10162 10161 10158 ] final -127.24 input  -65.29 | X-H torsion
[ 10718 10713 10712 10709 ] final   70.91 input   66.30 | X-H torsion
[ 10763 10752 10751 10750 ] final   41.93 input  -60.55 | X-H torsion
[ 11005 11000 10999 10996 ] final   88.33 input  -57.11 | X-H torsion

> <Gold.Protein.ActiveResidues>
 VAL166  LYS551  ARG553  GLY616  TRP617  ASP618  TYR619  PRO620  LYS621  CYS622 
 ASP623  PHE694  ASN695  SER759  ASP760  ASP761  ALA762  ILE779  LEU786  VAL792 
 PHE793  MET794  SER795  GLU796  ALA797  LYS798  CYS799  TRP800  GLU811  SER814 

> <Gold.Protein.RotatedAtoms>
  151.6045  133.3353  159.3054 H   0  0  0  0  0  0  0  0  0  0  0  0  # atno 6907 bound_to 6896
  150.8190  134.7390  159.6766 H   0  0  0  0  0  0  0  0  0  0  0  0  # atno 6908 bound_to 6896
  152.4284  134.5830  160.0004 H   0  0  0  0  0  0  0  0  0  0  0  0  # atno 6909 bound_to 6896
  144.9834  140.7662  143.4598 H   0  0  0  0  0  0  0  0  0  0  0  0  # atno 7974 bound_to 7965
  155.0475  140.3176  155.4703 H   0  0  0  0  0  0  0  0  0  0  0  0  # atno 8008 bound_to 7997
  156.2841  140.2152  156.5544 H   0  0  0  0  0  0  0  0  0  0  0  0  # atno 8009 bound_to 7997
  154.7238  140.0487  157.0651 H   0  0  0  0  0  0  0  0  0  0  0  0  # atno 8010 bound_to 7997
  139.9629  143.5930  152.2439 H   0  0  0  0  0  0  0  0  0  0  0  0  # atno 10167 bound_to 10162
  157.6425  130.9501  150.0716 H   0  0  0  0  0  0  0  0  0  0  0  0  # atno 10718 bound_to 10713
  152.9895  135.6147  154.2868 H   0  0  0  0  0  0  0  0  0  0  0  0  # atno 10763 bound_to 10752
  154.2595  135.2783  155.2786 H   0  0  0  0  0  0  0  0  0  0  0  0  # atno 10764 bound_to 10752
  154.5218  135.5812  153.6744 H   0  0  0  0  0  0  0  0  0  0  0  0  # atno 10765 bound_to 10752
  139.8899  134.8480  156.2985 H   0  0  0  0  0  0  0  0  0  0  0  0  # atno 11005 bound_to 11000
  145.2388  139.2081  143.5003 LP  0  0  0  0  0  0  0  0  0  0  0  0  # atno 17320 bound_to 7965
  146.3414  140.2280  142.8592 LP  0  0  0  0  0  0  0  0  0  0  0  0  # atno 17321 bound_to 7965
  139.6540  144.7661  151.2092 LP  0  0  0  0  0  0  0  0  0  0  0  0  # atno 17342 bound_to 10162
  140.7547  143.6115  150.8600 LP  0  0  0  0  0  0  0  0  0  0  0  0  # atno 17343 bound_to 10162
  156.1719  130.3647  149.9154 LP  0  0  0  0  0  0  0  0  0  0  0  0  # atno 17370 bound_to 10713
  156.7127  130.8976  151.3611 LP  0  0  0  0  0  0  0  0  0  0  0  0  # atno 17371 bound_to 10713
  140.9929  133.7197  156.0842 LP  0  0  0  0  0  0  0  0  0  0  0  0  # atno 17394 bound_to 11000
  140.7601  134.3949  157.5527 LP  0  0  0  0  0  0  0  0  0  0  0  0  # atno 17395 bound_to 11000

$$$$
