AV-unprocessed.smi:1208|AV-procd|sdf|5064|dock4
  -GOLD-   22720 4103D 1   1.00000     0.00000
 Structure written by MMmdl.
 35 36  0  0  0  0  0  0  0  0  2 V2000
  149.1313  141.4276  155.8740 C   0  0  0  0  0  0  0  0  0  0  0  0
  150.6331  141.1770  155.6618 C   0  0  1  0  0  0  0  0  0  0  0  0
  151.4255  142.0521  156.5190 N   0  0  0  0  0  0  0  0  0  0  0  0
  151.1168  142.4492  157.7634 C   0  0  0  0  0  0  0  0  0  0  0  0
  150.1298  142.0390  158.3738 O   0  0  0  0  0  0  0  0  0  0  0  0
  152.0384  143.4914  158.4211 C   0  0  0  0  0  0  0  0  0  0  0  0
  152.3964  143.1890  159.8180 N   0  0  0  0  0  0  0  0  0  0  0  0
  153.1214  141.9330  159.9870 N   0  5  0  0  0  0  0  0  0  0  0  0
  153.5453  141.5743  161.2279 C   0  0  0  0  0  0  0  0  0  0  0  0
  154.1769  140.5428  161.4442 O   0  0  0  0  0  0  0  0  0  0  0  0
  153.2323  142.4566  162.3398 C   0  0  0  0  0  0  0  0  0  0  0  0
  152.5507  143.6045  162.1567 C   0  0  0  0  0  0  0  0  0  0  0  0
  152.0905  144.0361  160.8426 C   0  0  0  0  0  0  0  0  0  0  0  0
  151.4834  145.0921  160.6661 O   0  0  0  0  0  0  0  0  0  0  0  0
  151.0210  139.7042  155.9152 C   0  0  1  0  0  0  0  0  0  0  0  0
  150.4404  138.6986  154.9050 C   0  0  0  0  0  0  0  0  0  0  0  0
  151.5885  137.7391  154.6766 C   0  0  0  0  0  0  0  0  0  0  0  0
  152.7895  138.6644  154.8030 C   0  0  0  0  0  0  0  0  0  0  0  0
  152.4398  139.5397  155.8660 O   0  0  0  0  0  0  0  0  0  0  0  0
  148.5321  140.7825  155.2314 H   0  0  0  0  0  0  0  0  0  0  0  0
  148.8663  142.4593  155.6408 H   0  0  0  0  0  0  0  0  0  0  0  0
  148.8375  141.2345  156.9063 H   0  0  0  0  0  0  0  0  0  0  0  0
  150.8690  141.4029  154.6204 H   0  0  0  0  0  0  0  0  0  0  0  0
  152.2692  142.4331  156.1133 H   0  0  0  0  0  0  0  0  0  0  0  0
  152.9445  143.5901  157.8209 H   0  0  0  0  0  0  0  0  0  0  0  0
  151.5438  144.4623  158.3605 H   0  0  0  0  0  0  0  0  0  0  0  0
  153.5526  142.1854  163.3349 H   0  0  0  0  0  0  0  0  0  0  0  0
  152.3400  144.2297  163.0114 H   0  0  0  0  0  0  0  0  0  0  0  0
  150.7032  139.4144  156.9176 H   0  0  0  0  0  0  0  0  0  0  0  0
  149.5444  138.2013  155.2769 H   0  0  0  0  0  0  0  0  0  0  0  0
  150.1804  139.1793  153.9615 H   0  0  0  0  0  0  0  0  0  0  0  0
  151.6117  136.9828  155.4622 H   0  0  0  0  0  0  0  0  0  0  0  0
  151.5399  137.2348  153.7111 H   0  0  0  0  0  0  0  0  0  0  0  0
  153.7176  138.1310  155.0073 H   0  0  0  0  0  0  0  0  0  0  0  0
  152.9229  139.2476  153.8916 H   0  0  0  0  0  0  0  0  0  0  0  0
  1  2  1  0  0  0  0
  1 20  1  0  0  0  0
  1 21  1  0  0  0  0
  1 22  1  0  0  0  0
  2  3  1  0  0  0  0
  2 15  1  0  0  0  0
  2 23  1  0  0  0  0
  3  4  1  0  0  0  0
  3 24  1  0  0  0  0
  4  5  2  0  0  0  0
  4  6  1  0  0  0  0
  6 25  1  0  0  0  0
  6 26  1  0  0  0  0
  6  7  1  0  0  0  0
  7  8  1  0  0  0  0
  7 13  1  0  0  0  0
  8  9  1  0  0  0  0
  9 10  2  0  0  0  0
  9 11  1  0  0  0  0
 11 27  1  0  0  0  0
 11 12  2  0  0  0  0
 12 28  1  0  0  0  0
 12 13  1  0  0  0  0
 13 14  2  0  0  0  0
 15 19  1  0  0  0  0
 15 16  1  0  0  0  0
 15 29  1  0  0  0  0
 16 17  1  0  0  0  0
 16 30  1  0  0  0  0
 16 31  1  0  0  0  0
 17 18  1  0  0  0  0
 17 32  1  0  0  0  0
 17 33  1  0  0  0  0
 18 19  1  0  0  0  0
 18 34  1  0  0  0  0
 18 35  1  0  0  0  0
M  CHG  1   8  -1
M  END
> <s_m_source_file>
AV-unprocessed.smi

> <i_m_source_file_index>
1208

> <i_lp_mmshare_version>
43012

> <i_f3d_flags>
0

> <s_epik_input>
TzFbQ0gyXVtDSDJdW0NIMl1bQ0BIXTFbQ0BIXShbQ0gzXSlbTkhdQyg9TylbQ0gyXW4yW25IXWMoPU8pW2NIXVtjSF1jMj1P

> <s_epik_cmdline>
J2VwaWtfcHl0aG9uJywgJy1waCcsICc3LjAnLCAnLXRuJywgJzgnLCAnLW1hJywgJzIwMCcsICctbWV0YWxfYmluZGluZycsICctaW1hZScsICc8aW5maWxlLm1hZT4nLCAnLW9tYWUnLCAnPG91dGZpbGUubWFlPic=

> <r_lp_tautomer_probability>
1

> <r_epik_Ionization_Penalty>
0.0975494

> <r_epik_Ionization_Penalty_Charging>
0.0975494

> <r_epik_Ionization_Penalty_Neutral>
2.30132e-08

> <r_epik_State_Penalty>
0.034345

> <r_epik_Charging_Adjusted_Penalty>
0.131894

> <i_epik_Tot_Q>
-1

> <i_epik_Tot_abs_Q>
1

> <r_epik_Metal_State_Penalty>
0.034345

> <b_epik_Metal_Only>
0

> <s_lp_Force_Field>
OPLS_2005

> <r_lp_Energy>
31.4648

> <b_lp_Chiralities_Consistent>
1

> <s_lp_Variant>
AV-unprocessed.smi:1208-4

> <Gold.Version>
5.8.1

> <Gold.Id.Protein>
6NUR|6NUR_protein|mol2

> <Gold.PLP.Fitness>
44.8084

> <Gold.PLP.PLP>
-43.0133

> <Gold.PLP.part.hbond>
-1.0000

> <Gold.PLP.part.metal>
0.0000

> <Gold.PLP.part.buried>
-4.8970

> <Gold.PLP.part.nonpolar>
-37.0826

> <Gold.PLP.part.repulsive>
0.3969

> <Gold.PLP.ligand.clash>
0.0000

> <Gold.PLP.ligand.torsion>
0.6120

> <Gold.PLP.Chemscore.Hbond>
1.0000

> <Gold.PLP.Chemscore.CHOScore>
0.0000

> <Gold.PLP.Chemscore.Metal>
0.0000

> <Gold.Chemscore.Hbonds>
donor molecule, donor type, donor heavy atom, donor atom, acceptor molecule, acceptor atom, score
      P1  H  7997  8010       L1    19  0.85

> <Gold.PLP.Chemscore.Internal.Correction>
0.0190

> <Gold.Rescore>
     Score         DG    S(hbond)    S(metal)    S(lipo)     H(rot)  DE(clash)    DE(int)     intcor
      9.34     -12.46       0.83        0.00      79.59       1.99       1.01       2.10       ----

> <Gold.Chemscore.Fitness>
9.3419

> <Gold.Chemscore.DG>
-12.4556

> <Gold.Chemscore.ZeroCoef>
-5.4800

> <Gold.Chemscore.Hbond>
0.8287

> <Gold.Chemscore.Metal>
0.0000

> <Gold.Chemscore.Lipo>
79.5937

> <Gold.Chemscore.Internal_Hbond>
0.0000

> <Gold.Chemscore.DEClash>
1.0139

> <Gold.Chemscore.DEInternal>
2.0998

> <Gold.Chemscore.Rot>
1.9940

> <Gold.Chemscore.Internal.Correction>
   9.000000E+99

> <Gold.Chemscore.Hbonds>
donor molecule, donor type, donor heavy atom, donor atom, acceptor molecule, acceptor atom, score
      P1  H  7997  8010       L1    19  0.16

> <Gold.Chemscore.Hbond.Weighted>
-2.7678

> <Gold.Chemscore.Metal.Weighted>
-0.0000

> <Gold.Chemscore.Lipo.Weighted>
-9.3125

> <Gold.Chemscore.Internal_Hbond.Weighted>
0.0000

> <Gold.Chemscore.DEClash.Weighted>
1.0139

> <Gold.Chemscore.DEInternal.Weighted>
2.0998

> <Gold.Chemscore.Rot.Weighted>
5.1047

> <Gold.Chemscore.Internal.Correction.Weighted>
   9.000000E+99

> <Gold.Protein.RotatedTorsions>
[ 6907 6896 6895 6894 ] final -179.82 input  -60.11 | X-H torsion
[ 7974 7965 7964 7962 ] final  173.91 input  175.53 | X-H torsion
[ 8008 7997 7996 7995 ] final   72.81 input   59.86 | X-H torsion
[ 10167 10162 10161 10158 ] final  113.29 input  -65.29 | X-H torsion
[ 10718 10713 10712 10709 ] final   96.34 input   66.30 | X-H torsion
[ 10763 10752 10751 10750 ] final   19.74 input  -60.55 | X-H torsion
[ 11005 11000 10999 10996 ] final  -63.16 input  -57.11 | X-H torsion

> <Gold.Protein.ActiveResidues>
 VAL166  LYS551  ARG553  GLY616  TRP617  ASP618  TYR619  PRO620  LYS621  CYS622 
 ASP623  PHE694  ASN695  SER759  ASP760  ASP761  ALA762  ILE779  LEU786  VAL792 
 PHE793  MET794  SER795  GLU796  ALA797  LYS798  CYS799  TRP800  GLU811  SER814 

> <Gold.Protein.RotatedAtoms>
  151.6596  133.3317  159.3170 H   0  0  0  0  0  0  0  0  0  0  0  0  # atno 6907 bound_to 6896
  150.7920  134.6955  159.6530 H   0  0  0  0  0  0  0  0  0  0  0  0  # atno 6908 bound_to 6896
  152.4001  134.6304  160.0125 H   0  0  0  0  0  0  0  0  0  0  0  0  # atno 6909 bound_to 6896
  144.7233  139.9718  143.6437 H   0  0  0  0  0  0  0  0  0  0  0  0  # atno 7974 bound_to 7965
  155.7744  140.3483  155.5264 H   0  0  0  0  0  0  0  0  0  0  0  0  # atno 8008 bound_to 7997
  155.8790  140.0999  157.1519 H   0  0  0  0  0  0  0  0  0  0  0  0  # atno 8009 bound_to 7997
  154.4023  140.1326  156.4160 H   0  0  0  0  0  0  0  0  0  0  0  0  # atno 8010 bound_to 7997
  139.6472  144.7127  151.2118 H   0  0  0  0  0  0  0  0  0  0  0  0  # atno 10167 bound_to 10162
  157.6928  131.0575  150.4476 H   0  0  0  0  0  0  0  0  0  0  0  0  # atno 10718 bound_to 10713
  153.1136  135.6702  153.9456 H   0  0  0  0  0  0  0  0  0  0  0  0  # atno 10763 bound_to 10752
  153.8992  135.3038  155.3449 H   0  0  0  0  0  0  0  0  0  0  0  0  # atno 10764 bound_to 10752
  154.7554  135.5014  153.9443 H   0  0  0  0  0  0  0  0  0  0  0  0  # atno 10765 bound_to 10752
  141.1384  133.6648  156.5638 H   0  0  0  0  0  0  0  0  0  0  0  0  # atno 11005 bound_to 11000
  146.0557  139.3554  143.0612 LP  0  0  0  0  0  0  0  0  0  0  0  0  # atno 17320 bound_to 7965
  145.8158  140.9704  143.0925 LP  0  0  0  0  0  0  0  0  0  0  0  0  # atno 17321 bound_to 7965
  140.7520  143.6210  150.8513 LP  0  0  0  0  0  0  0  0  0  0  0  0  # atno 17342 bound_to 10162
  139.9854  143.5905  152.2928 LP  0  0  0  0  0  0  0  0  0  0  0  0  # atno 17343 bound_to 10162
  156.4830  130.4078  149.6451 LP  0  0  0  0  0  0  0  0  0  0  0  0  # atno 17370 bound_to 10713
  156.3489  130.7421  151.2378 LP  0  0  0  0  0  0  0  0  0  0  0  0  # atno 17371 bound_to 10713
  140.3967  134.7392  157.4755 LP  0  0  0  0  0  0  0  0  0  0  0  0  # atno 17394 bound_to 11000
  140.0526  134.6109  155.8843 LP  0  0  0  0  0  0  0  0  0  0  0  0  # atno 17395 bound_to 11000

$$$$
