AV-unprocessed.smi:2693|AV-procd|sdf|10399|dock8
  -GOLD-   2272014433D 1   1.00000     0.00000
 Structure written by MMmdl.
 45 47  0  0  0  0  0  0  0  0  1 V2000
  153.0570  129.9225  156.9720 C   0  0  0  0  0  0  0  0  0  0  0  0
  153.2619  131.2458  156.3901 N   0  0  0  0  0  0  0  0  0  0  0  0
  154.5504  131.8941  156.6183 C   0  0  0  0  0  0  0  0  0  0  0  0
  152.2523  131.8798  155.6595 C   0  0  0  0  0  0  0  0  0  0  0  0
  152.0926  133.1968  155.8428 N   0  0  0  0  0  0  0  0  0  0  0  0
  151.1199  133.8175  155.1422 C   0  0  0  0  0  0  0  0  0  0  0  0
  150.2908  133.1124  154.2367 C   0  0  0  0  0  0  0  0  0  0  0  0
  149.2373  133.6791  153.4692 N   0  0  0  0  0  0  0  0  0  0  0  0
  148.0295  133.1613  153.1876 C   0  0  0  0  0  0  0  0  0  0  0  0
  147.6125  132.0693  153.5711 O   0  0  0  0  0  0  0  0  0  0  0  0
  147.3070  134.0018  152.4356 N   0  0  0  0  0  0  0  0  0  0  0  0
  145.9508  133.7303  151.9696 C   0  0  2  0  0  0  0  0  0  0  0  0
  145.8379  133.7565  150.4374 C   0  0  1  0  0  0  0  0  0  0  0  0
  145.4957  132.4967  149.6892 C   0  0  0  0  0  0  0  0  0  0  0  0
  143.9789  132.6067  149.5102 C   0  0  0  0  0  0  0  0  0  0  0  0
  143.5601  133.5052  150.5351 O   0  0  0  0  0  0  0  0  0  0  0  0
  144.5440  134.5321  150.6328 C   0  0  1  0  0  0  0  0  0  0  0  0
  144.9825  134.9380  152.0557 C   0  0  0  0  0  0  0  0  0  0  0  0
  143.9035  134.8625  153.1371 C   0  0  0  0  0  0  0  0  0  0  0  0
  145.6014  136.3402  152.1456 C   0  0  0  0  0  0  0  0  0  0  0  0
  150.5416  131.7298  154.1294 C   0  0  0  0  0  0  0  0  0  0  0  0
  151.5179  131.1215  154.8350 N   0  0  0  0  0  0  0  0  0  0  0  0
  152.7941  129.2014  156.1972 H   0  0  0  0  0  0  0  0  0  0  0  0
  152.2489  129.9513  157.7039 H   0  0  0  0  0  0  0  0  0  0  0  0
  153.9508  129.5554  157.4763 H   0  0  0  0  0  0  0  0  0  0  0  0
  154.4126  132.8406  157.1420 H   0  0  0  0  0  0  0  0  0  0  0  0
  155.0482  132.0955  155.6691 H   0  0  0  0  0  0  0  0  0  0  0  0
  155.2176  131.2770  157.2198 H   0  0  0  0  0  0  0  0  0  0  0  0
  151.0166  134.8728  155.3367 H   0  0  0  0  0  0  0  0  0  0  0  0
  149.4120  134.6096  153.1187 H   0  0  0  0  0  0  0  0  0  0  0  0
  147.7180  134.8838  152.1667 H   0  0  0  0  0  0  0  0  0  0  0  0
  145.5157  132.8207  152.3903 H   0  0  0  0  0  0  0  0  0  0  0  0
  146.6067  134.3729  149.9675 H   0  0  0  0  0  0  0  0  0  0  0  0
  146.0084  132.4261  148.7296 H   0  0  0  0  0  0  0  0  0  0  0  0
  145.7545  131.6137  150.2745 H   0  0  0  0  0  0  0  0  0  0  0  0
  143.7387  133.0402  148.5381 H   0  0  0  0  0  0  0  0  0  0  0  0
  143.4738  131.6439  149.5888 H   0  0  0  0  0  0  0  0  0  0  0  0
  144.3996  135.3461  149.9210 H   0  0  0  0  0  0  0  0  0  0  0  0
  143.1119  135.5920  152.9638 H   0  0  0  0  0  0  0  0  0  0  0  0
  144.3172  135.0509  154.1283 H   0  0  0  0  0  0  0  0  0  0  0  0
  143.4345  133.8786  153.1693 H   0  0  0  0  0  0  0  0  0  0  0  0
  144.8561  137.1151  151.9641 H   0  0  0  0  0  0  0  0  0  0  0  0
  146.3931  136.4815  151.4093 H   0  0  0  0  0  0  0  0  0  0  0  0
  146.0349  136.5281  153.1284 H   0  0  0  0  0  0  0  0  0  0  0  0
  149.9571  131.1038  153.4711 H   0  0  0  0  0  0  0  0  0  0  0  0
  1  2  1  0  0  0  0
  1 23  1  0  0  0  0
  1 24  1  0  0  0  0
  1 25  1  0  0  0  0
  2  3  1  0  0  0  0
  2  4  1  0  0  0  0
  3 26  1  0  0  0  0
  3 27  1  0  0  0  0
  3 28  1  0  0  0  0
  4 22  1  0  0  0  0
  4  5  2  0  0  0  0
  5  6  1  0  0  0  0
  6  7  2  0  0  0  0
  6 29  1  0  0  0  0
  7  8  1  0  0  0  0
  7 21  1  0  0  0  0
  8  9  1  0  0  0  0
  8 30  1  0  0  0  0
  9 10  2  0  0  0  0
  9 11  1  0  0  0  0
 11 12  1  0  0  0  0
 11 31  1  0  0  0  0
 12 18  1  0  0  0  0
 12 13  1  0  0  0  0
 12 32  1  0  0  0  0
 13 17  1  0  0  0  0
 13 14  1  0  0  0  0
 13 33  1  0  0  0  0
 14 15  1  0  0  0  0
 14 34  1  0  0  0  0
 14 35  1  0  0  0  0
 15 16  1  0  0  0  0
 15 36  1  0  0  0  0
 15 37  1  0  0  0  0
 16 17  1  0  0  0  0
 17 18  1  0  0  0  0
 17 38  1  0  0  0  0
 18 19  1  0  0  0  0
 18 20  1  0  0  0  0
 19 39  1  0  0  0  0
 19 40  1  0  0  0  0
 19 41  1  0  0  0  0
 20 42  1  0  0  0  0
 20 43  1  0  0  0  0
 20 44  1  0  0  0  0
 21 22  2  0  0  0  0
 21 45  1  0  0  0  0
M  END
> <s_m_source_file>
AV-unprocessed.smi

> <i_m_source_file_index>
2693

> <i_lp_mmshare_version>
43012

> <i_f3d_flags>
0

> <s_epik_input>
W0NIM11OKFtDSDNdKWMxbltjSF1jKFtjSF1uMSlbTkhdQyg9TylbTkhdW0NASF0yQyhbQ0gzXSkoW0NIM10pW0NAQEhdKFtDQEhdMjMpT1tDSDJdW0NIMl0z

> <s_epik_cmdline>
J2VwaWtfcHl0aG9uJywgJy1waCcsICc3LjAnLCAnLXRuJywgJzgnLCAnLW1hJywgJzIwMCcsICctbWV0YWxfYmluZGluZycsICctaW1hZScsICc8aW5maWxlLm1hZT4nLCAnLW9tYWUnLCAnPG91dGZpbGUubWFlPic=

> <r_lp_tautomer_probability>
1

> <r_epik_Ionization_Penalty>
0.00031779

> <r_epik_Ionization_Penalty_Charging>
0

> <r_epik_Ionization_Penalty_Neutral>
0.00031779

> <r_epik_State_Penalty>
-0

> <r_epik_Charging_Adjusted_Penalty>
0

> <i_epik_Tot_Q>
0

> <i_epik_Tot_abs_Q>
0

> <r_epik_Metal_State_Penalty>
-0

> <b_epik_Metal_Only>
0

> <s_lp_Force_Field>
OPLS_2005

> <r_lp_Energy>
29.3552

> <b_lp_Chiralities_Consistent>
1

> <s_lp_Variant>
AV-unprocessed.smi:2693-3

> <Gold.Version>
5.8.1

> <Gold.Id.Protein>
6NUR|6NUR_protein|mol2

> <Gold.PLP.Fitness>
37.1055

> <Gold.PLP.PLP>
-34.2047

> <Gold.PLP.part.hbond>
-2.0000

> <Gold.PLP.part.metal>
0.0000

> <Gold.PLP.part.buried>
-4.5792

> <Gold.PLP.part.nonpolar>
-28.0403

> <Gold.PLP.part.repulsive>
1.1436

> <Gold.PLP.ligand.clash>
0.0000

> <Gold.PLP.ligand.torsion>
1.0250

> <Gold.PLP.Chemscore.Hbond>
1.5915

> <Gold.PLP.Chemscore.CHOScore>
0.0000

> <Gold.PLP.Chemscore.Metal>
0.0000

> <Gold.Chemscore.Hbonds>
donor molecule, donor type, donor heavy atom, donor atom, acceptor molecule, acceptor atom, score
      L1  H     8    30       P1  7948  0.19
      L1  H    11    31       P1  7948  1.00

> <Gold.PLP.Chemscore.Internal.Correction>
0.1763

> <Gold.Rescore>
     Score         DG    S(hbond)    S(metal)    S(lipo)     H(rot)  DE(clash)    DE(int)     intcor
     12.76     -14.87       0.90        0.00      76.34       1.00       0.06       2.04       ----

> <Gold.Chemscore.Fitness>
12.7649

> <Gold.Chemscore.DG>
-14.8692

> <Gold.Chemscore.ZeroCoef>
-5.4800

> <Gold.Chemscore.Hbond>
0.9034

> <Gold.Chemscore.Metal>
0.0000

> <Gold.Chemscore.Lipo>
76.3397

> <Gold.Chemscore.Internal_Hbond>
0.0000

> <Gold.Chemscore.DEClash>
0.0601

> <Gold.Chemscore.DEInternal>
2.0442

> <Gold.Chemscore.Rot>
1.0000

> <Gold.Chemscore.Internal.Correction>
   9.000000E+99

> <Gold.Chemscore.Hbonds>
donor molecule, donor type, donor heavy atom, donor atom, acceptor molecule, acceptor atom, score
      L1  H    11    31       P1  7948  0.82

> <Gold.Chemscore.Hbond.Weighted>
-3.0175

> <Gold.Chemscore.Metal.Weighted>
-0.0000

> <Gold.Chemscore.Lipo.Weighted>
-8.9317

> <Gold.Chemscore.Internal_Hbond.Weighted>
0.0000

> <Gold.Chemscore.DEClash.Weighted>
0.0601

> <Gold.Chemscore.DEInternal.Weighted>
2.0442

> <Gold.Chemscore.Rot.Weighted>
2.5600

> <Gold.Chemscore.Internal.Correction.Weighted>
   9.000000E+99

> <Gold.Protein.RotatedTorsions>
[ 6907 6896 6895 6894 ] final  103.50 input  -60.11 | X-H torsion
[ 7974 7965 7964 7962 ] final -138.93 input  175.53 | X-H torsion
[ 8008 7997 7996 7995 ] final  -93.78 input   59.86 | X-H torsion
[ 10167 10162 10161 10158 ] final -131.87 input  -65.29 | X-H torsion
[ 10718 10713 10712 10709 ] final  151.12 input   66.30 | X-H torsion
[ 10763 10752 10751 10750 ] final   60.65 input  -60.55 | X-H torsion
[ 11005 11000 10999 10996 ] final   19.86 input  -57.11 | X-H torsion

> <Gold.Protein.ActiveResidues>
 VAL166  LYS551  ARG553  GLY616  TRP617  ASP618  TYR619  PRO620  LYS621  CYS622 
 ASP623  PHE694  ASN695  SER759  ASP760  ASP761  ALA762  ILE779  LEU786  VAL792 
 PHE793  MET794  SER795  GLU796  ALA797  LYS798  CYS799  TRP800  GLU811  SER814 

> <Gold.Protein.RotatedAtoms>
  152.5293  133.9816  159.7808 H   0  0  0  0  0  0  0  0  0  0  0  0  # atno 6907 bound_to 6896
  151.0069  133.5994  159.2695 H   0  0  0  0  0  0  0  0  0  0  0  0  # atno 6908 bound_to 6896
  151.3083  135.0794  159.9316 H   0  0  0  0  0  0  0  0  0  0  0  0  # atno 6909 bound_to 6896
  144.8718  140.6378  143.5262 H   0  0  0  0  0  0  0  0  0  0  0  0  # atno 7974 bound_to 7965
  154.7400  140.0495  157.0803 H   0  0  0  0  0  0  0  0  0  0  0  0  # atno 8008 bound_to 7997
  155.0190  140.3145  155.4781 H   0  0  0  0  0  0  0  0  0  0  0  0  # atno 8009 bound_to 7997
  156.2862  140.2170  156.5307 H   0  0  0  0  0  0  0  0  0  0  0  0  # atno 8010 bound_to 7997
  139.9145  143.6455  152.2568 H   0  0  0  0  0  0  0  0  0  0  0  0  # atno 10167 bound_to 10162
  157.2747  131.0824  151.1574 H   0  0  0  0  0  0  0  0  0  0  0  0  # atno 10718 bound_to 10713
  152.9927  135.5529  154.5908 H   0  0  0  0  0  0  0  0  0  0  0  0  # atno 10763 bound_to 10752
  154.5270  135.2811  155.1216 H   0  0  0  0  0  0  0  0  0  0  0  0  # atno 10764 bound_to 10752
  154.2546  135.6392  153.5305 H   0  0  0  0  0  0  0  0  0  0  0  0  # atno 10765 bound_to 10752
  140.4090  134.1638  155.7666 H   0  0  0  0  0  0  0  0  0  0  0  0  # atno 11005 bound_to 11000
  145.4116  139.1579  143.4123 LP  0  0  0  0  0  0  0  0  0  0  0  0  # atno 17320 bound_to 7965
  146.2935  140.4220  142.8730 LP  0  0  0  0  0  0  0  0  0  0  0  0  # atno 17321 bound_to 7965
  139.6914  144.7646  151.1432 LP  0  0  0  0  0  0  0  0  0  0  0  0  # atno 17342 bound_to 10162
  140.7677  143.5584  150.9127 LP  0  0  0  0  0  0  0  0  0  0  0  0  # atno 17343 bound_to 10162
  157.3032  130.6853  149.6175 LP  0  0  0  0  0  0  0  0  0  0  0  0  # atno 17370 bound_to 10713
  155.9663  130.4386  150.5222 LP  0  0  0  0  0  0  0  0  0  0  0  0  # atno 17371 bound_to 10713
  141.1828  133.8377  157.1196 LP  0  0  0  0  0  0  0  0  0  0  0  0  # atno 17394 bound_to 11000
  140.0281  134.9914  157.0726 LP  0  0  0  0  0  0  0  0  0  0  0  0  # atno 17395 bound_to 11000

$$$$
