AV-unprocessed.smi:1758|AV-procd|sdf|7079|dock2
  -GOLD-   22720 8303D 1   1.00000     0.00000
 Structure written by MMmdl.
 44 46  0  0  0  0  0  0  0  0  2 V2000
  151.8529  140.0764  158.4154 C   0  0  0  0  0  0  0  0  0  0  0  0
  152.8891  139.1691  157.7402 C   0  0  0  0  0  0  0  0  0  0  0  0
  152.3914  138.6077  156.4989 N   0  0  0  0  0  0  0  0  0  0  0  0
  151.4189  137.6425  156.3266 C   0  0  0  0  0  0  0  0  0  0  0  0
  151.3048  137.4656  154.9804 C   0  0  0  0  0  0  0  0  0  0  0  0
  150.4110  136.5601  154.3559 N   0  0  0  0  0  0  0  0  0  0  0  0
  150.0548  135.3411  154.7913 C   0  0  0  0  0  0  0  0  0  0  0  0
  150.4406  134.8222  155.8385 O   0  0  0  0  0  0  0  0  0  0  0  0
  149.2134  134.7441  153.9354 N   0  0  0  0  0  0  0  0  0  0  0  0
  148.6572  133.4040  154.0993 C   0  0  2  0  0  0  0  0  0  0  0  0
  149.7141  132.3539  154.4202 C   0  0  0  0  0  0  0  0  0  0  0  0
  148.9972  131.0527  154.0568 C   0  0  0  0  0  0  0  0  0  0  0  0
  148.1175  131.3782  152.9107 N   0  3  1  0  0  0  0  0  0  0  0  0
  146.8279  130.6451  152.8969 C   0  0  0  0  0  0  0  0  0  0  0  0
  145.9934  131.0322  151.6619 C   0  0  0  0  0  0  0  0  0  0  0  0
  145.8721  132.5582  151.4669 C   0  0  0  0  0  0  0  0  0  0  0  0
  146.5623  133.3489  152.5889 C   0  0  0  0  0  0  0  0  0  0  0  0
  148.0125  132.8624  152.8119 C   0  0  1  0  0  0  0  0  0  0  0  0
  152.2421  138.3601  154.3900 C   0  0  0  0  0  0  0  0  0  0  0  0
  152.8909  139.0479  155.3174 N   0  0  0  0  0  0  0  0  0  0  0  0
  152.2499  140.4982  159.3389 H   0  0  0  0  0  0  0  0  0  0  0  0
  150.9465  139.5244  158.6661 H   0  0  0  0  0  0  0  0  0  0  0  0
  151.5721  140.9044  157.7640 H   0  0  0  0  0  0  0  0  0  0  0  0
  153.7990  139.7323  157.5293 H   0  0  0  0  0  0  0  0  0  0  0  0
  153.1692  138.3513  158.4054 H   0  0  0  0  0  0  0  0  0  0  0  0
  150.9060  137.1798  157.1570 H   0  0  0  0  0  0  0  0  0  0  0  0
  150.0168  136.8657  153.4781 H   0  0  0  0  0  0  0  0  0  0  0  0
  148.9513  135.2479  153.1004 H   0  0  0  0  0  0  0  0  0  0  0  0
  147.9253  133.3957  154.9103 H   0  0  0  0  0  0  0  0  0  0  0  0
  150.5916  132.4865  153.7851 H   0  0  0  0  0  0  0  0  0  0  0  0
  150.0399  132.3811  155.4605 H   0  0  0  0  0  0  0  0  0  0  0  0
  149.6909  130.2483  153.8105 H   0  0  0  0  0  0  0  0  0  0  0  0
  148.3962  130.7259  154.9072 H   0  0  0  0  0  0  0  0  0  0  0  0
  147.0197  129.5716  152.8961 H   0  0  0  0  0  0  0  0  0  0  0  0
  146.2710  130.8636  153.8096 H   0  0  0  0  0  0  0  0  0  0  0  0
  146.4449  130.5950  150.7702 H   0  0  0  0  0  0  0  0  0  0  0  0
  145.0006  130.5882  151.7429 H   0  0  0  0  0  0  0  0  0  0  0  0
  146.3200  132.8327  150.5109 H   0  0  0  0  0  0  0  0  0  0  0  0
  144.8224  132.8471  151.4013 H   0  0  0  0  0  0  0  0  0  0  0  0
  146.5550  134.4126  152.3491 H   0  0  0  0  0  0  0  0  0  0  0  0
  145.9856  133.2445  153.5091 H   0  0  0  0  0  0  0  0  0  0  0  0
  148.6207  133.1501  151.9527 H   0  0  0  0  0  0  0  0  0  0  0  0
  152.4737  138.5385  153.3504 H   0  0  0  0  0  0  0  0  0  0  0  0
  148.6122  131.0896  152.0787 H   0  0  0  0  0  0  0  0  0  0  0  0
  1  2  1  0  0  0  0
  1 21  1  0  0  0  0
  1 22  1  0  0  0  0
  1 23  1  0  0  0  0
  2  3  1  0  0  0  0
  2 24  1  0  0  0  0
  2 25  1  0  0  0  0
  3 20  1  0  0  0  0
  3  4  1  0  0  0  0
  4  5  2  0  0  0  0
  4 26  1  0  0  0  0
  5  6  1  0  0  0  0
  5 19  1  0  0  0  0
  6  7  1  0  0  0  0
  6 27  1  0  0  0  0
  7  8  2  0  0  0  0
  7  9  1  0  0  0  0
  9 10  1  0  0  0  0
  9 28  1  0  0  0  0
 10 18  1  0  0  0  0
 10 11  1  0  0  0  0
 10 29  1  0  0  0  0
 11 12  1  0  0  0  0
 11 30  1  0  0  0  0
 11 31  1  0  0  0  0
 12 13  1  0  0  0  0
 12 32  1  0  0  0  0
 12 33  1  0  0  0  0
 13 18  1  0  0  0  0
 13 14  1  0  0  0  0
 13 44  1  0  0  0  0
 14 15  1  0  0  0  0
 14 34  1  0  0  0  0
 14 35  1  0  0  0  0
 15 16  1  0  0  0  0
 15 36  1  0  0  0  0
 15 37  1  0  0  0  0
 16 17  1  0  0  0  0
 16 38  1  0  0  0  0
 16 39  1  0  0  0  0
 17 18  1  0  0  0  0
 17 40  1  0  0  0  0
 17 41  1  0  0  0  0
 18 42  1  0  0  0  0
 19 20  2  0  0  0  0
 19 43  1  0  0  0  0
M  CHG  1  13   1
M  END
> <s_m_source_file>
AV-unprocessed.smi

> <i_m_source_file_index>
1758

> <i_lp_mmshare_version>
43012

> <i_f3d_flags>
0

> <s_epik_input>
W0NIM11bQ0gyXW4xW2NIXWMoW2NIXW4xKVtOSF1DKD1PKVtOSF1bQ0BIXShbQ0gyXVtDSDJdMilbQ0BASF0oTjIzKVtDSDJdW0NIMl1bQ0gyXVtDSDJdMw==

> <s_epik_cmdline>
J2VwaWtfcHl0aG9uJywgJy1waCcsICc3LjAnLCAnLXRuJywgJzgnLCAnLW1hJywgJzIwMCcsICctbWV0YWxfYmluZGluZycsICctaW1hZScsICc8aW5maWxlLm1hZT4nLCAnLW9tYWUnLCAnPG91dGZpbGUubWFlPic=

> <r_lp_tautomer_probability>
1

> <r_epik_Ionization_Penalty>
0.00111541

> <r_epik_Ionization_Penalty_Charging>
0.000974069

> <r_epik_Ionization_Penalty_Neutral>
0.000141346

> <r_epik_State_Penalty>
0.000633842

> <r_epik_Charging_Adjusted_Penalty>
0.00160791

> <i_epik_Tot_Q>
1

> <i_epik_Tot_abs_Q>
1

> <r_epik_Metal_State_Penalty>
-0

> <b_epik_Metal_Only>
0

> <s_lp_Force_Field>
OPLS_2005

> <r_lp_Energy>
44.0828

> <b_lp_Chiralities_Consistent>
1

> <s_lp_Variant>
AV-unprocessed.smi:1758-1

> <Gold.Version>
5.8.1

> <Gold.Id.Protein>
6NUR|6NUR_protein|mol2

> <Gold.PLP.Fitness>
45.2617

> <Gold.PLP.PLP>
-34.6246

> <Gold.PLP.part.hbond>
-4.8148

> <Gold.PLP.part.metal>
0.0000

> <Gold.PLP.part.buried>
-3.6844

> <Gold.PLP.part.nonpolar>
-27.0959

> <Gold.PLP.part.repulsive>
0.1246

> <Gold.PLP.ligand.clash>
0.0000

> <Gold.PLP.ligand.torsion>
0.5162

> <Gold.PLP.Chemscore.Hbond>
3.8873

> <Gold.PLP.Chemscore.CHOScore>
0.0000

> <Gold.PLP.Chemscore.Metal>
0.0000

> <Gold.Chemscore.Hbonds>
donor molecule, donor type, donor heavy atom, donor atom, acceptor molecule, acceptor atom, score
      L1  H     6    27       P1  7948  0.82
      L1  H     9    28       P1  7948  1.00
      L1  H    13    44       P1 10747  1.00
      P1  H  7997  8009       L1    20  0.80

> <Gold.PLP.Chemscore.Internal.Correction>
0.0077

> <Gold.Rescore>
     Score         DG    S(hbond)    S(metal)    S(lipo)     H(rot)  DE(clash)    DE(int)     intcor
     18.73     -21.02       2.89        0.00      76.36       1.19       0.30       1.98       ----

> <Gold.Chemscore.Fitness>
18.7300

> <Gold.Chemscore.DG>
-21.0162

> <Gold.Chemscore.ZeroCoef>
-5.4800

> <Gold.Chemscore.Hbond>
2.8874

> <Gold.Chemscore.Metal>
0.0000

> <Gold.Chemscore.Lipo>
76.3650

> <Gold.Chemscore.Internal_Hbond>
0.0000

> <Gold.Chemscore.DEClash>
0.3036

> <Gold.Chemscore.DEInternal>
1.9826

> <Gold.Chemscore.Rot>
1.1884

> <Gold.Chemscore.Internal.Correction>
   9.000000E+99

> <Gold.Chemscore.Hbonds>
donor molecule, donor type, donor heavy atom, donor atom, acceptor molecule, acceptor atom, score
      L1  H     6    27       P1  7948  0.18
      L1  H     9    28       P1  7948  0.37
      L1  H    13    44       P1 10747  0.94
      P1  H  7997  8009       L1    20  0.11

> <Gold.Chemscore.Hbond.Weighted>
-9.6438

> <Gold.Chemscore.Metal.Weighted>
-0.0000

> <Gold.Chemscore.Lipo.Weighted>
-8.9347

> <Gold.Chemscore.Internal_Hbond.Weighted>
0.0000

> <Gold.Chemscore.DEClash.Weighted>
0.3036

> <Gold.Chemscore.DEInternal.Weighted>
1.9826

> <Gold.Chemscore.Rot.Weighted>
3.0423

> <Gold.Chemscore.Internal.Correction.Weighted>
   9.000000E+99

> <Gold.Protein.RotatedTorsions>
[ 6907 6896 6895 6894 ] final  -83.99 input  -60.11 | X-H torsion
[ 7974 7965 7964 7962 ] final -165.48 input  175.53 | X-H torsion
[ 8008 7997 7996 7995 ] final -149.39 input   59.86 | X-H torsion
[ 10167 10162 10161 10158 ] final   65.70 input  -65.29 | X-H torsion
[ 10718 10713 10712 10709 ] final  154.69 input   66.30 | X-H torsion
[ 10763 10752 10751 10750 ] final  -40.88 input  -60.55 | X-H torsion
[ 11005 11000 10999 10996 ] final  -86.69 input  -57.11 | X-H torsion

> <Gold.Protein.ActiveResidues>
 VAL166  LYS551  ARG553  GLY616  TRP617  ASP618  TYR619  PRO620  LYS621  CYS622 
 ASP623  PHE694  ASN695  SER759  ASP760  ASP761  ALA762  ILE779  LEU786  VAL792 
 PHE793  MET794  SER795  GLU796  ALA797  LYS798  CYS799  TRP800  GLU811  SER814 

> <Gold.Protein.RotatedAtoms>
  150.6880  134.3428  159.4874 H   0  0  0  0  0  0  0  0  0  0  0  0  # atno 6907 bound_to 6896
  152.1279  134.9154  160.0569 H   0  0  0  0  0  0  0  0  0  0  0  0  # atno 6908 bound_to 6896
  152.0335  133.3913  159.4344 H   0  0  0  0  0  0  0  0  0  0  0  0  # atno 6909 bound_to 6896
  144.7269  140.2808  143.6236 H   0  0  0  0  0  0  0  0  0  0  0  0  # atno 7974 bound_to 7965
  155.6069  140.0668  157.2717 H   0  0  0  0  0  0  0  0  0  0  0  0  # atno 8008 bound_to 7997
  154.4264  140.1808  156.1279 H   0  0  0  0  0  0  0  0  0  0  0  0  # atno 8009 bound_to 7997
  156.0115  140.3326  155.6949 H   0  0  0  0  0  0  0  0  0  0  0  0  # atno 8010 bound_to 7997
  140.1084  144.4840  150.6993 H   0  0  0  0  0  0  0  0  0  0  0  0  # atno 10167 bound_to 10162
  157.2283  131.0733  151.1869 H   0  0  0  0  0  0  0  0  0  0  0  0  # atno 10718 bound_to 10713
  153.9532  135.6748  153.4744 H   0  0  0  0  0  0  0  0  0  0  0  0  # atno 10763 bound_to 10752
  153.0874  135.4892  154.8620 H   0  0  0  0  0  0  0  0  0  0  0  0  # atno 10764 bound_to 10752
  154.7314  135.3139  154.8845 H   0  0  0  0  0  0  0  0  0  0  0  0  # atno 10765 bound_to 10752
  141.1627  133.7469  156.9198 H   0  0  0  0  0  0  0  0  0  0  0  0  # atno 11005 bound_to 11000
  145.7951  139.1942  143.2080 LP  0  0  0  0  0  0  0  0  0  0  0  0  # atno 17320 bound_to 7965
  146.0723  140.7855  142.9682 LP  0  0  0  0  0  0  0  0  0  0  0  0  # atno 17321 bound_to 7965
  140.6939  143.2392  151.5055 LP  0  0  0  0  0  0  0  0  0  0  0  0  # atno 17342 bound_to 10162
  139.5632  144.2105  152.1725 LP  0  0  0  0  0  0  0  0  0  0  0  0  # atno 17343 bound_to 10162
  157.3504  130.7079  149.6437 LP  0  0  0  0  0  0  0  0  0  0  0  0  # atno 17370 bound_to 10713
  155.9677  130.4254  150.4652 LP  0  0  0  0  0  0  0  0  0  0  0  0  # atno 17371 bound_to 10713
  140.1459  134.9262  157.2529 LP  0  0  0  0  0  0  0  0  0  0  0  0  # atno 17394 bound_to 11000
  140.2780  134.3383  155.7352 LP  0  0  0  0  0  0  0  0  0  0  0  0  # atno 17395 bound_to 11000

$$$$
