AV-unprocessed.smi:1631|AV-procd|sdf|6526|dock9
  -GOLD-   22720 7203D 1   1.00000     0.00000
 Structure written by MMmdl.
 38 39  0  0  0  0  0  0  0  0  1 V2000
  148.7862  141.7506  156.9025 C   0  0  0  0  0  0  0  0  0  0  0  0
  149.9900  140.8468  156.8362 C   0  0  0  0  0  0  0  0  0  0  0  0
  150.8001  140.9328  157.8395 N   0  0  0  0  0  0  0  0  0  0  0  0
  151.9411  140.1602  157.9168 N   0  0  0  0  0  0  0  0  0  0  0  0
  152.7310  140.3871  159.1345 C   0  0  0  0  0  0  0  0  0  0  0  0
  153.3744  141.7928  159.1654 C   0  0  2  0  0  0  0  0  0  0  0  0
  154.7491  141.6619  158.8580 O   0  0  0  0  0  0  0  0  0  0  0  0
  153.1829  142.4579  160.5287 C   0  0  0  0  0  0  0  0  0  0  0  0
  153.7355  141.8172  161.6623 C   0  0  0  0  0  0  0  0  0  0  0  0
  153.5919  142.3673  162.9478 C   0  0  0  0  0  0  0  0  0  0  0  0
  152.8903  143.5719  163.1157 C   0  0  0  0  0  0  0  0  0  0  0  0
  152.3367  144.2221  161.9983 C   0  0  0  0  0  0  0  0  0  0  0  0
  152.4728  143.6816  160.6971 C   0  0  0  0  0  0  0  0  0  0  0  0
  151.8575  144.4331  159.5159 C   0  0  0  0  0  0  0  0  0  0  0  0
  151.3385  145.6041  159.8876 F   0  0  0  0  0  0  0  0  0  0  0  0
  152.7885  144.6803  158.5940 F   0  0  0  0  0  0  0  0  0  0  0  0
  150.8759  143.7140  158.9733 F   0  0  0  0  0  0  0  0  0  0  0  0
  152.3306  139.2567  156.9734 C   0  0  0  0  0  0  0  0  0  0  0  0
  153.3598  138.5891  157.0796 O   0  0  0  0  0  0  0  0  0  0  0  0
  151.4114  139.1612  155.8376 C   0  0  0  0  0  0  0  0  0  0  0  0
  151.7828  138.2209  154.8297 C   0  0  0  0  0  0  0  0  0  0  0  0
  152.0891  137.4451  154.0268 N   0  0  0  0  0  0  0  0  0  0  0  0
  150.2851  139.9133  155.7497 C   0  0  0  0  0  0  0  0  0  0  0  0
  149.3072  139.8409  154.5848 C   0  0  0  0  0  0  0  0  0  0  0  0
  148.1390  141.6632  156.0319 H   0  0  0  0  0  0  0  0  0  0  0  0
  149.0927  142.7947  156.9747 H   0  0  0  0  0  0  0  0  0  0  0  0
  148.1817  141.5204  157.7805 H   0  0  0  0  0  0  0  0  0  0  0  0
  152.0793  140.2676  160.0024 H   0  0  0  0  0  0  0  0  0  0  0  0
  153.4925  139.6130  159.2485 H   0  0  0  0  0  0  0  0  0  0  0  0
  152.9413  142.4004  158.3758 H   0  0  0  0  0  0  0  0  0  0  0  0
  155.0318  142.4475  158.4153 H   0  0  0  0  0  0  0  0  0  0  0  0
  154.2777  140.8899  161.5484 H   0  0  0  0  0  0  0  0  0  0  0  0
  154.0193  141.8655  163.8034 H   0  0  0  0  0  0  0  0  0  0  0  0
  152.7769  143.9986  164.1013 H   0  0  0  0  0  0  0  0  0  0  0  0
  151.8040  145.1474  162.1583 H   0  0  0  0  0  0  0  0  0  0  0  0
  149.6179  139.1232  153.8264 H   0  0  0  0  0  0  0  0  0  0  0  0
  149.2212  140.8121  154.0962 H   0  0  0  0  0  0  0  0  0  0  0  0
  148.3192  139.5388  154.9341 H   0  0  0  0  0  0  0  0  0  0  0  0
  1  2  1  0  0  0  0
  1 25  1  0  0  0  0
  1 26  1  0  0  0  0
  1 27  1  0  0  0  0
  2 23  1  0  0  0  0
  2  3  2  0  0  0  0
  3  4  1  0  0  0  0
  4  5  1  0  0  0  0
  4 18  1  0  0  0  0
  5  6  1  0  0  0  0
  5 28  1  0  0  0  0
  5 29  1  0  0  0  0
  6  7  1  0  0  0  0
  6  8  1  0  0  0  0
  6 30  1  0  0  0  0
  7 31  1  0  0  0  0
  8 13  1  0  0  0  0
  8  9  2  0  0  0  0
  9 10  1  0  0  0  0
  9 32  1  0  0  0  0
 10 11  2  0  0  0  0
 10 33  1  0  0  0  0
 11 12  1  0  0  0  0
 11 34  1  0  0  0  0
 12 13  2  0  0  0  0
 12 35  1  0  0  0  0
 13 14  1  0  0  0  0
 14 15  1  0  0  0  0
 14 16  1  0  0  0  0
 14 17  1  0  0  0  0
 18 19  2  0  0  0  0
 18 20  1  0  0  0  0
 20 21  1  0  0  0  0
 20 23  2  0  0  0  0
 21 22  3  0  0  0  0
 23 24  1  0  0  0  0
 24 36  1  0  0  0  0
 24 37  1  0  0  0  0
 24 38  1  0  0  0  0
M  END
> <s_m_source_file>
AV-unprocessed.smi

> <i_m_source_file_index>
1631

> <i_lp_mmshare_version>
43012

> <i_f3d_flags>
0

> <s_epik_input>
TiNDYyhjMVtDSDNdKWMoPU8pbihuYzFbQ0gzXSlbQ0gyXVtDQEhdKFtPSF0pYzJbY0hdW2NIXVtjSF1bY0hdYzJDKEYpKEYpRg==

> <s_epik_cmdline>
J2VwaWtfcHl0aG9uJywgJy1waCcsICc3LjAnLCAnLXRuJywgJzgnLCAnLW1hJywgJzIwMCcsICctbWV0YWxfYmluZGluZycsICctaW1hZScsICc8aW5maWxlLm1hZT4nLCAnLW9tYWUnLCAnPG91dGZpbGUubWFlPic=

> <r_lp_tautomer_probability>
1

> <r_epik_Ionization_Penalty>
7.1854e-08

> <r_epik_Ionization_Penalty_Charging>
1.40848e-10

> <r_epik_Ionization_Penalty_Neutral>
7.17131e-08

> <r_epik_State_Penalty>
-0

> <r_epik_Charging_Adjusted_Penalty>
1.40848e-10

> <i_epik_Tot_Q>
0

> <i_epik_Tot_abs_Q>
0

> <r_epik_Metal_State_Penalty>
-0

> <b_epik_Metal_Only>
0

> <s_lp_Force_Field>
OPLS_2005

> <r_lp_Energy>
30.0509

> <b_lp_Chiralities_Consistent>
1

> <s_lp_Variant>
AV-unprocessed.smi:1631-1

> <Gold.Version>
5.8.1

> <Gold.Id.Protein>
6NUR|6NUR_protein|mol2

> <Gold.PLP.Fitness>
55.2791

> <Gold.PLP.PLP>
-51.9185

> <Gold.PLP.part.hbond>
-3.0000

> <Gold.PLP.part.metal>
0.0000

> <Gold.PLP.part.buried>
3.3248

> <Gold.PLP.part.nonpolar>
-51.6011

> <Gold.PLP.part.repulsive>
0.3894

> <Gold.PLP.ligand.clash>
1.3312

> <Gold.PLP.ligand.torsion>
0.7721

> <Gold.PLP.Chemscore.Hbond>
1.6032

> <Gold.PLP.Chemscore.CHOScore>
0.0000

> <Gold.PLP.Chemscore.Metal>
0.0000

> <Gold.Chemscore.Hbonds>
donor molecule, donor type, donor heavy atom, donor atom, acceptor molecule, acceptor atom, score
      P1  H  7997  8008       L1    19  0.80
      P1  H 10752 10763       L1    22  0.90

> <Gold.PLP.Chemscore.Internal.Correction>
1.4263

> <Gold.Rescore>
     Score         DG    S(hbond)    S(metal)    S(lipo)     H(rot)  DE(clash)    DE(int)     intcor
     13.62     -18.06       0.96        0.00     126.45       2.11       2.49       1.96       ----

> <Gold.Chemscore.Fitness>
13.6173

> <Gold.Chemscore.DG>
-18.0649

> <Gold.Chemscore.ZeroCoef>
-5.4800

> <Gold.Chemscore.Hbond>
0.9576

> <Gold.Chemscore.Metal>
0.0000

> <Gold.Chemscore.Lipo>
126.4473

> <Gold.Chemscore.Internal_Hbond>
0.0000

> <Gold.Chemscore.DEClash>
2.4898

> <Gold.Chemscore.DEInternal>
1.9577

> <Gold.Chemscore.Rot>
2.1124

> <Gold.Chemscore.Internal.Correction>
   9.000000E+99

> <Gold.Chemscore.Hbonds>
donor molecule, donor type, donor heavy atom, donor atom, acceptor molecule, acceptor atom, score
      P1  H  7997  8008       L1    19  0.13
      P1  H 10752 10763       L1    22  0.87

> <Gold.Chemscore.Hbond.Weighted>
-3.1983

> <Gold.Chemscore.Metal.Weighted>
-0.0000

> <Gold.Chemscore.Lipo.Weighted>
-14.7943

> <Gold.Chemscore.Internal_Hbond.Weighted>
0.0000

> <Gold.Chemscore.DEClash.Weighted>
2.4898

> <Gold.Chemscore.DEInternal.Weighted>
1.9577

> <Gold.Chemscore.Rot.Weighted>
5.4078

> <Gold.Chemscore.Internal.Correction.Weighted>
   9.000000E+99

> <Gold.Protein.RotatedTorsions>
[ 6907 6896 6895 6894 ] final -175.56 input  -60.11 | X-H torsion
[ 7974 7965 7964 7962 ] final    8.07 input  175.53 | X-H torsion
[ 8008 7997 7996 7995 ] final  -83.52 input   59.86 | X-H torsion
[ 10167 10162 10161 10158 ] final -138.96 input  -65.29 | X-H torsion
[ 10718 10713 10712 10709 ] final -115.80 input   66.30 | X-H torsion
[ 10763 10752 10751 10750 ] final   24.57 input  -60.55 | X-H torsion
[ 11005 11000 10999 10996 ] final  -30.97 input  -57.11 | X-H torsion

> <Gold.Protein.ActiveResidues>
 VAL166  LYS551  ARG553  GLY616  TRP617  ASP618  TYR619  PRO620  LYS621  CYS622 
 ASP623  PHE694  ASN695  SER759  ASP760  ASP761  ALA762  ILE779  LEU786  VAL792 
 PHE793  MET794  SER795  GLU796  ALA797  LYS798  CYS799  TRP800  GLU811  SER814 

> <Gold.Protein.RotatedAtoms>
  151.5905  133.3367  159.3026 H   0  0  0  0  0  0  0  0  0  0  0  0  # atno 6907 bound_to 6896
  150.8263  134.7498  159.6826 H   0  0  0  0  0  0  0  0  0  0  0  0  # atno 6908 bound_to 6896
  152.4351  134.5707  159.9972 H   0  0  0  0  0  0  0  0  0  0  0  0  # atno 6909 bound_to 6896
  146.2420  139.9989  142.8418 H   0  0  0  0  0  0  0  0  0  0  0  0  # atno 7974 bound_to 7965
  154.6200  140.0618  156.9602 H   0  0  0  0  0  0  0  0  0  0  0  0  # atno 8008 bound_to 7997
  155.1834  140.3301  155.4353 H   0  0  0  0  0  0  0  0  0  0  0  0  # atno 8009 bound_to 7997
  156.2426  140.1893  156.6929 H   0  0  0  0  0  0  0  0  0  0  0  0  # atno 8010 bound_to 7997
  139.8427  143.7301  152.2662 H   0  0  0  0  0  0  0  0  0  0  0  0  # atno 10167 bound_to 10162
  156.0920  130.6101  150.8953 H   0  0  0  0  0  0  0  0  0  0  0  0  # atno 10718 bound_to 10713
  153.0754  135.6602  154.0157 H   0  0  0  0  0  0  0  0  0  0  0  0  # atno 10763 bound_to 10752
  153.9792  135.2957  155.3423 H   0  0  0  0  0  0  0  0  0  0  0  0  # atno 10764 bound_to 10752
  154.7141  135.5193  153.8781 H   0  0  0  0  0  0  0  0  0  0  0  0  # atno 10765 bound_to 10752
  140.9428  133.7268  156.1102 H   0  0  0  0  0  0  0  0  0  0  0  0  # atno 11005 bound_to 11000
  145.1434  140.9584  143.4475 LP  0  0  0  0  0  0  0  0  0  0  0  0  # atno 17320 bound_to 7965
  145.0274  139.3371  143.6042 LP  0  0  0  0  0  0  0  0  0  0  0  0  # atno 17321 bound_to 7965
  139.7543  144.7525  151.0459 LP  0  0  0  0  0  0  0  0  0  0  0  0  # atno 17342 bound_to 10162
  140.7796  143.4823  151.0001 LP  0  0  0  0  0  0  0  0  0  0  0  0  # atno 17343 bound_to 10162
  157.6072  131.0938  150.8859 LP  0  0  0  0  0  0  0  0  0  0  0  0  # atno 17370 bound_to 10713
  156.9005  130.5245  149.5283 LP  0  0  0  0  0  0  0  0  0  0  0  0  # atno 17371 bound_to 10713
  140.7710  134.3832  157.5507 LP  0  0  0  0  0  0  0  0  0  0  0  0  # atno 17394 bound_to 11000
  139.8825  134.9022  156.2827 LP  0  0  0  0  0  0  0  0  0  0  0  0  # atno 17395 bound_to 11000

$$$$
