AV-unprocessed.smi:2424|AV-procd|sdf|9572|dock9
  -GOLD-   2272013203D 1   1.00000     0.00000
 Structure written by MMmdl.
 49 50  0  0  0  0  0  0  0  0  2 V2000
  143.7795  135.9967  152.9853 C   0  0  0  0  0  0  0  0  0  0  0  0
  143.8086  134.5331  152.5119 C   0  0  0  0  0  0  0  0  0  0  0  0
  145.1786  133.9662  152.0656 C   0  0  0  0  0  0  0  0  0  0  0  0
  145.7494  134.9477  151.0016 C   0  0  0  0  0  0  0  0  0  0  0  0
  144.7746  135.4094  149.9014 C   0  0  0  0  0  0  0  0  0  0  0  0
  146.1708  133.5471  153.1936 C   0  0  2  0  0  0  0  0  0  0  0  0
  147.2563  134.4897  153.4437 N   0  0  0  0  0  0  0  0  0  0  0  0
  147.9377  134.5734  154.5938 C   0  0  0  0  0  0  0  0  0  0  0  0
  147.7159  133.8462  155.5616 O   0  0  0  0  0  0  0  0  0  0  0  0
  148.8645  135.5454  154.5297 N   0  0  0  0  0  0  0  0  0  0  0  0
  149.7736  135.9561  155.5132 C   0  0  0  0  0  0  0  0  0  0  0  0
  149.6712  135.4700  156.8008 C   0  0  0  0  0  0  0  0  0  0  0  0
  150.4426  135.7454  157.8746 N   0  5  0  0  0  0  0  0  0  0  0  0
  151.4780  136.6188  157.7149 C   0  0  0  0  0  0  0  0  0  0  0  0
  152.2220  136.9185  158.6479 O   0  0  0  0  0  0  0  0  0  0  0  0
  151.7067  137.2165  156.3838 C   0  0  0  0  0  0  0  0  0  0  0  0
  152.8625  138.1871  156.2088 C   0  0  0  0  0  0  0  0  0  0  0  0
  150.8881  136.8899  155.3523 C   0  0  0  0  0  0  0  0  0  0  0  0
  146.6158  132.3512  152.3456 C   0  0  1  0  0  0  0  0  0  0  0  0
  147.0417  131.0723  153.0552 C   0  0  0  0  0  0  0  0  0  0  0  0
  145.2193  132.4519  151.7105 C   0  0  2  0  0  0  0  0  0  0  0  0
  145.1869  132.1921  150.3158 O   0  0  0  0  0  0  0  0  0  0  0  0
  143.9219  132.4323  149.7252 C   0  0  0  0  0  0  0  0  0  0  0  0
  142.7876  136.2519  153.3586 H   0  0  0  0  0  0  0  0  0  0  0  0
  143.9963  136.6890  152.1719 H   0  0  0  0  0  0  0  0  0  0  0  0
  144.4851  136.1838  153.7936 H   0  0  0  0  0  0  0  0  0  0  0  0
  143.4180  133.9276  153.3300 H   0  0  0  0  0  0  0  0  0  0  0  0
  143.0844  134.4388  151.7015 H   0  0  0  0  0  0  0  0  0  0  0  0
  146.1346  135.8414  151.4935 H   0  0  0  0  0  0  0  0  0  0  0  0
  146.6140  134.5065  150.5062 H   0  0  0  0  0  0  0  0  0  0  0  0
  145.2980  136.0252  149.1699 H   0  0  0  0  0  0  0  0  0  0  0  0
  143.9651  136.0178  150.3037 H   0  0  0  0  0  0  0  0  0  0  0  0
  144.3301  134.5758  149.3606 H   0  0  0  0  0  0  0  0  0  0  0  0
  145.6907  133.1948  154.1076 H   0  0  0  0  0  0  0  0  0  0  0  0
  147.4982  135.1232  152.6959 H   0  0  0  0  0  0  0  0  0  0  0  0
  148.9209  136.0573  153.6614 H   0  0  0  0  0  0  0  0  0  0  0  0
  148.8448  134.7535  156.9980 H   0  0  0  0  0  0  0  0  0  0  0  0
  152.9250  138.5513  155.1829 H   0  0  0  0  0  0  0  0  0  0  0  0
  153.8080  137.7013  156.4518 H   0  0  0  0  0  0  0  0  0  0  0  0
  152.7387  139.0488  156.8654 H   0  0  0  0  0  0  0  0  0  0  0  0
  151.0865  137.3458  154.3960 H   0  0  0  0  0  0  0  0  0  0  0  0
  147.3735  132.6589  151.6226 H   0  0  0  0  0  0  0  0  0  0  0  0
  146.2550  130.6992  153.7113 H   0  0  0  0  0  0  0  0  0  0  0  0
  147.9273  131.2416  153.6677 H   0  0  0  0  0  0  0  0  0  0  0  0
  147.2825  130.2818  152.3453 H   0  0  0  0  0  0  0  0  0  0  0  0
  144.4717  131.8743  152.2570 H   0  0  0  0  0  0  0  0  0  0  0  0
  143.9871  132.2699  148.6493 H   0  0  0  0  0  0  0  0  0  0  0  0
  143.5960  133.4600  149.8902 H   0  0  0  0  0  0  0  0  0  0  0  0
  143.1642  131.7551  150.1175 H   0  0  0  0  0  0  0  0  0  0  0  0
  1  2  1  0  0  0  0
  1 24  1  0  0  0  0
  1 25  1  0  0  0  0
  1 26  1  0  0  0  0
  2  3  1  0  0  0  0
  2 27  1  0  0  0  0
  2 28  1  0  0  0  0
  3 21  1  0  0  0  0
  3  4  1  0  0  0  0
  3  6  1  0  0  0  0
  4  5  1  0  0  0  0
  4 29  1  0  0  0  0
  4 30  1  0  0  0  0
  5 31  1  0  0  0  0
  5 32  1  0  0  0  0
  5 33  1  0  0  0  0
  6  7  1  0  0  0  0
  6 19  1  0  0  0  0
  6 34  1  0  0  0  0
  7  8  1  0  0  0  0
  7 35  1  0  0  0  0
  8  9  2  0  0  0  0
  8 10  1  0  0  0  0
 10 11  1  0  0  0  0
 10 36  1  0  0  0  0
 11 18  1  0  0  0  0
 11 12  2  0  0  0  0
 12 13  1  0  0  0  0
 12 37  1  0  0  0  0
 13 14  1  0  0  0  0
 14 15  2  0  0  0  0
 14 16  1  0  0  0  0
 16 17  1  0  0  0  0
 16 18  2  0  0  0  0
 17 38  1  0  0  0  0
 17 39  1  0  0  0  0
 17 40  1  0  0  0  0
 18 41  1  0  0  0  0
 19 20  1  0  0  0  0
 19 21  1  0  0  0  0
 19 42  1  0  0  0  0
 20 43  1  0  0  0  0
 20 44  1  0  0  0  0
 20 45  1  0  0  0  0
 21 22  1  0  0  0  0
 21 46  1  0  0  0  0
 22 23  1  0  0  0  0
 23 47  1  0  0  0  0
 23 48  1  0  0  0  0
 23 49  1  0  0  0  0
M  CHG  1  13  -1
M  END
> <s_m_source_file>
AV-unprocessed.smi

> <i_m_source_file_index>
2424

> <i_lp_mmshare_version>
43012

> <i_f3d_flags>
0

> <s_epik_input>
W0NIM11PW0NAQEhdMVtDQEhdKFtDSDNdKVtDQEBIXShDMShbQ0gyXVtDSDNdKVtDSDJdW0NIM10pW05IXUMoPU8pW05IXWMyW2NIXVtuSF1jKD1PKWMoW0NIM10pW2NIXTI=

> <s_epik_cmdline>
J2VwaWtfcHl0aG9uJywgJy1waCcsICc3LjAnLCAnLXRuJywgJzgnLCAnLW1hJywgJzIwMCcsICctbWV0YWxfYmluZGluZycsICctaW1hZScsICc8aW5maWxlLm1hZT4nLCAnLW9tYWUnLCAnPG91dGZpbGUubWFlPic=

> <r_lp_tautomer_probability>
1

> <r_epik_Ionization_Penalty>
7.6122

> <r_epik_Ionization_Penalty_Charging>
1.53843

> <r_epik_Ionization_Penalty_Neutral>
6.07377

> <r_epik_State_Penalty>
6.07371

> <r_epik_Charging_Adjusted_Penalty>
7.61214

> <i_epik_Tot_Q>
-1

> <i_epik_Tot_abs_Q>
1

> <r_epik_Metal_State_Penalty>
2.02136

> <b_epik_Metal_Only>
1

> <s_lp_Force_Field>
OPLS_2005

> <r_lp_Energy>
40.6297

> <b_lp_Chiralities_Consistent>
1

> <s_lp_Variant>
AV-unprocessed.smi:2424-14

> <Gold.Version>
5.8.1

> <Gold.Id.Protein>
6NUR|6NUR_protein|mol2

> <Gold.PLP.Fitness>
38.2858

> <Gold.PLP.PLP>
-29.1026

> <Gold.PLP.part.hbond>
-3.6061

> <Gold.PLP.part.metal>
0.0000

> <Gold.PLP.part.buried>
-3.2330

> <Gold.PLP.part.nonpolar>
-23.6688

> <Gold.PLP.part.repulsive>
0.1455

> <Gold.PLP.ligand.clash>
0.0000

> <Gold.PLP.ligand.torsion>
0.6497

> <Gold.PLP.Chemscore.Hbond>
3.3077

> <Gold.PLP.Chemscore.CHOScore>
0.0000

> <Gold.PLP.Chemscore.Metal>
0.0000

> <Gold.Chemscore.Hbonds>
donor molecule, donor type, donor heavy atom, donor atom, acceptor molecule, acceptor atom, score
      L1  H     7    35       P1  7948  0.91
      L1  H    10    36       P1  7948  1.00
      P1  H  6896  6908       L1    13  1.34

> <Gold.PLP.Chemscore.Internal.Correction>
0.5597

> <Gold.Rescore>
     Score         DG    S(hbond)    S(metal)    S(lipo)     H(rot)  DE(clash)    DE(int)     intcor
     16.11     -18.54       2.41        0.00      76.21       1.52       0.42       2.01       ----

> <Gold.Chemscore.Fitness>
16.1074

> <Gold.Chemscore.DG>
-18.5384

> <Gold.Chemscore.ZeroCoef>
-5.4800

> <Gold.Chemscore.Hbond>
2.4053

> <Gold.Chemscore.Metal>
0.0000

> <Gold.Chemscore.Lipo>
76.2131

> <Gold.Chemscore.Internal_Hbond>
0.0000

> <Gold.Chemscore.DEClash>
0.4212

> <Gold.Chemscore.DEInternal>
2.0098

> <Gold.Chemscore.Rot>
1.5204

> <Gold.Chemscore.Internal.Correction>
   9.000000E+99

> <Gold.Chemscore.Hbonds>
donor molecule, donor type, donor heavy atom, donor atom, acceptor molecule, acceptor atom, score
      L1  H     7    35       P1  7948  0.87
      L1  H    10    36       P1  7948  0.96
      P1  H  6896  6908       L1    13  0.37

> <Gold.Chemscore.Hbond.Weighted>
-8.0337

> <Gold.Chemscore.Metal.Weighted>
-0.0000

> <Gold.Chemscore.Lipo.Weighted>
-8.9169

> <Gold.Chemscore.Internal_Hbond.Weighted>
0.0000

> <Gold.Chemscore.DEClash.Weighted>
0.4212

> <Gold.Chemscore.DEInternal.Weighted>
2.0098

> <Gold.Chemscore.Rot.Weighted>
3.8922

> <Gold.Chemscore.Internal.Correction.Weighted>
   9.000000E+99

> <Gold.Protein.RotatedTorsions>
[ 6907 6896 6895 6894 ] final  179.26 input  -60.11 | X-H torsion
[ 7974 7965 7964 7962 ] final   39.89 input  175.53 | X-H torsion
[ 8008 7997 7996 7995 ] final   80.87 input   59.86 | X-H torsion
[ 10167 10162 10161 10158 ] final -114.30 input  -65.29 | X-H torsion
[ 10718 10713 10712 10709 ] final  159.68 input   66.30 | X-H torsion
[ 10763 10752 10751 10750 ] final -135.44 input  -60.55 | X-H torsion
[ 11005 11000 10999 10996 ] final   56.18 input  -57.11 | X-H torsion

> <Gold.Protein.ActiveResidues>
 VAL166  LYS551  ARG553  GLY616  TRP617  ASP618  TYR619  PRO620  LYS621  CYS622 
 ASP623  PHE694  ASN695  SER759  ASP760  ASP761  ALA762  ILE779  LEU786  VAL792 
 PHE793  MET794  SER795  GLU796  ALA797  LYS798  CYS799  TRP800  GLU811  SER814 

> <Gold.Protein.RotatedAtoms>
  151.6746  133.3313  159.3204 H   0  0  0  0  0  0  0  0  0  0  0  0  # atno 6907 bound_to 6896
  150.7851  134.6833  159.6465 H   0  0  0  0  0  0  0  0  0  0  0  0  # atno 6908 bound_to 6896
  152.3919  134.6431  160.0156 H   0  0  0  0  0  0  0  0  0  0  0  0  # atno 6909 bound_to 6896
  146.0948  139.5598  142.9452 H   0  0  0  0  0  0  0  0  0  0  0  0  # atno 7974 bound_to 7965
  155.8894  140.3439  155.5945 H   0  0  0  0  0  0  0  0  0  0  0  0  # atno 8008 bound_to 7997
  155.7628  140.0835  157.2166 H   0  0  0  0  0  0  0  0  0  0  0  0  # atno 8009 bound_to 7997
  154.4032  140.1532  156.2840 H   0  0  0  0  0  0  0  0  0  0  0  0  # atno 8010 bound_to 7997
  140.1025  143.4600  152.1803 H   0  0  0  0  0  0  0  0  0  0  0  0  # atno 10167 bound_to 10162
  157.1609  131.0587  151.2233 H   0  0  0  0  0  0  0  0  0  0  0  0  # atno 10718 bound_to 10713
  154.8703  135.3703  154.4898 H   0  0  0  0  0  0  0  0  0  0  0  0  # atno 10763 bound_to 10752
  153.5546  135.7024  153.5580 H   0  0  0  0  0  0  0  0  0  0  0  0  # atno 10764 bound_to 10752
  153.3683  135.4028  155.1734 H   0  0  0  0  0  0  0  0  0  0  0  0  # atno 10765 bound_to 10752
  140.0549  134.5684  155.9220 H   0  0  0  0  0  0  0  0  0  0  0  0  # atno 11005 bound_to 11000
  145.5969  141.0361  143.2040 LP  0  0  0  0  0  0  0  0  0  0  0  0  # atno 17320 bound_to 7965
  144.7387  139.7510  143.7319 LP  0  0  0  0  0  0  0  0  0  0  0  0  # atno 17321 bound_to 7965
  139.5663  144.7437  151.4012 LP  0  0  0  0  0  0  0  0  0  0  0  0  # atno 17342 bound_to 10162
  140.6970  143.7725  150.7342 LP  0  0  0  0  0  0  0  0  0  0  0  0  # atno 17343 bound_to 10162
  157.4134  130.7397  149.6856 LP  0  0  0  0  0  0  0  0  0  0  0  0  # atno 17370 bound_to 10713
  155.9754  130.4089  150.3852 LP  0  0  0  0  0  0  0  0  0  0  0  0  # atno 17371 bound_to 10713
  141.1947  133.6584  156.5609 LP  0  0  0  0  0  0  0  0  0  0  0  0  # atno 17394 bound_to 11000
  140.3860  134.7482  157.4691 LP  0  0  0  0  0  0  0  0  0  0  0  0  # atno 17395 bound_to 11000

$$$$
