AV-unprocessed.smi:445|AV-procd|sdf|2591|dock5
  -GOLD-   2262022583D 1   1.00000     0.00000
 Structure written by MMmdl.
 44 45  0  0  0  0  0  0  0  0  3 V2000
  147.3328  133.5331  161.9042 C   0  0  0  0  0  0  0  0  0  0  0  0
  146.1410  134.3909  162.3632 C   0  0  2  0  0  0  0  0  0  0  0  0
  144.8262  133.9398  161.6935 C   0  0  0  0  0  0  0  0  0  0  0  0
  143.6259  134.7578  162.1967 C   0  0  0  0  0  0  0  0  0  0  0  0
  143.8506  136.2637  161.9935 C   0  0  0  0  0  0  0  0  0  0  0  0
  145.1601  136.7258  162.6561 C   0  0  0  0  0  0  0  0  0  0  0  0
  146.3779  135.9112  162.1749 C   0  0  2  0  0  0  0  0  0  0  0  0
  146.6784  136.2447  160.7810 N   0  0  0  0  0  0  0  0  0  0  0  0
  147.8665  136.6389  160.2975 C   0  0  0  0  0  0  0  0  0  0  0  0
  148.8792  136.7506  160.9898 O   0  0  0  0  0  0  0  0  0  0  0  0
  147.9121  136.9250  158.7899 C   0  0  0  0  0  0  0  0  0  0  0  0
  149.0019  137.8410  158.4063 N   0  0  0  0  0  0  0  0  0  0  0  0
  148.6188  139.0702  157.8406 C   0  0  0  0  0  0  0  0  0  0  0  0
  149.5174  139.9869  157.4411 C   0  0  0  0  0  0  0  0  0  0  0  0
  149.0980  141.2427  156.8563 N   0  3  0  0  0  0  0  0  0  0  0  0
  149.9490  142.0908  156.6076 O   0  0  0  0  0  0  0  0  0  0  0  0
  147.9060  141.4243  156.6266 O   0  5  0  0  0  0  0  0  0  0  0  0
  150.9219  139.6766  157.6108 C   0  0  0  0  0  0  0  0  0  0  0  0
  151.3154  138.4944  158.1501 C   0  0  0  0  0  0  0  0  0  0  0  0
  152.7386  138.1352  158.3413 C   0  0  0  0  0  0  0  0  0  0  0  0
  152.9547  137.2333  159.3070 N   0  0  0  0  0  0  0  0  0  0  0  0
  153.7034  138.5755  157.7165 O   0  0  0  0  0  0  0  0  0  0  0  0
  150.3125  137.4845  158.5853 C   0  0  0  0  0  0  0  0  0  0  0  0
  150.5862  136.3866  159.0781 O   0  0  0  0  0  0  0  0  0  0  0  0
  147.4832  133.5928  160.8260 H   0  0  0  0  0  0  0  0  0  0  0  0
  147.1777  132.4836  162.1557 H   0  0  0  0  0  0  0  0  0  0  0  0
  148.2556  133.8544  162.3879 H   0  0  0  0  0  0  0  0  0  0  0  0
  146.0294  134.2184  163.4348 H   0  0  0  0  0  0  0  0  0  0  0  0
  144.9065  134.0377  160.6100 H   0  0  0  0  0  0  0  0  0  0  0  0
  144.6516  132.8819  161.8924 H   0  0  0  0  0  0  0  0  0  0  0  0
  142.7191  134.4443  161.6787 H   0  0  0  0  0  0  0  0  0  0  0  0
  143.4630  134.5528  163.2555 H   0  0  0  0  0  0  0  0  0  0  0  0
  143.8753  136.4899  160.9269 H   0  0  0  0  0  0  0  0  0  0  0  0
  143.0102  136.8228  162.4058 H   0  0  0  0  0  0  0  0  0  0  0  0
  145.3191  137.7887  162.4686 H   0  0  0  0  0  0  0  0  0  0  0  0
  145.0662  136.6213  163.7377 H   0  0  0  0  0  0  0  0  0  0  0  0
  147.2224  136.1982  162.8038 H   0  0  0  0  0  0  0  0  0  0  0  0
  145.9096  136.1749  160.1299 H   0  0  0  0  0  0  0  0  0  0  0  0
  148.0084  135.9713  158.2693 H   0  0  0  0  0  0  0  0  0  0  0  0
  146.9496  137.3251  158.4649 H   0  0  0  0  0  0  0  0  0  0  0  0
  147.5509  139.2074  157.7478 H   0  0  0  0  0  0  0  0  0  0  0  0
  151.6442  140.4143  157.2953 H   0  0  0  0  0  0  0  0  0  0  0  0
  153.8932  136.9227  159.5108 H   0  0  0  0  0  0  0  0  0  0  0  0
  152.1724  136.8640  159.8283 H   0  0  0  0  0  0  0  0  0  0  0  0
  1  2  1  0  0  0  0
  1 25  1  0  0  0  0
  1 26  1  0  0  0  0
  1 27  1  0  0  0  0
  2  7  1  0  0  0  0
  2  3  1  0  0  0  0
  2 28  1  0  0  0  0
  3  4  1  0  0  0  0
  3 29  1  0  0  0  0
  3 30  1  0  0  0  0
  4  5  1  0  0  0  0
  4 31  1  0  0  0  0
  4 32  1  0  0  0  0
  5  6  1  0  0  0  0
  5 33  1  0  0  0  0
  5 34  1  0  0  0  0
  6  7  1  0  0  0  0
  6 35  1  0  0  0  0
  6 36  1  0  0  0  0
  7  8  1  0  0  0  0
  7 37  1  0  0  0  0
  8  9  1  0  0  0  0
  8 38  1  0  0  0  0
  9 10  2  0  0  0  0
  9 11  1  0  0  0  0
 11 12  1  0  0  0  0
 11 39  1  0  0  0  0
 11 40  1  0  0  0  0
 12 23  1  0  0  0  0
 12 13  1  0  0  0  0
 13 14  2  0  0  0  0
 13 41  1  0  0  0  0
 14 15  1  0  0  0  0
 14 18  1  0  0  0  0
 15 16  2  0  0  0  0
 15 17  1  0  0  0  0
 18 19  2  0  0  0  0
 18 42  1  0  0  0  0
 19 20  1  0  0  0  0
 19 23  1  0  0  0  0
 20 21  1  0  0  0  0
 20 22  2  0  0  0  0
 21 43  1  0  0  0  0
 21 44  1  0  0  0  0
 23 24  2  0  0  0  0
M  CHG  1  15   1
M  CHG  1  17  -1
M  END
> <s_m_source_file>
AV-unprocessed.smi

> <i_m_source_file_index>
445

> <i_lp_mmshare_version>
43012

> <i_f3d_flags>
0

> <s_epik_input>
W0NIM11bQ0BASF0xW0NIMl1bQ0gyXVtDSDJdW0NIMl1bQ0BIXTFbTkhdQyg9TylbQ0gyXW4yW2NIXWMoW04rXSg9TylbTy1dKVtjSF1jKGMyPU8pQyg9TylbTkgyXQ==

> <s_epik_cmdline>
J2VwaWtfcHl0aG9uJywgJy1waCcsICc3LjAnLCAnLXRuJywgJzgnLCAnLW1hJywgJzIwMCcsICctbWV0YWxfYmluZGluZycsICctaW1hZScsICc8aW5maWxlLm1hZT4nLCAnLW9tYWUnLCAnPG91dGZpbGUubWFlPic=

> <r_lp_tautomer_probability>
1

> <r_epik_Ionization_Penalty>
2.81321e-06

> <r_epik_Ionization_Penalty_Charging>
2.43777e-12

> <r_epik_Ionization_Penalty_Neutral>
2.81321e-06

> <r_epik_State_Penalty>
-0

> <r_epik_Charging_Adjusted_Penalty>
2.43777e-12

> <i_epik_Tot_Q>
0

> <i_epik_Tot_abs_Q>
2

> <r_epik_Metal_State_Penalty>
-0

> <b_epik_Metal_Only>
0

> <s_lp_Force_Field>
OPLS_2005

> <r_lp_Energy>
27.547

> <b_lp_Chiralities_Consistent>
1

> <s_lp_Variant>
AV-unprocessed.smi:445-3

> <Gold.Version>
5.8.1

> <Gold.Id.Protein>
6NUR|6NUR_protein|mol2

> <Gold.PLP.Fitness>
39.2857

> <Gold.PLP.PLP>
-31.6587

> <Gold.PLP.part.hbond>
-2.8015

> <Gold.PLP.part.metal>
0.0000

> <Gold.PLP.part.buried>
-6.3605

> <Gold.PLP.part.nonpolar>
-23.6730

> <Gold.PLP.part.repulsive>
1.1927

> <Gold.PLP.ligand.clash>
0.0000

> <Gold.PLP.ligand.torsion>
0.7031

> <Gold.PLP.Chemscore.Hbond>
3.0000

> <Gold.PLP.Chemscore.CHOScore>
0.0000

> <Gold.PLP.Chemscore.Metal>
0.0000

> <Gold.Chemscore.Hbonds>
donor molecule, donor type, donor heavy atom, donor atom, acceptor molecule, acceptor atom, score
      P1  H  6896  6908       L1    24  1.00
      P1  H  6931  6943       L1    10  1.00
      P1  H  7997  8008       L1    22  1.00

> <Gold.PLP.Chemscore.Internal.Correction>
0.0332

> <Gold.Rescore>
     Score         DG    S(hbond)    S(metal)    S(lipo)     H(rot)  DE(clash)    DE(int)     intcor
     12.41     -17.31       2.88        0.00      56.23       1.71       0.04       4.86       ----

> <Gold.Chemscore.Fitness>
12.4101

> <Gold.Chemscore.DG>
-17.3093

> <Gold.Chemscore.ZeroCoef>
-5.4800

> <Gold.Chemscore.Hbond>
2.8843

> <Gold.Chemscore.Metal>
0.0000

> <Gold.Chemscore.Lipo>
56.2321

> <Gold.Chemscore.Internal_Hbond>
0.0000

> <Gold.Chemscore.DEClash>
0.0414

> <Gold.Chemscore.DEInternal>
4.8578

> <Gold.Chemscore.Rot>
1.7123

> <Gold.Chemscore.Internal.Correction>
   9.000000E+99

> <Gold.Chemscore.Hbonds>
donor molecule, donor type, donor heavy atom, donor atom, acceptor molecule, acceptor atom, score
      P1  H  6896  6908       L1    24  0.98
      P1  H  6931  6943       L1    10  0.90
      P1  H  7997  8008       L1    22  0.97

> <Gold.Chemscore.Hbond.Weighted>
-9.6336

> <Gold.Chemscore.Metal.Weighted>
-0.0000

> <Gold.Chemscore.Lipo.Weighted>
-6.5792

> <Gold.Chemscore.Internal_Hbond.Weighted>
0.0000

> <Gold.Chemscore.DEClash.Weighted>
0.0414

> <Gold.Chemscore.DEInternal.Weighted>
4.8578

> <Gold.Chemscore.Rot.Weighted>
4.3835

> <Gold.Chemscore.Internal.Correction.Weighted>
   9.000000E+99

> <Gold.Protein.RotatedTorsions>
[ 6907 6896 6895 6894 ] final -156.67 input  -60.11 | X-H torsion
[ 7974 7965 7964 7962 ] final  -93.27 input  175.53 | X-H torsion
[ 8008 7997 7996 7995 ] final  -95.88 input   59.86 | X-H torsion
[ 10167 10162 10161 10158 ] final  146.61 input  -65.29 | X-H torsion
[ 10718 10713 10712 10709 ] final -104.42 input   66.30 | X-H torsion
[ 10763 10752 10751 10750 ] final -133.33 input  -60.55 | X-H torsion
[ 11005 11000 10999 10996 ] final -141.12 input  -57.11 | X-H torsion

> <Gold.Protein.ActiveResidues>
 VAL166  LYS551  ARG553  GLY616  TRP617  ASP618  TYR619  PRO620  LYS621  CYS622 
 ASP623  PHE694  ASN695  SER759  ASP760  ASP761  ALA762  ILE779  LEU786  VAL792 
 PHE793  MET794  SER795  GLU796  ALA797  LYS798  CYS799  TRP800  GLU811  SER814 

> <Gold.Protein.RotatedAtoms>
  151.2911  133.4165  159.2632 H   0  0  0  0  0  0  0  0  0  0  0  0  # atno 6907 bound_to 6896
  151.0276  134.9516  159.8104 H   0  0  0  0  0  0  0  0  0  0  0  0  # atno 6908 bound_to 6896
  152.5338  134.2873  159.9082 H   0  0  0  0  0  0  0  0  0  0  0  0  # atno 6909 bound_to 6896
  145.3887  140.9526  143.2352 H   0  0  0  0  0  0  0  0  0  0  0  0  # atno 7974 bound_to 7965
  154.7672  140.0476  157.1022 H   0  0  0  0  0  0  0  0  0  0  0  0  # atno 8008 bound_to 7997
  154.9865  140.3108  155.4905 H   0  0  0  0  0  0  0  0  0  0  0  0  # atno 8009 bound_to 7997
  156.2915  140.2226  156.4967 H   0  0  0  0  0  0  0  0  0  0  0  0  # atno 8010 bound_to 7997
  139.4904  144.5816  151.6859 H   0  0  0  0  0  0  0  0  0  0  0  0  # atno 10167 bound_to 10162
  156.0304  130.5514  150.7394 H   0  0  0  0  0  0  0  0  0  0  0  0  # atno 10718 bound_to 10713
  154.8734  135.3769  154.4555 H   0  0  0  0  0  0  0  0  0  0  0  0  # atno 10763 bound_to 10752
  153.5228  135.7028  153.5728 H   0  0  0  0  0  0  0  0  0  0  0  0  # atno 10764 bound_to 10752
  153.3967  135.3958  155.1925 H   0  0  0  0  0  0  0  0  0  0  0  0  # atno 10765 bound_to 10752
  140.8355  134.2465  157.4836 H   0  0  0  0  0  0  0  0  0  0  0  0  # atno 11005 bound_to 11000
  144.8455  139.5403  143.6880 LP  0  0  0  0  0  0  0  0  0  0  0  0  # atno 17320 bound_to 7965
  146.2808  139.6871  142.9231 LP  0  0  0  0  0  0  0  0  0  0  0  0  # atno 17321 bound_to 7965
  140.5424  144.0558  150.6093 LP  0  0  0  0  0  0  0  0  0  0  0  0  # atno 17342 bound_to 10162
  140.3585  143.2922  152.0410 LP  0  0  0  0  0  0  0  0  0  0  0  0  # atno 17343 bound_to 10162
  157.4966  131.0915  151.0364 LP  0  0  0  0  0  0  0  0  0  0  0  0  # atno 17370 bound_to 10713
  157.0756  130.5882  149.5410 LP  0  0  0  0  0  0  0  0  0  0  0  0  # atno 17371 bound_to 10713
  139.8704  134.9608  156.4377 LP  0  0  0  0  0  0  0  0  0  0  0  0  # atno 17394 bound_to 11000
  140.8952  133.7819  155.9617 LP  0  0  0  0  0  0  0  0  0  0  0  0  # atno 17395 bound_to 11000

$$$$
