AV-unprocessed.smi:2520|AV-procd|sdf|9914|dock4
  -GOLD-   2272013553D 1   1.00000     0.00000
 Structure written by MMmdl.
 41 44  0  0  0  0  0  0  0  0  1 V2000
  150.0891  136.0979  158.5687 O   0  0  0  0  0  0  0  0  0  0  0  0
  149.5612  137.1281  158.9832 C   0  0  0  0  0  0  0  0  0  0  0  0
  148.6021  137.0851  159.9324 N   0  0  0  0  0  0  0  0  0  0  0  0
  148.0079  135.9889  160.6243 C   0  0  0  0  0  0  0  0  0  0  0  0
  147.6749  136.2506  161.9706 C   0  0  0  0  0  0  0  0  0  0  0  0
  147.0826  135.2244  162.7263 C   0  0  0  0  0  0  0  0  0  0  0  0
  146.8593  133.9967  162.0807 C   0  0  0  0  0  0  0  0  0  0  0  0
  147.1904  133.7880  160.7885 N   0  0  0  0  0  0  0  0  0  0  0  0
  147.7529  134.7705  160.0771 N   0  0  0  0  0  0  0  0  0  0  0  0
  149.8975  138.3466  158.5337 N   0  0  0  0  0  0  0  0  0  0  0  0
  150.9489  138.6268  157.5641 C   0  0  1  0  0  0  0  0  0  0  0  0
  150.4820  138.4005  156.1262 C   0  0  2  0  0  0  0  0  0  0  0  0
  150.8224  137.4169  155.0644 C   0  0  0  0  0  0  0  0  0  0  0  0
  151.0015  138.4185  153.8930 C   0  0  0  0  0  0  0  0  0  0  0  0
  151.0022  139.7363  154.4934 O   0  0  0  0  0  0  0  0  0  0  0  0
  151.4628  139.5109  155.8106 C   0  0  1  0  0  0  0  0  0  0  0  0
  151.0508  140.1465  157.1544 C   0  0  0  0  0  0  0  0  0  0  0  0
  152.1142  140.9855  157.8772 C   0  0  0  0  0  0  0  0  0  0  0  0
  151.4863  142.3179  158.2934 C   0  0  0  0  0  0  0  0  0  0  0  0
  149.9873  142.0555  158.3028 C   0  0  0  0  0  0  0  0  0  0  0  0
  149.7923  141.0385  157.1831 C   0  0  0  0  0  0  0  0  0  0  0  0
  148.2172  137.9863  160.1746 H   0  0  0  0  0  0  0  0  0  0  0  0
  147.8686  137.2148  162.4177 H   0  0  0  0  0  0  0  0  0  0  0  0
  146.8101  135.3726  163.7606 H   0  0  0  0  0  0  0  0  0  0  0  0
  146.4082  133.1685  162.6071 H   0  0  0  0  0  0  0  0  0  0  0  0
  149.4112  139.1430  158.9211 H   0  0  0  0  0  0  0  0  0  0  0  0
  151.9080  138.1521  157.7913 H   0  0  0  0  0  0  0  0  0  0  0  0
  149.4406  138.7165  156.0091 H   0  0  0  0  0  0  0  0  0  0  0  0
  151.7449  136.8790  155.2873 H   0  0  0  0  0  0  0  0  0  0  0  0
  150.0242  136.6970  154.8823 H   0  0  0  0  0  0  0  0  0  0  0  0
  151.9403  138.2387  153.3678 H   0  0  0  0  0  0  0  0  0  0  0  0
  150.1891  138.3488  153.1692 H   0  0  0  0  0  0  0  0  0  0  0  0
  152.5113  139.1910  155.8056 H   0  0  0  0  0  0  0  0  0  0  0  0
  152.4686  140.4610  158.7645 H   0  0  0  0  0  0  0  0  0  0  0  0
  152.9917  141.1576  157.2529 H   0  0  0  0  0  0  0  0  0  0  0  0
  151.8561  142.6751  159.2550 H   0  0  0  0  0  0  0  0  0  0  0  0
  151.7163  143.0778  157.5456 H   0  0  0  0  0  0  0  0  0  0  0  0
  149.6976  141.6123  159.2566 H   0  0  0  0  0  0  0  0  0  0  0  0
  149.3975  142.9612  158.1599 H   0  0  0  0  0  0  0  0  0  0  0  0
  149.6938  141.5671  156.2342 H   0  0  0  0  0  0  0  0  0  0  0  0
  148.8646  140.4846  157.3266 H   0  0  0  0  0  0  0  0  0  0  0  0
  1  2  2  0  0  0  0
  2  3  1  0  0  0  0
  2 10  1  0  0  0  0
  3  4  1  0  0  0  0
  3 22  1  0  0  0  0
  4  9  1  0  0  0  0
  4  5  2  0  0  0  0
  5  6  1  0  0  0  0
  5 23  1  0  0  0  0
  6  7  2  0  0  0  0
  6 24  1  0  0  0  0
  7  8  1  0  0  0  0
  7 25  1  0  0  0  0
  8  9  2  0  0  0  0
 10 11  1  0  0  0  0
 10 26  1  0  0  0  0
 11 17  1  0  0  0  0
 11 12  1  0  0  0  0
 11 27  1  0  0  0  0
 12 16  1  0  0  0  0
 12 13  1  0  0  0  0
 12 28  1  0  0  0  0
 13 14  1  0  0  0  0
 13 29  1  0  0  0  0
 13 30  1  0  0  0  0
 14 15  1  0  0  0  0
 14 31  1  0  0  0  0
 14 32  1  0  0  0  0
 15 16  1  0  0  0  0
 16 17  1  0  0  0  0
 16 33  1  0  0  0  0
 17 21  1  0  0  0  0
 17 18  1  0  0  0  0
 18 19  1  0  0  0  0
 18 34  1  0  0  0  0
 18 35  1  0  0  0  0
 19 20  1  0  0  0  0
 19 36  1  0  0  0  0
 19 37  1  0  0  0  0
 20 21  1  0  0  0  0
 20 38  1  0  0  0  0
 20 39  1  0  0  0  0
 21 40  1  0  0  0  0
 21 41  1  0  0  0  0
M  END
> <s_m_source_file>
AV-unprocessed.smi

> <i_m_source_file_index>
2520

> <i_lp_mmshare_version>
43012

> <i_f3d_flags>
0

> <s_epik_input>
bjFuW2NIXVtjSF1bY0hdYzFbTkhdQyg9TylbTkhdW0NAQEhdMltDQEBIXShbQ0gyXVtDSDJdTzMpW0NASF0zQzI0W0NIMl1bQ0gyXVtDSDJdW0NIMl00

> <s_epik_cmdline>
J2VwaWtfcHl0aG9uJywgJy1waCcsICc3LjAnLCAnLXRuJywgJzgnLCAnLW1hJywgJzIwMCcsICctbWV0YWxfYmluZGluZycsICctaW1hZScsICc8aW5maWxlLm1hZT4nLCAnLW9tYWUnLCAnPG91dGZpbGUubWFlPic=

> <r_lp_tautomer_probability>
1

> <r_epik_Ionization_Penalty>
0.00552561

> <r_epik_Ionization_Penalty_Charging>
0

> <r_epik_Ionization_Penalty_Neutral>
0.00552561

> <r_epik_State_Penalty>
-0

> <r_epik_Charging_Adjusted_Penalty>
0

> <i_epik_Tot_Q>
0

> <i_epik_Tot_abs_Q>
0

> <r_epik_Metal_State_Penalty>
-0

> <b_epik_Metal_Only>
0

> <s_lp_Force_Field>
OPLS_2005

> <r_lp_Energy>
83.483

> <b_lp_Chiralities_Consistent>
1

> <s_lp_Variant>
AV-unprocessed.smi:2520-8

> <Gold.Version>
5.8.1

> <Gold.Id.Protein>
6NUR|6NUR_protein|mol2

> <Gold.PLP.Fitness>
40.2755

> <Gold.PLP.PLP>
-34.8919

> <Gold.PLP.part.hbond>
-2.0000

> <Gold.PLP.part.metal>
0.0000

> <Gold.PLP.part.buried>
-7.2421

> <Gold.PLP.part.nonpolar>
-26.6712

> <Gold.PLP.part.repulsive>
1.3516

> <Gold.PLP.ligand.clash>
0.0000

> <Gold.PLP.ligand.torsion>
0.4133

> <Gold.PLP.Chemscore.Hbond>
1.9760

> <Gold.PLP.Chemscore.CHOScore>
0.0000

> <Gold.PLP.Chemscore.Metal>
0.0000

> <Gold.Chemscore.Hbonds>
donor molecule, donor type, donor heavy atom, donor atom, acceptor molecule, acceptor atom, score
      P1  H  6896  6907       L1     1  0.99
      P1  H  7989  7998       L1    15  1.00

> <Gold.PLP.Chemscore.Internal.Correction>
0.2821

> <Gold.Rescore>
     Score         DG    S(hbond)    S(metal)    S(lipo)     H(rot)  DE(clash)    DE(int)     intcor
     18.86     -19.56       1.97        0.00      85.98       1.00       0.25       0.45       ----

> <Gold.Chemscore.Fitness>
18.8567

> <Gold.Chemscore.DG>
-19.5559

> <Gold.Chemscore.ZeroCoef>
-5.4800

> <Gold.Chemscore.Hbond>
1.9689

> <Gold.Chemscore.Metal>
0.0000

> <Gold.Chemscore.Lipo>
85.9822

> <Gold.Chemscore.Internal_Hbond>
0.0000

> <Gold.Chemscore.DEClash>
0.2514

> <Gold.Chemscore.DEInternal>
0.4478

> <Gold.Chemscore.Rot>
1.0000

> <Gold.Chemscore.Internal.Correction>
   9.000000E+99

> <Gold.Chemscore.Hbonds>
donor molecule, donor type, donor heavy atom, donor atom, acceptor molecule, acceptor atom, score
      P1  H  6896  6907       L1     1  0.93
      P1  H  7989  7998       L1    15  0.81

> <Gold.Chemscore.Hbond.Weighted>
-6.5760

> <Gold.Chemscore.Metal.Weighted>
-0.0000

> <Gold.Chemscore.Lipo.Weighted>
-10.0599

> <Gold.Chemscore.Internal_Hbond.Weighted>
0.0000

> <Gold.Chemscore.DEClash.Weighted>
0.2514

> <Gold.Chemscore.DEInternal.Weighted>
0.4478

> <Gold.Chemscore.Rot.Weighted>
2.5600

> <Gold.Chemscore.Internal.Correction.Weighted>
   9.000000E+99

> <Gold.Protein.RotatedTorsions>
[ 6907 6896 6895 6894 ] final  -64.60 input  -60.11 | X-H torsion
[ 7974 7965 7964 7962 ] final  -39.66 input  175.53 | X-H torsion
[ 8008 7997 7996 7995 ] final  -84.41 input   59.86 | X-H torsion
[ 10167 10162 10161 10158 ] final  169.40 input  -65.29 | X-H torsion
[ 10718 10713 10712 10709 ] final   81.36 input   66.30 | X-H torsion
[ 10763 10752 10751 10750 ] final   -4.18 input  -60.55 | X-H torsion
[ 11005 11000 10999 10996 ] final   75.36 input  -57.11 | X-H torsion

> <Gold.Protein.ActiveResidues>
 VAL166  LYS551  ARG553  GLY616  TRP617  ASP618  TYR619  PRO620  LYS621  CYS622 
 ASP623  PHE694  ASN695  SER759  ASP760  ASP761  ALA762  ILE779  LEU786  VAL792 
 PHE793  MET794  SER795  GLU796  ALA797  LYS798  CYS799  TRP800  GLU811  SER814 

> <Gold.Protein.RotatedAtoms>
  150.7575  134.6276  159.6168 H   0  0  0  0  0  0  0  0  0  0  0  0  # atno 6907 bound_to 6896
  152.3564  134.6931  160.0230 H   0  0  0  0  0  0  0  0  0  0  0  0  # atno 6908 bound_to 6896
  151.7336  133.3282  159.3383 H   0  0  0  0  0  0  0  0  0  0  0  0  # atno 6909 bound_to 6896
  146.0376  140.6651  142.9102 H   0  0  0  0  0  0  0  0  0  0  0  0  # atno 7974 bound_to 7965
  154.6295  140.0605  156.9715 H   0  0  0  0  0  0  0  0  0  0  0  0  # atno 8008 bound_to 7997
  155.1688  140.3289  155.4378 H   0  0  0  0  0  0  0  0  0  0  0  0  # atno 8009 bound_to 7997
  156.2475  140.1918  156.6791 H   0  0  0  0  0  0  0  0  0  0  0  0  # atno 8010 bound_to 7997
  139.4991  144.3710  151.9724 H   0  0  0  0  0  0  0  0  0  0  0  0  # atno 10167 bound_to 10162
  157.6831  131.0000  150.2215 H   0  0  0  0  0  0  0  0  0  0  0  0  # atno 10718 bound_to 10713
  153.3813  135.6998  153.6563 H   0  0  0  0  0  0  0  0  0  0  0  0  # atno 10763 bound_to 10752
  153.5173  135.3619  155.2616 H   0  0  0  0  0  0  0  0  0  0  0  0  # atno 10764 bound_to 10752
  154.8693  135.4149  154.3112 H   0  0  0  0  0  0  0  0  0  0  0  0  # atno 10765 bound_to 10752
  139.9347  134.7511  156.1261 H   0  0  0  0  0  0  0  0  0  0  0  0  # atno 11005 bound_to 11000
  144.7059  140.3849  143.7118 LP  0  0  0  0  0  0  0  0  0  0  0  0  # atno 17320 bound_to 7965
  145.6938  139.1645  143.2632 LP  0  0  0  0  0  0  0  0  0  0  0  0  # atno 17321 bound_to 7965
  140.3146  144.3498  150.6025 LP  0  0  0  0  0  0  0  0  0  0  0  0  # atno 17342 bound_to 10162
  140.5771  143.2175  151.7495 LP  0  0  0  0  0  0  0  0  0  0  0  0  # atno 17343 bound_to 10162
  156.2866  130.3740  149.7883 LP  0  0  0  0  0  0  0  0  0  0  0  0  # atno 17370 bound_to 10713
  156.5555  130.8360  151.3313 LP  0  0  0  0  0  0  0  0  0  0  0  0  # atno 17371 bound_to 10713
  141.0955  133.6697  156.2636 LP  0  0  0  0  0  0  0  0  0  0  0  0  # atno 17394 bound_to 11000
  140.6106  134.5462  157.5533 LP  0  0  0  0  0  0  0  0  0  0  0  0  # atno 17395 bound_to 11000

$$$$
