AV-unprocessed.smi:2671|AV-procd|sdf|10346|dock10
  -GOLD-   2272014373D 1   1.00000     0.00000
 Structure written by MMmdl.
 28 29  0  0  0  0  0  0  0  0  2 V2000
  153.3203  137.9515  154.8978 O   0  0  0  0  0  0  0  0  0  0  0  0
  152.4039  138.6873  155.2579 C   0  0  0  0  0  0  0  0  0  0  0  0
  151.0439  138.4254  154.7894 C   0  0  0  0  0  0  0  0  0  0  0  0
  150.0390  139.2414  155.1946 C   0  0  0  0  0  0  0  0  0  0  0  0
  148.6083  139.0258  154.7306 C   0  0  0  0  0  0  0  0  0  0  0  0
  147.7850  139.8666  155.3574 F   0  0  0  0  0  0  0  0  0  0  0  0
  148.5116  139.2510  153.4205 F   0  0  0  0  0  0  0  0  0  0  0  0
  148.1953  137.7800  154.9711 F   0  0  0  0  0  0  0  0  0  0  0  0
  150.3053  140.3297  156.0465 N   0  0  0  0  0  0  0  0  0  0  0  0
  151.5049  140.5392  156.4440 C   0  0  0  0  0  0  0  0  0  0  0  0
  151.8515  141.9276  157.5387 S   0  0  0  0  0  0  0  0  0  0  0  0
  152.7170  141.1685  158.9458 C   0  0  0  0  0  0  0  0  0  0  0  0
  153.1115  142.2113  160.0005 C   0  0  2  0  0  0  0  0  0  0  0  0
  153.4902  141.6282  161.3636 C   0  0  0  0  0  0  0  0  0  0  0  0
  153.1255  142.7305  162.3476 C   0  0  0  0  0  0  0  0  0  0  0  0
  152.3361  143.7384  161.5088 C   0  0  0  0  0  0  0  0  0  0  0  0
  152.0042  143.0390  160.3188 O   0  0  0  0  0  0  0  0  0  0  0  0
  152.5822  139.7571  156.0856 N   0  5  0  0  0  0  0  0  0  0  0  0
  150.8460  137.5931  154.1303 H   0  0  0  0  0  0  0  0  0  0  0  0
  153.6019  140.6417  158.5870 H   0  0  0  0  0  0  0  0  0  0  0  0
  152.0603  140.4234  159.3956 H   0  0  0  0  0  0  0  0  0  0  0  0
  153.9189  142.8428  159.6244 H   0  0  0  0  0  0  0  0  0  0  0  0
  152.8943  140.7397  161.5761 H   0  0  0  0  0  0  0  0  0  0  0  0
  154.5416  141.3450  161.4167 H   0  0  0  0  0  0  0  0  0  0  0  0
  152.5187  142.3306  163.1605 H   0  0  0  0  0  0  0  0  0  0  0  0
  154.0099  143.1949  162.7851 H   0  0  0  0  0  0  0  0  0  0  0  0
  151.4437  144.1025  162.0183 H   0  0  0  0  0  0  0  0  0  0  0  0
  152.9584  144.5981  161.2558 H   0  0  0  0  0  0  0  0  0  0  0  0
  1  2  2  0  0  0  0
  2 18  1  0  0  0  0
  2  3  1  0  0  0  0
  3 19  1  0  0  0  0
  3  4  2  0  0  0  0
  4  5  1  0  0  0  0
  4  9  1  0  0  0  0
  5  6  1  0  0  0  0
  5  7  1  0  0  0  0
  5  8  1  0  0  0  0
  9 10  2  0  0  0  0
 10 11  1  0  0  0  0
 10 18  1  0  0  0  0
 11 12  1  0  0  0  0
 12 13  1  0  0  0  0
 12 20  1  0  0  0  0
 12 21  1  0  0  0  0
 13 17  1  0  0  0  0
 13 14  1  0  0  0  0
 13 22  1  0  0  0  0
 14 15  1  0  0  0  0
 14 23  1  0  0  0  0
 14 24  1  0  0  0  0
 15 16  1  0  0  0  0
 15 25  1  0  0  0  0
 15 26  1  0  0  0  0
 16 17  1  0  0  0  0
 16 27  1  0  0  0  0
 16 28  1  0  0  0  0
M  CHG  1  18  -1
M  END
> <s_m_source_file>
AV-unprocessed.smi

> <i_m_source_file_index>
2671

> <i_lp_mmshare_version>
43012

> <i_f3d_flags>
0

> <s_epik_input>
W09IXWMxW2NIXWMoQyhGKShGKUYpbmMobjEpU1tDSDJdW0NAQEhdMltDSDJdW0NIMl1bQ0gyXU8y

> <s_epik_cmdline>
J2VwaWtfcHl0aG9uJywgJy1waCcsICc3LjAnLCAnLXRuJywgJzgnLCAnLW1hJywgJzIwMCcsICctbWV0YWxfYmluZGluZycsICctaW1hZScsICc8aW5maWxlLm1hZT4nLCAnLW9tYWUnLCAnPG91dGZpbGUubWFlPic=

> <r_lp_tautomer_probability>
1

> <r_epik_Ionization_Penalty>
0.972901

> <r_epik_Ionization_Penalty_Charging>
0.00136034

> <r_epik_Ionization_Penalty_Neutral>
0.971541

> <r_epik_State_Penalty>
0.242243

> <r_epik_Charging_Adjusted_Penalty>
0.243604

> <i_epik_Tot_Q>
-1

> <i_epik_Tot_abs_Q>
1

> <r_epik_Metal_State_Penalty>
0.0617458

> <b_epik_Metal_Only>
0

> <s_lp_Force_Field>
OPLS_2005

> <r_lp_Energy>
24.2298

> <b_lp_Chiralities_Consistent>
1

> <s_lp_Variant>
AV-unprocessed.smi:2671-1

> <Gold.Version>
5.8.1

> <Gold.Id.Protein>
6NUR|6NUR_protein|mol2

> <Gold.PLP.Fitness>
41.8103

> <Gold.PLP.PLP>
-36.3435

> <Gold.PLP.part.hbond>
-1.9148

> <Gold.PLP.part.metal>
0.0000

> <Gold.PLP.part.buried>
-4.4870

> <Gold.PLP.part.nonpolar>
-29.4107

> <Gold.PLP.part.repulsive>
0.0763

> <Gold.PLP.ligand.clash>
0.0000

> <Gold.PLP.ligand.torsion>
0.2732

> <Gold.PLP.Chemscore.Hbond>
2.0000

> <Gold.PLP.Chemscore.CHOScore>
0.0000

> <Gold.PLP.Chemscore.Metal>
0.0000

> <Gold.Chemscore.Hbonds>
donor molecule, donor type, donor heavy atom, donor atom, acceptor molecule, acceptor atom, score
      P1  H  7997  8010       L1    18  2.00

> <Gold.PLP.Chemscore.Internal.Correction>
0.0132

> <Gold.Rescore>
     Score         DG    S(hbond)    S(metal)    S(lipo)     H(rot)  DE(clash)    DE(int)     intcor
     12.91     -13.13       0.89        0.00      76.43       1.66       0.04       0.18       ----

> <Gold.Chemscore.Fitness>
12.9146

> <Gold.Chemscore.DG>
-13.1269

> <Gold.Chemscore.ZeroCoef>
-5.4800

> <Gold.Chemscore.Hbond>
0.8881

> <Gold.Chemscore.Metal>
0.0000

> <Gold.Chemscore.Lipo>
76.4332

> <Gold.Chemscore.Internal_Hbond>
0.0000

> <Gold.Chemscore.DEClash>
0.0363

> <Gold.Chemscore.DEInternal>
0.1760

> <Gold.Chemscore.Rot>
1.6649

> <Gold.Chemscore.Internal.Correction>
   9.000000E+99

> <Gold.Chemscore.Hbonds>
donor molecule, donor type, donor heavy atom, donor atom, acceptor molecule, acceptor atom, score
      P1  H  7997  8010       L1    18  0.88

> <Gold.Chemscore.Hbond.Weighted>
-2.9663

> <Gold.Chemscore.Metal.Weighted>
-0.0000

> <Gold.Chemscore.Lipo.Weighted>
-8.9427

> <Gold.Chemscore.Internal_Hbond.Weighted>
0.0000

> <Gold.Chemscore.DEClash.Weighted>
0.0363

> <Gold.Chemscore.DEInternal.Weighted>
0.1760

> <Gold.Chemscore.Rot.Weighted>
4.2620

> <Gold.Chemscore.Internal.Correction.Weighted>
   9.000000E+99

> <Gold.Protein.RotatedTorsions>
[ 6907 6896 6895 6894 ] final   10.58 input  -60.11 | X-H torsion
[ 7974 7965 7964 7962 ] final   34.80 input  175.53 | X-H torsion
[ 8008 7997 7996 7995 ] final   63.89 input   59.86 | X-H torsion
[ 10167 10162 10161 10158 ] final  -38.86 input  -65.29 | X-H torsion
[ 10718 10713 10712 10709 ] final  108.74 input   66.30 | X-H torsion
[ 10763 10752 10751 10750 ] final -113.25 input  -60.55 | X-H torsion
[ 11005 11000 10999 10996 ] final  104.65 input  -57.11 | X-H torsion

> <Gold.Protein.ActiveResidues>
 VAL166  LYS551  ARG553  GLY616  TRP617  ASP618  TYR619  PRO620  LYS621  CYS622 
 ASP623  PHE694  ASN695  SER759  ASP760  ASP761  ALA762  ILE779  LEU786  VAL792 
 PHE793  MET794  SER795  GLU796  ALA797  LYS798  CYS799  TRP800  GLU811  SER814 

> <Gold.Protein.RotatedAtoms>
  151.7406  135.0855  160.0314 H   0  0  0  0  0  0  0  0  0  0  0  0  # atno 6907 bound_to 6896
  152.3482  133.6143  159.5934 H   0  0  0  0  0  0  0  0  0  0  0  0  # atno 6908 bound_to 6896
  150.7522  133.9532  159.3534 H   0  0  0  0  0  0  0  0  0  0  0  0  # atno 6909 bound_to 6896
  146.1327  139.6223  142.9215 H   0  0  0  0  0  0  0  0  0  0  0  0  # atno 7974 bound_to 7965
  155.6373  140.3496  155.4703 H   0  0  0  0  0  0  0  0  0  0  0  0  # atno 8008 bound_to 7997
  155.9954  140.1202  157.0622 H   0  0  0  0  0  0  0  0  0  0  0  0  # atno 8009 bound_to 7997
  154.4232  140.1111  156.5609 H   0  0  0  0  0  0  0  0  0  0  0  0  # atno 8010 bound_to 7997
  140.7080  143.3250  151.2701 H   0  0  0  0  0  0  0  0  0  0  0  0  # atno 10167 bound_to 10162
  157.6573  131.0900  150.6350 H   0  0  0  0  0  0  0  0  0  0  0  0  # atno 10718 bound_to 10713
  154.8388  135.4461  154.1321 H   0  0  0  0  0  0  0  0  0  0  0  0  # atno 10763 bound_to 10752
  153.2528  135.6928  153.7667 H   0  0  0  0  0  0  0  0  0  0  0  0  # atno 10764 bound_to 10752
  153.6973  135.3377  155.3192 H   0  0  0  0  0  0  0  0  0  0  0  0  # atno 10765 bound_to 10752
  139.8794  134.9308  156.5393 H   0  0  0  0  0  0  0  0  0  0  0  0  # atno 11005 bound_to 11000
  145.5224  141.0431  143.2428 LP  0  0  0  0  0  0  0  0  0  0  0  0  # atno 17320 bound_to 7965
  144.7708  139.6740  143.7196 LP  0  0  0  0  0  0  0  0  0  0  0  0  # atno 17321 bound_to 7965
  139.6716  144.0011  152.2756 LP  0  0  0  0  0  0  0  0  0  0  0  0  # atno 17342 bound_to 10162
  139.9611  144.6557  150.8079 LP  0  0  0  0  0  0  0  0  0  0  0  0  # atno 17343 bound_to 10162
  156.6656  130.4524  149.5673 LP  0  0  0  0  0  0  0  0  0  0  0  0  # atno 17370 bound_to 10713
  156.2035  130.6634  151.1193 LP  0  0  0  0  0  0  0  0  0  0  0  0  # atno 17371 bound_to 10713
  140.8322  133.8270  155.8995 LP  0  0  0  0  0  0  0  0  0  0  0  0  # atno 17394 bound_to 11000
  140.9318  134.2012  157.4859 LP  0  0  0  0  0  0  0  0  0  0  0  0  # atno 17395 bound_to 11000

$$$$
