AV-unprocessed.smi:510|AV-procd|sdf|2763|dock1
  -GOLD-   2262023223D 1   1.00000     0.00000
 Structure written by MMmdl.
 29 30  0  0  0  0  0  0  0  0  2 V2000
  150.9950  144.5642  159.7898 C   0  0  0  0  0  0  0  0  0  0  0  0
  152.0882  144.0914  159.0230 O   0  0  0  0  0  0  0  0  0  0  0  0
  151.7004  143.6820  157.7225 C   0  0  0  0  0  0  0  0  0  0  0  0
  150.6365  142.5847  157.8455 C   0  0  0  0  0  0  0  0  0  0  0  0
  150.8831  141.4893  156.9140 N   0  0  0  0  0  0  0  0  0  0  0  0
  150.3119  141.2948  155.6994 C   0  0  0  0  0  0  0  0  0  0  0  0
  149.3662  142.1836  155.2085 N   0  0  0  0  0  0  0  0  0  0  0  0
  150.7237  140.2079  155.0467 N   0  0  0  0  0  0  0  0  0  0  0  0
  151.6361  139.6540  155.9346 C   0  0  0  0  0  0  0  0  0  0  0  0
  151.7432  140.3994  157.0670 C   0  0  0  0  0  0  0  0  0  0  0  0
  152.6223  140.0511  158.2024 C   0  0  0  0  0  0  0  0  0  0  0  0
  152.6651  140.7545  159.2097 O   0  0  0  0  0  0  0  0  0  0  0  0
  153.3271  138.8979  157.9723 N   0  5  0  0  0  0  0  0  0  0  0  0
  153.2559  138.1146  156.8392 C   0  0  0  0  0  0  0  0  0  0  0  0
  153.9298  137.0909  156.7210 O   0  0  0  0  0  0  0  0  0  0  0  0
  152.4180  138.4749  155.8140 N   0  0  0  0  0  0  0  0  0  0  0  0
  152.2843  137.6984  154.5778 C   0  0  0  0  0  0  0  0  0  0  0  0
  151.3432  144.8662  160.7774 H   0  0  0  0  0  0  0  0  0  0  0  0
  150.2409  143.7871  159.9212 H   0  0  0  0  0  0  0  0  0  0  0  0
  150.5276  145.4296  159.3183 H   0  0  0  0  0  0  0  0  0  0  0  0
  151.3051  144.5317  157.1636 H   0  0  0  0  0  0  0  0  0  0  0  0
  152.5673  143.3037  157.1783 H   0  0  0  0  0  0  0  0  0  0  0  0
  150.6183  142.1955  158.8637 H   0  0  0  0  0  0  0  0  0  0  0  0
  149.6404  142.9898  157.6706 H   0  0  0  0  0  0  0  0  0  0  0  0
  149.0809  142.9931  155.7402 H   0  0  0  0  0  0  0  0  0  0  0  0
  148.9347  142.0492  154.3058 H   0  0  0  0  0  0  0  0  0  0  0  0
  152.9214  136.8152  154.5273 H   0  0  0  0  0  0  0  0  0  0  0  0
  152.5308  138.3248  153.7200 H   0  0  0  0  0  0  0  0  0  0  0  0
  151.2532  137.3629  154.4621 H   0  0  0  0  0  0  0  0  0  0  0  0
  1  2  1  0  0  0  0
  1 18  1  0  0  0  0
  1 19  1  0  0  0  0
  1 20  1  0  0  0  0
  2  3  1  0  0  0  0
  3  4  1  0  0  0  0
  3 21  1  0  0  0  0
  3 22  1  0  0  0  0
  4  5  1  0  0  0  0
  4 23  1  0  0  0  0
  4 24  1  0  0  0  0
  5 10  1  0  0  0  0
  5  6  1  0  0  0  0
  6  7  1  0  0  0  0
  6  8  2  0  0  0  0
  7 25  1  0  0  0  0
  7 26  1  0  0  0  0
  8  9  1  0  0  0  0
  9 16  1  0  0  0  0
  9 10  2  0  0  0  0
 10 11  1  0  0  0  0
 11 12  2  0  0  0  0
 11 13  1  0  0  0  0
 13 14  1  0  0  0  0
 14 15  2  0  0  0  0
 14 16  1  0  0  0  0
 16 17  1  0  0  0  0
 17 27  1  0  0  0  0
 17 28  1  0  0  0  0
 17 29  1  0  0  0  0
M  CHG  1  13  -1
M  END
> <s_m_source_file>
AV-unprocessed.smi

> <i_m_source_file_index>
510

> <i_lp_mmshare_version>
43012

> <i_f3d_flags>
0

> <s_epik_input>
W0NIM11PW0NIMl1bQ0gyXW4oYyhuMSlbTkgyXSljKGMxMiljKD1PKVtuSF1jKD1PKW4yW0NIM10=

> <s_epik_cmdline>
J2VwaWtfcHl0aG9uJywgJy1waCcsICc3LjAnLCAnLXRuJywgJzgnLCAnLW1hJywgJzIwMCcsICctbWV0YWxfYmluZGluZycsICctaW1hZScsICc8aW5maWxlLm1hZT4nLCAnLW9tYWUnLCAnPG91dGZpbGUubWFlPic=

> <r_lp_tautomer_probability>
1

> <r_epik_Ionization_Penalty>
5.7178

> <r_epik_Ionization_Penalty_Charging>
1.59161e-08

> <r_epik_Ionization_Penalty_Neutral>
5.7178

> <r_epik_State_Penalty>
5.71748

> <r_epik_Charging_Adjusted_Penalty>
5.71748

> <i_epik_Tot_Q>
-1

> <i_epik_Tot_abs_Q>
1

> <r_epik_Metal_State_Penalty>
1.69653

> <b_epik_Metal_Only>
1

> <s_lp_Force_Field>
OPLS_2005

> <r_lp_Energy>
28.6626

> <b_lp_Chiralities_Consistent>
1

> <s_lp_Variant>
AV-unprocessed.smi:510-2

> <Gold.Version>
5.8.1

> <Gold.Id.Protein>
6NUR|6NUR_protein|mol2

> <Gold.PLP.Fitness>
40.1192

> <Gold.PLP.PLP>
-32.1836

> <Gold.PLP.part.hbond>
-3.7429

> <Gold.PLP.part.metal>
0.0000

> <Gold.PLP.part.buried>
-3.4033

> <Gold.PLP.part.nonpolar>
-25.3523

> <Gold.PLP.part.repulsive>
0.3507

> <Gold.PLP.ligand.clash>
0.0000

> <Gold.PLP.ligand.torsion>
0.6336

> <Gold.PLP.Chemscore.Hbond>
3.0660

> <Gold.PLP.Chemscore.CHOScore>
0.0000

> <Gold.PLP.Chemscore.Metal>
0.0000

> <Gold.Chemscore.Hbonds>
donor molecule, donor type, donor heavy atom, donor atom, acceptor molecule, acceptor atom, score
      L1  H     7    25       P1  8028  0.86
      P1  H  7989  7998       L1     8  1.00
      P1  H  7997  8008       L1    13  0.21
      P1  H 10752 10763       L1    15  0.35

> <Gold.PLP.Chemscore.Internal.Correction>
0.0048

> <Gold.Rescore>
     Score         DG    S(hbond)    S(metal)    S(lipo)     H(rot)  DE(clash)    DE(int)     intcor
     11.87     -12.54       1.90        0.00      44.68       1.77       0.20       0.47       ----

> <Gold.Chemscore.Fitness>
11.8736

> <Gold.Chemscore.DG>
-12.5424

> <Gold.Chemscore.ZeroCoef>
-5.4800

> <Gold.Chemscore.Hbond>
1.9031

> <Gold.Chemscore.Metal>
0.0000

> <Gold.Chemscore.Lipo>
44.6803

> <Gold.Chemscore.Internal_Hbond>
0.0000

> <Gold.Chemscore.DEClash>
0.1976

> <Gold.Chemscore.DEInternal>
0.4711

> <Gold.Chemscore.Rot>
1.7663

> <Gold.Chemscore.Internal.Correction>
   9.000000E+99

> <Gold.Chemscore.Hbonds>
donor molecule, donor type, donor heavy atom, donor atom, acceptor molecule, acceptor atom, score
      L1  H     7    25       P1  8028  0.85
      P1  H  7989  7998       L1     8  0.37
      P1  H 10752 10763       L1    15  0.36

> <Gold.Chemscore.Hbond.Weighted>
-6.3565

> <Gold.Chemscore.Metal.Weighted>
-0.0000

> <Gold.Chemscore.Lipo.Weighted>
-5.2276

> <Gold.Chemscore.Internal_Hbond.Weighted>
0.0000

> <Gold.Chemscore.DEClash.Weighted>
0.1976

> <Gold.Chemscore.DEInternal.Weighted>
0.4711

> <Gold.Chemscore.Rot.Weighted>
4.5217

> <Gold.Chemscore.Internal.Correction.Weighted>
   9.000000E+99

> <Gold.Protein.RotatedTorsions>
[ 6907 6896 6895 6894 ] final  -48.83 input  -60.11 | X-H torsion
[ 7974 7965 7964 7962 ] final -102.42 input  175.53 | X-H torsion
[ 8008 7997 7996 7995 ] final  -82.84 input   59.86 | X-H torsion
[ 10167 10162 10161 10158 ] final   74.75 input  -65.29 | X-H torsion
[ 10718 10713 10712 10709 ] final -154.42 input   66.30 | X-H torsion
[ 10763 10752 10751 10750 ] final  118.90 input  -60.55 | X-H torsion
[ 11005 11000 10999 10996 ] final  -17.46 input  -57.11 | X-H torsion

> <Gold.Protein.ActiveResidues>
 VAL166  LYS551  ARG553  GLY616  TRP617  ASP618  TYR619  PRO620  LYS621  CYS622 
 ASP623  PHE694  ASN695  SER759  ASP760  ASP761  ALA762  ILE779  LEU786  VAL792 
 PHE793  MET794  SER795  GLU796  ALA797  LYS798  CYS799  TRP800  GLU811  SER814 

> <Gold.Protein.RotatedAtoms>
  150.8866  134.8264  159.7262 H   0  0  0  0  0  0  0  0  0  0  0  0  # atno 6907 bound_to 6896
  152.4811  134.4713  159.9646 H   0  0  0  0  0  0  0  0  0  0  0  0  # atno 6908 bound_to 6896
  151.4781  133.3514  159.2869 H   0  0  0  0  0  0  0  0  0  0  0  0  # atno 6909 bound_to 6896
  145.2690  140.9293  143.2997 H   0  0  0  0  0  0  0  0  0  0  0  0  # atno 7974 bound_to 7965
  154.6128  140.0627  156.9515 H   0  0  0  0  0  0  0  0  0  0  0  0  # atno 8008 bound_to 7997
  155.1945  140.3310  155.4334 H   0  0  0  0  0  0  0  0  0  0  0  0  # atno 8009 bound_to 7997
  156.2386  140.1875  156.7033 H   0  0  0  0  0  0  0  0  0  0  0  0  # atno 8010 bound_to 7997
  140.0104  144.5618  150.7663 H   0  0  0  0  0  0  0  0  0  0  0  0  # atno 10167 bound_to 10162
  156.4991  130.8383  151.2602 H   0  0  0  0  0  0  0  0  0  0  0  0  # atno 10718 bound_to 10713
  153.5747  135.3495  155.2852 H   0  0  0  0  0  0  0  0  0  0  0  0  # atno 10763 bound_to 10752
  154.8677  135.4168  154.2686 H   0  0  0  0  0  0  0  0  0  0  0  0  # atno 10764 bound_to 10752
  153.3459  135.7052  153.6898 H   0  0  0  0  0  0  0  0  0  0  0  0  # atno 10765 bound_to 10752
  140.8171  133.8097  155.9621 H   0  0  0  0  0  0  0  0  0  0  0  0  # atno 11005 bound_to 11000
  144.9352  139.4252  143.6476 LP  0  0  0  0  0  0  0  0  0  0  0  0  # atno 17320 bound_to 7965
  146.3252  139.8283  142.8913 LP  0  0  0  0  0  0  0  0  0  0  0  0  # atno 17321 bound_to 7965
  140.7384  143.2777  151.3691 LP  0  0  0  0  0  0  0  0  0  0  0  0  # atno 17342 bound_to 10162
  139.6209  144.0909  152.2390 LP  0  0  0  0  0  0  0  0  0  0  0  0  # atno 17343 bound_to 10162
  157.7465  130.9988  150.2865 LP  0  0  0  0  0  0  0  0  0  0  0  0  # atno 17370 bound_to 10713
  156.3351  130.3806  149.7457 LP  0  0  0  0  0  0  0  0  0  0  0  0  # atno 17371 bound_to 10713
  140.9138  134.2227  157.4969 LP  0  0  0  0  0  0  0  0  0  0  0  0  # atno 17394 bound_to 11000
  139.8710  134.9762  156.4911 LP  0  0  0  0  0  0  0  0  0  0  0  0  # atno 17395 bound_to 11000

$$$$
