AV-unprocessed.smi:2177|AV-procd|sdf|8849|dock2
  -GOLD-   2272012 43D 1   1.00000     0.00000
 Structure written by MMmdl.
 42 43  0  0  0  0  0  0  0  0  1 V2000
  151.6686  138.3538  155.0064 C   0  0  0  0  0  0  0  0  0  0  0  0
  150.3716  139.0843  154.8059 C   0  0  0  0  0  0  0  0  0  0  0  0
  149.3851  138.4923  154.1535 N   0  0  0  0  0  0  0  0  0  0  0  0
  148.3884  139.3997  154.1395 N   0  0  0  0  0  0  0  0  0  0  0  0
  147.1366  139.0668  153.4877 C   0  0  0  0  0  0  0  0  0  0  0  0
  148.7432  140.5651  154.7911 C   0  0  0  0  0  0  0  0  0  0  0  0
  147.8096  141.7268  154.9100 C   0  0  0  0  0  0  0  0  0  0  0  0
  150.0276  140.3990  155.2369 C   0  0  0  0  0  0  0  0  0  0  0  0
  150.8988  141.3659  155.9993 C   0  0  0  0  0  0  0  0  0  0  0  0
  151.1013  140.8646  157.4294 C   0  0  0  0  0  0  0  0  0  0  0  0
  150.3124  140.0537  157.9138 O   0  0  0  0  0  0  0  0  0  0  0  0
  152.1624  141.3568  158.0886 N   0  0  0  0  0  0  0  0  0  0  0  0
  152.5644  141.0056  159.4476 C   0  0  1  0  0  0  0  0  0  0  0  0
  153.7223  139.9993  159.3646 C   0  0  0  0  0  0  0  0  0  0  0  0
  152.9503  142.2801  160.2260 C   0  0  2  0  0  0  0  0  0  0  0  0
  153.3869  142.0393  161.6720 C   0  0  0  0  0  0  0  0  0  0  0  0
  153.0895  143.3605  162.3638 C   0  0  0  0  0  0  0  0  0  0  0  0
  152.1658  144.0934  161.3876 C   0  0  0  0  0  0  0  0  0  0  0  0
  151.8253  143.1273  160.4039 O   0  0  0  0  0  0  0  0  0  0  0  0
  152.5102  138.9531  154.6585 H   0  0  0  0  0  0  0  0  0  0  0  0
  151.6901  137.4083  154.4636 H   0  0  0  0  0  0  0  0  0  0  0  0
  151.8319  138.1345  156.0615 H   0  0  0  0  0  0  0  0  0  0  0  0
  146.3858  138.8275  154.2408 H   0  0  0  0  0  0  0  0  0  0  0  0
  147.2645  138.2079  152.8275 H   0  0  0  0  0  0  0  0  0  0  0  0
  146.7907  139.9134  152.8944 H   0  0  0  0  0  0  0  0  0  0  0  0
  148.1999  142.4817  155.5917 H   0  0  0  0  0  0  0  0  0  0  0  0
  146.8379  141.4088  155.2879 H   0  0  0  0  0  0  0  0  0  0  0  0
  147.6585  142.1997  153.9397 H   0  0  0  0  0  0  0  0  0  0  0  0
  151.8728  141.4936  155.5264 H   0  0  0  0  0  0  0  0  0  0  0  0
  150.4503  142.3595  156.0304 H   0  0  0  0  0  0  0  0  0  0  0  0
  152.7478  142.0198  157.6021 H   0  0  0  0  0  0  0  0  0  0  0  0
  151.7360  140.5152  159.9619 H   0  0  0  0  0  0  0  0  0  0  0  0
  154.0250  139.6571  160.3542 H   0  0  0  0  0  0  0  0  0  0  0  0
  154.5963  140.4380  158.8819 H   0  0  0  0  0  0  0  0  0  0  0  0
  153.4335  139.1177  158.7915 H   0  0  0  0  0  0  0  0  0  0  0  0
  153.7259  142.8331  159.6920 H   0  0  0  0  0  0  0  0  0  0  0  0
  152.7819  141.2509  162.1215 H   0  0  0  0  0  0  0  0  0  0  0  0
  154.4340  141.7468  161.7529 H   0  0  0  0  0  0  0  0  0  0  0  0
  152.6095  143.1956  163.3287 H   0  0  0  0  0  0  0  0  0  0  0  0
  153.9997  143.9360  162.5354 H   0  0  0  0  0  0  0  0  0  0  0  0
  151.2735  144.4908  161.8718 H   0  0  0  0  0  0  0  0  0  0  0  0
  152.6917  144.9212  160.9101 H   0  0  0  0  0  0  0  0  0  0  0  0
  1  2  1  0  0  0  0
  1 20  1  0  0  0  0
  1 21  1  0  0  0  0
  1 22  1  0  0  0  0
  2  8  1  0  0  0  0
  2  3  2  0  0  0  0
  3  4  1  0  0  0  0
  4  5  1  0  0  0  0
  4  6  1  0  0  0  0
  5 23  1  0  0  0  0
  5 24  1  0  0  0  0
  5 25  1  0  0  0  0
  6  7  1  0  0  0  0
  6  8  2  0  0  0  0
  7 26  1  0  0  0  0
  7 27  1  0  0  0  0
  7 28  1  0  0  0  0
  8  9  1  0  0  0  0
  9 10  1  0  0  0  0
  9 29  1  0  0  0  0
  9 30  1  0  0  0  0
 10 11  2  0  0  0  0
 10 12  1  0  0  0  0
 12 13  1  0  0  0  0
 12 31  1  0  0  0  0
 13 14  1  0  0  0  0
 13 15  1  0  0  0  0
 13 32  1  0  0  0  0
 14 33  1  0  0  0  0
 14 34  1  0  0  0  0
 14 35  1  0  0  0  0
 15 19  1  0  0  0  0
 15 16  1  0  0  0  0
 15 36  1  0  0  0  0
 16 17  1  0  0  0  0
 16 37  1  0  0  0  0
 16 38  1  0  0  0  0
 17 18  1  0  0  0  0
 17 39  1  0  0  0  0
 17 40  1  0  0  0  0
 18 19  1  0  0  0  0
 18 41  1  0  0  0  0
 18 42  1  0  0  0  0
M  END
> <s_m_source_file>
AV-unprocessed.smi

> <i_m_source_file_index>
2177

> <i_lp_mmshare_version>
43012

> <i_f3d_flags>
0

> <s_epik_input>
W0NIM11jMW5uKFtDSDNdKWMoW0NIM10pYzFbQ0gyXUMoPU8pW05IXVtDQEhdKFtDSDNdKVtDQEBIXTJbQ0gyXVtDSDJdW0NIMl1PMg==

> <s_epik_cmdline>
J2VwaWtfcHl0aG9uJywgJy1waCcsICc3LjAnLCAnLXRuJywgJzgnLCAnLW1hJywgJzIwMCcsICctbWV0YWxfYmluZGluZycsICctaW1hZScsICc8aW5maWxlLm1hZT4nLCAnLW9tYWUnLCAnPG91dGZpbGUubWFlPic=

> <r_lp_tautomer_probability>
1

> <r_epik_Ionization_Penalty>
0.00310467

> <r_epik_Ionization_Penalty_Charging>
0

> <r_epik_Ionization_Penalty_Neutral>
0.00310467

> <r_epik_State_Penalty>
0.00218493

> <r_epik_Charging_Adjusted_Penalty>
0.00218493

> <i_epik_Tot_Q>
0

> <i_epik_Tot_abs_Q>
0

> <r_epik_Metal_State_Penalty>
-0

> <b_epik_Metal_Only>
0

> <s_lp_Force_Field>
OPLS_2005

> <r_lp_Energy>
13.1065

> <b_lp_Chiralities_Consistent>
1

> <s_lp_Variant>
AV-unprocessed.smi:2177-2

> <Gold.Version>
5.8.1

> <Gold.Id.Protein>
6NUR|6NUR_protein|mol2

> <Gold.PLP.Fitness>
41.6431

> <Gold.PLP.PLP>
-42.8651

> <Gold.PLP.part.hbond>
-0.2199

> <Gold.PLP.part.metal>
0.0000

> <Gold.PLP.part.buried>
-2.6191

> <Gold.PLP.part.nonpolar>
-38.6968

> <Gold.PLP.part.repulsive>
0.4947

> <Gold.PLP.ligand.clash>
0.0000

> <Gold.PLP.ligand.torsion>
0.6341

> <Gold.PLP.Chemscore.Hbond>
0.0000

> <Gold.PLP.Chemscore.CHOScore>
0.0000

> <Gold.PLP.Chemscore.Metal>
0.0000

> <Gold.PLP.Chemscore.Internal.Correction>
0.0462

> <Gold.Rescore>
     Score         DG    S(hbond)    S(metal)    S(lipo)     H(rot)  DE(clash)    DE(int)     intcor
     13.90     -14.76       0.00        0.00     111.32       1.46       0.11       0.75       ----

> <Gold.Chemscore.Fitness>
13.9048

> <Gold.Chemscore.DG>
-14.7600

> <Gold.Chemscore.ZeroCoef>
-5.4800

> <Gold.Chemscore.Hbond>
0.0000

> <Gold.Chemscore.Metal>
0.0000

> <Gold.Chemscore.Lipo>
111.3203

> <Gold.Chemscore.Internal_Hbond>
0.0000

> <Gold.Chemscore.DEClash>
0.1065

> <Gold.Chemscore.DEInternal>
0.7487

> <Gold.Chemscore.Rot>
1.4627

> <Gold.Chemscore.Internal.Correction>
   9.000000E+99

> <Gold.Chemscore.Hbond.Weighted>
-0.0000

> <Gold.Chemscore.Metal.Weighted>
-0.0000

> <Gold.Chemscore.Lipo.Weighted>
-13.0245

> <Gold.Chemscore.Internal_Hbond.Weighted>
0.0000

> <Gold.Chemscore.DEClash.Weighted>
0.1065

> <Gold.Chemscore.DEInternal.Weighted>
0.7487

> <Gold.Chemscore.Rot.Weighted>
3.7445

> <Gold.Chemscore.Internal.Correction.Weighted>
   9.000000E+99

> <Gold.Protein.RotatedTorsions>
[ 6907 6896 6895 6894 ] final -144.10 input  -60.11 | X-H torsion
[ 7974 7965 7964 7962 ] final -150.11 input  175.53 | X-H torsion
[ 8008 7997 7996 7995 ] final   45.37 input   59.86 | X-H torsion
[ 10167 10162 10161 10158 ] final  126.02 input  -65.29 | X-H torsion
[ 10718 10713 10712 10709 ] final  179.42 input   66.30 | X-H torsion
[ 10763 10752 10751 10750 ] final -124.66 input  -60.55 | X-H torsion
[ 11005 11000 10999 10996 ] final  141.93 input  -57.11 | X-H torsion

> <Gold.Protein.ActiveResidues>
 VAL166  LYS551  ARG553  GLY616  TRP617  ASP618  TYR619  PRO620  LYS621  CYS622 
 ASP623  PHE694  ASN695  SER759  ASP760  ASP761  ALA762  ILE779  LEU786  VAL792 
 PHE793  MET794  SER795  GLU796  ALA797  LYS798  CYS799  TRP800  GLU811  SER814 

> <Gold.Protein.RotatedAtoms>
  151.1094  133.5184  159.2606 H   0  0  0  0  0  0  0  0  0  0  0  0  # atno 6907 bound_to 6896
  151.1984  135.0431  159.8872 H   0  0  0  0  0  0  0  0  0  0  0  0  # atno 6908 bound_to 6896
  152.5449  134.0926  159.8336 H   0  0  0  0  0  0  0  0  0  0  0  0  # atno 6909 bound_to 6896
  144.7927  140.4975  143.5761 H   0  0  0  0  0  0  0  0  0  0  0  0  # atno 7974 bound_to 7965
  155.3347  140.3404  155.4239 H   0  0  0  0  0  0  0  0  0  0  0  0  # atno 8008 bound_to 7997
  156.1844  140.1675  156.8250 H   0  0  0  0  0  0  0  0  0  0  0  0  # atno 8009 bound_to 7997
  154.5369  140.0733  156.8426 H   0  0  0  0  0  0  0  0  0  0  0  0  # atno 8010 bound_to 7997
  139.5653  144.6907  151.3927 H   0  0  0  0  0  0  0  0  0  0  0  0  # atno 10167 bound_to 10162
  156.8760  130.9800  151.3068 H   0  0  0  0  0  0  0  0  0  0  0  0  # atno 10718 bound_to 10713
  154.8726  135.4056  154.3142 H   0  0  0  0  0  0  0  0  0  0  0  0  # atno 10763 bound_to 10752
  153.3981  135.7017  153.6451 H   0  0  0  0  0  0  0  0  0  0  0  0  # atno 10764 bound_to 10752
  153.5205  135.3688  155.2601 H   0  0  0  0  0  0  0  0  0  0  0  0  # atno 10765 bound_to 10752
  140.0438  134.9291  157.0893 H   0  0  0  0  0  0  0  0  0  0  0  0  # atno 11005 bound_to 11000
  145.5753  139.1485  143.3266 LP  0  0  0  0  0  0  0  0  0  0  0  0  # atno 17320 bound_to 7965
  146.2185  140.5885  142.9028 LP  0  0  0  0  0  0  0  0  0  0  0  0  # atno 17321 bound_to 7965
  140.6936  143.7802  150.7293 LP  0  0  0  0  0  0  0  0  0  0  0  0  # atno 17342 bound_to 10162
  140.1291  143.4542  152.2265 LP  0  0  0  0  0  0  0  0  0  0  0  0  # atno 17343 bound_to 10162
  157.6168  130.8624  149.9042 LP  0  0  0  0  0  0  0  0  0  0  0  0  # atno 17370 bound_to 10713
  156.0702  130.3686  150.0793 LP  0  0  0  0  0  0  0  0  0  0  0  0  # atno 17371 bound_to 10713
  140.4026  134.2067  155.7163 LP  0  0  0  0  0  0  0  0  0  0  0  0  # atno 17394 bound_to 11000
  141.1897  133.8233  157.0948 LP  0  0  0  0  0  0  0  0  0  0  0  0  # atno 17395 bound_to 11000

$$$$
