AV-unprocessed.smi:3315|AV-procd|sdf|12751|dock3
  -GOLD-   2272019 93D 1   1.00000     0.00000
 Structure written by MMmdl.
 37 38  0  0  0  0  0  0  0  0  1 V2000
  145.8123  131.2222  151.1203 C   0  0  0  0  0  0  0  0  0  0  0  0
  144.6375  131.8108  151.6653 O   0  0  0  0  0  0  0  0  0  0  0  0
  144.0134  132.8585  150.9099 C   0  0  1  0  0  0  0  0  0  0  0  0
  143.9978  132.5076  149.4168 C   0  0  0  0  0  0  0  0  0  0  0  0
  142.7067  133.3047  151.5940 C   0  0  0  0  0  0  0  0  0  0  0  0
  143.5658  134.1937  152.4906 C   0  0  2  0  0  0  0  0  0  0  0  0
  142.9322  135.4752  152.7834 N   0  0  0  0  0  0  0  0  0  0  0  0
  141.7481  135.6108  153.3961 C   0  0  0  0  0  0  0  0  0  0  0  0
  141.0675  134.6577  153.7760 O   0  0  0  0  0  0  0  0  0  0  0  0
  141.4166  136.9055  153.5377 N   0  0  0  0  0  0  0  0  0  0  0  0
  140.2543  137.4373  154.1522 C   0  0  0  0  0  0  0  0  0  0  0  0
  139.0571  136.6768  154.2278 C   0  0  0  0  0  0  0  0  0  0  0  0
  138.2005  137.5235  154.8721 C   0  0  0  0  0  0  0  0  0  0  0  0
  138.8166  138.6995  155.1654 O   0  0  0  0  0  0  0  0  0  0  0  0
  140.1358  138.6377  154.7002 N   0  0  0  0  0  0  0  0  0  0  0  0
  144.6262  134.2258  151.3595 C   0  0  0  0  0  0  0  0  0  0  0  0
  146.0901  134.2046  151.8135 C   0  0  0  0  0  0  0  0  0  0  0  0
  144.5210  135.3795  150.3440 C   0  0  0  0  0  0  0  0  0  0  0  0
  146.0881  130.3578  151.7238 H   0  0  0  0  0  0  0  0  0  0  0  0
  146.6563  131.9111  151.1431 H   0  0  0  0  0  0  0  0  0  0  0  0
  145.6690  130.8768  150.0972 H   0  0  0  0  0  0  0  0  0  0  0  0
  143.6268  133.3328  148.8101 H   0  0  0  0  0  0  0  0  0  0  0  0
  143.3465  131.6605  149.2032 H   0  0  0  0  0  0  0  0  0  0  0  0
  144.9971  132.2615  149.0575 H   0  0  0  0  0  0  0  0  0  0  0  0
  142.0493  133.8631  150.9252 H   0  0  0  0  0  0  0  0  0  0  0  0
  142.1543  132.5335  152.1293 H   0  0  0  0  0  0  0  0  0  0  0  0
  143.9081  133.6569  153.3787 H   0  0  0  0  0  0  0  0  0  0  0  0
  143.4282  136.3078  152.5010 H   0  0  0  0  0  0  0  0  0  0  0  0
  142.0680  137.5837  153.1715 H   0  0  0  0  0  0  0  0  0  0  0  0
  138.8565  135.6777  153.8707 H   0  0  0  0  0  0  0  0  0  0  0  0
  137.1687  137.4407  155.1801 H   0  0  0  0  0  0  0  0  0  0  0  0
  146.4126  135.1811  152.1766 H   0  0  0  0  0  0  0  0  0  0  0  0
  146.7556  133.9190  150.9986 H   0  0  0  0  0  0  0  0  0  0  0  0
  146.2548  133.5004  152.6291 H   0  0  0  0  0  0  0  0  0  0  0  0
  144.8003  136.3349  150.7893 H   0  0  0  0  0  0  0  0  0  0  0  0
  143.5097  135.4946  149.9538 H   0  0  0  0  0  0  0  0  0  0  0  0
  145.1794  135.2199  149.4895 H   0  0  0  0  0  0  0  0  0  0  0  0
  1  2  1  0  0  0  0
  1 19  1  0  0  0  0
  1 20  1  0  0  0  0
  1 21  1  0  0  0  0
  2  3  1  0  0  0  0
  3 16  1  0  0  0  0
  3  4  1  0  0  0  0
  3  5  1  0  0  0  0
  4 22  1  0  0  0  0
  4 23  1  0  0  0  0
  4 24  1  0  0  0  0
  5  6  1  0  0  0  0
  5 25  1  0  0  0  0
  5 26  1  0  0  0  0
  6  7  1  0  0  0  0
  6 16  1  0  0  0  0
  6 27  1  0  0  0  0
  7  8  1  0  0  0  0
  7 28  1  0  0  0  0
  8  9  2  0  0  0  0
  8 10  1  0  0  0  0
 10 11  1  0  0  0  0
 10 29  1  0  0  0  0
 11 15  2  0  0  0  0
 11 12  1  0  0  0  0
 12 13  2  0  0  0  0
 12 30  1  0  0  0  0
 13 14  1  0  0  0  0
 13 31  1  0  0  0  0
 14 15  1  0  0  0  0
 16 17  1  0  0  0  0
 16 18  1  0  0  0  0
 17 32  1  0  0  0  0
 17 33  1  0  0  0  0
 17 34  1  0  0  0  0
 18 35  1  0  0  0  0
 18 36  1  0  0  0  0
 18 37  1  0  0  0  0
M  END
> <s_m_source_file>
AV-unprocessed.smi

> <i_m_source_file_index>
3315

> <i_lp_mmshare_version>
43012

> <i_f3d_flags>
0

> <s_epik_input>
W0NIM11PW0NAQF0xKFtDSDNdKVtDSDJdW0NASF0oQzEoW0NIM10pW0NIM10pW05IXUMoPU8pW05IXWMyW2NIXVtjSF1vbjI=

> <s_epik_cmdline>
J2VwaWtfcHl0aG9uJywgJy1waCcsICc3LjAnLCAnLXRuJywgJzgnLCAnLW1hJywgJzIwMCcsICctbWV0YWxfYmluZGluZycsICctaW1hZScsICc8aW5maWxlLm1hZT4nLCAnLW9tYWUnLCAnPG91dGZpbGUubWFlPic=

> <r_lp_tautomer_probability>
1

> <r_epik_Ionization_Penalty>
2.28875e-05

> <r_epik_Ionization_Penalty_Charging>
0

> <r_epik_Ionization_Penalty_Neutral>
2.28875e-05

> <r_epik_State_Penalty>
-0

> <r_epik_Charging_Adjusted_Penalty>
0

> <i_epik_Tot_Q>
0

> <i_epik_Tot_abs_Q>
0

> <r_epik_Metal_State_Penalty>
-0

> <b_epik_Metal_Only>
0

> <s_lp_Force_Field>
OPLS_2005

> <r_lp_Energy>
22.1239

> <b_lp_Chiralities_Consistent>
1

> <s_lp_Variant>
AV-unprocessed.smi:3315-3

> <Gold.Version>
5.8.1

> <Gold.Id.Protein>
6NUR|6NUR_protein|mol2

> <Gold.PLP.Fitness>
34.4415

> <Gold.PLP.PLP>
-32.2165

> <Gold.PLP.part.hbond>
-1.5820

> <Gold.PLP.part.metal>
0.0000

> <Gold.PLP.part.buried>
-3.9143

> <Gold.PLP.part.nonpolar>
-26.8741

> <Gold.PLP.part.repulsive>
0.4037

> <Gold.PLP.ligand.clash>
0.0000

> <Gold.PLP.ligand.torsion>
0.5615

> <Gold.PLP.Chemscore.Hbond>
0.9913

> <Gold.PLP.Chemscore.CHOScore>
0.0000

> <Gold.PLP.Chemscore.Metal>
0.0000

> <Gold.Chemscore.Hbonds>
donor molecule, donor type, donor heavy atom, donor atom, acceptor molecule, acceptor atom, score
      P1  H 11000 11005       L1     9  0.86

> <Gold.PLP.Chemscore.Internal.Correction>
0.3742

> <Gold.Rescore>
     Score         DG    S(hbond)    S(metal)    S(lipo)     H(rot)  DE(clash)    DE(int)     intcor
     11.43     -13.61       0.98        0.00      70.10       1.30       0.13       2.06       ----

> <Gold.Chemscore.Fitness>
11.4259

> <Gold.Chemscore.DG>
-13.6132

> <Gold.Chemscore.ZeroCoef>
-5.4800

> <Gold.Chemscore.Hbond>
0.9789

> <Gold.Chemscore.Metal>
0.0000

> <Gold.Chemscore.Lipo>
70.0979

> <Gold.Chemscore.Internal_Hbond>
0.0000

> <Gold.Chemscore.DEClash>
0.1267

> <Gold.Chemscore.DEInternal>
2.0606

> <Gold.Chemscore.Rot>
1.3038

> <Gold.Chemscore.Internal.Correction>
   9.000000E+99

> <Gold.Chemscore.Hbonds>
donor molecule, donor type, donor heavy atom, donor atom, acceptor molecule, acceptor atom, score
      P1  H 11000 11005       L1     9  0.84

> <Gold.Chemscore.Hbond.Weighted>
-3.2695

> <Gold.Chemscore.Metal.Weighted>
-0.0000

> <Gold.Chemscore.Lipo.Weighted>
-8.2015

> <Gold.Chemscore.Internal_Hbond.Weighted>
0.0000

> <Gold.Chemscore.DEClash.Weighted>
0.1267

> <Gold.Chemscore.DEInternal.Weighted>
2.0606

> <Gold.Chemscore.Rot.Weighted>
3.3377

> <Gold.Chemscore.Internal.Correction.Weighted>
   9.000000E+99

> <Gold.Protein.RotatedTorsions>
[ 6907 6896 6895 6894 ] final -115.27 input  -60.11 | X-H torsion
[ 7974 7965 7964 7962 ] final   39.67 input  175.53 | X-H torsion
[ 8008 7997 7996 7995 ] final  -41.58 input   59.86 | X-H torsion
[ 10167 10162 10161 10158 ] final  -59.10 input  -65.29 | X-H torsion
[ 10718 10713 10712 10709 ] final -149.14 input   66.30 | X-H torsion
[ 10763 10752 10751 10750 ] final  102.01 input  -60.55 | X-H torsion
[ 11005 11000 10999 10996 ] final   20.85 input  -57.11 | X-H torsion

> <Gold.Protein.ActiveResidues>
 VAL166  LYS551  ARG553  GLY616  TRP617  ASP618  TYR619  PRO620  LYS621  CYS622 
 ASP623  PHE694  ASN695  SER759  ASP760  ASP761  ALA762  ILE779  LEU786  VAL792 
 PHE793  MET794  SER795  GLU796  ALA797  LYS798  CYS799  TRP800  GLU811  SER814 

> <Gold.Protein.RotatedAtoms>
  150.7965  133.8682  159.3251 H   0  0  0  0  0  0  0  0  0  0  0  0  # atno 6907 bound_to 6896
  151.6506  135.1000  160.0169 H   0  0  0  0  0  0  0  0  0  0  0  0  # atno 6908 bound_to 6896
  152.4047  133.6832  159.6381 H   0  0  0  0  0  0  0  0  0  0  0  0  # atno 6909 bound_to 6896
  146.0966  139.5624  142.9441 H   0  0  0  0  0  0  0  0  0  0  0  0  # atno 7974 bound_to 7965
  154.4003  140.1495  156.3215 H   0  0  0  0  0  0  0  0  0  0  0  0  # atno 8008 bound_to 7997
  155.8525  140.3457  155.5681 H   0  0  0  0  0  0  0  0  0  0  0  0  # atno 8009 bound_to 7997
  155.7968  140.0864  157.1969 H   0  0  0  0  0  0  0  0  0  0  0  0  # atno 8010 bound_to 7997
  140.6156  143.2401  151.5605 H   0  0  0  0  0  0  0  0  0  0  0  0  # atno 10167 bound_to 10162
  156.4293  130.8068  151.2294 H   0  0  0  0  0  0  0  0  0  0  0  0  # atno 10718 bound_to 10713
  153.3340  135.4025  155.1519 H   0  0  0  0  0  0  0  0  0  0  0  0  # atno 10763 bound_to 10752
  154.8629  135.3617  154.5432 H   0  0  0  0  0  0  0  0  0  0  0  0  # atno 10764 bound_to 10752
  153.5873  135.7075  153.5497 H   0  0  0  0  0  0  0  0  0  0  0  0  # atno 10765 bound_to 10752
  140.3980  134.1748  155.7663 H   0  0  0  0  0  0  0  0  0  0  0  0  # atno 11005 bound_to 11000
  145.5937  141.0366  143.2056 LP  0  0  0  0  0  0  0  0  0  0  0  0  # atno 17320 bound_to 7965
  144.7400  139.7476  143.7314 LP  0  0  0  0  0  0  0  0  0  0  0  0  # atno 17321 bound_to 7965
  139.5396  144.2685  152.1323 LP  0  0  0  0  0  0  0  0  0  0  0  0  # atno 17342 bound_to 10162
  140.1893  144.4767  150.6487 LP  0  0  0  0  0  0  0  0  0  0  0  0  # atno 17343 bound_to 10162
  157.7508  131.0203  150.3703 LP  0  0  0  0  0  0  0  0  0  0  0  0  # atno 17370 bound_to 10713
  156.4037  130.3921  149.6941 LP  0  0  0  0  0  0  0  0  0  0  0  0  # atno 17371 bound_to 10713
  141.1867  133.8297  157.1059 LP  0  0  0  0  0  0  0  0  0  0  0  0  # atno 17394 bound_to 11000
  140.0357  134.9879  157.0866 LP  0  0  0  0  0  0  0  0  0  0  0  0  # atno 17395 bound_to 11000

$$$$
