AV-unprocessed.smi:1870|AV-procd|sdf|7593|dock1
  -GOLD-   22720 9303D 1   1.00000     0.00000
 Structure written by MMmdl.
 48 50  0  0  0  0  0  0  0  0  2 V2000
  147.8218  132.2492  158.7139 C   0  0  0  0  0  0  0  0  0  0  0  0
  147.8286  133.5492  159.4722 C   0  0  0  0  0  0  0  0  0  0  0  0
  147.9622  134.6277  158.7722 N   0  0  0  0  0  0  0  0  0  0  0  0
  147.9757  135.8747  159.3665 N   0  0  0  0  0  0  0  0  0  0  0  0
  148.1511  136.9857  158.4229 C   0  0  0  0  0  0  0  0  0  0  0  0
  149.6424  137.3282  158.2100 C   0  0  2  0  0  0  0  0  0  0  0  0
  150.4066  136.6402  159.1817 O   0  0  0  0  0  0  0  0  0  0  0  0
  149.9120  138.8344  158.4072 C   0  0  0  0  0  0  0  0  0  0  0  0
  151.0027  139.3539  157.5357 N   0  3  1  0  0  0  0  0  0  0  0  0
  150.6976  140.6154  156.8124 C   0  0  0  0  0  0  0  0  0  0  0  0
  150.5354  141.8016  157.7785 C   0  0  0  0  0  0  0  0  0  0  0  0
  151.6318  141.8528  158.8303 C   0  0  0  0  0  0  0  0  0  0  0  0
  151.8045  143.0215  159.6004 C   0  0  0  0  0  0  0  0  0  0  0  0
  152.7881  143.0682  160.6065 C   0  0  0  0  0  0  0  0  0  0  0  0
  153.5998  141.9442  160.8500 C   0  0  0  0  0  0  0  0  0  0  0  0
  153.4308  140.7743  160.0850 C   0  0  0  0  0  0  0  0  0  0  0  0
  152.4497  140.7213  159.0730 C   0  0  0  0  0  0  0  0  0  0  0  0
  152.3095  139.4556  158.2339 C   0  0  0  0  0  0  0  0  0  0  0  0
  147.8604  136.0969  160.7067 C   0  0  0  0  0  0  0  0  0  0  0  0
  147.8914  137.2270  161.1956 O   0  0  0  0  0  0  0  0  0  0  0  0
  147.7087  134.8715  161.4942 C   0  0  0  0  0  0  0  0  0  0  0  0
  147.5768  135.0596  162.9030 C   0  0  0  0  0  0  0  0  0  0  0  0
  147.4515  135.2068  164.0442 N   0  0  0  0  0  0  0  0  0  0  0  0
  147.6964  133.6412  160.9228 C   0  0  0  0  0  0  0  0  0  0  0  0
  147.5445  132.3400  161.6989 C   0  0  0  0  0  0  0  0  0  0  0  0
  148.7339  131.6852  158.9086 H   0  0  0  0  0  0  0  0  0  0  0  0
  147.7536  132.4078  157.6368 H   0  0  0  0  0  0  0  0  0  0  0  0
  146.9728  131.6313  159.0061 H   0  0  0  0  0  0  0  0  0  0  0  0
  147.7128  136.6825  157.4699 H   0  0  0  0  0  0  0  0  0  0  0  0
  147.5791  137.8676  158.7187 H   0  0  0  0  0  0  0  0  0  0  0  0
  149.9485  137.0136  157.2128 H   0  0  0  0  0  0  0  0  0  0  0  0
  150.6185  137.2416  159.8806 H   0  0  0  0  0  0  0  0  0  0  0  0
  149.0003  139.4092  158.2450 H   0  0  0  0  0  0  0  0  0  0  0  0
  150.1819  138.9986  159.4518 H   0  0  0  0  0  0  0  0  0  0  0  0
  151.5269  140.8182  156.1332 H   0  0  0  0  0  0  0  0  0  0  0  0
  149.8184  140.5118  156.1778 H   0  0  0  0  0  0  0  0  0  0  0  0
  150.5313  142.7351  157.2148 H   0  0  0  0  0  0  0  0  0  0  0  0
  149.5728  141.7477  158.2876 H   0  0  0  0  0  0  0  0  0  0  0  0
  151.1782  143.8844  159.4255 H   0  0  0  0  0  0  0  0  0  0  0  0
  152.9176  143.9651  161.1941 H   0  0  0  0  0  0  0  0  0  0  0  0
  154.3543  141.9803  161.6221 H   0  0  0  0  0  0  0  0  0  0  0  0
  154.0631  139.9187  160.2731 H   0  0  0  0  0  0  0  0  0  0  0  0
  152.4872  138.5719  158.8484 H   0  0  0  0  0  0  0  0  0  0  0  0
  153.1000  139.4674  157.4825 H   0  0  0  0  0  0  0  0  0  0  0  0
  147.6173  132.4928  162.7752 H   0  0  0  0  0  0  0  0  0  0  0  0
  148.3226  131.6282  161.4218 H   0  0  0  0  0  0  0  0  0  0  0  0
  146.5743  131.8874  161.4926 H   0  0  0  0  0  0  0  0  0  0  0  0
  151.1281  138.6427  156.8291 H   0  0  0  0  0  0  0  0  0  0  0  0
  1  2  1  0  0  0  0
  1 26  1  0  0  0  0
  1 27  1  0  0  0  0
  1 28  1  0  0  0  0
  2 24  1  0  0  0  0
  2  3  2  0  0  0  0
  3  4  1  0  0  0  0
  4  5  1  0  0  0  0
  4 19  1  0  0  0  0
  5  6  1  0  0  0  0
  5 29  1  0  0  0  0
  5 30  1  0  0  0  0
  6  7  1  0  0  0  0
  6  8  1  0  0  0  0
  6 31  1  0  0  0  0
  7 32  1  0  0  0  0
  8  9  1  0  0  0  0
  8 33  1  0  0  0  0
  8 34  1  0  0  0  0
  9 18  1  0  0  0  0
  9 10  1  0  0  0  0
  9 48  1  0  0  0  0
 10 11  1  0  0  0  0
 10 35  1  0  0  0  0
 10 36  1  0  0  0  0
 11 12  1  0  0  0  0
 11 37  1  0  0  0  0
 11 38  1  0  0  0  0
 12 17  2  0  0  0  0
 12 13  1  0  0  0  0
 13 14  2  0  0  0  0
 13 39  1  0  0  0  0
 14 15  1  0  0  0  0
 14 40  1  0  0  0  0
 15 16  2  0  0  0  0
 15 41  1  0  0  0  0
 16 17  1  0  0  0  0
 16 42  1  0  0  0  0
 17 18  1  0  0  0  0
 18 43  1  0  0  0  0
 18 44  1  0  0  0  0
 19 20  2  0  0  0  0
 19 21  1  0  0  0  0
 21 22  1  0  0  0  0
 21 24  2  0  0  0  0
 22 23  3  0  0  0  0
 24 25  1  0  0  0  0
 25 45  1  0  0  0  0
 25 46  1  0  0  0  0
 25 47  1  0  0  0  0
M  CHG  1   9   1
M  END
> <s_m_source_file>
AV-unprocessed.smi

> <i_m_source_file_index>
1870

> <i_lp_mmshare_version>
43012

> <i_f3d_flags>
0

> <s_epik_input>
TiNDYyhjMVtDSDNdKWMoPU8pbihuYzFbQ0gzXSlbQ0gyXVtDQEhdKFtPSF0pW0NIMl1OKFtDSDJdW0NIMl0yKVtDSDJdYyhjMjMpW2NIXVtjSF1bY0hdW2NIXTM=

> <s_epik_cmdline>
J2VwaWtfcHl0aG9uJywgJy1waCcsICc3LjAnLCAnLXRuJywgJzgnLCAnLW1hJywgJzIwMCcsICctbWV0YWxfYmluZGluZycsICctaW1hZScsICc8aW5maWxlLm1hZT4nLCAnLW9tYWUnLCAnPG91dGZpbGUubWFlPic=

> <r_epik_Ionization_Penalty>
0.0122865

> <r_epik_Ionization_Penalty_Charging>
0.0122864

> <r_epik_Ionization_Penalty_Neutral>
1.48087e-07

> <r_epik_State_Penalty>
0.00950248

> <r_epik_Charging_Adjusted_Penalty>
0.0217889

> <i_epik_Tot_Q>
1

> <i_epik_Tot_abs_Q>
1

> <r_epik_Metal_State_Penalty>
0.00950248

> <b_epik_Metal_Only>
0

> <s_lp_Force_Field>
OPLS_2005

> <r_lp_Energy>
39.8007

> <b_lp_Chiralities_Consistent>
1

> <s_lp_Variant>
AV-unprocessed.smi:1870-1

> <Gold.Version>
5.8.1

> <Gold.Id.Protein>
6NUR|6NUR_protein|mol2

> <Gold.PLP.Fitness>
48.2081

> <Gold.PLP.PLP>
-43.8601

> <Gold.PLP.part.hbond>
-5.0000

> <Gold.PLP.part.metal>
0.0000

> <Gold.PLP.part.buried>
-3.2951

> <Gold.PLP.part.nonpolar>
-36.0369

> <Gold.PLP.part.repulsive>
0.1139

> <Gold.PLP.ligand.clash>
0.0000

> <Gold.PLP.ligand.torsion>
2.1196

> <Gold.PLP.Chemscore.Hbond>
2.8459

> <Gold.PLP.Chemscore.CHOScore>
0.0000

> <Gold.PLP.Chemscore.Metal>
0.0000

> <Gold.Chemscore.Hbonds>
donor molecule, donor type, donor heavy atom, donor atom, acceptor molecule, acceptor atom, score
      P1  H  6888  6897       L1    23  0.30
      P1  H  6896  6908       L1     7  0.83
      P1  H  6931  6943       L1    20  0.98
      P1  H  6934  6947       L1    20  0.75

> <Gold.PLP.Chemscore.Internal.Correction>
0.0494

> <Gold.Rescore>
     Score         DG    S(hbond)    S(metal)    S(lipo)     H(rot)  DE(clash)    DE(int)     intcor
     17.57     -22.69       3.06        0.00     107.09       2.16       3.00       2.11       ----

> <Gold.Chemscore.Fitness>
17.5740

> <Gold.Chemscore.DG>
-22.6905

> <Gold.Chemscore.ZeroCoef>
-5.4800

> <Gold.Chemscore.Hbond>
3.0590

> <Gold.Chemscore.Metal>
0.0000

> <Gold.Chemscore.Lipo>
107.0937

> <Gold.Chemscore.Internal_Hbond>
0.0000

> <Gold.Chemscore.DEClash>
3.0019

> <Gold.Chemscore.DEInternal>
2.1146

> <Gold.Chemscore.Rot>
2.1628

> <Gold.Chemscore.Internal.Correction>
   9.000000E+99

> <Gold.Chemscore.Hbonds>
donor molecule, donor type, donor heavy atom, donor atom, acceptor molecule, acceptor atom, score
      P1  H  6888  6897       L1    23  0.31
      P1  H  6896  6908       L1     7  0.68
      P1  H  6931  6943       L1    20  0.93
      P1  H  6934  6947       L1    20  0.73

> <Gold.Chemscore.Hbond.Weighted>
-10.2172

> <Gold.Chemscore.Metal.Weighted>
-0.0000

> <Gold.Chemscore.Lipo.Weighted>
-12.5300

> <Gold.Chemscore.Internal_Hbond.Weighted>
0.0000

> <Gold.Chemscore.DEClash.Weighted>
3.0019

> <Gold.Chemscore.DEInternal.Weighted>
2.1146

> <Gold.Chemscore.Rot.Weighted>
5.5367

> <Gold.Chemscore.Internal.Correction.Weighted>
   9.000000E+99

> <Gold.Protein.RotatedTorsions>
[ 6907 6896 6895 6894 ] final -179.57 input  -60.11 | X-H torsion
[ 7974 7965 7964 7962 ] final -114.97 input  175.53 | X-H torsion
[ 8008 7997 7996 7995 ] final  145.37 input   59.86 | X-H torsion
[ 10167 10162 10161 10158 ] final -109.69 input  -65.29 | X-H torsion
[ 10718 10713 10712 10709 ] final  -42.10 input   66.30 | X-H torsion
[ 10763 10752 10751 10750 ] final  134.95 input  -60.55 | X-H torsion
[ 11005 11000 10999 10996 ] final -145.03 input  -57.11 | X-H torsion

> <Gold.Protein.ActiveResidues>
 VAL166  LYS551  ARG553  GLY616  TRP617  ASP618  TYR619  PRO620  LYS621  CYS622 
 ASP623  PHE694  ASN695  SER759  ASP760  ASP761  ALA762  ILE779  LEU786  VAL792 
 PHE793  MET794  SER795  GLU796  ALA797  LYS798  CYS799  TRP800  GLU811  SER814 

> <Gold.Protein.RotatedAtoms>
  151.6556  133.3319  159.3161 H   0  0  0  0  0  0  0  0  0  0  0  0  # atno 6907 bound_to 6896
  150.7938  134.6987  159.6547 H   0  0  0  0  0  0  0  0  0  0  0  0  # atno 6908 bound_to 6896
  152.4022  134.6270  160.0117 H   0  0  0  0  0  0  0  0  0  0  0  0  # atno 6909 bound_to 6896
  145.1139  140.8628  143.3854 H   0  0  0  0  0  0  0  0  0  0  0  0  # atno 7974 bound_to 7965
  156.2885  140.2211  156.5204 H   0  0  0  0  0  0  0  0  0  0  0  0  # atno 8008 bound_to 7997
  154.7533  140.0478  157.0934 H   0  0  0  0  0  0  0  0  0  0  0  0  # atno 8009 bound_to 7997
  155.0082  140.3110  155.4843 H   0  0  0  0  0  0  0  0  0  0  0  0  # atno 8010 bound_to 7997
  140.1526  143.4186  152.1484 H   0  0  0  0  0  0  0  0  0  0  0  0  # atno 10167 bound_to 10162
  156.2632  130.4199  149.8519 H   0  0  0  0  0  0  0  0  0  0  0  0  # atno 10718 bound_to 10713
  153.8321  135.3102  155.3419 H   0  0  0  0  0  0  0  0  0  0  0  0  # atno 10763 bound_to 10752
  154.7969  135.4750  154.0185 H   0  0  0  0  0  0  0  0  0  0  0  0  # atno 10764 bound_to 10752
  153.1628  135.6864  153.8809 H   0  0  0  0  0  0  0  0  0  0  0  0  # atno 10765 bound_to 10752
  140.7964  134.2909  157.4995 H   0  0  0  0  0  0  0  0  0  0  0  0  # atno 11005 bound_to 11000
  145.0816  139.2956  143.5781 LP  0  0  0  0  0  0  0  0  0  0  0  0  # atno 17320 bound_to 7965
  146.3525  140.0324  142.8649 LP  0  0  0  0  0  0  0  0  0  0  0  0  # atno 17321 bound_to 7965
  139.5418  144.7263  151.4708 LP  0  0  0  0  0  0  0  0  0  0  0  0  # atno 17342 bound_to 10162
  140.6693  143.8329  150.6979 LP  0  0  0  0  0  0  0  0  0  0  0  0  # atno 17343 bound_to 10162
  156.6027  130.8553  151.3436 LP  0  0  0  0  0  0  0  0  0  0  0  0  # atno 17370 bound_to 10713
  157.7258  130.9620  150.1629 LP  0  0  0  0  0  0  0  0  0  0  0  0  # atno 17371 bound_to 10713
  139.8726  134.9404  156.3768 LP  0  0  0  0  0  0  0  0  0  0  0  0  # atno 17394 bound_to 11000
  140.9339  133.7560  156.0059 LP  0  0  0  0  0  0  0  0  0  0  0  0  # atno 17395 bound_to 11000

$$$$
