AV-unprocessed.smi:243|AV-procd|sdf|1863|dock1
  -GOLD-   2262020493D 1   1.00000     0.00000
 Structure written by MMmdl.
 58 61  0  0  0  0  0  0  0  0  2 V2000
  151.0195  144.3923  158.5877 C   0  0  0  0  0  0  0  0  0  0  0  0
  149.7177  143.5816  158.5078 C   0  0  0  0  0  0  0  0  0  0  0  0
  149.7215  142.6110  157.3847 N   0  3  1  0  0  0  0  0  0  0  0  0
  150.9593  141.7930  157.3521 C   0  0  0  0  0  0  0  0  0  0  0  0
  151.0062  140.8918  156.1071 C   0  0  0  0  0  0  0  0  0  0  0  0
  149.7578  139.9864  156.0201 C   0  0  2  0  0  0  0  0  0  0  0  0
  149.7991  139.0806  154.8598 N   0  0  0  0  0  0  0  0  0  0  0  0
  151.0838  138.4788  154.5153 C   0  0  0  0  0  0  0  0  0  0  0  0
  148.8197  138.1489  154.7863 C   0  0  0  0  0  0  0  0  0  0  0  0
  148.8747  137.1249  155.6735 N   0  0  0  0  0  0  0  0  0  0  0  0
  147.9437  136.1667  155.6474 C   0  0  0  0  0  0  0  0  0  0  0  0
  146.8914  136.0472  154.8352 N   0  0  0  0  0  0  0  0  0  0  0  0
  146.8248  137.0843  153.9518 C   0  0  0  0  0  0  0  0  0  0  0  0
  147.7352  138.1745  153.8632 C   0  0  0  0  0  0  0  0  0  0  0  0
  147.3360  139.0434  152.8544 N   0  0  0  0  0  0  0  0  0  0  0  0
  146.2571  138.4932  152.3685 C   0  0  0  0  0  0  0  0  0  0  0  0
  145.8861  137.3068  152.9597 N   0  0  0  0  0  0  0  0  0  0  0  0
  144.7432  136.4774  152.6111 C   0  0  0  0  0  0  0  0  0  0  0  0
  144.9790  135.6071  151.3545 C   0  0  2  0  0  0  0  0  0  0  0  0
  145.4008  136.4369  150.2860 O   0  0  0  0  0  0  0  0  0  0  0  0
  143.7496  134.8232  150.9006 C   0  0  0  0  0  0  0  0  0  0  0  0
  144.3496  133.5439  150.3347 C   0  0  0  0  0  0  0  0  0  0  0  0
  145.4041  133.2744  151.2416 O   0  0  0  0  0  0  0  0  0  0  0  0
  146.0383  134.5065  151.5676 C   0  0  0  0  0  0  0  0  0  0  0  0
  148.4795  140.8741  156.0786 C   0  0  2  0  0  0  0  0  0  0  0  0
  148.2369  141.7275  154.8158 C   0  0  0  0  0  0  0  0  0  0  0  0
  148.5060  141.7559  157.3424 C   0  0  0  0  0  0  0  0  0  0  0  0
  151.0230  145.0249  159.4756 H   0  0  0  0  0  0  0  0  0  0  0  0
  151.1506  145.0468  157.7267 H   0  0  0  0  0  0  0  0  0  0  0  0
  151.8885  143.7364  158.6481 H   0  0  0  0  0  0  0  0  0  0  0  0
  149.6078  143.0408  159.4488 H   0  0  0  0  0  0  0  0  0  0  0  0
  148.8540  144.2432  158.4297 H   0  0  0  0  0  0  0  0  0  0  0  0
  151.8333  142.4459  157.3515 H   0  0  0  0  0  0  0  0  0  0  0  0
  151.0178  141.1863  158.2572 H   0  0  0  0  0  0  0  0  0  0  0  0
  151.0991  141.5012  155.2078 H   0  0  0  0  0  0  0  0  0  0  0  0
  151.9134  140.2902  156.1615 H   0  0  0  0  0  0  0  0  0  0  0  0
  149.7696  139.3611  156.9127 H   0  0  0  0  0  0  0  0  0  0  0  0
  150.9763  137.6498  153.8135 H   0  0  0  0  0  0  0  0  0  0  0  0
  151.5845  138.1030  155.4085 H   0  0  0  0  0  0  0  0  0  0  0  0
  151.7314  139.2174  154.0431 H   0  0  0  0  0  0  0  0  0  0  0  0
  148.0599  135.3823  156.3805 H   0  0  0  0  0  0  0  0  0  0  0  0
  145.7022  138.9380  151.5553 H   0  0  0  0  0  0  0  0  0  0  0  0
  144.4980  135.8473  153.4671 H   0  0  0  0  0  0  0  0  0  0  0  0
  143.8840  137.1320  152.4581 H   0  0  0  0  0  0  0  0  0  0  0  0
  144.7178  137.0644  150.1049 H   0  0  0  0  0  0  0  0  0  0  0  0
  143.1287  134.5649  151.7595 H   0  0  0  0  0  0  0  0  0  0  0  0
  143.1223  135.3581  150.1863 H   0  0  0  0  0  0  0  0  0  0  0  0
  143.6333  132.7232  150.2926 H   0  0  0  0  0  0  0  0  0  0  0  0
  144.7540  133.7057  149.3342 H   0  0  0  0  0  0  0  0  0  0  0  0
  146.9091  134.6456  150.9244 H   0  0  0  0  0  0  0  0  0  0  0  0
  146.3970  134.4650  152.5965 H   0  0  0  0  0  0  0  0  0  0  0  0
  147.6108  140.2239  156.1847 H   0  0  0  0  0  0  0  0  0  0  0  0
  149.0378  142.4460  154.6444 H   0  0  0  0  0  0  0  0  0  0  0  0
  147.3080  142.2916  154.9035 H   0  0  0  0  0  0  0  0  0  0  0  0
  148.1512  141.1126  153.9208 H   0  0  0  0  0  0  0  0  0  0  0  0
  148.4776  141.1272  158.2339 H   0  0  0  0  0  0  0  0  0  0  0  0
  147.6054  142.3685  157.3692 H   0  0  0  0  0  0  0  0  0  0  0  0
  149.7249  143.1585  156.5358 H   0  0  0  0  0  0  0  0  0  0  0  0
  1  2  1  0  0  0  0
  1 28  1  0  0  0  0
  1 29  1  0  0  0  0
  1 30  1  0  0  0  0
  2  3  1  0  0  0  0
  2 31  1  0  0  0  0
  2 32  1  0  0  0  0
  3 27  1  0  0  0  0
  3  4  1  0  0  0  0
  3 58  1  0  0  0  0
  4  5  1  0  0  0  0
  4 33  1  0  0  0  0
  4 34  1  0  0  0  0
  5  6  1  0  0  0  0
  5 35  1  0  0  0  0
  5 36  1  0  0  0  0
  6  7  1  0  0  0  0
  6 25  1  0  0  0  0
  6 37  1  0  0  0  0
  7  8  1  0  0  0  0
  7  9  1  0  0  0  0
  8 38  1  0  0  0  0
  8 39  1  0  0  0  0
  8 40  1  0  0  0  0
  9 14  1  0  0  0  0
  9 10  2  0  0  0  0
 10 11  1  0  0  0  0
 11 12  2  0  0  0  0
 11 41  1  0  0  0  0
 12 13  1  0  0  0  0
 13 17  1  0  0  0  0
 13 14  2  0  0  0  0
 14 15  1  0  0  0  0
 15 16  2  0  0  0  0
 16 17  1  0  0  0  0
 16 42  1  0  0  0  0
 17 18  1  0  0  0  0
 18 19  1  0  0  0  0
 18 43  1  0  0  0  0
 18 44  1  0  0  0  0
 19 24  1  0  0  0  0
 19 20  1  0  0  0  0
 19 21  1  0  0  0  0
 20 45  1  0  0  0  0
 21 22  1  0  0  0  0
 21 46  1  0  0  0  0
 21 47  1  0  0  0  0
 22 23  1  0  0  0  0
 22 48  1  0  0  0  0
 22 49  1  0  0  0  0
 23 24  1  0  0  0  0
 24 50  1  0  0  0  0
 24 51  1  0  0  0  0
 25 26  1  0  0  0  0
 25 27  1  0  0  0  0
 25 52  1  0  0  0  0
 26 53  1  0  0  0  0
 26 54  1  0  0  0  0
 26 55  1  0  0  0  0
 27 56  1  0  0  0  0
 27 57  1  0  0  0  0
M  CHG  1   3   1
M  END
> <s_m_source_file>
AV-unprocessed.smi

> <i_m_source_file_index>
243

> <i_lp_mmshare_version>
43012

> <i_f3d_flags>
0

> <s_epik_input>
W0NIM11bQ0gyXU4xW0NIMl1bQ0gyXVtDQEhdKFtDQEBIXShbQ0gzXSlbQ0gyXTEpTihbQ0gzXSljKG5bY0hdbjIpYyhjMjMpbltjSF1uM1tDSDJdW0NAQF00KFtPSF0pW0NIMl1bQ0gyXU9bQ0gyXTQ=

> <s_epik_cmdline>
J2VwaWtfcHl0aG9uJywgJy1waCcsICc3LjAnLCAnLXRuJywgJzgnLCAnLW1hJywgJzIwMCcsICctbWV0YWxfYmluZGluZycsICctaW1hZScsICc8aW5maWxlLm1hZT4nLCAnLW9tYWUnLCAnPG91dGZpbGUubWFlPic=

> <r_lp_tautomer_probability>
1

> <r_epik_Ionization_Penalty>
0.00253099

> <r_epik_Ionization_Penalty_Charging>
0.00137877

> <r_epik_Ionization_Penalty_Neutral>
0.00115221

> <r_epik_State_Penalty>
-0

> <r_epik_Charging_Adjusted_Penalty>
0.00137877

> <i_epik_Tot_Q>
1

> <i_epik_Tot_abs_Q>
1

> <r_epik_Metal_State_Penalty>
-0

> <b_epik_Metal_Only>
0

> <s_lp_Force_Field>
OPLS_2005

> <r_lp_Energy>
46.6392

> <b_lp_Chiralities_Consistent>
1

> <s_lp_Variant>
AV-unprocessed.smi:243-16

> <Gold.Version>
5.8.1

> <Gold.Id.Protein>
6NUR|6NUR_protein|mol2

> <Gold.PLP.Fitness>
47.4026

> <Gold.PLP.PLP>
-33.6886

> <Gold.PLP.part.hbond>
-2.2199

> <Gold.PLP.part.metal>
0.0000

> <Gold.PLP.part.buried>
-2.6259

> <Gold.PLP.part.nonpolar>
-29.9651

> <Gold.PLP.part.repulsive>
0.9179

> <Gold.PLP.ligand.clash>
0.0000

> <Gold.PLP.ligand.torsion>
0.6500

> <Gold.PLP.Chemscore.Hbond>
3.0000

> <Gold.PLP.Chemscore.CHOScore>
1.7851

> <Gold.PLP.Chemscore.Metal>
0.0000

> <Gold.Chemscore.Hbonds>
donor molecule, donor type, donor heavy atom, donor atom, acceptor molecule, acceptor atom, score
      L1  H     3    58       P1  8028  1.70
      L1  H    20    45       P1 10171  1.00
      L1  C    16    42       P1 10171  0.98
      L1  C    16    42       P1 10175  0.41

> <Gold.PLP.Chemscore.Internal.Correction>
0.6587

> <Gold.Rescore>
     Score         DG    S(hbond)    S(metal)    S(lipo)     H(rot)  DE(clash)    DE(int)     intcor
     14.45     -15.55       1.97        0.00      85.17       2.53       0.40       0.70       ----

> <Gold.Chemscore.Fitness>
14.4521

> <Gold.Chemscore.DG>
-15.5520

> <Gold.Chemscore.ZeroCoef>
-5.4800

> <Gold.Chemscore.Hbond>
1.9717

> <Gold.Chemscore.Metal>
0.0000

> <Gold.Chemscore.Lipo>
85.1680

> <Gold.Chemscore.Internal_Hbond>
0.0000

> <Gold.Chemscore.DEClash>
0.3984

> <Gold.Chemscore.DEInternal>
0.7015

> <Gold.Chemscore.Rot>
2.5305

> <Gold.Chemscore.Internal.Correction>
   9.000000E+99

> <Gold.Chemscore.Hbonds>
donor molecule, donor type, donor heavy atom, donor atom, acceptor molecule, acceptor atom, score
      L1  H     3    58       P1  8028  0.83
      L1  H    20    45       P1 10171  1.00

> <Gold.Chemscore.Hbond.Weighted>
-6.5853

> <Gold.Chemscore.Metal.Weighted>
-0.0000

> <Gold.Chemscore.Lipo.Weighted>
-9.9647

> <Gold.Chemscore.Internal_Hbond.Weighted>
0.0000

> <Gold.Chemscore.DEClash.Weighted>
0.3984

> <Gold.Chemscore.DEInternal.Weighted>
0.7015

> <Gold.Chemscore.Rot.Weighted>
6.4780

> <Gold.Chemscore.Internal.Correction.Weighted>
   9.000000E+99

> <Gold.Protein.RotatedTorsions>
[ 6907 6896 6895 6894 ] final  -62.56 input  -60.11 | X-H torsion
[ 7974 7965 7964 7962 ] final  117.98 input  175.53 | X-H torsion
[ 8008 7997 7996 7995 ] final  164.68 input   59.86 | X-H torsion
[ 10167 10162 10161 10158 ] final    8.51 input  -65.29 | X-H torsion
[ 10718 10713 10712 10709 ] final    4.37 input   66.30 | X-H torsion
[ 10763 10752 10751 10750 ] final  -68.79 input  -60.55 | X-H torsion
[ 11005 11000 10999 10996 ] final   80.41 input  -57.11 | X-H torsion

> <Gold.Protein.ActiveResidues>
 VAL166  LYS551  ARG553  GLY616  TRP617  ASP618  TYR619  PRO620  LYS621  CYS622 
 ASP623  PHE694  ASN695  SER759  ASP760  ASP761  ALA762  ILE779  LEU786  VAL792 
 PHE793  MET794  SER795  GLU796  ALA797  LYS798  CYS799  TRP800  GLU811  SER814 

> <Gold.Protein.RotatedAtoms>
  150.7708  134.6554  159.6310 H   0  0  0  0  0  0  0  0  0  0  0  0  # atno 6907 bound_to 6896
  152.3759  134.6661  160.0169 H   0  0  0  0  0  0  0  0  0  0  0  0  # atno 6908 bound_to 6896
  151.7006  133.3275  159.3302 H   0  0  0  0  0  0  0  0  0  0  0  0  # atno 6909 bound_to 6896
  145.1608  139.3156  143.4518 H   0  0  0  0  0  0  0  0  0  0  0  0  # atno 7974 bound_to 7965
  156.1861  140.1690  156.8182 H   0  0  0  0  0  0  0  0  0  0  0  0  # atno 8008 bound_to 7997
  154.5416  140.0735  156.8551 H   0  0  0  0  0  0  0  0  0  0  0  0  # atno 8009 bound_to 7997
  155.3204  140.3373  155.4243 H   0  0  0  0  0  0  0  0  0  0  0  0  # atno 8010 bound_to 7997
  140.6310  143.7994  150.7295 H   0  0  0  0  0  0  0  0  0  0  0  0  # atno 10167 bound_to 10162
  156.8916  130.5689  149.5650 H   0  0  0  0  0  0  0  0  0  0  0  0  # atno 10718 bound_to 10713
  154.3940  135.6046  153.5859 H   0  0  0  0  0  0  0  0  0  0  0  0  # atno 10763 bound_to 10752
  152.9787  135.5890  154.4263 H   0  0  0  0  0  0  0  0  0  0  0  0  # atno 10764 bound_to 10752
  154.4052  135.2843  155.2050 H   0  0  0  0  0  0  0  0  0  0  0  0  # atno 10765 bound_to 10752
  139.9135  134.7918  156.1906 H   0  0  0  0  0  0  0  0  0  0  0  0  # atno 11005 bound_to 11000
  146.3482  140.1717  142.8589 LP  0  0  0  0  0  0  0  0  0  0  0  0  # atno 17320 bound_to 7965
  145.0333  140.8888  143.5096 LP  0  0  0  0  0  0  0  0  0  0  0  0  # atno 17321 bound_to 7965
  140.1605  143.4280  152.2070 LP  0  0  0  0  0  0  0  0  0  0  0  0  # atno 17342 bound_to 10162
  139.5524  144.7348  151.4395 LP  0  0  0  0  0  0  0  0  0  0  0  0  # atno 17343 bound_to 10162
  156.0626  130.5676  150.9224 LP  0  0  0  0  0  0  0  0  0  0  0  0  # atno 17370 bound_to 10713
  157.6080  131.0938  150.8845 LP  0  0  0  0  0  0  0  0  0  0  0  0  # atno 17371 bound_to 10713
  141.0586  133.6853  156.1909 LP  0  0  0  0  0  0  0  0  0  0  0  0  # atno 17394 bound_to 11000
  140.6697  134.4881  157.5587 LP  0  0  0  0  0  0  0  0  0  0  0  0  # atno 17395 bound_to 11000

$$$$
