AV-unprocessed.smi:3203|AV-procd|sdf|12249|dock2
  -GOLD-   2272018 83D 1   1.00000     0.00000
 Structure written by MMmdl.
 32 33  0  0  0  0  0  0  0  0  1 V2000
  151.0050  143.5385  158.0046 C   0  0  0  0  0  0  0  0  0  0  0  0
  151.9625  142.7101  158.8464 C   0  0  0  0  0  0  0  0  0  0  0  0
  152.3949  143.2087  160.0935 C   0  0  0  0  0  0  0  0  0  0  0  0
  153.2791  142.4403  160.8698 C   0  0  0  0  0  0  0  0  0  0  0  0
  153.6959  141.1974  160.3628 C   0  0  0  0  0  0  0  0  0  0  0  0
  153.2878  140.7131  159.1722 N   0  0  0  0  0  0  0  0  0  0  0  0
  152.4341  141.4426  158.4107 C   0  0  0  0  0  0  0  0  0  0  0  0
  151.9622  140.9977  157.1449 N   0  0  0  0  0  0  0  0  0  0  0  0
  152.5216  140.1122  156.2982 C   0  0  0  0  0  0  0  0  0  0  0  0
  153.5906  139.5341  156.4925 O   0  0  0  0  0  0  0  0  0  0  0  0
  151.7554  139.8480  155.0013 C   0  0  0  0  0  0  0  0  0  0  0  0
  150.7534  140.8399  154.8309 O   0  0  0  0  0  0  0  0  0  0  0  0
  149.5860  140.3363  154.2062 C   0  0  0  0  0  0  0  0  0  0  0  0
  148.3719  140.8966  154.9151 C   0  0  0  0  0  0  0  0  0  0  0  0
  146.9795  140.5682  154.4263 C   0  0  0  0  0  0  0  0  0  0  0  0
  147.5241  141.9644  154.2616 C   0  0  0  0  0  0  0  0  0  0  0  0
  150.7608  144.4822  158.4935 H   0  0  0  0  0  0  0  0  0  0  0  0
  150.0741  142.9952  157.8397 H   0  0  0  0  0  0  0  0  0  0  0  0
  151.4483  143.7686  157.0353 H   0  0  0  0  0  0  0  0  0  0  0  0
  152.0545  144.1685  160.4541 H   0  0  0  0  0  0  0  0  0  0  0  0
  153.6280  142.7938  161.8286 H   0  0  0  0  0  0  0  0  0  0  0  0
  154.3749  140.5753  160.9267 H   0  0  0  0  0  0  0  0  0  0  0  0
  151.0805  141.3906  156.8492 H   0  0  0  0  0  0  0  0  0  0  0  0
  152.4574  139.8659  154.1664 H   0  0  0  0  0  0  0  0  0  0  0  0
  151.3023  138.8559  155.0382 H   0  0  0  0  0  0  0  0  0  0  0  0
  149.5624  140.6178  153.1519 H   0  0  0  0  0  0  0  0  0  0  0  0
  149.5616  139.2472  154.2656 H   0  0  0  0  0  0  0  0  0  0  0  0
  148.4887  140.9704  155.9948 H   0  0  0  0  0  0  0  0  0  0  0  0
  146.8861  139.9574  153.5303 H   0  0  0  0  0  0  0  0  0  0  0  0
  146.2070  140.4155  155.1772 H   0  0  0  0  0  0  0  0  0  0  0  0
  147.1164  142.7430  154.9029 H   0  0  0  0  0  0  0  0  0  0  0  0
  147.7946  142.2827  153.2567 H   0  0  0  0  0  0  0  0  0  0  0  0
  1  2  1  0  0  0  0
  1 17  1  0  0  0  0
  1 18  1  0  0  0  0
  1 19  1  0  0  0  0
  2  7  1  0  0  0  0
  2  3  2  0  0  0  0
  3  4  1  0  0  0  0
  3 20  1  0  0  0  0
  4  5  2  0  0  0  0
  4 21  1  0  0  0  0
  5  6  1  0  0  0  0
  5 22  1  0  0  0  0
  6  7  2  0  0  0  0
  7  8  1  0  0  0  0
  8  9  1  0  0  0  0
  8 23  1  0  0  0  0
  9 10  2  0  0  0  0
  9 11  1  0  0  0  0
 11 12  1  0  0  0  0
 11 24  1  0  0  0  0
 11 25  1  0  0  0  0
 12 13  1  0  0  0  0
 13 14  1  0  0  0  0
 13 26  1  0  0  0  0
 13 27  1  0  0  0  0
 14 16  1  0  0  0  0
 14 15  1  0  0  0  0
 14 28  1  0  0  0  0
 15 16  1  0  0  0  0
 15 29  1  0  0  0  0
 15 30  1  0  0  0  0
 16 31  1  0  0  0  0
 16 32  1  0  0  0  0
M  END
> <s_m_source_file>
AV-unprocessed.smi

> <i_m_source_file_index>
3203

> <i_lp_mmshare_version>
43012

> <i_f3d_flags>
0

> <s_epik_input>
W0NIM11jMVtjSF1bY0hdW2NIXW5jMVtOSF1DKD1PKVtDSDJdT1tDSDJdW0NIXTJbQ0gyXVtDSDJdMg==

> <s_epik_cmdline>
J2VwaWtfcHl0aG9uJywgJy1waCcsICc3LjAnLCAnLXRuJywgJzgnLCAnLW1hJywgJzIwMCcsICctbWV0YWxfYmluZGluZycsICctaW1hZScsICc8aW5maWxlLm1hZT4nLCAnLW9tYWUnLCAnPG91dGZpbGUubWFlPic=

> <r_epik_Ionization_Penalty>
0.00323497

> <r_epik_Ionization_Penalty_Charging>
0

> <r_epik_Ionization_Penalty_Neutral>
0.00323497

> <r_epik_State_Penalty>
0.00315819

> <r_epik_Charging_Adjusted_Penalty>
0.00315819

> <i_epik_Tot_Q>
0

> <i_epik_Tot_abs_Q>
0

> <r_epik_Metal_State_Penalty>
-0

> <b_epik_Metal_Only>
0

> <s_lp_Force_Field>
OPLS_2005

> <r_lp_Energy>
15.2792

> <b_lp_Chiralities_Consistent>
1

> <s_lp_Variant>
AV-unprocessed.smi:3203-1

> <Gold.Version>
5.8.1

> <Gold.Id.Protein>
6NUR|6NUR_protein|mol2

> <Gold.PLP.Fitness>
39.8146

> <Gold.PLP.PLP>
-35.5413

> <Gold.PLP.part.hbond>
-2.0000

> <Gold.PLP.part.metal>
0.0000

> <Gold.PLP.part.buried>
-3.9241

> <Gold.PLP.part.nonpolar>
-29.8038

> <Gold.PLP.part.repulsive>
0.1615

> <Gold.PLP.ligand.clash>
0.0000

> <Gold.PLP.ligand.torsion>
1.1490

> <Gold.PLP.Chemscore.Hbond>
2.0000

> <Gold.PLP.Chemscore.CHOScore>
0.0000

> <Gold.PLP.Chemscore.Metal>
0.0000

> <Gold.Chemscore.Hbonds>
donor molecule, donor type, donor heavy atom, donor atom, acceptor molecule, acceptor atom, score
      P1  H  7997  8009       L1    10  0.04

> <Gold.PLP.Chemscore.Internal.Correction>
0.5713

> <Gold.Rescore>
     Score         DG    S(hbond)    S(metal)    S(lipo)     H(rot)  DE(clash)    DE(int)     intcor
     12.77     -15.14       1.02        0.00      87.19       1.54       0.06       2.31       ----

> <Gold.Chemscore.Fitness>
12.7711

> <Gold.Chemscore.DG>
-15.1421

> <Gold.Chemscore.ZeroCoef>
-5.4800

> <Gold.Chemscore.Hbond>
1.0154

> <Gold.Chemscore.Metal>
0.0000

> <Gold.Chemscore.Lipo>
87.1936

> <Gold.Chemscore.Internal_Hbond>
0.0000

> <Gold.Chemscore.DEClash>
0.0589

> <Gold.Chemscore.DEInternal>
2.3121

> <Gold.Chemscore.Rot>
1.5355

> <Gold.Chemscore.Internal.Correction>
   9.000000E+99

> <Gold.Chemscore.Hbonds>
donor molecule, donor type, donor heavy atom, donor atom, acceptor molecule, acceptor atom, score
      P1  H  7997  8009       L1    10  0.05

> <Gold.Chemscore.Hbond.Weighted>
-3.3913

> <Gold.Chemscore.Metal.Weighted>
-0.0000

> <Gold.Chemscore.Lipo.Weighted>
-10.2017

> <Gold.Chemscore.Internal_Hbond.Weighted>
0.0000

> <Gold.Chemscore.DEClash.Weighted>
0.0589

> <Gold.Chemscore.DEInternal.Weighted>
2.3121

> <Gold.Chemscore.Rot.Weighted>
3.9308

> <Gold.Chemscore.Internal.Correction.Weighted>
   9.000000E+99

> <Gold.Protein.RotatedTorsions>
[ 6907 6896 6895 6894 ] final -131.99 input  -60.11 | X-H torsion
[ 7974 7965 7964 7962 ] final  168.28 input  175.53 | X-H torsion
[ 8008 7997 7996 7995 ] final  158.45 input   59.86 | X-H torsion
[ 10167 10162 10161 10158 ] final  -44.63 input  -65.29 | X-H torsion
[ 10718 10713 10712 10709 ] final   56.59 input   66.30 | X-H torsion
[ 10763 10752 10751 10750 ] final  -64.86 input  -60.55 | X-H torsion
[ 11005 11000 10999 10996 ] final -106.31 input  -57.11 | X-H torsion

> <Gold.Protein.ActiveResidues>
 VAL166  LYS551  ARG553  GLY616  TRP617  ASP618  TYR619  PRO620  LYS621  CYS622 
 ASP623  PHE694  ASN695  SER759  ASP760  ASP761  ALA762  ILE779  LEU786  VAL792 
 PHE793  MET794  SER795  GLU796  ALA797  LYS798  CYS799  TRP800  GLU811  SER814 

> <Gold.Protein.RotatedAtoms>
  150.9573  133.6483  159.2760 H   0  0  0  0  0  0  0  0  0  0  0  0  # atno 6907 bound_to 6896
  151.3818  135.0940  159.9508 H   0  0  0  0  0  0  0  0  0  0  0  0  # atno 6908 bound_to 6896
  152.5134  133.9106  159.7540 H   0  0  0  0  0  0  0  0  0  0  0  0  # atno 6909 bound_to 6896
  144.7394  139.8884  143.6401 H   0  0  0  0  0  0  0  0  0  0  0  0  # atno 7974 bound_to 7965
  156.2302  140.1858  156.7263 H   0  0  0  0  0  0  0  0  0  0  0  0  # atno 8008 bound_to 7997
  154.6009  140.0636  156.9394 H   0  0  0  0  0  0  0  0  0  0  0  0  # atno 8009 bound_to 7997
  155.2177  140.3305  155.4322 H   0  0  0  0  0  0  0  0  0  0  0  0  # atno 8010 bound_to 7997
  140.6889  143.2920  151.3523 H   0  0  0  0  0  0  0  0  0  0  0  0  # atno 10167 bound_to 10162
  157.5443  130.8720  149.8869 H   0  0  0  0  0  0  0  0  0  0  0  0  # atno 10718 bound_to 10713
  154.3364  135.6166  153.5575 H   0  0  0  0  0  0  0  0  0  0  0  0  # atno 10763 bound_to 10752
  152.9807  135.5759  154.4903 H   0  0  0  0  0  0  0  0  0  0  0  0  # atno 10764 bound_to 10752
  154.4599  135.2855  155.1697 H   0  0  0  0  0  0  0  0  0  0  0  0  # atno 10765 bound_to 10752
  141.1011  133.8883  157.1841 H   0  0  0  0  0  0  0  0  0  0  0  0  # atno 11005 bound_to 11000
  146.1160  139.4171  143.0258 LP  0  0  0  0  0  0  0  0  0  0  0  0  # atno 17320 bound_to 7965
  145.7374  141.0020  143.1319 LP  0  0  0  0  0  0  0  0  0  0  0  0  # atno 17321 bound_to 7965
  139.6273  144.0789  152.2446 LP  0  0  0  0  0  0  0  0  0  0  0  0  # atno 17342 bound_to 10162
  140.0252  144.6123  150.7533 LP  0  0  0  0  0  0  0  0  0  0  0  0  # atno 17343 bound_to 10162
  156.0523  130.3715  150.1173 LP  0  0  0  0  0  0  0  0  0  0  0  0  # atno 17370 bound_to 10713
  156.9350  130.9726  151.3526 LP  0  0  0  0  0  0  0  0  0  0  0  0  # atno 17371 bound_to 10713
  139.9862  135.0081  156.9869 LP  0  0  0  0  0  0  0  0  0  0  0  0  # atno 17394 bound_to 11000
  140.5020  134.1087  155.7252 LP  0  0  0  0  0  0  0  0  0  0  0  0  # atno 17395 bound_to 11000

$$$$
