AV-unprocessed.smi:767|AV-procd|sdf|3670|dock5
  -GOLD-   22720 1 83D 1   1.00000     0.00000
 Structure written by MMmdl.
 48 50  0  0  0  0  0  0  0  0  2 V2000
  143.4814  133.5066  147.5453 C   0  0  0  0  0  0  0  0  0  0  0  0
  144.2094  133.7576  148.8489 C   0  0  0  0  0  0  0  0  0  0  0  0
  145.2605  132.9274  149.2924 C   0  0  0  0  0  0  0  0  0  0  0  0
  145.8989  133.2197  150.5152 C   0  0  0  0  0  0  0  0  0  0  0  0
  145.4772  134.3371  151.2688 C   0  0  0  0  0  0  0  0  0  0  0  0
  146.1684  134.6925  152.5750 C   0  0  0  0  0  0  0  0  0  0  0  0
  145.7527  136.0644  153.1471 C   0  0  0  0  0  0  0  0  0  0  0  0
  146.8852  136.8790  153.5782 N   0  0  0  0  0  0  0  0  0  0  0  0
  146.8735  137.7469  154.5990 C   0  0  0  0  0  0  0  0  0  0  0  0
  145.8884  137.9784  155.2994 O   0  0  0  0  0  0  0  0  0  0  0  0
  148.0750  138.3088  154.7789 N   0  0  0  0  0  0  0  0  0  0  0  0
  148.4059  139.2774  155.8256 C   0  0  1  0  0  0  0  0  0  0  0  0
  149.8314  139.1013  156.4040 C   0  0  1  0  0  0  0  0  0  0  0  0
  150.6824  137.8824  156.1473 C   0  0  0  0  0  0  0  0  0  0  0  0
  151.5436  138.3086  154.9548 C   0  0  0  0  0  0  0  0  0  0  0  0
  150.8494  139.4117  154.3749 O   0  0  0  0  0  0  0  0  0  0  0  0
  150.2861  140.1810  155.4361 C   0  0  1  0  0  0  0  0  0  0  0  0
  148.8293  140.6540  155.2478 C   0  0  0  0  0  0  0  0  0  0  0  0
  148.4090  141.0174  153.8171 C   0  0  0  0  0  0  0  0  0  0  0  0
  148.4427  141.8492  156.1246 C   0  0  0  0  0  0  0  0  0  0  0  0
  144.4144  135.1266  150.7794 C   0  0  0  0  0  0  0  0  0  0  0  0
  143.8280  134.8131  149.6032 N   0  3  0  0  0  0  0  0  0  0  0  0
  144.1112  132.9480  146.8521 H   0  0  0  0  0  0  0  0  0  0  0  0
  143.2043  134.4466  147.0669 H   0  0  0  0  0  0  0  0  0  0  0  0
  142.5735  132.9300  147.7245 H   0  0  0  0  0  0  0  0  0  0  0  0
  145.5793  132.0795  148.7036 H   0  0  0  0  0  0  0  0  0  0  0  0
  146.7124  132.5984  150.8612 H   0  0  0  0  0  0  0  0  0  0  0  0
  145.9617  133.9113  153.3070 H   0  0  0  0  0  0  0  0  0  0  0  0
  147.2480  134.6771  152.4199 H   0  0  0  0  0  0  0  0  0  0  0  0
  145.2318  136.6323  152.3760 H   0  0  0  0  0  0  0  0  0  0  0  0
  145.0435  135.9383  153.9664 H   0  0  0  0  0  0  0  0  0  0  0  0
  147.7466  136.7673  153.0636 H   0  0  0  0  0  0  0  0  0  0  0  0
  148.8241  138.0460  154.1550 H   0  0  0  0  0  0  0  0  0  0  0  0
  147.6414  139.3632  156.6004 H   0  0  0  0  0  0  0  0  0  0  0  0
  149.8756  139.4555  157.4351 H   0  0  0  0  0  0  0  0  0  0  0  0
  151.3031  137.6260  157.0063 H   0  0  0  0  0  0  0  0  0  0  0  0
  150.0813  137.0071  155.9116 H   0  0  0  0  0  0  0  0  0  0  0  0
  152.5243  138.6458  155.2931 H   0  0  0  0  0  0  0  0  0  0  0  0
  151.6888  137.5039  154.2336 H   0  0  0  0  0  0  0  0  0  0  0  0
  150.9780  140.9061  155.8670 H   0  0  0  0  0  0  0  0  0  0  0  0
  148.8422  141.9674  153.5029 H   0  0  0  0  0  0  0  0  0  0  0  0
  147.3256  141.1060  153.7308 H   0  0  0  0  0  0  0  0  0  0  0  0
  148.7314  140.2725  153.0897 H   0  0  0  0  0  0  0  0  0  0  0  0
  148.9599  142.7576  155.8140 H   0  0  0  0  0  0  0  0  0  0  0  0
  148.6950  141.6804  157.1721 H   0  0  0  0  0  0  0  0  0  0  0  0
  147.3715  142.0476  156.0809 H   0  0  0  0  0  0  0  0  0  0  0  0
  144.0252  135.9986  151.2845 H   0  0  0  0  0  0  0  0  0  0  0  0
  143.0655  135.4018  149.2671 H   0  0  0  0  0  0  0  0  0  0  0  0
  1  2  1  0  0  0  0
  1 23  1  0  0  0  0
  1 24  1  0  0  0  0
  1 25  1  0  0  0  0
  2 22  1  0  0  0  0
  2  3  2  0  0  0  0
  3  4  1  0  0  0  0
  3 26  1  0  0  0  0
  4  5  2  0  0  0  0
  4 27  1  0  0  0  0
  5  6  1  0  0  0  0
  5 21  1  0  0  0  0
  6  7  1  0  0  0  0
  6 28  1  0  0  0  0
  6 29  1  0  0  0  0
  7  8  1  0  0  0  0
  7 30  1  0  0  0  0
  7 31  1  0  0  0  0
  8  9  1  0  0  0  0
  8 32  1  0  0  0  0
  9 10  2  0  0  0  0
  9 11  1  0  0  0  0
 11 12  1  0  0  0  0
 11 33  1  0  0  0  0
 12 18  1  0  0  0  0
 12 13  1  0  0  0  0
 12 34  1  0  0  0  0
 13 17  1  0  0  0  0
 13 14  1  0  0  0  0
 13 35  1  0  0  0  0
 14 15  1  0  0  0  0
 14 36  1  0  0  0  0
 14 37  1  0  0  0  0
 15 16  1  0  0  0  0
 15 38  1  0  0  0  0
 15 39  1  0  0  0  0
 16 17  1  0  0  0  0
 17 18  1  0  0  0  0
 17 40  1  0  0  0  0
 18 19  1  0  0  0  0
 18 20  1  0  0  0  0
 19 41  1  0  0  0  0
 19 42  1  0  0  0  0
 19 43  1  0  0  0  0
 20 44  1  0  0  0  0
 20 45  1  0  0  0  0
 20 46  1  0  0  0  0
 21 22  2  0  0  0  0
 21 47  1  0  0  0  0
 22 48  1  0  0  0  0
M  CHG  1  22   1
M  END
> <s_m_source_file>
AV-unprocessed.smi

> <i_m_source_file_index>
767

> <i_lp_mmshare_version>
43012

> <i_f3d_flags>
0

> <s_epik_input>
W0NIM11jMVtjSF1bY0hdYyhbY0hdbjEpW0NIMl1bQ0gyXVtOSF1DKD1PKVtOSF1bQ0BIXTJDKFtDSDNdKShbQ0gzXSlbQ0BIXShbQ0BASF0yMylPW0NIMl1bQ0gyXTM=

> <s_epik_cmdline>
J2VwaWtfcHl0aG9uJywgJy1waCcsICc3LjAnLCAnLXRuJywgJzgnLCAnLW1hJywgJzIwMCcsICctbWV0YWxfYmluZGluZycsICctaW1hZScsICc8aW5maWxlLm1hZT4nLCAnLW9tYWUnLCAnPG91dGZpbGUubWFlPic=

> <r_epik_Ionization_Penalty>
1.41853

> <r_epik_Ionization_Penalty_Charging>
1.41848

> <r_epik_Ionization_Penalty_Neutral>
5.17407e-05

> <r_epik_State_Penalty>
1.50205

> <r_epik_Charging_Adjusted_Penalty>
2.92053

> <i_epik_Tot_Q>
1

> <i_epik_Tot_abs_Q>
1

> <r_epik_Metal_State_Penalty>
1.5544

> <b_epik_Metal_Only>
0

> <s_lp_Force_Field>
OPLS_2005

> <r_lp_Energy>
40.9756

> <b_lp_Chiralities_Consistent>
1

> <s_lp_Variant>
AV-unprocessed.smi:767-14

> <Gold.Version>
5.8.1

> <Gold.Id.Protein>
6NUR|6NUR_protein|mol2

> <Gold.PLP.Fitness>
43.5435

> <Gold.PLP.PLP>
-32.8712

> <Gold.PLP.part.hbond>
-3.0000

> <Gold.PLP.part.metal>
0.0000

> <Gold.PLP.part.buried>
-1.3934

> <Gold.PLP.part.nonpolar>
-28.5599

> <Gold.PLP.part.repulsive>
0.1890

> <Gold.PLP.ligand.clash>
0.0000

> <Gold.PLP.ligand.torsion>
0.7667

> <Gold.PLP.Chemscore.Hbond>
4.0000

> <Gold.PLP.Chemscore.CHOScore>
0.0000

> <Gold.PLP.Chemscore.Metal>
0.0000

> <Gold.Chemscore.Hbonds>
donor molecule, donor type, donor heavy atom, donor atom, acceptor molecule, acceptor atom, score
      L1  H     8    32       P1  7948  1.00
      L1  H    22    48       P1 10186  0.22
      P1  H  7989  7998       L1    16  0.80

> <Gold.PLP.Chemscore.Internal.Correction>
0.2058

> <Gold.Rescore>
     Score         DG    S(hbond)    S(metal)    S(lipo)     H(rot)  DE(clash)    DE(int)     intcor
     20.09     -21.10       2.50        0.00      95.43       1.52       0.22       0.78       ----

> <Gold.Chemscore.Fitness>
20.0943

> <Gold.Chemscore.DG>
-21.0982

> <Gold.Chemscore.ZeroCoef>
-5.4800

> <Gold.Chemscore.Hbond>
2.5008

> <Gold.Chemscore.Metal>
0.0000

> <Gold.Chemscore.Lipo>
95.4273

> <Gold.Chemscore.Internal_Hbond>
0.0000

> <Gold.Chemscore.DEClash>
0.2195

> <Gold.Chemscore.DEInternal>
0.7843

> <Gold.Chemscore.Rot>
1.5233

> <Gold.Chemscore.Internal.Correction>
   9.000000E+99

> <Gold.Chemscore.Hbonds>
donor molecule, donor type, donor heavy atom, donor atom, acceptor molecule, acceptor atom, score
      L1  H     8    32       P1  7948  1.00
      L1  H    22    48       P1 10186  0.05
      P1  H  7989  7998       L1    16  0.12

> <Gold.Chemscore.Hbond.Weighted>
-8.3527

> <Gold.Chemscore.Metal.Weighted>
-0.0000

> <Gold.Chemscore.Lipo.Weighted>
-11.1650

> <Gold.Chemscore.Internal_Hbond.Weighted>
0.0000

> <Gold.Chemscore.DEClash.Weighted>
0.2195

> <Gold.Chemscore.DEInternal.Weighted>
0.7843

> <Gold.Chemscore.Rot.Weighted>
3.8995

> <Gold.Chemscore.Internal.Correction.Weighted>
   9.000000E+99

> <Gold.Protein.RotatedTorsions>
[ 6907 6896 6895 6894 ] final -139.73 input  -60.11 | X-H torsion
[ 7974 7965 7964 7962 ] final  -54.56 input  175.53 | X-H torsion
[ 8008 7997 7996 7995 ] final  -74.59 input   59.86 | X-H torsion
[ 10167 10162 10161 10158 ] final -101.26 input  -65.29 | X-H torsion
[ 10718 10713 10712 10709 ] final  171.96 input   66.30 | X-H torsion
[ 10763 10752 10751 10750 ] final  -73.63 input  -60.55 | X-H torsion
[ 11005 11000 10999 10996 ] final  112.31 input  -57.11 | X-H torsion

> <Gold.Protein.ActiveResidues>
 VAL166  LYS551  ARG553  GLY616  TRP617  ASP618  TYR619  PRO620  LYS621  CYS622 
 ASP623  PHE694  ASN695  SER759  ASP760  ASP761  ALA762  ILE779  LEU786  VAL792 
 PHE793  MET794  SER795  GLU796  ALA797  LYS798  CYS799  TRP800  GLU811  SER814 

> <Gold.Protein.RotatedAtoms>
  151.0516  133.5620  159.2641 H   0  0  0  0  0  0  0  0  0  0  0  0  # atno 6907 bound_to 6896
  151.2629  135.0659  159.9115 H   0  0  0  0  0  0  0  0  0  0  0  0  # atno 6908 bound_to 6896
  152.5382  134.0258  159.8056 H   0  0  0  0  0  0  0  0  0  0  0  0  # atno 6909 bound_to 6896
  145.8842  140.8121  142.9824 H   0  0  0  0  0  0  0  0  0  0  0  0  # atno 7974 bound_to 7965
  154.5343  140.0759  156.8401 H   0  0  0  0  0  0  0  0  0  0  0  0  # atno 8008 bound_to 7997
  155.3309  140.3401  155.4221 H   0  0  0  0  0  0  0  0  0  0  0  0  # atno 8009 bound_to 7997
  156.1813  140.1653  156.8256 H   0  0  0  0  0  0  0  0  0  0  0  0  # atno 8010 bound_to 7997
  140.2431  143.3524  152.0783 H   0  0  0  0  0  0  0  0  0  0  0  0  # atno 10167 bound_to 10162
  156.9860  131.0133  151.2869 H   0  0  0  0  0  0  0  0  0  0  0  0  # atno 10718 bound_to 10713
  154.4621  135.5891  153.6263 H   0  0  0  0  0  0  0  0  0  0  0  0  # atno 10763 bound_to 10752
  152.9824  135.6046  154.3473 H   0  0  0  0  0  0  0  0  0  0  0  0  # atno 10764 bound_to 10752
  154.3346  135.2842  155.2433 H   0  0  0  0  0  0  0  0  0  0  0  0  # atno 10765 bound_to 10752
  139.8924  134.9527  156.6565 H   0  0  0  0  0  0  0  0  0  0  0  0  # atno 11005 bound_to 11000
  144.6728  140.1430  143.7435 LP  0  0  0  0  0  0  0  0  0  0  0  0  # atno 17320 bound_to 7965
  145.8987  139.2418  143.1506 LP  0  0  0  0  0  0  0  0  0  0  0  0  # atno 17321 bound_to 7965
  139.5070  144.6825  151.5972 LP  0  0  0  0  0  0  0  0  0  0  0  0  # atno 17342 bound_to 10162
  140.6098  143.9457  150.6445 LP  0  0  0  0  0  0  0  0  0  0  0  0  # atno 17343 bound_to 10162
  157.5493  130.8171  149.8125 LP  0  0  0  0  0  0  0  0  0  0  0  0  # atno 17370 bound_to 10713
  156.0226  130.3790  150.1917 LP  0  0  0  0  0  0  0  0  0  0  0  0  # atno 17371 bound_to 10713
  140.7480  133.8921  155.8326 LP  0  0  0  0  0  0  0  0  0  0  0  0  # atno 17394 bound_to 11000
  141.0024  134.1132  157.4304 LP  0  0  0  0  0  0  0  0  0  0  0  0  # atno 17395 bound_to 11000

$$$$
