AV-unprocessed.smi:3031|AV-procd|sdf|11550|dock10
  -GOLD-   2272016513D 1   1.00000     0.00000
 Structure written by MMmdl.
 48 49  0  0  0  0  0  0  0  0  3 V2000
  151.2913  142.7330  157.8248 C   0  0  0  0  0  0  0  0  0  0  0  0
  150.8276  141.8087  156.7360 C   0  0  0  0  0  0  0  0  0  0  0  0
  151.5552  140.7538  156.1149 C   0  0  0  0  0  0  0  0  0  0  0  0
  150.8550  140.1241  155.1856 N   0  0  0  0  0  0  0  0  0  0  0  0
  149.6607  140.7532  155.1789 N   0  0  0  0  0  0  0  0  0  0  0  0
  148.6193  140.3181  154.2657 C   0  0  0  0  0  0  0  0  0  0  0  0
  148.7650  138.8379  153.8401 C   0  0  1  0  0  0  0  0  0  0  0  0
  148.2715  137.8554  154.9160 C   0  0  0  0  0  0  0  0  0  0  0  0
  148.0390  138.5761  152.5769 N   0  3  0  0  0  0  0  0  0  0  0  0
  146.5799  138.8206  152.6157 C   0  0  0  0  0  0  0  0  0  0  0  0
  145.7905  137.5413  152.2848 C   0  0  2  0  0  0  0  0  0  0  0  0
  144.4159  137.8679  152.2102 O   0  0  0  0  0  0  0  0  0  0  0  0
  145.9746  136.4534  153.3637 C   0  0  0  0  0  0  0  0  0  0  0  0
  146.7634  135.2912  152.8785 N   0  3  0  0  0  0  0  0  0  0  0  0
  147.2271  134.3922  153.9653 C   0  0  0  0  0  0  0  0  0  0  0  0
  148.0639  133.2369  153.3893 C   0  0  0  0  0  0  0  0  0  0  0  0
  147.2968  132.5272  152.4252 O   0  0  0  0  0  0  0  0  0  0  0  0
  146.9211  133.3543  151.3314 C   0  0  0  0  0  0  0  0  0  0  0  0
  146.0471  134.5146  151.8381 C   0  0  0  0  0  0  0  0  0  0  0  0
  149.6157  141.7725  156.1064 C   0  0  0  0  0  0  0  0  0  0  0  0
  152.3552  142.6149  158.0316 H   0  0  0  0  0  0  0  0  0  0  0  0
  150.7609  142.5503  158.7595 H   0  0  0  0  0  0  0  0  0  0  0  0
  151.1302  143.7783  157.5613 H   0  0  0  0  0  0  0  0  0  0  0  0
  152.5661  140.4284  156.3120 H   0  0  0  0  0  0  0  0  0  0  0  0
  147.6494  140.4799  154.7395 H   0  0  0  0  0  0  0  0  0  0  0  0
  148.6516  140.9763  153.3976 H   0  0  0  0  0  0  0  0  0  0  0  0
  149.8215  138.6241  153.6707 H   0  0  0  0  0  0  0  0  0  0  0  0
  148.8581  137.9330  155.8315 H   0  0  0  0  0  0  0  0  0  0  0  0
  148.3525  136.8236  154.5723 H   0  0  0  0  0  0  0  0  0  0  0  0
  147.2278  138.0396  155.1727 H   0  0  0  0  0  0  0  0  0  0  0  0
  148.4235  139.1894  151.8719 H   0  0  0  0  0  0  0  0  0  0  0  0
  146.3058  139.1593  153.6145 H   0  0  0  0  0  0  0  0  0  0  0  0
  146.3174  139.6231  151.9242 H   0  0  0  0  0  0  0  0  0  0  0  0
  146.1164  137.1706  151.3132 H   0  0  0  0  0  0  0  0  0  0  0  0
  144.3285  138.8017  152.0875 H   0  0  0  0  0  0  0  0  0  0  0  0
  146.4626  136.8675  154.2477 H   0  0  0  0  0  0  0  0  0  0  0  0
  144.9888  136.1202  153.6936 H   0  0  0  0  0  0  0  0  0  0  0  0
  147.8260  134.9419  154.6903 H   0  0  0  0  0  0  0  0  0  0  0  0
  146.3657  133.9911  154.5021 H   0  0  0  0  0  0  0  0  0  0  0  0
  148.9857  133.6090  152.9389 H   0  0  0  0  0  0  0  0  0  0  0  0
  148.3530  132.5499  154.1849 H   0  0  0  0  0  0  0  0  0  0  0  0
  147.8095  133.7289  150.8204 H   0  0  0  0  0  0  0  0  0  0  0  0
  146.3674  132.7545  150.6091 H   0  0  0  0  0  0  0  0  0  0  0  0
  145.1130  134.1274  152.2483 H   0  0  0  0  0  0  0  0  0  0  0  0
  145.7861  135.1658  151.0030 H   0  0  0  0  0  0  0  0  0  0  0  0
  148.7349  142.3827  156.2408 H   0  0  0  0  0  0  0  0  0  0  0  0
  148.2125  137.6221  152.2941 H   0  0  0  0  0  0  0  0  0  0  0  0
  147.5874  135.6673  152.4306 H   0  0  0  0  0  0  0  0  0  0  0  0
  1  2  1  0  0  0  0
  1 21  1  0  0  0  0
  1 22  1  0  0  0  0
  1 23  1  0  0  0  0
  2 20  2  0  0  0  0
  2  3  1  0  0  0  0
  3  4  2  0  0  0  0
  3 24  1  0  0  0  0
  4  5  1  0  0  0  0
  5  6  1  0  0  0  0
  5 20  1  0  0  0  0
  6  7  1  0  0  0  0
  6 25  1  0  0  0  0
  6 26  1  0  0  0  0
  7  8  1  0  0  0  0
  7  9  1  0  0  0  0
  7 27  1  0  0  0  0
  8 28  1  0  0  0  0
  8 29  1  0  0  0  0
  8 30  1  0  0  0  0
  9 10  1  0  0  0  0
  9 31  1  0  0  0  0
  9 47  1  0  0  0  0
 10 11  1  0  0  0  0
 10 32  1  0  0  0  0
 10 33  1  0  0  0  0
 11 12  1  0  0  0  0
 11 13  1  0  0  0  0
 11 34  1  0  0  0  0
 12 35  1  0  0  0  0
 13 14  1  0  0  0  0
 13 36  1  0  0  0  0
 13 37  1  0  0  0  0
 14 19  1  0  0  0  0
 14 15  1  0  0  0  0
 14 48  1  0  0  0  0
 15 16  1  0  0  0  0
 15 38  1  0  0  0  0
 15 39  1  0  0  0  0
 16 17  1  0  0  0  0
 16 40  1  0  0  0  0
 16 41  1  0  0  0  0
 17 18  1  0  0  0  0
 18 19  1  0  0  0  0
 18 42  1  0  0  0  0
 18 43  1  0  0  0  0
 19 44  1  0  0  0  0
 19 45  1  0  0  0  0
 20 46  1  0  0  0  0
M  CHG  1   9   1
M  CHG  1  14   1
M  END
> <s_m_source_file>
AV-unprocessed.smi

> <i_m_source_file_index>
3031

> <i_lp_mmshare_version>
43012

> <i_f3d_flags>
0

> <s_epik_input>
W0NIM11jMVtjSF1ubihbY0hdMSlbQ0gyXVtDQEhdKFtDSDNdKVtOSF1bQ0gyXVtDQEhdKFtPSF0pW0NIMl1OMltDSDJdW0NIMl1PW0NIMl1bQ0gyXTI=

> <s_epik_cmdline>
J2VwaWtfcHl0aG9uJywgJy1waCcsICc3LjAnLCAnLXRuJywgJzgnLCAnLW1hJywgJzIwMCcsICctbWV0YWxfYmluZGluZycsICctaW1hZScsICc8aW5maWxlLm1hZT4nLCAnLW9tYWUnLCAnPG91dGZpbGUubWFlPic=

> <r_lp_tautomer_probability>
1

> <r_epik_Ionization_Penalty>
1.76542

> <r_epik_Ionization_Penalty_Charging>
1.76348

> <r_epik_Ionization_Penalty_Neutral>
0.00194017

> <r_epik_State_Penalty>
1.49348

> <r_epik_Charging_Adjusted_Penalty>
3.25696

> <i_epik_Tot_Q>
2

> <i_epik_Tot_abs_Q>
2

> <r_epik_Metal_State_Penalty>
1.49349

> <b_epik_Metal_Only>
0

> <s_lp_Force_Field>
OPLS_2005

> <r_lp_Energy>
28.4524

> <b_lp_Chiralities_Consistent>
1

> <s_lp_Variant>
AV-unprocessed.smi:3031-10

> <Gold.Version>
5.8.1

> <Gold.Id.Protein>
6NUR|6NUR_protein|mol2

> <Gold.PLP.Fitness>
55.1519

> <Gold.PLP.PLP>
-34.8423

> <Gold.PLP.part.hbond>
-5.9893

> <Gold.PLP.part.metal>
0.0000

> <Gold.PLP.part.buried>
-1.7655

> <Gold.PLP.part.nonpolar>
-28.0796

> <Gold.PLP.part.repulsive>
0.2623

> <Gold.PLP.ligand.clash>
0.0000

> <Gold.PLP.ligand.torsion>
1.6989

> <Gold.PLP.Chemscore.Hbond>
7.0000

> <Gold.PLP.Chemscore.CHOScore>
0.8077

> <Gold.PLP.Chemscore.Metal>
0.0000

> <Gold.Chemscore.Hbonds>
donor molecule, donor type, donor heavy atom, donor atom, acceptor molecule, acceptor atom, score
      L1  H     9    31       P1  7957  1.00
      L1  H     9    47       P1  7948  2.00
      L1  H    12    35       P1 10175  1.00
      L1  H    14    48       P1  7948  2.00
      P1  H  7989  7998       L1     4  1.00
      L1  C    20    46       P1  8028  0.77

> <Gold.PLP.Chemscore.Internal.Correction>
0.2843

> <Gold.Rescore>
     Score         DG    S(hbond)    S(metal)    S(lipo)     H(rot)  DE(clash)    DE(int)     intcor
     20.70     -22.56       4.54        0.00      76.52       2.74       0.11       1.75       ----

> <Gold.Chemscore.Fitness>
20.7016

> <Gold.Chemscore.DG>
-22.5566

> <Gold.Chemscore.ZeroCoef>
-5.4800

> <Gold.Chemscore.Hbond>
4.5351

> <Gold.Chemscore.Metal>
0.0000

> <Gold.Chemscore.Lipo>
76.5162

> <Gold.Chemscore.Internal_Hbond>
0.0000

> <Gold.Chemscore.DEClash>
0.1093

> <Gold.Chemscore.DEInternal>
1.7456

> <Gold.Chemscore.Rot>
2.7434

> <Gold.Chemscore.Internal.Correction>
   9.000000E+99

> <Gold.Chemscore.Hbonds>
donor molecule, donor type, donor heavy atom, donor atom, acceptor molecule, acceptor atom, score
      L1  H     9    31       P1  7957  0.95
      L1  H     9    47       P1  7948  0.99
      L1  H    12    35       P1 10175  0.98
      L1  H    14    48       P1  7948  0.97
      P1  H  7989  7998       L1     4  0.08

> <Gold.Chemscore.Hbond.Weighted>
-15.1473

> <Gold.Chemscore.Metal.Weighted>
-0.0000

> <Gold.Chemscore.Lipo.Weighted>
-8.9524

> <Gold.Chemscore.Internal_Hbond.Weighted>
0.0000

> <Gold.Chemscore.DEClash.Weighted>
0.1093

> <Gold.Chemscore.DEInternal.Weighted>
1.7456

> <Gold.Chemscore.Rot.Weighted>
7.0231

> <Gold.Chemscore.Internal.Correction.Weighted>
   9.000000E+99

> <Gold.Protein.RotatedTorsions>
[ 6907 6896 6895 6894 ] final   53.27 input  -60.11 | X-H torsion
[ 7974 7965 7964 7962 ] final   11.32 input  175.53 | X-H torsion
[ 8008 7997 7996 7995 ] final -133.94 input   59.86 | X-H torsion
[ 10167 10162 10161 10158 ] final  142.34 input  -65.29 | X-H torsion
[ 10718 10713 10712 10709 ] final  128.52 input   66.30 | X-H torsion
[ 10763 10752 10751 10750 ] final  -47.55 input  -60.55 | X-H torsion
[ 11005 11000 10999 10996 ] final -145.25 input  -57.11 | X-H torsion

> <Gold.Protein.ActiveResidues>
 VAL166  LYS551  ARG553  GLY616  TRP617  ASP618  TYR619  PRO620  LYS621  CYS622 
 ASP623  PHE694  ASN695  SER759  ASP760  ASP761  ALA762  ILE779  LEU786  VAL792 
 PHE793  MET794  SER795  GLU796  ALA797  LYS798  CYS799  TRP800  GLU811  SER814 

> <Gold.Protein.RotatedAtoms>
  152.3320  134.7247  160.0286 H   0  0  0  0  0  0  0  0  0  0  0  0  # atno 6907 bound_to 6896
  151.7660  133.3332  159.3439 H   0  0  0  0  0  0  0  0  0  0  0  0  # atno 6908 bound_to 6896
  150.7428  134.5994  159.6073 H   0  0  0  0  0  0  0  0  0  0  0  0  # atno 6909 bound_to 6896
  146.2373  139.9503  142.8471 H   0  0  0  0  0  0  0  0  0  0  0  0  # atno 7974 bound_to 7965
  155.3538  140.0479  157.3046 H   0  0  0  0  0  0  0  0  0  0  0  0  # atno 8008 bound_to 7997
  154.5213  140.2226  155.8934 H   0  0  0  0  0  0  0  0  0  0  0  0  # atno 8009 bound_to 7997
  156.1693  140.3099  155.8950 H   0  0  0  0  0  0  0  0  0  0  0  0  # atno 8010 bound_to 7997
  139.4997  144.6113  151.6264 H   0  0  0  0  0  0  0  0  0  0  0  0  # atno 10167 bound_to 10162
  157.5237  131.1098  150.9115 H   0  0  0  0  0  0  0  0  0  0  0  0  # atno 10718 bound_to 10713
  154.0632  135.6615  153.4814 H   0  0  0  0  0  0  0  0  0  0  0  0  # atno 10763 bound_to 10752
  153.0419  135.5140  154.7639 H   0  0  0  0  0  0  0  0  0  0  0  0  # atno 10764 bound_to 10752
  154.6681  135.3025  154.9745 H   0  0  0  0  0  0  0  0  0  0  0  0  # atno 10765 bound_to 10752
  140.7942  134.2933  157.5002 H   0  0  0  0  0  0  0  0  0  0  0  0  # atno 11005 bound_to 11000
  145.1868  140.9793  143.4234 LP  0  0  0  0  0  0  0  0  0  0  0  0  # atno 17320 bound_to 7965
  144.9893  139.3706  143.6223 LP  0  0  0  0  0  0  0  0  0  0  0  0  # atno 17321 bound_to 7965
  140.5789  143.9980  150.6257 LP  0  0  0  0  0  0  0  0  0  0  0  0  # atno 17342 bound_to 10162
  140.3123  143.3190  152.0867 LP  0  0  0  0  0  0  0  0  0  0  0  0  # atno 17343 bound_to 10162
  156.9718  130.5494  149.5291 LP  0  0  0  0  0  0  0  0  0  0  0  0  # atno 17370 bound_to 10713
  156.0371  130.5458  150.8681 LP  0  0  0  0  0  0  0  0  0  0  0  0  # atno 17371 bound_to 10713
  139.8728  134.9392  156.3735 LP  0  0  0  0  0  0  0  0  0  0  0  0  # atno 17394 bound_to 11000
  140.9360  133.7547  156.0085 LP  0  0  0  0  0  0  0  0  0  0  0  0  # atno 17395 bound_to 11000

$$$$
