AV-unprocessed.smi:1588|AV-procd|sdf|6391|dock4
  -GOLD-   22720 7 23D 1   1.00000     0.00000
 Structure written by MMmdl.
 37 38  0  0  0  0  0  0  0  0  2 V2000
  143.8178  132.7102  148.6388 C   0  0  0  0  0  0  0  0  0  0  0  0
  144.1659  132.8090  150.1303 C   0  0  0  0  0  0  0  0  0  0  0  0
  143.6278  134.0430  150.7509 N   0  3  1  0  0  0  0  0  0  0  0  0
  142.9980  133.8511  152.0772 C   0  0  0  0  0  0  0  0  0  0  0  0
  143.2127  135.1643  152.8245 C   0  0  0  0  0  0  0  0  0  0  0  0
  144.5969  135.5932  152.3434 C   0  0  2  0  0  0  0  0  0  0  0  0
  144.9197  137.0871  152.5415 C   0  0  0  0  0  0  0  0  0  0  0  0
  146.3517  137.3301  152.6814 N   0  0  0  0  0  0  0  0  0  0  0  0
  146.8983  138.2717  153.4639 C   0  0  0  0  0  0  0  0  0  0  0  0
  146.2372  139.0526  154.1488 O   0  0  0  0  0  0  0  0  0  0  0  0
  148.2394  138.2468  153.3963 N   0  0  0  0  0  0  0  0  0  0  0  0
  149.1513  139.0868  154.0845 C   0  0  0  0  0  0  0  0  0  0  0  0
  150.5645  138.9348  154.0654 C   0  0  0  0  0  0  0  0  0  0  0  0
  151.1609  139.8638  154.7989 N   0  0  0  0  0  0  0  0  0  0  0  0
  150.1418  140.6073  155.2859 N   0  0  0  0  0  0  0  0  0  0  0  0
  148.9006  140.1714  154.8775 C   0  0  0  0  0  0  0  0  0  0  0  0
  144.6157  135.1421  150.8764 C   0  0  0  0  0  0  0  0  0  0  0  0
  150.3074  141.4003  155.8896 H   0  0  0  0  0  0  0  0  0  0  0  0
  144.2707  131.8227  148.1958 H   0  0  0  0  0  0  0  0  0  0  0  0
  144.1853  133.5780  148.0899 H   0  0  0  0  0  0  0  0  0  0  0  0
  142.7414  132.6417  148.4799 H   0  0  0  0  0  0  0  0  0  0  0  0
  143.8003  131.9313  150.6659 H   0  0  0  0  0  0  0  0  0  0  0  0
  145.2518  132.8106  150.2340 H   0  0  0  0  0  0  0  0  0  0  0  0
  141.9431  133.5903  151.9877 H   0  0  0  0  0  0  0  0  0  0  0  0
  143.4990  133.0444  152.6150 H   0  0  0  0  0  0  0  0  0  0  0  0
  142.4604  135.8943  152.5221 H   0  0  0  0  0  0  0  0  0  0  0  0
  143.1557  135.0465  153.9072 H   0  0  0  0  0  0  0  0  0  0  0  0
  145.3354  134.9944  152.8797 H   0  0  0  0  0  0  0  0  0  0  0  0
  144.5270  137.6723  151.7082 H   0  0  0  0  0  0  0  0  0  0  0  0
  144.4263  137.4614  153.4389 H   0  0  0  0  0  0  0  0  0  0  0  0
  146.9706  136.7307  152.1549 H   0  0  0  0  0  0  0  0  0  0  0  0
  148.6534  137.5504  152.7941 H   0  0  0  0  0  0  0  0  0  0  0  0
  151.1650  138.1965  153.5545 H   0  0  0  0  0  0  0  0  0  0  0  0
  147.9871  140.6606  155.1817 H   0  0  0  0  0  0  0  0  0  0  0  0
  145.6201  134.8437  150.5720 H   0  0  0  0  0  0  0  0  0  0  0  0
  144.3010  135.9501  150.2148 H   0  0  0  0  0  0  0  0  0  0  0  0
  142.9069  134.3925  150.1358 H   0  0  0  0  0  0  0  0  0  0  0  0
  1  2  1  0  0  0  0
  1 19  1  0  0  0  0
  1 20  1  0  0  0  0
  1 21  1  0  0  0  0
  2  3  1  0  0  0  0
  2 22  1  0  0  0  0
  2 23  1  0  0  0  0
  3 17  1  0  0  0  0
  3  4  1  0  0  0  0
  3 37  1  0  0  0  0
  4  5  1  0  0  0  0
  4 24  1  0  0  0  0
  4 25  1  0  0  0  0
  5  6  1  0  0  0  0
  5 26  1  0  0  0  0
  5 27  1  0  0  0  0
  6  7  1  0  0  0  0
  6 17  1  0  0  0  0
  6 28  1  0  0  0  0
  7  8  1  0  0  0  0
  7 29  1  0  0  0  0
  7 30  1  0  0  0  0
  8  9  1  0  0  0  0
  8 31  1  0  0  0  0
  9 10  2  0  0  0  0
  9 11  1  0  0  0  0
 11 12  1  0  0  0  0
 11 32  1  0  0  0  0
 12 16  2  0  0  0  0
 12 13  1  0  0  0  0
 13 14  2  0  0  0  0
 13 33  1  0  0  0  0
 14 15  1  0  0  0  0
 15 18  1  0  0  0  0
 15 16  1  0  0  0  0
 16 34  1  0  0  0  0
 17 35  1  0  0  0  0
 17 36  1  0  0  0  0
M  CHG  1   3   1
M  END
> <s_m_source_file>
AV-unprocessed.smi

> <i_m_source_file_index>
1588

> <i_lp_mmshare_version>
43012

> <i_f3d_flags>
0

> <s_epik_input>
W0NIM11bQ0gyXU4xW0NIMl1bQ0gyXVtDQEhdKFtDSDJdMSlbQ0gyXVtOSF1DKD1PKVtOSF1jMltjSF1uW25IXVtjSF0y

> <s_epik_cmdline>
J2VwaWtfcHl0aG9uJywgJy1waCcsICc3LjAnLCAnLXRuJywgJzgnLCAnLW1hJywgJzIwMCcsICctbWV0YWxfYmluZGluZycsICctaW1hZScsICc8aW5maWxlLm1hZT4nLCAnLW9tYWUnLCAnPG91dGZpbGUubWFlPic=

> <r_lp_tautomer_probability>
0.5

> <r_epik_Ionization_Penalty>
0.000628417

> <r_epik_Ionization_Penalty_Charging>
0.000582718

> <r_epik_Ionization_Penalty_Neutral>
4.56984e-05

> <r_epik_State_Penalty>
0.000366292

> <r_epik_Charging_Adjusted_Penalty>
0.00094901

> <i_epik_Tot_Q>
1

> <i_epik_Tot_abs_Q>
1

> <r_epik_Metal_State_Penalty>
-0

> <b_epik_Metal_Only>
0

> <s_lp_Force_Field>
OPLS_2005

> <r_lp_Energy>
31.1472

> <b_lp_Chiralities_Consistent>
1

> <s_lp_Variant>
AV-unprocessed.smi:1588-3

> <Gold.Version>
5.8.1

> <Gold.Id.Protein>
6NUR|6NUR_protein|mol2

> <Gold.PLP.Fitness>
42.4408

> <Gold.PLP.PLP>
-30.5360

> <Gold.PLP.part.hbond>
-4.5045

> <Gold.PLP.part.metal>
0.0000

> <Gold.PLP.part.buried>
-4.4873

> <Gold.PLP.part.nonpolar>
-22.0717

> <Gold.PLP.part.repulsive>
0.3825

> <Gold.PLP.ligand.clash>
0.0000

> <Gold.PLP.ligand.torsion>
1.0944

> <Gold.PLP.Chemscore.Hbond>
4.6945

> <Gold.PLP.Chemscore.CHOScore>
0.0000

> <Gold.PLP.Chemscore.Metal>
0.0000

> <Gold.Chemscore.Hbonds>
donor molecule, donor type, donor heavy atom, donor atom, acceptor molecule, acceptor atom, score
      L1  H     3    37       P1 10186  2.00
      L1  H     8    31       P1  7948  0.86
      L1  H    11    32       P1  7948  1.00
      P1  H  7989  7998       L1    14  0.85

> <Gold.PLP.Chemscore.Internal.Correction>
0.0101

> <Gold.Rescore>
     Score         DG    S(hbond)    S(metal)    S(lipo)     H(rot)  DE(clash)    DE(int)     intcor
     16.37     -18.52       2.69        0.00      69.11       1.58       0.04       2.11       ----

> <Gold.Chemscore.Fitness>
16.3722

> <Gold.Chemscore.DG>
-18.5225

> <Gold.Chemscore.ZeroCoef>
-5.4800

> <Gold.Chemscore.Hbond>
2.6913

> <Gold.Chemscore.Metal>
0.0000

> <Gold.Chemscore.Lipo>
69.1149

> <Gold.Chemscore.Internal_Hbond>
0.0000

> <Gold.Chemscore.DEClash>
0.0402

> <Gold.Chemscore.DEInternal>
2.1101

> <Gold.Chemscore.Rot>
1.5753

> <Gold.Chemscore.Internal.Correction>
   9.000000E+99

> <Gold.Chemscore.Hbonds>
donor molecule, donor type, donor heavy atom, donor atom, acceptor molecule, acceptor atom, score
      L1  H     3    37       P1 10186  0.78
      L1  H     8    31       P1  7948  0.79
      L1  H    11    32       P1  7948  0.99
      P1  H  7989  7998       L1    14  0.04

> <Gold.Chemscore.Hbond.Weighted>
-8.9888

> <Gold.Chemscore.Metal.Weighted>
-0.0000

> <Gold.Chemscore.Lipo.Weighted>
-8.0864

> <Gold.Chemscore.Internal_Hbond.Weighted>
0.0000

> <Gold.Chemscore.DEClash.Weighted>
0.0402

> <Gold.Chemscore.DEInternal.Weighted>
2.1101

> <Gold.Chemscore.Rot.Weighted>
4.0328

> <Gold.Chemscore.Internal.Correction.Weighted>
   9.000000E+99

> <Gold.Protein.RotatedTorsions>
[ 6907 6896 6895 6894 ] final  -17.77 input  -60.11 | X-H torsion
[ 7974 7965 7964 7962 ] final -171.01 input  175.53 | X-H torsion
[ 8008 7997 7996 7995 ] final  -13.08 input   59.86 | X-H torsion
[ 10167 10162 10161 10158 ] final  -66.56 input  -65.29 | X-H torsion
[ 10718 10713 10712 10709 ] final   81.02 input   66.30 | X-H torsion
[ 10763 10752 10751 10750 ] final  117.42 input  -60.55 | X-H torsion
[ 11005 11000 10999 10996 ] final   18.07 input  -57.11 | X-H torsion

> <Gold.Protein.ActiveResidues>
 VAL166  LYS551  ARG553  GLY616  TRP617  ASP618  TYR619  PRO620  LYS621  CYS622 
 ASP623  PHE694  ASN695  SER759  ASP760  ASP761  ALA762  ILE779  LEU786  VAL792 
 PHE793  MET794  SER795  GLU796  ALA797  LYS798  CYS799  TRP800  GLU811  SER814 

> <Gold.Protein.RotatedAtoms>
  151.2882  135.0734  159.9194 H   0  0  0  0  0  0  0  0  0  0  0  0  # atno 6907 bound_to 6896
  152.5321  133.9959  159.7882 H   0  0  0  0  0  0  0  0  0  0  0  0  # atno 6908 bound_to 6896
  151.0225  133.5813  159.2700 H   0  0  0  0  0  0  0  0  0  0  0  0  # atno 6909 bound_to 6896
  144.7162  140.1986  143.6341 H   0  0  0  0  0  0  0  0  0  0  0  0  # atno 7974 bound_to 7965
  154.5323  140.2259  155.8783 H   0  0  0  0  0  0  0  0  0  0  0  0  # atno 8008 bound_to 7997
  156.1776  140.3107  155.9051 H   0  0  0  0  0  0  0  0  0  0  0  0  # atno 8009 bound_to 7997
  155.3426  140.0451  157.3036 H   0  0  0  0  0  0  0  0  0  0  0  0  # atno 8010 bound_to 7997
  140.5648  143.2314  151.6657 H   0  0  0  0  0  0  0  0  0  0  0  0  # atno 10167 bound_to 10162
  157.6822  130.9985  150.2164 H   0  0  0  0  0  0  0  0  0  0  0  0  # atno 10718 bound_to 10713
  153.5522  135.3537  155.2764 H   0  0  0  0  0  0  0  0  0  0  0  0  # atno 10763 bound_to 10752
  154.8705  135.4116  154.2924 H   0  0  0  0  0  0  0  0  0  0  0  0  # atno 10764 bound_to 10752
  153.3653  135.7062  153.6749 H   0  0  0  0  0  0  0  0  0  0  0  0  # atno 10765 bound_to 10752
  140.4288  134.1441  155.7679 H   0  0  0  0  0  0  0  0  0  0  0  0  # atno 11005 bound_to 11000
  145.8701  139.2267  143.1666 LP  0  0  0  0  0  0  0  0  0  0  0  0  # atno 17320 bound_to 7965
  146.0093  140.8450  142.9979 LP  0  0  0  0  0  0  0  0  0  0  0  0  # atno 17321 bound_to 7965
  139.5087  144.3601  152.0570 LP  0  0  0  0  0  0  0  0  0  0  0  0  # atno 17342 bound_to 10162
  140.2732  144.3942  150.6144 LP  0  0  0  0  0  0  0  0  0  0  0  0  # atno 17343 bound_to 10162
  156.2825  130.3735  149.7921 LP  0  0  0  0  0  0  0  0  0  0  0  0  # atno 17370 bound_to 10713
  156.5605  130.8381  151.3327 LP  0  0  0  0  0  0  0  0  0  0  0  0  # atno 17371 bound_to 10713
  141.1754  133.8525  157.1438 LP  0  0  0  0  0  0  0  0  0  0  0  0  # atno 17394 bound_to 11000
  140.0148  134.9972  157.0471 LP  0  0  0  0  0  0  0  0  0  0  0  0  # atno 17395 bound_to 11000

$$$$
