AV-unprocessed.smi:1586|AV-procd|sdf|6377|dock7
  -GOLD-   22720 7 03D 1   1.00000     0.00000
 Structure written by MMmdl.
 46 47  0  0  0  0  0  0  0  0  1 V2000
  153.3078  141.9292  160.1755 C   0  0  0  0  0  0  0  0  0  0  0  0
  152.3305  142.3141  159.0552 C   0  0  0  0  0  0  0  0  0  0  0  0
  152.1906  141.3206  157.9925 N   0  0  0  0  0  0  0  0  0  0  0  0
  151.8495  139.9947  158.5049 C   0  0  0  0  0  0  0  0  0  0  0  0
  151.7084  138.9649  157.3684 C   0  0  0  0  0  0  0  0  0  0  0  0
  150.6779  139.3407  156.3875 N   0  0  0  0  0  0  0  0  0  0  0  0
  150.5553  138.3591  155.2848 C   0  0  2  0  0  0  0  0  0  0  0  0
  149.5357  138.7977  154.2030 C   0  0  0  0  0  0  0  0  0  0  0  0
  150.1828  136.9280  155.7715 C   0  0  0  0  0  0  0  0  0  0  0  0
  149.5815  136.0984  154.7304 N   0  0  0  0  0  0  0  0  0  0  0  0
  149.1024  134.8596  154.9151 C   0  0  0  0  0  0  0  0  0  0  0  0
  149.1132  134.2853  156.0038 O   0  0  0  0  0  0  0  0  0  0  0  0
  148.6230  134.3478  153.7689 N   0  0  0  0  0  0  0  0  0  0  0  0
  148.0396  133.0735  153.5480 C   0  0  0  0  0  0  0  0  0  0  0  0
  147.1790  132.7137  152.4700 C   0  0  0  0  0  0  0  0  0  0  0  0
  146.9066  131.3988  152.7217 C   0  0  0  0  0  0  0  0  0  0  0  0
  146.0793  130.3811  152.0142 C   0  0  0  0  0  0  0  0  0  0  0  0
  147.5419  130.9911  153.8530 O   0  0  0  0  0  0  0  0  0  0  0  0
  148.2651  132.0695  154.3754 N   0  0  0  0  0  0  0  0  0  0  0  0
  151.0104  140.6895  155.9023 C   0  0  0  0  0  0  0  0  0  0  0  0
  151.1505  141.7107  157.0459 C   0  0  0  0  0  0  0  0  0  0  0  0
  153.4400  142.7594  160.8695 H   0  0  0  0  0  0  0  0  0  0  0  0
  154.2883  141.6761  159.7716 H   0  0  0  0  0  0  0  0  0  0  0  0
  152.9500  141.0785  160.7548 H   0  0  0  0  0  0  0  0  0  0  0  0
  151.3534  142.5406  159.4848 H   0  0  0  0  0  0  0  0  0  0  0  0
  152.6882  143.2470  158.6174 H   0  0  0  0  0  0  0  0  0  0  0  0
  152.6214  139.6465  159.1902 H   0  0  0  0  0  0  0  0  0  0  0  0
  150.9210  140.0402  159.0765 H   0  0  0  0  0  0  0  0  0  0  0  0
  152.6700  138.8321  156.8699 H   0  0  0  0  0  0  0  0  0  0  0  0
  151.4631  138.0162  157.8402 H   0  0  0  0  0  0  0  0  0  0  0  0
  151.5273  138.2899  154.7940 H   0  0  0  0  0  0  0  0  0  0  0  0
  149.4071  138.0484  153.4231 H   0  0  0  0  0  0  0  0  0  0  0  0
  149.8516  139.6986  153.6788 H   0  0  0  0  0  0  0  0  0  0  0  0
  148.5547  138.9871  154.6397 H   0  0  0  0  0  0  0  0  0  0  0  0
  151.0483  136.3812  156.1427 H   0  0  0  0  0  0  0  0  0  0  0  0
  149.4803  136.9911  156.6029 H   0  0  0  0  0  0  0  0  0  0  0  0
  149.5335  136.4965  153.8039 H   0  0  0  0  0  0  0  0  0  0  0  0
  148.6824  134.9406  152.9541 H   0  0  0  0  0  0  0  0  0  0  0  0
  146.8139  133.3046  151.6440 H   0  0  0  0  0  0  0  0  0  0  0  0
  145.8000  130.7295  151.0197 H   0  0  0  0  0  0  0  0  0  0  0  0
  145.1646  130.1732  152.5693 H   0  0  0  0  0  0  0  0  0  0  0  0
  146.6279  129.4459  151.9019 H   0  0  0  0  0  0  0  0  0  0  0  0
  151.9322  140.6613  155.3190 H   0  0  0  0  0  0  0  0  0  0  0  0
  150.2295  141.0617  155.2418 H   0  0  0  0  0  0  0  0  0  0  0  0
  150.1945  141.8179  157.5612 H   0  0  0  0  0  0  0  0  0  0  0  0
  151.3863  142.6877  156.6228 H   0  0  0  0  0  0  0  0  0  0  0  0
  1  2  1  0  0  0  0
  1 22  1  0  0  0  0
  1 23  1  0  0  0  0
  1 24  1  0  0  0  0
  2  3  1  0  0  0  0
  2 25  1  0  0  0  0
  2 26  1  0  0  0  0
  3 21  1  0  0  0  0
  3  4  1  0  0  0  0
  4  5  1  0  0  0  0
  4 27  1  0  0  0  0
  4 28  1  0  0  0  0
  5  6  1  0  0  0  0
  5 29  1  0  0  0  0
  5 30  1  0  0  0  0
  6  7  1  0  0  0  0
  6 20  1  0  0  0  0
  7  8  1  0  0  0  0
  7  9  1  0  0  0  0
  7 31  1  0  0  0  0
  8 32  1  0  0  0  0
  8 33  1  0  0  0  0
  8 34  1  0  0  0  0
  9 10  1  0  0  0  0
  9 35  1  0  0  0  0
  9 36  1  0  0  0  0
 10 11  1  0  0  0  0
 10 37  1  0  0  0  0
 11 12  2  0  0  0  0
 11 13  1  0  0  0  0
 13 14  1  0  0  0  0
 13 38  1  0  0  0  0
 14 19  2  0  0  0  0
 14 15  1  0  0  0  0
 15 16  2  0  0  0  0
 15 39  1  0  0  0  0
 16 17  1  0  0  0  0
 16 18  1  0  0  0  0
 17 40  1  0  0  0  0
 17 41  1  0  0  0  0
 17 42  1  0  0  0  0
 18 19  1  0  0  0  0
 20 21  1  0  0  0  0
 20 43  1  0  0  0  0
 20 44  1  0  0  0  0
 21 45  1  0  0  0  0
 21 46  1  0  0  0  0
M  END
> <s_m_source_file>
AV-unprocessed.smi

> <i_m_source_file_index>
1586

> <i_lp_mmshare_version>
43012

> <i_f3d_flags>
0

> <s_epik_input>
W0NIM11bQ0gyXU4xW0NIMl1bQ0gyXU4oW0NIMl1bQ0gyXTEpW0NASF0oW0NIM10pW0NIMl1bTkhdQyg9TylbTkhdYzJbY0hdYyhbQ0gzXSlvbjI=

> <s_epik_cmdline>
J2VwaWtfcHl0aG9uJywgJy1waCcsICc3LjAnLCAnLXRuJywgJzgnLCAnLW1hJywgJzIwMCcsICctbWV0YWxfYmluZGluZycsICctaW1hZScsICc8aW5maWxlLm1hZT4nLCAnLW9tYWUnLCAnPG91dGZpbGUubWFlPic=

> <r_epik_Ionization_Penalty>
2.42597

> <r_epik_Ionization_Penalty_Charging>
0

> <r_epik_Ionization_Penalty_Neutral>
2.42597

> <r_epik_State_Penalty>
1.76326

> <r_epik_Charging_Adjusted_Penalty>
1.76326

> <i_epik_Tot_Q>
0

> <i_epik_Tot_abs_Q>
0

> <r_epik_Metal_State_Penalty>
1.7742

> <b_epik_Metal_Only>
0

> <s_lp_Force_Field>
OPLS_2005

> <r_lp_Energy>
40.1671

> <b_lp_Chiralities_Consistent>
1

> <s_lp_Variant>
AV-unprocessed.smi:1586-5

> <Gold.Version>
5.8.1

> <Gold.Id.Protein>
6NUR|6NUR_protein|mol2

> <Gold.PLP.Fitness>
37.8810

> <Gold.PLP.PLP>
-32.8287

> <Gold.PLP.part.hbond>
-2.0000

> <Gold.PLP.part.metal>
0.0000

> <Gold.PLP.part.buried>
-3.7282

> <Gold.PLP.part.nonpolar>
-27.4565

> <Gold.PLP.part.repulsive>
0.1696

> <Gold.PLP.ligand.clash>
0.0000

> <Gold.PLP.ligand.torsion>
0.4089

> <Gold.PLP.Chemscore.Hbond>
1.9440

> <Gold.PLP.Chemscore.CHOScore>
0.0000

> <Gold.PLP.Chemscore.Metal>
0.0000

> <Gold.Chemscore.Hbonds>
donor molecule, donor type, donor heavy atom, donor atom, acceptor molecule, acceptor atom, score
      L1  H    10    37       P1  7948  0.94
      L1  H    13    38       P1  7948  1.00

> <Gold.PLP.Chemscore.Internal.Correction>
0.0382

> <Gold.Rescore>
     Score         DG    S(hbond)    S(metal)    S(lipo)     H(rot)  DE(clash)    DE(int)     intcor
     14.21     -16.04       1.75        0.00      77.80       1.72       0.06       1.78       ----

> <Gold.Chemscore.Fitness>
14.2052

> <Gold.Chemscore.DG>
-16.0425

> <Gold.Chemscore.ZeroCoef>
-5.4800

> <Gold.Chemscore.Hbond>
1.7536

> <Gold.Chemscore.Metal>
0.0000

> <Gold.Chemscore.Lipo>
77.8045

> <Gold.Chemscore.Internal_Hbond>
0.0000

> <Gold.Chemscore.DEClash>
0.0557

> <Gold.Chemscore.DEInternal>
1.7816

> <Gold.Chemscore.Rot>
1.7178

> <Gold.Chemscore.Internal.Correction>
   9.000000E+99

> <Gold.Chemscore.Hbonds>
donor molecule, donor type, donor heavy atom, donor atom, acceptor molecule, acceptor atom, score
      L1  H    10    37       P1  7948  0.64
      L1  H    13    38       P1  7948  0.35

> <Gold.Chemscore.Hbond.Weighted>
-5.8570

> <Gold.Chemscore.Metal.Weighted>
-0.0000

> <Gold.Chemscore.Lipo.Weighted>
-9.1031

> <Gold.Chemscore.Internal_Hbond.Weighted>
0.0000

> <Gold.Chemscore.DEClash.Weighted>
0.0557

> <Gold.Chemscore.DEInternal.Weighted>
1.7816

> <Gold.Chemscore.Rot.Weighted>
4.3976

> <Gold.Chemscore.Internal.Correction.Weighted>
   9.000000E+99

> <Gold.Protein.RotatedTorsions>
[ 6907 6896 6895 6894 ] final  136.73 input  -60.11 | X-H torsion
[ 7974 7965 7964 7962 ] final  106.51 input  175.53 | X-H torsion
[ 8008 7997 7996 7995 ] final   86.73 input   59.86 | X-H torsion
[ 10167 10162 10161 10158 ] final  152.53 input  -65.29 | X-H torsion
[ 10718 10713 10712 10709 ] final  -64.62 input   66.30 | X-H torsion
[ 10763 10752 10751 10750 ] final  172.42 input  -60.55 | X-H torsion
[ 11005 11000 10999 10996 ] final -143.41 input  -57.11 | X-H torsion

> <Gold.Protein.ActiveResidues>
 VAL166  LYS551  ARG553  GLY616  TRP617  ASP618  TYR619  PRO620  LYS621  CYS622 
 ASP623  PHE694  ASN695  SER759  ASP760  ASP761  ALA762  ILE779  LEU786  VAL792 
 PHE793  MET794  SER795  GLU796  ALA797  LYS798  CYS799  TRP800  GLU811  SER814 

> <Gold.Protein.RotatedAtoms>
  152.2861  133.5516  159.5527 H   0  0  0  0  0  0  0  0  0  0  0  0  # atno 6907 bound_to 6896
  150.7216  134.0495  159.3802 H   0  0  0  0  0  0  0  0  0  0  0  0  # atno 6908 bound_to 6896
  151.8403  135.0592  160.0498 H   0  0  0  0  0  0  0  0  0  0  0  0  # atno 6909 bound_to 6896
  145.3057  139.2556  143.3790 H   0  0  0  0  0  0  0  0  0  0  0  0  # atno 7974 bound_to 7965
  155.9665  140.3389  155.6537 H   0  0  0  0  0  0  0  0  0  0  0  0  # atno 8008 bound_to 7997
  155.6730  140.0729  157.2531 H   0  0  0  0  0  0  0  0  0  0  0  0  # atno 8009 bound_to 7997
  154.4156  140.1688  156.1887 H   0  0  0  0  0  0  0  0  0  0  0  0  # atno 8010 bound_to 7997
  139.4832  144.5350  151.7660 H   0  0  0  0  0  0  0  0  0  0  0  0  # atno 10167 bound_to 10162
  156.0718  130.4236  150.1446 H   0  0  0  0  0  0  0  0  0  0  0  0  # atno 10718 bound_to 10713
  154.4258  135.2759  155.1945 H   0  0  0  0  0  0  0  0  0  0  0  0  # atno 10763 bound_to 10752
  154.3872  135.6074  153.5827 H   0  0  0  0  0  0  0  0  0  0  0  0  # atno 10764 bound_to 10752
  152.9834  135.5894  154.4561 H   0  0  0  0  0  0  0  0  0  0  0  0  # atno 10765 bound_to 10752
  140.8128  134.2724  157.4933 H   0  0  0  0  0  0  0  0  0  0  0  0  # atno 11005 bound_to 11000
  146.3136  140.3581  142.8662 LP  0  0  0  0  0  0  0  0  0  0  0  0  # atno 17320 bound_to 7965
  144.9057  140.7697  143.5839 LP  0  0  0  0  0  0  0  0  0  0  0  0  # atno 17321 bound_to 7965
  140.4881  144.1351  150.5945 LP  0  0  0  0  0  0  0  0  0  0  0  0  # atno 17342 bound_to 10162
  140.4202  143.2615  151.9725 LP  0  0  0  0  0  0  0  0  0  0  0  0  # atno 17343 bound_to 10162
  156.9496  130.9770  151.3501 LP  0  0  0  0  0  0  0  0  0  0  0  0  # atno 17370 bound_to 10713
  157.5793  130.8365  149.8500 LP  0  0  0  0  0  0  0  0  0  0  0  0  # atno 17371 bound_to 10713
  139.8713  134.9492  156.4020 LP  0  0  0  0  0  0  0  0  0  0  0  0  # atno 17394 bound_to 11000
  140.9180  133.7665  155.9872 LP  0  0  0  0  0  0  0  0  0  0  0  0  # atno 17395 bound_to 11000

$$$$
