AV-unprocessed.smi:1658|AV-procd|sdf|6649|dock4
  -GOLD-   22720 7353D 1   1.00000     0.00000
 Structure written by MMmdl.
 47 48  0  0  0  0  0  0  0  0  2 V2000
  144.2878  132.4324  149.8526 C   0  0  0  0  0  0  0  0  0  0  0  0
  145.1494  132.7585  150.9378 O   0  0  0  0  0  0  0  0  0  0  0  0
  145.0744  134.0270  151.4757 C   0  0  0  0  0  0  0  0  0  0  0  0
  145.8372  134.3182  152.6240 C   0  0  0  0  0  0  0  0  0  0  0  0
  145.7612  135.6095  153.1788 C   0  0  0  0  0  0  0  0  0  0  0  0
  144.9357  136.5740  152.5668 C   0  0  0  0  0  0  0  0  0  0  0  0
  144.8580  137.8615  153.1627 N   0  0  0  0  0  0  0  0  0  0  0  0
  145.4481  138.2977  154.2884 C   0  0  0  0  0  0  0  0  0  0  0  0
  146.1183  137.6066  155.0552 O   0  0  0  0  0  0  0  0  0  0  0  0
  145.2027  139.6005  154.4891 N   0  0  0  0  0  0  0  0  0  0  0  0
  145.6819  140.3982  155.6186 C   0  0  0  0  0  0  0  0  0  0  0  0
  146.8373  141.3869  155.2651 C   0  0  0  0  0  0  0  0  0  0  0  0
  146.5927  142.0493  153.8867 C   0  0  0  0  0  0  0  0  0  0  0  0
  146.8417  142.5105  156.3361 C   0  0  0  0  0  0  0  0  0  0  0  0
  148.1422  140.6257  155.2754 N   0  3  0  0  0  0  0  0  0  0  0  0
  148.3513  139.6984  154.1254 C   0  0  0  0  0  0  0  0  0  0  0  0
  149.6116  138.8445  154.3342 C   0  0  0  0  0  0  0  0  0  0  0  0
  150.7377  139.6965  154.4805 O   0  0  0  0  0  0  0  0  0  0  0  0
  150.6140  140.5322  155.6214 C   0  0  0  0  0  0  0  0  0  0  0  0
  149.3769  141.4370  155.4841 C   0  0  0  0  0  0  0  0  0  0  0  0
  144.2008  136.1813  151.4217 C   0  0  0  0  0  0  0  0  0  0  0  0
  144.2674  134.9435  150.8862 N   0  0  0  0  0  0  0  0  0  0  0  0
  144.4634  131.4000  149.5509 H   0  0  0  0  0  0  0  0  0  0  0  0
  144.4789  133.0675  148.9866 H   0  0  0  0  0  0  0  0  0  0  0  0
  143.2378  132.5192  150.1360 H   0  0  0  0  0  0  0  0  0  0  0  0
  146.4667  133.5639  153.0727 H   0  0  0  0  0  0  0  0  0  0  0  0
  146.3335  135.8538  154.0620 H   0  0  0  0  0  0  0  0  0  0  0  0
  144.2563  138.5204  152.6904 H   0  0  0  0  0  0  0  0  0  0  0  0
  144.6365  140.0820  153.8057 H   0  0  0  0  0  0  0  0  0  0  0  0
  144.8278  140.9609  155.9975 H   0  0  0  0  0  0  0  0  0  0  0  0
  145.9611  139.7172  156.4211 H   0  0  0  0  0  0  0  0  0  0  0  0
  145.7237  142.7072  153.9089 H   0  0  0  0  0  0  0  0  0  0  0  0
  146.4084  141.3126  153.1045 H   0  0  0  0  0  0  0  0  0  0  0  0
  147.4383  142.6619  153.5746 H   0  0  0  0  0  0  0  0  0  0  0  0
  145.8735  143.0042  156.4183 H   0  0  0  0  0  0  0  0  0  0  0  0
  147.5472  143.3062  156.0964 H   0  0  0  0  0  0  0  0  0  0  0  0
  147.0911  142.1211  157.3237 H   0  0  0  0  0  0  0  0  0  0  0  0
  147.5081  139.0256  153.9885 H   0  0  0  0  0  0  0  0  0  0  0  0
  148.4602  140.2649  153.2001 H   0  0  0  0  0  0  0  0  0  0  0  0
  149.5074  138.1962  155.2057 H   0  0  0  0  0  0  0  0  0  0  0  0
  149.7724  138.1962  153.4725 H   0  0  0  0  0  0  0  0  0  0  0  0
  150.5527  139.9248  156.5260 H   0  0  0  0  0  0  0  0  0  0  0  0
  151.5139  141.1412  155.7098 H   0  0  0  0  0  0  0  0  0  0  0  0
  149.5146  142.1292  154.6529 H   0  0  0  0  0  0  0  0  0  0  0  0
  149.3207  142.0296  156.3954 H   0  0  0  0  0  0  0  0  0  0  0  0
  143.5200  136.8524  150.9218 H   0  0  0  0  0  0  0  0  0  0  0  0
  148.0848  140.0339  156.0920 H   0  0  0  0  0  0  0  0  0  0  0  0
  1  2  1  0  0  0  0
  1 23  1  0  0  0  0
  1 24  1  0  0  0  0
  1 25  1  0  0  0  0
  2  3  1  0  0  0  0
  3 22  1  0  0  0  0
  3  4  2  0  0  0  0
  4  5  1  0  0  0  0
  4 26  1  0  0  0  0
  5  6  2  0  0  0  0
  5 27  1  0  0  0  0
  6  7  1  0  0  0  0
  6 21  1  0  0  0  0
  7  8  1  0  0  0  0
  7 28  1  0  0  0  0
  8  9  2  0  0  0  0
  8 10  1  0  0  0  0
 10 11  1  0  0  0  0
 10 29  1  0  0  0  0
 11 12  1  0  0  0  0
 11 30  1  0  0  0  0
 11 31  1  0  0  0  0
 12 13  1  0  0  0  0
 12 14  1  0  0  0  0
 12 15  1  0  0  0  0
 13 32  1  0  0  0  0
 13 33  1  0  0  0  0
 13 34  1  0  0  0  0
 14 35  1  0  0  0  0
 14 36  1  0  0  0  0
 14 37  1  0  0  0  0
 15 20  1  0  0  0  0
 15 16  1  0  0  0  0
 15 47  1  0  0  0  0
 16 17  1  0  0  0  0
 16 38  1  0  0  0  0
 16 39  1  0  0  0  0
 17 18  1  0  0  0  0
 17 40  1  0  0  0  0
 17 41  1  0  0  0  0
 18 19  1  0  0  0  0
 19 20  1  0  0  0  0
 19 42  1  0  0  0  0
 19 43  1  0  0  0  0
 20 44  1  0  0  0  0
 20 45  1  0  0  0  0
 21 22  2  0  0  0  0
 21 46  1  0  0  0  0
M  CHG  1  15   1
M  END
> <s_m_source_file>
AV-unprocessed.smi

> <i_m_source_file_index>
1658

> <i_lp_mmshare_version>
43012

> <i_f3d_flags>
0

> <s_epik_input>
W0NIM11PYzFbY0hdW2NIXWMoW2NIXW4xKVtOSF1DKD1PKVtOSF1bQ0gyXUMoW0NIM10pKFtDSDNdKU4yW0NIMl1bQ0gyXU9bQ0gyXVtDSDJdMg==

> <s_epik_cmdline>
J2VwaWtfcHl0aG9uJywgJy1waCcsICc3LjAnLCAnLXRuJywgJzgnLCAnLW1hJywgJzIwMCcsICctbWV0YWxfYmluZGluZycsICctaW1hZScsICc8aW5maWxlLm1hZT4nLCAnLW9tYWUnLCAnPG91dGZpbGUubWFlPic=

> <r_lp_tautomer_probability>
1

> <r_epik_Ionization_Penalty>
0.602608

> <r_epik_Ionization_Penalty_Charging>
0.602531

> <r_epik_Ionization_Penalty_Neutral>
7.74737e-05

> <r_epik_State_Penalty>
0.617039

> <r_epik_Charging_Adjusted_Penalty>
1.21957

> <i_epik_Tot_Q>
1

> <i_epik_Tot_abs_Q>
1

> <r_epik_Metal_State_Penalty>
0.617043

> <b_epik_Metal_Only>
0

> <s_lp_Force_Field>
OPLS_2005

> <r_lp_Energy>
28.7753

> <b_lp_Chiralities_Consistent>
1

> <s_lp_Variant>
AV-unprocessed.smi:1658-2

> <Gold.Version>
5.8.1

> <Gold.Id.Protein>
6NUR|6NUR_protein|mol2

> <Gold.PLP.Fitness>
39.2622

> <Gold.PLP.PLP>
-29.1754

> <Gold.PLP.part.hbond>
-3.0000

> <Gold.PLP.part.metal>
0.0000

> <Gold.PLP.part.buried>
-2.3058

> <Gold.PLP.part.nonpolar>
-24.4488

> <Gold.PLP.part.repulsive>
0.5321

> <Gold.PLP.ligand.clash>
0.0000

> <Gold.PLP.ligand.torsion>
0.8527

> <Gold.PLP.Chemscore.Hbond>
2.8882

> <Gold.PLP.Chemscore.CHOScore>
1.0000

> <Gold.PLP.Chemscore.Metal>
0.0000

> <Gold.Chemscore.Hbonds>
donor molecule, donor type, donor heavy atom, donor atom, acceptor molecule, acceptor atom, score
      L1  H     7    28       P1 10175  0.98
      L1  H    10    29       P1 10175  1.00
      P1  H  7989  7998       L1    18  0.80
      L1  C    21    46       P1 10171  1.00

> <Gold.PLP.Chemscore.Internal.Correction>
0.1278

> <Gold.Rescore>
     Score         DG    S(hbond)    S(metal)    S(lipo)     H(rot)  DE(clash)    DE(int)     intcor
     14.38     -18.20       2.84        0.00      66.17       1.76       1.36       2.46       ----

> <Gold.Chemscore.Fitness>
14.3753

> <Gold.Chemscore.DG>
-18.2008

> <Gold.Chemscore.ZeroCoef>
-5.4800

> <Gold.Chemscore.Hbond>
2.8378

> <Gold.Chemscore.Metal>
0.0000

> <Gold.Chemscore.Lipo>
66.1723

> <Gold.Chemscore.Internal_Hbond>
0.0000

> <Gold.Chemscore.DEClash>
1.3610

> <Gold.Chemscore.DEInternal>
2.4646

> <Gold.Chemscore.Rot>
1.7577

> <Gold.Chemscore.Internal.Correction>
   9.000000E+99

> <Gold.Chemscore.Hbonds>
donor molecule, donor type, donor heavy atom, donor atom, acceptor molecule, acceptor atom, score
      L1  H     7    28       P1 10175  0.87
      L1  H    10    29       P1 10175  1.00
      P1  H  7989  7998       L1    18  0.12

> <Gold.Chemscore.Hbond.Weighted>
-9.4784

> <Gold.Chemscore.Metal.Weighted>
-0.0000

> <Gold.Chemscore.Lipo.Weighted>
-7.7422

> <Gold.Chemscore.Internal_Hbond.Weighted>
0.0000

> <Gold.Chemscore.DEClash.Weighted>
1.3610

> <Gold.Chemscore.DEInternal.Weighted>
2.4646

> <Gold.Chemscore.Rot.Weighted>
4.4997

> <Gold.Chemscore.Internal.Correction.Weighted>
   9.000000E+99

> <Gold.Protein.RotatedTorsions>
[ 6907 6896 6895 6894 ] final  177.09 input  -60.11 | X-H torsion
[ 7974 7965 7964 7962 ] final  -10.31 input  175.53 | X-H torsion
[ 8008 7997 7996 7995 ] final   64.50 input   59.86 | X-H torsion
[ 10167 10162 10161 10158 ] final  -36.99 input  -65.29 | X-H torsion
[ 10718 10713 10712 10709 ] final  -12.09 input   66.30 | X-H torsion
[ 10763 10752 10751 10750 ] final  -46.75 input  -60.55 | X-H torsion
[ 11005 11000 10999 10996 ] final  -60.80 input  -57.11 | X-H torsion

> <Gold.Protein.ActiveResidues>
 VAL166  LYS551  ARG553  GLY616  TRP617  ASP618  TYR619  PRO620  LYS621  CYS622 
 ASP623  PHE694  ASN695  SER759  ASP760  ASP761  ALA762  ILE779  LEU786  VAL792 
 PHE793  MET794  SER795  GLU796  ALA797  LYS798  CYS799  TRP800  GLU811  SER814 

> <Gold.Protein.RotatedAtoms>
  151.7096  133.3312  159.3287 H   0  0  0  0  0  0  0  0  0  0  0  0  # atno 6907 bound_to 6896
  150.7700  134.6544  159.6315 H   0  0  0  0  0  0  0  0  0  0  0  0  # atno 6908 bound_to 6896
  152.3719  134.6723  160.0225 H   0  0  0  0  0  0  0  0  0  0  0  0  # atno 6909 bound_to 6896
  146.2225  140.2745  142.8358 H   0  0  0  0  0  0  0  0  0  0  0  0  # atno 7974 bound_to 7965
  155.6471  140.3497  155.4735 H   0  0  0  0  0  0  0  0  0  0  0  0  # atno 8008 bound_to 7997
  155.9878  140.1187  157.0689 H   0  0  0  0  0  0  0  0  0  0  0  0  # atno 8009 bound_to 7997
  154.4210  140.1125  156.5510 H   0  0  0  0  0  0  0  0  0  0  0  0  # atno 8010 bound_to 7997
  140.7129  143.3371  151.2438 H   0  0  0  0  0  0  0  0  0  0  0  0  # atno 10167 bound_to 10162
  156.6496  130.4951  149.6066 H   0  0  0  0  0  0  0  0  0  0  0  0  # atno 10718 bound_to 10713
  154.0501  135.6632  153.4799 H   0  0  0  0  0  0  0  0  0  0  0  0  # atno 10763 bound_to 10752
  153.0467  135.5110  154.7759 H   0  0  0  0  0  0  0  0  0  0  0  0  # atno 10764 bound_to 10752
  154.6763  135.3037  154.9641 H   0  0  0  0  0  0  0  0  0  0  0  0  # atno 10765 bound_to 10752
  141.1301  133.6625  156.5278 H   0  0  0  0  0  0  0  0  0  0  0  0  # atno 11005 bound_to 11000
  144.9243  140.7903  143.5729 LP  0  0  0  0  0  0  0  0  0  0  0  0  # atno 17320 bound_to 7965
  145.2684  139.1964  143.4855 LP  0  0  0  0  0  0  0  0  0  0  0  0  # atno 17321 bound_to 7965
  139.6869  143.9758  152.2839 LP  0  0  0  0  0  0  0  0  0  0  0  0  # atno 17342 bound_to 10162
  139.9407  144.6683  150.8269 LP  0  0  0  0  0  0  0  0  0  0  0  0  # atno 17343 bound_to 10162
  156.2094  130.6669  151.1254 LP  0  0  0  0  0  0  0  0  0  0  0  0  # atno 17370 bound_to 10713
  157.7145  131.0717  150.6379 LP  0  0  0  0  0  0  0  0  0  0  0  0  # atno 17371 bound_to 10713
  140.4240  134.7162  157.4905 LP  0  0  0  0  0  0  0  0  0  0  0  0  # atno 17394 bound_to 11000
  140.0340  134.6364  155.9068 LP  0  0  0  0  0  0  0  0  0  0  0  0  # atno 17395 bound_to 11000

$$$$
