AV-unprocessed.smi:1590|AV-procd|sdf|6395|dock5
  -GOLD-   22720 7 33D 1   1.00000     0.00000
 Structure written by MMmdl.
 35 36  0  0  0  0  0  0  0  0  1 V2000
  152.1741  140.8864  157.9330 C   0  0  0  0  0  0  0  0  0  0  0  0
  151.2858  141.5169  156.8504 C   0  0  0  0  0  0  0  0  0  0  0  0
  150.1189  142.3188  157.4440 C   0  0  0  0  0  0  0  0  0  0  0  0
  150.8152  140.5046  155.8516 C   0  0  0  0  0  0  0  0  0  0  0  0
  151.6618  139.7627  155.1256 N   0  0  0  0  0  0  0  0  0  0  0  0
  151.0022  138.8962  154.2654 N   0  0  0  0  0  0  0  0  0  0  0  0
  149.6710  139.0117  154.3628 C   0  0  0  0  0  0  0  0  0  0  0  0
  148.7543  138.2367  153.6045 N   0  0  0  0  0  0  0  0  0  0  0  0
  147.4104  138.2677  153.6371 C   0  0  0  0  0  0  0  0  0  0  0  0
  146.7320  138.9722  154.3851 O   0  0  0  0  0  0  0  0  0  0  0  0
  146.8837  137.4188  152.7430 N   0  0  0  0  0  0  0  0  0  0  0  0
  145.4567  137.2128  152.5249 C   0  0  0  0  0  0  0  0  0  0  0  0
  145.2018  136.1454  151.4640 C   0  0  0  0  0  0  0  0  0  0  0  0
  143.8543  135.4078  151.4274 C   0  0  0  0  0  0  0  0  0  0  0  0
  144.6065  134.1467  150.9944 C   0  0  0  0  0  0  0  0  0  0  0  0
  145.8658  134.7680  151.6045 C   0  0  0  0  0  0  0  0  0  0  0  0
  149.1099  140.2032  155.5226 S   0  0  0  0  0  0  0  0  0  0  0  0
  153.0311  140.3786  157.4896 H   0  0  0  0  0  0  0  0  0  0  0  0
  151.6235  140.1562  158.5269 H   0  0  0  0  0  0  0  0  0  0  0  0
  152.5578  141.6448  158.6157 H   0  0  0  0  0  0  0  0  0  0  0  0
  151.9118  142.2287  156.3099 H   0  0  0  0  0  0  0  0  0  0  0  0
  149.5454  142.8142  156.6598 H   0  0  0  0  0  0  0  0  0  0  0  0
  150.4797  143.0901  158.1249 H   0  0  0  0  0  0  0  0  0  0  0  0
  149.4367  141.6770  158.0022 H   0  0  0  0  0  0  0  0  0  0  0  0
  149.1716  137.5917  152.9499 H   0  0  0  0  0  0  0  0  0  0  0  0
  147.5137  136.8760  152.1706 H   0  0  0  0  0  0  0  0  0  0  0  0
  144.9675  136.9471  153.4634 H   0  0  0  0  0  0  0  0  0  0  0  0
  145.0237  138.1650  152.2170 H   0  0  0  0  0  0  0  0  0  0  0  0
  145.4178  136.5300  150.4648 H   0  0  0  0  0  0  0  0  0  0  0  0
  143.3982  135.3068  152.4136 H   0  0  0  0  0  0  0  0  0  0  0  0
  143.1450  135.7921  150.6937 H   0  0  0  0  0  0  0  0  0  0  0  0
  144.2718  133.2272  151.4752 H   0  0  0  0  0  0  0  0  0  0  0  0
  144.6684  134.0405  149.9102 H   0  0  0  0  0  0  0  0  0  0  0  0
  146.7729  134.6377  151.0136 H   0  0  0  0  0  0  0  0  0  0  0  0
  146.0178  134.4742  152.6446 H   0  0  0  0  0  0  0  0  0  0  0  0
  1  2  1  0  0  0  0
  1 18  1  0  0  0  0
  1 19  1  0  0  0  0
  1 20  1  0  0  0  0
  2  3  1  0  0  0  0
  2  4  1  0  0  0  0
  2 21  1  0  0  0  0
  3 22  1  0  0  0  0
  3 23  1  0  0  0  0
  3 24  1  0  0  0  0
  4 17  1  0  0  0  0
  4  5  2  0  0  0  0
  5  6  1  0  0  0  0
  6  7  2  0  0  0  0
  7  8  1  0  0  0  0
  7 17  1  0  0  0  0
  8  9  1  0  0  0  0
  8 25  1  0  0  0  0
  9 10  2  0  0  0  0
  9 11  1  0  0  0  0
 11 12  1  0  0  0  0
 11 26  1  0  0  0  0
 12 13  1  0  0  0  0
 12 27  1  0  0  0  0
 12 28  1  0  0  0  0
 13 16  1  0  0  0  0
 13 14  1  0  0  0  0
 13 29  1  0  0  0  0
 14 15  1  0  0  0  0
 14 30  1  0  0  0  0
 14 31  1  0  0  0  0
 15 16  1  0  0  0  0
 15 32  1  0  0  0  0
 15 33  1  0  0  0  0
 16 34  1  0  0  0  0
 16 35  1  0  0  0  0
M  END
> <s_m_source_file>
AV-unprocessed.smi

> <i_m_source_file_index>
1590

> <i_lp_mmshare_version>
43012

> <i_f3d_flags>
0

> <s_epik_input>
W0NIM11bQ0hdKFtDSDNdKWMxbm5jKHMxKVtOSF1DKD1PKVtOSF1bQ0gyXVtDSF0yW0NIMl1bQ0gyXVtDSDJdMg==

> <s_epik_cmdline>
J2VwaWtfcHl0aG9uJywgJy1waCcsICc3LjAnLCAnLXRuJywgJzgnLCAnLW1hJywgJzIwMCcsICctbWV0YWxfYmluZGluZycsICctaW1hZScsICc8aW5maWxlLm1hZT4nLCAnLW9tYWUnLCAnPG91dGZpbGUubWFlPic=

> <r_lp_tautomer_probability>
1

> <r_epik_Ionization_Penalty>
0.000374979

> <r_epik_Ionization_Penalty_Charging>
0

> <r_epik_Ionization_Penalty_Neutral>
0.000374979

> <r_epik_State_Penalty>
-0

> <r_epik_Charging_Adjusted_Penalty>
0

> <i_epik_Tot_Q>
0

> <i_epik_Tot_abs_Q>
0

> <r_epik_Metal_State_Penalty>
0.186879

> <b_epik_Metal_Only>
0

> <s_lp_Force_Field>
OPLS_2005

> <r_lp_Energy>
5.08701

> <b_lp_Chiralities_Consistent>
1

> <s_lp_Variant>
AV-unprocessed.smi:1590-1

> <Gold.Version>
5.8.1

> <Gold.Id.Protein>
6NUR|6NUR_protein|mol2

> <Gold.PLP.Fitness>
32.2678

> <Gold.PLP.PLP>
-26.3549

> <Gold.PLP.part.hbond>
-4.1685

> <Gold.PLP.part.metal>
0.0000

> <Gold.PLP.part.buried>
-3.7762

> <Gold.PLP.part.nonpolar>
-19.9428

> <Gold.PLP.part.repulsive>
0.3976

> <Gold.PLP.ligand.clash>
0.0000

> <Gold.PLP.ligand.torsion>
0.1583

> <Gold.PLP.Chemscore.Hbond>
2.0370

> <Gold.PLP.Chemscore.CHOScore>
0.0000

> <Gold.PLP.Chemscore.Metal>
0.0000

> <Gold.Chemscore.Hbonds>
donor molecule, donor type, donor heavy atom, donor atom, acceptor molecule, acceptor atom, score
      L1  H     8    25       P1  7948  0.99
      L1  H    11    26       P1  7948  1.00
      P1  H  7989  7998       L1     5  0.05

> <Gold.PLP.Chemscore.Internal.Correction>
0.1185

> <Gold.Rescore>
     Score         DG    S(hbond)    S(metal)    S(lipo)     H(rot)  DE(clash)    DE(int)     intcor
     13.63     -15.03       1.95        0.00      56.40       1.39       0.06       1.34       ----

> <Gold.Chemscore.Fitness>
13.6333

> <Gold.Chemscore.DG>
-15.0325

> <Gold.Chemscore.ZeroCoef>
-5.4800

> <Gold.Chemscore.Hbond>
1.9482

> <Gold.Chemscore.Metal>
0.0000

> <Gold.Chemscore.Lipo>
56.3966

> <Gold.Chemscore.Internal_Hbond>
0.0000

> <Gold.Chemscore.DEClash>
0.0620

> <Gold.Chemscore.DEInternal>
1.3372

> <Gold.Chemscore.Rot>
1.3879

> <Gold.Chemscore.Internal.Correction>
   9.000000E+99

> <Gold.Chemscore.Hbonds>
donor molecule, donor type, donor heavy atom, donor atom, acceptor molecule, acceptor atom, score
      L1  H     8    25       P1  7948  0.92
      L1  H    11    26       P1  7948  0.95

> <Gold.Chemscore.Hbond.Weighted>
-6.5070

> <Gold.Chemscore.Metal.Weighted>
-0.0000

> <Gold.Chemscore.Lipo.Weighted>
-6.5984

> <Gold.Chemscore.Internal_Hbond.Weighted>
0.0000

> <Gold.Chemscore.DEClash.Weighted>
0.0620

> <Gold.Chemscore.DEInternal.Weighted>
1.3372

> <Gold.Chemscore.Rot.Weighted>
3.5529

> <Gold.Chemscore.Internal.Correction.Weighted>
   9.000000E+99

> <Gold.Protein.RotatedTorsions>
[ 6907 6896 6895 6894 ] final   32.14 input  -60.11 | X-H torsion
[ 7974 7965 7964 7962 ] final  171.41 input  175.53 | X-H torsion
[ 8008 7997 7996 7995 ] final  135.56 input   59.86 | X-H torsion
[ 10167 10162 10161 10158 ] final   78.75 input  -65.29 | X-H torsion
[ 10718 10713 10712 10709 ] final  -84.49 input   66.30 | X-H torsion
[ 10763 10752 10751 10750 ] final  -99.88 input  -60.55 | X-H torsion
[ 11005 11000 10999 10996 ] final  108.55 input  -57.11 | X-H torsion

> <Gold.Protein.ActiveResidues>
 VAL166  LYS551  ARG553  GLY616  TRP617  ASP618  TYR619  PRO620  LYS621  CYS622 
 ASP623  PHE694  ASN695  SER759  ASP760  ASP761  ALA762  ILE779  LEU786  VAL792 
 PHE793  MET794  SER795  GLU796  ALA797  LYS798  CYS799  TRP800  GLU811  SER814 

> <Gold.Protein.RotatedAtoms>
  152.0703  134.9538  160.0574 H   0  0  0  0  0  0  0  0  0  0  0  0  # atno 6907 bound_to 6896
  152.0866  133.4174  159.4533 H   0  0  0  0  0  0  0  0  0  0  0  0  # atno 6908 bound_to 6896
  150.6836  134.2839  159.4682 H   0  0  0  0  0  0  0  0  0  0  0  0  # atno 6909 bound_to 6896
  144.7295  139.9346  143.6426 H   0  0  0  0  0  0  0  0  0  0  0  0  # atno 7974 bound_to 7965
  156.3003  140.2467  156.3601 H   0  0  0  0  0  0  0  0  0  0  0  0  # atno 8008 bound_to 7997
  154.8885  140.0410  157.1844 H   0  0  0  0  0  0  0  0  0  0  0  0  # atno 8009 bound_to 7997
  154.8622  140.2922  155.5536 H   0  0  0  0  0  0  0  0  0  0  0  0  # atno 8010 bound_to 7997
  139.9676  144.5917  150.8015 H   0  0  0  0  0  0  0  0  0  0  0  0  # atno 10167 bound_to 10162
  156.0006  130.4700  150.4418 H   0  0  0  0  0  0  0  0  0  0  0  0  # atno 10718 bound_to 10713
  154.7534  135.4956  153.9330 H   0  0  0  0  0  0  0  0  0  0  0  0  # atno 10763 bound_to 10752
  153.1168  135.6722  153.9411 H   0  0  0  0  0  0  0  0  0  0  0  0  # atno 10764 bound_to 10752
  153.9155  135.3094  155.3427 H   0  0  0  0  0  0  0  0  0  0  0  0  # atno 10765 bound_to 10752
  139.8846  134.9433  156.5989 H   0  0  0  0  0  0  0  0  0  0  0  0  # atno 11005 bound_to 11000
  146.0831  139.3819  143.0452 LP  0  0  0  0  0  0  0  0  0  0  0  0  # atno 17320 bound_to 7965
  145.7814  140.9855  143.1097 LP  0  0  0  0  0  0  0  0  0  0  0  0  # atno 17321 bound_to 7965
  140.7533  143.3005  151.3092 LP  0  0  0  0  0  0  0  0  0  0  0  0  # atno 17342 bound_to 10162
  139.6506  144.0370  152.2623 LP  0  0  0  0  0  0  0  0  0  0  0  0  # atno 17343 bound_to 10162
  157.2459  131.0535  151.2409 LP  0  0  0  0  0  0  0  0  0  0  0  0  # atno 17370 bound_to 10713
  157.3576  130.7114  149.6480 LP  0  0  0  0  0  0  0  0  0  0  0  0  # atno 17371 bound_to 10713
  140.7899  133.8591  155.8637 LP  0  0  0  0  0  0  0  0  0  0  0  0  # atno 17394 bound_to 11000
  140.9687  134.1560  157.4595 LP  0  0  0  0  0  0  0  0  0  0  0  0  # atno 17395 bound_to 11000

$$$$
