AV-unprocessed.smi:913|AV-procd|sdf|4149|dock2
  -GOLD-   22720 2 53D 1   1.00000     0.00000
 Structure written by MMmdl.
 20 20  0  0  0  0  0  0  0  0  3 V2000
  152.1976  145.1545  159.3367 C   0  0  0  0  0  0  0  0  0  0  0  0
  151.9166  143.7979  158.7266 C   0  0  0  0  0  0  0  0  0  0  0  0
  151.2163  143.7262  157.6579 N   0  0  0  0  0  0  0  0  0  0  0  0
  150.9652  142.4636  157.1027 C   0  0  0  0  0  0  0  0  0  0  0  0
  150.2070  142.5311  155.9508 N   0  0  0  0  0  0  0  0  0  0  0  0
  151.4321  141.3142  157.6615 C   0  0  0  0  0  0  0  0  0  0  0  0
  151.1826  139.9349  157.0530 C   0  0  0  0  0  0  0  0  0  0  0  0
  151.7415  139.7916  155.6363 C   0  0  0  0  0  0  0  0  0  0  0  0
  152.9690  139.5747  155.5266 O   0  0  0  0  0  0  0  0  0  0  0  0
  150.9341  139.8919  154.6866 O   0  5  0  0  0  0  0  0  0  0  0  0
  152.2304  141.4448  158.8941 C   0  0  0  0  0  0  0  0  0  0  0  0
  152.6799  140.4454  159.4537 O   0  0  0  0  0  0  0  0  0  0  0  0
  152.4465  142.7041  159.3782 N   0  5  0  0  0  0  0  0  0  0  0  0
  151.7791  145.9555  158.7260 H   0  0  0  0  0  0  0  0  0  0  0  0
  153.2727  145.3157  159.4209 H   0  0  0  0  0  0  0  0  0  0  0  0
  151.7583  145.2183  160.3326 H   0  0  0  0  0  0  0  0  0  0  0  0
  149.8984  143.4269  155.5993 H   0  0  0  0  0  0  0  0  0  0  0  0
  150.2256  141.7779  155.2794 H   0  0  0  0  0  0  0  0  0  0  0  0
  151.6434  139.1834  157.6954 H   0  0  0  0  0  0  0  0  0  0  0  0
  150.1203  139.6900  157.0413 H   0  0  0  0  0  0  0  0  0  0  0  0
  1  2  1  0  0  0  0
  1 14  1  0  0  0  0
  1 15  1  0  0  0  0
  1 16  1  0  0  0  0
  2 13  1  0  0  0  0
  2  3  2  0  0  0  0
  3  4  1  0  0  0  0
  4  5  1  0  0  0  0
  4  6  2  0  0  0  0
  5 17  1  0  0  0  0
  5 18  1  0  0  0  0
  6  7  1  0  0  0  0
  6 11  1  0  0  0  0
  7  8  1  0  0  0  0
  7 19  1  0  0  0  0
  7 20  1  0  0  0  0
  8  9  2  0  0  0  0
  8 10  1  0  0  0  0
 11 12  2  0  0  0  0
 11 13  1  0  0  0  0
M  CHG  1  10  -1
M  CHG  1  13  -1
M  END
> <s_m_source_file>
AV-unprocessed.smi

> <i_m_source_file_index>
913

> <i_lp_mmshare_version>
43012

> <i_f3d_flags>
0

> <s_epik_input>
W0NIM11jMW5jKFtOSDJdKWMoYyg9TylbbkhdMSlbQ0gyXUMoPU8pW09IXQ==

> <s_epik_cmdline>
J2VwaWtfcHl0aG9uJywgJy1waCcsICc3LjAnLCAnLXRuJywgJzgnLCAnLW1hJywgJzIwMCcsICctbWV0YWxfYmluZGluZycsICctaW1hZScsICc8aW5maWxlLm1hZT4nLCAnLW9tYWUnLCAnPG91dGZpbGUubWFlPic=

> <r_lp_tautomer_probability>
0.994035

> <r_epik_Ionization_Penalty>
6.8797

> <r_epik_Ionization_Penalty_Charging>
0.00156716

> <r_epik_Ionization_Penalty_Neutral>
6.87813

> <r_epik_State_Penalty>
4.11317

> <r_epik_Charging_Adjusted_Penalty>
4.11474

> <i_epik_Tot_Q>
-2

> <i_epik_Tot_abs_Q>
2

> <r_epik_Metal_State_Penalty>
0.657697

> <b_epik_Metal_Only>
1

> <s_lp_Force_Field>
OPLS_2005

> <r_lp_Energy>
14.3997

> <b_lp_Chiralities_Consistent>
1

> <s_lp_Variant>
AV-unprocessed.smi:913-2

> <Gold.Version>
5.8.1

> <Gold.Id.Protein>
6NUR|6NUR_protein|mol2

> <Gold.PLP.Fitness>
37.7899

> <Gold.PLP.PLP>
-26.3283

> <Gold.PLP.part.hbond>
-3.0000

> <Gold.PLP.part.metal>
0.0000

> <Gold.PLP.part.buried>
-5.1823

> <Gold.PLP.part.nonpolar>
-17.8923

> <Gold.PLP.part.repulsive>
0.3629

> <Gold.PLP.ligand.clash>
0.0000

> <Gold.PLP.ligand.torsion>
0.2697

> <Gold.PLP.Chemscore.Hbond>
4.0000

> <Gold.PLP.Chemscore.CHOScore>
0.0000

> <Gold.PLP.Chemscore.Metal>
0.0000

> <Gold.Chemscore.Hbonds>
donor molecule, donor type, donor heavy atom, donor atom, acceptor molecule, acceptor atom, score
      L1  H     5    17       P1  8028  1.00
      P1  H  7989  7998       L1    10  1.00
      P1  H  7997  8008       L1     9  2.00

> <Gold.PLP.Chemscore.Internal.Correction>
0.0009

> <Gold.Rescore>
     Score         DG    S(hbond)    S(metal)    S(lipo)     H(rot)  DE(clash)    DE(int)     intcor
     13.60     -13.97       2.98        0.00      24.07       1.67       0.00       0.37       ----

> <Gold.Chemscore.Fitness>
13.5996

> <Gold.Chemscore.DG>
-13.9679

> <Gold.Chemscore.ZeroCoef>
-5.4800

> <Gold.Chemscore.Hbond>
2.9766

> <Gold.Chemscore.Metal>
0.0000

> <Gold.Chemscore.Lipo>
24.0705

> <Gold.Chemscore.Internal_Hbond>
0.0000

> <Gold.Chemscore.DEClash>
0.0000

> <Gold.Chemscore.DEInternal>
0.3683

> <Gold.Chemscore.Rot>
1.6681

> <Gold.Chemscore.Internal.Correction>
   9.000000E+99

> <Gold.Chemscore.Hbonds>
donor molecule, donor type, donor heavy atom, donor atom, acceptor molecule, acceptor atom, score
      L1  H     5    17       P1  8028  0.96
      P1  H  7989  7998       L1    10  0.65
      P1  H  7997  8008       L1     9  0.99

> <Gold.Chemscore.Hbond.Weighted>
-9.9419

> <Gold.Chemscore.Metal.Weighted>
-0.0000

> <Gold.Chemscore.Lipo.Weighted>
-2.8163

> <Gold.Chemscore.Internal_Hbond.Weighted>
0.0000

> <Gold.Chemscore.DEClash.Weighted>
0.0000

> <Gold.Chemscore.DEInternal.Weighted>
0.3683

> <Gold.Chemscore.Rot.Weighted>
4.2703

> <Gold.Chemscore.Internal.Correction.Weighted>
   9.000000E+99

> <Gold.Protein.RotatedTorsions>
[ 6907 6896 6895 6894 ] final  -41.66 input  -60.11 | X-H torsion
[ 7974 7965 7964 7962 ] final   34.40 input  175.53 | X-H torsion
[ 8008 7997 7996 7995 ] final  -25.82 input   59.86 | X-H torsion
[ 10167 10162 10161 10158 ] final -109.48 input  -65.29 | X-H torsion
[ 10718 10713 10712 10709 ] final  -67.70 input   66.30 | X-H torsion
[ 10763 10752 10751 10750 ] final   87.17 input  -60.55 | X-H torsion
[ 11005 11000 10999 10996 ] final   11.72 input  -57.11 | X-H torsion

> <Gold.Protein.ActiveResidues>
 VAL166  LYS551  ARG553  GLY616  TRP617  ASP618  TYR619  PRO620  LYS621  CYS622 
 ASP623  PHE694  ASN695  SER759  ASP760  ASP761  ALA762  ILE779  LEU786  VAL792 
 PHE793  MET794  SER795  GLU796  ALA797  LYS798  CYS799  TRP800  GLU811  SER814 

> <Gold.Protein.RotatedAtoms>
  150.9642  134.9025  159.7748 H   0  0  0  0  0  0  0  0  0  0  0  0  # atno 6907 bound_to 6896
  152.5167  134.3631  159.9301 H   0  0  0  0  0  0  0  0  0  0  0  0  # atno 6908 bound_to 6896
  151.3642  133.3838  159.2727 H   0  0  0  0  0  0  0  0  0  0  0  0  # atno 6909 bound_to 6896
  146.1355  139.6273  142.9198 H   0  0  0  0  0  0  0  0  0  0  0  0  # atno 7974 bound_to 7965
  154.4456  140.1916  156.0679 H   0  0  0  0  0  0  0  0  0  0  0  0  # atno 8008 bound_to 7997
  156.0533  140.3306  155.7350 H   0  0  0  0  0  0  0  0  0  0  0  0  # atno 8009 bound_to 7997
  155.5523  140.0596  157.2838 H   0  0  0  0  0  0  0  0  0  0  0  0  # atno 8010 bound_to 7997
  140.1548  143.4169  152.1468 H   0  0  0  0  0  0  0  0  0  0  0  0  # atno 10167 bound_to 10162
  156.0544  130.4282  150.1892 H   0  0  0  0  0  0  0  0  0  0  0  0  # atno 10718 bound_to 10713
  153.1642  135.4553  154.9814 H   0  0  0  0  0  0  0  0  0  0  0  0  # atno 10763 bound_to 10752
  154.7919  135.3224  154.7759 H   0  0  0  0  0  0  0  0  0  0  0  0  # atno 10764 bound_to 10752
  153.8244  135.6944  153.4877 H   0  0  0  0  0  0  0  0  0  0  0  0  # atno 10765 bound_to 10752
  140.5001  134.0755  155.7791 H   0  0  0  0  0  0  0  0  0  0  0  0  # atno 11005 bound_to 11000
  145.5165  141.0433  143.2459 LP  0  0  0  0  0  0  0  0  0  0  0  0  # atno 17320 bound_to 7965
  144.7735  139.6681  143.7184 LP  0  0  0  0  0  0  0  0  0  0  0  0  # atno 17321 bound_to 7965
  139.5408  144.7255  151.4739 LP  0  0  0  0  0  0  0  0  0  0  0  0  # atno 17342 bound_to 10162
  140.6680  143.8356  150.6964 LP  0  0  0  0  0  0  0  0  0  0  0  0  # atno 17343 bound_to 10162
  156.9971  130.9911  151.3400 LP  0  0  0  0  0  0  0  0  0  0  0  0  # atno 17370 bound_to 10713
  157.5500  130.8176  149.8133 LP  0  0  0  0  0  0  0  0  0  0  0  0  # atno 17371 bound_to 10713
  141.1440  133.9088  157.2259 LP  0  0  0  0  0  0  0  0  0  0  0  0  # atno 17394 bound_to 11000
  139.9718  135.0126  156.9532 LP  0  0  0  0  0  0  0  0  0  0  0  0  # atno 17395 bound_to 11000

$$$$
