AV-unprocessed.smi:3282|AV-procd|sdf|12563|dock6
  -GOLD-   2272018483D 1   1.00000     0.00000
 Structure written by MMmdl.
 34 35  0  0  0  0  0  0  0  0  1 V2000
  152.6218  142.7151  162.3408 C   0  0  0  0  0  0  0  0  0  0  0  0
  153.5679  142.3091  161.1992 C   0  0  0  0  0  0  0  0  0  0  0  0
  152.8833  141.4963  160.0874 C   0  0  0  0  0  0  0  0  0  0  0  0
  152.7919  140.2720  160.1902 O   0  0  0  0  0  0  0  0  0  0  0  0
  152.3987  142.1617  159.0183 N   0  0  0  0  0  0  0  0  0  0  0  0
  152.4741  143.6127  158.8712 C   0  0  0  0  0  0  0  0  0  0  0  0
  151.6044  143.9586  157.6628 C   0  0  0  0  0  0  0  0  0  0  0  0
  151.5738  142.6796  156.8312 C   0  0  2  0  0  0  0  0  0  0  0  0
  150.3311  142.5596  156.0750 N   0  0  0  0  0  0  0  0  0  0  0  0
  149.9825  141.5072  155.3202 C   0  0  0  0  0  0  0  0  0  0  0  0
  150.7185  140.5231  155.1964 O   0  0  0  0  0  0  0  0  0  0  0  0
  148.7570  141.7328  154.7134 N   0  0  0  0  0  0  0  0  0  0  0  0
  148.2066  140.7769  154.0294 C   0  0  0  0  0  0  0  0  0  0  0  0
  148.6104  139.4801  153.7212 N   0  0  0  0  0  0  0  0  0  0  0  0
  147.6402  138.9049  152.9491 C   0  0  0  0  0  0  0  0  0  0  0  0
  146.6683  139.7959  152.7767 C   0  0  0  0  0  0  0  0  0  0  0  0
  146.9870  140.9509  153.4257 O   0  0  0  0  0  0  0  0  0  0  0  0
  151.7380  141.5558  157.8637 C   0  0  0  0  0  0  0  0  0  0  0  0
  153.1601  143.2749  163.1058 H   0  0  0  0  0  0  0  0  0  0  0  0
  152.1803  141.8419  162.8226 H   0  0  0  0  0  0  0  0  0  0  0  0
  151.8108  143.3492  161.9804 H   0  0  0  0  0  0  0  0  0  0  0  0
  154.0044  143.2066  160.7601 H   0  0  0  0  0  0  0  0  0  0  0  0
  154.3899  141.7240  161.6127 H   0  0  0  0  0  0  0  0  0  0  0  0
  152.1330  144.1348  159.7666 H   0  0  0  0  0  0  0  0  0  0  0  0
  153.5116  143.8962  158.6882 H   0  0  0  0  0  0  0  0  0  0  0  0
  150.5998  144.2071  158.0096 H   0  0  0  0  0  0  0  0  0  0  0  0
  151.9819  144.8154  157.1040 H   0  0  0  0  0  0  0  0  0  0  0  0
  152.4328  142.6820  156.1574 H   0  0  0  0  0  0  0  0  0  0  0  0
  149.6900  143.3383  156.1235 H   0  0  0  0  0  0  0  0  0  0  0  0
  149.4584  139.0063  153.9974 H   0  0  0  0  0  0  0  0  0  0  0  0
  147.7525  137.8906  152.5958 H   0  0  0  0  0  0  0  0  0  0  0  0
  145.7294  139.7632  152.2441 H   0  0  0  0  0  0  0  0  0  0  0  0
  152.3135  140.7280  157.4471 H   0  0  0  0  0  0  0  0  0  0  0  0
  150.7682  141.1686  158.1810 H   0  0  0  0  0  0  0  0  0  0  0  0
  1  2  1  0  0  0  0
  1 19  1  0  0  0  0
  1 20  1  0  0  0  0
  1 21  1  0  0  0  0
  2  3  1  0  0  0  0
  2 22  1  0  0  0  0
  2 23  1  0  0  0  0
  3  4  2  0  0  0  0
  3  5  1  0  0  0  0
  5 18  1  0  0  0  0
  5  6  1  0  0  0  0
  6  7  1  0  0  0  0
  6 24  1  0  0  0  0
  6 25  1  0  0  0  0
  7  8  1  0  0  0  0
  7 26  1  0  0  0  0
  7 27  1  0  0  0  0
  8  9  1  0  0  0  0
  8 18  1  0  0  0  0
  8 28  1  0  0  0  0
  9 29  1  0  0  0  0
  9 10  1  0  0  0  0
 10 12  1  0  0  0  0
 10 11  2  0  0  0  0
 12 13  2  0  0  0  0
 13 17  1  0  0  0  0
 13 14  1  0  0  0  0
 14 30  1  0  0  0  0
 14 15  1  0  0  0  0
 15 31  1  0  0  0  0
 15 16  2  0  0  0  0
 16 32  1  0  0  0  0
 16 17  1  0  0  0  0
 18 33  1  0  0  0  0
 18 34  1  0  0  0  0
M  END
> <s_m_source_file>
AV-unprocessed.smi

> <i_m_source_file_index>
3282

> <i_lp_mmshare_version>
43012

> <i_f3d_flags>
0

> <s_epik_input>
W0NIM11bQ0gyXUMoPU8pTjFbQ0gyXVtDSDJdW0NASF0oW0NIMl0xKVtOSF1DKD1PKVtOSF1jMm5bY0hdW2NIXW8y

> <s_epik_cmdline>
J2VwaWtfcHl0aG9uJywgJy1waCcsICc3LjAnLCAnLXRuJywgJzgnLCAnLW1hJywgJzIwMCcsICctbWV0YWxfYmluZGluZycsICctaW1hZScsICc8aW5maWxlLm1hZT4nLCAnLW9tYWUnLCAnPG91dGZpbGUubWFlPic=

> <r_lp_tautomer_probability>
0.107061

> <r_epik_Ionization_Penalty>
0.434703

> <r_epik_Ionization_Penalty_Charging>
0.434345

> <r_epik_Ionization_Penalty_Neutral>
0.000358141

> <r_epik_State_Penalty>
2.49584

> <r_epik_Charging_Adjusted_Penalty>
2.93019

> <i_epik_Tot_Q>
0

> <i_epik_Tot_abs_Q>
0

> <r_epik_Metal_State_Penalty>
4.06361

> <b_epik_Metal_Only>
0

> <s_lp_Force_Field>
OPLS_2005

> <r_lp_Energy>
50.3275

> <b_lp_Chiralities_Consistent>
1

> <s_lp_Variant>
AV-unprocessed.smi:3282-4

> <Gold.Version>
5.8.1

> <Gold.Id.Protein>
6NUR|6NUR_protein|mol2

> <Gold.PLP.Fitness>
46.3017

> <Gold.PLP.PLP>
-35.1289

> <Gold.PLP.part.hbond>
-3.0000

> <Gold.PLP.part.metal>
0.0000

> <Gold.PLP.part.buried>
-2.3430

> <Gold.PLP.part.nonpolar>
-30.7711

> <Gold.PLP.part.repulsive>
0.5750

> <Gold.PLP.ligand.clash>
0.0000

> <Gold.PLP.ligand.torsion>
0.3829

> <Gold.PLP.Chemscore.Hbond>
1.9760

> <Gold.PLP.Chemscore.CHOScore>
2.0000

> <Gold.PLP.Chemscore.Metal>
0.0000

> <Gold.Chemscore.Hbonds>
donor molecule, donor type, donor heavy atom, donor atom, acceptor molecule, acceptor atom, score
      L1  H     9    29       P1  8028  1.00
      P1  H  7989  7998       L1    11  0.99
      L1  C    15    31       P1  7948  1.00
      L1  C    16    32       P1 10175  1.00

> <Gold.PLP.Chemscore.Internal.Correction>
0.0106

> <Gold.Rescore>
     Score         DG    S(hbond)    S(metal)    S(lipo)     H(rot)  DE(clash)    DE(int)     intcor
     13.87     -16.66       1.57        0.00      79.49       1.32       2.44       0.35       ----

> <Gold.Chemscore.Fitness>
13.8671

> <Gold.Chemscore.DG>
-16.6562

> <Gold.Chemscore.ZeroCoef>
-5.4800

> <Gold.Chemscore.Hbond>
1.5733

> <Gold.Chemscore.Metal>
0.0000

> <Gold.Chemscore.Lipo>
79.4884

> <Gold.Chemscore.Internal_Hbond>
0.0000

> <Gold.Chemscore.DEClash>
2.4351

> <Gold.Chemscore.DEInternal>
0.3539

> <Gold.Chemscore.Rot>
1.3199

> <Gold.Chemscore.Internal.Correction>
   9.000000E+99

> <Gold.Chemscore.Hbonds>
donor molecule, donor type, donor heavy atom, donor atom, acceptor molecule, acceptor atom, score
      L1  H     9    29       P1  8028  0.99
      P1  H  7989  7998       L1    11  0.32

> <Gold.Chemscore.Hbond.Weighted>
-5.2550

> <Gold.Chemscore.Metal.Weighted>
-0.0000

> <Gold.Chemscore.Lipo.Weighted>
-9.3001

> <Gold.Chemscore.Internal_Hbond.Weighted>
0.0000

> <Gold.Chemscore.DEClash.Weighted>
2.4351

> <Gold.Chemscore.DEInternal.Weighted>
0.3539

> <Gold.Chemscore.Rot.Weighted>
3.3789

> <Gold.Chemscore.Internal.Correction.Weighted>
   9.000000E+99

> <Gold.Protein.RotatedTorsions>
[ 6907 6896 6895 6894 ] final -173.37 input  -60.11 | X-H torsion
[ 7974 7965 7964 7962 ] final   27.53 input  175.53 | X-H torsion
[ 8008 7997 7996 7995 ] final -112.68 input   59.86 | X-H torsion
[ 10167 10162 10161 10158 ] final   15.27 input  -65.29 | X-H torsion
[ 10718 10713 10712 10709 ] final  -20.54 input   66.30 | X-H torsion
[ 10763 10752 10751 10750 ] final -144.80 input  -60.55 | X-H torsion
[ 11005 11000 10999 10996 ] final   22.67 input  -57.11 | X-H torsion

> <Gold.Protein.ActiveResidues>
 VAL166  LYS551  ARG553  GLY616  TRP617  ASP618  TYR619  PRO620  LYS621  CYS622 
 ASP623  PHE694  ASN695  SER759  ASP760  ASP761  ALA762  ILE779  LEU786  VAL792 
 PHE793  MET794  SER795  GLU796  ALA797  LYS798  CYS799  TRP800  GLU811  SER814 

> <Gold.Protein.RotatedAtoms>
  151.5551  133.3411  159.2960 H   0  0  0  0  0  0  0  0  0  0  0  0  # atno 6907 bound_to 6896
  150.8456  134.7766  159.6978 H   0  0  0  0  0  0  0  0  0  0  0  0  # atno 6908 bound_to 6896
  152.4514  134.5393  159.9886 H   0  0  0  0  0  0  0  0  0  0  0  0  # atno 6909 bound_to 6896
  146.1779  139.7179  142.8921 H   0  0  0  0  0  0  0  0  0  0  0  0  # atno 7974 bound_to 7965
  155.0089  140.0393  157.2391 H   0  0  0  0  0  0  0  0  0  0  0  0  # atno 8008 bound_to 7997
  154.7477  140.2761  155.6296 H   0  0  0  0  0  0  0  0  0  0  0  0  # atno 8009 bound_to 7997
  156.2878  140.2653  156.2222 H   0  0  0  0  0  0  0  0  0  0  0  0  # atno 8010 bound_to 7997
  140.5879  143.8854  150.6846 H   0  0  0  0  0  0  0  0  0  0  0  0  # atno 10167 bound_to 10162
  156.5305  130.4654  149.6549 H   0  0  0  0  0  0  0  0  0  0  0  0  # atno 10718 bound_to 10713
  154.8412  135.3430  154.6403 H   0  0  0  0  0  0  0  0  0  0  0  0  # atno 10763 bound_to 10752
  153.7014  135.6969  153.5066 H   0  0  0  0  0  0  0  0  0  0  0  0  # atno 10764 bound_to 10752
  153.2520  135.4350  155.0761 H   0  0  0  0  0  0  0  0  0  0  0  0  # atno 10765 bound_to 10752
  140.3780  134.1951  155.7664 H   0  0  0  0  0  0  0  0  0  0  0  0  # atno 11005 bound_to 11000
  145.4160  141.0401  143.2990 LP  0  0  0  0  0  0  0  0  0  0  0  0  # atno 17320 bound_to 7965
  144.8266  139.5699  143.6963 LP  0  0  0  0  0  0  0  0  0  0  0  0  # atno 17321 bound_to 7965
  140.2369  143.3693  152.1519 LP  0  0  0  0  0  0  0  0  0  0  0  0  # atno 17342 bound_to 10162
  139.5209  144.7039  151.5413 LP  0  0  0  0  0  0  0  0  0  0  0  0  # atno 17343 bound_to 10162
  156.3064  130.7205  151.2088 LP  0  0  0  0  0  0  0  0  0  0  0  0  # atno 17370 bound_to 10713
  157.7422  131.0492  150.5038 LP  0  0  0  0  0  0  0  0  0  0  0  0  # atno 17371 bound_to 10713
  141.1933  133.8154  157.0805 LP  0  0  0  0  0  0  0  0  0  0  0  0  # atno 17394 bound_to 11000
  140.0500  134.9810  157.1120 LP  0  0  0  0  0  0  0  0  0  0  0  0  # atno 17395 bound_to 11000

$$$$
