AV-unprocessed.smi:1047|AV-procd|sdf|4595|dock3
  -GOLD-   22720 3 83D 1   1.00000     0.00000
 Structure written by MMmdl.
 55 57  0  0  0  0  0  0  0  0  1 V2000
  144.3447  146.7298  157.2022 C   0  0  0  0  0  0  0  0  0  0  0  0
  144.0597  145.3555  157.8250 C   0  0  0  0  0  0  0  0  0  0  0  0
  143.9935  144.2486  156.8724 N   0  0  0  0  0  0  0  0  0  0  0  0
  143.8754  142.9700  157.5644 C   0  0  0  0  0  0  0  0  0  0  0  0
  143.8116  141.7884  156.5826 C   0  0  0  0  0  0  0  0  0  0  0  0
  144.9578  141.8122  155.7387 O   0  0  0  0  0  0  0  0  0  0  0  0
  145.0732  143.0218  154.9927 C   0  0  2  0  0  0  0  0  0  0  0  0
  146.3278  142.9272  154.1132 C   0  0  0  0  0  0  0  0  0  0  0  0
  147.4389  142.3381  154.8528 N   0  0  0  0  0  0  0  0  0  0  0  0
  148.3707  141.5899  154.0151 C   0  0  0  0  0  0  0  0  0  0  0  0
  149.4416  140.8859  154.8658 C   0  0  1  0  0  0  0  0  0  0  0  0
  150.1012  139.9286  154.0593 O   0  0  0  0  0  0  0  0  0  0  0  0
  150.4841  141.8800  155.4125 C   0  0  0  0  0  0  0  0  0  0  0  0
  151.2886  141.3070  156.4769 N   0  0  0  0  0  0  0  0  0  0  0  0
  151.8612  140.0879  156.5010 C   0  0  0  0  0  0  0  0  0  0  0  0
  152.5555  139.7627  157.5877 N   0  0  0  0  0  0  0  0  0  0  0  0
  152.4169  140.9042  158.3590 C   0  0  0  0  0  0  0  0  0  0  0  0
  152.9171  141.2093  159.6438 C   0  0  0  0  0  0  0  0  0  0  0  0
  152.6483  142.4580  160.2487 C   0  0  0  0  0  0  0  0  0  0  0  0
  153.2061  142.7441  161.6318 C   0  0  0  0  0  0  0  0  0  0  0  0
  151.8679  143.4252  159.5654 C   0  0  0  0  0  0  0  0  0  0  0  0
  151.5698  144.7753  160.1931 C   0  0  0  0  0  0  0  0  0  0  0  0
  151.3585  143.1356  158.2821 C   0  0  0  0  0  0  0  0  0  0  0  0
  151.6326  141.8897  157.6914 C   0  0  0  0  0  0  0  0  0  0  0  0
  145.1523  144.2011  155.9829 C   0  0  0  0  0  0  0  0  0  0  0  0
  144.2653  147.5144  157.9549 H   0  0  0  0  0  0  0  0  0  0  0  0
  143.6309  146.9581  156.4100 H   0  0  0  0  0  0  0  0  0  0  0  0
  145.3483  146.7869  156.7814 H   0  0  0  0  0  0  0  0  0  0  0  0
  144.8050  145.1416  158.5927 H   0  0  0  0  0  0  0  0  0  0  0  0
  143.1042  145.4267  158.3466 H   0  0  0  0  0  0  0  0  0  0  0  0
  144.7248  142.8335  158.2358 H   0  0  0  0  0  0  0  0  0  0  0  0
  142.9810  142.9675  158.1884 H   0  0  0  0  0  0  0  0  0  0  0  0
  143.7883  140.8441  157.1266 H   0  0  0  0  0  0  0  0  0  0  0  0
  142.9041  141.8337  155.9785 H   0  0  0  0  0  0  0  0  0  0  0  0
  144.1926  143.1472  154.3590 H   0  0  0  0  0  0  0  0  0  0  0  0
  146.1121  142.3112  153.2393 H   0  0  0  0  0  0  0  0  0  0  0  0
  146.5948  143.9169  153.7405 H   0  0  0  0  0  0  0  0  0  0  0  0
  147.9362  143.0650  155.3577 H   0  0  0  0  0  0  0  0  0  0  0  0
  147.8410  140.8704  153.3892 H   0  0  0  0  0  0  0  0  0  0  0  0
  148.8636  142.2856  153.3345 H   0  0  0  0  0  0  0  0  0  0  0  0
  148.9705  140.3727  155.7057 H   0  0  0  0  0  0  0  0  0  0  0  0
  149.6253  139.8394  153.2481 H   0  0  0  0  0  0  0  0  0  0  0  0
  151.1467  142.2204  154.6152 H   0  0  0  0  0  0  0  0  0  0  0  0
  149.9879  142.7683  155.8056 H   0  0  0  0  0  0  0  0  0  0  0  0
  151.7588  139.3987  155.6755 H   0  0  0  0  0  0  0  0  0  0  0  0
  153.5115  140.4721  160.1633 H   0  0  0  0  0  0  0  0  0  0  0  0
  153.8854  143.5964  161.6003 H   0  0  0  0  0  0  0  0  0  0  0  0
  153.7583  141.8893  162.0235 H   0  0  0  0  0  0  0  0  0  0  0  0
  152.3999  142.9691  162.3305 H   0  0  0  0  0  0  0  0  0  0  0  0
  150.9561  145.3923  159.5363 H   0  0  0  0  0  0  0  0  0  0  0  0
  152.4953  145.3164  160.3922 H   0  0  0  0  0  0  0  0  0  0  0  0
  151.0317  144.6504  161.1330 H   0  0  0  0  0  0  0  0  0  0  0  0
  150.7608  143.8615  157.7508 H   0  0  0  0  0  0  0  0  0  0  0  0
  145.2264  145.1277  155.4143 H   0  0  0  0  0  0  0  0  0  0  0  0
  146.0674  144.1214  156.5720 H   0  0  0  0  0  0  0  0  0  0  0  0
  1  2  1  0  0  0  0
  1 26  1  0  0  0  0
  1 27  1  0  0  0  0
  1 28  1  0  0  0  0
  2  3  1  0  0  0  0
  2 29  1  0  0  0  0
  2 30  1  0  0  0  0
  3 25  1  0  0  0  0
  3  4  1  0  0  0  0
  4  5  1  0  0  0  0
  4 31  1  0  0  0  0
  4 32  1  0  0  0  0
  5  6  1  0  0  0  0
  5 33  1  0  0  0  0
  5 34  1  0  0  0  0
  6  7  1  0  0  0  0
  7  8  1  0  0  0  0
  7 25  1  0  0  0  0
  7 35  1  0  0  0  0
  8  9  1  0  0  0  0
  8 36  1  0  0  0  0
  8 37  1  0  0  0  0
  9 10  1  0  0  0  0
  9 38  1  0  0  0  0
 10 11  1  0  0  0  0
 10 39  1  0  0  0  0
 10 40  1  0  0  0  0
 11 12  1  0  0  0  0
 11 13  1  0  0  0  0
 11 41  1  0  0  0  0
 12 42  1  0  0  0  0
 13 14  1  0  0  0  0
 13 43  1  0  0  0  0
 13 44  1  0  0  0  0
 14 24  1  0  0  0  0
 14 15  1  0  0  0  0
 15 16  2  0  0  0  0
 15 45  1  0  0  0  0
 16 17  1  0  0  0  0
 17 24  2  0  0  0  0
 17 18  1  0  0  0  0
 18 19  2  0  0  0  0
 18 46  1  0  0  0  0
 19 20  1  0  0  0  0
 19 21  1  0  0  0  0
 20 47  1  0  0  0  0
 20 48  1  0  0  0  0
 20 49  1  0  0  0  0
 21 22  1  0  0  0  0
 21 23  2  0  0  0  0
 22 50  1  0  0  0  0
 22 51  1  0  0  0  0
 22 52  1  0  0  0  0
 23 24  1  0  0  0  0
 23 53  1  0  0  0  0
 25 54  1  0  0  0  0
 25 55  1  0  0  0  0
M  END
> <s_m_source_file>
AV-unprocessed.smi

> <i_m_source_file_index>
1047

> <i_lp_mmshare_version>
43012

> <i_f3d_flags>
0

> <s_epik_input>
W0NIM11bQ0gyXU4xW0NIMl1bQ0gyXU9bQ0BIXShbQ0gyXTEpW0NIMl1bTkhdW0NIMl1bQ0BIXShbT0hdKVtDSDJdbihbY0hdbjIpYyhjMjMpW2NIXWMoW0NIM10pYyhbY0hdMylbQ0gzXQ==

> <s_epik_cmdline>
J2VwaWtfcHl0aG9uJywgJy1waCcsICc3LjAnLCAnLXRuJywgJzgnLCAnLW1hJywgJzIwMCcsICctbWV0YWxfYmluZGluZycsICctaW1hZScsICc8aW5maWxlLm1hZT4nLCAnLW9tYWUnLCAnPG91dGZpbGUubWFlPic=

> <r_epik_Ionization_Penalty>
2.74124

> <r_epik_Ionization_Penalty_Charging>
0

> <r_epik_Ionization_Penalty_Neutral>
2.74124

> <r_epik_State_Penalty>
2.37482

> <r_epik_Charging_Adjusted_Penalty>
2.37482

> <i_epik_Tot_Q>
0

> <i_epik_Tot_abs_Q>
0

> <r_epik_Metal_State_Penalty>
2.25944

> <b_epik_Metal_Only>
0

> <s_lp_Force_Field>
OPLS_2005

> <r_lp_Energy>
34.1371

> <b_lp_Chiralities_Consistent>
1

> <s_lp_Variant>
AV-unprocessed.smi:1047-36

> <Gold.Version>
5.8.1

> <Gold.Id.Protein>
6NUR|6NUR_protein|mol2

> <Gold.PLP.Fitness>
59.3931

> <Gold.PLP.PLP>
-48.8984

> <Gold.PLP.part.hbond>
-4.0000

> <Gold.PLP.part.metal>
0.0000

> <Gold.PLP.part.buried>
-5.1639

> <Gold.PLP.part.nonpolar>
-38.4636

> <Gold.PLP.part.repulsive>
0.1354

> <Gold.PLP.ligand.clash>
0.0000

> <Gold.PLP.ligand.torsion>
0.7707

> <Gold.PLP.Chemscore.Hbond>
3.9600

> <Gold.PLP.Chemscore.CHOScore>
0.0000

> <Gold.PLP.Chemscore.Metal>
0.0000

> <Gold.Chemscore.Hbonds>
donor molecule, donor type, donor heavy atom, donor atom, acceptor molecule, acceptor atom, score
      L1  H     9    38       P1  8028  1.00
      L1  H    12    42       P1  7957  0.80
      P1  H  7989  7998       L1    12  0.98
      P1  H  7997  8009       L1    16  0.85

> <Gold.PLP.Chemscore.Internal.Correction>
0.1560

> <Gold.Rescore>
     Score         DG    S(hbond)    S(metal)    S(lipo)     H(rot)  DE(clash)    DE(int)     intcor
     17.10     -19.58       1.98        0.00     119.32       2.52       0.68       1.81       ----

> <Gold.Chemscore.Fitness>
17.0979

> <Gold.Chemscore.DG>
-19.5835

> <Gold.Chemscore.ZeroCoef>
-5.4800

> <Gold.Chemscore.Hbond>
1.9772

> <Gold.Chemscore.Metal>
0.0000

> <Gold.Chemscore.Lipo>
119.3199

> <Gold.Chemscore.Internal_Hbond>
0.0000

> <Gold.Chemscore.DEClash>
0.6773

> <Gold.Chemscore.DEInternal>
1.8083

> <Gold.Chemscore.Rot>
2.5237

> <Gold.Chemscore.Internal.Correction>
   9.000000E+99

> <Gold.Chemscore.Hbonds>
donor molecule, donor type, donor heavy atom, donor atom, acceptor molecule, acceptor atom, score
      L1  H     9    38       P1  8028  0.78
      L1  H    12    42       P1  7957  0.76
      P1  H  7989  7998       L1    12  0.08
      P1  H  7997  8009       L1    16  0.05

> <Gold.Chemscore.Hbond.Weighted>
-6.6037

> <Gold.Chemscore.Metal.Weighted>
-0.0000

> <Gold.Chemscore.Lipo.Weighted>
-13.9604

> <Gold.Chemscore.Internal_Hbond.Weighted>
0.0000

> <Gold.Chemscore.DEClash.Weighted>
0.6773

> <Gold.Chemscore.DEInternal.Weighted>
1.8083

> <Gold.Chemscore.Rot.Weighted>
6.4607

> <Gold.Chemscore.Internal.Correction.Weighted>
   9.000000E+99

> <Gold.Protein.RotatedTorsions>
[ 6907 6896 6895 6894 ] final  118.43 input  -60.11 | X-H torsion
[ 7974 7965 7964 7962 ] final  -98.62 input  175.53 | X-H torsion
[ 8008 7997 7996 7995 ] final  163.27 input   59.86 | X-H torsion
[ 10167 10162 10161 10158 ] final  -10.73 input  -65.29 | X-H torsion
[ 10718 10713 10712 10709 ] final  -87.90 input   66.30 | X-H torsion
[ 10763 10752 10751 10750 ] final   65.99 input  -60.55 | X-H torsion
[ 11005 11000 10999 10996 ] final -151.86 input  -57.11 | X-H torsion

> <Gold.Protein.ActiveResidues>
 VAL166  LYS551  ARG553  GLY616  TRP617  ASP618  TYR619  PRO620  LYS621  CYS622 
 ASP623  PHE694  ASN695  SER759  ASP760  ASP761  ALA762  ILE779  LEU786  VAL792 
 PHE793  MET794  SER795  GLU796  ALA797  LYS798  CYS799  TRP800  GLU811  SER814 

> <Gold.Protein.RotatedAtoms>
  152.4543  133.7692  159.6789 H   0  0  0  0  0  0  0  0  0  0  0  0  # atno 6907 bound_to 6896
  150.8465  133.7844  159.3047 H   0  0  0  0  0  0  0  0  0  0  0  0  # atno 6908 bound_to 6896
  151.5453  135.1071  159.9988 H   0  0  0  0  0  0  0  0  0  0  0  0  # atno 6909 bound_to 6896
  145.3182  140.9416  143.2731 H   0  0  0  0  0  0  0  0  0  0  0  0  # atno 7974 bound_to 7965
  156.1970  140.1728  156.7978 H   0  0  0  0  0  0  0  0  0  0  0  0  # atno 8008 bound_to 7997
  154.5542  140.0712  156.8748 H   0  0  0  0  0  0  0  0  0  0  0  0  # atno 8009 bound_to 7997
  155.2970  140.3359  155.4252 H   0  0  0  0  0  0  0  0  0  0  0  0  # atno 8010 bound_to 7997
  140.7121  143.5716  150.9087 H   0  0  0  0  0  0  0  0  0  0  0  0  # atno 10167 bound_to 10162
  155.9984  130.4816  150.4937 H   0  0  0  0  0  0  0  0  0  0  0  0  # atno 10718 bound_to 10713
  153.0120  135.5337  154.6754 H   0  0  0  0  0  0  0  0  0  0  0  0  # atno 10763 bound_to 10752
  154.5927  135.2860  155.0620 H   0  0  0  0  0  0  0  0  0  0  0  0  # atno 10764 bound_to 10752
  154.1707  135.6532  153.5061 H   0  0  0  0  0  0  0  0  0  0  0  0  # atno 10765 bound_to 10752
  140.7251  134.3684  157.5177 H   0  0  0  0  0  0  0  0  0  0  0  0  # atno 11005 bound_to 11000
  144.8961  139.4711  143.6655 LP  0  0  0  0  0  0  0  0  0  0  0  0  # atno 17320 bound_to 7965
  146.3092  139.7687  142.9032 LP  0  0  0  0  0  0  0  0  0  0  0  0  # atno 17321 bound_to 7965
  139.9442  143.6347  152.3046 LP  0  0  0  0  0  0  0  0  0  0  0  0  # atno 17342 bound_to 10162
  139.6842  144.7653  151.1553 LP  0  0  0  0  0  0  0  0  0  0  0  0  # atno 17343 bound_to 10162
  157.2929  131.0630  151.2121 LP  0  0  0  0  0  0  0  0  0  0  0  0  # atno 17370 bound_to 10713
  157.3127  130.6898  149.6225 LP  0  0  0  0  0  0  0  0  0  0  0  0  # atno 17371 bound_to 10713
  139.8839  134.8981  156.2737 LP  0  0  0  0  0  0  0  0  0  0  0  0  # atno 17394 bound_to 11000
  140.9970  133.7174  156.0901 LP  0  0  0  0  0  0  0  0  0  0  0  0  # atno 17395 bound_to 11000

$$$$
