AV-unprocessed.smi:2458|AV-procd|sdf|9709|dock9
  -GOLD-   2272013353D 1   1.00000     0.00000
 Structure written by MMmdl.
 47 48  0  0  0  0  0  0  0  0  1 V2000
  152.4959  142.9231  161.6834 C   0  0  0  0  0  0  0  0  0  0  0  0
  152.5211  143.7574  160.3879 C   0  0  0  0  0  0  0  0  0  0  0  0
  152.1409  145.2115  160.7285 C   0  0  0  0  0  0  0  0  0  0  0  0
  151.6311  143.1510  159.2631 C   0  0  1  0  0  0  0  0  0  0  0  0
  151.7886  143.9028  157.9182 C   0  0  0  0  0  0  0  0  0  0  0  0
  150.9252  143.2974  156.7997 C   0  0  0  0  0  0  0  0  0  0  0  0
  151.2433  141.8059  156.5908 C   0  0  2  0  0  0  0  0  0  0  0  0
  150.3749  141.1963  155.4829 C   0  0  0  0  0  0  0  0  0  0  0  0
  150.7286  140.1659  154.9087 O   0  0  0  0  0  0  0  0  0  0  0  0
  149.2478  141.8565  155.1777 N   0  0  0  0  0  0  0  0  0  0  0  0
  148.3260  141.4927  154.1058 C   0  0  0  0  0  0  0  0  0  0  0  0
  146.8955  141.2025  154.6143 C   0  0  1  0  0  0  0  0  0  0  0  0
  146.9891  140.5786  155.8782 O   0  0  0  0  0  0  0  0  0  0  0  0
  146.0136  142.4435  154.6518 C   0  0  0  0  0  0  0  0  0  0  0  0
  145.8714  143.2610  153.5105 C   0  0  0  0  0  0  0  0  0  0  0  0
  145.0674  144.4137  153.5939 C   0  0  0  0  0  0  0  0  0  0  0  0
  144.4351  144.7023  154.8193 C   0  0  0  0  0  0  0  0  0  0  0  0
  144.5626  143.9294  155.9190 N   0  0  0  0  0  0  0  0  0  0  0  0
  145.3364  142.8262  155.8306 C   0  0  0  0  0  0  0  0  0  0  0  0
  151.0483  141.0463  157.9150 C   0  0  0  0  0  0  0  0  0  0  0  0
  151.9105  141.6443  159.0376 C   0  0  0  0  0  0  0  0  0  0  0  0
  150.5897  143.2490  159.5747 H   0  0  0  0  0  0  0  0  0  0  0  0
  152.2906  141.7184  156.2954 H   0  0  0  0  0  0  0  0  0  0  0  0
  151.4767  142.7805  162.0438 H   0  0  0  0  0  0  0  0  0  0  0  0
  153.0608  143.4125  162.4773 H   0  0  0  0  0  0  0  0  0  0  0  0
  152.9478  141.9415  161.5469 H   0  0  0  0  0  0  0  0  0  0  0  0
  153.5528  143.7686  160.0336 H   0  0  0  0  0  0  0  0  0  0  0  0
  151.0866  145.2941  160.9942 H   0  0  0  0  0  0  0  0  0  0  0  0
  152.3354  145.8907  159.8993 H   0  0  0  0  0  0  0  0  0  0  0  0
  152.7231  145.5833  161.5721 H   0  0  0  0  0  0  0  0  0  0  0  0
  151.5044  144.9488  158.0253 H   0  0  0  0  0  0  0  0  0  0  0  0
  152.8360  143.8960  157.6130 H   0  0  0  0  0  0  0  0  0  0  0  0
  149.8716  143.4287  157.0516 H   0  0  0  0  0  0  0  0  0  0  0  0
  151.0915  143.8493  155.8735 H   0  0  0  0  0  0  0  0  0  0  0  0
  149.0327  142.6945  155.6983 H   0  0  0  0  0  0  0  0  0  0  0  0
  148.3144  142.2658  153.3356 H   0  0  0  0  0  0  0  0  0  0  0  0
  148.7355  140.5976  153.6359 H   0  0  0  0  0  0  0  0  0  0  0  0
  146.4298  140.4782  153.9445 H   0  0  0  0  0  0  0  0  0  0  0  0
  147.4153  141.1741  156.4754 H   0  0  0  0  0  0  0  0  0  0  0  0
  146.3771  143.0168  152.5876 H   0  0  0  0  0  0  0  0  0  0  0  0
  144.9406  145.0625  152.7400 H   0  0  0  0  0  0  0  0  0  0  0  0
  143.8119  145.5786  154.9191 H   0  0  0  0  0  0  0  0  0  0  0  0
  145.4233  142.2354  156.7308 H   0  0  0  0  0  0  0  0  0  0  0  0
  149.9991  141.0725  158.2144 H   0  0  0  0  0  0  0  0  0  0  0  0
  151.3044  139.9940  157.7843 H   0  0  0  0  0  0  0  0  0  0  0  0
  152.9657  141.4965  158.8037 H   0  0  0  0  0  0  0  0  0  0  0  0
  151.7118  141.0745  159.9443 H   0  0  0  0  0  0  0  0  0  0  0  0
  1  2  1  0  0  0  0
  1 24  1  0  0  0  0
  1 25  1  0  0  0  0
  1 26  1  0  0  0  0
  2  3  1  0  0  0  0
  2  4  1  0  0  0  0
  2 27  1  0  0  0  0
  3 28  1  0  0  0  0
  3 29  1  0  0  0  0
  3 30  1  0  0  0  0
  4 22  1  0  0  0  0
  4 21  1  0  0  0  0
  4  5  1  0  0  0  0
  5  6  1  0  0  0  0
  5 31  1  0  0  0  0
  5 32  1  0  0  0  0
  6  7  1  0  0  0  0
  6 33  1  0  0  0  0
  6 34  1  0  0  0  0
  7 23  1  0  0  0  0
  7  8  1  0  0  0  0
  7 20  1  0  0  0  0
  8  9  2  0  0  0  0
  8 10  1  0  0  0  0
 10 11  1  0  0  0  0
 10 35  1  0  0  0  0
 11 12  1  0  0  0  0
 11 36  1  0  0  0  0
 11 37  1  0  0  0  0
 12 13  1  0  0  0  0
 12 14  1  0  0  0  0
 12 38  1  0  0  0  0
 13 39  1  0  0  0  0
 14 19  1  0  0  0  0
 14 15  2  0  0  0  0
 15 16  1  0  0  0  0
 15 40  1  0  0  0  0
 16 17  2  0  0  0  0
 16 41  1  0  0  0  0
 17 18  1  0  0  0  0
 17 42  1  0  0  0  0
 18 19  2  0  0  0  0
 19 43  1  0  0  0  0
 20 21  1  0  0  0  0
 20 44  1  0  0  0  0
 20 45  1  0  0  0  0
 21 46  1  0  0  0  0
 21 47  1  0  0  0  0
M  END
> <s_m_source_file>
AV-unprocessed.smi

> <i_m_source_file_index>
2458

> <i_lp_mmshare_version>
43012

> <i_f3d_flags>
0

> <s_epik_input>
W0NIM11bQ0hdKFtDSDNdKVtDQEhdMVtDSDJdW0NIMl1bQ0BASF0oW0NIMl1bQ0gyXTEpQyg9TylbTkhdW0NIMl1bQ0BIXShbT0hdKWMyW2NIXVtjSF1bY0hdbltjSF0y

> <s_epik_cmdline>
J2VwaWtfcHl0aG9uJywgJy1waCcsICc3LjAnLCAnLXRuJywgJzgnLCAnLW1hJywgJzIwMCcsICctbWV0YWxfYmluZGluZycsICctaW1hZScsICc8aW5maWxlLm1hZT4nLCAnLW9tYWUnLCAnPG91dGZpbGUubWFlPic=

> <r_epik_Ionization_Penalty>
0.00169206

> <r_epik_Ionization_Penalty_Charging>
0

> <r_epik_Ionization_Penalty_Neutral>
0.00169206

> <r_epik_State_Penalty>
0.0011427

> <r_epik_Charging_Adjusted_Penalty>
0.0011427

> <i_epik_Tot_Q>
0

> <i_epik_Tot_abs_Q>
0

> <r_epik_Metal_State_Penalty>
-0

> <b_epik_Metal_Only>
0

> <s_lp_Force_Field>
OPLS_2005

> <r_lp_Energy>
14.1606

> <b_lp_Chiralities_Consistent>
1

> <s_lp_Variant>
AV-unprocessed.smi:2458-2

> <Gold.Version>
5.8.1

> <Gold.Id.Protein>
6NUR|6NUR_protein|mol2

> <Gold.PLP.Fitness>
49.4904

> <Gold.PLP.PLP>
-45.8795

> <Gold.PLP.part.hbond>
-2.0000

> <Gold.PLP.part.metal>
0.0000

> <Gold.PLP.part.buried>
-3.9800

> <Gold.PLP.part.nonpolar>
-38.8548

> <Gold.PLP.part.repulsive>
0.3489

> <Gold.PLP.ligand.clash>
0.2749

> <Gold.PLP.ligand.torsion>
0.9794

> <Gold.PLP.Chemscore.Hbond>
1.9280

> <Gold.PLP.Chemscore.CHOScore>
0.0000

> <Gold.PLP.Chemscore.Metal>
0.0000

> <Gold.Chemscore.Hbonds>
donor molecule, donor type, donor heavy atom, donor atom, acceptor molecule, acceptor atom, score
      L1  H    10    35       P1  8028  0.93
      P1  H  7989  7998       L1     9  1.00

> <Gold.PLP.Chemscore.Internal.Correction>
0.0605

> <Gold.Rescore>
     Score         DG    S(hbond)    S(metal)    S(lipo)     H(rot)  DE(clash)    DE(int)     intcor
     18.44     -21.59       1.66        0.00     135.51       2.06       2.18       0.97       ----

> <Gold.Chemscore.Fitness>
18.4391

> <Gold.Chemscore.DG>
-21.5925

> <Gold.Chemscore.ZeroCoef>
-5.4800

> <Gold.Chemscore.Hbond>
1.6551

> <Gold.Chemscore.Metal>
0.0000

> <Gold.Chemscore.Lipo>
135.5137

> <Gold.Chemscore.Internal_Hbond>
0.0000

> <Gold.Chemscore.DEClash>
2.1828

> <Gold.Chemscore.DEInternal>
0.9706

> <Gold.Chemscore.Rot>
2.0588

> <Gold.Chemscore.Internal.Correction>
   9.000000E+99

> <Gold.Chemscore.Hbonds>
donor molecule, donor type, donor heavy atom, donor atom, acceptor molecule, acceptor atom, score
      L1  H    10    35       P1  8028  0.84
      P1  H  7989  7998       L1     9  0.26

> <Gold.Chemscore.Hbond.Weighted>
-5.5279

> <Gold.Chemscore.Metal.Weighted>
-0.0000

> <Gold.Chemscore.Lipo.Weighted>
-15.8551

> <Gold.Chemscore.Internal_Hbond.Weighted>
0.0000

> <Gold.Chemscore.DEClash.Weighted>
2.1828

> <Gold.Chemscore.DEInternal.Weighted>
0.9706

> <Gold.Chemscore.Rot.Weighted>
5.2705

> <Gold.Chemscore.Internal.Correction.Weighted>
   9.000000E+99

> <Gold.Protein.RotatedTorsions>
[ 6907 6896 6895 6894 ] final   26.67 input  -60.11 | X-H torsion
[ 7974 7965 7964 7962 ] final  117.16 input  175.53 | X-H torsion
[ 8008 7997 7996 7995 ] final  163.50 input   59.86 | X-H torsion
[ 10167 10162 10161 10158 ] final   28.03 input  -65.29 | X-H torsion
[ 10718 10713 10712 10709 ] final -120.98 input   66.30 | X-H torsion
[ 10763 10752 10751 10750 ] final   -2.99 input  -60.55 | X-H torsion
[ 11005 11000 10999 10996 ] final  -21.09 input  -57.11 | X-H torsion

> <Gold.Protein.ActiveResidues>
 VAL166  LYS551  ARG553  GLY616  TRP617  ASP618  TYR619  PRO620  LYS621  CYS622 
 ASP623  PHE694  ASN695  SER759  ASP760  ASP761  ALA762  ILE779  LEU786  VAL792 
 PHE793  MET794  SER795  GLU796  ALA797  LYS798  CYS799  TRP800  GLU811  SER814 

> <Gold.Protein.RotatedAtoms>
  151.9909  134.9980  160.0561 H   0  0  0  0  0  0  0  0  0  0  0  0  # atno 6907 bound_to 6896
  152.1609  133.4576  159.4869 H   0  0  0  0  0  0  0  0  0  0  0  0  # atno 6908 bound_to 6896
  150.6887  134.1990  159.4358 H   0  0  0  0  0  0  0  0  0  0  0  0  # atno 6909 bound_to 6896
  145.1708  139.3102  143.4468 H   0  0  0  0  0  0  0  0  0  0  0  0  # atno 7974 bound_to 7965
  156.1952  140.1722  156.8013 H   0  0  0  0  0  0  0  0  0  0  0  0  # atno 8008 bound_to 7997
  154.5520  140.0716  156.8715 H   0  0  0  0  0  0  0  0  0  0  0  0  # atno 8009 bound_to 7997
  155.3010  140.3361  155.4250 H   0  0  0  0  0  0  0  0  0  0  0  0  # atno 8010 bound_to 7997
  140.4887  144.0501  150.6289 H   0  0  0  0  0  0  0  0  0  0  0  0  # atno 10167 bound_to 10162
  156.1301  130.6389  150.9607 H   0  0  0  0  0  0  0  0  0  0  0  0  # atno 10718 bound_to 10713
  153.3653  135.6992  153.6680 H   0  0  0  0  0  0  0  0  0  0  0  0  # atno 10763 bound_to 10752
  153.5352  135.3584  155.2694 H   0  0  0  0  0  0  0  0  0  0  0  0  # atno 10764 bound_to 10752
  154.8674  135.4190  154.2920 H   0  0  0  0  0  0  0  0  0  0  0  0  # atno 10765 bound_to 10752
  140.8528  133.7844  155.9985 H   0  0  0  0  0  0  0  0  0  0  0  0  # atno 11005 bound_to 11000
  146.3469  140.1853  142.8589 LP  0  0  0  0  0  0  0  0  0  0  0  0  # atno 17320 bound_to 7965
  145.0235  140.8813  143.5153 LP  0  0  0  0  0  0  0  0  0  0  0  0  # atno 17321 bound_to 7965
  140.3764  143.2826  152.0220 LP  0  0  0  0  0  0  0  0  0  0  0  0  # atno 17342 bound_to 10162
  139.4847  144.6189  151.7292 LP  0  0  0  0  0  0  0  0  0  0  0  0  # atno 17343 bound_to 10162
  157.6479  131.0901  150.8113 LP  0  0  0  0  0  0  0  0  0  0  0  0  # atno 17370 bound_to 10713
  156.8199  130.4980  149.5344 LP  0  0  0  0  0  0  0  0  0  0  0  0  # atno 17371 bound_to 10713
  140.8771  134.2656  157.5162 LP  0  0  0  0  0  0  0  0  0  0  0  0  # atno 17394 bound_to 11000
  139.8704  134.9596  156.4338 LP  0  0  0  0  0  0  0  0  0  0  0  0  # atno 17395 bound_to 11000

$$$$
