AV-unprocessed.smi:1068|AV-procd|sdf|4674|dock3
  -GOLD-   22720 3183D 1   1.00000     0.00000
 Structure written by MMmdl.
 51 52  0  0  0  0  0  0  0  0  1 V2000
  152.1810  143.9113  157.3493 C   0  0  0  0  0  0  0  0  0  0  0  0
  151.3652  142.8249  158.0894 C   0  0  0  0  0  0  0  0  0  0  0  0
  152.3726  142.0743  158.9918 C   0  0  0  0  0  0  0  0  0  0  0  0
  150.2886  143.4946  158.9629 C   0  0  0  0  0  0  0  0  0  0  0  0
  150.6913  141.8639  157.0948 C   0  0  0  0  0  0  0  0  0  0  0  0
  151.4630  140.9206  156.5389 N   0  0  0  0  0  0  0  0  0  0  0  0
  150.9173  140.1545  155.5717 C   0  0  0  0  0  0  0  0  0  0  0  0
  149.5940  140.3435  155.1260 C   0  0  0  0  0  0  0  0  0  0  0  0
  149.0938  139.5090  154.0907 N   0  0  0  0  0  0  0  0  0  0  0  0
  147.8769  139.5163  153.5216 C   0  0  0  0  0  0  0  0  0  0  0  0
  146.9410  140.2456  153.8465 O   0  0  0  0  0  0  0  0  0  0  0  0
  147.7989  138.6102  152.5358 N   0  0  0  0  0  0  0  0  0  0  0  0
  146.6213  138.3681  151.7012 C   0  0  0  0  0  0  0  0  0  0  0  0
  145.8502  137.0784  152.0270 C   0  0  0  0  0  0  0  0  0  0  0  0
  144.7064  137.1644  152.4719 O   0  0  0  0  0  0  0  0  0  0  0  0
  146.4618  135.9003  151.8148 N   0  0  0  0  0  0  0  0  0  0  0  0
  145.8799  134.5832  152.0503 C   0  0  0  0  0  0  0  0  0  0  0  0
  146.8512  133.4714  151.6029 C   0  0  0  0  0  0  0  0  0  0  0  0
  146.2228  132.0776  151.7633 C   0  0  0  0  0  0  0  0  0  0  0  0
  144.8868  131.9775  151.0109 C   0  0  0  0  0  0  0  0  0  0  0  0
  143.9141  133.0798  151.4589 C   0  0  0  0  0  0  0  0  0  0  0  0
  144.5397  134.4746  151.2983 C   0  0  0  0  0  0  0  0  0  0  0  0
  148.8833  141.4004  155.7440 C   0  0  0  0  0  0  0  0  0  0  0  0
  149.4426  142.1592  156.7106 N   0  0  0  0  0  0  0  0  0  0  0  0
  152.7019  144.5639  158.0509 H   0  0  0  0  0  0  0  0  0  0  0  0
  151.5464  144.5524  156.7365 H   0  0  0  0  0  0  0  0  0  0  0  0
  152.9327  143.4677  156.6953 H   0  0  0  0  0  0  0  0  0  0  0  0
  153.1341  141.5655  158.3994 H   0  0  0  0  0  0  0  0  0  0  0  0
  151.8840  141.3255  159.6159 H   0  0  0  0  0  0  0  0  0  0  0  0
  152.8869  142.7586  159.6676 H   0  0  0  0  0  0  0  0  0  0  0  0
  150.7315  144.1844  159.6821 H   0  0  0  0  0  0  0  0  0  0  0  0
  149.7180  142.7544  159.5251 H   0  0  0  0  0  0  0  0  0  0  0  0
  149.5820  144.0612  158.3553 H   0  0  0  0  0  0  0  0  0  0  0  0
  151.5479  139.3875  155.1457 H   0  0  0  0  0  0  0  0  0  0  0  0
  149.7359  138.8047  153.7570 H   0  0  0  0  0  0  0  0  0  0  0  0
  148.6155  138.0502  152.3394 H   0  0  0  0  0  0  0  0  0  0  0  0
  145.9425  139.2119  151.8259 H   0  0  0  0  0  0  0  0  0  0  0  0
  146.9050  138.3559  150.6475 H   0  0  0  0  0  0  0  0  0  0  0  0
  147.4009  135.9206  151.4450 H   0  0  0  0  0  0  0  0  0  0  0  0
  145.6787  134.4690  153.1174 H   0  0  0  0  0  0  0  0  0  0  0  0
  147.1307  133.6236  150.5594 H   0  0  0  0  0  0  0  0  0  0  0  0
  147.7749  133.5226  152.1801 H   0  0  0  0  0  0  0  0  0  0  0  0
  146.9121  131.3149  151.4003 H   0  0  0  0  0  0  0  0  0  0  0  0
  146.0618  131.8702  152.8220 H   0  0  0  0  0  0  0  0  0  0  0  0
  145.0643  132.0602  149.9379 H   0  0  0  0  0  0  0  0  0  0  0  0
  144.4393  130.9969  151.1758 H   0  0  0  0  0  0  0  0  0  0  0  0
  142.9912  133.0180  150.8816 H   0  0  0  0  0  0  0  0  0  0  0  0
  143.6374  132.9219  152.5021 H   0  0  0  0  0  0  0  0  0  0  0  0
  143.8444  135.2323  151.6623 H   0  0  0  0  0  0  0  0  0  0  0  0
  144.6925  134.6805  150.2378 H   0  0  0  0  0  0  0  0  0  0  0  0
  147.8778  141.6744  155.4666 H   0  0  0  0  0  0  0  0  0  0  0  0
  1  2  1  0  0  0  0
  1 25  1  0  0  0  0
  1 26  1  0  0  0  0
  1 27  1  0  0  0  0
  2  3  1  0  0  0  0
  2  4  1  0  0  0  0
  2  5  1  0  0  0  0
  3 28  1  0  0  0  0
  3 29  1  0  0  0  0
  3 30  1  0  0  0  0
  4 31  1  0  0  0  0
  4 32  1  0  0  0  0
  4 33  1  0  0  0  0
  5 24  1  0  0  0  0
  5  6  2  0  0  0  0
  6  7  1  0  0  0  0
  7  8  2  0  0  0  0
  7 34  1  0  0  0  0
  8  9  1  0  0  0  0
  8 23  1  0  0  0  0
  9 10  1  0  0  0  0
  9 35  1  0  0  0  0
 10 11  2  0  0  0  0
 10 12  1  0  0  0  0
 12 13  1  0  0  0  0
 12 36  1  0  0  0  0
 13 14  1  0  0  0  0
 13 37  1  0  0  0  0
 13 38  1  0  0  0  0
 14 15  2  0  0  0  0
 14 16  1  0  0  0  0
 16 17  1  0  0  0  0
 16 39  1  0  0  0  0
 17 22  1  0  0  0  0
 17 18  1  0  0  0  0
 17 40  1  0  0  0  0
 18 19  1  0  0  0  0
 18 41  1  0  0  0  0
 18 42  1  0  0  0  0
 19 20  1  0  0  0  0
 19 43  1  0  0  0  0
 19 44  1  0  0  0  0
 20 21  1  0  0  0  0
 20 45  1  0  0  0  0
 20 46  1  0  0  0  0
 21 22  1  0  0  0  0
 21 47  1  0  0  0  0
 21 48  1  0  0  0  0
 22 49  1  0  0  0  0
 22 50  1  0  0  0  0
 23 24  2  0  0  0  0
 23 51  1  0  0  0  0
M  END
> <s_m_source_file>
AV-unprocessed.smi

> <i_m_source_file_index>
1068

> <i_lp_mmshare_version>
43012

> <i_f3d_flags>
0

> <s_epik_input>
W0NIM11DKFtDSDNdKShbQ0gzXSljMW5bY0hdYyhbY0hdbjEpW05IXUMoPU8pW05IXVtDSDJdQyg9TylbTkhdW0NIXTJbQ0gyXVtDSDJdW0NIMl1bQ0gyXVtDSDJdMg==

> <s_epik_cmdline>
J2VwaWtfcHl0aG9uJywgJy1waCcsICc3LjAnLCAnLXRuJywgJzgnLCAnLW1hJywgJzIwMCcsICctbWV0YWxfYmluZGluZycsICctaW1hZScsICc8aW5maWxlLm1hZT4nLCAnLW9tYWUnLCAnPG91dGZpbGUubWFlPic=

> <r_lp_tautomer_probability>
1

> <r_epik_Ionization_Penalty>
2.47974e-05

> <r_epik_Ionization_Penalty_Charging>
0

> <r_epik_Ionization_Penalty_Neutral>
2.47974e-05

> <r_epik_State_Penalty>
-0

> <r_epik_Charging_Adjusted_Penalty>
0

> <i_epik_Tot_Q>
0

> <i_epik_Tot_abs_Q>
0

> <r_epik_Metal_State_Penalty>
-0

> <b_epik_Metal_Only>
0

> <s_lp_Force_Field>
OPLS_2005

> <r_lp_Energy>
3.00881

> <b_lp_Chiralities_Consistent>
1

> <s_lp_Variant>
AV-unprocessed.smi:1068-1

> <Gold.Version>
5.8.1

> <Gold.Id.Protein>
6NUR|6NUR_protein|mol2

> <Gold.PLP.Fitness>
44.7341

> <Gold.PLP.PLP>
-41.9819

> <Gold.PLP.part.hbond>
-4.0000

> <Gold.PLP.part.metal>
0.0000

> <Gold.PLP.part.buried>
-5.2307

> <Gold.PLP.part.nonpolar>
-36.3764

> <Gold.PLP.part.repulsive>
2.7756

> <Gold.PLP.ligand.clash>
0.0000

> <Gold.PLP.ligand.torsion>
1.1066

> <Gold.PLP.Chemscore.Hbond>
1.6000

> <Gold.PLP.Chemscore.CHOScore>
0.0000

> <Gold.PLP.Chemscore.Metal>
0.0000

> <Gold.Chemscore.Hbonds>
donor molecule, donor type, donor heavy atom, donor atom, acceptor molecule, acceptor atom, score
      L1  H    12    36       P1  7948  0.75
      L1  H    16    39       P1  7948  0.90

> <Gold.PLP.Chemscore.Internal.Correction>
0.1654

> <Gold.Rescore>
     Score         DG    S(hbond)    S(metal)    S(lipo)     H(rot)  DE(clash)    DE(int)     intcor
     15.41     -18.97       1.79        0.00     100.08       1.64       0.53       3.02       ----

> <Gold.Chemscore.Fitness>
15.4132

> <Gold.Chemscore.DG>
-18.9650

> <Gold.Chemscore.ZeroCoef>
-5.4800

> <Gold.Chemscore.Hbond>
1.7909

> <Gold.Chemscore.Metal>
0.0000

> <Gold.Chemscore.Lipo>
100.0822

> <Gold.Chemscore.Internal_Hbond>
0.0000

> <Gold.Chemscore.DEClash>
0.5324

> <Gold.Chemscore.DEInternal>
3.0194

> <Gold.Chemscore.Rot>
1.6431

> <Gold.Chemscore.Internal.Correction>
   9.000000E+99

> <Gold.Chemscore.Hbonds>
donor molecule, donor type, donor heavy atom, donor atom, acceptor molecule, acceptor atom, score
      L1  H    12    36       P1  7948  0.74
      L1  H    16    39       P1  7948  0.86

> <Gold.Chemscore.Hbond.Weighted>
-5.9817

> <Gold.Chemscore.Metal.Weighted>
-0.0000

> <Gold.Chemscore.Lipo.Weighted>
-11.7096

> <Gold.Chemscore.Internal_Hbond.Weighted>
0.0000

> <Gold.Chemscore.DEClash.Weighted>
0.5324

> <Gold.Chemscore.DEInternal.Weighted>
3.0194

> <Gold.Chemscore.Rot.Weighted>
4.2063

> <Gold.Chemscore.Internal.Correction.Weighted>
   9.000000E+99

> <Gold.Protein.RotatedTorsions>
[ 6907 6896 6895 6894 ] final   26.72 input  -60.11 | X-H torsion
[ 7974 7965 7964 7962 ] final   67.73 input  175.53 | X-H torsion
[ 8008 7997 7996 7995 ] final -167.41 input   59.86 | X-H torsion
[ 10167 10162 10161 10158 ] final   11.29 input  -65.29 | X-H torsion
[ 10718 10713 10712 10709 ] final  -35.35 input   66.30 | X-H torsion
[ 10763 10752 10751 10750 ] final -148.46 input  -60.55 | X-H torsion
[ 11005 11000 10999 10996 ] final -131.63 input  -57.11 | X-H torsion

> <Gold.Protein.ActiveResidues>
 VAL166  LYS551  ARG553  GLY616  TRP617  ASP618  TYR619  PRO620  LYS621  CYS622 
 ASP623  PHE694  ASN695  SER759  ASP760  ASP761  ALA762  ILE779  LEU786  VAL792 
 PHE793  MET794  SER795  GLU796  ALA797  LYS798  CYS799  TRP800  GLU811  SER814 

> <Gold.Protein.RotatedAtoms>
  151.9917  134.9976  160.0561 H   0  0  0  0  0  0  0  0  0  0  0  0  # atno 6907 bound_to 6896
  152.1602  133.4572  159.4865 H   0  0  0  0  0  0  0  0  0  0  0  0  # atno 6908 bound_to 6896
  150.6887  134.1998  159.4361 H   0  0  0  0  0  0  0  0  0  0  0  0  # atno 6909 bound_to 6896
  145.8111  139.3033  143.1099 H   0  0  0  0  0  0  0  0  0  0  0  0  # atno 7974 bound_to 7965
  155.8773  140.1003  157.1509 H   0  0  0  0  0  0  0  0  0  0  0  0  # atno 8008 bound_to 7997
  154.4002  140.1335  156.4215 H   0  0  0  0  0  0  0  0  0  0  0  0  # atno 8009 bound_to 7997
  155.7683  140.3461  155.5236 H   0  0  0  0  0  0  0  0  0  0  0  0  # atno 8010 bound_to 7997
  140.6141  143.8346  150.7098 H   0  0  0  0  0  0  0  0  0  0  0  0  # atno 10167 bound_to 10162
  156.3397  130.4292  149.7798 H   0  0  0  0  0  0  0  0  0  0  0  0  # atno 10718 bound_to 10713
  154.8231  135.3334  154.6977 H   0  0  0  0  0  0  0  0  0  0  0  0  # atno 10763 bound_to 10752
  153.7607  135.6933  153.4930 H   0  0  0  0  0  0  0  0  0  0  0  0  # atno 10764 bound_to 10752
  153.2112  135.4481  155.0331 H   0  0  0  0  0  0  0  0  0  0  0  0  # atno 10765 bound_to 10752
  140.9242  134.1405  157.4289 H   0  0  0  0  0  0  0  0  0  0  0  0  # atno 11005 bound_to 11000
  145.9776  140.8709  143.0130 LP  0  0  0  0  0  0  0  0  0  0  0  0  # atno 17320 bound_to 7965
  144.6757  140.2035  143.7384 LP  0  0  0  0  0  0  0  0  0  0  0  0  # atno 17321 bound_to 7965
  140.1921  143.4028  152.1855 LP  0  0  0  0  0  0  0  0  0  0  0  0  # atno 17342 bound_to 10162
  139.5384  144.7233  151.4815 LP  0  0  0  0  0  0  0  0  0  0  0  0  # atno 17343 bound_to 10162
  156.5039  130.8141  151.3143 LP  0  0  0  0  0  0  0  0  0  0  0  0  # atno 17370 bound_to 10713
  157.7445  130.9936  150.2677 LP  0  0  0  0  0  0  0  0  0  0  0  0  # atno 17371 bound_to 10713
  139.8782  134.9982  156.5888 LP  0  0  0  0  0  0  0  0  0  0  0  0  # atno 17394 bound_to 11000
  140.7948  133.8553  155.8677 LP  0  0  0  0  0  0  0  0  0  0  0  0  # atno 17395 bound_to 11000

$$$$
