AV-unprocessed.smi:2212|AV-procd|sdf|8955|dock1
  -GOLD-   2272012173D 1   1.00000     0.00000
 Structure written by MMmdl.
 30 31  0  0  0  0  0  0  0  0  2 V2000
  148.9926  141.2408  154.8975 C   0  0  0  0  0  0  0  0  0  0  0  0
  149.2950  140.1022  155.6931 O   0  0  0  0  0  0  0  0  0  0  0  0
  150.0242  140.3543  156.8949 C   0  0  0  0  0  0  0  0  0  0  0  0
  150.3446  139.0620  157.6598 C   0  0  0  0  0  0  0  0  0  0  0  0
  149.1332  138.4722  158.2151 N   0  0  0  0  0  0  0  0  0  0  0  0
  149.0810  137.3269  158.9076 C   0  0  0  0  0  0  0  0  0  0  0  0
  150.1160  136.6891  159.1151 O   0  0  0  0  0  0  0  0  0  0  0  0
  147.8362  136.9913  159.3152 N   0  5  0  0  0  0  0  0  0  0  0  0
  147.6540  136.4452  160.5284 C   0  0  0  0  0  0  0  0  0  0  0  0
  147.4972  135.1476  160.7962 N   0  0  0  0  0  0  0  0  0  0  0  0
  147.3510  135.0594  162.1720 C   0  0  0  0  0  0  0  0  0  0  0  0
  147.4336  136.3251  162.6848 C   0  0  0  0  0  0  0  0  0  0  0  0
  147.6286  137.2074  161.6583 O   0  0  0  0  0  0  0  0  0  0  0  0
  151.1966  141.2926  156.5510 C   0  0  0  0  0  0  0  0  0  0  0  0
  150.8291  142.1375  157.7721 C   0  0  0  0  0  0  0  0  0  0  0  0
  149.4231  141.5437  157.6708 C   0  0  0  0  0  0  0  0  0  0  0  0
  148.5450  140.9126  153.9596 H   0  0  0  0  0  0  0  0  0  0  0  0
  149.8854  141.8174  154.6547 H   0  0  0  0  0  0  0  0  0  0  0  0
  148.2728  141.8964  155.3872 H   0  0  0  0  0  0  0  0  0  0  0  0
  150.8104  138.3361  156.9915 H   0  0  0  0  0  0  0  0  0  0  0  0
  151.0656  139.2405  158.4577 H   0  0  0  0  0  0  0  0  0  0  0  0
  148.2693  138.9730  158.0664 H   0  0  0  0  0  0  0  0  0  0  0  0
  147.2025  134.1135  162.6712 H   0  0  0  0  0  0  0  0  0  0  0  0
  147.3793  136.7394  163.6801 H   0  0  0  0  0  0  0  0  0  0  0  0
  152.1843  140.8331  156.6017 H   0  0  0  0  0  0  0  0  0  0  0  0
  151.0563  141.8323  155.6127 H   0  0  0  0  0  0  0  0  0  0  0  0
  151.3571  141.8291  158.6759 H   0  0  0  0  0  0  0  0  0  0  0  0
  150.8832  143.2151  157.6161 H   0  0  0  0  0  0  0  0  0  0  0  0
  148.7547  142.1610  157.0679 H   0  0  0  0  0  0  0  0  0  0  0  0
  148.9727  141.2840  158.6292 H   0  0  0  0  0  0  0  0  0  0  0  0
  1  2  1  0  0  0  0
  1 17  1  0  0  0  0
  1 18  1  0  0  0  0
  1 19  1  0  0  0  0
  2  3  1  0  0  0  0
  3 16  1  0  0  0  0
  3  4  1  0  0  0  0
  3 14  1  0  0  0  0
  4  5  1  0  0  0  0
  4 20  1  0  0  0  0
  4 21  1  0  0  0  0
  5 22  1  0  0  0  0
  5  6  1  0  0  0  0
  6  8  1  0  0  0  0
  6  7  2  0  0  0  0
  8  9  1  0  0  0  0
  9 13  1  0  0  0  0
  9 10  2  0  0  0  0
 10 11  1  0  0  0  0
 11 23  1  0  0  0  0
 11 12  2  0  0  0  0
 12 24  1  0  0  0  0
 12 13  1  0  0  0  0
 14 15  1  0  0  0  0
 14 25  1  0  0  0  0
 14 26  1  0  0  0  0
 15 16  1  0  0  0  0
 15 27  1  0  0  0  0
 15 28  1  0  0  0  0
 16 29  1  0  0  0  0
 16 30  1  0  0  0  0
M  CHG  1   8  -1
M  END
> <s_m_source_file>
AV-unprocessed.smi

> <i_m_source_file_index>
2212

> <i_lp_mmshare_version>
43012

> <i_f3d_flags>
0

> <s_epik_input>
W0NIMl0xW0NIMl1bQ0gyXUMxKE9bQ0gzXSlbQ0gyXVtOSF1DKD1PKVtOSF1jMm5bY0hdW2NIXW8y

> <s_epik_cmdline>
J2VwaWtfcHl0aG9uJywgJy1waCcsICc3LjAnLCAnLXRuJywgJzgnLCAnLW1hJywgJzIwMCcsICctbWV0YWxfYmluZGluZycsICctaW1hZScsICc8aW5maWxlLm1hZT4nLCAnLW9tYWUnLCAnPG91dGZpbGUubWFlPic=

> <r_lp_tautomer_probability>
0.107061

> <r_epik_Ionization_Penalty>
10.8857

> <r_epik_Ionization_Penalty_Charging>
7.67908

> <r_epik_Ionization_Penalty_Neutral>
3.20665

> <r_epik_State_Penalty>
5.80296

> <r_epik_Charging_Adjusted_Penalty>
13.482

> <i_epik_Tot_Q>
-1

> <i_epik_Tot_abs_Q>
1

> <r_epik_Metal_State_Penalty>
1.73217

> <b_epik_Metal_Only>
1

> <s_lp_Force_Field>
OPLS_2005

> <r_lp_Energy>
11.9556

> <b_lp_Chiralities_Consistent>
1

> <s_lp_Variant>
AV-unprocessed.smi:2212-5

> <Gold.Version>
5.8.1

> <Gold.Id.Protein>
6NUR|6NUR_protein|mol2

> <Gold.PLP.Fitness>
33.4256

> <Gold.PLP.PLP>
-27.1939

> <Gold.PLP.part.hbond>
-3.0000

> <Gold.PLP.part.metal>
0.0000

> <Gold.PLP.part.buried>
-4.9194

> <Gold.PLP.part.nonpolar>
-18.9323

> <Gold.PLP.part.repulsive>
0.1891

> <Gold.PLP.ligand.clash>
0.0000

> <Gold.PLP.ligand.torsion>
1.1890

> <Gold.PLP.Chemscore.Hbond>
2.7520

> <Gold.PLP.Chemscore.CHOScore>
0.0000

> <Gold.PLP.Chemscore.Metal>
0.0000

> <Gold.Chemscore.Hbonds>
donor molecule, donor type, donor heavy atom, donor atom, acceptor molecule, acceptor atom, score
      P1  H  6896  6909       L1     7  0.99
      P1  H  6931  6943       L1    13  0.99
      P1  H  6934  6947       L1    13  0.75

> <Gold.PLP.Chemscore.Internal.Correction>
0.3537

> <Gold.Rescore>
     Score         DG    S(hbond)    S(metal)    S(lipo)     H(rot)  DE(clash)    DE(int)     intcor
     14.03     -15.22       2.37        0.00      50.99       1.61       0.03       1.17       ----

> <Gold.Chemscore.Fitness>
14.0255

> <Gold.Chemscore.DG>
-15.2228

> <Gold.Chemscore.ZeroCoef>
-5.4800

> <Gold.Chemscore.Hbond>
2.3679

> <Gold.Chemscore.Metal>
0.0000

> <Gold.Chemscore.Lipo>
50.9926

> <Gold.Chemscore.Internal_Hbond>
0.0000

> <Gold.Chemscore.DEClash>
0.0270

> <Gold.Chemscore.DEInternal>
1.1703

> <Gold.Chemscore.Rot>
1.6141

> <Gold.Chemscore.Internal.Correction>
   9.000000E+99

> <Gold.Chemscore.Hbonds>
donor molecule, donor type, donor heavy atom, donor atom, acceptor molecule, acceptor atom, score
      P1  H  6896  6909       L1     7  0.92
      P1  H  6931  6943       L1    13  0.74
      P1  H  6934  6947       L1    13  0.28

> <Gold.Chemscore.Hbond.Weighted>
-7.9087

> <Gold.Chemscore.Metal.Weighted>
-0.0000

> <Gold.Chemscore.Lipo.Weighted>
-5.9661

> <Gold.Chemscore.Internal_Hbond.Weighted>
0.0000

> <Gold.Chemscore.DEClash.Weighted>
0.0270

> <Gold.Chemscore.DEInternal.Weighted>
1.1703

> <Gold.Chemscore.Rot.Weighted>
4.1320

> <Gold.Chemscore.Internal.Correction.Weighted>
   9.000000E+99

> <Gold.Protein.RotatedTorsions>
[ 6907 6896 6895 6894 ] final   92.86 input  -60.11 | X-H torsion
[ 7974 7965 7964 7962 ] final  -55.78 input  175.53 | X-H torsion
[ 8008 7997 7996 7995 ] final   91.95 input   59.86 | X-H torsion
[ 10167 10162 10161 10158 ] final   76.80 input  -65.29 | X-H torsion
[ 10718 10713 10712 10709 ] final   81.11 input   66.30 | X-H torsion
[ 10763 10752 10751 10750 ] final    4.85 input  -60.55 | X-H torsion
[ 11005 11000 10999 10996 ] final   25.20 input  -57.11 | X-H torsion

> <Gold.Protein.ActiveResidues>
 VAL166  LYS551  ARG553  GLY616  TRP617  ASP618  TYR619  PRO620  LYS621  CYS622 
 ASP623  PHE694  ASN695  SER759  ASP760  ASP761  ALA762  ILE779  LEU786  VAL792 
 PHE793  MET794  SER795  GLU796  ALA797  LYS798  CYS799  TRP800  GLU811  SER814 

> <Gold.Protein.RotatedAtoms>
  152.5453  134.1437  159.8489 H   0  0  0  0  0  0  0  0  0  0  0  0  # atno 6907 bound_to 6896
  151.1471  133.4925  159.2603 H   0  0  0  0  0  0  0  0  0  0  0  0  # atno 6908 bound_to 6896
  151.1511  135.0238  159.8724 H   0  0  0  0  0  0  0  0  0  0  0  0  # atno 6909 bound_to 6896
  145.8702  140.8221  142.9892 H   0  0  0  0  0  0  0  0  0  0  0  0  # atno 7974 bound_to 7965
  156.0297  140.3331  155.7127 H   0  0  0  0  0  0  0  0  0  0  0  0  # atno 8008 bound_to 7997
  155.5902  140.0645  157.2778 H   0  0  0  0  0  0  0  0  0  0  0  0  # atno 8009 bound_to 7997
  154.4348  140.1828  156.1055 H   0  0  0  0  0  0  0  0  0  0  0  0  # atno 8010 bound_to 7997
  139.9883  144.5776  150.7840 H   0  0  0  0  0  0  0  0  0  0  0  0  # atno 10167 bound_to 10162
  157.6824  130.9989  150.2178 H   0  0  0  0  0  0  0  0  0  0  0  0  # atno 10718 bound_to 10713
  153.2664  135.6928  153.7526 H   0  0  0  0  0  0  0  0  0  0  0  0  # atno 10763 bound_to 10752
  153.6566  135.3367  155.3116 H   0  0  0  0  0  0  0  0  0  0  0  0  # atno 10764 bound_to 10752
  154.8448  135.4467  154.1671 H   0  0  0  0  0  0  0  0  0  0  0  0  # atno 10765 bound_to 10752
  140.3504  134.2235  155.7680 H   0  0  0  0  0  0  0  0  0  0  0  0  # atno 11005 bound_to 11000
  144.6726  140.1228  143.7448 LP  0  0  0  0  0  0  0  0  0  0  0  0  # atno 17320 bound_to 7965
  145.9145  139.2507  143.1418 LP  0  0  0  0  0  0  0  0  0  0  0  0  # atno 17321 bound_to 7965
  140.7464  143.2890  151.3383 LP  0  0  0  0  0  0  0  0  0  0  0  0  # atno 17342 bound_to 10162
  139.6358  144.0632  152.2515 LP  0  0  0  0  0  0  0  0  0  0  0  0  # atno 17343 bound_to 10162
  156.2835  130.3736  149.7911 LP  0  0  0  0  0  0  0  0  0  0  0  0  # atno 17370 bound_to 10713
  156.5592  130.8376  151.3323 LP  0  0  0  0  0  0  0  0  0  0  0  0  # atno 17371 bound_to 10713
  141.2013  133.7965  157.0444 LP  0  0  0  0  0  0  0  0  0  0  0  0  # atno 17394 bound_to 11000
  140.0708  134.9703  157.1463 LP  0  0  0  0  0  0  0  0  0  0  0  0  # atno 17395 bound_to 11000

$$$$
