AV-unprocessed.smi:2702|AV-procd|sdf|10432|dock2
  -GOLD-   2272014473D 1   1.00000     0.00000
 Structure written by MMmdl.
 47 48  0  0  0  0  0  0  0  0  1 V2000
  150.7229  133.1143  156.4958 C   0  0  0  0  0  0  0  0  0  0  0  0
  149.8664  133.5795  157.5236 O   0  0  0  0  0  0  0  0  0  0  0  0
  148.8925  134.4946  157.0486 C   0  0  0  0  0  0  0  0  0  0  0  0
  149.5322  135.8175  156.6741 C   0  0  0  0  0  0  0  0  0  0  0  0
  150.3141  135.9515  155.5772 C   0  0  0  0  0  0  0  0  0  0  0  0
  150.9082  137.2446  155.2370 C   0  0  0  0  0  0  0  0  0  0  0  0
  151.6240  137.4058  154.2484 O   0  0  0  0  0  0  0  0  0  0  0  0
  150.6069  138.2602  156.0989 N   0  0  0  0  0  0  0  0  0  0  0  0
  151.1198  139.6270  155.8898 C   0  0  0  0  0  0  0  0  0  0  0  0
  152.0085  140.1352  157.0356 C   0  0  0  0  0  0  0  0  0  0  0  0
  152.9168  139.4404  157.4937 O   0  0  0  0  0  0  0  0  0  0  0  0
  151.7259  141.3662  157.4874 N   0  0  0  0  0  0  0  0  0  0  0  0
  152.4434  142.0664  158.5518 C   0  0  2  0  0  0  0  0  0  0  0  0
  152.3875  141.2216  159.8388 C   0  0  0  0  0  0  0  0  0  0  0  0
  153.0865  141.9314  161.0020 C   0  0  0  0  0  0  0  0  0  0  0  0
  152.4721  143.3153  161.2371 C   0  0  0  0  0  0  0  0  0  0  0  0
  152.5365  144.1944  159.9721 C   0  0  2  0  0  0  0  0  0  0  0  0
  151.9402  145.5808  160.2781 C   0  0  0  0  0  0  0  0  0  0  0  0
  151.8562  143.4884  158.7647 C   0  0  1  0  0  0  0  0  0  0  0  0
  151.9568  144.3276  157.4717 C   0  0  0  0  0  0  0  0  0  0  0  0
  149.7800  138.0675  157.2234 C   0  0  0  0  0  0  0  0  0  0  0  0
  149.2694  136.9113  157.5051 N   0  0  0  0  0  0  0  0  0  0  0  0
  151.4466  132.4136  156.9122 H   0  0  0  0  0  0  0  0  0  0  0  0
  151.2751  133.9373  156.0401 H   0  0  0  0  0  0  0  0  0  0  0  0
  150.1608  132.5954  155.7181 H   0  0  0  0  0  0  0  0  0  0  0  0
  148.3932  134.0897  156.1671 H   0  0  0  0  0  0  0  0  0  0  0  0
  148.1295  134.6521  157.8127 H   0  0  0  0  0  0  0  0  0  0  0  0
  150.5048  135.1007  154.9396 H   0  0  0  0  0  0  0  0  0  0  0  0
  151.6849  139.6895  154.9574 H   0  0  0  0  0  0  0  0  0  0  0  0
  150.2923  140.3266  155.7606 H   0  0  0  0  0  0  0  0  0  0  0  0
  150.9610  141.8634  157.0548 H   0  0  0  0  0  0  0  0  0  0  0  0
  153.4904  142.1816  158.2635 H   0  0  0  0  0  0  0  0  0  0  0  0
  151.3493  141.0215  160.1075 H   0  0  0  0  0  0  0  0  0  0  0  0
  152.8561  140.2509  159.6721 H   0  0  0  0  0  0  0  0  0  0  0  0
  153.0065  141.3293  161.9074 H   0  0  0  0  0  0  0  0  0  0  0  0
  154.1515  142.0311  160.7877 H   0  0  0  0  0  0  0  0  0  0  0  0
  151.4353  143.2033  161.5576 H   0  0  0  0  0  0  0  0  0  0  0  0
  152.9960  143.8045  162.0591 H   0  0  0  0  0  0  0  0  0  0  0  0
  153.5902  144.3396  159.7282 H   0  0  0  0  0  0  0  0  0  0  0  0
  150.8626  145.5239  160.4350 H   0  0  0  0  0  0  0  0  0  0  0  0
  152.1270  146.2909  159.4733 H   0  0  0  0  0  0  0  0  0  0  0  0
  152.3832  146.0067  161.1788 H   0  0  0  0  0  0  0  0  0  0  0  0
  150.7963  143.3782  159.0003 H   0  0  0  0  0  0  0  0  0  0  0  0
  152.9969  144.5111  157.2007 H   0  0  0  0  0  0  0  0  0  0  0  0
  151.4622  145.2927  157.5738 H   0  0  0  0  0  0  0  0  0  0  0  0
  151.4796  143.8319  156.6264 H   0  0  0  0  0  0  0  0  0  0  0  0
  149.6003  138.9562  157.8307 H   0  0  0  0  0  0  0  0  0  0  0  0
  1  2  1  0  0  0  0
  1 23  1  0  0  0  0
  1 24  1  0  0  0  0
  1 25  1  0  0  0  0
  2  3  1  0  0  0  0
  3  4  1  0  0  0  0
  3 26  1  0  0  0  0
  3 27  1  0  0  0  0
  4 22  1  0  0  0  0
  4  5  2  0  0  0  0
  5  6  1  0  0  0  0
  5 28  1  0  0  0  0
  6  7  2  0  0  0  0
  6  8  1  0  0  0  0
  8  9  1  0  0  0  0
  8 21  1  0  0  0  0
  9 10  1  0  0  0  0
  9 29  1  0  0  0  0
  9 30  1  0  0  0  0
 10 11  2  0  0  0  0
 10 12  1  0  0  0  0
 12 13  1  0  0  0  0
 12 31  1  0  0  0  0
 13 19  1  0  0  0  0
 13 14  1  0  0  0  0
 13 32  1  0  0  0  0
 14 15  1  0  0  0  0
 14 33  1  0  0  0  0
 14 34  1  0  0  0  0
 15 16  1  0  0  0  0
 15 35  1  0  0  0  0
 15 36  1  0  0  0  0
 16 17  1  0  0  0  0
 16 37  1  0  0  0  0
 16 38  1  0  0  0  0
 17 18  1  0  0  0  0
 17 19  1  0  0  0  0
 17 39  1  0  0  0  0
 18 40  1  0  0  0  0
 18 41  1  0  0  0  0
 18 42  1  0  0  0  0
 19 20  1  0  0  0  0
 19 43  1  0  0  0  0
 20 44  1  0  0  0  0
 20 45  1  0  0  0  0
 20 46  1  0  0  0  0
 21 22  2  0  0  0  0
 21 47  1  0  0  0  0
M  END
> <s_m_source_file>
AV-unprocessed.smi

> <i_m_source_file_index>
2702

> <i_lp_mmshare_version>
43012

> <i_f3d_flags>
0

> <s_epik_input>
W0NIM11PW0NIMl1jMVtjSF1jKD1PKW4oW2NIXW4xKVtDSDJdQyg9TylbTkhdW0NAQEhdMltDSDJdW0NIMl1bQ0gyXVtDQEBIXShbQ0gzXSlbQ0BIXTJbQ0gzXQ==

> <s_epik_cmdline>
J2VwaWtfcHl0aG9uJywgJy1waCcsICc3LjAnLCAnLXRuJywgJzgnLCAnLW1hJywgJzIwMCcsICctbWV0YWxfYmluZGluZycsICctaW1hZScsICc8aW5maWxlLm1hZT4nLCAnLW9tYWUnLCAnPG91dGZpbGUubWFlPic=

> <r_lp_tautomer_probability>
1

> <r_epik_Ionization_Penalty>
1.22164e-06

> <r_epik_Ionization_Penalty_Charging>
3.17988e-07

> <r_epik_Ionization_Penalty_Neutral>
9.03656e-07

> <r_epik_State_Penalty>
-0

> <r_epik_Charging_Adjusted_Penalty>
3.17988e-07

> <i_epik_Tot_Q>
0

> <i_epik_Tot_abs_Q>
0

> <r_epik_Metal_State_Penalty>
-0

> <b_epik_Metal_Only>
0

> <s_lp_Force_Field>
OPLS_2005

> <r_lp_Energy>
18.2474

> <b_lp_Chiralities_Consistent>
1

> <s_lp_Variant>
AV-unprocessed.smi:2702-3

> <Gold.Version>
5.8.1

> <Gold.Id.Protein>
6NUR|6NUR_protein|mol2

> <Gold.PLP.Fitness>
49.5805

> <Gold.PLP.PLP>
-41.5524

> <Gold.PLP.part.hbond>
-3.0000

> <Gold.PLP.part.metal>
0.0000

> <Gold.PLP.part.buried>
-4.7712

> <Gold.PLP.part.nonpolar>
-33.6233

> <Gold.PLP.part.repulsive>
0.2512

> <Gold.PLP.ligand.clash>
0.0000

> <Gold.PLP.ligand.torsion>
0.2852

> <Gold.PLP.Chemscore.Hbond>
2.8400

> <Gold.PLP.Chemscore.CHOScore>
0.0000

> <Gold.PLP.Chemscore.Metal>
0.0000

> <Gold.Chemscore.Hbonds>
donor molecule, donor type, donor heavy atom, donor atom, acceptor molecule, acceptor atom, score
      P1  H  6896  6907       L1     2  1.00
      P1  H  7997  8010       L1    11  1.00
      P1  H 10752 10763       L1     7  0.47

> <Gold.PLP.Chemscore.Internal.Correction>
0.0785

> <Gold.Rescore>
     Score         DG    S(hbond)    S(metal)    S(lipo)     H(rot)  DE(clash)    DE(int)     intcor
     19.52     -21.47       2.33        0.00     112.19       1.93       0.54       1.40       ----

> <Gold.Chemscore.Fitness>
19.5204

> <Gold.Chemscore.DG>
-21.4677

> <Gold.Chemscore.ZeroCoef>
-5.4800

> <Gold.Chemscore.Hbond>
2.3348

> <Gold.Chemscore.Metal>
0.0000

> <Gold.Chemscore.Lipo>
112.1906

> <Gold.Chemscore.Internal_Hbond>
0.0000

> <Gold.Chemscore.DEClash>
0.5444

> <Gold.Chemscore.DEInternal>
1.4029

> <Gold.Chemscore.Rot>
1.9284

> <Gold.Chemscore.Internal.Correction>
   9.000000E+99

> <Gold.Chemscore.Hbonds>
donor molecule, donor type, donor heavy atom, donor atom, acceptor molecule, acceptor atom, score
      P1  H  6896  6907       L1     2  0.49
      P1  H  7997  8010       L1    11  0.70
      P1  H 10752 10763       L1     7  0.37

> <Gold.Chemscore.Hbond.Weighted>
-7.7982

> <Gold.Chemscore.Metal.Weighted>
-0.0000

> <Gold.Chemscore.Lipo.Weighted>
-13.1263

> <Gold.Chemscore.Internal_Hbond.Weighted>
0.0000

> <Gold.Chemscore.DEClash.Weighted>
0.5444

> <Gold.Chemscore.DEInternal.Weighted>
1.4029

> <Gold.Chemscore.Rot.Weighted>
4.9368

> <Gold.Chemscore.Internal.Correction.Weighted>
   9.000000E+99

> <Gold.Protein.RotatedTorsions>
[ 6907 6896 6895 6894 ] final -137.05 input  -60.11 | X-H torsion
[ 7974 7965 7964 7962 ] final  162.35 input  175.53 | X-H torsion
[ 8008 7997 7996 7995 ] final   44.54 input   59.86 | X-H torsion
[ 10167 10162 10161 10158 ] final  -20.99 input  -65.29 | X-H torsion
[ 10718 10713 10712 10709 ] final -121.82 input   66.30 | X-H torsion
[ 10763 10752 10751 10750 ] final   20.96 input  -60.55 | X-H torsion
[ 11005 11000 10999 10996 ] final  119.97 input  -57.11 | X-H torsion

> <Gold.Protein.ActiveResidues>
 VAL166  LYS551  ARG553  GLY616  TRP617  ASP618  TYR619  PRO620  LYS621  CYS622 
 ASP623  PHE694  ASN695  SER759  ASP760  ASP761  ALA762  ILE779  LEU786  VAL792 
 PHE793  MET794  SER795  GLU796  ALA797  LYS798  CYS799  TRP800  GLU811  SER814 

> <Gold.Protein.RotatedAtoms>
  151.0176  133.5907  159.2674 H   0  0  0  0  0  0  0  0  0  0  0  0  # atno 6907 bound_to 6896
  151.3035  135.0774  159.9257 H   0  0  0  0  0  0  0  0  0  0  0  0  # atno 6908 bound_to 6896
  152.5315  133.9853  159.7880 H   0  0  0  0  0  0  0  0  0  0  0  0  # atno 6909 bound_to 6896
  144.7641  139.8027  143.6322 H   0  0  0  0  0  0  0  0  0  0  0  0  # atno 7974 bound_to 7965
  155.3210  140.3397  155.4241 H   0  0  0  0  0  0  0  0  0  0  0  0  # atno 8008 bound_to 7997
  156.1909  140.1697  156.8131 H   0  0  0  0  0  0  0  0  0  0  0  0  # atno 8009 bound_to 7997
  154.5441  140.0719  156.8543 H   0  0  0  0  0  0  0  0  0  0  0  0  # atno 8010 bound_to 7997
  140.7279  143.4670  151.0300 H   0  0  0  0  0  0  0  0  0  0  0  0  # atno 10167 bound_to 10162
  156.1368  130.6437  150.9709 H   0  0  0  0  0  0  0  0  0  0  0  0  # atno 10718 bound_to 10713
  153.1034  135.6678  153.9630 H   0  0  0  0  0  0  0  0  0  0  0  0  # atno 10763 bound_to 10752
  153.9194  135.3016  155.3449 H   0  0  0  0  0  0  0  0  0  0  0  0  # atno 10764 bound_to 10752
  154.7455  135.5059  153.9273 H   0  0  0  0  0  0  0  0  0  0  0  0  # atno 10765 bound_to 10752
  139.9167  134.9632  156.7736 H   0  0  0  0  0  0  0  0  0  0  0  0  # atno 11005 bound_to 11000
  146.1732  139.4891  142.9914 LP  0  0  0  0  0  0  0  0  0  0  0  0  # atno 17320 bound_to 7965
  145.6526  141.0259  143.1752 LP  0  0  0  0  0  0  0  0  0  0  0  0  # atno 17321 bound_to 7965
  139.8359  143.7628  152.3180 LP  0  0  0  0  0  0  0  0  0  0  0  0  # atno 17342 bound_to 10162
  139.7760  144.7460  151.0156 LP  0  0  0  0  0  0  0  0  0  0  0  0  # atno 17343 bound_to 10162
  157.6540  131.0892  150.7989 LP  0  0  0  0  0  0  0  0  0  0  0  0  # atno 17370 bound_to 10713
  156.8068  130.4939  149.5361 LP  0  0  0  0  0  0  0  0  0  0  0  0  # atno 17371 bound_to 10713
  140.6601  133.9653  155.7800 LP  0  0  0  0  0  0  0  0  0  0  0  0  # atno 17394 bound_to 11000
  141.0649  134.0291  157.3607 LP  0  0  0  0  0  0  0  0  0  0  0  0  # atno 17395 bound_to 11000

$$$$
