AV-unprocessed.smi:1554|AV-procd|sdf|6263|dock7
  -GOLD-   22720 6453D 1   1.00000     0.00000
 Structure written by MMmdl.
 49 51  0  0  0  0  0  0  0  0  3 V2000
  152.7347  143.8467  160.0241 C   0  0  0  0  0  0  0  0  0  0  0  0
  152.1855  142.8542  159.0132 C   0  0  0  0  0  0  0  0  0  0  0  0
  151.3831  143.3416  157.9568 C   0  0  0  0  0  0  0  0  0  0  0  0
  150.8988  142.4099  157.0463 C   0  0  0  0  0  0  0  0  0  0  0  0
  150.0967  142.5673  155.9138 N   0  3  0  0  0  0  0  0  0  0  0  0
  149.8859  141.3533  155.3337 C   0  0  0  0  0  0  0  0  0  0  0  0
  150.5394  140.4227  156.0815 N   0  0  0  0  0  0  0  0  0  0  0  0
  150.6386  138.9678  155.9028 C   0  0  0  0  0  0  0  0  0  0  0  0
  149.8127  138.4517  154.7074 C   0  0  1  0  0  0  0  0  0  0  0  0
  150.4650  137.3232  154.1551 O   0  0  0  0  0  0  0  0  0  0  0  0
  148.3855  138.0539  155.1377 C   0  0  0  0  0  0  0  0  0  0  0  0
  147.5466  137.5637  154.0134 N   0  3  2  0  0  0  0  0  0  0  0  0
  146.9993  138.6466  153.1585 C   0  0  0  0  0  0  0  0  0  0  0  0
  146.1730  138.0543  152.0050 C   0  0  0  0  0  0  0  0  0  0  0  0
  145.1373  137.2343  152.5312 O   0  0  0  0  0  0  0  0  0  0  0  0
  145.6469  136.1346  153.2773 C   0  0  2  0  0  0  0  0  0  0  0  0
  144.4632  135.2670  153.7197 C   0  0  0  0  0  0  0  0  0  0  0  0
  146.4558  136.6712  154.4744 C   0  0  0  0  0  0  0  0  0  0  0  0
  151.1861  141.0357  157.1597 C   0  0  0  0  0  0  0  0  0  0  0  0
  151.9726  140.5379  158.1956 C   0  0  0  0  0  0  0  0  0  0  0  0
  152.4759  141.4702  159.1312 C   0  0  0  0  0  0  0  0  0  0  0  0
  153.3416  140.9587  160.2701 C   0  0  0  0  0  0  0  0  0  0  0  0
  152.4117  144.8642  159.8015 H   0  0  0  0  0  0  0  0  0  0  0  0
  153.8250  143.8346  160.0185 H   0  0  0  0  0  0  0  0  0  0  0  0
  152.3903  143.6008  161.0287 H   0  0  0  0  0  0  0  0  0  0  0  0
  151.1577  144.3938  157.8607 H   0  0  0  0  0  0  0  0  0  0  0  0
  149.3027  141.1631  154.4441 H   0  0  0  0  0  0  0  0  0  0  0  0
  151.6942  138.7277  155.7667 H   0  0  0  0  0  0  0  0  0  0  0  0
  150.3299  138.4846  156.8308 H   0  0  0  0  0  0  0  0  0  0  0  0
  149.7808  139.2320  153.9484 H   0  0  0  0  0  0  0  0  0  0  0  0
  150.0473  137.0959  153.3387 H   0  0  0  0  0  0  0  0  0  0  0  0
  148.4596  137.2775  155.9013 H   0  0  0  0  0  0  0  0  0  0  0  0
  147.8832  138.8979  155.6131 H   0  0  0  0  0  0  0  0  0  0  0  0
  146.3740  139.3079  153.7605 H   0  0  0  0  0  0  0  0  0  0  0  0
  147.8021  139.2555  152.7449 H   0  0  0  0  0  0  0  0  0  0  0  0
  145.7248  138.8538  151.4148 H   0  0  0  0  0  0  0  0  0  0  0  0
  146.8048  137.4761  151.3287 H   0  0  0  0  0  0  0  0  0  0  0  0
  146.2947  135.5349  152.6350 H   0  0  0  0  0  0  0  0  0  0  0  0
  144.8016  134.4019  154.2906 H   0  0  0  0  0  0  0  0  0  0  0  0
  143.9070  134.8982  152.8574 H   0  0  0  0  0  0  0  0  0  0  0  0
  143.7710  135.8317  154.3450 H   0  0  0  0  0  0  0  0  0  0  0  0
  146.8779  135.8350  155.0338 H   0  0  0  0  0  0  0  0  0  0  0  0
  145.8031  137.2175  155.1577 H   0  0  0  0  0  0  0  0  0  0  0  0
  152.1947  139.4848  158.2844 H   0  0  0  0  0  0  0  0  0  0  0  0
  153.4696  139.8769  160.2206 H   0  0  0  0  0  0  0  0  0  0  0  0
  152.8891  141.1967  161.2331 H   0  0  0  0  0  0  0  0  0  0  0  0
  154.3320  141.4131  160.2309 H   0  0  0  0  0  0  0  0  0  0  0  0
  148.1447  136.9959  153.4305 H   0  0  0  0  0  0  0  0  0  0  0  0
  149.7209  143.4377  155.5593 H   0  0  0  0  0  0  0  0  0  0  0  0
  1  2  1  0  0  0  0
  1 23  1  0  0  0  0
  1 24  1  0  0  0  0
  1 25  1  0  0  0  0
  2 21  1  0  0  0  0
  2  3  2  0  0  0  0
  3  4  1  0  0  0  0
  3 26  1  0  0  0  0
  4 19  2  0  0  0  0
  4  5  1  0  0  0  0
  5  6  2  0  0  0  0
  5 49  1  0  0  0  0
  6  7  1  0  0  0  0
  6 27  1  0  0  0  0
  7  8  1  0  0  0  0
  7 19  1  0  0  0  0
  8  9  1  0  0  0  0
  8 28  1  0  0  0  0
  8 29  1  0  0  0  0
  9 10  1  0  0  0  0
  9 11  1  0  0  0  0
  9 30  1  0  0  0  0
 10 31  1  0  0  0  0
 11 12  1  0  0  0  0
 11 32  1  0  0  0  0
 11 33  1  0  0  0  0
 12 18  1  0  0  0  0
 12 13  1  0  0  0  0
 12 48  1  0  0  0  0
 13 14  1  0  0  0  0
 13 34  1  0  0  0  0
 13 35  1  0  0  0  0
 14 15  1  0  0  0  0
 14 36  1  0  0  0  0
 14 37  1  0  0  0  0
 15 16  1  0  0  0  0
 16 17  1  0  0  0  0
 16 18  1  0  0  0  0
 16 38  1  0  0  0  0
 17 39  1  0  0  0  0
 17 40  1  0  0  0  0
 17 41  1  0  0  0  0
 18 42  1  0  0  0  0
 18 43  1  0  0  0  0
 19 20  1  0  0  0  0
 20 21  2  0  0  0  0
 20 44  1  0  0  0  0
 21 22  1  0  0  0  0
 22 45  1  0  0  0  0
 22 46  1  0  0  0  0
 22 47  1  0  0  0  0
M  CHG  1   5   1
M  CHG  1  12   1
M  END
> <s_m_source_file>
AV-unprocessed.smi

> <i_m_source_file_index>
1554

> <i_lp_mmshare_version>
43012

> <i_f3d_flags>
0

> <s_epik_input>
W0NIM11jKFtjSF0xKWMoW0NIM10pW2NIXWMoYzEyKW4oW2NIXW4yKVtDSDJdW0NASF0oW09IXSlbQ0gyXU4zW0NIMl1bQ0gyXU9bQ0BASF0oW0NIM10pW0NIMl0z

> <s_epik_cmdline>
J2VwaWtfcHl0aG9uJywgJy1waCcsICc3LjAnLCAnLXRuJywgJzgnLCAnLW1hJywgJzIwMCcsICctbWV0YWxfYmluZGluZycsICctaW1hZScsICc8aW5maWxlLm1hZT4nLCAnLW9tYWUnLCAnPG91dGZpbGUubWFlPic=

> <r_epik_Ionization_Penalty>
1.8848

> <r_epik_Ionization_Penalty_Charging>
1.88479

> <r_epik_Ionization_Penalty_Neutral>
1.42224e-05

> <r_epik_State_Penalty>
1.94551

> <r_epik_Charging_Adjusted_Penalty>
3.8303

> <i_epik_Tot_Q>
2

> <i_epik_Tot_abs_Q>
2

> <r_epik_Metal_State_Penalty>
5.95849

> <b_epik_Metal_Only>
0

> <s_lp_Force_Field>
OPLS_2005

> <r_lp_Energy>
30.4692

> <b_lp_Chiralities_Consistent>
1

> <s_lp_Variant>
AV-unprocessed.smi:1554-24

> <Gold.Version>
5.8.1

> <Gold.Id.Protein>
6NUR|6NUR_protein|mol2

> <Gold.PLP.Fitness>
53.3809

> <Gold.PLP.PLP>
-39.8975

> <Gold.PLP.part.hbond>
-3.8197

> <Gold.PLP.part.metal>
0.0000

> <Gold.PLP.part.buried>
-5.2613

> <Gold.PLP.part.nonpolar>
-33.0721

> <Gold.PLP.part.repulsive>
0.3804

> <Gold.PLP.ligand.clash>
0.0000

> <Gold.PLP.ligand.torsion>
0.6264

> <Gold.PLP.Chemscore.Hbond>
4.9000

> <Gold.PLP.Chemscore.CHOScore>
0.0000

> <Gold.PLP.Chemscore.Metal>
0.0000

> <Gold.Chemscore.Hbonds>
donor molecule, donor type, donor heavy atom, donor atom, acceptor molecule, acceptor atom, score
      L1  H     5    49       P1  8028  1.98
      L1  H    10    31       P1  7948  0.90
      L1  H    12    48       P1  7948  2.00

> <Gold.PLP.Chemscore.Internal.Correction>
0.0363

> <Gold.Rescore>
     Score         DG    S(hbond)    S(metal)    S(lipo)     H(rot)  DE(clash)    DE(int)     intcor
     19.25     -19.88       2.25        0.00     104.94       2.11       0.04       0.59       ----

> <Gold.Chemscore.Fitness>
19.2467

> <Gold.Chemscore.DG>
-19.8809

> <Gold.Chemscore.ZeroCoef>
-5.4800

> <Gold.Chemscore.Hbond>
2.2547

> <Gold.Chemscore.Metal>
0.0000

> <Gold.Chemscore.Lipo>
104.9364

> <Gold.Chemscore.Internal_Hbond>
0.0000

> <Gold.Chemscore.DEClash>
0.0438

> <Gold.Chemscore.DEInternal>
0.5904

> <Gold.Chemscore.Rot>
2.1122

> <Gold.Chemscore.Internal.Correction>
   9.000000E+99

> <Gold.Chemscore.Hbonds>
donor molecule, donor type, donor heavy atom, donor atom, acceptor molecule, acceptor atom, score
      L1  H     5    49       P1  8028  0.91
      L1  H    10    31       P1  7948  0.17
      L1  H    12    48       P1  7948  0.99

> <Gold.Chemscore.Hbond.Weighted>
-7.5306

> <Gold.Chemscore.Metal.Weighted>
-0.0000

> <Gold.Chemscore.Lipo.Weighted>
-12.2776

> <Gold.Chemscore.Internal_Hbond.Weighted>
0.0000

> <Gold.Chemscore.DEClash.Weighted>
0.0438

> <Gold.Chemscore.DEInternal.Weighted>
0.5904

> <Gold.Chemscore.Rot.Weighted>
5.4073

> <Gold.Chemscore.Internal.Correction.Weighted>
   9.000000E+99

> <Gold.Protein.RotatedTorsions>
[ 6907 6896 6895 6894 ] final   72.52 input  -60.11 | X-H torsion
[ 7974 7965 7964 7962 ] final  -91.75 input  175.53 | X-H torsion
[ 8008 7997 7996 7995 ] final   97.44 input   59.86 | X-H torsion
[ 10167 10162 10161 10158 ] final  -50.28 input  -65.29 | X-H torsion
[ 10718 10713 10712 10709 ] final  -19.77 input   66.30 | X-H torsion
[ 10763 10752 10751 10750 ] final  141.06 input  -60.55 | X-H torsion
[ 11005 11000 10999 10996 ] final   80.35 input  -57.11 | X-H torsion

> <Gold.Protein.ActiveResidues>
 VAL166  LYS551  ARG553  GLY616  TRP617  ASP618  TYR619  PRO620  LYS621  CYS622 
 ASP623  PHE694  ASN695  SER759  ASP760  ASP761  ALA762  ILE779  LEU786  VAL792 
 PHE793  MET794  SER795  GLU796  ALA797  LYS798  CYS799  TRP800  GLU811  SER814 

> <Gold.Protein.RotatedAtoms>
  152.4872  134.4559  159.9589 H   0  0  0  0  0  0  0  0  0  0  0  0  # atno 6907 bound_to 6896
  151.4553  133.3601  159.2809 H   0  0  0  0  0  0  0  0  0  0  0  0  # atno 6908 bound_to 6896
  150.8994  134.8429  159.7409 H   0  0  0  0  0  0  0  0  0  0  0  0  # atno 6909 bound_to 6896
  145.4090  140.9543  143.2245 H   0  0  0  0  0  0  0  0  0  0  0  0  # atno 7974 bound_to 7965
  156.0901  140.3258  155.7805 H   0  0  0  0  0  0  0  0  0  0  0  0  # atno 8008 bound_to 7997
  155.5011  140.0569  157.2956 H   0  0  0  0  0  0  0  0  0  0  0  0  # atno 8009 bound_to 7997
  154.4632  140.1977  156.0203 H   0  0  0  0  0  0  0  0  0  0  0  0  # atno 8010 bound_to 7997
  140.6645  143.2664  151.4337 H   0  0  0  0  0  0  0  0  0  0  0  0  # atno 10167 bound_to 10162
  156.5410  130.4678  149.6498 H   0  0  0  0  0  0  0  0  0  0  0  0  # atno 10718 bound_to 10713
  153.9330  135.2988  155.3445 H   0  0  0  0  0  0  0  0  0  0  0  0  # atno 10763 bound_to 10752
  154.7516  135.4977  153.9303 H   0  0  0  0  0  0  0  0  0  0  0  0  # atno 10764 bound_to 10752
  153.1081  135.6752  153.9654 H   0  0  0  0  0  0  0  0  0  0  0  0  # atno 10765 bound_to 10752
  139.9138  134.7914  156.1898 H   0  0  0  0  0  0  0  0  0  0  0  0  # atno 11005 bound_to 11000
  144.8322  139.5610  143.6938 LP  0  0  0  0  0  0  0  0  0  0  0  0  # atno 17320 bound_to 7965
  146.2714  139.6645  142.9293 LP  0  0  0  0  0  0  0  0  0  0  0  0  # atno 17321 bound_to 7965
  139.5889  144.1542  152.2064 LP  0  0  0  0  0  0  0  0  0  0  0  0  # atno 17342 bound_to 10162
  140.0891  144.5636  150.7067 LP  0  0  0  0  0  0  0  0  0  0  0  0  # atno 17343 bound_to 10162
  156.2971  130.7156  151.2019 LP  0  0  0  0  0  0  0  0  0  0  0  0  # atno 17370 bound_to 10713
  157.7405  131.0516  150.5161 LP  0  0  0  0  0  0  0  0  0  0  0  0  # atno 17371 bound_to 10713
  141.0591  133.6851  156.1917 LP  0  0  0  0  0  0  0  0  0  0  0  0  # atno 17394 bound_to 11000
  140.6690  134.4888  157.5586 LP  0  0  0  0  0  0  0  0  0  0  0  0  # atno 17395 bound_to 11000

$$$$
