AV-unprocessed.smi:1056|AV-procd|sdf|4644|dock3
  -GOLD-   22720 3153D 1   1.00000     0.00000
 Structure written by MMmdl.
 44 46  0  0  0  0  0  0  0  0  3 V2000
  152.4925  143.3472  162.0085 C   0  0  0  0  0  0  0  0  0  0  0  0
  152.0236  142.9215  160.6281 C   0  0  0  0  0  0  0  0  0  0  0  0
  152.1124  141.5597  160.2611 C   0  0  0  0  0  0  0  0  0  0  0  0
  151.6878  141.1237  158.9868 C   0  0  0  0  0  0  0  0  0  0  0  0
  151.6883  139.8599  158.4214 N   0  0  0  0  0  0  0  0  0  0  0  0
  151.1748  140.1029  157.2193 C   0  0  0  0  0  0  0  0  0  0  0  0
  150.8441  141.3774  156.9366 N   0  0  0  0  0  0  0  0  0  0  0  0
  150.2767  141.8786  155.6975 C   0  0  0  0  0  0  0  0  0  0  0  0
  149.4390  140.8169  154.9593 C   0  0  2  0  0  0  0  0  0  0  0  0
  150.2360  140.1908  153.9722 O   0  0  0  0  0  0  0  0  0  0  0  0
  148.2100  141.4423  154.2720 C   0  0  0  0  0  0  0  0  0  0  0  0
  147.3007  142.1132  155.2346 N   0  3  1  0  0  0  0  0  0  0  0  0
  146.0030  142.5302  154.6409 C   0  0  0  0  0  0  0  0  0  0  0  0
  145.2541  143.4739  155.6016 C   0  0  0  0  0  0  0  0  0  0  0  0
  145.2536  142.9231  156.9623 N   0  5  0  0  0  0  0  0  0  0  0  0
  146.1450  142.0177  157.4739 C   0  0  0  0  0  0  0  0  0  0  0  0
  146.2202  141.6785  158.6527 O   0  0  0  0  0  0  0  0  0  0  0  0
  147.1089  141.3175  156.4785 C   0  0  0  0  0  0  0  0  0  0  0  0
  151.1656  142.0951  158.0837 C   0  0  0  0  0  0  0  0  0  0  0  0
  151.0711  143.4526  158.4373 C   0  0  0  0  0  0  0  0  0  0  0  0
  151.5025  143.8715  159.7132 C   0  0  0  0  0  0  0  0  0  0  0  0
  151.4027  145.3408  160.0833 C   0  0  0  0  0  0  0  0  0  0  0  0
  152.8751  142.5000  162.5783 H   0  0  0  0  0  0  0  0  0  0  0  0
  151.6692  143.7856  162.5729 H   0  0  0  0  0  0  0  0  0  0  0  0
  153.2910  144.0852  161.9304 H   0  0  0  0  0  0  0  0  0  0  0  0
  152.5099  140.8362  160.9575 H   0  0  0  0  0  0  0  0  0  0  0  0
  151.0322  139.3088  156.5009 H   0  0  0  0  0  0  0  0  0  0  0  0
  149.6594  142.7466  155.9325 H   0  0  0  0  0  0  0  0  0  0  0  0
  151.0881  142.2383  155.0630 H   0  0  0  0  0  0  0  0  0  0  0  0
  149.1298  140.0576  155.6771 H   0  0  0  0  0  0  0  0  0  0  0  0
  149.8084  140.2877  153.1342 H   0  0  0  0  0  0  0  0  0  0  0  0
  148.5175  142.1605  153.5105 H   0  0  0  0  0  0  0  0  0  0  0  0
  147.6704  140.6535  153.7453 H   0  0  0  0  0  0  0  0  0  0  0  0
  146.1524  143.0401  153.6901 H   0  0  0  0  0  0  0  0  0  0  0  0
  145.4001  141.6454  154.4297 H   0  0  0  0  0  0  0  0  0  0  0  0
  145.7419  144.4487  155.5805 H   0  0  0  0  0  0  0  0  0  0  0  0
  144.2435  143.6396  155.2289 H   0  0  0  0  0  0  0  0  0  0  0  0
  146.7046  140.3344  156.2324 H   0  0  0  0  0  0  0  0  0  0  0  0
  148.0726  141.1620  156.9655 H   0  0  0  0  0  0  0  0  0  0  0  0
  150.6738  144.1660  157.7304 H   0  0  0  0  0  0  0  0  0  0  0  0
  150.9767  145.9282  159.2694 H   0  0  0  0  0  0  0  0  0  0  0  0
  152.3900  145.7459  160.3062 H   0  0  0  0  0  0  0  0  0  0  0  0
  150.7672  145.4728  160.9593 H   0  0  0  0  0  0  0  0  0  0  0  0
  147.7659  142.9618  155.5244 H   0  0  0  0  0  0  0  0  0  0  0  0
  1  2  1  0  0  0  0
  1 23  1  0  0  0  0
  1 24  1  0  0  0  0
  1 25  1  0  0  0  0
  2 21  1  0  0  0  0
  2  3  2  0  0  0  0
  3  4  1  0  0  0  0
  3 26  1  0  0  0  0
  4 19  2  0  0  0  0
  4  5  1  0  0  0  0
  5  6  2  0  0  0  0
  6  7  1  0  0  0  0
  6 27  1  0  0  0  0
  7  8  1  0  0  0  0
  7 19  1  0  0  0  0
  8  9  1  0  0  0  0
  8 28  1  0  0  0  0
  8 29  1  0  0  0  0
  9 10  1  0  0  0  0
  9 11  1  0  0  0  0
  9 30  1  0  0  0  0
 10 31  1  0  0  0  0
 11 12  1  0  0  0  0
 11 32  1  0  0  0  0
 11 33  1  0  0  0  0
 12 18  1  0  0  0  0
 12 13  1  0  0  0  0
 12 44  1  0  0  0  0
 13 14  1  0  0  0  0
 13 34  1  0  0  0  0
 13 35  1  0  0  0  0
 14 15  1  0  0  0  0
 14 36  1  0  0  0  0
 14 37  1  0  0  0  0
 15 16  1  0  0  0  0
 16 17  2  0  0  0  0
 16 18  1  0  0  0  0
 18 38  1  0  0  0  0
 18 39  1  0  0  0  0
 19 20  1  0  0  0  0
 20 21  2  0  0  0  0
 20 40  1  0  0  0  0
 21 22  1  0  0  0  0
 22 41  1  0  0  0  0
 22 42  1  0  0  0  0
 22 43  1  0  0  0  0
M  CHG  1  12   1
M  CHG  1  15  -1
M  END
> <s_m_source_file>
AV-unprocessed.smi

> <i_m_source_file_index>
1056

> <i_lp_mmshare_version>
43012

> <i_f3d_flags>
0

> <s_epik_input>
W0NIM11jKFtjSF0xKWMoW0NIM10pW2NIXWMoYzEyKW4oW2NIXW4yKVtDSDJdW0NASF0oW09IXSlbQ0gyXU4zW0NIMl1bQ0gyXVtOSF1DKD1PKVtDSDJdMw==

> <s_epik_cmdline>
J2VwaWtfcHl0aG9uJywgJy1waCcsICc3LjAnLCAnLXRuJywgJzgnLCAnLW1hJywgJzIwMCcsICctbWV0YWxfYmluZGluZycsICctaW1hZScsICc8aW5maWxlLm1hZT4nLCAnLW9tYWUnLCAnPG91dGZpbGUubWFlPic=

> <r_epik_Ionization_Penalty>
5.13411

> <r_epik_Ionization_Penalty_Charging>
5.04792

> <r_epik_Ionization_Penalty_Neutral>
0.0861879

> <r_epik_State_Penalty>
5.18224

> <r_epik_Charging_Adjusted_Penalty>
10.2302

> <i_epik_Tot_Q>
0

> <i_epik_Tot_abs_Q>
2

> <r_epik_Metal_State_Penalty>
1.33873

> <b_epik_Metal_Only>
1

> <s_lp_Force_Field>
OPLS_2005

> <r_lp_Energy>
16.7981

> <b_lp_Chiralities_Consistent>
1

> <s_lp_Variant>
AV-unprocessed.smi:1056-15

> <Gold.Version>
5.8.1

> <Gold.Id.Protein>
6NUR|6NUR_protein|mol2

> <Gold.PLP.Fitness>
58.2627

> <Gold.PLP.PLP>
-46.5320

> <Gold.PLP.part.hbond>
-3.9964

> <Gold.PLP.part.metal>
0.0000

> <Gold.PLP.part.buried>
-7.5650

> <Gold.PLP.part.nonpolar>
-35.8861

> <Gold.PLP.part.repulsive>
0.1774

> <Gold.PLP.ligand.clash>
0.0000

> <Gold.PLP.ligand.torsion>
0.9655

> <Gold.PLP.Chemscore.Hbond>
4.5120

> <Gold.PLP.Chemscore.CHOScore>
0.0000

> <Gold.PLP.Chemscore.Metal>
0.0000

> <Gold.Chemscore.Hbonds>
donor molecule, donor type, donor heavy atom, donor atom, acceptor molecule, acceptor atom, score
      L1  H    10    31       P1  7957  1.00
      L1  H    12    44       P1  8028  1.85
      P1  H  6934  6946       L1    17  0.23
      P1  H  7989  7998       L1    10  0.64

> <Gold.PLP.Chemscore.Internal.Correction>
0.1256

> <Gold.Rescore>
     Score         DG    S(hbond)    S(metal)    S(lipo)     H(rot)  DE(clash)    DE(int)     intcor
     19.95     -20.99       2.59        0.00     109.12       2.31       0.03       1.01       ----

> <Gold.Chemscore.Fitness>
19.9480

> <Gold.Chemscore.DG>
-20.9871

> <Gold.Chemscore.ZeroCoef>
-5.4800

> <Gold.Chemscore.Hbond>
2.5944

> <Gold.Chemscore.Metal>
0.0000

> <Gold.Chemscore.Lipo>
109.1238

> <Gold.Chemscore.Internal_Hbond>
0.0000

> <Gold.Chemscore.DEClash>
0.0255

> <Gold.Chemscore.DEInternal>
1.0136

> <Gold.Chemscore.Rot>
2.3147

> <Gold.Chemscore.Internal.Correction>
   9.000000E+99

> <Gold.Chemscore.Hbonds>
donor molecule, donor type, donor heavy atom, donor atom, acceptor molecule, acceptor atom, score
      L1  H    10    31       P1  7957  0.95
      L1  H    12    44       P1  8028  0.53
      P1  H  6934  6946       L1    17  0.23
      P1  H  7989  7998       L1    10  0.06

> <Gold.Chemscore.Hbond.Weighted>
-8.6652

> <Gold.Chemscore.Metal.Weighted>
-0.0000

> <Gold.Chemscore.Lipo.Weighted>
-12.7675

> <Gold.Chemscore.Internal_Hbond.Weighted>
0.0000

> <Gold.Chemscore.DEClash.Weighted>
0.0255

> <Gold.Chemscore.DEInternal.Weighted>
1.0136

> <Gold.Chemscore.Rot.Weighted>
5.9256

> <Gold.Chemscore.Internal.Correction.Weighted>
   9.000000E+99

> <Gold.Protein.RotatedTorsions>
[ 6907 6896 6895 6894 ] final   48.90 input  -60.11 | X-H torsion
[ 7974 7965 7964 7962 ] final   76.36 input  175.53 | X-H torsion
[ 8008 7997 7996 7995 ] final -101.90 input   59.86 | X-H torsion
[ 10167 10162 10161 10158 ] final  -77.60 input  -65.29 | X-H torsion
[ 10718 10713 10712 10709 ] final  122.10 input   66.30 | X-H torsion
[ 10763 10752 10751 10750 ] final  154.27 input  -60.55 | X-H torsion
[ 11005 11000 10999 10996 ] final   60.31 input  -57.11 | X-H torsion

> <Gold.Protein.ActiveResidues>
 VAL166  LYS551  ARG553  GLY616  TRP617  ASP618  TYR619  PRO620  LYS621  CYS622 
 ASP623  PHE694  ASN695  SER759  ASP760  ASP761  ALA762  ILE779  LEU786  VAL792 
 PHE793  MET794  SER795  GLU796  ALA797  LYS798  CYS799  TRP800  GLU811  SER814 

> <Gold.Protein.RotatedAtoms>
  152.2847  134.7789  160.0389 H   0  0  0  0  0  0  0  0  0  0  0  0  # atno 6907 bound_to 6896
  151.8356  133.3410  159.3635 H   0  0  0  0  0  0  0  0  0  0  0  0  # atno 6908 bound_to 6896
  150.7204  134.5370  159.5772 H   0  0  0  0  0  0  0  0  0  0  0  0  # atno 6909 bound_to 6896
  145.7039  139.2592  143.1689 H   0  0  0  0  0  0  0  0  0  0  0  0  # atno 7974 bound_to 7965
  154.8490  140.0431  157.1592 H   0  0  0  0  0  0  0  0  0  0  0  0  # atno 8008 bound_to 7997
  154.8963  140.2994  155.5322 H   0  0  0  0  0  0  0  0  0  0  0  0  # atno 8009 bound_to 7997
  156.2995  140.2384  156.3985 H   0  0  0  0  0  0  0  0  0  0  0  0  # atno 8010 bound_to 7997
  140.4755  143.2415  151.8138 H   0  0  0  0  0  0  0  0  0  0  0  0  # atno 10167 bound_to 10162
  157.5768  131.1078  150.8264 H   0  0  0  0  0  0  0  0  0  0  0  0  # atno 10718 bound_to 10713
  154.1497  135.2816  155.3138 H   0  0  0  0  0  0  0  0  0  0  0  0  # atno 10763 bound_to 10752
  154.6226  135.5462  153.7595 H   0  0  0  0  0  0  0  0  0  0  0  0  # atno 10764 bound_to 10752
  153.0225  135.6443  154.1641 H   0  0  0  0  0  0  0  0  0  0  0  0  # atno 10765 bound_to 10752
  140.0241  134.6110  155.9598 H   0  0  0  0  0  0  0  0  0  0  0  0  # atno 11005 bound_to 11000
  146.0773  140.7803  142.9658 LP  0  0  0  0  0  0  0  0  0  0  0  0  # atno 17320 bound_to 7965
  144.6961  140.3435  143.7195 LP  0  0  0  0  0  0  0  0  0  0  0  0  # atno 17321 bound_to 7965
  139.4825  144.4838  151.9273 LP  0  0  0  0  0  0  0  0  0  0  0  0  # atno 17342 bound_to 10162
  140.3923  144.2599  150.5899 LP  0  0  0  0  0  0  0  0  0  0  0  0  # atno 17343 bound_to 10162
  156.8721  130.5150  149.5296 LP  0  0  0  0  0  0  0  0  0  0  0  0  # atno 17370 bound_to 10713
  156.0812  130.5822  150.9567 LP  0  0  0  0  0  0  0  0  0  0  0  0  # atno 17371 bound_to 10713
  141.1792  133.6544  156.4949 LP  0  0  0  0  0  0  0  0  0  0  0  0  # atno 17394 bound_to 11000
  140.4337  134.7078  157.4955 LP  0  0  0  0  0  0  0  0  0  0  0  0  # atno 17395 bound_to 11000

$$$$
