AV-unprocessed.smi:2779|AV-procd|sdf|10712|dock5
  -GOLD-   2272015153D 1   1.00000     0.00000
 Structure written by MMmdl.
 38 39  0  0  0  0  0  0  0  0  1 V2000
  151.5821  135.6657  155.8524 O   0  0  0  0  0  0  0  0  0  0  0  0
  150.6432  136.3900  155.5232 C   0  0  0  0  0  0  0  0  0  0  0  0
  149.2449  135.9761  155.6101 C   0  0  0  0  0  0  0  0  0  0  0  0
  148.2369  136.7971  155.2457 C   0  0  0  0  0  0  0  0  0  0  0  0
  148.5419  138.1291  154.7506 C   0  0  0  0  0  0  0  0  0  0  0  0
  147.4884  139.1200  154.3205 C   0  0  0  0  0  0  0  0  0  0  0  0
  146.6587  139.4047  155.3247 F   0  0  0  0  0  0  0  0  0  0  0  0
  148.0630  140.2519  153.9124 F   0  0  0  0  0  0  0  0  0  0  0  0
  146.7751  138.6203  153.3109 F   0  0  0  0  0  0  0  0  0  0  0  0
  149.7788  138.5008  154.6689 N   0  0  0  0  0  0  0  0  0  0  0  0
  150.8106  137.6572  155.0451 N   0  0  0  0  0  0  0  0  0  0  0  0
  152.1458  138.2519  154.9155 C   0  0  0  0  0  0  0  0  0  0  0  0
  152.2334  139.6206  155.6264 C   0  0  1  0  0  0  0  0  0  0  0  0
  151.2442  140.4815  155.0985 O   0  0  0  0  0  0  0  0  0  0  0  0
  151.9733  139.5135  157.1369 C   0  0  0  0  0  0  0  0  0  0  0  0
  152.6839  140.5427  157.8058 O   0  0  0  0  0  0  0  0  0  0  0  0
  152.9813  140.2207  159.1535 C   0  0  0  0  0  0  0  0  0  0  0  0
  152.8588  141.4368  160.0484 C   0  0  0  0  0  0  0  0  0  0  0  0
  152.2980  142.6283  159.5433 C   0  0  0  0  0  0  0  0  0  0  0  0
  152.1818  143.7620  160.3710 C   0  0  0  0  0  0  0  0  0  0  0  0
  152.6234  143.7069  161.7073 C   0  0  0  0  0  0  0  0  0  0  0  0
  153.1808  142.5176  162.2156 C   0  0  0  0  0  0  0  0  0  0  0  0
  153.2985  141.3838  161.3878 C   0  0  0  0  0  0  0  0  0  0  0  0
  153.2117  140.0773  155.4692 H   0  0  0  0  0  0  0  0  0  0  0  0
  149.0137  134.9869  155.9773 H   0  0  0  0  0  0  0  0  0  0  0  0
  147.2107  136.4693  155.3199 H   0  0  0  0  0  0  0  0  0  0  0  0
  152.9332  137.5776  155.2579 H   0  0  0  0  0  0  0  0  0  0  0  0
  152.3434  138.3841  153.8501 H   0  0  0  0  0  0  0  0  0  0  0  0
  150.9933  141.0984  155.7689 H   0  0  0  0  0  0  0  0  0  0  0  0
  150.9067  139.6260  157.3401 H   0  0  0  0  0  0  0  0  0  0  0  0
  152.2776  138.5342  157.5106 H   0  0  0  0  0  0  0  0  0  0  0  0
  152.3090  139.4370  159.5066 H   0  0  0  0  0  0  0  0  0  0  0  0
  153.9972  139.8297  159.2303 H   0  0  0  0  0  0  0  0  0  0  0  0
  151.9559  142.6747  158.5197 H   0  0  0  0  0  0  0  0  0  0  0  0
  151.7539  144.6739  159.9810 H   0  0  0  0  0  0  0  0  0  0  0  0
  152.5342  144.5763  162.3420 H   0  0  0  0  0  0  0  0  0  0  0  0
  153.5178  142.4747  163.2408 H   0  0  0  0  0  0  0  0  0  0  0  0
  153.7259  140.4746  161.7847 H   0  0  0  0  0  0  0  0  0  0  0  0
  1  2  2  0  0  0  0
  2 11  1  0  0  0  0
  2  3  1  0  0  0  0
  3  4  2  0  0  0  0
  3 25  1  0  0  0  0
  4  5  1  0  0  0  0
  4 26  1  0  0  0  0
  5  6  1  0  0  0  0
  5 10  2  0  0  0  0
  6  7  1  0  0  0  0
  6  8  1  0  0  0  0
  6  9  1  0  0  0  0
 10 11  1  0  0  0  0
 11 12  1  0  0  0  0
 12 13  1  0  0  0  0
 12 27  1  0  0  0  0
 12 28  1  0  0  0  0
 13 24  1  0  0  0  0
 13 14  1  0  0  0  0
 13 15  1  0  0  0  0
 14 29  1  0  0  0  0
 15 16  1  0  0  0  0
 15 30  1  0  0  0  0
 15 31  1  0  0  0  0
 16 17  1  0  0  0  0
 17 18  1  0  0  0  0
 17 32  1  0  0  0  0
 17 33  1  0  0  0  0
 18 23  1  0  0  0  0
 18 19  2  0  0  0  0
 19 20  1  0  0  0  0
 19 34  1  0  0  0  0
 20 21  2  0  0  0  0
 20 35  1  0  0  0  0
 21 22  1  0  0  0  0
 21 36  1  0  0  0  0
 22 23  2  0  0  0  0
 22 37  1  0  0  0  0
 23 38  1  0  0  0  0
M  END
> <s_m_source_file>
AV-unprocessed.smi

> <i_m_source_file_index>
2779

> <i_lp_mmshare_version>
43012

> <i_f3d_flags>
0

> <s_epik_input>
Tz1jMVtjSF1bY0hdYyhDKEYpKEYpRilubjFbQ0gyXVtDQEhdKFtPSF0pW0NIMl1PW0NIMl1jMltjSF1bY0hdW2NIXVtjSF1bY0hdMg==

> <s_epik_cmdline>
J2VwaWtfcHl0aG9uJywgJy1waCcsICc3LjAnLCAnLXRuJywgJzgnLCAnLW1hJywgJzIwMCcsICctbWV0YWxfYmluZGluZycsICctaW1hZScsICc8aW5maWxlLm1hZT4nLCAnLW9tYWUnLCAnPG91dGZpbGUubWFlPic=

> <r_lp_tautomer_probability>
1

> <r_epik_Ionization_Penalty>
6.7226e-08

> <r_epik_Ionization_Penalty_Charging>
6.11342e-09

> <r_epik_Ionization_Penalty_Neutral>
6.11126e-08

> <r_epik_State_Penalty>
-0

> <r_epik_Charging_Adjusted_Penalty>
6.11342e-09

> <i_epik_Tot_Q>
0

> <i_epik_Tot_abs_Q>
0

> <r_epik_Metal_State_Penalty>
-0

> <b_epik_Metal_Only>
0

> <s_lp_Force_Field>
OPLS_2005

> <r_lp_Energy>
32.3095

> <b_lp_Chiralities_Consistent>
1

> <s_lp_Variant>
AV-unprocessed.smi:2779-2

> <Gold.Version>
5.8.1

> <Gold.Id.Protein>
6NUR|6NUR_protein|mol2

> <Gold.PLP.Fitness>
48.3698

> <Gold.PLP.PLP>
-42.5902

> <Gold.PLP.part.hbond>
-3.0000

> <Gold.PLP.part.metal>
0.0000

> <Gold.PLP.part.buried>
-2.7069

> <Gold.PLP.part.nonpolar>
-36.7721

> <Gold.PLP.part.repulsive>
0.2153

> <Gold.PLP.ligand.clash>
0.0000

> <Gold.PLP.ligand.torsion>
0.9010

> <Gold.PLP.Chemscore.Hbond>
2.4761

> <Gold.PLP.Chemscore.CHOScore>
0.0000

> <Gold.PLP.Chemscore.Metal>
0.0000

> <Gold.Chemscore.Hbonds>
donor molecule, donor type, donor heavy atom, donor atom, acceptor molecule, acceptor atom, score
      P1  H  7989  7998       L1    14  0.96
      P1  H  7997  8008       L1    16  0.48
      P1  H 10752 10765       L1     1  1.00

> <Gold.PLP.Chemscore.Internal.Correction>
0.1532

> <Gold.Rescore>
     Score         DG    S(hbond)    S(metal)    S(lipo)     H(rot)  DE(clash)    DE(int)     intcor
     16.20     -16.88       1.86        0.00     105.60       2.80       0.00       0.68       ----

> <Gold.Chemscore.Fitness>
16.1970

> <Gold.Chemscore.DG>
-16.8782

> <Gold.Chemscore.ZeroCoef>
-5.4800

> <Gold.Chemscore.Hbond>
1.8612

> <Gold.Chemscore.Metal>
0.0000

> <Gold.Chemscore.Lipo>
105.6026

> <Gold.Chemscore.Internal_Hbond>
0.0000

> <Gold.Chemscore.DEClash>
0.0000

> <Gold.Chemscore.DEInternal>
0.6813

> <Gold.Chemscore.Rot>
2.8022

> <Gold.Chemscore.Internal.Correction>
   9.000000E+99

> <Gold.Chemscore.Hbonds>
donor molecule, donor type, donor heavy atom, donor atom, acceptor molecule, acceptor atom, score
      P1  H  7989  7998       L1    14  0.64
      P1  H  7997  8008       L1    16  0.01
      P1  H 10752 10765       L1     1  0.98

> <Gold.Chemscore.Hbond.Weighted>
-6.2163

> <Gold.Chemscore.Metal.Weighted>
-0.0000

> <Gold.Chemscore.Lipo.Weighted>
-12.3555

> <Gold.Chemscore.Internal_Hbond.Weighted>
0.0000

> <Gold.Chemscore.DEClash.Weighted>
0.0000

> <Gold.Chemscore.DEInternal.Weighted>
0.6813

> <Gold.Chemscore.Rot.Weighted>
7.1736

> <Gold.Chemscore.Internal.Correction.Weighted>
   9.000000E+99

> <Gold.Protein.RotatedTorsions>
[ 6907 6896 6895 6894 ] final  -92.27 input  -60.11 | X-H torsion
[ 7974 7965 7964 7962 ] final -140.12 input  175.53 | X-H torsion
[ 8008 7997 7996 7995 ] final  -80.58 input   59.86 | X-H torsion
[ 10167 10162 10161 10158 ] final  -78.81 input  -65.29 | X-H torsion
[ 10718 10713 10712 10709 ] final  166.79 input   66.30 | X-H torsion
[ 10763 10752 10751 10750 ] final -165.74 input  -60.55 | X-H torsion
[ 11005 11000 10999 10996 ] final -122.79 input  -57.11 | X-H torsion

> <Gold.Protein.ActiveResidues>
 VAL166  LYS551  ARG553  GLY616  TRP617  ASP618  TYR619  PRO620  LYS621  CYS622 
 ASP623  PHE694  ASN695  SER759  ASP760  ASP761  ALA762  ILE779  LEU786  VAL792 
 PHE793  MET794  SER795  GLU796  ALA797  LYS798  CYS799  TRP800  GLU811  SER814 

> <Gold.Protein.RotatedAtoms>
  150.6904  134.2147  159.4372 H   0  0  0  0  0  0  0  0  0  0  0  0  # atno 6907 bound_to 6896
  152.0107  134.9875  160.0577 H   0  0  0  0  0  0  0  0  0  0  0  0  # atno 6908 bound_to 6896
  152.1491  133.4476  159.4841 H   0  0  0  0  0  0  0  0  0  0  0  0  # atno 6909 bound_to 6896
  144.8622  140.6237  143.5321 H   0  0  0  0  0  0  0  0  0  0  0  0  # atno 7974 bound_to 7965
  154.5898  140.0660  156.9222 H   0  0  0  0  0  0  0  0  0  0  0  0  # atno 8008 bound_to 7997
  155.2316  140.3338  155.4284 H   0  0  0  0  0  0  0  0  0  0  0  0  # atno 8009 bound_to 7997
  156.2248  140.1814  156.7375 H   0  0  0  0  0  0  0  0  0  0  0  0  # atno 8010 bound_to 7997
  140.4649  143.2443  151.8293 H   0  0  0  0  0  0  0  0  0  0  0  0  # atno 10167 bound_to 10162
  157.0608  131.0339  151.2647 H   0  0  0  0  0  0  0  0  0  0  0  0  # atno 10718 bound_to 10713
  154.6902  135.2969  154.9491 H   0  0  0  0  0  0  0  0  0  0  0  0  # atno 10763 bound_to 10752
  154.0457  135.6651  153.4799 H   0  0  0  0  0  0  0  0  0  0  0  0  # atno 10764 bound_to 10752
  153.0606  135.5118  154.7990 H   0  0  0  0  0  0  0  0  0  0  0  0  # atno 10765 bound_to 10752
  140.9968  134.0459  157.3587 H   0  0  0  0  0  0  0  0  0  0  0  0  # atno 11005 bound_to 11000
  145.4290  139.1552  143.4032 LP  0  0  0  0  0  0  0  0  0  0  0  0  # atno 17320 bound_to 7965
  146.2869  140.4405  142.8754 LP  0  0  0  0  0  0  0  0  0  0  0  0  # atno 17321 bound_to 7965
  139.4811  144.4963  151.9120 LP  0  0  0  0  0  0  0  0  0  0  0  0  # atno 17342 bound_to 10162
  140.4048  144.2446  150.5891 LP  0  0  0  0  0  0  0  0  0  0  0  0  # atno 17343 bound_to 10162
  157.4956  130.7848  149.7552 LP  0  0  0  0  0  0  0  0  0  0  0  0  # atno 17370 bound_to 10713
  155.9979  130.3897  150.2723 LP  0  0  0  0  0  0  0  0  0  0  0  0  # atno 17371 bound_to 10713
  139.9019  135.0167  156.7308 LP  0  0  0  0  0  0  0  0  0  0  0  0  # atno 17394 bound_to 11000
  140.6952  133.9355  155.7990 LP  0  0  0  0  0  0  0  0  0  0  0  0  # atno 17395 bound_to 11000

$$$$
