AV-unprocessed.smi:2072|AV-procd|sdf|8449|dock2
  -GOLD-   2272011143D 1   1.00000     0.00000
 Structure written by MMmdl.
 40 42  0  0  0  0  0  0  0  0  2 V2000
  145.6488  138.0883  154.0238 O   0  0  0  0  0  0  0  0  0  0  0  0
  146.6362  137.5508  153.5248 C   0  0  0  0  0  0  0  0  0  0  0  0
  147.8741  138.0732  153.4780 N   0  0  0  0  0  0  0  0  0  0  0  0
  148.3460  139.3238  153.9653 C   0  0  0  0  0  0  0  0  0  0  0  0
  147.5839  140.5175  154.0132 C   0  0  0  0  0  0  0  0  0  0  0  0
  148.1840  141.6882  154.5160 C   0  0  0  0  0  0  0  0  0  0  0  0
  149.5226  141.6269  154.9484 C   0  0  0  0  0  0  0  0  0  0  0  0
  150.2631  140.4999  154.9025 N   0  0  0  0  0  0  0  0  0  0  0  0
  149.6813  139.3818  154.4194 C   0  0  0  0  0  0  0  0  0  0  0  0
  146.6035  136.3365  152.9577 N   0  0  0  0  0  0  0  0  0  0  0  0
  145.4148  135.4973  152.8356 C   0  0  1  0  0  0  0  0  0  0  0  0
  144.1440  136.2959  152.5716 C   0  0  0  0  0  0  0  0  0  0  0  0
  143.2006  135.2295  152.0114 C   0  0  0  0  0  0  0  0  0  0  0  0
  144.0553  134.2772  151.2646 N   0  3  2  0  0  0  0  0  0  0  0  0
  143.6281  132.8601  151.3655 C   0  0  0  0  0  0  0  0  0  0  0  0
  144.5516  131.9479  150.5360 C   0  0  0  0  0  0  0  0  0  0  0  0
  146.0509  132.2131  150.7865 C   0  0  0  0  0  0  0  0  0  0  0  0
  146.2826  133.2515  151.8942 C   0  0  0  0  0  0  0  0  0  0  0  0
  145.4759  134.5437  151.6302 C   0  0  2  0  0  0  0  0  0  0  0  0
  148.5820  137.4870  153.0602 H   0  0  0  0  0  0  0  0  0  0  0  0
  146.5625  140.5712  153.6726 H   0  0  0  0  0  0  0  0  0  0  0  0
  147.6302  142.6138  154.5667 H   0  0  0  0  0  0  0  0  0  0  0  0
  150.0118  142.5069  155.3389 H   0  0  0  0  0  0  0  0  0  0  0  0
  150.3056  138.5005  154.3964 H   0  0  0  0  0  0  0  0  0  0  0  0
  147.4622  135.9693  152.5743 H   0  0  0  0  0  0  0  0  0  0  0  0
  145.2623  134.9239  153.7530 H   0  0  0  0  0  0  0  0  0  0  0  0
  143.7511  136.7801  153.4662 H   0  0  0  0  0  0  0  0  0  0  0  0
  144.3247  137.0658  151.8197 H   0  0  0  0  0  0  0  0  0  0  0  0
  142.7058  134.7176  152.8386 H   0  0  0  0  0  0  0  0  0  0  0  0
  142.4257  135.6531  151.3723 H   0  0  0  0  0  0  0  0  0  0  0  0
  143.6360  132.5492  152.4115 H   0  0  0  0  0  0  0  0  0  0  0  0
  142.5990  132.7631  151.0184 H   0  0  0  0  0  0  0  0  0  0  0  0
  144.3175  130.9054  150.7547 H   0  0  0  0  0  0  0  0  0  0  0  0
  144.3389  132.0858  149.4751 H   0  0  0  0  0  0  0  0  0  0  0  0
  146.5616  131.2825  151.0355 H   0  0  0  0  0  0  0  0  0  0  0  0
  146.5094  132.5714  149.8640 H   0  0  0  0  0  0  0  0  0  0  0  0
  145.9999  132.8205  152.8558 H   0  0  0  0  0  0  0  0  0  0  0  0
  147.3458  133.4810  151.9676 H   0  0  0  0  0  0  0  0  0  0  0  0
  145.9120  135.0669  150.7774 H   0  0  0  0  0  0  0  0  0  0  0  0
  143.9774  134.5249  150.2884 H   0  0  0  0  0  0  0  0  0  0  0  0
  1  2  2  0  0  0  0
  2  3  1  0  0  0  0
  2 10  1  0  0  0  0
  3  4  1  0  0  0  0
  3 20  1  0  0  0  0
  4  9  1  0  0  0  0
  4  5  2  0  0  0  0
  5  6  1  0  0  0  0
  5 21  1  0  0  0  0
  6  7  2  0  0  0  0
  6 22  1  0  0  0  0
  7  8  1  0  0  0  0
  7 23  1  0  0  0  0
  8  9  2  0  0  0  0
  9 24  1  0  0  0  0
 10 11  1  0  0  0  0
 10 25  1  0  0  0  0
 11 19  1  0  0  0  0
 11 12  1  0  0  0  0
 11 26  1  0  0  0  0
 12 13  1  0  0  0  0
 12 27  1  0  0  0  0
 12 28  1  0  0  0  0
 13 14  1  0  0  0  0
 13 29  1  0  0  0  0
 13 30  1  0  0  0  0
 14 19  1  0  0  0  0
 14 15  1  0  0  0  0
 14 40  1  0  0  0  0
 15 16  1  0  0  0  0
 15 31  1  0  0  0  0
 15 32  1  0  0  0  0
 16 17  1  0  0  0  0
 16 33  1  0  0  0  0
 16 34  1  0  0  0  0
 17 18  1  0  0  0  0
 17 35  1  0  0  0  0
 17 36  1  0  0  0  0
 18 19  1  0  0  0  0
 18 37  1  0  0  0  0
 18 38  1  0  0  0  0
 19 39  1  0  0  0  0
M  CHG  1  14   1
M  END
> <s_m_source_file>
AV-unprocessed.smi

> <i_m_source_file_index>
2072

> <i_lp_mmshare_version>
43012

> <i_f3d_flags>
0

> <s_epik_input>
W0NIMl0xW0NIMl1bQ0gyXVtDSDJdW0NASF0oTjEyKVtDQEBIXShbQ0gyXVtDSDJdMilbTkhdQyg9TylbTkhdYzNbY0hdW2NIXVtjSF1uW2NIXTM=

> <s_epik_cmdline>
J2VwaWtfcHl0aG9uJywgJy1waCcsICc3LjAnLCAnLXRuJywgJzgnLCAnLW1hJywgJzIwMCcsICctbWV0YWxfYmluZGluZycsICctaW1hZScsICc8aW5maWxlLm1hZT4nLCAnLW9tYWUnLCAnPG91dGZpbGUubWFlPic=

> <r_lp_tautomer_probability>
1

> <r_epik_Ionization_Penalty>
0.00482425

> <r_epik_Ionization_Penalty_Charging>
0.000974069

> <r_epik_Ionization_Penalty_Neutral>
0.00385018

> <r_epik_State_Penalty>
-0

> <r_epik_Charging_Adjusted_Penalty>
0.000974069

> <i_epik_Tot_Q>
1

> <i_epik_Tot_abs_Q>
1

> <r_epik_Metal_State_Penalty>
-0

> <b_epik_Metal_Only>
0

> <s_lp_Force_Field>
OPLS_2005

> <r_lp_Energy>
43.341

> <b_lp_Chiralities_Consistent>
1

> <s_lp_Variant>
AV-unprocessed.smi:2072-8

> <Gold.Version>
5.8.1

> <Gold.Id.Protein>
6NUR|6NUR_protein|mol2

> <Gold.PLP.Fitness>
42.7631

> <Gold.PLP.PLP>
-32.4311

> <Gold.PLP.part.hbond>
-3.0000

> <Gold.PLP.part.metal>
0.0000

> <Gold.PLP.part.buried>
-3.5709

> <Gold.PLP.part.nonpolar>
-26.2359

> <Gold.PLP.part.repulsive>
0.2609

> <Gold.PLP.ligand.clash>
0.0000

> <Gold.PLP.ligand.torsion>
0.5642

> <Gold.PLP.Chemscore.Hbond>
2.9360

> <Gold.PLP.Chemscore.CHOScore>
0.8816

> <Gold.PLP.Chemscore.Metal>
0.0000

> <Gold.Chemscore.Hbonds>
donor molecule, donor type, donor heavy atom, donor atom, acceptor molecule, acceptor atom, score
      L1  H     3    20       P1  7948  0.96
      L1  H    10    25       P1  7948  1.00
      P1  H  7989  7998       L1     8  0.98
      L1  C     7    23       P1  8028  0.88

> <Gold.PLP.Chemscore.Internal.Correction>
0.0074

> <Gold.Rescore>
     Score         DG    S(hbond)    S(metal)    S(lipo)     H(rot)  DE(clash)    DE(int)     intcor
     17.46     -20.58       2.33        0.00      84.50       1.00       0.39       2.74       ----

> <Gold.Chemscore.Fitness>
17.4577

> <Gold.Chemscore.DG>
-20.5828

> <Gold.Chemscore.ZeroCoef>
-5.4800

> <Gold.Chemscore.Hbond>
2.3281

> <Gold.Chemscore.Metal>
0.0000

> <Gold.Chemscore.Lipo>
84.5030

> <Gold.Chemscore.Internal_Hbond>
0.0000

> <Gold.Chemscore.DEClash>
0.3852

> <Gold.Chemscore.DEInternal>
2.7399

> <Gold.Chemscore.Rot>
1.0000

> <Gold.Chemscore.Internal.Correction>
   9.000000E+99

> <Gold.Chemscore.Hbonds>
donor molecule, donor type, donor heavy atom, donor atom, acceptor molecule, acceptor atom, score
      L1  H     3    20       P1  7948  0.92
      L1  H    10    25       P1  7948  0.94
      P1  H  7989  7998       L1     8  0.12

> <Gold.Chemscore.Hbond.Weighted>
-7.7759

> <Gold.Chemscore.Metal.Weighted>
-0.0000

> <Gold.Chemscore.Lipo.Weighted>
-9.8869

> <Gold.Chemscore.Internal_Hbond.Weighted>
0.0000

> <Gold.Chemscore.DEClash.Weighted>
0.3852

> <Gold.Chemscore.DEInternal.Weighted>
2.7399

> <Gold.Chemscore.Rot.Weighted>
2.5600

> <Gold.Chemscore.Internal.Correction.Weighted>
   9.000000E+99

> <Gold.Protein.RotatedTorsions>
[ 6907 6896 6895 6894 ] final -159.20 input  -60.11 | X-H torsion
[ 7974 7965 7964 7962 ] final   47.55 input  175.53 | X-H torsion
[ 8008 7997 7996 7995 ] final   48.26 input   59.86 | X-H torsion
[ 10167 10162 10161 10158 ] final   42.31 input  -65.29 | X-H torsion
[ 10718 10713 10712 10709 ] final -158.23 input   66.30 | X-H torsion
[ 10763 10752 10751 10750 ] final -109.88 input  -60.55 | X-H torsion
[ 11005 11000 10999 10996 ] final  115.78 input  -57.11 | X-H torsion

> <Gold.Protein.ActiveResidues>
 VAL166  LYS551  ARG553  GLY616  TRP617  ASP618  TYR619  PRO620  LYS621  CYS622 
 ASP623  PHE694  ASN695  SER759  ASP760  ASP761  ALA762  ILE779  LEU786  VAL792 
 PHE793  MET794  SER795  GLU796  ALA797  LYS798  CYS799  TRP800  GLU811  SER814 

> <Gold.Protein.RotatedAtoms>
  151.3300  133.4004  159.2661 H   0  0  0  0  0  0  0  0  0  0  0  0  # atno 6907 bound_to 6896
  150.9964  134.9287  159.7939 H   0  0  0  0  0  0  0  0  0  0  0  0  # atno 6908 bound_to 6896
  152.5262  134.3265  159.9219 H   0  0  0  0  0  0  0  0  0  0  0  0  # atno 6909 bound_to 6896
  146.0287  139.4738  142.9851 H   0  0  0  0  0  0  0  0  0  0  0  0  # atno 7974 bound_to 7965
  155.3827  140.3429  155.4247 H   0  0  0  0  0  0  0  0  0  0  0  0  # atno 8008 bound_to 7997
  156.1601  140.1598  156.8659 H   0  0  0  0  0  0  0  0  0  0  0  0  # atno 8009 bound_to 7997
  154.5132  140.0785  156.8012 H   0  0  0  0  0  0  0  0  0  0  0  0  # atno 8010 bound_to 7997
  140.3557  144.2293  150.6142 H   0  0  0  0  0  0  0  0  0  0  0  0  # atno 10167 bound_to 10162
  156.5513  130.8606  151.2781 H   0  0  0  0  0  0  0  0  0  0  0  0  # atno 10718 bound_to 10713
  154.8218  135.4584  154.0800 H   0  0  0  0  0  0  0  0  0  0  0  0  # atno 10763 bound_to 10752
  153.2148  135.6886  153.8077 H   0  0  0  0  0  0  0  0  0  0  0  0  # atno 10764 bound_to 10752
  153.7516  135.3297  155.3299 H   0  0  0  0  0  0  0  0  0  0  0  0  # atno 10765 bound_to 10752
  139.9020  134.9589  156.7097 H   0  0  0  0  0  0  0  0  0  0  0  0  # atno 11005 bound_to 11000
  145.7075  141.0116  143.1471 LP  0  0  0  0  0  0  0  0  0  0  0  0  # atno 17320 bound_to 7965
  144.7021  139.8718  143.7441 LP  0  0  0  0  0  0  0  0  0  0  0  0  # atno 17321 bound_to 7965
  140.5176  143.2274  151.8439 LP  0  0  0  0  0  0  0  0  0  0  0  0  # atno 17342 bound_to 10162
  139.4820  144.4875  151.9228 LP  0  0  0  0  0  0  0  0  0  0  0  0  # atno 17343 bound_to 10162
  157.7387  130.9818  150.2267 LP  0  0  0  0  0  0  0  0  0  0  0  0  # atno 17370 bound_to 10713
  156.2882  130.3742  149.7868 LP  0  0  0  0  0  0  0  0  0  0  0  0  # atno 17371 bound_to 10713
  140.7085  133.9244  155.8069 LP  0  0  0  0  0  0  0  0  0  0  0  0  # atno 17394 bound_to 11000
  141.0318  134.0745  157.4005 LP  0  0  0  0  0  0  0  0  0  0  0  0  # atno 17395 bound_to 11000

$$$$
