AV-unprocessed.smi:1783|AV-procd|sdf|7193|dock3
  -GOLD-   22720 8433D 1   1.00000     0.00000
 Structure written by MMmdl.
 30 31  0  0  0  0  0  0  0  0  1 V2000
  153.1257  138.9477  156.6743 O   0  0  0  0  0  0  0  0  0  0  0  0
  151.9751  138.8028  157.0866 C   0  0  0  0  0  0  0  0  0  0  0  0
  151.4006  139.5543  158.0475 N   0  0  0  0  0  0  0  0  0  0  0  0
  151.9273  140.6375  158.7703 C   0  0  0  0  0  0  0  0  0  0  0  0
  151.6646  141.9454  158.5125 C   0  0  0  0  0  0  0  0  0  0  0  0
  152.2354  143.0184  159.3094 C   0  0  0  0  0  0  0  0  0  0  0  0
  152.0037  144.4799  158.9586 C   0  0  0  0  0  0  0  0  0  0  0  0
  152.8013  144.8360  157.9525 F   0  0  0  0  0  0  0  0  0  0  0  0
  150.7414  144.6937  158.5839 F   0  0  0  0  0  0  0  0  0  0  0  0
  152.2706  145.2696  159.9991 F   0  0  0  0  0  0  0  0  0  0  0  0
  153.0465  142.6506  160.3184 C   0  0  0  0  0  0  0  0  0  0  0  0
  153.3028  141.3079  160.6045 N   0  0  0  0  0  0  0  0  0  0  0  0
  152.7981  140.2707  159.8994 C   0  0  0  0  0  0  0  0  0  0  0  0
  153.0741  139.1134  160.2134 O   0  0  0  0  0  0  0  0  0  0  0  0
  151.0867  137.6903  156.4941 C   0  0  1  0  0  0  0  0  0  0  0  0
  149.7826  138.1884  155.8625 C   0  0  0  0  0  0  0  0  0  0  0  0
  150.2106  138.6460  154.4777 C   0  0  0  0  0  0  0  0  0  0  0  0
  151.4857  137.8420  154.2017 C   0  0  0  0  0  0  0  0  0  0  0  0
  151.7299  137.0759  155.3803 O   0  0  0  0  0  0  0  0  0  0  0  0
  153.9084  141.1131  161.3888 H   0  0  0  0  0  0  0  0  0  0  0  0
  150.4716  139.2737  158.3290 H   0  0  0  0  0  0  0  0  0  0  0  0
  150.9995  142.2314  157.7144 H   0  0  0  0  0  0  0  0  0  0  0  0
  153.5596  143.3427  160.9698 H   0  0  0  0  0  0  0  0  0  0  0  0
  150.8934  136.9515  157.2723 H   0  0  0  0  0  0  0  0  0  0  0  0
  149.0842  137.3553  155.7749 H   0  0  0  0  0  0  0  0  0  0  0  0
  149.2814  138.9734  156.4301 H   0  0  0  0  0  0  0  0  0  0  0  0
  149.4352  138.4689  153.7319 H   0  0  0  0  0  0  0  0  0  0  0  0
  150.4356  139.7133  154.4808 H   0  0  0  0  0  0  0  0  0  0  0  0
  151.3758  137.1797  153.3425 H   0  0  0  0  0  0  0  0  0  0  0  0
  152.3289  138.5069  154.0104 H   0  0  0  0  0  0  0  0  0  0  0  0
  1  2  2  0  0  0  0
  2  3  1  0  0  0  0
  2 15  1  0  0  0  0
  3  4  1  0  0  0  0
  3 21  1  0  0  0  0
  4 13  1  0  0  0  0
  4  5  2  0  0  0  0
  5  6  1  0  0  0  0
  5 22  1  0  0  0  0
  6  7  1  0  0  0  0
  6 11  2  0  0  0  0
  7  8  1  0  0  0  0
  7  9  1  0  0  0  0
  7 10  1  0  0  0  0
 11 12  1  0  0  0  0
 11 23  1  0  0  0  0
 12 20  1  0  0  0  0
 12 13  1  0  0  0  0
 13 14  2  0  0  0  0
 15 19  1  0  0  0  0
 15 16  1  0  0  0  0
 15 24  1  0  0  0  0
 16 17  1  0  0  0  0
 16 25  1  0  0  0  0
 16 26  1  0  0  0  0
 17 18  1  0  0  0  0
 17 27  1  0  0  0  0
 17 28  1  0  0  0  0
 18 19  1  0  0  0  0
 18 29  1  0  0  0  0
 18 30  1  0  0  0  0
M  END
> <s_m_source_file>
AV-unprocessed.smi

> <i_m_source_file_index>
1783

> <i_lp_mmshare_version>
43012

> <i_f3d_flags>
0

> <s_epik_input>
TzFbQ0gyXVtDSDJdW0NIMl1bQ0BIXTFDKD1PKVtOSF1jMltjSF1jKEMoRikoRilGKVtjSF1bbkhdYzI9Tw==

> <s_epik_cmdline>
J2VwaWtfcHl0aG9uJywgJy1waCcsICc3LjAnLCAnLXRuJywgJzgnLCAnLW1hJywgJzIwMCcsICctbWV0YWxfYmluZGluZycsICctaW1hZScsICc8aW5maWxlLm1hZT4nLCAnLW9tYWUnLCAnPG91dGZpbGUubWFlPic=

> <r_lp_tautomer_probability>
0.999

> <r_epik_Ionization_Penalty>
0.00885957

> <r_epik_Ionization_Penalty_Charging>
0.00885947

> <r_epik_Ionization_Penalty_Neutral>
9.33956e-08

> <r_epik_State_Penalty>
0.00669851

> <r_epik_Charging_Adjusted_Penalty>
0.015558

> <i_epik_Tot_Q>
0

> <i_epik_Tot_abs_Q>
0

> <r_epik_Metal_State_Penalty>
0.320804

> <b_epik_Metal_Only>
0

> <s_lp_Force_Field>
OPLS_2005

> <r_lp_Energy>
32.0123

> <b_lp_Chiralities_Consistent>
1

> <s_lp_Variant>
AV-unprocessed.smi:1783-2

> <Gold.Version>
5.8.1

> <Gold.Id.Protein>
6NUR|6NUR_protein|mol2

> <Gold.PLP.Fitness>
42.6387

> <Gold.PLP.PLP>
-40.2824

> <Gold.PLP.part.hbond>
-1.8996

> <Gold.PLP.part.metal>
0.0000

> <Gold.PLP.part.buried>
-6.5835

> <Gold.PLP.part.nonpolar>
-31.9445

> <Gold.PLP.part.repulsive>
0.2038

> <Gold.PLP.ligand.clash>
0.0000

> <Gold.PLP.ligand.torsion>
1.6546

> <Gold.PLP.Chemscore.Hbond>
1.8640

> <Gold.PLP.Chemscore.CHOScore>
0.0000

> <Gold.PLP.Chemscore.Metal>
0.0000

> <Gold.Chemscore.Hbonds>
donor molecule, donor type, donor heavy atom, donor atom, acceptor molecule, acceptor atom, score
      P1  H  7997  8010       L1     1  1.00
      P1  H 10752 10765       L1    19  0.51

> <Gold.PLP.Chemscore.Internal.Correction>
0.0735

> <Gold.Rescore>
     Score         DG    S(hbond)    S(metal)    S(lipo)     H(rot)  DE(clash)    DE(int)     intcor
     16.21     -17.80       1.95        0.00      71.39       1.00       0.52       1.06       ----

> <Gold.Chemscore.Fitness>
16.2136

> <Gold.Chemscore.DG>
-17.7987

> <Gold.Chemscore.ZeroCoef>
-5.4800

> <Gold.Chemscore.Hbond>
1.9540

> <Gold.Chemscore.Metal>
0.0000

> <Gold.Chemscore.Lipo>
71.3885

> <Gold.Chemscore.Internal_Hbond>
0.0000

> <Gold.Chemscore.DEClash>
0.5224

> <Gold.Chemscore.DEInternal>
1.0627

> <Gold.Chemscore.Rot>
1.0000

> <Gold.Chemscore.Internal.Correction>
   9.000000E+99

> <Gold.Chemscore.Hbonds>
donor molecule, donor type, donor heavy atom, donor atom, acceptor molecule, acceptor atom, score
      P1  H  7997  8010       L1     1  0.98
      P1  H 10752 10765       L1    19  0.05

> <Gold.Chemscore.Hbond.Weighted>
-6.5262

> <Gold.Chemscore.Metal.Weighted>
-0.0000

> <Gold.Chemscore.Lipo.Weighted>
-8.3525

> <Gold.Chemscore.Internal_Hbond.Weighted>
0.0000

> <Gold.Chemscore.DEClash.Weighted>
0.5224

> <Gold.Chemscore.DEInternal.Weighted>
1.0627

> <Gold.Chemscore.Rot.Weighted>
2.5600

> <Gold.Chemscore.Internal.Correction.Weighted>
   9.000000E+99

> <Gold.Protein.RotatedTorsions>
[ 6907 6896 6895 6894 ] final  -84.07 input  -60.11 | X-H torsion
[ 7974 7965 7964 7962 ] final  -54.98 input  175.53 | X-H torsion
[ 8008 7997 7996 7995 ] final   77.72 input   59.86 | X-H torsion
[ 10167 10162 10161 10158 ] final    6.17 input  -65.29 | X-H torsion
[ 10718 10713 10712 10709 ] final  163.07 input   66.30 | X-H torsion
[ 10763 10752 10751 10750 ] final  167.15 input  -60.55 | X-H torsion
[ 11005 11000 10999 10996 ] final  -68.17 input  -57.11 | X-H torsion

> <Gold.Protein.ActiveResidues>
 VAL166  LYS551  ARG553  GLY616  TRP617  ASP618  TYR619  PRO620  LYS621  CYS622 
 ASP623  PHE694  ASN695  SER759  ASP760  ASP761  ALA762  ILE779  LEU786  VAL792 
 PHE793  MET794  SER795  GLU796  ALA797  LYS798  CYS799  TRP800  GLU811  SER814 

> <Gold.Protein.RotatedAtoms>
  150.6879  134.3415  159.4869 H   0  0  0  0  0  0  0  0  0  0  0  0  # atno 6907 bound_to 6896
  152.1267  134.9162  160.0570 H   0  0  0  0  0  0  0  0  0  0  0  0  # atno 6908 bound_to 6896
  152.0348  133.3917  159.4349 H   0  0  0  0  0  0  0  0  0  0  0  0  # atno 6909 bound_to 6896
  145.8794  140.8156  142.9847 H   0  0  0  0  0  0  0  0  0  0  0  0  # atno 7974 bound_to 7965
  155.8455  140.3460  155.5659 H   0  0  0  0  0  0  0  0  0  0  0  0  # atno 8008 bound_to 7997
  155.8094  140.0896  157.1932 H   0  0  0  0  0  0  0  0  0  0  0  0  # atno 8009 bound_to 7997
  154.4006  140.1450  156.3356 H   0  0  0  0  0  0  0  0  0  0  0  0  # atno 8010 bound_to 7997
  140.6443  143.7701  150.7474 H   0  0  0  0  0  0  0  0  0  0  0  0  # atno 10167 bound_to 10162
  157.1137  131.0474  151.2446 H   0  0  0  0  0  0  0  0  0  0  0  0  # atno 10718 bound_to 10713
  154.3496  135.2753  155.2379 H   0  0  0  0  0  0  0  0  0  0  0  0  # atno 10763 bound_to 10752
  154.4614  135.5906  153.6262 H   0  0  0  0  0  0  0  0  0  0  0  0  # atno 10764 bound_to 10752
  152.9851  135.6066  154.3705 H   0  0  0  0  0  0  0  0  0  0  0  0  # atno 10765 bound_to 10752
  141.1526  133.6735  156.6405 H   0  0  0  0  0  0  0  0  0  0  0  0  # atno 11005 bound_to 11000
  144.6727  140.1361  143.7440 LP  0  0  0  0  0  0  0  0  0  0  0  0  # atno 17320 bound_to 7965
  145.9041  139.2448  143.1476 LP  0  0  0  0  0  0  0  0  0  0  0  0  # atno 17321 bound_to 7965
  140.1338  143.4502  152.2237 LP  0  0  0  0  0  0  0  0  0  0  0  0  # atno 17342 bound_to 10162
  139.5652  144.7431  151.4041 LP  0  0  0  0  0  0  0  0  0  0  0  0  # atno 17343 bound_to 10162
  157.4537  130.7613  149.7174 LP  0  0  0  0  0  0  0  0  0  0  0  0  # atno 17370 bound_to 10713
  155.9844  130.3991  150.3311 LP  0  0  0  0  0  0  0  0  0  0  0  0  # atno 17371 bound_to 10713
  140.3397  134.7859  157.4388 LP  0  0  0  0  0  0  0  0  0  0  0  0  # atno 17394 bound_to 11000
  140.0948  134.5552  155.8409 LP  0  0  0  0  0  0  0  0  0  0  0  0  # atno 17395 bound_to 11000

$$$$
