AV-unprocessed.smi:2669|AV-procd|sdf|10343|dock6
  -GOLD-   2272014363D 1   1.00000     0.00000
 Structure written by MMmdl.
 39 41  0  0  0  0  0  0  0  0  1 V2000
  149.2274  134.5481  156.0743 C   0  0  0  0  0  0  0  0  0  0  0  0
  149.7230  135.8795  155.7630 N   0  0  0  0  0  0  0  0  0  0  0  0
  150.9032  136.3552  156.3511 C   0  0  0  0  0  0  0  0  0  0  0  0
  151.5381  135.6099  157.2857 N   0  0  0  0  0  0  0  0  0  0  0  0
  152.6599  136.1037  157.8250 C   0  0  0  0  0  0  0  0  0  0  0  0
  153.2781  137.2677  157.5731 N   0  0  0  0  0  0  0  0  0  0  0  0
  152.6594  138.0118  156.6464 C   0  0  0  0  0  0  0  0  0  0  0  0
  153.0745  139.2523  156.1934 N   0  0  0  0  0  0  0  0  0  0  0  0
  152.1317  139.5427  155.3005 C   0  0  0  0  0  0  0  0  0  0  0  0
  151.1498  138.6391  155.1146 N   0  0  0  0  0  0  0  0  0  0  0  0
  150.0354  138.7626  154.1897 C   0  0  0  0  0  0  0  0  0  0  0  0
  149.2051  140.0396  154.4282 C   0  0  2  0  0  0  0  0  0  0  0  0
  149.5887  141.0467  153.5128 O   0  0  0  0  0  0  0  0  0  0  0  0
  149.3728  140.5899  155.8520 C   0  0  0  0  0  0  0  0  0  0  0  0
  150.3379  141.6335  155.8333 O   0  0  0  0  0  0  0  0  0  0  0  0
  150.9218  142.0048  157.0250 C   0  0  0  0  0  0  0  0  0  0  0  0
  151.0527  141.0056  158.0116 C   0  0  0  0  0  0  0  0  0  0  0  0
  151.6385  141.2955  159.2589 C   0  0  0  0  0  0  0  0  0  0  0  0
  152.1017  142.5959  159.5329 C   0  0  0  0  0  0  0  0  0  0  0  0
  152.8214  142.9546  161.0594 Cl  0  0  0  0  0  0  0  0  0  0  0  0
  151.9763  143.6032  158.5582 C   0  0  0  0  0  0  0  0  0  0  0  0
  151.3899  143.3126  157.3109 C   0  0  0  0  0  0  0  0  0  0  0  0
  151.4579  137.6009  155.9933 C   0  0  0  0  0  0  0  0  0  0  0  0
  148.2681  134.3842  155.5838 H   0  0  0  0  0  0  0  0  0  0  0  0
  149.0854  134.4279  157.1488 H   0  0  0  0  0  0  0  0  0  0  0  0
  149.9243  133.7857  155.7250 H   0  0  0  0  0  0  0  0  0  0  0  0
  149.1293  136.5164  155.2513 H   0  0  0  0  0  0  0  0  0  0  0  0
  153.1330  135.4778  158.5669 H   0  0  0  0  0  0  0  0  0  0  0  0
  152.1564  140.4695  154.7461 H   0  0  0  0  0  0  0  0  0  0  0  0
  150.4392  138.7664  153.1764 H   0  0  0  0  0  0  0  0  0  0  0  0
  149.4109  137.8727  154.2604 H   0  0  0  0  0  0  0  0  0  0  0  0
  148.1501  139.8248  154.2524 H   0  0  0  0  0  0  0  0  0  0  0  0
  149.4212  140.7362  152.6360 H   0  0  0  0  0  0  0  0  0  0  0  0
  148.4146  140.9536  156.2275 H   0  0  0  0  0  0  0  0  0  0  0  0
  149.7167  139.7939  156.5149 H   0  0  0  0  0  0  0  0  0  0  0  0
  150.7007  140.0045  157.8095 H   0  0  0  0  0  0  0  0  0  0  0  0
  151.7318  140.5187  160.0035 H   0  0  0  0  0  0  0  0  0  0  0  0
  152.3303  144.6025  158.7653 H   0  0  0  0  0  0  0  0  0  0  0  0
  151.3109  144.1120  156.5902 H   0  0  0  0  0  0  0  0  0  0  0  0
  1  2  1  0  0  0  0
  1 24  1  0  0  0  0
  1 25  1  0  0  0  0
  1 26  1  0  0  0  0
  2  3  1  0  0  0  0
  2 27  1  0  0  0  0
  3 23  1  0  0  0  0
  3  4  2  0  0  0  0
  4  5  1  0  0  0  0
  5  6  2  0  0  0  0
  5 28  1  0  0  0  0
  6  7  1  0  0  0  0
  7 23  2  0  0  0  0
  7  8  1  0  0  0  0
  8  9  2  0  0  0  0
  9 10  1  0  0  0  0
  9 29  1  0  0  0  0
 10 11  1  0  0  0  0
 10 23  1  0  0  0  0
 11 12  1  0  0  0  0
 11 30  1  0  0  0  0
 11 31  1  0  0  0  0
 12 13  1  0  0  0  0
 12 14  1  0  0  0  0
 12 32  1  0  0  0  0
 13 33  1  0  0  0  0
 14 15  1  0  0  0  0
 14 34  1  0  0  0  0
 14 35  1  0  0  0  0
 15 16  1  0  0  0  0
 16 22  1  0  0  0  0
 16 17  2  0  0  0  0
 17 18  1  0  0  0  0
 17 36  1  0  0  0  0
 18 19  2  0  0  0  0
 18 37  1  0  0  0  0
 19 20  1  0  0  0  0
 19 21  1  0  0  0  0
 21 22  2  0  0  0  0
 21 38  1  0  0  0  0
 22 39  1  0  0  0  0
M  END
> <s_m_source_file>
AV-unprocessed.smi

> <i_m_source_file_index>
2669

> <i_lp_mmshare_version>
43012

> <i_f3d_flags>
0

> <s_epik_input>
bjFbY0hdbmMoW05IXVtDSDNdKWMoYzEyKW4oW2NIXW4yKVtDSDJdW0NASF0oW09IXSlbQ0gyXU9jM1tjSF1bY0hdYyhDbClbY0hdW2NIXTM=

> <s_epik_cmdline>
J2VwaWtfcHl0aG9uJywgJy1waCcsICc3LjAnLCAnLXRuJywgJzgnLCAnLW1hJywgJzIwMCcsICctbWV0YWxfYmluZGluZycsICctaW1hZScsICc8aW5maWxlLm1hZT4nLCAnLW9tYWUnLCAnPG91dGZpbGUubWFlPic=

> <r_lp_tautomer_probability>
1

> <r_epik_Ionization_Penalty>
0.00733592

> <r_epik_Ionization_Penalty_Charging>
0

> <r_epik_Ionization_Penalty_Neutral>
0.00733592

> <r_epik_State_Penalty>
-0

> <r_epik_Charging_Adjusted_Penalty>
0

> <i_epik_Tot_Q>
0

> <i_epik_Tot_abs_Q>
0

> <r_epik_Metal_State_Penalty>
-0

> <b_epik_Metal_Only>
0

> <s_lp_Force_Field>
OPLS_2005

> <r_lp_Energy>
12.7517

> <b_lp_Chiralities_Consistent>
1

> <s_lp_Variant>
AV-unprocessed.smi:2669-1

> <Gold.Version>
5.8.1

> <Gold.Id.Protein>
6NUR|6NUR_protein|mol2

> <Gold.PLP.Fitness>
46.4349

> <Gold.PLP.PLP>
-42.8942

> <Gold.PLP.part.hbond>
-4.0129

> <Gold.PLP.part.metal>
0.0000

> <Gold.PLP.part.buried>
-3.5568

> <Gold.PLP.part.nonpolar>
-34.6629

> <Gold.PLP.part.repulsive>
0.1267

> <Gold.PLP.ligand.clash>
0.0000

> <Gold.PLP.ligand.torsion>
1.5062

> <Gold.PLP.Chemscore.Hbond>
2.1765

> <Gold.PLP.Chemscore.CHOScore>
0.0000

> <Gold.PLP.Chemscore.Metal>
0.0000

> <Gold.Chemscore.Hbonds>
donor molecule, donor type, donor heavy atom, donor atom, acceptor molecule, acceptor atom, score
      L1  H    13    33       P1  7957  1.00
      P1  H  7989  7998       L1    13  0.22
      P1  H  7997  8008       L1     8  0.85

> <Gold.PLP.Chemscore.Internal.Correction>
0.0237

> <Gold.Rescore>
     Score         DG    S(hbond)    S(metal)    S(lipo)     H(rot)  DE(clash)    DE(int)     intcor
     12.11     -15.67       1.99        0.00      95.39       2.97       0.90       2.66       ----

> <Gold.Chemscore.Fitness>
12.1120

> <Gold.Chemscore.DG>
-15.6732

> <Gold.Chemscore.ZeroCoef>
-5.4800

> <Gold.Chemscore.Hbond>
1.9903

> <Gold.Chemscore.Metal>
0.0000

> <Gold.Chemscore.Lipo>
95.3895

> <Gold.Chemscore.Internal_Hbond>
0.0000

> <Gold.Chemscore.DEClash>
0.9030

> <Gold.Chemscore.DEInternal>
2.6582

> <Gold.Chemscore.Rot>
2.9746

> <Gold.Chemscore.Internal.Correction>
   9.000000E+99

> <Gold.Chemscore.Hbonds>
donor molecule, donor type, donor heavy atom, donor atom, acceptor molecule, acceptor atom, score
      L1  H    13    33       P1  7957  0.99
      P1  H  7989  7998       L1    13  0.02
      P1  H  7997  8008       L1     8  0.68

> <Gold.Chemscore.Hbond.Weighted>
-6.6476

> <Gold.Chemscore.Metal.Weighted>
-0.0000

> <Gold.Chemscore.Lipo.Weighted>
-11.1606

> <Gold.Chemscore.Internal_Hbond.Weighted>
0.0000

> <Gold.Chemscore.DEClash.Weighted>
0.9030

> <Gold.Chemscore.DEInternal.Weighted>
2.6582

> <Gold.Chemscore.Rot.Weighted>
7.6150

> <Gold.Chemscore.Internal.Correction.Weighted>
   9.000000E+99

> <Gold.Protein.RotatedTorsions>
[ 6907 6896 6895 6894 ] final   97.93 input  -60.11 | X-H torsion
[ 7974 7965 7964 7962 ] final   45.85 input  175.53 | X-H torsion
[ 8008 7997 7996 7995 ] final  -18.34 input   59.86 | X-H torsion
[ 10167 10162 10161 10158 ] final  -63.05 input  -65.29 | X-H torsion
[ 10718 10713 10712 10709 ] final   46.08 input   66.30 | X-H torsion
[ 10763 10752 10751 10750 ] final  -38.39 input  -60.55 | X-H torsion
[ 11005 11000 10999 10996 ] final   16.89 input  -57.11 | X-H torsion

> <Gold.Protein.ActiveResidues>
 VAL166  LYS551  ARG553  GLY616  TRP617  ASP618  TYR619  PRO620  LYS621  CYS622 
 ASP623  PHE694  ASN695  SER759  ASP760  ASP761  ALA762  ILE779  LEU786  VAL792 
 PHE793  MET794  SER795  GLU796  ALA797  LYS798  CYS799  TRP800  GLU811  SER814 

> <Gold.Protein.RotatedAtoms>
  152.5416  134.0658  159.8171 H   0  0  0  0  0  0  0  0  0  0  0  0  # atno 6907 bound_to 6896
  151.0779  133.5406  159.2630 H   0  0  0  0  0  0  0  0  0  0  0  0  # atno 6908 bound_to 6896
  151.2244  135.0539  159.9017 H   0  0  0  0  0  0  0  0  0  0  0  0  # atno 6909 bound_to 6896
  146.0443  139.4919  142.9758 H   0  0  0  0  0  0  0  0  0  0  0  0  # atno 7974 bound_to 7965
  154.4913  140.2118  155.9543 H   0  0  0  0  0  0  0  0  0  0  0  0  # atno 8008 bound_to 7997
  156.1309  140.3197  155.8316 H   0  0  0  0  0  0  0  0  0  0  0  0  # atno 8009 bound_to 7997
  155.4298  140.0502  157.3010 H   0  0  0  0  0  0  0  0  0  0  0  0  # atno 8010 bound_to 7997
  140.5897  143.2339  151.6166 H   0  0  0  0  0  0  0  0  0  0  0  0  # atno 10167 bound_to 10162
  157.4443  130.8100  149.7725 H   0  0  0  0  0  0  0  0  0  0  0  0  # atno 10718 bound_to 10713
  153.9121  135.6791  153.4750 H   0  0  0  0  0  0  0  0  0  0  0  0  # atno 10763 bound_to 10752
  153.1073  135.4799  154.8971 H   0  0  0  0  0  0  0  0  0  0  0  0  # atno 10764 bound_to 10752
  154.7521  135.3188  154.8493 H   0  0  0  0  0  0  0  0  0  0  0  0  # atno 10765 bound_to 10752
  140.4420  134.1312  155.7691 H   0  0  0  0  0  0  0  0  0  0  0  0  # atno 11005 bound_to 11000
  145.6832  141.0185  143.1595 LP  0  0  0  0  0  0  0  0  0  0  0  0  # atno 17320 bound_to 7965
  144.7090  139.8446  143.7421 LP  0  0  0  0  0  0  0  0  0  0  0  0  # atno 17321 bound_to 7965
  139.5220  144.3177  152.0938 LP  0  0  0  0  0  0  0  0  0  0  0  0  # atno 17342 bound_to 10162
  140.2339  144.4340  150.6288 LP  0  0  0  0  0  0  0  0  0  0  0  0  # atno 17343 bound_to 10162
  155.9961  130.3908  150.2792 LP  0  0  0  0  0  0  0  0  0  0  0  0  # atno 17370 bound_to 10713
  157.0959  131.0182  151.3104 LP  0  0  0  0  0  0  0  0  0  0  0  0  # atno 17371 bound_to 10713
  141.1701  133.8625  157.1596 LP  0  0  0  0  0  0  0  0  0  0  0  0  # atno 17394 bound_to 11000
  140.0063  135.0007  157.0300 LP  0  0  0  0  0  0  0  0  0  0  0  0  # atno 17395 bound_to 11000

$$$$
