AV-unprocessed.smi:783|AV-procd|sdf|3716|dock10
  -GOLD-   22720 1143D 1   1.00000     0.00000
 Structure written by MMmdl.
 45 46  0  0  0  0  0  0  0  0  1 V2000
  154.0120  141.7700  161.2169 C   0  0  0  0  0  0  0  0  0  0  0  0
  152.7472  141.7604  160.3340 C   0  0  2  0  0  0  0  0  0  0  0  0
  152.9025  140.8685  159.0927 C   0  0  0  0  0  0  0  0  0  0  0  0
  153.8837  140.1357  158.9664 O   0  0  0  0  0  0  0  0  0  0  0  0
  151.9141  140.9379  158.1865 N   0  0  0  0  0  0  0  0  0  0  0  0
  151.8229  140.1594  156.9508 C   0  0  0  0  0  0  0  0  0  0  0  0
  150.3654  140.0653  156.4025 C   0  0  0  0  0  0  0  0  0  0  0  0
  149.4030  139.3251  157.3921 C   0  0  0  0  0  0  0  0  0  0  0  0
  148.4343  139.9492  157.8328 O   0  0  0  0  0  0  0  0  0  0  0  0
  149.6151  138.0409  157.7902 N   0  0  0  0  0  0  0  0  0  0  0  0
  148.8370  137.2524  158.7511 C   0  0  0  0  0  0  0  0  0  0  0  0
  150.7324  137.2842  157.2158 C   0  0  0  0  0  0  0  0  0  0  0  0
  149.8698  141.5104  156.1116 C   0  0  0  0  0  0  0  0  0  0  0  0
  148.7663  141.4099  155.0536 C   0  0  0  0  0  0  0  0  0  0  0  0
  149.0377  140.1034  154.3052 C   0  0  0  0  0  0  0  0  0  0  0  0
  150.2669  139.4728  154.9742 C   0  0  0  0  0  0  0  0  0  0  0  0
  152.3305  143.1028  159.9443 N   0  0  0  0  0  0  0  0  0  0  0  0
  152.9224  143.9377  159.0179 C   0  0  0  0  0  0  0  0  0  0  0  0
  152.2184  145.1078  159.0091 C   0  0  0  0  0  0  0  0  0  0  0  0
  151.2066  144.8999  159.9871 C   0  0  0  0  0  0  0  0  0  0  0  0
  151.2806  143.7055  160.5502 N   0  0  0  0  0  0  0  0  0  0  0  0
  154.2707  140.7612  161.5405 H   0  0  0  0  0  0  0  0  0  0  0  0
  153.8548  142.3697  162.1138 H   0  0  0  0  0  0  0  0  0  0  0  0
  154.8772  142.1799  160.6940 H   0  0  0  0  0  0  0  0  0  0  0  0
  151.9417  141.3395  160.9384 H   0  0  0  0  0  0  0  0  0  0  0  0
  151.1495  141.5692  158.3766 H   0  0  0  0  0  0  0  0  0  0  0  0
  152.4535  140.6644  156.2187 H   0  0  0  0  0  0  0  0  0  0  0  0
  152.2930  139.1871  157.0771 H   0  0  0  0  0  0  0  0  0  0  0  0
  148.1305  137.8105  159.3554 H   0  0  0  0  0  0  0  0  0  0  0  0
  149.5056  136.7536  159.4535 H   0  0  0  0  0  0  0  0  0  0  0  0
  148.2765  136.4788  158.2258 H   0  0  0  0  0  0  0  0  0  0  0  0
  151.6856  137.7299  157.5037 H   0  0  0  0  0  0  0  0  0  0  0  0
  150.6735  137.2732  156.1262 H   0  0  0  0  0  0  0  0  0  0  0  0
  150.7436  136.2441  157.5443 H   0  0  0  0  0  0  0  0  0  0  0  0
  149.5387  142.0531  156.9982 H   0  0  0  0  0  0  0  0  0  0  0  0
  150.6848  142.1015  155.6907 H   0  0  0  0  0  0  0  0  0  0  0  0
  147.7851  141.3701  155.5283 H   0  0  0  0  0  0  0  0  0  0  0  0
  148.7713  142.2732  154.3873 H   0  0  0  0  0  0  0  0  0  0  0  0
  148.1757  139.4415  154.3974 H   0  0  0  0  0  0  0  0  0  0  0  0
  149.2080  140.2698  153.2411 H   0  0  0  0  0  0  0  0  0  0  0  0
  151.1590  139.7397  154.4059 H   0  0  0  0  0  0  0  0  0  0  0  0
  150.1848  138.3891  154.9307 H   0  0  0  0  0  0  0  0  0  0  0  0
  153.7870  143.6327  158.4469 H   0  0  0  0  0  0  0  0  0  0  0  0
  152.4016  145.9812  158.4009 H   0  0  0  0  0  0  0  0  0  0  0  0
  150.4287  145.5784  160.3056 H   0  0  0  0  0  0  0  0  0  0  0  0
  1  2  1  0  0  0  0
  1 22  1  0  0  0  0
  1 23  1  0  0  0  0
  1 24  1  0  0  0  0
  2  3  1  0  0  0  0
  2 17  1  0  0  0  0
  2 25  1  0  0  0  0
  3  4  2  0  0  0  0
  3  5  1  0  0  0  0
  5  6  1  0  0  0  0
  5 26  1  0  0  0  0
  6  7  1  0  0  0  0
  6 27  1  0  0  0  0
  6 28  1  0  0  0  0
  7 16  1  0  0  0  0
  7  8  1  0  0  0  0
  7 13  1  0  0  0  0
  8  9  2  0  0  0  0
  8 10  1  0  0  0  0
 10 11  1  0  0  0  0
 10 12  1  0  0  0  0
 11 29  1  0  0  0  0
 11 30  1  0  0  0  0
 11 31  1  0  0  0  0
 12 32  1  0  0  0  0
 12 33  1  0  0  0  0
 12 34  1  0  0  0  0
 13 14  1  0  0  0  0
 13 35  1  0  0  0  0
 13 36  1  0  0  0  0
 14 15  1  0  0  0  0
 14 37  1  0  0  0  0
 14 38  1  0  0  0  0
 15 16  1  0  0  0  0
 15 39  1  0  0  0  0
 15 40  1  0  0  0  0
 16 41  1  0  0  0  0
 16 42  1  0  0  0  0
 17 21  1  0  0  0  0
 17 18  1  0  0  0  0
 18 19  2  0  0  0  0
 18 43  1  0  0  0  0
 19 20  1  0  0  0  0
 19 44  1  0  0  0  0
 20 21  2  0  0  0  0
 20 45  1  0  0  0  0
M  END
> <s_m_source_file>
AV-unprocessed.smi

> <i_m_source_file_index>
783

> <i_lp_mmshare_version>
43012

> <i_f3d_flags>
0

> <s_epik_input>
bjFbY0hdW2NIXVtjSF1uMVtDQEhdKFtDSDNdKUMoPU8pW05IXVtDSDJdQzIoQyg9TylOKFtDSDNdKVtDSDNdKVtDSDJdW0NIMl1bQ0gyXVtDSDJdMg==

> <s_epik_cmdline>
J2VwaWtfcHl0aG9uJywgJy1waCcsICc3LjAnLCAnLXRuJywgJzgnLCAnLW1hJywgJzIwMCcsICctbWV0YWxfYmluZGluZycsICctaW1hZScsICc8aW5maWxlLm1hZT4nLCAnLW9tYWUnLCAnPG91dGZpbGUubWFlPic=

> <r_lp_tautomer_probability>
1

> <r_epik_Ionization_Penalty>
3.31274e-05

> <r_epik_Ionization_Penalty_Charging>
0

> <r_epik_Ionization_Penalty_Neutral>
3.31274e-05

> <r_epik_State_Penalty>
-0

> <r_epik_Charging_Adjusted_Penalty>
0

> <i_epik_Tot_Q>
0

> <i_epik_Tot_abs_Q>
0

> <r_epik_Metal_State_Penalty>
-0

> <b_epik_Metal_Only>
0

> <s_lp_Force_Field>
OPLS_2005

> <r_lp_Energy>
39.8422

> <b_lp_Chiralities_Consistent>
1

> <s_lp_Variant>
AV-unprocessed.smi:783-1

> <Gold.Version>
5.8.1

> <Gold.Id.Protein>
6NUR|6NUR_protein|mol2

> <Gold.PLP.Fitness>
44.6579

> <Gold.PLP.PLP>
-42.9387

> <Gold.PLP.part.hbond>
-1.6501

> <Gold.PLP.part.metal>
0.0000

> <Gold.PLP.part.buried>
-4.7761

> <Gold.PLP.part.nonpolar>
-37.0298

> <Gold.PLP.part.repulsive>
0.2003

> <Gold.PLP.ligand.clash>
0.0000

> <Gold.PLP.ligand.torsion>
0.7790

> <Gold.PLP.Chemscore.Hbond>
0.9920

> <Gold.PLP.Chemscore.CHOScore>
0.0000

> <Gold.PLP.Chemscore.Metal>
0.0000

> <Gold.Chemscore.Hbonds>
donor molecule, donor type, donor heavy atom, donor atom, acceptor molecule, acceptor atom, score
      P1  H  7997  8010       L1     4  0.96

> <Gold.PLP.Chemscore.Internal.Correction>
0.3013

> <Gold.Rescore>
     Score         DG    S(hbond)    S(metal)    S(lipo)     H(rot)  DE(clash)    DE(int)     intcor
     15.49     -16.05       0.96        0.00     103.42       1.84       0.13       0.43       ----

> <Gold.Chemscore.Fitness>
15.4865

> <Gold.Chemscore.DG>
-16.0475

> <Gold.Chemscore.ZeroCoef>
-5.4800

> <Gold.Chemscore.Hbond>
0.9551

> <Gold.Chemscore.Metal>
0.0000

> <Gold.Chemscore.Lipo>
103.4212

> <Gold.Chemscore.Internal_Hbond>
0.0000

> <Gold.Chemscore.DEClash>
0.1273

> <Gold.Chemscore.DEInternal>
0.4337

> <Gold.Chemscore.Rot>
1.8449

> <Gold.Chemscore.Internal.Correction>
   9.000000E+99

> <Gold.Chemscore.Hbonds>
donor molecule, donor type, donor heavy atom, donor atom, acceptor molecule, acceptor atom, score
      P1  H  7997  8010       L1     4  0.88

> <Gold.Chemscore.Hbond.Weighted>
-3.1901

> <Gold.Chemscore.Metal.Weighted>
-0.0000

> <Gold.Chemscore.Lipo.Weighted>
-12.1003

> <Gold.Chemscore.Internal_Hbond.Weighted>
0.0000

> <Gold.Chemscore.DEClash.Weighted>
0.1273

> <Gold.Chemscore.DEInternal.Weighted>
0.4337

> <Gold.Chemscore.Rot.Weighted>
4.7229

> <Gold.Chemscore.Internal.Correction.Weighted>
   9.000000E+99

> <Gold.Protein.RotatedTorsions>
[ 6907 6896 6895 6894 ] final  124.36 input  -60.11 | X-H torsion
[ 7974 7965 7964 7962 ] final  -32.58 input  175.53 | X-H torsion
[ 8008 7997 7996 7995 ] final   13.62 input   59.86 | X-H torsion
[ 10167 10162 10161 10158 ] final  -59.93 input  -65.29 | X-H torsion
[ 10718 10713 10712 10709 ] final -169.81 input   66.30 | X-H torsion
[ 10763 10752 10751 10750 ] final  -87.34 input  -60.55 | X-H torsion
[ 11005 11000 10999 10996 ] final   47.57 input  -57.11 | X-H torsion

> <Gold.Protein.ActiveResidues>
 VAL166  LYS551  ARG553  GLY616  TRP617  ASP618  TYR619  PRO620  LYS621  CYS622 
 ASP623  PHE694  ASN695  SER759  ASP760  ASP761  ALA762  ILE779  LEU786  VAL792 
 PHE793  MET794  SER795  GLU796  ALA797  LYS798  CYS799  TRP800  GLU811  SER814 

> <Gold.Protein.RotatedAtoms>
  152.4085  133.6926  159.6376 H   0  0  0  0  0  0  0  0  0  0  0  0  # atno 6907 bound_to 6896
  150.7967  133.8667  159.3256 H   0  0  0  0  0  0  0  0  0  0  0  0  # atno 6908 bound_to 6896
  151.6415  135.1014  160.0194 H   0  0  0  0  0  0  0  0  0  0  0  0  # atno 6909 bound_to 6896
  146.0978  140.5810  142.8834 H   0  0  0  0  0  0  0  0  0  0  0  0  # atno 7974 bound_to 7965
  154.8370  140.2908  155.5684 H   0  0  0  0  0  0  0  0  0  0  0  0  # atno 8008 bound_to 7997
  156.3009  140.2521  156.3237 H   0  0  0  0  0  0  0  0  0  0  0  0  # atno 8009 bound_to 7997
  154.9168  140.0387  157.1965 H   0  0  0  0  0  0  0  0  0  0  0  0  # atno 8010 bound_to 7997
  140.6104  143.2385  151.5723 H   0  0  0  0  0  0  0  0  0  0  0  0  # atno 10167 bound_to 10162
  156.7169  130.9255  151.3094 H   0  0  0  0  0  0  0  0  0  0  0  0  # atno 10718 bound_to 10713
  154.6326  135.5416  153.7697 H   0  0  0  0  0  0  0  0  0  0  0  0  # atno 10763 bound_to 10752
  153.0292  135.6439  154.1279 H   0  0  0  0  0  0  0  0  0  0  0  0  # atno 10764 bound_to 10752
  154.1208  135.2920  155.3189 H   0  0  0  0  0  0  0  0  0  0  0  0  # atno 10765 bound_to 10752
  140.1267  134.4758  155.8553 H   0  0  0  0  0  0  0  0  0  0  0  0  # atno 11005 bound_to 11000
  144.7409  140.4940  143.6870 LP  0  0  0  0  0  0  0  0  0  0  0  0  # atno 17320 bound_to 7965
  145.5913  139.1496  143.3180 LP  0  0  0  0  0  0  0  0  0  0  0  0  # atno 17321 bound_to 7965
  139.5357  144.2789  152.1245 LP  0  0  0  0  0  0  0  0  0  0  0  0  # atno 17342 bound_to 10162
  140.1987  144.4679  150.6442 LP  0  0  0  0  0  0  0  0  0  0  0  0  # atno 17343 bound_to 10162
  157.6913  130.9237  150.0523 LP  0  0  0  0  0  0  0  0  0  0  0  0  # atno 17370 bound_to 10713
  156.1621  130.3644  149.9284 LP  0  0  0  0  0  0  0  0  0  0  0  0  # atno 17371 bound_to 10713
  141.2162  133.6780  156.6992 LP  0  0  0  0  0  0  0  0  0  0  0  0  # atno 17394 bound_to 11000
  140.2894  134.8252  157.4004 LP  0  0  0  0  0  0  0  0  0  0  0  0  # atno 17395 bound_to 11000

$$$$
