AV-unprocessed.smi:1148|AV-procd|sdf|4889|dock2
  -GOLD-   22720 3463D 1   1.00000     0.00000
 Structure written by MMmdl.
 45 47  0  0  0  0  0  0  0  0  1 V2000
  146.2702  133.1573  152.0803 C   0  0  0  0  0  0  0  0  0  0  0  0
  146.7656  134.2779  152.8048 O   0  0  0  0  0  0  0  0  0  0  0  0
  146.2331  134.5454  154.0517 C   0  0  0  0  0  0  0  0  0  0  0  0
  145.2474  133.7381  154.5188 N   0  0  0  0  0  0  0  0  0  0  0  0
  144.7282  133.9960  155.7366 C   0  0  0  0  0  0  0  0  0  0  0  0
  145.1637  135.0573  156.5510 C   0  0  0  0  0  0  0  0  0  0  0  0
  146.1853  135.8964  156.0687 C   0  0  0  0  0  0  0  0  0  0  0  0
  146.7295  135.6483  154.7853 C   0  0  0  0  0  0  0  0  0  0  0  0
  147.7745  136.4238  154.2125 N   0  0  0  0  0  0  0  0  0  0  0  0
  148.5457  137.3514  154.8045 C   0  0  0  0  0  0  0  0  0  0  0  0
  148.4789  137.6828  155.9882 O   0  0  0  0  0  0  0  0  0  0  0  0
  149.4006  137.8989  153.9289 N   0  0  0  0  0  0  0  0  0  0  0  0
  150.3534  138.9627  154.2317 C   0  0  0  0  0  0  0  0  0  0  0  0
  151.6359  138.3508  154.8355 C   0  0  0  0  0  0  0  0  0  0  0  0
  152.5896  139.4499  155.3336 C   0  0  0  0  0  0  0  0  0  0  0  0
  151.8765  140.2831  156.3112 N   0  0  0  0  0  0  0  0  0  0  0  0
  152.1079  140.3177  157.6473 C   0  0  0  0  0  0  0  0  0  0  0  0
  152.9467  139.5945  158.1871 O   0  0  0  0  0  0  0  0  0  0  0  0
  151.3163  141.3044  158.4511 C   0  0  0  0  0  0  0  0  0  0  0  0
  151.3918  142.7724  158.0707 C   0  0  0  0  0  0  0  0  0  0  0  0
  152.1001  142.2787  159.3049 C   0  0  0  0  0  0  0  0  0  0  0  0
  150.7754  141.0198  155.6783 C   0  0  0  0  0  0  0  0  0  0  0  0
  149.7249  140.0089  155.1816 C   0  0  0  0  0  0  0  0  0  0  0  0
  146.7881  133.0893  151.1237 H   0  0  0  0  0  0  0  0  0  0  0  0
  145.2039  133.2572  151.8719 H   0  0  0  0  0  0  0  0  0  0  0  0
  146.4450  132.2242  152.6176 H   0  0  0  0  0  0  0  0  0  0  0  0
  143.9463  133.3321  156.0750 H   0  0  0  0  0  0  0  0  0  0  0  0
  144.7273  135.2213  157.5250 H   0  0  0  0  0  0  0  0  0  0  0  0
  146.5394  136.7007  156.6948 H   0  0  0  0  0  0  0  0  0  0  0  0
  147.8893  136.3218  153.2146 H   0  0  0  0  0  0  0  0  0  0  0  0
  149.3832  137.5641  152.9769 H   0  0  0  0  0  0  0  0  0  0  0  0
  150.6347  139.4658  153.3044 H   0  0  0  0  0  0  0  0  0  0  0  0
  151.3798  137.6946  155.6690 H   0  0  0  0  0  0  0  0  0  0  0  0
  152.1392  137.7288  154.0945 H   0  0  0  0  0  0  0  0  0  0  0  0
  153.5101  139.0105  155.7160 H   0  0  0  0  0  0  0  0  0  0  0  0
  152.9029  140.0729  154.4947 H   0  0  0  0  0  0  0  0  0  0  0  0
  150.3521  140.9642  158.8249 H   0  0  0  0  0  0  0  0  0  0  0  0
  152.0155  143.0746  157.2313 H   0  0  0  0  0  0  0  0  0  0  0  0
  150.4879  143.3634  158.2042 H   0  0  0  0  0  0  0  0  0  0  0  0
  151.6785  142.5339  160.2750 H   0  0  0  0  0  0  0  0  0  0  0  0
  153.1873  142.2303  159.2726 H   0  0  0  0  0  0  0  0  0  0  0  0
  150.3045  141.7399  156.3486 H   0  0  0  0  0  0  0  0  0  0  0  0
  151.1607  141.6036  154.8409 H   0  0  0  0  0  0  0  0  0  0  0  0
  148.9129  140.5359  154.6791 H   0  0  0  0  0  0  0  0  0  0  0  0
  149.2804  139.5065  156.0422 H   0  0  0  0  0  0  0  0  0  0  0  0
  1  2  1  0  0  0  0
  1 24  1  0  0  0  0
  1 25  1  0  0  0  0
  1 26  1  0  0  0  0
  2  3  1  0  0  0  0
  3  8  1  0  0  0  0
  3  4  2  0  0  0  0
  4  5  1  0  0  0  0
  5  6  2  0  0  0  0
  5 27  1  0  0  0  0
  6  7  1  0  0  0  0
  6 28  1  0  0  0  0
  7  8  2  0  0  0  0
  7 29  1  0  0  0  0
  8  9  1  0  0  0  0
  9 10  1  0  0  0  0
  9 30  1  0  0  0  0
 10 11  2  0  0  0  0
 10 12  1  0  0  0  0
 12 13  1  0  0  0  0
 12 31  1  0  0  0  0
 13 23  1  0  0  0  0
 13 14  1  0  0  0  0
 13 32  1  0  0  0  0
 14 15  1  0  0  0  0
 14 33  1  0  0  0  0
 14 34  1  0  0  0  0
 15 16  1  0  0  0  0
 15 35  1  0  0  0  0
 15 36  1  0  0  0  0
 16 17  1  0  0  0  0
 16 22  1  0  0  0  0
 17 18  2  0  0  0  0
 17 19  1  0  0  0  0
 19 21  1  0  0  0  0
 19 20  1  0  0  0  0
 19 37  1  0  0  0  0
 20 21  1  0  0  0  0
 20 38  1  0  0  0  0
 20 39  1  0  0  0  0
 21 40  1  0  0  0  0
 21 41  1  0  0  0  0
 22 23  1  0  0  0  0
 22 42  1  0  0  0  0
 22 43  1  0  0  0  0
 23 44  1  0  0  0  0
 23 45  1  0  0  0  0
M  END
> <s_m_source_file>
AV-unprocessed.smi

> <i_m_source_file_index>
1148

> <i_lp_mmshare_version>
43012

> <i_f3d_flags>
0

> <s_epik_input>
W0NIM11PYzFuW2NIXVtjSF1bY0hdYzFbTkhdQyg9TylbTkhdW0NIXTJbQ0gyXVtDSDJdTihbQ0gyXVtDSDJdMilDKD1PKVtDSF0zW0NIMl1bQ0gyXTM=

> <s_epik_cmdline>
J2VwaWtfcHl0aG9uJywgJy1waCcsICc3LjAnLCAnLXRuJywgJzgnLCAnLW1hJywgJzIwMCcsICctbWV0YWxfYmluZGluZycsICctaW1hZScsICc8aW5maWxlLm1hZT4nLCAnLW9tYWUnLCAnPG91dGZpbGUubWFlPic=

> <r_lp_tautomer_probability>
1

> <r_epik_Ionization_Penalty>
9.48164e-05

> <r_epik_Ionization_Penalty_Charging>
0

> <r_epik_Ionization_Penalty_Neutral>
9.48164e-05

> <r_epik_State_Penalty>
-0

> <r_epik_Charging_Adjusted_Penalty>
0

> <i_epik_Tot_Q>
0

> <i_epik_Tot_abs_Q>
0

> <r_epik_Metal_State_Penalty>
-0

> <b_epik_Metal_Only>
0

> <s_lp_Force_Field>
OPLS_2005

> <r_lp_Energy>
31.242

> <b_lp_Chiralities_Consistent>
1

> <s_lp_Variant>
AV-unprocessed.smi:1148-1

> <Gold.Version>
5.8.1

> <Gold.Id.Protein>
6NUR|6NUR_protein|mol2

> <Gold.PLP.Fitness>
39.8744

> <Gold.PLP.PLP>
-28.8813

> <Gold.PLP.part.hbond>
-3.0000

> <Gold.PLP.part.metal>
0.0000

> <Gold.PLP.part.buried>
-0.5537

> <Gold.PLP.part.nonpolar>
-25.3387

> <Gold.PLP.part.repulsive>
0.7656

> <Gold.PLP.ligand.clash>
0.0000

> <Gold.PLP.ligand.torsion>
0.4036

> <Gold.PLP.Chemscore.Hbond>
3.0000

> <Gold.PLP.Chemscore.CHOScore>
0.8948

> <Gold.PLP.Chemscore.Metal>
0.0000

> <Gold.Chemscore.Hbonds>
donor molecule, donor type, donor heavy atom, donor atom, acceptor molecule, acceptor atom, score
      L1  H     9    30       P1  7948  0.96
      L1  H    12    31       P1  7948  0.98
      P1  H  7997  8008       L1    18  0.88
      L1  C     5    27       P1 10957  0.99

> <Gold.PLP.Chemscore.Internal.Correction>
0.1158

> <Gold.Rescore>
     Score         DG    S(hbond)    S(metal)    S(lipo)     H(rot)  DE(clash)    DE(int)     intcor
     15.10     -19.33       2.78        0.00      70.97       1.46       0.46       3.78       ----

> <Gold.Chemscore.Fitness>
15.0966

> <Gold.Chemscore.DG>
-19.3323

> <Gold.Chemscore.ZeroCoef>
-5.4800

> <Gold.Chemscore.Hbond>
2.7776

> <Gold.Chemscore.Metal>
0.0000

> <Gold.Chemscore.Lipo>
70.9704

> <Gold.Chemscore.Internal_Hbond>
0.0000

> <Gold.Chemscore.DEClash>
0.4605

> <Gold.Chemscore.DEInternal>
3.7752

> <Gold.Chemscore.Rot>
1.4564

> <Gold.Chemscore.Internal.Correction>
   9.000000E+99

> <Gold.Chemscore.Hbonds>
donor molecule, donor type, donor heavy atom, donor atom, acceptor molecule, acceptor atom, score
      L1  H     9    30       P1  7948  0.92
      L1  H    12    31       P1  7948  0.85
      P1  H  7997  8008       L1    18  0.19

> <Gold.Chemscore.Hbond.Weighted>
-9.2773

> <Gold.Chemscore.Metal.Weighted>
-0.0000

> <Gold.Chemscore.Lipo.Weighted>
-8.3035

> <Gold.Chemscore.Internal_Hbond.Weighted>
0.0000

> <Gold.Chemscore.DEClash.Weighted>
0.4605

> <Gold.Chemscore.DEInternal.Weighted>
3.7752

> <Gold.Chemscore.Rot.Weighted>
3.7285

> <Gold.Chemscore.Internal.Correction.Weighted>
   9.000000E+99

> <Gold.Protein.RotatedTorsions>
[ 6907 6896 6895 6894 ] final   68.16 input  -60.11 | X-H torsion
[ 7974 7965 7964 7962 ] final   78.94 input  175.53 | X-H torsion
[ 8008 7997 7996 7995 ] final  -83.37 input   59.86 | X-H torsion
[ 10167 10162 10161 10158 ] final  148.51 input  -65.29 | X-H torsion
[ 10718 10713 10712 10709 ] final -113.97 input   66.30 | X-H torsion
[ 10763 10752 10751 10750 ] final   58.35 input  -60.55 | X-H torsion
[ 11005 11000 10999 10996 ] final   51.58 input  -57.11 | X-H torsion

> <Gold.Protein.ActiveResidues>
 VAL166  LYS551  ARG553  GLY616  TRP617  ASP618  TYR619  PRO620  LYS621  CYS622 
 ASP623  PHE694  ASN695  SER759  ASP760  ASP761  ALA762  ILE779  LEU786  VAL792 
 PHE793  MET794  SER795  GLU796  ALA797  LYS798  CYS799  TRP800  GLU811  SER814 

> <Gold.Protein.RotatedAtoms>
  152.4601  134.5203  159.9780 H   0  0  0  0  0  0  0  0  0  0  0  0  # atno 6907 bound_to 6896
  151.5254  133.3453  159.2916 H   0  0  0  0  0  0  0  0  0  0  0  0  # atno 6908 bound_to 6896
  150.8561  134.7930  159.7109 H   0  0  0  0  0  0  0  0  0  0  0  0  # atno 6909 bound_to 6896
  145.6707  139.2496  143.1870 H   0  0  0  0  0  0  0  0  0  0  0  0  # atno 7974 bound_to 7965
  154.6184  140.0620  156.9583 H   0  0  0  0  0  0  0  0  0  0  0  0  # atno 8008 bound_to 7997
  155.1858  140.3303  155.4349 H   0  0  0  0  0  0  0  0  0  0  0  0  # atno 8009 bound_to 7997
  156.2417  140.1889  156.6951 H   0  0  0  0  0  0  0  0  0  0  0  0  # atno 8010 bound_to 7997
  139.4874  144.5674  151.7119 H   0  0  0  0  0  0  0  0  0  0  0  0  # atno 10167 bound_to 10162
  156.0800  130.6002  150.8713 H   0  0  0  0  0  0  0  0  0  0  0  0  # atno 10718 bound_to 10713
  152.9869  135.5610  154.5537 H   0  0  0  0  0  0  0  0  0  0  0  0  # atno 10763 bound_to 10752
  154.4969  135.2795  155.1454 H   0  0  0  0  0  0  0  0  0  0  0  0  # atno 10764 bound_to 10752
  154.2900  135.6328  153.5434 H   0  0  0  0  0  0  0  0  0  0  0  0  # atno 10765 bound_to 10752
  140.0921  134.5195  155.8842 H   0  0  0  0  0  0  0  0  0  0  0  0  # atno 11005 bound_to 11000
  146.1048  140.7500  142.9531 LP  0  0  0  0  0  0  0  0  0  0  0  0  # atno 17320 bound_to 7965
  144.7058  140.3845  143.7119 LP  0  0  0  0  0  0  0  0  0  0  0  0  # atno 17321 bound_to 7965
  140.5255  144.0813  150.6036 LP  0  0  0  0  0  0  0  0  0  0  0  0  # atno 17342 bound_to 10162
  140.3785  143.2815  152.0197 LP  0  0  0  0  0  0  0  0  0  0  0  0  # atno 17343 bound_to 10162
  157.5913  131.0944  150.9114 LP  0  0  0  0  0  0  0  0  0  0  0  0  # atno 17370 bound_to 10713
  156.9289  130.5342  149.5279 LP  0  0  0  0  0  0  0  0  0  0  0  0  # atno 17371 bound_to 10713
  141.2081  133.6670  156.6348 LP  0  0  0  0  0  0  0  0  0  0  0  0  # atno 17394 bound_to 11000
  140.3338  134.7906  157.4346 LP  0  0  0  0  0  0  0  0  0  0  0  0  # atno 17395 bound_to 11000

$$$$
