AV-unprocessed.smi:869|AV-procd|sdf|4004|dock7
  -GOLD-   22720 1493D 1   1.00000     0.00000
 Structure written by MMmdl.
 46 48  0  0  0  0  0  0  0  0  1 V2000
  152.1563  139.5053  156.2260 C   0  0  0  0  0  0  0  0  0  0  0  0
  153.0920  139.2516  157.2587 O   0  0  0  0  0  0  0  0  0  0  0  0
  152.5267  139.4015  158.5516 C   0  0  0  0  0  0  0  0  0  0  0  0
  152.3491  140.8725  158.7994 C   0  0  0  0  0  0  0  0  0  0  0  0
  151.8051  141.6782  157.8845 N   0  0  0  0  0  0  0  0  0  0  0  0
  151.8300  142.9108  158.5055 C   0  0  0  0  0  0  0  0  0  0  0  0
  151.3872  144.1754  158.0559 C   0  0  0  0  0  0  0  0  0  0  0  0
  151.5184  145.3121  158.8802 C   0  0  0  0  0  0  0  0  0  0  0  0
  152.0934  145.2008  160.1629 C   0  0  0  0  0  0  0  0  0  0  0  0
  152.5421  143.9502  160.6292 C   0  0  0  0  0  0  0  0  0  0  0  0
  152.4084  142.8187  159.8022 C   0  0  0  0  0  0  0  0  0  0  0  0
  152.7409  141.4759  159.9523 N   0  0  0  0  0  0  0  0  0  0  0  0
  153.3765  140.8876  161.1239 C   0  0  0  0  0  0  0  0  0  0  0  0
  154.6391  140.0765  160.7656 C   0  0  1  0  0  0  0  0  0  0  0  0
  155.7552  140.9105  160.5261 O   0  0  0  0  0  0  0  0  0  0  0  0
  155.0162  139.0229  161.8197 C   0  0  0  0  0  0  0  0  0  0  0  0
  154.7432  137.7195  161.3191 O   0  0  0  0  0  0  0  0  0  0  0  0
  154.6037  136.6874  162.2218 C   0  0  0  0  0  0  0  0  0  0  0  0
  154.1568  137.0259  163.5156 C   0  0  0  0  0  0  0  0  0  0  0  0
  153.9855  136.0357  164.5018 C   0  0  0  0  0  0  0  0  0  0  0  0
  154.2603  134.6868  164.2043 C   0  0  0  0  0  0  0  0  0  0  0  0
  154.0782  133.6253  165.2693 C   0  0  0  0  0  0  0  0  0  0  0  0
  154.7083  134.3366  162.9148 C   0  0  0  0  0  0  0  0  0  0  0  0
  154.8790  135.3279  161.9286 C   0  0  0  0  0  0  0  0  0  0  0  0
  152.6411  139.3880  155.2568 H   0  0  0  0  0  0  0  0  0  0  0  0
  151.7663  140.5223  156.2862 H   0  0  0  0  0  0  0  0  0  0  0  0
  151.3205  138.8056  156.2718 H   0  0  0  0  0  0  0  0  0  0  0  0
  151.5756  138.8723  158.5932 H   0  0  0  0  0  0  0  0  0  0  0  0
  153.1854  138.9870  159.3161 H   0  0  0  0  0  0  0  0  0  0  0  0
  150.9450  144.2700  157.0751 H   0  0  0  0  0  0  0  0  0  0  0  0
  151.1756  146.2735  158.5268 H   0  0  0  0  0  0  0  0  0  0  0  0
  152.1895  146.0761  160.7884 H   0  0  0  0  0  0  0  0  0  0  0  0
  152.9829  143.8613  161.6112 H   0  0  0  0  0  0  0  0  0  0  0  0
  153.5948  141.6692  161.8509 H   0  0  0  0  0  0  0  0  0  0  0  0
  152.6503  140.2338  161.6084 H   0  0  0  0  0  0  0  0  0  0  0  0
  154.4543  139.5515  159.8275 H   0  0  0  0  0  0  0  0  0  0  0  0
  155.4537  141.6993  160.1018 H   0  0  0  0  0  0  0  0  0  0  0  0
  156.0833  139.1059  162.0322 H   0  0  0  0  0  0  0  0  0  0  0  0
  154.4766  139.2086  162.7501 H   0  0  0  0  0  0  0  0  0  0  0  0
  153.9428  138.0572  163.7551 H   0  0  0  0  0  0  0  0  0  0  0  0
  153.6429  136.3148  165.4876 H   0  0  0  0  0  0  0  0  0  0  0  0
  154.1425  132.6225  164.8458 H   0  0  0  0  0  0  0  0  0  0  0  0
  153.1036  133.7290  165.7473 H   0  0  0  0  0  0  0  0  0  0  0  0
  154.8488  133.7240  166.0342 H   0  0  0  0  0  0  0  0  0  0  0  0
  154.9239  133.3055  162.6757 H   0  0  0  0  0  0  0  0  0  0  0  0
  155.2242  135.0184  160.9538 H   0  0  0  0  0  0  0  0  0  0  0  0
  1  2  1  0  0  0  0
  1 25  1  0  0  0  0
  1 26  1  0  0  0  0
  1 27  1  0  0  0  0
  2  3  1  0  0  0  0
  3  4  1  0  0  0  0
  3 28  1  0  0  0  0
  3 29  1  0  0  0  0
  4 12  1  0  0  0  0
  4  5  2  0  0  0  0
  5  6  1  0  0  0  0
  6 11  2  0  0  0  0
  6  7  1  0  0  0  0
  7  8  2  0  0  0  0
  7 30  1  0  0  0  0
  8  9  1  0  0  0  0
  8 31  1  0  0  0  0
  9 10  2  0  0  0  0
  9 32  1  0  0  0  0
 10 11  1  0  0  0  0
 10 33  1  0  0  0  0
 11 12  1  0  0  0  0
 12 13  1  0  0  0  0
 13 14  1  0  0  0  0
 13 34  1  0  0  0  0
 13 35  1  0  0  0  0
 14 15  1  0  0  0  0
 14 16  1  0  0  0  0
 14 36  1  0  0  0  0
 15 37  1  0  0  0  0
 16 17  1  0  0  0  0
 16 38  1  0  0  0  0
 16 39  1  0  0  0  0
 17 18  1  0  0  0  0
 18 24  1  0  0  0  0
 18 19  2  0  0  0  0
 19 20  1  0  0  0  0
 19 40  1  0  0  0  0
 20 21  2  0  0  0  0
 20 41  1  0  0  0  0
 21 22  1  0  0  0  0
 21 23  1  0  0  0  0
 22 42  1  0  0  0  0
 22 43  1  0  0  0  0
 22 44  1  0  0  0  0
 23 24  2  0  0  0  0
 23 45  1  0  0  0  0
 24 46  1  0  0  0  0
M  END
> <s_m_source_file>
AV-unprocessed.smi

> <i_m_source_file_index>
869

> <i_lp_mmshare_version>
43012

> <i_f3d_flags>
0

> <s_epik_input>
W2NIXTFbY0hdW2NIXVtjSF1jKGMxMiluKGMobjIpW0NIMl1PW0NIM10pW0NIMl1bQ0BIXShbT0hdKVtDSDJdT2MzW2NIXVtjSF1jKFtDSDNdKVtjSF1bY0hdMw==

> <s_epik_cmdline>
J2VwaWtfcHl0aG9uJywgJy1waCcsICc3LjAnLCAnLXRuJywgJzgnLCAnLW1hJywgJzIwMCcsICctbWV0YWxfYmluZGluZycsICctaW1hZScsICc8aW5maWxlLm1hZT4nLCAnLW9tYWUnLCAnPG91dGZpbGUubWFlPic=

> <r_lp_tautomer_probability>
1

> <r_epik_Ionization_Penalty>
0.0446698

> <r_epik_Ionization_Penalty_Charging>
0

> <r_epik_Ionization_Penalty_Neutral>
0.0446698

> <r_epik_State_Penalty>
0.0378721

> <r_epik_Charging_Adjusted_Penalty>
0.0378721

> <i_epik_Tot_Q>
0

> <i_epik_Tot_abs_Q>
0

> <r_epik_Metal_State_Penalty>
3.91074e-05

> <b_epik_Metal_Only>
0

> <s_lp_Force_Field>
OPLS_2005

> <r_lp_Energy>
18.5204

> <b_lp_Chiralities_Consistent>
1

> <s_lp_Variant>
AV-unprocessed.smi:869-2

> <Gold.Version>
5.8.1

> <Gold.Id.Protein>
6NUR|6NUR_protein|mol2

> <Gold.PLP.Fitness>
55.9555

> <Gold.PLP.PLP>
-56.1067

> <Gold.PLP.part.hbond>
-2.0000

> <Gold.PLP.part.metal>
0.0000

> <Gold.PLP.part.buried>
-4.1873

> <Gold.PLP.part.nonpolar>
-49.9988

> <Gold.PLP.part.repulsive>
0.0098

> <Gold.PLP.ligand.clash>
0.0000

> <Gold.PLP.ligand.torsion>
1.6066

> <Gold.PLP.Chemscore.Hbond>
1.0000

> <Gold.PLP.Chemscore.CHOScore>
0.0000

> <Gold.PLP.Chemscore.Metal>
0.0000

> <Gold.Chemscore.Hbonds>
donor molecule, donor type, donor heavy atom, donor atom, acceptor molecule, acceptor atom, score
      P1  H  7997  8010       L1     2  1.00

> <Gold.PLP.Chemscore.Internal.Correction>
0.0620

> <Gold.Rescore>
     Score         DG    S(hbond)    S(metal)    S(lipo)     H(rot)  DE(clash)    DE(int)     intcor
     19.00     -20.75       0.93        0.00     155.57       2.36       0.06       1.68       ----

> <Gold.Chemscore.Fitness>
19.0033

> <Gold.Chemscore.DG>
-20.7460

> <Gold.Chemscore.ZeroCoef>
-5.4800

> <Gold.Chemscore.Hbond>
0.9288

> <Gold.Chemscore.Metal>
0.0000

> <Gold.Chemscore.Lipo>
155.5695

> <Gold.Chemscore.Internal_Hbond>
0.0000

> <Gold.Chemscore.DEClash>
0.0616

> <Gold.Chemscore.DEInternal>
1.6811

> <Gold.Chemscore.Rot>
2.3585

> <Gold.Chemscore.Internal.Correction>
   9.000000E+99

> <Gold.Chemscore.Hbonds>
donor molecule, donor type, donor heavy atom, donor atom, acceptor molecule, acceptor atom, score
      P1  H  7997  8010       L1     2  0.78

> <Gold.Chemscore.Hbond.Weighted>
-3.1022

> <Gold.Chemscore.Metal.Weighted>
-0.0000

> <Gold.Chemscore.Lipo.Weighted>
-18.2016

> <Gold.Chemscore.Internal_Hbond.Weighted>
0.0000

> <Gold.Chemscore.DEClash.Weighted>
0.0616

> <Gold.Chemscore.DEInternal.Weighted>
1.6811

> <Gold.Chemscore.Rot.Weighted>
6.0378

> <Gold.Chemscore.Internal.Correction.Weighted>
   9.000000E+99

> <Gold.Protein.RotatedTorsions>
[ 6907 6896 6895 6894 ] final  117.41 input  -60.11 | X-H torsion
[ 7974 7965 7964 7962 ] final  -51.84 input  175.53 | X-H torsion
[ 8008 7997 7996 7995 ] final   32.57 input   59.86 | X-H torsion
[ 10167 10162 10161 10158 ] final -137.40 input  -65.29 | X-H torsion
[ 10718 10713 10712 10709 ] final  -75.60 input   66.30 | X-H torsion
[ 10763 10752 10751 10750 ] final    2.64 input  -60.55 | X-H torsion
[ 11005 11000 10999 10996 ] final  123.94 input  -57.11 | X-H torsion

> <Gold.Protein.ActiveResidues>
 VAL166  LYS551  ARG553  GLY616  TRP617  ASP618  TYR619  PRO620  LYS621  CYS622 
 ASP623  PHE694  ASN695  SER759  ASP760  ASP761  ALA762  ILE779  LEU786  VAL792 
 PHE793  MET794  SER795  GLU796  ALA797  LYS798  CYS799  TRP800  GLU811  SER814 

> <Gold.Protein.RotatedAtoms>
  152.4614  133.7830  159.6860 H   0  0  0  0  0  0  0  0  0  0  0  0  # atno 6907 bound_to 6896
  150.8559  133.7706  159.3015 H   0  0  0  0  0  0  0  0  0  0  0  0  # atno 6908 bound_to 6896
  151.5286  135.1071  159.9949 H   0  0  0  0  0  0  0  0  0  0  0  0  # atno 6909 bound_to 6896
  145.9145  140.7886  142.9678 H   0  0  0  0  0  0  0  0  0  0  0  0  # atno 7974 bound_to 7965
  155.1246  140.3251  155.4489 H   0  0  0  0  0  0  0  0  0  0  0  0  # atno 8008 bound_to 7997
  156.2653  140.2021  156.6315 H   0  0  0  0  0  0  0  0  0  0  0  0  # atno 8009 bound_to 7997
  154.6658  140.0542  157.0099 H   0  0  0  0  0  0  0  0  0  0  0  0  # atno 8010 bound_to 7997
  139.8581  143.7112  152.2652 H   0  0  0  0  0  0  0  0  0  0  0  0  # atno 10167 bound_to 10162
  156.0202  130.4445  150.3067 H   0  0  0  0  0  0  0  0  0  0  0  0  # atno 10718 bound_to 10713
  153.2930  135.6950  153.7274 H   0  0  0  0  0  0  0  0  0  0  0  0  # atno 10763 bound_to 10752
  153.6218  135.3426  155.3014 H   0  0  0  0  0  0  0  0  0  0  0  0  # atno 10764 bound_to 10752
  154.8529  135.4388  154.2019 H   0  0  0  0  0  0  0  0  0  0  0  0  # atno 10765 bound_to 10752
  139.9335  134.9640  156.8334 H   0  0  0  0  0  0  0  0  0  0  0  0  # atno 11005 bound_to 11000
  144.6746  140.1879  143.7399 LP  0  0  0  0  0  0  0  0  0  0  0  0  # atno 17320 bound_to 7965
  145.8628  139.2232  143.1706 LP  0  0  0  0  0  0  0  0  0  0  0  0  # atno 17321 bound_to 7965
  139.7400  144.7562  151.0668 LP  0  0  0  0  0  0  0  0  0  0  0  0  # atno 17342 bound_to 10162
  140.7779  143.4984  150.9803 LP  0  0  0  0  0  0  0  0  0  0  0  0  # atno 17343 bound_to 10162
  157.1170  131.0236  151.3025 LP  0  0  0  0  0  0  0  0  0  0  0  0  # atno 17370 bound_to 10713
  157.4659  130.7680  149.7278 LP  0  0  0  0  0  0  0  0  0  0  0  0  # atno 17371 bound_to 10713
  140.6137  134.0059  155.7588 LP  0  0  0  0  0  0  0  0  0  0  0  0  # atno 17394 bound_to 11000
  141.0937  133.9876  157.3195 LP  0  0  0  0  0  0  0  0  0  0  0  0  # atno 17395 bound_to 11000

$$$$
