AV-unprocessed.smi:1748|AV-procd|sdf|7036|dock1
  -GOLD-   22720 8253D 1   1.00000     0.00000
 Structure written by MMmdl.
 40 41  0  0  0  0  0  0  0  0  2 V2000
  146.1669  135.5972  153.1854 C   0  0  0  0  0  0  0  0  0  0  0  0
  146.8380  136.9110  153.0845 N   0  3  1  0  0  0  0  0  0  0  0  0
  146.0260  137.9058  152.3402 C   0  0  0  0  0  0  0  0  0  0  0  0
  146.8058  139.2165  152.1428 C   0  0  0  0  0  0  0  0  0  0  0  0
  147.2812  139.7840  153.4876 C   0  0  0  0  0  0  0  0  0  0  0  0
  148.0920  138.7254  154.2527 C   0  0  1  0  0  0  0  0  0  0  0  0
  148.4867  139.2492  155.5568 N   0  0  0  0  0  0  0  0  0  0  0  0
  149.6460  139.8686  155.8207 C   0  0  0  0  0  0  0  0  0  0  0  0
  150.5188  140.0505  154.9723 O   0  0  0  0  0  0  0  0  0  0  0  0
  149.7151  140.2279  157.1155 N   0  0  0  0  0  0  0  0  0  0  0  0
  150.7341  140.9177  157.7941 C   0  0  0  0  0  0  0  0  0  0  0  0
  150.6778  142.2254  158.1591 C   0  0  0  0  0  0  0  0  0  0  0  0
  151.7654  142.8745  158.8729 C   0  0  0  0  0  0  0  0  0  0  0  0
  151.6717  144.3219  159.3308 C   0  0  0  0  0  0  0  0  0  0  0  0
  150.4400  144.8023  159.1545 F   0  0  0  0  0  0  0  0  0  0  0  0
  151.9678  144.4067  160.6269 F   0  0  0  0  0  0  0  0  0  0  0  0
  152.5229  145.0969  158.6582 F   0  0  0  0  0  0  0  0  0  0  0  0
  152.8248  142.1041  159.1813 C   0  0  0  0  0  0  0  0  0  0  0  0
  152.8914  140.7599  158.8083 N   0  0  0  0  0  0  0  0  0  0  0  0
  151.9158  140.1087  158.1363 C   0  0  0  0  0  0  0  0  0  0  0  0
  152.0467  138.9193  157.8487 O   0  0  0  0  0  0  0  0  0  0  0  0
  147.2728  137.4260  154.4066 C   0  0  0  0  0  0  0  0  0  0  0  0
  153.7245  140.2518  159.0687 H   0  0  0  0  0  0  0  0  0  0  0  0
  145.2427  135.6726  153.7598 H   0  0  0  0  0  0  0  0  0  0  0  0
  146.8157  134.8699  153.6745 H   0  0  0  0  0  0  0  0  0  0  0  0
  145.9243  135.2116  152.1947 H   0  0  0  0  0  0  0  0  0  0  0  0
  145.7486  137.4976  151.3675 H   0  0  0  0  0  0  0  0  0  0  0  0
  145.0976  138.0982  152.8803 H   0  0  0  0  0  0  0  0  0  0  0  0
  147.6664  139.0370  151.4967 H   0  0  0  0  0  0  0  0  0  0  0  0
  146.1815  139.9483  151.6296 H   0  0  0  0  0  0  0  0  0  0  0  0
  147.8846  140.6776  153.3218 H   0  0  0  0  0  0  0  0  0  0  0  0
  146.4179  140.0942  154.0785 H   0  0  0  0  0  0  0  0  0  0  0  0
  148.9941  138.5083  153.6768 H   0  0  0  0  0  0  0  0  0  0  0  0
  147.8259  139.1376  156.3122 H   0  0  0  0  0  0  0  0  0  0  0  0
  148.9448  139.9412  157.7022 H   0  0  0  0  0  0  0  0  0  0  0  0
  149.8090  142.8247  157.9423 H   0  0  0  0  0  0  0  0  0  0  0  0
  153.6872  142.4493  159.7325 H   0  0  0  0  0  0  0  0  0  0  0  0
  146.3978  137.5991  155.0359 H   0  0  0  0  0  0  0  0  0  0  0  0
  147.8749  136.6642  154.9040 H   0  0  0  0  0  0  0  0  0  0  0  0
  147.6786  136.7622  152.5443 H   0  0  0  0  0  0  0  0  0  0  0  0
  1  2  1  0  0  0  0
  1 24  1  0  0  0  0
  1 25  1  0  0  0  0
  1 26  1  0  0  0  0
  2 22  1  0  0  0  0
  2  3  1  0  0  0  0
  2 40  1  0  0  0  0
  3  4  1  0  0  0  0
  3 27  1  0  0  0  0
  3 28  1  0  0  0  0
  4  5  1  0  0  0  0
  4 29  1  0  0  0  0
  4 30  1  0  0  0  0
  5  6  1  0  0  0  0
  5 31  1  0  0  0  0
  5 32  1  0  0  0  0
  6  7  1  0  0  0  0
  6 22  1  0  0  0  0
  6 33  1  0  0  0  0
  7  8  1  0  0  0  0
  7 34  1  0  0  0  0
  8  9  2  0  0  0  0
  8 10  1  0  0  0  0
 10 11  1  0  0  0  0
 10 35  1  0  0  0  0
 11 20  1  0  0  0  0
 11 12  2  0  0  0  0
 12 13  1  0  0  0  0
 12 36  1  0  0  0  0
 13 14  1  0  0  0  0
 13 18  2  0  0  0  0
 14 15  1  0  0  0  0
 14 16  1  0  0  0  0
 14 17  1  0  0  0  0
 18 19  1  0  0  0  0
 18 37  1  0  0  0  0
 19 23  1  0  0  0  0
 19 20  1  0  0  0  0
 20 21  2  0  0  0  0
 22 38  1  0  0  0  0
 22 39  1  0  0  0  0
M  CHG  1   2   1
M  END
> <s_m_source_file>
AV-unprocessed.smi

> <i_m_source_file_index>
1748

> <i_lp_mmshare_version>
43012

> <i_f3d_flags>
0

> <s_epik_input>
W0NIM11OMVtDSDJdW0NIMl1bQ0gyXVtDQEhdKFtDSDJdMSlbTkhdQyg9TylbTkhdYzJbY0hdYyhDKEYpKEYpRilbY0hdW25IXWMyPU8=

> <s_epik_cmdline>
J2VwaWtfcHl0aG9uJywgJy1waCcsICc3LjAnLCAnLXRuJywgJzgnLCAnLW1hJywgJzIwMCcsICctbWV0YWxfYmluZGluZycsICctaW1hZScsICc8aW5maWxlLm1hZT4nLCAnLW9tYWUnLCAnPG91dGZpbGUubWFlPic=

> <r_lp_tautomer_probability>
1

> <r_epik_Ionization_Penalty>
0.00746315

> <r_epik_Ionization_Penalty_Charging>
0.00744398

> <r_epik_Ionization_Penalty_Neutral>
1.91704e-05

> <r_epik_State_Penalty>
-0

> <r_epik_Charging_Adjusted_Penalty>
0.00744398

> <i_epik_Tot_Q>
1

> <i_epik_Tot_abs_Q>
1

> <r_epik_Metal_State_Penalty>
0.379332

> <b_epik_Metal_Only>
0

> <s_lp_Force_Field>
OPLS_2005

> <r_lp_Energy>
25.304

> <b_lp_Chiralities_Consistent>
1

> <s_lp_Variant>
AV-unprocessed.smi:1748-1

> <Gold.Version>
5.8.1

> <Gold.Id.Protein>
6NUR|6NUR_protein|mol2

> <Gold.PLP.Fitness>
44.2341

> <Gold.PLP.PLP>
-37.9835

> <Gold.PLP.part.hbond>
-1.9685

> <Gold.PLP.part.metal>
0.0000

> <Gold.PLP.part.buried>
-4.0435

> <Gold.PLP.part.nonpolar>
-32.8574

> <Gold.PLP.part.repulsive>
0.2068

> <Gold.PLP.ligand.clash>
0.0000

> <Gold.PLP.ligand.torsion>
1.3672

> <Gold.PLP.Chemscore.Hbond>
2.9825

> <Gold.PLP.Chemscore.CHOScore>
0.0000

> <Gold.PLP.Chemscore.Metal>
0.0000

> <Gold.Chemscore.Hbonds>
donor molecule, donor type, donor heavy atom, donor atom, acceptor molecule, acceptor atom, score
      L1  H     2    40       P1  7948  2.00
      P1  H  7989  7998       L1     9  1.00

> <Gold.PLP.Chemscore.Internal.Correction>
0.0375

> <Gold.Rescore>
     Score         DG    S(hbond)    S(metal)    S(lipo)     H(rot)  DE(clash)    DE(int)     intcor
     16.95     -18.60       1.98        0.00      77.34       1.00       0.25       1.40       ----

> <Gold.Chemscore.Fitness>
16.9482

> <Gold.Chemscore.DG>
-18.5988

> <Gold.Chemscore.ZeroCoef>
-5.4800

> <Gold.Chemscore.Hbond>
1.9850

> <Gold.Chemscore.Metal>
0.0000

> <Gold.Chemscore.Lipo>
77.3408

> <Gold.Chemscore.Internal_Hbond>
0.0000

> <Gold.Chemscore.DEClash>
0.2503

> <Gold.Chemscore.DEInternal>
1.4004

> <Gold.Chemscore.Rot>
1.0000

> <Gold.Chemscore.Internal.Correction>
   9.000000E+99

> <Gold.Chemscore.Hbonds>
donor molecule, donor type, donor heavy atom, donor atom, acceptor molecule, acceptor atom, score
      L1  H     2    40       P1  7948  0.93
      P1  H  7989  7998       L1     9  0.94

> <Gold.Chemscore.Hbond.Weighted>
-6.6299

> <Gold.Chemscore.Metal.Weighted>
-0.0000

> <Gold.Chemscore.Lipo.Weighted>
-9.0489

> <Gold.Chemscore.Internal_Hbond.Weighted>
0.0000

> <Gold.Chemscore.DEClash.Weighted>
0.2503

> <Gold.Chemscore.DEInternal.Weighted>
1.4004

> <Gold.Chemscore.Rot.Weighted>
2.5600

> <Gold.Chemscore.Internal.Correction.Weighted>
   9.000000E+99

> <Gold.Protein.RotatedTorsions>
[ 6907 6896 6895 6894 ] final -125.73 input  -60.11 | X-H torsion
[ 7974 7965 7964 7962 ] final  -68.24 input  175.53 | X-H torsion
[ 8008 7997 7996 7995 ] final  144.60 input   59.86 | X-H torsion
[ 10167 10162 10161 10158 ] final  -42.10 input  -65.29 | X-H torsion
[ 10718 10713 10712 10709 ] final  -59.35 input   66.30 | X-H torsion
[ 10763 10752 10751 10750 ] final  137.56 input  -60.55 | X-H torsion
[ 11005 11000 10999 10996 ] final -114.94 input  -57.11 | X-H torsion

> <Gold.Protein.ActiveResidues>
 VAL166  LYS551  ARG553  GLY616  TRP617  ASP618  TYR619  PRO620  LYS621  CYS622 
 ASP623  PHE694  ASN695  SER759  ASP760  ASP761  ALA762  ILE779  LEU786  VAL792 
 PHE793  MET794  SER795  GLU796  ALA797  LYS798  CYS799  TRP800  GLU811  SER814 

> <Gold.Protein.RotatedAtoms>
  150.8897  133.7260  159.2908 H   0  0  0  0  0  0  0  0  0  0  0  0  # atno 6907 bound_to 6896
  151.4815  135.1051  159.9788 H   0  0  0  0  0  0  0  0  0  0  0  0  # atno 6908 bound_to 6896
  152.4812  133.8212  159.7110 H   0  0  0  0  0  0  0  0  0  0  0  0  # atno 6909 bound_to 6896
  145.7190  140.9046  143.0640 H   0  0  0  0  0  0  0  0  0  0  0  0  # atno 7974 bound_to 7965
  156.2904  140.2231  156.5079 H   0  0  0  0  0  0  0  0  0  0  0  0  # atno 8008 bound_to 7997
  154.7634  140.0471  157.1013 H   0  0  0  0  0  0  0  0  0  0  0  0  # atno 8009 bound_to 7997
  154.9963  140.3096  155.4889 H   0  0  0  0  0  0  0  0  0  0  0  0  # atno 8010 bound_to 7997
  140.6980  143.3057  151.3161 H   0  0  0  0  0  0  0  0  0  0  0  0  # atno 10167 bound_to 10162
  156.1068  130.4179  150.0703 H   0  0  0  0  0  0  0  0  0  0  0  0  # atno 10718 bound_to 10713
  153.8751  135.3051  155.3443 H   0  0  0  0  0  0  0  0  0  0  0  0  # atno 10763 bound_to 10752
  154.7787  135.4847  153.9802 H   0  0  0  0  0  0  0  0  0  0  0  0  # atno 10764 bound_to 10752
  153.1383  135.6819  153.9163 H   0  0  0  0  0  0  0  0  0  0  0  0  # atno 10765 bound_to 10752
  141.0519  133.9673  157.2821 H   0  0  0  0  0  0  0  0  0  0  0  0  # atno 11005 bound_to 11000
  144.6922  139.9176  143.7466 LP  0  0  0  0  0  0  0  0  0  0  0  0  # atno 17320 bound_to 7965
  146.0643  139.3635  143.0562 LP  0  0  0  0  0  0  0  0  0  0  0  0  # atno 17321 bound_to 7965
  139.6461  144.0448  152.2592 LP  0  0  0  0  0  0  0  0  0  0  0  0  # atno 17342 bound_to 10162
  139.9969  144.6321  150.7764 LP  0  0  0  0  0  0  0  0  0  0  0  0  # atno 17343 bound_to 10162
  156.8677  130.9513  151.3612 LP  0  0  0  0  0  0  0  0  0  0  0  0  # atno 17370 bound_to 10713
  157.6245  130.8681  149.9166 LP  0  0  0  0  0  0  0  0  0  0  0  0  # atno 17371 bound_to 10713
  139.9358  135.0196  156.8550 LP  0  0  0  0  0  0  0  0  0  0  0  0  # atno 17394 bound_to 11000
  140.6038  134.0147  155.7548 LP  0  0  0  0  0  0  0  0  0  0  0  0  # atno 17395 bound_to 11000

$$$$
