AV-unprocessed.smi:3326|AV-procd|sdf|12785|dock6
  -GOLD-   2272019133D 1   1.00000     0.00000
 Structure written by MMmdl.
 30 31  0  0  0  0  0  0  0  0  1 V2000
  152.0564  145.1180  159.5946 F   0  0  0  0  0  0  0  0  0  0  0  0
  151.5897  144.1891  158.7592 C   0  0  0  0  0  0  0  0  0  0  0  0
  150.2591  144.1884  158.8445 F   0  0  0  0  0  0  0  0  0  0  0  0
  151.9445  144.5316  157.5206 F   0  0  0  0  0  0  0  0  0  0  0  0
  152.1343  142.8024  159.0941 C   0  0  0  0  0  0  0  0  0  0  0  0
  152.9481  142.6103  160.2340 C   0  0  0  0  0  0  0  0  0  0  0  0
  153.4353  141.3233  160.5260 C   0  0  0  0  0  0  0  0  0  0  0  0
  153.0898  140.2689  159.6627 C   0  0  0  0  0  0  0  0  0  0  0  0
  152.3151  140.4343  158.5714 N   0  0  0  0  0  0  0  0  0  0  0  0
  151.8415  141.6720  158.2866 C   0  0  0  0  0  0  0  0  0  0  0  0
  151.0402  141.8206  157.1421 N   0  0  0  0  0  0  0  0  0  0  0  0
  150.5385  140.6609  156.4144 C   0  0  0  0  0  0  0  0  0  0  0  0
  149.7891  141.0596  155.1330 C   0  0  2  0  0  0  0  0  0  0  0  0
  148.5433  141.9012  155.3925 C   0  0  0  0  0  0  0  0  0  0  0  0
  147.7507  141.6640  154.1269 C   0  0  0  0  0  0  0  0  0  0  0  0
  148.0500  140.1959  153.8290 C   0  0  0  0  0  0  0  0  0  0  0  0
  149.2919  139.9031  154.4660 O   0  0  0  0  0  0  0  0  0  0  0  0
  153.2019  143.4331  160.8853 H   0  0  0  0  0  0  0  0  0  0  0  0
  154.0585  141.1497  161.3907 H   0  0  0  0  0  0  0  0  0  0  0  0
  153.4447  139.2668  159.8524 H   0  0  0  0  0  0  0  0  0  0  0  0
  150.5485  142.6934  157.0144 H   0  0  0  0  0  0  0  0  0  0  0  0
  151.3843  140.0203  156.1636 H   0  0  0  0  0  0  0  0  0  0  0  0
  149.8931  140.0684  157.0633 H   0  0  0  0  0  0  0  0  0  0  0  0
  150.4437  141.5999  154.4471 H   0  0  0  0  0  0  0  0  0  0  0  0
  147.9939  141.5214  156.2554 H   0  0  0  0  0  0  0  0  0  0  0  0
  148.7696  142.9537  155.5654 H   0  0  0  0  0  0  0  0  0  0  0  0
  146.6858  141.8680  154.2412 H   0  0  0  0  0  0  0  0  0  0  0  0
  148.1351  142.2947  153.3241 H   0  0  0  0  0  0  0  0  0  0  0  0
  147.2818  139.5508  154.2563 H   0  0  0  0  0  0  0  0  0  0  0  0
  148.0997  139.9987  152.7576 H   0  0  0  0  0  0  0  0  0  0  0  0
  1  2  1  0  0  0  0
  2  3  1  0  0  0  0
  2  4  1  0  0  0  0
  2  5  1  0  0  0  0
  5 10  1  0  0  0  0
  5  6  2  0  0  0  0
  6  7  1  0  0  0  0
  6 18  1  0  0  0  0
  7  8  2  0  0  0  0
  7 19  1  0  0  0  0
  8  9  1  0  0  0  0
  8 20  1  0  0  0  0
  9 10  2  0  0  0  0
 10 11  1  0  0  0  0
 11 12  1  0  0  0  0
 11 21  1  0  0  0  0
 12 13  1  0  0  0  0
 12 22  1  0  0  0  0
 12 23  1  0  0  0  0
 13 17  1  0  0  0  0
 13 14  1  0  0  0  0
 13 24  1  0  0  0  0
 14 15  1  0  0  0  0
 14 25  1  0  0  0  0
 14 26  1  0  0  0  0
 15 16  1  0  0  0  0
 15 27  1  0  0  0  0
 15 28  1  0  0  0  0
 16 17  1  0  0  0  0
 16 29  1  0  0  0  0
 16 30  1  0  0  0  0
M  END
> <s_m_source_file>
AV-unprocessed.smi

> <i_m_source_file_index>
3326

> <i_lp_mmshare_version>
43012

> <i_f3d_flags>
0

> <s_epik_input>
RkMoRikoRiljMVtjSF1bY0hdW2NIXW5jMVtOSF1bQ0gyXVtDQEBIXTJbQ0gyXVtDSDJdW0NIMl1PMg==

> <s_epik_cmdline>
J2VwaWtfcHl0aG9uJywgJy1waCcsICc3LjAnLCAnLXRuJywgJzgnLCAnLW1hJywgJzIwMCcsICctbWV0YWxfYmluZGluZycsICctaW1hZScsICc8aW5maWxlLm1hZT4nLCAnLW9tYWUnLCAnPG91dGZpbGUubWFlPic=

> <r_lp_tautomer_probability>
1

> <r_epik_Ionization_Penalty>
0.000820218

> <r_epik_Ionization_Penalty_Charging>
0

> <r_epik_Ionization_Penalty_Neutral>
0.000820218

> <r_epik_State_Penalty>
0.000527207

> <r_epik_Charging_Adjusted_Penalty>
0.000527207

> <i_epik_Tot_Q>
0

> <i_epik_Tot_abs_Q>
0

> <r_epik_Metal_State_Penalty>
-0

> <b_epik_Metal_Only>
0

> <s_lp_Force_Field>
OPLS_2005

> <r_lp_Energy>
21.819

> <b_lp_Chiralities_Consistent>
1

> <s_lp_Variant>
AV-unprocessed.smi:3326-1

> <Gold.Version>
5.8.1

> <Gold.Id.Protein>
6NUR|6NUR_protein|mol2

> <Gold.PLP.Fitness>
40.0995

> <Gold.PLP.PLP>
-40.2066

> <Gold.PLP.part.hbond>
0.0000

> <Gold.PLP.part.metal>
0.0000

> <Gold.PLP.part.buried>
-2.0602

> <Gold.PLP.part.nonpolar>
-38.4252

> <Gold.PLP.part.repulsive>
0.1732

> <Gold.PLP.ligand.clash>
0.4639

> <Gold.PLP.ligand.torsion>
0.0941

> <Gold.PLP.Chemscore.Hbond>
0.0000

> <Gold.PLP.Chemscore.CHOScore>
0.0000

> <Gold.PLP.Chemscore.Metal>
0.0000

> <Gold.PLP.Chemscore.Internal.Correction>
0.5451

> <Gold.Rescore>
     Score         DG    S(hbond)    S(metal)    S(lipo)     H(rot)  DE(clash)    DE(int)     intcor
      9.53     -11.95       0.00        0.00      82.71       1.25       0.04       2.39       ----

> <Gold.Chemscore.Fitness>
9.5291

> <Gold.Chemscore.DG>
-11.9534

> <Gold.Chemscore.ZeroCoef>
-5.4800

> <Gold.Chemscore.Hbond>
0.0000

> <Gold.Chemscore.Metal>
0.0000

> <Gold.Chemscore.Lipo>
82.7094

> <Gold.Chemscore.Internal_Hbond>
0.0000

> <Gold.Chemscore.DEClash>
0.0384

> <Gold.Chemscore.DEInternal>
2.3859

> <Gold.Chemscore.Rot>
1.2514

> <Gold.Chemscore.Internal.Correction>
   9.000000E+99

> <Gold.Chemscore.Hbond.Weighted>
-0.0000

> <Gold.Chemscore.Metal.Weighted>
-0.0000

> <Gold.Chemscore.Lipo.Weighted>
-9.6770

> <Gold.Chemscore.Internal_Hbond.Weighted>
0.0000

> <Gold.Chemscore.DEClash.Weighted>
0.0384

> <Gold.Chemscore.DEInternal.Weighted>
2.3859

> <Gold.Chemscore.Rot.Weighted>
3.2036

> <Gold.Chemscore.Internal.Correction.Weighted>
   9.000000E+99

> <Gold.Protein.RotatedTorsions>
[ 6907 6896 6895 6894 ] final -179.97 input  -60.11 | X-H torsion
[ 7974 7965 7964 7962 ] final -104.32 input  175.53 | X-H torsion
[ 8008 7997 7996 7995 ] final  118.00 input   59.86 | X-H torsion
[ 10167 10162 10161 10158 ] final   10.37 input  -65.29 | X-H torsion
[ 10718 10713 10712 10709 ] final  105.63 input   66.30 | X-H torsion
[ 10763 10752 10751 10750 ] final -113.82 input  -60.55 | X-H torsion
[ 11005 11000 10999 10996 ] final   14.85 input  -57.11 | X-H torsion

> <Gold.Protein.ActiveResidues>
 VAL166  LYS551  ARG553  GLY616  TRP617  ASP618  TYR619  PRO620  LYS621  CYS622 
 ASP623  PHE694  ASN695  SER759  ASP760  ASP761  ALA762  ILE779  LEU786  VAL792 
 PHE793  MET794  SER795  GLU796  ALA797  LYS798  CYS799  TRP800  GLU811  SER814 

> <Gold.Protein.RotatedAtoms>
  151.6620  133.3316  159.3175 H   0  0  0  0  0  0  0  0  0  0  0  0  # atno 6907 bound_to 6896
  150.7909  134.6935  159.6520 H   0  0  0  0  0  0  0  0  0  0  0  0  # atno 6908 bound_to 6896
  152.3988  134.6324  160.0130 H   0  0  0  0  0  0  0  0  0  0  0  0  # atno 6909 bound_to 6896
  145.2447  140.9217  143.3130 H   0  0  0  0  0  0  0  0  0  0  0  0  # atno 7974 bound_to 7965
  156.2524  140.2884  156.0766 H   0  0  0  0  0  0  0  0  0  0  0  0  # atno 8008 bound_to 7997
  155.1613  140.0399  157.2860 H   0  0  0  0  0  0  0  0  0  0  0  0  # atno 8009 bound_to 7997
  154.6391  140.2518  155.7350 H   0  0  0  0  0  0  0  0  0  0  0  0  # atno 8010 bound_to 7997
  140.6198  143.8229  150.7161 H   0  0  0  0  0  0  0  0  0  0  0  0  # atno 10167 bound_to 10162
  157.6698  131.0832  150.5886 H   0  0  0  0  0  0  0  0  0  0  0  0  # atno 10718 bound_to 10713
  154.8413  135.4440  154.1408 H   0  0  0  0  0  0  0  0  0  0  0  0  # atno 10763 bound_to 10752
  153.2594  135.6934  153.7600 H   0  0  0  0  0  0  0  0  0  0  0  0  # atno 10764 bound_to 10752
  153.6883  135.3391  155.3171 H   0  0  0  0  0  0  0  0  0  0  0  0  # atno 10765 bound_to 10752
  140.4648  134.1090  155.7722 H   0  0  0  0  0  0  0  0  0  0  0  0  # atno 11005 bound_to 11000
  144.9557  139.4034  143.6380 LP  0  0  0  0  0  0  0  0  0  0  0  0  # atno 17320 bound_to 7965
  146.3319  139.8586  142.8860 LP  0  0  0  0  0  0  0  0  0  0  0  0  # atno 17321 bound_to 7965
  140.1817  143.4109  152.1928 LP  0  0  0  0  0  0  0  0  0  0  0  0  # atno 17342 bound_to 10162
  139.5429  144.7273  151.4676 LP  0  0  0  0  0  0  0  0  0  0  0  0  # atno 17343 bound_to 10162
  156.6186  130.4399  149.5831 LP  0  0  0  0  0  0  0  0  0  0  0  0  # atno 17370 bound_to 10713
  156.2373  130.6830  151.1522 LP  0  0  0  0  0  0  0  0  0  0  0  0  # atno 17371 bound_to 10713
  141.1604  133.8803  157.1863 LP  0  0  0  0  0  0  0  0  0  0  0  0  # atno 17394 bound_to 11000
  139.9922  135.0060  157.0001 LP  0  0  0  0  0  0  0  0  0  0  0  0  # atno 17395 bound_to 11000

$$$$
