AV-unprocessed.smi:2751|AV-procd|sdf|10596|dock1
  -GOLD-   2272015 43D 1   1.00000     0.00000
 Structure written by MMmdl.
 34 35  0  0  0  0  0  0  0  0  1 V2000
  143.4218  135.7204  152.5463 O   0  0  0  0  0  0  0  0  0  0  0  0
  143.4631  136.9511  152.5531 C   0  0  0  0  0  0  0  0  0  0  0  0
  144.5790  137.6555  152.3144 N   0  0  0  0  0  0  0  0  0  0  0  0
  145.8880  137.0778  152.0316 C   0  0  0  0  0  0  0  0  0  0  0  0
  145.8103  136.0315  150.9064 C   0  0  0  0  0  0  0  0  0  0  0  0
  145.6703  134.5944  151.4327 C   0  0  1  0  0  0  0  0  0  0  0  0
  145.0115  133.6643  150.3947 C   0  0  0  0  0  0  0  0  0  0  0  0
  144.9577  132.2247  150.9178 C   0  0  0  0  0  0  0  0  0  0  0  0
  146.3573  131.7823  151.3563 C   0  0  0  0  0  0  0  0  0  0  0  0
  146.9559  132.8014  152.3385 C   0  0  0  0  0  0  0  0  0  0  0  0
  146.9702  134.0968  151.7459 O   0  0  0  0  0  0  0  0  0  0  0  0
  142.4183  137.7591  152.7997 N   0  0  0  0  0  0  0  0  0  0  0  0
  141.0869  137.3791  153.1050 C   0  0  0  0  0  0  0  0  0  0  0  0
  139.9720  137.9442  152.6388 N   0  0  0  0  0  0  0  0  0  0  0  0
  138.9423  137.2206  153.2227 C   0  0  0  0  0  0  0  0  0  0  0  0
  139.4982  136.2503  154.0164 C   0  0  0  0  0  0  0  0  0  0  0  0
  140.8631  136.3392  153.9515 O   0  0  0  0  0  0  0  0  0  0  0  0
  144.5227  138.6632  152.3392 H   0  0  0  0  0  0  0  0  0  0  0  0
  146.5987  137.8662  151.7780 H   0  0  0  0  0  0  0  0  0  0  0  0
  146.2561  136.6121  152.9462 H   0  0  0  0  0  0  0  0  0  0  0  0
  144.9563  136.2630  150.2686 H   0  0  0  0  0  0  0  0  0  0  0  0
  146.6947  136.1000  150.2715 H   0  0  0  0  0  0  0  0  0  0  0  0
  145.0628  134.6094  152.3396 H   0  0  0  0  0  0  0  0  0  0  0  0
  144.0049  134.0113  150.1593 H   0  0  0  0  0  0  0  0  0  0  0  0
  145.5776  133.6931  149.4625 H   0  0  0  0  0  0  0  0  0  0  0  0
  144.2722  132.1673  151.7642 H   0  0  0  0  0  0  0  0  0  0  0  0
  144.5679  131.5547  150.1511 H   0  0  0  0  0  0  0  0  0  0  0  0
  146.3152  130.7940  151.8151 H   0  0  0  0  0  0  0  0  0  0  0  0
  147.0051  131.6957  150.4831 H   0  0  0  0  0  0  0  0  0  0  0  0
  146.3903  132.8222  153.2715 H   0  0  0  0  0  0  0  0  0  0  0  0
  147.9779  132.5194  152.5929 H   0  0  0  0  0  0  0  0  0  0  0  0
  142.5944  138.7524  152.7747 H   0  0  0  0  0  0  0  0  0  0  0  0
  137.9048  137.4500  153.0292 H   0  0  0  0  0  0  0  0  0  0  0  0
  139.0913  135.4735  154.6467 H   0  0  0  0  0  0  0  0  0  0  0  0
  1  2  2  0  0  0  0
  2  3  1  0  0  0  0
  2 12  1  0  0  0  0
  3  4  1  0  0  0  0
  3 18  1  0  0  0  0
  4  5  1  0  0  0  0
  4 19  1  0  0  0  0
  4 20  1  0  0  0  0
  5  6  1  0  0  0  0
  5 21  1  0  0  0  0
  5 22  1  0  0  0  0
  6 11  1  0  0  0  0
  6  7  1  0  0  0  0
  6 23  1  0  0  0  0
  7  8  1  0  0  0  0
  7 24  1  0  0  0  0
  7 25  1  0  0  0  0
  8  9  1  0  0  0  0
  8 26  1  0  0  0  0
  8 27  1  0  0  0  0
  9 10  1  0  0  0  0
  9 28  1  0  0  0  0
  9 29  1  0  0  0  0
 10 11  1  0  0  0  0
 10 30  1  0  0  0  0
 10 31  1  0  0  0  0
 12 13  1  0  0  0  0
 12 32  1  0  0  0  0
 13 17  1  0  0  0  0
 13 14  2  0  0  0  0
 14 15  1  0  0  0  0
 15 16  2  0  0  0  0
 15 33  1  0  0  0  0
 16 17  1  0  0  0  0
 16 34  1  0  0  0  0
M  END
> <s_m_source_file>
AV-unprocessed.smi

> <i_m_source_file_index>
2751

> <i_lp_mmshare_version>
43012

> <i_f3d_flags>
0

> <s_epik_input>
bzFbY0hdW2NIXW5jMVtOSF1DKD1PKVtOSF1bQ0gyXVtDSDJdW0NAQEhdMltDSDJdW0NIMl1bQ0gyXVtDSDJdTzI=

> <s_epik_cmdline>
J2VwaWtfcHl0aG9uJywgJy1waCcsICc3LjAnLCAnLXRuJywgJzgnLCAnLW1hJywgJzIwMCcsICctbWV0YWxfYmluZGluZycsICctaW1hZScsICc8aW5maWxlLm1hZT4nLCAnLW9tYWUnLCAnPG91dGZpbGUubWFlPic=

> <r_lp_tautomer_probability>
0.785861

> <r_epik_Ionization_Penalty>
4.88827e-05

> <r_epik_Ionization_Penalty_Charging>
0

> <r_epik_Ionization_Penalty_Neutral>
4.88827e-05

> <r_epik_State_Penalty>
0.0434822

> <r_epik_Charging_Adjusted_Penalty>
0.0434822

> <i_epik_Tot_Q>
0

> <i_epik_Tot_abs_Q>
0

> <r_epik_Metal_State_Penalty>
0.0598982

> <b_epik_Metal_Only>
0

> <s_lp_Force_Field>
OPLS_2005

> <r_lp_Energy>
7.8545

> <b_lp_Chiralities_Consistent>
1

> <s_lp_Variant>
AV-unprocessed.smi:2751-2

> <Gold.Version>
5.8.1

> <Gold.Id.Protein>
6NUR|6NUR_protein|mol2

> <Gold.PLP.Fitness>
39.2268

> <Gold.PLP.PLP>
-31.9154

> <Gold.PLP.part.hbond>
-3.0000

> <Gold.PLP.part.metal>
0.0000

> <Gold.PLP.part.buried>
-6.3120

> <Gold.PLP.part.nonpolar>
-24.5018

> <Gold.PLP.part.repulsive>
0.6409

> <Gold.PLP.ligand.clash>
0.0000

> <Gold.PLP.ligand.torsion>
0.8642

> <Gold.PLP.Chemscore.Hbond>
2.0000

> <Gold.PLP.Chemscore.CHOScore>
1.0000

> <Gold.PLP.Chemscore.Metal>
0.0000

> <Gold.Chemscore.Hbonds>
donor molecule, donor type, donor heavy atom, donor atom, acceptor molecule, acceptor atom, score
      L1  H     3    18       P1 10175  1.00
      L1  H    12    32       P1 10175  1.00
      L1  C    16    34       P1 11000  0.59

> <Gold.PLP.Chemscore.Internal.Correction>
0.0397

> <Gold.Rescore>
     Score         DG    S(hbond)    S(metal)    S(lipo)     H(rot)  DE(clash)    DE(int)     intcor
     12.53     -14.36       1.93        0.00      56.69       1.63       0.04       1.80       ----

> <Gold.Chemscore.Fitness>
12.5292

> <Gold.Chemscore.DG>
-14.3650

> <Gold.Chemscore.ZeroCoef>
-5.4800

> <Gold.Chemscore.Hbond>
1.9258

> <Gold.Chemscore.Metal>
0.0000

> <Gold.Chemscore.Lipo>
56.6895

> <Gold.Chemscore.Internal_Hbond>
0.0000

> <Gold.Chemscore.DEClash>
0.0383

> <Gold.Chemscore.DEInternal>
1.7975

> <Gold.Chemscore.Rot>
1.6328

> <Gold.Chemscore.Internal.Correction>
   9.000000E+99

> <Gold.Chemscore.Hbonds>
donor molecule, donor type, donor heavy atom, donor atom, acceptor molecule, acceptor atom, score
      L1  H     3    18       P1 10175  0.97
      L1  H    12    32       P1 10175  0.96

> <Gold.Chemscore.Hbond.Weighted>
-6.4322

> <Gold.Chemscore.Metal.Weighted>
-0.0000

> <Gold.Chemscore.Lipo.Weighted>
-6.6327

> <Gold.Chemscore.Internal_Hbond.Weighted>
0.0000

> <Gold.Chemscore.DEClash.Weighted>
0.0383

> <Gold.Chemscore.DEInternal.Weighted>
1.7975

> <Gold.Chemscore.Rot.Weighted>
4.1799

> <Gold.Chemscore.Internal.Correction.Weighted>
   9.000000E+99

> <Gold.Protein.RotatedTorsions>
[ 6907 6896 6895 6894 ] final    6.99 input  -60.11 | X-H torsion
[ 7974 7965 7964 7962 ] final -138.56 input  175.53 | X-H torsion
[ 8008 7997 7996 7995 ] final  172.27 input   59.86 | X-H torsion
[ 10167 10162 10161 10158 ] final  173.54 input  -65.29 | X-H torsion
[ 10718 10713 10712 10709 ] final   50.08 input   66.30 | X-H torsion
[ 10763 10752 10751 10750 ] final  102.70 input  -60.55 | X-H torsion
[ 11005 11000 10999 10996 ] final -164.07 input  -57.11 | X-H torsion

> <Gold.Protein.ActiveResidues>
 VAL166  LYS551  ARG553  GLY616  TRP617  ASP618  TYR619  PRO620  LYS621  CYS622 
 ASP623  PHE694  ASN695  SER759  ASP760  ASP761  ALA762  ILE779  LEU786  VAL792 
 PHE793  MET794  SER795  GLU796  ALA797  LYS798  CYS799  TRP800  GLU811  SER814 

> <Gold.Protein.RotatedAtoms>
  151.6826  135.0959  160.0218 H   0  0  0  0  0  0  0  0  0  0  0  0  # atno 6907 bound_to 6896
  152.3826  133.6563  159.6182 H   0  0  0  0  0  0  0  0  0  0  0  0  # atno 6908 bound_to 6896
  150.7759  133.9005  159.3381 H   0  0  0  0  0  0  0  0  0  0  0  0  # atno 6909 bound_to 6896
  144.8748  140.6421  143.5244 H   0  0  0  0  0  0  0  0  0  0  0  0  # atno 7974 bound_to 7965
  156.1190  140.1490  156.9231 H   0  0  0  0  0  0  0  0  0  0  0  0  # atno 8008 bound_to 7997
  154.4822  140.0876  156.7445 H   0  0  0  0  0  0  0  0  0  0  0  0  # atno 8009 bound_to 7997
  155.4462  140.3433  155.4297 H   0  0  0  0  0  0  0  0  0  0  0  0  # atno 8010 bound_to 7997
  139.5111  144.3249  152.0167 H   0  0  0  0  0  0  0  0  0  0  0  0  # atno 10167 bound_to 10162
  157.4849  130.8339  149.8136 H   0  0  0  0  0  0  0  0  0  0  0  0  # atno 10718 bound_to 10713
  153.3430  135.4001  155.1587 H   0  0  0  0  0  0  0  0  0  0  0  0  # atno 10763 bound_to 10752
  154.8647  135.3638  154.5321 H   0  0  0  0  0  0  0  0  0  0  0  0  # atno 10764 bound_to 10752
  153.5767  135.7077  153.5541 H   0  0  0  0  0  0  0  0  0  0  0  0  # atno 10765 bound_to 10752
  140.5910  134.5045  157.5193 H   0  0  0  0  0  0  0  0  0  0  0  0  # atno 11005 bound_to 11000
  145.4063  139.1588  143.4150 LP  0  0  0  0  0  0  0  0  0  0  0  0  # atno 17320 bound_to 7965
  146.2955  140.4164  142.8723 LP  0  0  0  0  0  0  0  0  0  0  0  0  # atno 17321 bound_to 7965
  140.2690  144.3985  150.6158 LP  0  0  0  0  0  0  0  0  0  0  0  0  # atno 17342 bound_to 10162
  140.6102  143.2169  151.6901 LP  0  0  0  0  0  0  0  0  0  0  0  0  # atno 17343 bound_to 10162
  156.0141  130.3821  150.2167 LP  0  0  0  0  0  0  0  0  0  0  0  0  # atno 17370 bound_to 10713
  157.0354  131.0019  151.3300 LP  0  0  0  0  0  0  0  0  0  0  0  0  # atno 17371 bound_to 10713
  139.9274  134.8029  156.1029 LP  0  0  0  0  0  0  0  0  0  0  0  0  # atno 17394 bound_to 11000
  141.0935  133.6705  156.2592 LP  0  0  0  0  0  0  0  0  0  0  0  0  # atno 17395 bound_to 11000

$$$$
