AV-unprocessed.smi:2655|AV-procd|sdf|10300|dock9
  -GOLD-   2272014313D 1   1.00000     0.00000
 Structure written by MMmdl.
 34 35  0  0  0  0  0  0  0  0  1 V2000
  145.2863  130.4294  151.3650 C   0  0  0  0  0  0  0  0  0  0  0  0
  144.6186  131.5925  150.6888 C   0  0  0  0  0  0  0  0  0  0  0  0
  143.3818  131.4411  150.2254 N   0  0  0  0  0  0  0  0  0  0  0  0
  143.0726  132.6407  149.6985 N   0  0  0  0  0  0  0  0  0  0  0  0
  144.1045  133.5330  149.8322 C   0  0  0  0  0  0  0  0  0  0  0  0
  143.9910  134.8072  149.3709 O   0  0  0  0  0  0  0  0  0  0  0  0
  145.1378  132.9066  150.4662 C   0  0  0  0  0  0  0  0  0  0  0  0
  146.4846  133.4603  150.8457 C   0  0  0  0  0  0  0  0  0  0  0  0
  146.8661  133.0713  152.2832 C   0  0  0  0  0  0  0  0  0  0  0  0
  147.7492  134.0588  152.8930 N   0  0  0  0  0  0  0  0  0  0  0  0
  148.2297  133.9901  154.1432 C   0  0  0  0  0  0  0  0  0  0  0  0
  147.9671  133.0727  154.9216 O   0  0  0  0  0  0  0  0  0  0  0  0
  149.0192  135.0414  154.4230 N   0  0  0  0  0  0  0  0  0  0  0  0
  149.6948  135.3148  155.6399 C   0  0  0  0  0  0  0  0  0  0  0  0
  150.7239  136.2921  155.6996 C   0  0  0  0  0  0  0  0  0  0  0  0
  151.1053  136.2576  157.0115 C   0  0  0  0  0  0  0  0  0  0  0  0
  152.1275  137.0107  157.7917 C   0  0  0  0  0  0  0  0  0  0  0  0
  150.3733  135.3355  157.6937 O   0  0  0  0  0  0  0  0  0  0  0  0
  149.4703  134.7346  156.8088 N   0  0  0  0  0  0  0  0  0  0  0  0
  146.3614  130.5833  151.4548 H   0  0  0  0  0  0  0  0  0  0  0  0
  145.1325  129.5055  150.8066 H   0  0  0  0  0  0  0  0  0  0  0  0
  144.8883  130.2824  152.3693 H   0  0  0  0  0  0  0  0  0  0  0  0
  142.1786  132.8262  149.2666 H   0  0  0  0  0  0  0  0  0  0  0  0
  146.4879  134.5467  150.7488 H   0  0  0  0  0  0  0  0  0  0  0  0
  147.2524  133.1042  150.1582 H   0  0  0  0  0  0  0  0  0  0  0  0
  145.9710  132.9430  152.8944 H   0  0  0  0  0  0  0  0  0  0  0  0
  147.3824  132.1110  152.2842 H   0  0  0  0  0  0  0  0  0  0  0  0
  148.0138  134.8476  152.3211 H   0  0  0  0  0  0  0  0  0  0  0  0
  149.1473  135.7216  153.6885 H   0  0  0  0  0  0  0  0  0  0  0  0
  151.1181  136.9182  154.9131 H   0  0  0  0  0  0  0  0  0  0  0  0
  152.5487  137.8241  157.2007 H   0  0  0  0  0  0  0  0  0  0  0  0
  152.9430  136.3534  158.0936 H   0  0  0  0  0  0  0  0  0  0  0  0
  151.6876  137.4405  158.6919 H   0  0  0  0  0  0  0  0  0  0  0  0
  143.0706  135.0164  149.3227 H   0  0  0  0  0  0  0  0  0  0  0  0
  1 20  1  0  0  0  0
  1 21  1  0  0  0  0
  1 22  1  0  0  0  0
  1  2  1  0  0  0  0
  2  7  1  0  0  0  0
  2  3  2  0  0  0  0
  3  4  1  0  0  0  0
  4 23  1  0  0  0  0
  4  5  1  0  0  0  0
  5  7  2  0  0  0  0
  5  6  1  0  0  0  0
  6 34  1  0  0  0  0
  7  8  1  0  0  0  0
  8  9  1  0  0  0  0
  8 24  1  0  0  0  0
  8 25  1  0  0  0  0
  9 10  1  0  0  0  0
  9 26  1  0  0  0  0
  9 27  1  0  0  0  0
 10 11  1  0  0  0  0
 10 28  1  0  0  0  0
 11 12  2  0  0  0  0
 11 13  1  0  0  0  0
 13 14  1  0  0  0  0
 13 29  1  0  0  0  0
 14 19  2  0  0  0  0
 14 15  1  0  0  0  0
 15 16  2  0  0  0  0
 15 30  1  0  0  0  0
 16 17  1  0  0  0  0
 16 18  1  0  0  0  0
 17 31  1  0  0  0  0
 17 32  1  0  0  0  0
 17 33  1  0  0  0  0
 18 19  1  0  0  0  0
M  END
> <s_m_source_file>
AV-unprocessed.smi

> <i_m_source_file_index>
2655

> <i_lp_mmshare_version>
43012

> <i_f3d_flags>
0

> <s_epik_input>
W0NIM11DMT1OW05IXUMoPU8pW0NASF0xW0NIMl1bQ0gyXVtOSF1DKD1PKVtOSF1jMltjSF1jKFtDSDNdKW9uMg==

> <s_epik_cmdline>
J2VwaWtfcHl0aG9uJywgJy1waCcsICc3LjAnLCAnLXRuJywgJzgnLCAnLW1hJywgJzIwMCcsICctbWV0YWxfYmluZGluZycsICctaW1hZScsICc8aW5maWxlLm1hZT4nLCAnLW9tYWUnLCAnPG91dGZpbGUubWFlPic=

> <r_lp_tautomer_probability>
0.0227396

> <r_epik_Ionization_Penalty>
3.51829

> <r_epik_Ionization_Penalty_Charging>
0

> <r_epik_Ionization_Penalty_Neutral>
3.51829

> <r_epik_State_Penalty>
1.61027

> <r_epik_Charging_Adjusted_Penalty>
1.61027

> <i_epik_Tot_Q>
0

> <i_epik_Tot_abs_Q>
0

> <r_epik_Metal_State_Penalty>
3.01397

> <b_epik_Metal_Only>
0

> <s_lp_Force_Field>
OPLS_2005

> <r_lp_Energy>
-1.25166

> <b_lp_Chiralities_Consistent>
1

> <s_lp_Variant>
AV-unprocessed.smi:2655-3

> <Gold.Version>
5.8.1

> <Gold.Id.Protein>
6NUR|6NUR_protein|mol2

> <Gold.PLP.Fitness>
42.4417

> <Gold.PLP.PLP>
-28.5360

> <Gold.PLP.part.hbond>
-7.4580

> <Gold.PLP.part.metal>
0.0000

> <Gold.PLP.part.buried>
-6.0694

> <Gold.PLP.part.nonpolar>
-18.0301

> <Gold.PLP.part.repulsive>
1.9402

> <Gold.PLP.ligand.clash>
0.0000

> <Gold.PLP.ligand.torsion>
0.4037

> <Gold.PLP.Chemscore.Hbond>
4.9003

> <Gold.PLP.Chemscore.CHOScore>
0.0000

> <Gold.PLP.Chemscore.Metal>
0.0000

> <Gold.Chemscore.Hbonds>
donor molecule, donor type, donor heavy atom, donor atom, acceptor molecule, acceptor atom, score
      L1  H     4    23       P1 10186  0.56
      L1  H     6    34       P1 10186  0.73
      L1  H    10    28       P1  7948  1.00
      L1  H    13    29       P1  7948  0.99
      P1  H  6896  6909       L1    18  0.62
      P1  H 10785 10796       L1     3  0.96

> <Gold.PLP.Chemscore.Internal.Correction>
0.0122

> <Gold.Rescore>
     Score         DG    S(hbond)    S(metal)    S(lipo)     H(rot)  DE(clash)    DE(int)     intcor
     16.81     -19.81       4.34        0.00      53.89       2.53       1.40       1.60       ----

> <Gold.Chemscore.Fitness>
16.8139

> <Gold.Chemscore.DG>
-19.8131

> <Gold.Chemscore.ZeroCoef>
-5.4800

> <Gold.Chemscore.Hbond>
4.3442

> <Gold.Chemscore.Metal>
0.0000

> <Gold.Chemscore.Lipo>
53.8879

> <Gold.Chemscore.Internal_Hbond>
0.0000

> <Gold.Chemscore.DEClash>
1.4014

> <Gold.Chemscore.DEInternal>
1.5978

> <Gold.Chemscore.Rot>
2.5318

> <Gold.Chemscore.Internal.Correction>
   9.000000E+99

> <Gold.Chemscore.Hbonds>
donor molecule, donor type, donor heavy atom, donor atom, acceptor molecule, acceptor atom, score
      L1  H     4    23       P1 10186  0.55
      L1  H     6    34       P1 10186  0.54
      L1  H    10    28       P1  7948  0.60
      L1  H    13    29       P1  7948  0.70
      P1  H  6896  6909       L1    18  0.57
      P1  H 10785 10796       L1     3  0.49

> <Gold.Chemscore.Hbond.Weighted>
-14.5097

> <Gold.Chemscore.Metal.Weighted>
-0.0000

> <Gold.Chemscore.Lipo.Weighted>
-6.3049

> <Gold.Chemscore.Internal_Hbond.Weighted>
0.0000

> <Gold.Chemscore.DEClash.Weighted>
1.4014

> <Gold.Chemscore.DEInternal.Weighted>
1.5978

> <Gold.Chemscore.Rot.Weighted>
6.4815

> <Gold.Chemscore.Internal.Correction.Weighted>
   9.000000E+99

> <Gold.Protein.RotatedTorsions>
[ 6907 6896 6895 6894 ] final   40.29 input  -60.11 | X-H torsion
[ 7974 7965 7964 7962 ] final   59.29 input  175.53 | X-H torsion
[ 8008 7997 7996 7995 ] final  111.02 input   59.86 | X-H torsion
[ 10167 10162 10161 10158 ] final -124.13 input  -65.29 | X-H torsion
[ 10718 10713 10712 10709 ] final -159.08 input   66.30 | X-H torsion
[ 10763 10752 10751 10750 ] final   66.16 input  -60.55 | X-H torsion
[ 11005 11000 10999 10996 ] final  107.32 input  -57.11 | X-H torsion

> <Gold.Protein.ActiveResidues>
 VAL166  LYS551  ARG553  GLY616  TRP617  ASP618  TYR619  PRO620  LYS621  CYS622 
 ASP623  PHE694  ASN695  SER759  ASP760  ASP761  ALA762  ILE779  LEU786  VAL792 
 PHE793  MET794  SER795  GLU796  ALA797  LYS798  CYS799  TRP800  GLU811  SER814 

> <Gold.Protein.RotatedAtoms>
  152.1806  134.8757  160.0526 H   0  0  0  0  0  0  0  0  0  0  0  0  # atno 6907 bound_to 6896
  151.9683  133.3712  159.4069 H   0  0  0  0  0  0  0  0  0  0  0  0  # atno 6908 bound_to 6896
  150.6917  134.4090  159.5197 H   0  0  0  0  0  0  0  0  0  0  0  0  # atno 6909 bound_to 6896
  145.9088  139.3637  143.0548 H   0  0  0  0  0  0  0  0  0  0  0  0  # atno 7974 bound_to 7965
  156.2094  140.3027  155.9699 H   0  0  0  0  0  0  0  0  0  0  0  0  # atno 8008 bound_to 7997
  155.2761  140.0436  157.3028 H   0  0  0  0  0  0  0  0  0  0  0  0  # atno 8009 bound_to 7997
  154.5678  140.2339  155.8245 H   0  0  0  0  0  0  0  0  0  0  0  0  # atno 8010 bound_to 7997
  139.9961  143.5590  152.2322 H   0  0  0  0  0  0  0  0  0  0  0  0  # atno 10167 bound_to 10162
  156.5631  130.8655  151.2815 H   0  0  0  0  0  0  0  0  0  0  0  0  # atno 10718 bound_to 10713
  153.0127  135.5330  154.6780 H   0  0  0  0  0  0  0  0  0  0  0  0  # atno 10763 bound_to 10752
  154.5947  135.2862  155.0601 H   0  0  0  0  0  0  0  0  0  0  0  0  # atno 10764 bound_to 10752
  154.1680  135.6536  153.5055 H   0  0  0  0  0  0  0  0  0  0  0  0  # atno 10765 bound_to 10752
  139.8826  134.9397  156.5801 H   0  0  0  0  0  0  0  0  0  0  0  0  # atno 11005 bound_to 11000
  145.8698  140.9426  143.0656 LP  0  0  0  0  0  0  0  0  0  0  0  0  # atno 17320 bound_to 7965
  144.6741  140.0640  143.7475 LP  0  0  0  0  0  0  0  0  0  0  0  0  # atno 17321 bound_to 7965
  139.6305  144.7643  151.2546 LP  0  0  0  0  0  0  0  0  0  0  0  0  # atno 17342 bound_to 10162
  140.7437  143.6488  150.8268 LP  0  0  0  0  0  0  0  0  0  0  0  0  # atno 17343 bound_to 10162
  157.7364  130.9779  150.2136 LP  0  0  0  0  0  0  0  0  0  0  0  0  # atno 17370 bound_to 10713
  156.2781  130.3730  149.7963 LP  0  0  0  0  0  0  0  0  0  0  0  0  # atno 17371 bound_to 10713
  140.8033  133.8488  155.8746 LP  0  0  0  0  0  0  0  0  0  0  0  0  # atno 17394 bound_to 11000
  140.9573  134.1702  157.4682 LP  0  0  0  0  0  0  0  0  0  0  0  0  # atno 17395 bound_to 11000

$$$$
