AV-unprocessed.smi:2378|AV-procd|sdf|9449|dock9
  -GOLD-   2272013 83D 1   1.00000     0.00000
 Structure written by MMmdl.
 40 41  0  0  0  0  0  0  0  0  1 V2000
  145.5802  132.1141  149.3619 C   0  0  0  0  0  0  0  0  0  0  0  0
  145.0706  133.1073  150.3852 C   0  0  0  0  0  0  0  0  0  0  0  0
  143.7944  132.9625  150.9618 C   0  0  0  0  0  0  0  0  0  0  0  0
  143.3798  133.9208  151.9050 C   0  0  0  0  0  0  0  0  0  0  0  0
  144.1448  134.9672  152.2811 N   0  0  0  0  0  0  0  0  0  0  0  0
  145.3765  135.1170  151.7331 C   0  0  0  0  0  0  0  0  0  0  0  0
  146.2630  136.1773  152.0616 N   0  0  0  0  0  0  0  0  0  0  0  0
  145.9767  137.3452  152.6638 C   0  0  0  0  0  0  0  0  0  0  0  0
  144.8552  137.7073  153.0215 O   0  0  0  0  0  0  0  0  0  0  0  0
  147.0806  138.0885  152.8290 N   0  0  0  0  0  0  0  0  0  0  0  0
  147.1175  139.4096  153.4457 C   0  0  0  0  0  0  0  0  0  0  0  0
  148.5295  140.0176  153.3936 C   0  0  0  0  0  0  0  0  0  0  0  0
  149.1573  140.1921  154.7854 C   0  0  2  0  0  0  0  0  0  0  0  0
  148.5598  141.3957  155.5401 C   0  0  0  0  0  0  0  0  0  0  0  0
  149.2584  141.5855  156.8914 C   0  0  0  0  0  0  0  0  0  0  0  0
  150.7744  141.6642  156.6839 C   0  0  0  0  0  0  0  0  0  0  0  0
  151.2645  140.4582  155.8670 C   0  0  0  0  0  0  0  0  0  0  0  0
  150.5614  140.3926  154.6299 O   0  0  0  0  0  0  0  0  0  0  0  0
  145.8702  134.1993  150.7783 C   0  0  0  0  0  0  0  0  0  0  0  0
  144.8708  131.2996  149.2121 H   0  0  0  0  0  0  0  0  0  0  0  0
  146.5274  131.6851  149.6900 H   0  0  0  0  0  0  0  0  0  0  0  0
  145.7399  132.6087  148.4035 H   0  0  0  0  0  0  0  0  0  0  0  0
  143.1469  132.1411  150.6921 H   0  0  0  0  0  0  0  0  0  0  0  0
  142.4084  133.8454  152.3707 H   0  0  0  0  0  0  0  0  0  0  0  0
  147.2297  136.0259  151.8150 H   0  0  0  0  0  0  0  0  0  0  0  0
  147.9606  137.7144  152.5053 H   0  0  0  0  0  0  0  0  0  0  0  0
  146.3970  140.0721  152.9630 H   0  0  0  0  0  0  0  0  0  0  0  0
  146.7944  139.3034  154.4816 H   0  0  0  0  0  0  0  0  0  0  0  0
  149.1771  139.3946  152.7752 H   0  0  0  0  0  0  0  0  0  0  0  0
  148.4805  140.9908  152.9030 H   0  0  0  0  0  0  0  0  0  0  0  0
  148.9861  139.2823  155.3637 H   0  0  0  0  0  0  0  0  0  0  0  0
  148.6749  142.2999  154.9408 H   0  0  0  0  0  0  0  0  0  0  0  0
  147.4891  141.2554  155.6914 H   0  0  0  0  0  0  0  0  0  0  0  0
  148.8941  142.4862  157.3861 H   0  0  0  0  0  0  0  0  0  0  0  0
  149.0207  140.7477  157.5479 H   0  0  0  0  0  0  0  0  0  0  0  0
  151.0254  142.5857  156.1573 H   0  0  0  0  0  0  0  0  0  0  0  0
  151.2862  141.7031  157.6459 H   0  0  0  0  0  0  0  0  0  0  0  0
  152.3309  140.5533  155.6616 H   0  0  0  0  0  0  0  0  0  0  0  0
  151.1294  139.5297  156.4236 H   0  0  0  0  0  0  0  0  0  0  0  0
  146.8535  134.3296  150.3493 H   0  0  0  0  0  0  0  0  0  0  0  0
  1  2  1  0  0  0  0
  1 20  1  0  0  0  0
  1 21  1  0  0  0  0
  1 22  1  0  0  0  0
  2 19  1  0  0  0  0
  2  3  2  0  0  0  0
  3  4  1  0  0  0  0
  3 23  1  0  0  0  0
  4  5  2  0  0  0  0
  4 24  1  0  0  0  0
  5  6  1  0  0  0  0
  6  7  1  0  0  0  0
  6 19  2  0  0  0  0
  7  8  1  0  0  0  0
  7 25  1  0  0  0  0
  8  9  2  0  0  0  0
  8 10  1  0  0  0  0
 10 11  1  0  0  0  0
 10 26  1  0  0  0  0
 11 12  1  0  0  0  0
 11 27  1  0  0  0  0
 11 28  1  0  0  0  0
 12 13  1  0  0  0  0
 12 29  1  0  0  0  0
 12 30  1  0  0  0  0
 13 18  1  0  0  0  0
 13 14  1  0  0  0  0
 13 31  1  0  0  0  0
 14 15  1  0  0  0  0
 14 32  1  0  0  0  0
 14 33  1  0  0  0  0
 15 16  1  0  0  0  0
 15 34  1  0  0  0  0
 15 35  1  0  0  0  0
 16 17  1  0  0  0  0
 16 36  1  0  0  0  0
 16 37  1  0  0  0  0
 17 18  1  0  0  0  0
 17 38  1  0  0  0  0
 17 39  1  0  0  0  0
 19 40  1  0  0  0  0
M  END
> <s_m_source_file>
AV-unprocessed.smi

> <i_m_source_file_index>
2378

> <i_lp_mmshare_version>
43012

> <i_f3d_flags>
0

> <s_epik_input>
W0NIM11jMVtjSF1bY0hdbmMoW2NIXTEpW05IXUMoPU8pW05IXVtDSDJdW0NIMl1bQ0BASF0yW0NIMl1bQ0gyXVtDSDJdW0NIMl1PMg==

> <s_epik_cmdline>
J2VwaWtfcHl0aG9uJywgJy1waCcsICc3LjAnLCAnLXRuJywgJzgnLCAnLW1hJywgJzIwMCcsICctbWV0YWxfYmluZGluZycsICctaW1hZScsICc8aW5maWxlLm1hZT4nLCAnLW9tYWUnLCAnPG91dGZpbGUubWFlPic=

> <r_lp_tautomer_probability>
1

> <r_epik_Ionization_Penalty>
8.60919e-05

> <r_epik_Ionization_Penalty_Charging>
0

> <r_epik_Ionization_Penalty_Neutral>
8.60919e-05

> <r_epik_State_Penalty>
-0

> <r_epik_Charging_Adjusted_Penalty>
0

> <i_epik_Tot_Q>
0

> <i_epik_Tot_abs_Q>
0

> <r_epik_Metal_State_Penalty>
-0

> <b_epik_Metal_Only>
0

> <s_lp_Force_Field>
OPLS_2005

> <r_lp_Energy>
11.3516

> <b_lp_Chiralities_Consistent>
1

> <s_lp_Variant>
AV-unprocessed.smi:2378-1

> <Gold.Version>
5.8.1

> <Gold.Id.Protein>
6NUR|6NUR_protein|mol2

> <Gold.PLP.Fitness>
41.3102

> <Gold.PLP.PLP>
-33.4581

> <Gold.PLP.part.hbond>
-3.0000

> <Gold.PLP.part.metal>
0.0000

> <Gold.PLP.part.buried>
-1.0445

> <Gold.PLP.part.nonpolar>
-30.0317

> <Gold.PLP.part.repulsive>
0.9639

> <Gold.PLP.ligand.clash>
0.0000

> <Gold.PLP.ligand.torsion>
0.5672

> <Gold.PLP.Chemscore.Hbond>
2.9920

> <Gold.PLP.Chemscore.CHOScore>
0.0000

> <Gold.PLP.Chemscore.Metal>
0.0000

> <Gold.Chemscore.Hbonds>
donor molecule, donor type, donor heavy atom, donor atom, acceptor molecule, acceptor atom, score
      L1  H     7    25       P1  7948  1.00
      L1  H    10    26       P1  7948  0.99
      P1  H  7989  7998       L1    18  1.00

> <Gold.PLP.Chemscore.Internal.Correction>
0.0105

> <Gold.Rescore>
     Score         DG    S(hbond)    S(metal)    S(lipo)     H(rot)  DE(clash)    DE(int)     intcor
     17.44     -20.55       2.87        0.00      78.11       1.42       1.34       1.77       ----

> <Gold.Chemscore.Fitness>
17.4422

> <Gold.Chemscore.DG>
-20.5499

> <Gold.Chemscore.ZeroCoef>
-5.4800

> <Gold.Chemscore.Hbond>
2.8677

> <Gold.Chemscore.Metal>
0.0000

> <Gold.Chemscore.Lipo>
78.1146

> <Gold.Chemscore.Internal_Hbond>
0.0000

> <Gold.Chemscore.DEClash>
1.3363

> <Gold.Chemscore.DEInternal>
1.7714

> <Gold.Chemscore.Rot>
1.4248

> <Gold.Chemscore.Internal.Correction>
   9.000000E+99

> <Gold.Chemscore.Hbonds>
donor molecule, donor type, donor heavy atom, donor atom, acceptor molecule, acceptor atom, score
      L1  H     7    25       P1  7948  1.00
      L1  H    10    26       P1  7948  0.94
      P1  H  7989  7998       L1    18  0.54

> <Gold.Chemscore.Hbond.Weighted>
-9.5781

> <Gold.Chemscore.Metal.Weighted>
-0.0000

> <Gold.Chemscore.Lipo.Weighted>
-9.1394

> <Gold.Chemscore.Internal_Hbond.Weighted>
0.0000

> <Gold.Chemscore.DEClash.Weighted>
1.3363

> <Gold.Chemscore.DEInternal.Weighted>
1.7714

> <Gold.Chemscore.Rot.Weighted>
3.6476

> <Gold.Chemscore.Internal.Correction.Weighted>
   9.000000E+99

> <Gold.Protein.RotatedTorsions>
[ 6907 6896 6895 6894 ] final -101.78 input  -60.11 | X-H torsion
[ 7974 7965 7964 7962 ] final  148.30 input  175.53 | X-H torsion
[ 8008 7997 7996 7995 ] final  -16.77 input   59.86 | X-H torsion
[ 10167 10162 10161 10158 ] final   64.51 input  -65.29 | X-H torsion
[ 10718 10713 10712 10709 ] final   -1.05 input   66.30 | X-H torsion
[ 10763 10752 10751 10750 ] final  -95.84 input  -60.55 | X-H torsion
[ 11005 11000 10999 10996 ] final    9.15 input  -57.11 | X-H torsion

> <Gold.Protein.ActiveResidues>
 VAL166  LYS551  ARG553  GLY616  TRP617  ASP618  TYR619  PRO620  LYS621  CYS622 
 ASP623  PHE694  ASN695  SER759  ASP760  ASP761  ALA762  ILE779  LEU786  VAL792 
 PHE793  MET794  SER795  GLU796  ALA797  LYS798  CYS799  TRP800  GLU811  SER814 

> <Gold.Protein.RotatedAtoms>
  150.7168  134.0682  159.3854 H   0  0  0  0  0  0  0  0  0  0  0  0  # atno 6907 bound_to 6896
  151.8664  135.0503  160.0484 H   0  0  0  0  0  0  0  0  0  0  0  0  # atno 6908 bound_to 6896
  152.2677  133.5319  159.5457 H   0  0  0  0  0  0  0  0  0  0  0  0  # atno 6909 bound_to 6896
  144.8524  139.6136  143.5967 H   0  0  0  0  0  0  0  0  0  0  0  0  # atno 7974 bound_to 7965
  154.5028  140.2160  155.9312 H   0  0  0  0  0  0  0  0  0  0  0  0  # atno 8008 bound_to 7997
  156.1455  140.3171  155.8531 H   0  0  0  0  0  0  0  0  0  0  0  0  # atno 8009 bound_to 7997
  155.4039  140.0486  157.3026 H   0  0  0  0  0  0  0  0  0  0  0  0  # atno 8010 bound_to 7997
  140.1214  144.4727  150.6918 H   0  0  0  0  0  0  0  0  0  0  0  0  # atno 10167 bound_to 10162
  156.8114  130.5425  149.5708 H   0  0  0  0  0  0  0  0  0  0  0  0  # atno 10718 bound_to 10713
  154.7185  135.5105  153.8775 H   0  0  0  0  0  0  0  0  0  0  0  0  # atno 10763 bound_to 10752
  153.0842  135.6640  153.9992 H   0  0  0  0  0  0  0  0  0  0  0  0  # atno 10764 bound_to 10752
  153.9820  135.3028  155.3399 H   0  0  0  0  0  0  0  0  0  0  0  0  # atno 10765 bound_to 10752
  140.5289  134.0485  155.7867 H   0  0  0  0  0  0  0  0  0  0  0  0  # atno 11005 bound_to 11000
  146.2796  139.6842  142.9238 LP  0  0  0  0  0  0  0  0  0  0  0  0  # atno 17320 bound_to 7965
  145.4472  141.0426  143.2824 LP  0  0  0  0  0  0  0  0  0  0  0  0  # atno 17321 bound_to 7965
  140.6870  143.2355  151.5235 LP  0  0  0  0  0  0  0  0  0  0  0  0  # atno 17342 bound_to 10162
  139.5566  144.2259  152.1623 LP  0  0  0  0  0  0  0  0  0  0  0  0  # atno 17343 bound_to 10162
  156.1042  130.5992  150.9944 LP  0  0  0  0  0  0  0  0  0  0  0  0  # atno 17370 bound_to 10713
  157.6504  131.0898  150.8063 LP  0  0  0  0  0  0  0  0  0  0  0  0  # atno 17371 bound_to 10713
  141.1292  133.9331  157.2571 LP  0  0  0  0  0  0  0  0  0  0  0  0  # atno 17394 bound_to 11000
  139.9565  135.0164  156.9141 LP  0  0  0  0  0  0  0  0  0  0  0  0  # atno 17395 bound_to 11000

$$$$
