AV-unprocessed.smi:72|AV-procd|sdf|729|dock3
  -GOLD-   2262017 53D 1   1.00000     0.00000
 Structure written by MMmdl.
 28 29  0  0  0  0  0  0  0  0  2 V2000
  153.3426  139.9428  159.6181 N   0  0  0  0  0  0  0  0  0  0  0  0
  152.7556  139.8123  158.5100 C   0  0  0  0  0  0  0  0  0  0  0  0
  151.5038  140.4955  158.2694 N   0  0  0  0  0  0  0  0  0  0  0  0
  150.9196  140.3055  157.1264 C   0  0  0  0  0  0  0  0  0  0  0  0
  151.4801  139.4197  156.1108 N   0  0  0  0  0  0  0  0  0  0  0  0
  150.8083  139.1839  154.7654 C   0  0  2  0  0  0  0  0  0  0  0  0
  150.2701  140.3819  154.2815 O   0  0  0  0  0  0  0  0  0  0  0  0
  148.8786  140.4434  154.5817 C   0  0  1  0  0  0  0  0  0  0  0  0
  148.1669  141.5038  153.7234 C   0  0  0  0  0  0  0  0  0  0  0  0
  148.5237  142.7990  154.1577 O   0  0  0  0  0  0  0  0  0  0  0  0
  148.4428  138.9942  154.3463 C   0  0  1  0  0  0  0  0  0  0  0  0
  148.2318  138.7564  152.9635 O   0  0  0  0  0  0  0  0  0  0  0  0
  149.6238  138.2017  154.9065 C   0  0  1  0  0  0  0  0  0  0  0  0
  149.8246  136.9756  154.2280 O   0  0  0  0  0  0  0  0  0  0  0  0
  152.7363  138.8023  156.3592 C   0  0  0  0  0  0  0  0  0  0  0  0
  153.2235  138.1014  155.4719 O   0  0  0  0  0  0  0  0  0  0  0  0
  153.3461  139.0105  157.5592 N   0  5  0  0  0  0  0  0  0  0  0  0
  151.6055  138.8459  154.1008 H   0  0  0  0  0  0  0  0  0  0  0  0
  148.7429  140.6696  155.6411 H   0  0  0  0  0  0  0  0  0  0  0  0
  147.5183  138.7592  154.8747 H   0  0  0  0  0  0  0  0  0  0  0  0
  149.4462  137.9986  155.9638 H   0  0  0  0  0  0  0  0  0  0  0  0
  154.2052  139.4208  159.6664 H   0  0  0  0  0  0  0  0  0  0  0  0
  149.9825  140.7971  156.8659 H   0  0  0  0  0  0  0  0  0  0  0  0
  148.4011  141.3828  152.6653 H   0  0  0  0  0  0  0  0  0  0  0  0
  147.0859  141.4100  153.8315 H   0  0  0  0  0  0  0  0  0  0  0  0
  149.1898  142.7192  154.8230 H   0  0  0  0  0  0  0  0  0  0  0  0
  148.6888  137.9628  152.7291 H   0  0  0  0  0  0  0  0  0  0  0  0
  149.4021  137.0345  153.3837 H   0  0  0  0  0  0  0  0  0  0  0  0
  1  2  2  0  0  0  0
  1 22  1  0  0  0  0
  2 17  1  0  0  0  0
  2  3  1  0  0  0  0
  3  4  2  0  0  0  0
  4  5  1  0  0  0  0
  4 23  1  0  0  0  0
  5  6  1  0  0  0  0
  5 15  1  0  0  0  0
  6 18  1  0  0  0  0
  6 13  1  0  0  0  0
  6  7  1  0  0  0  0
  7  8  1  0  0  0  0
  8 19  1  0  0  0  0
  8  9  1  0  0  0  0
  8 11  1  0  0  0  0
  9 10  1  0  0  0  0
  9 24  1  0  0  0  0
  9 25  1  0  0  0  0
 10 26  1  0  0  0  0
 11 20  1  0  0  0  0
 11 12  1  0  0  0  0
 11 13  1  0  0  0  0
 12 27  1  0  0  0  0
 13 21  1  0  0  0  0
 13 14  1  0  0  0  0
 14 28  1  0  0  0  0
 15 16  2  0  0  0  0
 15 17  1  0  0  0  0
M  CHG  1  17  -1
M  END
> <s_m_source_file>
AV-unprocessed.smi

> <i_m_source_file_index>
72

> <i_lp_mmshare_version>
43012

> <i_f3d_flags>
0

> <s_epik_input>
W05IMl1jMW5bY0hdbihjKD1PKW4xKVtDQEBIXTJPW0NASF0oW0NIMl1bT0hdKVtDQEBIXShbT0hdKVtDQEhdMltPSF0=

> <s_epik_cmdline>
J2VwaWtfcHl0aG9uJywgJy1waCcsICc3LjAnLCAnLXRuJywgJzgnLCAnLW1hJywgJzIwMCcsICctbWV0YWxfYmluZGluZycsICctaW1hZScsICc8aW5maWxlLm1hZT4nLCAnLW9tYWUnLCAnPG91dGZpbGUubWFlPic=

> <r_lp_tautomer_probability>
7.17554e-07

> <r_epik_Ionization_Penalty>
12.8705

> <r_epik_Ionization_Penalty_Charging>
5.64144

> <r_epik_Ionization_Penalty_Neutral>
7.22905

> <r_epik_State_Penalty>
3.30104

> <r_epik_Charging_Adjusted_Penalty>
8.94249

> <i_epik_Tot_Q>
-1

> <i_epik_Tot_abs_Q>
1

> <r_epik_Metal_State_Penalty>
0.529074

> <b_epik_Metal_Only>
1

> <s_epik_Chemistry_Notes>
This compound contains an acetal/aminal-like group ( X-CH(R)-Y where X, Y are N, S, or O) that may be acid/base labile, releasing an aldehyde.

> <s_lp_Force_Field>
OPLS_2005

> <r_lp_Energy>
36.9813

> <b_lp_Chiralities_Consistent>
1

> <s_lp_Variant>
AV-unprocessed.smi:72-67

> <Gold.Version>
5.8.1

> <Gold.Id.Protein>
6NUR|6NUR_protein|mol2

> <Gold.PLP.Fitness>
42.8007

> <Gold.PLP.PLP>
-27.2494

> <Gold.PLP.part.hbond>
-9.0153

> <Gold.PLP.part.metal>
0.0000

> <Gold.PLP.part.buried>
-0.2037

> <Gold.PLP.part.nonpolar>
-16.6841

> <Gold.PLP.part.repulsive>
0.1333

> <Gold.PLP.ligand.clash>
0.0000

> <Gold.PLP.ligand.torsion>
0.5276

> <Gold.PLP.Chemscore.Hbond>
5.5280

> <Gold.PLP.Chemscore.CHOScore>
0.0000

> <Gold.PLP.Chemscore.Metal>
0.0000

> <Gold.Chemscore.Hbonds>
donor molecule, donor type, donor heavy atom, donor atom, acceptor molecule, acceptor atom, score
      L1  H    12    27       P1  7948  1.00
      L1  H    14    28       P1  7948  0.94
      P1  H  7989  7998       L1     7  0.80
      P1  H  7997  8008       L1    17  1.50
      P1  H  8022  8030       L1    10  0.99

> <Gold.PLP.Chemscore.Internal.Correction>
0.0226

> <Gold.Rescore>
     Score         DG    S(hbond)    S(metal)    S(lipo)     H(rot)  DE(clash)    DE(int)     intcor
      7.71      -8.46       3.20        0.00      22.59       4.04       0.02       0.72       ----

> <Gold.Chemscore.Fitness>
7.7140

> <Gold.Chemscore.DG>
-8.4572

> <Gold.Chemscore.ZeroCoef>
-5.4800

> <Gold.Chemscore.Hbond>
3.1967

> <Gold.Chemscore.Metal>
0.0000

> <Gold.Chemscore.Lipo>
22.5912

> <Gold.Chemscore.Internal_Hbond>
0.0000

> <Gold.Chemscore.DEClash>
0.0186

> <Gold.Chemscore.DEInternal>
0.7245

> <Gold.Chemscore.Rot>
4.0403

> <Gold.Chemscore.Internal.Correction>
   9.000000E+99

> <Gold.Chemscore.Hbonds>
donor molecule, donor type, donor heavy atom, donor atom, acceptor molecule, acceptor atom, score
      L1  H    10    26       P1  8028  0.01
      L1  H    12    27       P1  7948  0.98
      L1  H    14    28       P1  7948  0.85
      P1  H  7989  7998       L1     7  0.13
      P1  H  7997  8008       L1    17  0.03
      P1  H  8022  8030       L1    10  0.46

> <Gold.Chemscore.Hbond.Weighted>
-10.6771

> <Gold.Chemscore.Metal.Weighted>
-0.0000

> <Gold.Chemscore.Lipo.Weighted>
-2.6432

> <Gold.Chemscore.Internal_Hbond.Weighted>
0.0000

> <Gold.Chemscore.DEClash.Weighted>
0.0186

> <Gold.Chemscore.DEInternal.Weighted>
0.7245

> <Gold.Chemscore.Rot.Weighted>
10.3431

> <Gold.Chemscore.Internal.Correction.Weighted>
   9.000000E+99

> <Gold.Protein.RotatedTorsions>
[ 6907 6896 6895 6894 ] final  161.11 input  -60.11 | X-H torsion
[ 7974 7965 7964 7962 ] final   52.69 input  175.53 | X-H torsion
[ 8008 7997 7996 7995 ] final  -79.79 input   59.86 | X-H torsion
[ 10167 10162 10161 10158 ] final  -72.41 input  -65.29 | X-H torsion
[ 10718 10713 10712 10709 ] final   93.21 input   66.30 | X-H torsion
[ 10763 10752 10751 10750 ] final   62.50 input  -60.55 | X-H torsion
[ 11005 11000 10999 10996 ] final  123.88 input  -57.11 | X-H torsion

> <Gold.Protein.ActiveResidues>
 VAL166  LYS551  ARG553  GLY616  TRP617  ASP618  TYR619  PRO620  LYS621  CYS622 
 ASP623  PHE694  ASN695  SER759  ASP760  ASP761  ALA762  ILE779  LEU786  VAL792 
 PHE793  MET794  SER795  GLU796  ALA797  LYS798  CYS799  TRP800  GLU811  SER814 

> <Gold.Protein.RotatedAtoms>
  151.9606  133.3694  159.4033 H   0  0  0  0  0  0  0  0  0  0  0  0  # atno 6907 bound_to 6896
  150.6965  134.4245  159.5229 H   0  0  0  0  0  0  0  0  0  0  0  0  # atno 6908 bound_to 6896
  152.1933  134.8653  160.0566 H   0  0  0  0  0  0  0  0  0  0  0  0  # atno 6909 bound_to 6896
  145.9788  139.4221  143.0145 H   0  0  0  0  0  0  0  0  0  0  0  0  # atno 7974 bound_to 7965
  154.5819  140.0673  156.9117 H   0  0  0  0  0  0  0  0  0  0  0  0  # atno 8008 bound_to 7997
  155.2447  140.3347  155.4270 H   0  0  0  0  0  0  0  0  0  0  0  0  # atno 8009 bound_to 7997
  156.2196  140.1793  156.7494 H   0  0  0  0  0  0  0  0  0  0  0  0  # atno 8010 bound_to 7997
  140.5195  143.2333  151.7455 H   0  0  0  0  0  0  0  0  0  0  0  0  # atno 10167 bound_to 10162
  157.6955  131.0470  150.3999 H   0  0  0  0  0  0  0  0  0  0  0  0  # atno 10718 bound_to 10713
  152.9985  135.5463  154.6203 H   0  0  0  0  0  0  0  0  0  0  0  0  # atno 10763 bound_to 10752
  154.5504  135.2826  155.1016 H   0  0  0  0  0  0  0  0  0  0  0  0  # atno 10764 bound_to 10752
  154.2258  135.6442  153.5212 H   0  0  0  0  0  0  0  0  0  0  0  0  # atno 10765 bound_to 10752
  139.9333  134.9641  156.8325 H   0  0  0  0  0  0  0  0  0  0  0  0  # atno 11005 bound_to 11000
  145.7800  140.9860  143.1104 LP  0  0  0  0  0  0  0  0  0  0  0  0  # atno 17320 bound_to 7965
  144.6856  139.9552  143.7479 LP  0  0  0  0  0  0  0  0  0  0  0  0  # atno 17321 bound_to 7965
  139.4919  144.4276  151.9909 LP  0  0  0  0  0  0  0  0  0  0  0  0  # atno 17342 bound_to 10162
  140.3372  144.3247  150.5975 LP  0  0  0  0  0  0  0  0  0  0  0  0  # atno 17343 bound_to 10162
  156.4394  130.3988  149.6707 LP  0  0  0  0  0  0  0  0  0  0  0  0  # atno 17370 bound_to 10713
  156.3896  130.7620  151.2620 LP  0  0  0  0  0  0  0  0  0  0  0  0  # atno 17371 bound_to 10713
  140.6144  134.0052  155.7591 LP  0  0  0  0  0  0  0  0  0  0  0  0  # atno 17394 bound_to 11000
  141.0933  133.9883  157.3201 LP  0  0  0  0  0  0  0  0  0  0  0  0  # atno 17395 bound_to 11000

$$$$
