AV-unprocessed.smi:438|AV-procd|sdf|2566|dock10
  -GOLD-   2262022543D 1   1.00000     0.00000
 Structure written by MMmdl.
 48 49  0  0  0  0  0  0  0  0  1 V2000
  147.1818  136.2375  162.6974 C   0  0  0  0  0  0  0  0  0  0  0  0
  147.7737  135.9246  161.3343 C   0  0  0  0  0  0  0  0  0  0  0  0
  148.2109  137.0333  160.6007 N   0  0  0  0  0  0  0  0  0  0  0  0
  148.7592  136.8737  159.4389 C   0  0  0  0  0  0  0  0  0  0  0  0
  149.4406  138.1190  158.2991 S   0  0  0  0  0  0  0  0  0  0  0  0
  151.2350  137.8903  158.4965 C   0  0  0  0  0  0  0  0  0  0  0  0
  152.0379  139.1530  158.1826 C   0  0  0  0  0  0  0  0  0  0  0  0
  153.1982  139.0592  157.7840 O   0  0  0  0  0  0  0  0  0  0  0  0
  151.4108  140.3213  158.4030 N   0  0  0  0  0  0  0  0  0  0  0  0
  151.9788  141.6689  158.3302 C   0  0  1  0  0  0  0  0  0  0  0  0
  151.0249  142.6422  157.6041 C   0  0  0  0  0  0  0  0  0  0  0  0
  151.6697  144.0247  157.4329 C   0  0  0  0  0  0  0  0  0  0  0  0
  152.1210  144.5927  158.7869 C   0  0  0  0  0  0  0  0  0  0  0  0
  153.0731  143.6260  159.5099 C   0  0  0  0  0  0  0  0  0  0  0  0
  152.4422  142.2314  159.7008 C   0  0  2  0  0  0  0  0  0  0  0  0
  153.4176  141.2913  160.4308 C   0  0  0  0  0  0  0  0  0  0  0  0
  148.9015  135.5961  158.8972 N   0  0  0  0  0  0  0  0  0  0  0  0
  148.5038  134.4634  159.5183 C   0  0  0  0  0  0  0  0  0  0  0  0
  148.6653  133.3688  158.9807 O   0  0  0  0  0  0  0  0  0  0  0  0
  147.8891  134.6589  160.8424 C   0  0  0  0  0  0  0  0  0  0  0  0
  147.4427  133.4137  161.6085 C   0  0  0  0  0  0  0  0  0  0  0  0
  145.9688  133.4651  162.0475 C   0  0  0  0  0  0  0  0  0  0  0  0
  145.4535  132.1637  162.2342 O   0  0  0  0  0  0  0  0  0  0  0  0
  146.1855  135.8067  162.7952 H   0  0  0  0  0  0  0  0  0  0  0  0
  147.0971  137.3134  162.8553 H   0  0  0  0  0  0  0  0  0  0  0  0
  147.8154  135.8343  163.4877 H   0  0  0  0  0  0  0  0  0  0  0  0
  151.5616  137.0563  157.8734 H   0  0  0  0  0  0  0  0  0  0  0  0
  151.4328  137.6050  159.5299 H   0  0  0  0  0  0  0  0  0  0  0  0
  150.4550  140.2691  158.7250 H   0  0  0  0  0  0  0  0  0  0  0  0
  152.8661  141.5624  157.7046 H   0  0  0  0  0  0  0  0  0  0  0  0
  150.7547  142.2425  156.6257 H   0  0  0  0  0  0  0  0  0  0  0  0
  150.0934  142.7500  158.1607 H   0  0  0  0  0  0  0  0  0  0  0  0
  152.5266  143.9488  156.7623 H   0  0  0  0  0  0  0  0  0  0  0  0
  150.9639  144.7075  156.9586 H   0  0  0  0  0  0  0  0  0  0  0  0
  152.6117  145.5552  158.6395 H   0  0  0  0  0  0  0  0  0  0  0  0
  151.2486  144.7832  159.4134 H   0  0  0  0  0  0  0  0  0  0  0  0
  153.9991  143.5368  158.9402 H   0  0  0  0  0  0  0  0  0  0  0  0
  153.3479  144.0463  160.4781 H   0  0  0  0  0  0  0  0  0  0  0  0
  151.5692  142.3584  160.3417 H   0  0  0  0  0  0  0  0  0  0  0  0
  154.3081  141.1012  159.8310 H   0  0  0  0  0  0  0  0  0  0  0  0
  152.9561  140.3301  160.6581 H   0  0  0  0  0  0  0  0  0  0  0  0
  153.7410  141.7235  161.3780 H   0  0  0  0  0  0  0  0  0  0  0  0
  149.3311  135.5046  157.9882 H   0  0  0  0  0  0  0  0  0  0  0  0
  148.0744  133.2446  162.4798 H   0  0  0  0  0  0  0  0  0  0  0  0
  147.6000  132.5409  160.9734 H   0  0  0  0  0  0  0  0  0  0  0  0
  145.8520  134.0329  162.9709 H   0  0  0  0  0  0  0  0  0  0  0  0
  145.3707  133.9680  161.2874 H   0  0  0  0  0  0  0  0  0  0  0  0
  146.0018  131.5534  161.7645 H   0  0  0  0  0  0  0  0  0  0  0  0
  1 24  1  0  0  0  0
  1 25  1  0  0  0  0
  1 26  1  0  0  0  0
  1  2  1  0  0  0  0
  2 20  2  0  0  0  0
  2  3  1  0  0  0  0
  3  4  2  0  0  0  0
  4  5  1  0  0  0  0
  4 17  1  0  0  0  0
  5  6  1  0  0  0  0
  6  7  1  0  0  0  0
  6 27  1  0  0  0  0
  6 28  1  0  0  0  0
  7  8  2  0  0  0  0
  7  9  1  0  0  0  0
  9 10  1  0  0  0  0
  9 29  1  0  0  0  0
 10 15  1  0  0  0  0
 10 11  1  0  0  0  0
 10 30  1  0  0  0  0
 11 12  1  0  0  0  0
 11 31  1  0  0  0  0
 11 32  1  0  0  0  0
 12 13  1  0  0  0  0
 12 33  1  0  0  0  0
 12 34  1  0  0  0  0
 13 14  1  0  0  0  0
 13 35  1  0  0  0  0
 13 36  1  0  0  0  0
 14 15  1  0  0  0  0
 14 37  1  0  0  0  0
 14 38  1  0  0  0  0
 15 16  1  0  0  0  0
 15 39  1  0  0  0  0
 16 40  1  0  0  0  0
 16 41  1  0  0  0  0
 16 42  1  0  0  0  0
 17 43  1  0  0  0  0
 17 18  1  0  0  0  0
 18 19  2  0  0  0  0
 18 20  1  0  0  0  0
 20 21  1  0  0  0  0
 21 22  1  0  0  0  0
 21 44  1  0  0  0  0
 21 45  1  0  0  0  0
 22 23  1  0  0  0  0
 22 46  1  0  0  0  0
 22 47  1  0  0  0  0
 23 48  1  0  0  0  0
M  END
> <s_m_source_file>
AV-unprocessed.smi

> <i_m_source_file_index>
438

> <i_lp_mmshare_version>
43012

> <i_f3d_flags>
0

> <s_epik_input>
W09IXVtDSDJdW0NIMl1jMWMoW09IXSluYyhuYzFbQ0gzXSlTW0NIMl1DKD1PKVtOSF1bQ0BASF0yW0NIMl1bQ0gyXVtDSDJdW0NIMl1bQ0BIXTJbQ0gzXQ==

> <s_epik_cmdline>
J2VwaWtfcHl0aG9uJywgJy1waCcsICc3LjAnLCAnLXRuJywgJzgnLCAnLW1hJywgJzIwMCcsICctbWV0YWxfYmluZGluZycsICctaW1hZScsICc8aW5maWxlLm1hZT4nLCAnLW9tYWUnLCAnPG91dGZpbGUubWFlPic=

> <r_lp_tautomer_probability>
0.660323

> <r_epik_Ionization_Penalty>
0.00860626

> <r_epik_Ionization_Penalty_Charging>
0.00860522

> <r_epik_Ionization_Penalty_Neutral>
1.04215e-06

> <r_epik_State_Penalty>
0.156825

> <r_epik_Charging_Adjusted_Penalty>
0.16543

> <i_epik_Tot_Q>
0

> <i_epik_Tot_abs_Q>
0

> <r_epik_Metal_State_Penalty>
0.752038

> <b_epik_Metal_Only>
0

> <s_lp_Force_Field>
OPLS_2005

> <r_lp_Energy>
14.076

> <b_lp_Chiralities_Consistent>
1

> <s_lp_Variant>
AV-unprocessed.smi:438-4

> <Gold.Version>
5.8.1

> <Gold.Id.Protein>
6NUR|6NUR_protein|mol2

> <Gold.PLP.Fitness>
55.3103

> <Gold.PLP.PLP>
-49.6677

> <Gold.PLP.part.hbond>
-4.1120

> <Gold.PLP.part.metal>
0.0000

> <Gold.PLP.part.buried>
-5.4530

> <Gold.PLP.part.nonpolar>
-40.9010

> <Gold.PLP.part.repulsive>
0.2447

> <Gold.PLP.ligand.clash>
0.0000

> <Gold.PLP.ligand.torsion>
1.1399

> <Gold.PLP.Chemscore.Hbond>
2.6027

> <Gold.PLP.Chemscore.CHOScore>
0.0000

> <Gold.PLP.Chemscore.Metal>
0.0000

> <Gold.Chemscore.Hbonds>
donor molecule, donor type, donor heavy atom, donor atom, acceptor molecule, acceptor atom, score
      P1  H  6896  6908       L1    19  0.07
      P1  H  6931  6943       L1     3  0.86
      P1  H  6934  6947       L1     3  0.31
      P1  H  7997  8009       L1     8  1.00

> <Gold.PLP.Chemscore.Internal.Correction>
0.1143

> <Gold.Rescore>
     Score         DG    S(hbond)    S(metal)    S(lipo)     H(rot)  DE(clash)    DE(int)     intcor
     18.27     -19.33       2.06        0.00     122.38       2.86       0.02       1.04       ----

> <Gold.Chemscore.Fitness>
18.2741

> <Gold.Chemscore.DG>
-19.3293

> <Gold.Chemscore.ZeroCoef>
-5.4800

> <Gold.Chemscore.Hbond>
2.0552

> <Gold.Chemscore.Metal>
0.0000

> <Gold.Chemscore.Lipo>
122.3765

> <Gold.Chemscore.Internal_Hbond>
0.0000

> <Gold.Chemscore.DEClash>
0.0195

> <Gold.Chemscore.DEInternal>
1.0357

> <Gold.Chemscore.Rot>
2.8645

> <Gold.Chemscore.Internal.Correction>
   9.000000E+99

> <Gold.Chemscore.Hbonds>
donor molecule, donor type, donor heavy atom, donor atom, acceptor molecule, acceptor atom, score
      P1  H  6931  6943       L1     3  0.49
      P1  H  6934  6947       L1     3  0.27
      P1  H  7997  8009       L1     8  1.00

> <Gold.Chemscore.Hbond.Weighted>
-6.8644

> <Gold.Chemscore.Metal.Weighted>
-0.0000

> <Gold.Chemscore.Lipo.Weighted>
-14.3181

> <Gold.Chemscore.Internal_Hbond.Weighted>
0.0000

> <Gold.Chemscore.DEClash.Weighted>
0.0195

> <Gold.Chemscore.DEInternal.Weighted>
1.0357

> <Gold.Chemscore.Rot.Weighted>
7.3331

> <Gold.Chemscore.Internal.Correction.Weighted>
   9.000000E+99

> <Gold.Protein.RotatedTorsions>
[ 6907 6896 6895 6894 ] final  125.20 input  -60.11 | X-H torsion
[ 7974 7965 7964 7962 ] final -100.21 input  175.53 | X-H torsion
[ 8008 7997 7996 7995 ] final  158.83 input   59.86 | X-H torsion
[ 10167 10162 10161 10158 ] final  -20.02 input  -65.29 | X-H torsion
[ 10718 10713 10712 10709 ] final   38.48 input   66.30 | X-H torsion
[ 10763 10752 10751 10750 ] final  103.97 input  -60.55 | X-H torsion
[ 11005 11000 10999 10996 ] final   98.22 input  -57.11 | X-H torsion

> <Gold.Protein.ActiveResidues>
 VAL166  LYS551  ARG553  GLY616  TRP617  ASP618  TYR619  PRO620  LYS621  CYS622 
 ASP623  PHE694  ASN695  SER759  ASP760  ASP761  ALA762  ILE779  LEU786  VAL792 
 PHE793  MET794  SER795  GLU796  ALA797  LYS798  CYS799  TRP800  GLU811  SER814 

> <Gold.Protein.RotatedAtoms>
  152.4013  133.6821  159.6318 H   0  0  0  0  0  0  0  0  0  0  0  0  # atno 6907 bound_to 6896
  150.7903  133.8787  159.3288 H   0  0  0  0  0  0  0  0  0  0  0  0  # atno 6908 bound_to 6896
  151.6552  135.0998  160.0220 H   0  0  0  0  0  0  0  0  0  0  0  0  # atno 6909 bound_to 6896
  145.2976  140.9369  143.2842 H   0  0  0  0  0  0  0  0  0  0  0  0  # atno 7974 bound_to 7965
  156.2278  140.1848  156.7319 H   0  0  0  0  0  0  0  0  0  0  0  0  # atno 8008 bound_to 7997
  154.5971  140.0642  156.9345 H   0  0  0  0  0  0  0  0  0  0  0  0  # atno 8009 bound_to 7997
  155.2238  140.3309  155.4314 H   0  0  0  0  0  0  0  0  0  0  0  0  # atno 8010 bound_to 7997
  140.7273  143.4762  151.0179 H   0  0  0  0  0  0  0  0  0  0  0  0  # atno 10167 bound_to 10162
  157.3593  130.7641  149.7035 H   0  0  0  0  0  0  0  0  0  0  0  0  # atno 10718 bound_to 10713
  153.3597  135.3959  155.1709 H   0  0  0  0  0  0  0  0  0  0  0  0  # atno 10763 bound_to 10752
  154.8677  135.3676  154.5115 H   0  0  0  0  0  0  0  0  0  0  0  0  # atno 10764 bound_to 10752
  153.5574  135.7082  153.5623 H   0  0  0  0  0  0  0  0  0  0  0  0  # atno 10765 bound_to 10752
  139.8773  134.9038  156.4424 H   0  0  0  0  0  0  0  0  0  0  0  0  # atno 11005 bound_to 11000
  144.9120  139.4516  143.6582 LP  0  0  0  0  0  0  0  0  0  0  0  0  # atno 17320 bound_to 7965
  146.3163  139.7934  142.8980 LP  0  0  0  0  0  0  0  0  0  0  0  0  # atno 17321 bound_to 7965
  139.8458  143.7504  152.3179 LP  0  0  0  0  0  0  0  0  0  0  0  0  # atno 17342 bound_to 10162
  139.7668  144.7489  151.0282 LP  0  0  0  0  0  0  0  0  0  0  0  0  # atno 17343 bound_to 10162
  155.9734  130.4118  150.4001 LP  0  0  0  0  0  0  0  0  0  0  0  0  # atno 17370 bound_to 10713
  157.2076  131.0453  151.2617 LP  0  0  0  0  0  0  0  0  0  0  0  0  # atno 17371 bound_to 10713
  140.8990  133.7793  155.9658 LP  0  0  0  0  0  0  0  0  0  0  0  0  # atno 17394 bound_to 11000
  140.8671  134.2771  157.5208 LP  0  0  0  0  0  0  0  0  0  0  0  0  # atno 17395 bound_to 11000

$$$$
