AV-unprocessed.smi:2803|AV-procd|sdf|10807|dock9
  -GOLD-   2272015243D 1   1.00000     0.00000
 Structure written by MMmdl.
 42 43  0  0  0  0  0  0  0  0  1 V2000
  152.0527  139.8970  159.0355 C   0  0  0  0  0  0  0  0  0  0  0  0
  151.2521  139.6433  157.7431 C   0  0  1  0  0  0  0  0  0  0  0  0
  152.1787  139.4220  156.6172 C   0  0  0  0  0  0  0  0  0  0  0  0
  152.9062  139.2498  155.7338 N   0  0  0  0  0  0  0  0  0  0  0  0
  150.3880  138.4752  157.9261 N   0  0  0  0  0  0  0  0  0  0  0  0
  150.7130  137.2583  158.3971 C   0  0  0  0  0  0  0  0  0  0  0  0
  151.8454  136.9660  158.7766 O   0  0  0  0  0  0  0  0  0  0  0  0
  149.6080  136.1882  158.4429 C   0  0  0  0  0  0  0  0  0  0  0  0
  149.4195  135.4457  157.1912 N   0  0  0  0  0  0  0  0  0  0  0  0
  149.0944  136.0516  156.0018 C   0  0  0  0  0  0  0  0  0  0  0  0
  148.9277  135.1920  155.0582 N   0  0  0  0  0  0  0  0  0  0  0  0
  149.1580  133.9920  155.6694 N   0  0  0  0  0  0  0  0  0  0  0  0
  149.0371  132.7280  154.8985 C   0  0  0  0  0  0  0  0  0  0  0  0
  150.3774  131.9627  154.9432 C   0  0  0  0  0  0  0  0  0  0  0  0
  148.6881  132.9873  153.4118 C   0  0  0  0  0  0  0  0  0  0  0  0
  147.9148  131.8559  155.5021 C   0  0  0  0  0  0  0  0  0  0  0  0
  149.4637  134.1342  156.9737 C   0  0  0  0  0  0  0  0  0  0  0  0
  149.7055  133.2569  157.8020 O   0  0  0  0  0  0  0  0  0  0  0  0
  150.4524  140.8995  157.4074 C   0  0  0  0  0  0  0  0  0  0  0  0
  150.3345  141.4327  155.9965 C   0  0  0  0  0  0  0  0  0  0  0  0
  151.1220  142.2041  157.0324 C   0  0  0  0  0  0  0  0  0  0  0  0
  152.6825  140.7820  158.9397 H   0  0  0  0  0  0  0  0  0  0  0  0
  152.7105  139.0626  159.2795 H   0  0  0  0  0  0  0  0  0  0  0  0
  151.3896  140.0557  159.8867 H   0  0  0  0  0  0  0  0  0  0  0  0
  149.4266  138.6048  157.6468 H   0  0  0  0  0  0  0  0  0  0  0  0
  149.8267  135.4968  159.2585 H   0  0  0  0  0  0  0  0  0  0  0  0
  148.6696  136.6778  158.7071 H   0  0  0  0  0  0  0  0  0  0  0  0
  149.0025  137.1379  155.9540 H   0  0  0  0  0  0  0  0  0  0  0  0
  150.3336  131.0549  154.3405 H   0  0  0  0  0  0  0  0  0  0  0  0
  150.6462  131.6581  155.9546 H   0  0  0  0  0  0  0  0  0  0  0  0
  151.1931  132.5738  154.5551 H   0  0  0  0  0  0  0  0  0  0  0  0
  149.4538  133.5844  152.9148 H   0  0  0  0  0  0  0  0  0  0  0  0
  147.7348  133.5065  153.3044 H   0  0  0  0  0  0  0  0  0  0  0  0
  148.6047  132.0517  152.8578 H   0  0  0  0  0  0  0  0  0  0  0  0
  147.7761  130.9395  154.9273 H   0  0  0  0  0  0  0  0  0  0  0  0
  146.9620  132.3865  155.5054 H   0  0  0  0  0  0  0  0  0  0  0  0
  148.1293  131.5559  156.5277 H   0  0  0  0  0  0  0  0  0  0  0  0
  149.5562  141.0049  158.0168 H   0  0  0  0  0  0  0  0  0  0  0  0
  150.8935  140.9324  155.2085 H   0  0  0  0  0  0  0  0  0  0  0  0
  149.3716  141.8388  155.6938 H   0  0  0  0  0  0  0  0  0  0  0  0
  150.6810  143.1213  157.4170 H   0  0  0  0  0  0  0  0  0  0  0  0
  152.2051  142.2203  156.9271 H   0  0  0  0  0  0  0  0  0  0  0  0
  1  2  1  0  0  0  0
  1 22  1  0  0  0  0
  1 23  1  0  0  0  0
  1 24  1  0  0  0  0
  2  3  1  0  0  0  0
  2  5  1  0  0  0  0
  2 19  1  0  0  0  0
  3  4  3  0  0  0  0
  5  6  1  0  0  0  0
  5 25  1  0  0  0  0
  6  7  2  0  0  0  0
  6  8  1  0  0  0  0
  8  9  1  0  0  0  0
  8 26  1  0  0  0  0
  8 27  1  0  0  0  0
  9 17  1  0  0  0  0
  9 10  1  0  0  0  0
 10 11  2  0  0  0  0
 10 28  1  0  0  0  0
 11 12  1  0  0  0  0
 12 13  1  0  0  0  0
 12 17  1  0  0  0  0
 13 14  1  0  0  0  0
 13 15  1  0  0  0  0
 13 16  1  0  0  0  0
 14 29  1  0  0  0  0
 14 30  1  0  0  0  0
 14 31  1  0  0  0  0
 15 32  1  0  0  0  0
 15 33  1  0  0  0  0
 15 34  1  0  0  0  0
 16 35  1  0  0  0  0
 16 36  1  0  0  0  0
 16 37  1  0  0  0  0
 17 18  2  0  0  0  0
 19 21  1  0  0  0  0
 19 20  1  0  0  0  0
 19 38  1  0  0  0  0
 20 21  1  0  0  0  0
 20 39  1  0  0  0  0
 20 40  1  0  0  0  0
 21 41  1  0  0  0  0
 21 42  1  0  0  0  0
M  END
> <s_m_source_file>
AV-unprocessed.smi

> <i_m_source_file_index>
2803

> <i_lp_mmshare_version>
43012

> <i_f3d_flags>
0

> <s_epik_input>
W0NIMl0xW0NIMl1bQ0hdMVtDQF0oW0NIM10pKEMjTilbTkhdQyg9TylbQ0gyXW4yW2NIXW5uKGMyPU8pQyhbQ0gzXSkoW0NIM10pW0NIM10=

> <s_epik_cmdline>
J2VwaWtfcHl0aG9uJywgJy1waCcsICc3LjAnLCAnLXRuJywgJzgnLCAnLW1hJywgJzIwMCcsICctbWV0YWxfYmluZGluZycsICctaW1hZScsICc8aW5maWxlLm1hZT4nLCAnLW9tYWUnLCAnPG91dGZpbGUubWFlPic=

> <r_lp_tautomer_probability>
1

> <r_epik_Ionization_Penalty>
4.88615e-06

> <r_epik_Ionization_Penalty_Charging>
4.80261e-08

> <r_epik_Ionization_Penalty_Neutral>
4.83813e-06

> <r_epik_State_Penalty>
-0

> <r_epik_Charging_Adjusted_Penalty>
4.80261e-08

> <i_epik_Tot_Q>
0

> <i_epik_Tot_abs_Q>
0

> <r_epik_Metal_State_Penalty>
-0

> <b_epik_Metal_Only>
0

> <s_lp_Force_Field>
OPLS_2005

> <r_lp_Energy>
32.3619

> <b_lp_Chiralities_Consistent>
1

> <s_lp_Variant>
AV-unprocessed.smi:2803-1

> <Gold.Version>
5.8.1

> <Gold.Id.Protein>
6NUR|6NUR_protein|mol2

> <Gold.PLP.Fitness>
34.6235

> <Gold.PLP.PLP>
-27.1075

> <Gold.PLP.part.hbond>
-3.0000

> <Gold.PLP.part.metal>
0.0000

> <Gold.PLP.part.buried>
-5.1901

> <Gold.PLP.part.nonpolar>
-20.2180

> <Gold.PLP.part.repulsive>
0.2072

> <Gold.PLP.ligand.clash>
0.0000

> <Gold.PLP.ligand.torsion>
1.4282

> <Gold.PLP.Chemscore.Hbond>
2.9425

> <Gold.PLP.Chemscore.CHOScore>
0.0000

> <Gold.PLP.Chemscore.Metal>
0.0000

> <Gold.Chemscore.Hbonds>
donor molecule, donor type, donor heavy atom, donor atom, acceptor molecule, acceptor atom, score
      P1  H  6896  6907       L1     7  0.56
      P1  H  6896  6909       L1    18  1.00
      P1  H  7997  8009       L1     4  1.00

> <Gold.PLP.Chemscore.Internal.Correction>
1.5450

> <Gold.Rescore>
     Score         DG    S(hbond)    S(metal)    S(lipo)     H(rot)  DE(clash)    DE(int)     intcor
     13.94     -15.82       2.83        0.00      52.24       2.05       0.03       1.85       ----

> <Gold.Chemscore.Fitness>
13.9423

> <Gold.Chemscore.DG>
-15.8195

> <Gold.Chemscore.ZeroCoef>
-5.4800

> <Gold.Chemscore.Hbond>
2.8336

> <Gold.Chemscore.Metal>
0.0000

> <Gold.Chemscore.Lipo>
52.2430

> <Gold.Chemscore.Internal_Hbond>
0.0000

> <Gold.Chemscore.DEClash>
0.0282

> <Gold.Chemscore.DEInternal>
1.8490

> <Gold.Chemscore.Rot>
2.0457

> <Gold.Chemscore.Internal.Correction>
   9.000000E+99

> <Gold.Chemscore.Hbonds>
donor molecule, donor type, donor heavy atom, donor atom, acceptor molecule, acceptor atom, score
      P1  H  6896  6907       L1     7  0.19
      P1  H  6896  6909       L1    18  0.96
      P1  H  7997  8009       L1     4  0.50

> <Gold.Chemscore.Hbond.Weighted>
-9.4641

> <Gold.Chemscore.Metal.Weighted>
-0.0000

> <Gold.Chemscore.Lipo.Weighted>
-6.1124

> <Gold.Chemscore.Internal_Hbond.Weighted>
0.0000

> <Gold.Chemscore.DEClash.Weighted>
0.0282

> <Gold.Chemscore.DEInternal.Weighted>
1.8490

> <Gold.Chemscore.Rot.Weighted>
5.2370

> <Gold.Chemscore.Internal.Correction.Weighted>
   9.000000E+99

> <Gold.Protein.RotatedTorsions>
[ 6907 6896 6895 6894 ] final   -6.49 input  -60.11 | X-H torsion
[ 7974 7965 7964 7962 ] final   97.33 input  175.53 | X-H torsion
[ 8008 7997 7996 7995 ] final -151.96 input   59.86 | X-H torsion
[ 10167 10162 10161 10158 ] final  -11.85 input  -65.29 | X-H torsion
[ 10718 10713 10712 10709 ] final -135.38 input   66.30 | X-H torsion
[ 10763 10752 10751 10750 ] final   38.79 input  -60.55 | X-H torsion
[ 11005 11000 10999 10996 ] final  135.10 input  -57.11 | X-H torsion

> <Gold.Protein.ActiveResidues>
 VAL166  LYS551  ARG553  GLY616  TRP617  ASP618  TYR619  PRO620  LYS621  CYS622 
 ASP623  PHE694  ASN695  SER759  ASP760  ASP761  ALA762  ILE779  LEU786  VAL792 
 PHE793  MET794  SER795  GLU796  ALA797  LYS798  CYS799  TRP800  GLU811  SER814 

> <Gold.Protein.RotatedAtoms>
  151.4647  135.1041  159.9734 H   0  0  0  0  0  0  0  0  0  0  0  0  # atno 6907 bound_to 6896
  152.4839  133.8320  159.7119 H   0  0  0  0  0  0  0  0  0  0  0  0  # atno 6908 bound_to 6896
  150.8933  133.7154  159.2925 H   0  0  0  0  0  0  0  0  0  0  0  0  # atno 6909 bound_to 6896
  145.4269  139.2315  143.3165 H   0  0  0  0  0  0  0  0  0  0  0  0  # atno 7974 bound_to 7965
  155.6476  140.0708  157.2597 H   0  0  0  0  0  0  0  0  0  0  0  0  # atno 8008 bound_to 7997
  154.4169  140.1739  156.1690 H   0  0  0  0  0  0  0  0  0  0  0  0  # atno 8009 bound_to 7997
  155.9803  140.3354  155.6660 H   0  0  0  0  0  0  0  0  0  0  0  0  # atno 8010 bound_to 7997
  140.7148  143.5595  150.9211 H   0  0  0  0  0  0  0  0  0  0  0  0  # atno 10167 bound_to 10162
  156.2655  130.7235  151.1184 H   0  0  0  0  0  0  0  0  0  0  0  0  # atno 10718 bound_to 10713
  152.9989  135.6239  154.2361 H   0  0  0  0  0  0  0  0  0  0  0  0  # atno 10763 bound_to 10752
  154.2103  135.2800  155.2962 H   0  0  0  0  0  0  0  0  0  0  0  0  # atno 10764 bound_to 10752
  154.5612  135.5704  153.7068 H   0  0  0  0  0  0  0  0  0  0  0  0  # atno 10765 bound_to 10752
  139.9957  134.9498  156.9960 H   0  0  0  0  0  0  0  0  0  0  0  0  # atno 11005 bound_to 11000
  146.2627  140.5001  142.8847 LP  0  0  0  0  0  0  0  0  0  0  0  0  # atno 17320 bound_to 7965
  144.8208  140.6546  143.6354 LP  0  0  0  0  0  0  0  0  0  0  0  0  # atno 17321 bound_to 7965
  139.9320  143.6482  152.3074 LP  0  0  0  0  0  0  0  0  0  0  0  0  # atno 17342 bound_to 10162
  139.6936  144.7644  151.1395 LP  0  0  0  0  0  0  0  0  0  0  0  0  # atno 17343 bound_to 10162
  157.7266  131.0645  150.5903 LP  0  0  0  0  0  0  0  0  0  0  0  0  # atno 17370 bound_to 10713
  156.5995  130.4350  149.5903 LP  0  0  0  0  0  0  0  0  0  0  0  0  # atno 17371 bound_to 10713
  140.4822  134.1278  155.7219 LP  0  0  0  0  0  0  0  0  0  0  0  0  # atno 17394 bound_to 11000
  141.1603  133.8806  157.1867 LP  0  0  0  0  0  0  0  0  0  0  0  0  # atno 17395 bound_to 11000

$$$$
