AV-unprocessed.smi:3347|AV-procd|sdf|12913|dock5
  -GOLD-   2272019323D 1   1.00000     0.00000
 Structure written by MMmdl.
 40 42  0  0  0  0  0  0  0  0  2 V2000
  150.3200  134.9135  156.0237 O   0  0  0  0  0  0  0  0  0  0  0  0
  149.8729  135.2907  154.9409 C   0  0  0  0  0  0  0  0  0  0  0  0
  149.1132  134.5215  154.1475 N   0  0  0  0  0  0  0  0  0  0  0  0
  148.7200  133.1439  154.4288 C   0  0  0  0  0  0  0  0  0  0  0  0
  147.4743  132.7214  153.6261 C   0  0  2  0  0  0  0  0  0  0  0  0
  147.2055  131.2177  153.5777 C   0  0  0  0  0  0  0  0  0  0  0  0
  146.2850  131.0824  152.3689 C   0  0  0  0  0  0  0  0  0  0  0  0
  146.7628  132.0876  151.3958 N   0  3  1  0  0  0  0  0  0  0  0  0
  145.6944  132.6453  150.5393 C   0  0  0  0  0  0  0  0  0  0  0  0
  144.3957  132.8844  151.2717 C   0  0  0  0  0  0  0  0  0  0  0  0
  144.5318  131.7037  150.3344 C   0  0  0  0  0  0  0  0  0  0  0  0
  147.5367  133.1086  152.1413 C   0  0  0  0  0  0  0  0  0  0  0  0
  150.0510  136.5111  154.4067 N   0  0  0  0  0  0  0  0  0  0  0  0
  150.7794  137.6125  154.9324 C   0  0  0  0  0  0  0  0  0  0  0  0
  151.6741  137.5305  156.0271 C   0  0  0  0  0  0  0  0  0  0  0  0
  152.3488  138.6948  156.4420 C   0  0  0  0  0  0  0  0  0  0  0  0
  152.1121  139.8950  155.7445 C   0  0  0  0  0  0  0  0  0  0  0  0
  151.2733  139.9851  154.6911 N   0  0  0  0  0  0  0  0  0  0  0  0
  150.6300  138.8648  154.2988 C   0  0  0  0  0  0  0  0  0  0  0  0
  148.7877  134.9169  153.2773 H   0  0  0  0  0  0  0  0  0  0  0  0
  149.5594  132.5014  154.1613 H   0  0  0  0  0  0  0  0  0  0  0  0
  148.5568  132.9990  155.4983 H   0  0  0  0  0  0  0  0  0  0  0  0
  146.5964  133.2038  154.0597 H   0  0  0  0  0  0  0  0  0  0  0  0
  148.1331  130.6710  153.4015 H   0  0  0  0  0  0  0  0  0  0  0  0
  146.7550  130.8343  154.4937 H   0  0  0  0  0  0  0  0  0  0  0  0
  146.2939  130.0783  151.9443 H   0  0  0  0  0  0  0  0  0  0  0  0
  145.2604  131.3118  152.6672 H   0  0  0  0  0  0  0  0  0  0  0  0
  146.0112  133.3136  149.7404 H   0  0  0  0  0  0  0  0  0  0  0  0
  144.3608  132.6769  152.3398 H   0  0  0  0  0  0  0  0  0  0  0  0
  143.7779  133.7160  150.9392 H   0  0  0  0  0  0  0  0  0  0  0  0
  144.0034  131.7581  149.3846 H   0  0  0  0  0  0  0  0  0  0  0  0
  144.5867  130.7119  150.7796 H   0  0  0  0  0  0  0  0  0  0  0  0
  147.1617  134.1203  151.9788 H   0  0  0  0  0  0  0  0  0  0  0  0
  148.5633  133.0793  151.7741 H   0  0  0  0  0  0  0  0  0  0  0  0
  149.5587  136.6935  153.5444 H   0  0  0  0  0  0  0  0  0  0  0  0
  151.8671  136.6045  156.5456 H   0  0  0  0  0  0  0  0  0  0  0  0
  153.0366  138.6667  157.2741 H   0  0  0  0  0  0  0  0  0  0  0  0
  152.6144  140.8053  156.0368 H   0  0  0  0  0  0  0  0  0  0  0  0
  149.9689  138.9742  153.4515 H   0  0  0  0  0  0  0  0  0  0  0  0
  147.4220  131.6187  150.7910 H   0  0  0  0  0  0  0  0  0  0  0  0
  1  2  2  0  0  0  0
  2  3  1  0  0  0  0
  2 13  1  0  0  0  0
  3  4  1  0  0  0  0
  3 20  1  0  0  0  0
  4  5  1  0  0  0  0
  4 21  1  0  0  0  0
  4 22  1  0  0  0  0
  5 12  1  0  0  0  0
  5  6  1  0  0  0  0
  5 23  1  0  0  0  0
  6  7  1  0  0  0  0
  6 24  1  0  0  0  0
  6 25  1  0  0  0  0
  7  8  1  0  0  0  0
  7 26  1  0  0  0  0
  7 27  1  0  0  0  0
  8  9  1  0  0  0  0
  8 12  1  0  0  0  0
  8 40  1  0  0  0  0
  9 11  1  0  0  0  0
  9 10  1  0  0  0  0
  9 28  1  0  0  0  0
 10 11  1  0  0  0  0
 10 29  1  0  0  0  0
 10 30  1  0  0  0  0
 11 31  1  0  0  0  0
 11 32  1  0  0  0  0
 12 33  1  0  0  0  0
 12 34  1  0  0  0  0
 13 14  1  0  0  0  0
 13 35  1  0  0  0  0
 14 19  1  0  0  0  0
 14 15  2  0  0  0  0
 15 16  1  0  0  0  0
 15 36  1  0  0  0  0
 16 17  2  0  0  0  0
 16 37  1  0  0  0  0
 17 18  1  0  0  0  0
 17 38  1  0  0  0  0
 18 19  2  0  0  0  0
 19 39  1  0  0  0  0
M  CHG  1   8   1
M  END
> <s_m_source_file>
AV-unprocessed.smi

> <i_m_source_file_index>
3347

> <i_lp_mmshare_version>
43012

> <i_f3d_flags>
0

> <s_epik_input>
W2NIXTFuW2NIXVtjSF1bY0hdYzFbTkhdQyg9TylbTkhdW0NIMl1bQ0BASF0yW0NIMl1bQ0gyXU4oW0NIMl0yKVtDSF0zW0NIMl1bQ0gyXTM=

> <s_epik_cmdline>
J2VwaWtfcHl0aG9uJywgJy1waCcsICc3LjAnLCAnLXRuJywgJzgnLCAnLW1hJywgJzIwMCcsICctbWV0YWxfYmluZGluZycsICctaW1hZScsICc8aW5maWxlLm1hZT4nLCAnLW9tYWUnLCAnPG91dGZpbGUubWFlPic=

> <r_epik_Ionization_Penalty>
0.00442629

> <r_epik_Ionization_Penalty_Charging>
0.000203384

> <r_epik_Ionization_Penalty_Neutral>
0.00422291

> <r_epik_State_Penalty>
0.00301008

> <r_epik_Charging_Adjusted_Penalty>
0.00321347

> <i_epik_Tot_Q>
1

> <i_epik_Tot_abs_Q>
1

> <r_epik_Metal_State_Penalty>
-0

> <b_epik_Metal_Only>
0

> <s_lp_Force_Field>
OPLS_2005

> <r_lp_Energy>
40.4553

> <b_lp_Chiralities_Consistent>
1

> <s_lp_Variant>
AV-unprocessed.smi:3347-3

> <Gold.Version>
5.8.1

> <Gold.Id.Protein>
6NUR|6NUR_protein|mol2

> <Gold.PLP.Fitness>
50.5241

> <Gold.PLP.PLP>
-36.4106

> <Gold.PLP.part.hbond>
-4.6744

> <Gold.PLP.part.metal>
0.0000

> <Gold.PLP.part.buried>
-3.9116

> <Gold.PLP.part.nonpolar>
-27.8053

> <Gold.PLP.part.repulsive>
0.2124

> <Gold.PLP.ligand.clash>
0.0000

> <Gold.PLP.ligand.torsion>
0.9110

> <Gold.PLP.Chemscore.Hbond>
3.9670

> <Gold.PLP.Chemscore.CHOScore>
0.9254

> <Gold.PLP.Chemscore.Metal>
0.0000

> <Gold.Chemscore.Hbonds>
donor molecule, donor type, donor heavy atom, donor atom, acceptor molecule, acceptor atom, score
      L1  H     3    20       P1  7948  0.99
      L1  H     8    40       P1 10747  1.00
      L1  H    13    35       P1  7948  1.00
      P1  H  7989  7998       L1    18  0.99
      L1  C    19    39       P1  7957  0.97

> <Gold.PLP.Chemscore.Internal.Correction>
1.2582

> <Gold.Rescore>
     Score         DG    S(hbond)    S(metal)    S(lipo)     H(rot)  DE(clash)    DE(int)     intcor
     20.11     -22.14       3.06        0.00      86.08       1.42       0.00       2.04       ----

> <Gold.Chemscore.Fitness>
20.1051

> <Gold.Chemscore.DG>
-22.1407

> <Gold.Chemscore.ZeroCoef>
-5.4800

> <Gold.Chemscore.Hbond>
3.0629

> <Gold.Chemscore.Metal>
0.0000

> <Gold.Chemscore.Lipo>
86.0761

> <Gold.Chemscore.Internal_Hbond>
0.0000

> <Gold.Chemscore.DEClash>
0.0000

> <Gold.Chemscore.DEInternal>
2.0357

> <Gold.Chemscore.Rot>
1.4219

> <Gold.Chemscore.Internal.Correction>
   9.000000E+99

> <Gold.Chemscore.Hbonds>
donor molecule, donor type, donor heavy atom, donor atom, acceptor molecule, acceptor atom, score
      L1  H     3    20       P1  7948  0.37
      L1  H     8    40       P1 10747  0.99
      L1  H    13    35       P1  7948  0.72
      P1  H  7989  7998       L1    18  0.74

> <Gold.Chemscore.Hbond.Weighted>
-10.2299

> <Gold.Chemscore.Metal.Weighted>
-0.0000

> <Gold.Chemscore.Lipo.Weighted>
-10.0709

> <Gold.Chemscore.Internal_Hbond.Weighted>
0.0000

> <Gold.Chemscore.DEClash.Weighted>
0.0000

> <Gold.Chemscore.DEInternal.Weighted>
2.0357

> <Gold.Chemscore.Rot.Weighted>
3.6401

> <Gold.Chemscore.Internal.Correction.Weighted>
   9.000000E+99

> <Gold.Protein.RotatedTorsions>
[ 6907 6896 6895 6894 ] final   99.06 input  -60.11 | X-H torsion
[ 7974 7965 7964 7962 ] final  146.56 input  175.53 | X-H torsion
[ 8008 7997 7996 7995 ] final   -6.66 input   59.86 | X-H torsion
[ 10167 10162 10161 10158 ] final -158.46 input  -65.29 | X-H torsion
[ 10718 10713 10712 10709 ] final   62.92 input   66.30 | X-H torsion
[ 10763 10752 10751 10750 ] final   -9.46 input  -60.55 | X-H torsion
[ 11005 11000 10999 10996 ] final -117.40 input  -57.11 | X-H torsion

> <Gold.Protein.ActiveResidues>
 VAL166  LYS551  ARG553  GLY616  TRP617  ASP618  TYR619  PRO620  LYS621  CYS622 
 ASP623  PHE694  ASN695  SER759  ASP760  ASP761  ALA762  ILE779  LEU786  VAL792 
 PHE793  MET794  SER795  GLU796  ALA797  LYS798  CYS799  TRP800  GLU811  SER814 

> <Gold.Protein.RotatedAtoms>
  152.5399  134.0486  159.8099 H   0  0  0  0  0  0  0  0  0  0  0  0  # atno 6907 bound_to 6896
  151.0631  133.5520  159.2640 H   0  0  0  0  0  0  0  0  0  0  0  0  # atno 6908 bound_to 6896
  151.2411  135.0597  159.9079 H   0  0  0  0  0  0  0  0  0  0  0  0  # atno 6909 bound_to 6896
  144.8661  139.5921  143.5908 H   0  0  0  0  0  0  0  0  0  0  0  0  # atno 7974 bound_to 7965
  154.5915  140.2427  155.7914 H   0  0  0  0  0  0  0  0  0  0  0  0  # atno 8008 bound_to 7997
  156.2250  140.2985  155.9999 H   0  0  0  0  0  0  0  0  0  0  0  0  # atno 8009 bound_to 7997
  155.2366  140.0405  157.2960 H   0  0  0  0  0  0  0  0  0  0  0  0  # atno 8010 bound_to 7997
  139.6690  143.9778  152.2272 H   0  0  0  0  0  0  0  0  0  0  0  0  # atno 10167 bound_to 10162
  157.5935  130.9077  149.9650 H   0  0  0  0  0  0  0  0  0  0  0  0  # atno 10718 bound_to 10713
  153.4551  135.7015  153.6085 H   0  0  0  0  0  0  0  0  0  0  0  0  # atno 10763 bound_to 10752
  153.4403  135.3782  155.2224 H   0  0  0  0  0  0  0  0  0  0  0  0  # atno 10764 bound_to 10752
  154.8728  135.3972  154.3969 H   0  0  0  0  0  0  0  0  0  0  0  0  # atno 10765 bound_to 10752
  141.0357  133.9913  157.3074 H   0  0  0  0  0  0  0  0  0  0  0  0  # atno 11005 bound_to 11000
  146.2896  139.7102  142.9170 LP  0  0  0  0  0  0  0  0  0  0  0  0  # atno 17320 bound_to 7965
  145.4219  141.0407  143.2959 LP  0  0  0  0  0  0  0  0  0  0  0  0  # atno 17321 bound_to 7965
  139.9537  144.6603  150.8147 LP  0  0  0  0  0  0  0  0  0  0  0  0  # atno 17342 bound_to 10162
  140.7611  143.3166  151.2719 LP  0  0  0  0  0  0  0  0  0  0  0  0  # atno 17343 bound_to 10162
  156.0994  130.3657  150.0247 LP  0  0  0  0  0  0  0  0  0  0  0  0  # atno 17370 bound_to 10713
  156.8365  130.9410  151.3634 LP  0  0  0  0  0  0  0  0  0  0  0  0  # atno 17371 bound_to 10713
  139.9239  135.0201  156.8165 LP  0  0  0  0  0  0  0  0  0  0  0  0  # atno 17394 bound_to 11000
  140.6326  133.9892  155.7669 LP  0  0  0  0  0  0  0  0  0  0  0  0  # atno 17395 bound_to 11000

$$$$
