AV-unprocessed.smi:67|AV-procd|sdf|633|dock3
  -GOLD-   2262016523D 1   1.00000     0.00000
 Structure written by MMmdl.
 48 50  0  0  0  0  0  0  0  0  2 V2000
  146.9226  140.4136  154.5677 O   0  0  0  0  0  0  0  0  0  0  0  0
  147.4108  139.3262  153.8020 C   0  0  1  0  0  0  0  0  0  0  0  0
  148.9550  139.4189  153.7088 C   0  0  0  0  0  0  0  0  0  0  0  0
  149.7009  139.2597  154.9623 N   0  0  0  0  0  0  0  0  0  0  0  0
  149.6739  140.4674  155.7952 C   0  0  0  0  0  0  0  0  0  0  0  0
  150.3887  140.2828  157.1445 C   0  0  0  0  0  0  0  0  0  0  0  0
  151.8306  139.7805  156.9247 C   0  0  0  0  0  0  0  0  0  0  0  0
  152.6097  139.6413  158.1159 O   0  0  0  0  0  0  0  0  0  0  0  0
  152.9330  140.7021  158.9404 C   0  0  0  0  0  0  0  0  0  0  0  0
  153.6933  140.6278  160.1342 C   0  0  0  0  0  0  0  0  0  0  0  0
  153.9507  141.7864  160.8915 C   0  0  0  0  0  0  0  0  0  0  0  0
  153.4585  143.0345  160.4701 C   0  0  0  0  0  0  0  0  0  0  0  0
  152.7056  143.1303  159.2815 C   0  0  0  0  0  0  0  0  0  0  0  0
  152.1582  144.4666  158.8024 C   0  0  0  0  0  0  0  0  0  0  0  0
  152.5975  144.7204  157.5696 F   0  0  0  0  0  0  0  0  0  0  0  0
  150.8269  144.4157  158.7816 F   0  0  0  0  0  0  0  0  0  0  0  0
  152.5339  145.4699  159.5965 F   0  0  0  0  0  0  0  0  0  0  0  0
  152.4487  141.9628  158.5325 C   0  0  0  0  0  0  0  0  0  0  0  0
  151.9007  138.5837  155.9541 C   0  0  0  0  0  0  0  0  0  0  0  0
  151.0907  138.8880  154.6830 C   0  0  0  0  0  0  0  0  0  0  0  0
  146.8701  137.9992  154.3463 C   0  0  0  0  0  0  0  0  0  0  0  0
  145.4432  137.9190  153.7986 C   0  0  0  0  0  0  0  0  0  0  0  0
  145.4273  138.7206  152.5596 N   0  3  0  0  0  0  0  0  0  0  0  0
  146.7242  139.4144  152.4290 C   0  0  0  0  0  0  0  0  0  0  0  0
  146.2568  140.0912  155.1565 H   0  0  0  0  0  0  0  0  0  0  0  0
  149.2788  138.6225  153.0379 H   0  0  0  0  0  0  0  0  0  0  0  0
  149.2463  140.3457  153.2118 H   0  0  0  0  0  0  0  0  0  0  0  0
  150.1250  141.2999  155.2530 H   0  0  0  0  0  0  0  0  0  0  0  0
  148.6466  140.7569  156.0081 H   0  0  0  0  0  0  0  0  0  0  0  0
  150.4077  141.2306  157.6830 H   0  0  0  0  0  0  0  0  0  0  0  0
  149.8020  139.6035  157.7573 H   0  0  0  0  0  0  0  0  0  0  0  0
  152.3366  140.5949  156.4040 H   0  0  0  0  0  0  0  0  0  0  0  0
  154.0952  139.7011  160.5055 H   0  0  0  0  0  0  0  0  0  0  0  0
  154.5283  141.7165  161.8015 H   0  0  0  0  0  0  0  0  0  0  0  0
  153.6632  143.9116  161.0660 H   0  0  0  0  0  0  0  0  0  0  0  0
  151.8658  142.0350  157.6258 H   0  0  0  0  0  0  0  0  0  0  0  0
  152.9395  138.3856  155.6889 H   0  0  0  0  0  0  0  0  0  0  0  0
  151.5251  137.6649  156.3968 H   0  0  0  0  0  0  0  0  0  0  0  0
  151.1157  138.0075  154.0400 H   0  0  0  0  0  0  0  0  0  0  0  0
  151.5797  139.6877  154.1243 H   0  0  0  0  0  0  0  0  0  0  0  0
  147.4545  137.1710  153.9427 H   0  0  0  0  0  0  0  0  0  0  0  0
  146.9093  137.9290  155.4339 H   0  0  0  0  0  0  0  0  0  0  0  0
  145.1281  136.8918  153.6135 H   0  0  0  0  0  0  0  0  0  0  0  0
  144.7416  138.3645  154.5050 H   0  0  0  0  0  0  0  0  0  0  0  0
  145.2737  138.1284  151.7560 H   0  0  0  0  0  0  0  0  0  0  0  0
  146.6020  140.4369  152.0690 H   0  0  0  0  0  0  0  0  0  0  0  0
  147.3005  138.8721  151.6784 H   0  0  0  0  0  0  0  0  0  0  0  0
  144.6857  139.4034  152.6253 H   0  0  0  0  0  0  0  0  0  0  0  0
  1  2  1  0  0  0  0
  1 25  1  0  0  0  0
  2 24  1  0  0  0  0
  2  3  1  0  0  0  0
  2 21  1  0  0  0  0
  3  4  1  0  0  0  0
  3 26  1  0  0  0  0
  3 27  1  0  0  0  0
  4 20  1  0  0  0  0
  4  5  1  0  0  0  0
  5  6  1  0  0  0  0
  5 28  1  0  0  0  0
  5 29  1  0  0  0  0
  6  7  1  0  0  0  0
  6 30  1  0  0  0  0
  6 31  1  0  0  0  0
  7  8  1  0  0  0  0
  7 19  1  0  0  0  0
  7 32  1  0  0  0  0
  8  9  1  0  0  0  0
  9 18  1  0  0  0  0
  9 10  2  0  0  0  0
 10 11  1  0  0  0  0
 10 33  1  0  0  0  0
 11 12  2  0  0  0  0
 11 34  1  0  0  0  0
 12 13  1  0  0  0  0
 12 35  1  0  0  0  0
 13 14  1  0  0  0  0
 13 18  2  0  0  0  0
 14 15  1  0  0  0  0
 14 16  1  0  0  0  0
 14 17  1  0  0  0  0
 18 36  1  0  0  0  0
 19 20  1  0  0  0  0
 19 37  1  0  0  0  0
 19 38  1  0  0  0  0
 20 39  1  0  0  0  0
 20 40  1  0  0  0  0
 21 22  1  0  0  0  0
 21 41  1  0  0  0  0
 21 42  1  0  0  0  0
 22 23  1  0  0  0  0
 22 43  1  0  0  0  0
 22 44  1  0  0  0  0
 23 24  1  0  0  0  0
 23 45  1  0  0  0  0
 23 48  1  0  0  0  0
 24 46  1  0  0  0  0
 24 47  1  0  0  0  0
M  CHG  1  23   1
M  END
> <s_m_source_file>
AV-unprocessed.smi

> <i_m_source_file_index>
67

> <i_lp_mmshare_version>
43012

> <i_f3d_flags>
0

> <s_epik_input>
W0NIMl0xW05IXVtDSDJdW0NIMl1bQ0BAXTEoW09IXSlbQ0gyXU4yW0NIMl1bQ0gyXVtDSF0oW0NIMl1bQ0gyXTIpT2MzW2NIXVtjSF1bY0hdYyhDKEYpKEYpRilbY0hdMw==

> <s_epik_cmdline>
J2VwaWtfcHl0aG9uJywgJy1waCcsICc3LjAnLCAnLXRuJywgJzgnLCAnLW1hJywgJzIwMCcsICctbWV0YWxfYmluZGluZycsICctaW1hZScsICc8aW5maWxlLm1hZT4nLCAnLW9tYWUnLCAnPG91dGZpbGUubWFlPic=

> <r_lp_tautomer_probability>
1

> <r_epik_Ionization_Penalty>
1.18002

> <r_epik_Ionization_Penalty_Charging>
0.00399663

> <r_epik_Ionization_Penalty_Neutral>
1.17602

> <r_epik_State_Penalty>
1.25421

> <r_epik_Charging_Adjusted_Penalty>
1.25821

> <i_epik_Tot_Q>
1

> <i_epik_Tot_abs_Q>
1

> <r_epik_Metal_State_Penalty>
1.25387

> <b_epik_Metal_Only>
0

> <s_lp_Force_Field>
OPLS_2005

> <r_lp_Energy>
63.3962

> <b_lp_Chiralities_Consistent>
1

> <s_lp_Variant>
AV-unprocessed.smi:67-5

> <Gold.Version>
5.8.1

> <Gold.Id.Protein>
6NUR|6NUR_protein|mol2

> <Gold.PLP.Fitness>
56.3455

> <Gold.PLP.PLP>
-49.3014

> <Gold.PLP.part.hbond>
-2.3756

> <Gold.PLP.part.metal>
0.0000

> <Gold.PLP.part.buried>
1.2888

> <Gold.PLP.part.nonpolar>
-48.0903

> <Gold.PLP.part.repulsive>
0.1337

> <Gold.PLP.ligand.clash>
0.1270

> <Gold.PLP.ligand.torsion>
0.2659

> <Gold.PLP.Chemscore.Hbond>
2.4281

> <Gold.PLP.Chemscore.CHOScore>
0.0000

> <Gold.PLP.Chemscore.Metal>
0.0000

> <Gold.Chemscore.Hbonds>
donor molecule, donor type, donor heavy atom, donor atom, acceptor molecule, acceptor atom, score
      L1  H    23    48       P1 10175  1.69
      P1  H  7997  8010       L1     8  0.06

> <Gold.PLP.Chemscore.Internal.Correction>
0.4184

> <Gold.Rescore>
     Score         DG    S(hbond)    S(metal)    S(lipo)     H(rot)  DE(clash)    DE(int)     intcor
     15.58     -20.62       1.42        0.00     136.67       2.19       3.64       1.40       ----

> <Gold.Chemscore.Fitness>
15.5787

> <Gold.Chemscore.DG>
-20.6225

> <Gold.Chemscore.ZeroCoef>
-5.4800

> <Gold.Chemscore.Hbond>
1.4236

> <Gold.Chemscore.Metal>
0.0000

> <Gold.Chemscore.Lipo>
136.6748

> <Gold.Chemscore.Internal_Hbond>
0.0000

> <Gold.Chemscore.DEClash>
3.6427

> <Gold.Chemscore.DEInternal>
1.4011

> <Gold.Chemscore.Rot>
2.1887

> <Gold.Chemscore.Internal.Correction>
   9.000000E+99

> <Gold.Chemscore.Hbonds>
donor molecule, donor type, donor heavy atom, donor atom, acceptor molecule, acceptor atom, score
      L1  H    23    45       P1 10171  0.03
      L1  H    23    48       P1 10175  0.82

> <Gold.Chemscore.Hbond.Weighted>
-4.7547

> <Gold.Chemscore.Metal.Weighted>
-0.0000

> <Gold.Chemscore.Lipo.Weighted>
-15.9909

> <Gold.Chemscore.Internal_Hbond.Weighted>
0.0000

> <Gold.Chemscore.DEClash.Weighted>
3.6427

> <Gold.Chemscore.DEInternal.Weighted>
1.4011

> <Gold.Chemscore.Rot.Weighted>
5.6032

> <Gold.Chemscore.Internal.Correction.Weighted>
   9.000000E+99

> <Gold.Protein.RotatedTorsions>
[ 6907 6896 6895 6894 ] final -168.54 input  -60.11 | X-H torsion
[ 7974 7965 7964 7962 ] final -179.29 input  175.53 | X-H torsion
[ 8008 7997 7996 7995 ] final   48.99 input   59.86 | X-H torsion
[ 10167 10162 10161 10158 ] final  108.52 input  -65.29 | X-H torsion
[ 10718 10713 10712 10709 ] final   -2.86 input   66.30 | X-H torsion
[ 10763 10752 10751 10750 ] final   83.90 input  -60.55 | X-H torsion
[ 11005 11000 10999 10996 ] final -151.70 input  -57.11 | X-H torsion

> <Gold.Protein.ActiveResidues>
 VAL166  LYS551  ARG553  GLY616  TRP617  ASP618  TYR619  PRO620  LYS621  CYS622 
 ASP623  PHE694  ASN695  SER759  ASP760  ASP761  ALA762  ILE779  LEU786  VAL792 
 PHE793  MET794  SER795  GLU796  ALA797  LYS798  CYS799  TRP800  GLU811  SER814 

> <Gold.Protein.RotatedAtoms>
  151.4772  133.3555  159.2832 H   0  0  0  0  0  0  0  0  0  0  0  0  # atno 6907 bound_to 6896
  150.8922  134.8328  159.7312 H   0  0  0  0  0  0  0  0  0  0  0  0  # atno 6908 bound_to 6896
  152.4829  134.4682  159.9679 H   0  0  0  0  0  0  0  0  0  0  0  0  # atno 6909 bound_to 6896
  144.7135  140.0740  143.6428 H   0  0  0  0  0  0  0  0  0  0  0  0  # atno 7974 bound_to 7965
  155.3948  140.3435  155.4253 H   0  0  0  0  0  0  0  0  0  0  0  0  # atno 8008 bound_to 7997
  156.1537  140.1579  156.8760 H   0  0  0  0  0  0  0  0  0  0  0  0  # atno 8009 bound_to 7997
  154.5075  140.0798  156.7905 H   0  0  0  0  0  0  0  0  0  0  0  0  # atno 8010 bound_to 7997
  139.6839  144.7115  151.1466 H   0  0  0  0  0  0  0  0  0  0  0  0  # atno 10167 bound_to 10162
  156.7846  130.5342  149.5745 H   0  0  0  0  0  0  0  0  0  0  0  0  # atno 10718 bound_to 10713
  153.1333  135.4674  154.9382 H   0  0  0  0  0  0  0  0  0  0  0  0  # atno 10763 bound_to 10752
  154.7683  135.3151  154.8243 H   0  0  0  0  0  0  0  0  0  0  0  0  # atno 10764 bound_to 10752
  153.8781  135.6897  153.4823 H   0  0  0  0  0  0  0  0  0  0  0  0  # atno 10765 bound_to 10752
  140.7268  134.3666  157.5174 H   0  0  0  0  0  0  0  0  0  0  0  0  # atno 11005 bound_to 11000
  145.9759  139.2904  143.1071 LP  0  0  0  0  0  0  0  0  0  0  0  0  # atno 17320 bound_to 7965
  145.9065  140.9208  143.0476 LP  0  0  0  0  0  0  0  0  0  0  0  0  # atno 17321 bound_to 7965
  140.7661  143.5658  150.9050 LP  0  0  0  0  0  0  0  0  0  0  0  0  # atno 17342 bound_to 10162
  139.9331  143.6469  152.3071 LP  0  0  0  0  0  0  0  0  0  0  0  0  # atno 17343 bound_to 10162
  156.1197  130.6100  151.0174 LP  0  0  0  0  0  0  0  0  0  0  0  0  # atno 17370 bound_to 10713
  157.6630  131.0877  150.7795 LP  0  0  0  0  0  0  0  0  0  0  0  0  # atno 17371 bound_to 10713
  139.8835  134.8992  156.2760 LP  0  0  0  0  0  0  0  0  0  0  0  0  # atno 17394 bound_to 11000
  140.9956  133.7182  156.0880 LP  0  0  0  0  0  0  0  0  0  0  0  0  # atno 17395 bound_to 11000

$$$$
