AV-unprocessed.smi:2812|AV-procd|sdf|10834|dock6
  -GOLD-   2272015273D 1   1.00000     0.00000
 Structure written by MMmdl.
 55 56  0  0  0  0  0  0  0  0  2 V2000
  147.8816  131.3628  153.6478 C   0  0  0  0  0  0  0  0  0  0  0  0
  146.8096  131.6830  152.6168 C   0  0  0  0  0  0  0  0  0  0  0  0
  146.0352  130.5939  152.0576 C   0  0  0  0  0  0  0  0  0  0  0  0
  145.1119  130.8513  151.1207 C   0  0  0  0  0  0  0  0  0  0  0  0
  144.8709  132.1547  150.6620 N   0  0  0  0  0  0  0  0  0  0  0  0
  143.8437  132.3358  149.6333 C   0  0  0  0  0  0  0  0  0  0  0  0
  145.5550  133.2328  151.1413 C   0  0  0  0  0  0  0  0  0  0  0  0
  145.3326  134.3708  150.7206 O   0  0  0  0  0  0  0  0  0  0  0  0
  146.5629  132.9498  152.1816 C   0  0  0  0  0  0  0  0  0  0  0  0
  147.2615  134.0581  152.6741 N   0  0  0  0  0  0  0  0  0  0  0  0
  147.0144  134.6511  153.8531 C   0  0  0  0  0  0  0  0  0  0  0  0
  146.1662  134.2723  154.6620 O   0  0  0  0  0  0  0  0  0  0  0  0
  147.8086  135.7120  154.0502 N   0  0  0  0  0  0  0  0  0  0  0  0
  147.8019  136.5415  155.2512 C   0  0  0  0  0  0  0  0  0  0  0  0
  149.0683  137.4393  155.3737 C   0  0  1  0  0  0  0  0  0  0  0  0
  150.2880  136.5399  155.7100 C   0  0  0  0  0  0  0  0  0  0  0  0
  151.6136  137.3024  155.7252 C   0  0  0  0  0  0  0  0  0  0  0  0
  151.8018  138.0031  154.3825 C   0  0  0  0  0  0  0  0  0  0  0  0
  150.6238  138.9466  154.1246 C   0  0  0  0  0  0  0  0  0  0  0  0
  149.3125  138.2383  154.1278 N   0  3  2  0  0  0  0  0  0  0  0  0
  148.2190  139.1880  153.7721 C   0  0  0  0  0  0  0  0  0  0  0  0
  148.4207  140.5624  154.4403 C   0  0  0  0  0  0  0  0  0  0  0  0
  148.3872  140.4341  155.9703 C   0  0  0  0  0  0  0  0  0  0  0  0
  147.3808  141.5906  153.9649 C   0  0  0  0  0  0  0  0  0  0  0  0
  148.1401  130.3039  153.6245 H   0  0  0  0  0  0  0  0  0  0  0  0
  147.5292  131.5989  154.6517 H   0  0  0  0  0  0  0  0  0  0  0  0
  148.7942  131.9282  153.4566 H   0  0  0  0  0  0  0  0  0  0  0  0
  146.1959  129.5792  152.3914 H   0  0  0  0  0  0  0  0  0  0  0  0
  144.5050  130.0800  150.6698 H   0  0  0  0  0  0  0  0  0  0  0  0
  143.0525  132.9949  149.9939 H   0  0  0  0  0  0  0  0  0  0  0  0
  143.3745  131.3974  149.3363 H   0  0  0  0  0  0  0  0  0  0  0  0
  144.2745  132.7811  148.7353 H   0  0  0  0  0  0  0  0  0  0  0  0
  147.8979  134.5093  152.0334 H   0  0  0  0  0  0  0  0  0  0  0  0
  148.4709  135.9548  153.3276 H   0  0  0  0  0  0  0  0  0  0  0  0
  146.9098  137.1673  155.2166 H   0  0  0  0  0  0  0  0  0  0  0  0
  147.6627  135.8758  156.1006 H   0  0  0  0  0  0  0  0  0  0  0  0
  148.9317  138.1523  156.1885 H   0  0  0  0  0  0  0  0  0  0  0  0
  150.1536  136.0637  156.6817 H   0  0  0  0  0  0  0  0  0  0  0  0
  150.3562  135.7304  154.9816 H   0  0  0  0  0  0  0  0  0  0  0  0
  151.6169  138.0325  156.5358 H   0  0  0  0  0  0  0  0  0  0  0  0
  152.4409  136.6174  155.9135 H   0  0  0  0  0  0  0  0  0  0  0  0
  152.7364  138.5647  154.3825 H   0  0  0  0  0  0  0  0  0  0  0  0
  151.8780  137.2681  153.5798 H   0  0  0  0  0  0  0  0  0  0  0  0
  150.6164  139.7305  154.8840 H   0  0  0  0  0  0  0  0  0  0  0  0
  150.7663  139.4414  153.1632 H   0  0  0  0  0  0  0  0  0  0  0  0
  148.1069  139.3213  152.6987 H   0  0  0  0  0  0  0  0  0  0  0  0
  147.2592  138.7696  154.0800 H   0  0  0  0  0  0  0  0  0  0  0  0
  149.4093  140.9359  154.1703 H   0  0  0  0  0  0  0  0  0  0  0  0
  147.4230  140.0596  156.3161 H   0  0  0  0  0  0  0  0  0  0  0  0
  148.5609  141.3977  156.4502 H   0  0  0  0  0  0  0  0  0  0  0  0
  149.1576  139.7488  156.3257 H   0  0  0  0  0  0  0  0  0  0  0  0
  146.3659  141.2619  154.1910 H   0  0  0  0  0  0  0  0  0  0  0  0
  147.4450  141.7572  152.8894 H   0  0  0  0  0  0  0  0  0  0  0  0
  147.5326  142.5549  154.4506 H   0  0  0  0  0  0  0  0  0  0  0  0
  149.3518  137.5614  153.3794 H   0  0  0  0  0  0  0  0  0  0  0  0
  1  2  1  0  0  0  0
  1 25  1  0  0  0  0
  1 26  1  0  0  0  0
  1 27  1  0  0  0  0
  2  9  2  0  0  0  0
  2  3  1  0  0  0  0
  3  4  2  0  0  0  0
  3 28  1  0  0  0  0
  4  5  1  0  0  0  0
  4 29  1  0  0  0  0
  5  6  1  0  0  0  0
  5  7  1  0  0  0  0
  6 30  1  0  0  0  0
  6 31  1  0  0  0  0
  6 32  1  0  0  0  0
  7  8  2  0  0  0  0
  7  9  1  0  0  0  0
  9 10  1  0  0  0  0
 10 11  1  0  0  0  0
 10 33  1  0  0  0  0
 11 12  2  0  0  0  0
 11 13  1  0  0  0  0
 13 14  1  0  0  0  0
 13 34  1  0  0  0  0
 14 15  1  0  0  0  0
 14 35  1  0  0  0  0
 14 36  1  0  0  0  0
 15 20  1  0  0  0  0
 15 16  1  0  0  0  0
 15 37  1  0  0  0  0
 16 17  1  0  0  0  0
 16 38  1  0  0  0  0
 16 39  1  0  0  0  0
 17 18  1  0  0  0  0
 17 40  1  0  0  0  0
 17 41  1  0  0  0  0
 18 19  1  0  0  0  0
 18 42  1  0  0  0  0
 18 43  1  0  0  0  0
 19 20  1  0  0  0  0
 19 44  1  0  0  0  0
 19 45  1  0  0  0  0
 20 21  1  0  0  0  0
 20 55  1  0  0  0  0
 21 22  1  0  0  0  0
 21 46  1  0  0  0  0
 21 47  1  0  0  0  0
 22 23  1  0  0  0  0
 22 24  1  0  0  0  0
 22 48  1  0  0  0  0
 23 49  1  0  0  0  0
 23 50  1  0  0  0  0
 23 51  1  0  0  0  0
 24 52  1  0  0  0  0
 24 53  1  0  0  0  0
 24 54  1  0  0  0  0
M  CHG  1  20   1
M  END
> <s_m_source_file>
AV-unprocessed.smi

> <i_m_source_file_index>
2812

> <i_lp_mmshare_version>
43012

> <i_f3d_flags>
0

> <s_epik_input>
W0NIM11jMVtjSF1bY0hdbihbQ0gzXSljKD1PKWMxW05IXUMoPU8pW05IXVtDSDJdW0NAQEhdMltDSDJdW0NIMl1bQ0gyXVtDSDJdTjJbQ0gyXVtDSF0oW0NIM10pW0NIM10=

> <s_epik_cmdline>
J2VwaWtfcHl0aG9uJywgJy1waCcsICc3LjAnLCAnLXRuJywgJzgnLCAnLW1hJywgJzIwMCcsICctbWV0YWxfYmluZGluZycsICctaW1hZScsICc8aW5maWxlLm1hZT4nLCAnLW9tYWUnLCAnPG91dGZpbGUubWFlPic=

> <r_lp_tautomer_probability>
1

> <r_epik_Ionization_Penalty>
0.0010902

> <r_epik_Ionization_Penalty_Charging>
0.00107091

> <r_epik_Ionization_Penalty_Neutral>
1.92854e-05

> <r_epik_State_Penalty>
0.000697184

> <r_epik_Charging_Adjusted_Penalty>
0.0017681

> <i_epik_Tot_Q>
1

> <i_epik_Tot_abs_Q>
1

> <r_epik_Metal_State_Penalty>
-0

> <b_epik_Metal_Only>
0

> <s_lp_Force_Field>
OPLS_2005

> <r_lp_Energy>
40.1667

> <b_lp_Chiralities_Consistent>
1

> <s_lp_Variant>
AV-unprocessed.smi:2812-2

> <Gold.Version>
5.8.1

> <Gold.Id.Protein>
6NUR|6NUR_protein|mol2

> <Gold.PLP.Fitness>
50.4262

> <Gold.PLP.PLP>
-40.2842

> <Gold.PLP.part.hbond>
-2.9448

> <Gold.PLP.part.metal>
0.0000

> <Gold.PLP.part.buried>
-5.4196

> <Gold.PLP.part.nonpolar>
-32.2010

> <Gold.PLP.part.repulsive>
0.2852

> <Gold.PLP.ligand.clash>
0.0000

> <Gold.PLP.ligand.torsion>
1.1410

> <Gold.PLP.Chemscore.Hbond>
3.8320

> <Gold.PLP.Chemscore.CHOScore>
0.0000

> <Gold.PLP.Chemscore.Metal>
0.0000

> <Gold.Chemscore.Hbonds>
donor molecule, donor type, donor heavy atom, donor atom, acceptor molecule, acceptor atom, score
      L1  H    10    33       P1  7948  0.83
      L1  H    13    34       P1  7948  1.00
      L1  H    20    55       P1  7948  2.00

> <Gold.PLP.Chemscore.Internal.Correction>
0.9280

> <Gold.Rescore>
     Score         DG    S(hbond)    S(metal)    S(lipo)     H(rot)  DE(clash)    DE(int)     intcor
     19.46     -20.79       2.23        0.00     100.24       1.52       0.05       1.28       ----

> <Gold.Chemscore.Fitness>
19.4628

> <Gold.Chemscore.DG>
-20.7926

> <Gold.Chemscore.ZeroCoef>
-5.4800

> <Gold.Chemscore.Hbond>
2.2348

> <Gold.Chemscore.Metal>
0.0000

> <Gold.Chemscore.Lipo>
100.2437

> <Gold.Chemscore.Internal_Hbond>
0.0000

> <Gold.Chemscore.DEClash>
0.0462

> <Gold.Chemscore.DEInternal>
1.2836

> <Gold.Chemscore.Rot>
1.5157

> <Gold.Chemscore.Internal.Correction>
   9.000000E+99

> <Gold.Chemscore.Hbonds>
donor molecule, donor type, donor heavy atom, donor atom, acceptor molecule, acceptor atom, score
      L1  H    10    33       P1  7948  0.20
      L1  H    13    34       P1  7948  0.95
      L1  H    20    55       P1  7948  0.91

> <Gold.Chemscore.Hbond.Weighted>
-7.4644

> <Gold.Chemscore.Metal.Weighted>
-0.0000

> <Gold.Chemscore.Lipo.Weighted>
-11.7285

> <Gold.Chemscore.Internal_Hbond.Weighted>
0.0000

> <Gold.Chemscore.DEClash.Weighted>
0.0462

> <Gold.Chemscore.DEInternal.Weighted>
1.2836

> <Gold.Chemscore.Rot.Weighted>
3.8803

> <Gold.Chemscore.Internal.Correction.Weighted>
   9.000000E+99

> <Gold.Protein.RotatedTorsions>
[ 6907 6896 6895 6894 ] final -163.88 input  -60.11 | X-H torsion
[ 7974 7965 7964 7962 ] final  110.37 input  175.53 | X-H torsion
[ 8008 7997 7996 7995 ] final   30.66 input   59.86 | X-H torsion
[ 10167 10162 10161 10158 ] final   -8.16 input  -65.29 | X-H torsion
[ 10718 10713 10712 10709 ] final   -9.01 input   66.30 | X-H torsion
[ 10763 10752 10751 10750 ] final   42.12 input  -60.55 | X-H torsion
[ 11005 11000 10999 10996 ] final  -41.49 input  -57.11 | X-H torsion

> <Gold.Protein.ActiveResidues>
 VAL166  LYS551  ARG553  GLY616  TRP617  ASP618  TYR619  PRO620  LYS621  CYS622 
 ASP623  PHE694  ASN695  SER759  ASP760  ASP761  ALA762  ILE779  LEU786  VAL792 
 PHE793  MET794  SER795  GLU796  ALA797  LYS798  CYS799  TRP800  GLU811  SER814 

> <Gold.Protein.RotatedAtoms>
  151.4030  133.3751  159.2734 H   0  0  0  0  0  0  0  0  0  0  0  0  # atno 6907 bound_to 6896
  150.9420  134.8829  159.7628 H   0  0  0  0  0  0  0  0  0  0  0  0  # atno 6908 bound_to 6896
  152.5075  134.3981  159.9459 H   0  0  0  0  0  0  0  0  0  0  0  0  # atno 6909 bound_to 6896
  145.2559  139.2721  143.4043 H   0  0  0  0  0  0  0  0  0  0  0  0  # atno 7974 bound_to 7965
  155.0939  140.3223  155.4566 H   0  0  0  0  0  0  0  0  0  0  0  0  # atno 8008 bound_to 7997
  156.2735  140.2073  156.6013 H   0  0  0  0  0  0  0  0  0  0  0  0  # atno 8009 bound_to 7997
  154.6881  140.0519  157.0323 H   0  0  0  0  0  0  0  0  0  0  0  0  # atno 8010 bound_to 7997
  140.7050  143.6000  150.8807 H   0  0  0  0  0  0  0  0  0  0  0  0  # atno 10167 bound_to 10162
  156.6943  130.5074  149.5935 H   0  0  0  0  0  0  0  0  0  0  0  0  # atno 10718 bound_to 10713
  152.9891  135.6141  154.2899 H   0  0  0  0  0  0  0  0  0  0  0  0  # atno 10763 bound_to 10752
  154.2624  135.2782  155.2774 H   0  0  0  0  0  0  0  0  0  0  0  0  # atno 10764 bound_to 10752
  154.5194  135.5819  153.6725 H   0  0  0  0  0  0  0  0  0  0  0  0  # atno 10765 bound_to 10752
  141.0249  133.6846  156.2464 H   0  0  0  0  0  0  0  0  0  0  0  0  # atno 11005 bound_to 11000
  146.3289  140.2962  142.8618 LP  0  0  0  0  0  0  0  0  0  0  0  0  # atno 17320 bound_to 7965
  144.9461  140.8130  143.5600 LP  0  0  0  0  0  0  0  0  0  0  0  0  # atno 17321 bound_to 7965
  139.9725  143.6041  152.2969 LP  0  0  0  0  0  0  0  0  0  0  0  0  # atno 17342 bound_to 10162
  139.6633  144.7662  151.1921 LP  0  0  0  0  0  0  0  0  0  0  0  0  # atno 17343 bound_to 10162
  156.1775  130.6477  151.0911 LP  0  0  0  0  0  0  0  0  0  0  0  0  # atno 17370 bound_to 10713
  157.6997  131.0780  150.6859 LP  0  0  0  0  0  0  0  0  0  0  0  0  # atno 17371 bound_to 10713
  140.6508  134.5069  157.5577 LP  0  0  0  0  0  0  0  0  0  0  0  0  # atno 17394 bound_to 11000
  139.9170  134.8227  156.1335 LP  0  0  0  0  0  0  0  0  0  0  0  0  # atno 17395 bound_to 11000

$$$$
