AV-unprocessed.smi:1535|AV-procd|sdf|6180|dock2
  -GOLD-   22720 6333D 1   1.00000     0.00000
 Structure written by MMmdl.
 47 48  0  0  0  0  0  0  0  0  2 V2000
  152.9436  142.7937  161.8010 C   0  0  0  0  0  0  0  0  0  0  0  0
  152.4361  142.4383  160.4145 C   0  0  0  0  0  0  0  0  0  0  0  0
  152.7936  141.1930  159.8504 C   0  0  0  0  0  0  0  0  0  0  0  0
  152.3428  140.8246  158.5641 C   0  0  0  0  0  0  0  0  0  0  0  0
  152.5686  139.6745  157.8276 N   0  0  0  0  0  0  0  0  0  0  0  0
  151.8855  139.9287  156.7158 C   0  0  0  0  0  0  0  0  0  0  0  0
  151.2546  141.1166  156.6382 N   0  0  0  0  0  0  0  0  0  0  0  0
  150.4675  141.6195  155.5272 C   0  0  0  0  0  0  0  0  0  0  0  0
  149.6736  140.5065  154.8147 C   0  0  2  0  0  0  0  0  0  0  0  0
  150.5745  139.7776  154.0059 O   0  0  0  0  0  0  0  0  0  0  0  0
  148.5302  141.0338  153.9222 C   0  0  0  0  0  0  0  0  0  0  0  0
  147.2000  140.6290  154.4445 N   0  3  1  0  0  0  0  0  0  0  0  0
  147.2199  139.2809  155.0592 C   0  0  0  0  0  0  0  0  0  0  0  0
  146.5864  141.6420  155.3394 C   0  0  0  0  0  0  0  0  0  0  0  0
  145.6603  142.6116  154.5792 C   0  0  2  0  0  0  0  0  0  0  0  0
  146.3300  143.1480  153.3079 C   0  0  0  0  0  0  0  0  0  0  0  0
  145.2189  143.7174  155.4445 C   0  0  0  0  0  0  0  0  0  0  0  0
  144.8756  144.5884  156.1229 N   0  0  0  0  0  0  0  0  0  0  0  0
  151.5189  141.7440  157.8511 C   0  0  0  0  0  0  0  0  0  0  0  0
  151.1521  142.9836  158.4041 C   0  0  0  0  0  0  0  0  0  0  0  0
  151.6116  143.3361  159.6900 C   0  0  0  0  0  0  0  0  0  0  0  0
  151.2122  144.6782  160.2776 C   0  0  0  0  0  0  0  0  0  0  0  0
  153.5743  142.0035  162.2092 H   0  0  0  0  0  0  0  0  0  0  0  0
  152.1085  142.9425  162.4861 H   0  0  0  0  0  0  0  0  0  0  0  0
  153.5342  143.7096  161.7697 H   0  0  0  0  0  0  0  0  0  0  0  0
  153.4191  140.5076  160.4034 H   0  0  0  0  0  0  0  0  0  0  0  0
  151.8515  139.2144  155.9061 H   0  0  0  0  0  0  0  0  0  0  0  0
  149.7894  142.3878  155.9024 H   0  0  0  0  0  0  0  0  0  0  0  0
  151.1441  142.1127  154.8280 H   0  0  0  0  0  0  0  0  0  0  0  0
  149.2758  139.8248  155.5661 H   0  0  0  0  0  0  0  0  0  0  0  0
  150.1574  139.5944  153.1770 H   0  0  0  0  0  0  0  0  0  0  0  0
  148.5549  142.1215  153.8447 H   0  0  0  0  0  0  0  0  0  0  0  0
  148.6837  140.6674  152.9072 H   0  0  0  0  0  0  0  0  0  0  0  0
  147.8241  139.2748  155.9676 H   0  0  0  0  0  0  0  0  0  0  0  0
  147.6300  138.5385  154.3744 H   0  0  0  0  0  0  0  0  0  0  0  0
  146.2103  138.9617  155.3197 H   0  0  0  0  0  0  0  0  0  0  0  0
  145.9929  141.1356  156.1022 H   0  0  0  0  0  0  0  0  0  0  0  0
  147.3705  142.1851  155.8692 H   0  0  0  0  0  0  0  0  0  0  0  0
  144.7523  142.0912  154.2774 H   0  0  0  0  0  0  0  0  0  0  0  0
  145.6589  143.8144  152.7655 H   0  0  0  0  0  0  0  0  0  0  0  0
  146.6044  142.3357  152.6344 H   0  0  0  0  0  0  0  0  0  0  0  0
  147.2352  143.7084  153.5439 H   0  0  0  0  0  0  0  0  0  0  0  0
  150.5213  143.6583  157.8444 H   0  0  0  0  0  0  0  0  0  0  0  0
  150.5635  145.2329  159.5990 H   0  0  0  0  0  0  0  0  0  0  0  0
  152.0948  145.2883  160.4702 H   0  0  0  0  0  0  0  0  0  0  0  0
  150.6739  144.5404  161.2158 H   0  0  0  0  0  0  0  0  0  0  0  0
  146.5889  140.5659  153.6420 H   0  0  0  0  0  0  0  0  0  0  0  0
  1  2  1  0  0  0  0
  1 23  1  0  0  0  0
  1 24  1  0  0  0  0
  1 25  1  0  0  0  0
  2 21  1  0  0  0  0
  2  3  2  0  0  0  0
  3  4  1  0  0  0  0
  3 26  1  0  0  0  0
  4 19  2  0  0  0  0
  4  5  1  0  0  0  0
  5  6  2  0  0  0  0
  6  7  1  0  0  0  0
  6 27  1  0  0  0  0
  7  8  1  0  0  0  0
  7 19  1  0  0  0  0
  8  9  1  0  0  0  0
  8 28  1  0  0  0  0
  8 29  1  0  0  0  0
  9 10  1  0  0  0  0
  9 11  1  0  0  0  0
  9 30  1  0  0  0  0
 10 31  1  0  0  0  0
 11 12  1  0  0  0  0
 11 32  1  0  0  0  0
 11 33  1  0  0  0  0
 12 13  1  0  0  0  0
 12 14  1  0  0  0  0
 12 47  1  0  0  0  0
 13 34  1  0  0  0  0
 13 35  1  0  0  0  0
 13 36  1  0  0  0  0
 14 15  1  0  0  0  0
 14 37  1  0  0  0  0
 14 38  1  0  0  0  0
 15 16  1  0  0  0  0
 15 17  1  0  0  0  0
 15 39  1  0  0  0  0
 16 40  1  0  0  0  0
 16 41  1  0  0  0  0
 16 42  1  0  0  0  0
 17 18  3  0  0  0  0
 19 20  1  0  0  0  0
 20 21  2  0  0  0  0
 20 43  1  0  0  0  0
 21 22  1  0  0  0  0
 22 44  1  0  0  0  0
 22 45  1  0  0  0  0
 22 46  1  0  0  0  0
M  CHG  1  12   1
M  END
> <s_m_source_file>
AV-unprocessed.smi

> <i_m_source_file_index>
1535

> <i_lp_mmshare_version>
43012

> <i_f3d_flags>
0

> <s_epik_input>
W0NIM11jKFtjSF0xKWMoW0NIM10pW2NIXWMoYzEyKW4oW2NIXW4yKVtDSDJdW0NASF0oW09IXSlbQ0gyXU4oW0NIM10pW0NIMl1bQ0BIXShbQ0gzXSlDI04=

> <s_epik_cmdline>
J2VwaWtfcHl0aG9uJywgJy1waCcsICc3LjAnLCAnLXRuJywgJzgnLCAnLW1hJywgJzIwMCcsICctbWV0YWxfYmluZGluZycsICctaW1hZScsICc8aW5maWxlLm1hZT4nLCAnLW9tYWUnLCAnPG91dGZpbGUubWFlPic=

> <r_epik_Ionization_Penalty>
2.21058

> <r_epik_Ionization_Penalty_Charging>
2.12381

> <r_epik_Ionization_Penalty_Neutral>
0.0867699

> <r_epik_State_Penalty>
2.36208

> <r_epik_Charging_Adjusted_Penalty>
4.48589

> <i_epik_Tot_Q>
1

> <i_epik_Tot_abs_Q>
1

> <r_epik_Metal_State_Penalty>
2.2818

> <b_epik_Metal_Only>
0

> <s_lp_Force_Field>
OPLS_2005

> <r_lp_Energy>
13.2218

> <b_lp_Chiralities_Consistent>
1

> <s_lp_Variant>
AV-unprocessed.smi:1535-11

> <Gold.Version>
5.8.1

> <Gold.Id.Protein>
6NUR|6NUR_protein|mol2

> <Gold.PLP.Fitness>
52.0899

> <Gold.PLP.PLP>
-46.8363

> <Gold.PLP.part.hbond>
-2.9960

> <Gold.PLP.part.metal>
0.0000

> <Gold.PLP.part.buried>
-6.0080

> <Gold.PLP.part.nonpolar>
-37.1986

> <Gold.PLP.part.repulsive>
0.1275

> <Gold.PLP.ligand.clash>
0.0000

> <Gold.PLP.ligand.torsion>
2.1253

> <Gold.PLP.Chemscore.Hbond>
3.0000

> <Gold.PLP.Chemscore.CHOScore>
0.0000

> <Gold.PLP.Chemscore.Metal>
0.0000

> <Gold.Chemscore.Hbonds>
donor molecule, donor type, donor heavy atom, donor atom, acceptor molecule, acceptor atom, score
      L1  H    10    31       P1  7957  0.75
      P1  H  7989  7998       L1    10  0.85
      P1  H  7997  8009       L1     5  0.51

> <Gold.PLP.Chemscore.Internal.Correction>
0.5042

> <Gold.Rescore>
     Score         DG    S(hbond)    S(metal)    S(lipo)     H(rot)  DE(clash)    DE(int)     intcor
     16.57     -18.74       2.03        0.00     112.38       2.60       0.04       2.13       ----

> <Gold.Chemscore.Fitness>
16.5679

> <Gold.Chemscore.DG>
-18.7393

> <Gold.Chemscore.ZeroCoef>
-5.4800

> <Gold.Chemscore.Hbond>
2.0286

> <Gold.Chemscore.Metal>
0.0000

> <Gold.Chemscore.Lipo>
112.3751

> <Gold.Chemscore.Internal_Hbond>
0.0000

> <Gold.Chemscore.DEClash>
0.0429

> <Gold.Chemscore.DEInternal>
2.1286

> <Gold.Chemscore.Rot>
2.6031

> <Gold.Chemscore.Internal.Correction>
   9.000000E+99

> <Gold.Chemscore.Hbonds>
donor molecule, donor type, donor heavy atom, donor atom, acceptor molecule, acceptor atom, score
      L1  H    10    31       P1  7957  0.72
      P1  H  7989  7998       L1    10  0.07
      P1  H  7997  8009       L1     5  0.03

> <Gold.Chemscore.Hbond.Weighted>
-6.7754

> <Gold.Chemscore.Metal.Weighted>
-0.0000

> <Gold.Chemscore.Lipo.Weighted>
-13.1479

> <Gold.Chemscore.Internal_Hbond.Weighted>
0.0000

> <Gold.Chemscore.DEClash.Weighted>
0.0429

> <Gold.Chemscore.DEInternal.Weighted>
2.1286

> <Gold.Chemscore.Rot.Weighted>
6.6640

> <Gold.Chemscore.Internal.Correction.Weighted>
   9.000000E+99

> <Gold.Protein.RotatedTorsions>
[ 6907 6896 6895 6894 ] final -179.93 input  -60.11 | X-H torsion
[ 7974 7965 7964 7962 ] final -173.47 input  175.53 | X-H torsion
[ 8008 7997 7996 7995 ] final  156.42 input   59.86 | X-H torsion
[ 10167 10162 10161 10158 ] final  -99.58 input  -65.29 | X-H torsion
[ 10718 10713 10712 10709 ] final -118.65 input   66.30 | X-H torsion
[ 10763 10752 10751 10750 ] final  -55.17 input  -60.55 | X-H torsion
[ 11005 11000 10999 10996 ] final   -0.26 input  -57.11 | X-H torsion

> <Gold.Protein.ActiveResidues>
 VAL166  LYS551  ARG553  GLY616  TRP617  ASP618  TYR619  PRO620  LYS621  CYS622 
 ASP623  PHE694  ASN695  SER759  ASP760  ASP761  ALA762  ILE779  LEU786  VAL792 
 PHE793  MET794  SER795  GLU796  ALA797  LYS798  CYS799  TRP800  GLU811  SER814 

> <Gold.Protein.RotatedAtoms>
  151.6613  133.3317  159.3174 H   0  0  0  0  0  0  0  0  0  0  0  0  # atno 6907 bound_to 6896
  150.7912  134.6941  159.6522 H   0  0  0  0  0  0  0  0  0  0  0  0  # atno 6908 bound_to 6896
  152.3992  134.6319  160.0129 H   0  0  0  0  0  0  0  0  0  0  0  0  # atno 6909 bound_to 6896
  144.7138  140.1616  143.6375 H   0  0  0  0  0  0  0  0  0  0  0  0  # atno 7974 bound_to 7965
  156.2423  140.1913  156.6952 H   0  0  0  0  0  0  0  0  0  0  0  0  # atno 8008 bound_to 7997
  154.6222  140.0607  156.9656 H   0  0  0  0  0  0  0  0  0  0  0  0  # atno 8009 bound_to 7997
  155.1843  140.3279  155.4372 H   0  0  0  0  0  0  0  0  0  0  0  0  # atno 8010 bound_to 7997
  140.2610  143.3408  152.0626 H   0  0  0  0  0  0  0  0  0  0  0  0  # atno 10167 bound_to 10162
  156.1122  130.6258  150.9318 H   0  0  0  0  0  0  0  0  0  0  0  0  # atno 10718 bound_to 10713
  154.1865  135.6434  153.5048 H   0  0  0  0  0  0  0  0  0  0  0  0  # atno 10763 bound_to 10752
  153.0046  135.5418  154.6460 H   0  0  0  0  0  0  0  0  0  0  0  0  # atno 10764 bound_to 10752
  154.5837  135.2927  155.0679 H   0  0  0  0  0  0  0  0  0  0  0  0  # atno 10765 bound_to 10752
  140.6343  133.9547  155.8291 H   0  0  0  0  0  0  0  0  0  0  0  0  # atno 11005 bound_to 11000
  145.9025  139.2438  143.1485 LP  0  0  0  0  0  0  0  0  0  0  0  0  # atno 17320 bound_to 7965
  145.9797  140.8693  143.0121 LP  0  0  0  0  0  0  0  0  0  0  0  0  # atno 17321 bound_to 7965
  139.5017  144.6719  151.6222 LP  0  0  0  0  0  0  0  0  0  0  0  0  # atno 17342 bound_to 10162
  140.5966  143.9685  150.6358 LP  0  0  0  0  0  0  0  0  0  0  0  0  # atno 17343 bound_to 10162
  157.6304  131.0921  150.8453 LP  0  0  0  0  0  0  0  0  0  0  0  0  # atno 17370 bound_to 10713
  156.8562  130.5097  149.5307 LP  0  0  0  0  0  0  0  0  0  0  0  0  # atno 17371 bound_to 10713
  141.0653  134.0286  157.3603 LP  0  0  0  0  0  0  0  0  0  0  0  0  # atno 17394 bound_to 11000
  139.9104  135.0189  156.7667 LP  0  0  0  0  0  0  0  0  0  0  0  0  # atno 17395 bound_to 11000

$$$$
