AV-unprocessed.smi:2973|AV-procd|sdf|11345|dock1
  -GOLD-   2272016253D 1   1.00000     0.00000
 Structure written by MMmdl.
 48 50  0  0  0  0  0  0  0  0  2 V2000
  153.3931  140.7730  160.3537 C   0  0  0  0  0  0  0  0  0  0  0  0
  152.9796  141.4978  159.0531 C   0  0  2  0  0  0  0  0  0  0  0  0
  152.2393  142.8103  159.3955 C   0  0  0  0  0  0  0  0  0  0  0  0
  151.8686  143.6074  158.1363 C   0  0  0  0  0  0  0  0  0  0  0  0
  151.0262  142.7630  157.1721 C   0  0  0  0  0  0  0  0  0  0  0  0
  151.7534  141.4580  156.8052 C   0  0  0  0  0  0  0  0  0  0  0  0
  152.1747  140.6161  158.0397 C   0  0  1  0  0  0  0  0  0  0  0  0
  152.9893  139.5045  157.5800 N   0  5  0  0  0  0  0  0  0  0  0  0
  152.3682  138.3422  157.8865 C   0  0  0  0  0  0  0  0  0  0  0  0
  152.7772  137.2058  157.6507 O   0  0  0  0  0  0  0  0  0  0  0  0
  151.1976  138.5697  158.5109 N   0  0  0  0  0  0  0  0  0  0  0  0
  150.2917  137.5234  159.0033 C   0  0  0  0  0  0  0  0  0  0  0  0
  149.9027  136.5026  157.9247 C   0  0  0  0  0  0  0  0  0  0  0  0
  149.8450  135.2990  158.1806 O   0  0  0  0  0  0  0  0  0  0  0  0
  149.6167  137.0098  156.7164 N   0  0  0  0  0  0  0  0  0  0  0  0
  149.2301  136.2278  155.5480 C   0  0  0  0  0  0  0  0  0  0  0  0
  150.4047  135.3971  155.0052 C   0  0  0  0  0  0  0  0  0  0  0  0
  150.0176  133.9509  154.7596 C   0  0  0  0  0  0  0  0  0  0  0  0
  149.0159  133.6232  153.8207 C   0  0  0  0  0  0  0  0  0  0  0  0
  148.7011  132.2648  153.6219 C   0  0  0  0  0  0  0  0  0  0  0  0
  149.3972  131.2912  154.3640 C   0  0  0  0  0  0  0  0  0  0  0  0
  150.3819  131.7213  155.2758 C   0  0  0  0  0  0  0  0  0  0  0  0
  150.6912  133.0209  155.4741 N   0  0  0  0  0  0  0  0  0  0  0  0
  150.9861  139.8821  158.6581 C   0  0  0  0  0  0  0  0  0  0  0  0
  150.0207  140.4234  159.1986 O   0  0  0  0  0  0  0  0  0  0  0  0
  152.5283  140.4864  160.9525 H   0  0  0  0  0  0  0  0  0  0  0  0
  154.0176  141.4162  160.9737 H   0  0  0  0  0  0  0  0  0  0  0  0
  153.9686  139.8707  160.1471 H   0  0  0  0  0  0  0  0  0  0  0  0
  153.9078  141.7857  158.5563 H   0  0  0  0  0  0  0  0  0  0  0  0
  151.3389  142.5981  159.9724 H   0  0  0  0  0  0  0  0  0  0  0  0
  152.8670  143.4302  160.0364 H   0  0  0  0  0  0  0  0  0  0  0  0
  151.3225  144.5090  158.4144 H   0  0  0  0  0  0  0  0  0  0  0  0
  152.7779  143.9386  157.6330 H   0  0  0  0  0  0  0  0  0  0  0  0
  150.0572  142.5448  157.6206 H   0  0  0  0  0  0  0  0  0  0  0  0
  150.8193  143.3344  156.2669 H   0  0  0  0  0  0  0  0  0  0  0  0
  151.1185  140.8697  156.1403 H   0  0  0  0  0  0  0  0  0  0  0  0
  152.6393  141.7100  156.2200 H   0  0  0  0  0  0  0  0  0  0  0  0
  150.7497  136.9858  159.8347 H   0  0  0  0  0  0  0  0  0  0  0  0
  149.3900  137.9840  159.4110 H   0  0  0  0  0  0  0  0  0  0  0  0
  149.6857  138.0099  156.5954 H   0  0  0  0  0  0  0  0  0  0  0  0
  148.4147  135.5662  155.8418 H   0  0  0  0  0  0  0  0  0  0  0  0
  148.8322  136.8848  154.7725 H   0  0  0  0  0  0  0  0  0  0  0  0
  150.7724  135.8263  154.0719 H   0  0  0  0  0  0  0  0  0  0  0  0
  151.2400  135.4300  155.7062 H   0  0  0  0  0  0  0  0  0  0  0  0
  148.5020  134.3928  153.2633 H   0  0  0  0  0  0  0  0  0  0  0  0
  147.9402  131.9751  152.9121 H   0  0  0  0  0  0  0  0  0  0  0  0
  149.1830  130.2404  154.2370 H   0  0  0  0  0  0  0  0  0  0  0  0
  150.9360  131.0025  155.8610 H   0  0  0  0  0  0  0  0  0  0  0  0
  1  2  1  0  0  0  0
  1 26  1  0  0  0  0
  1 27  1  0  0  0  0
  1 28  1  0  0  0  0
  2  7  1  0  0  0  0
  2  3  1  0  0  0  0
  2 29  1  0  0  0  0
  3  4  1  0  0  0  0
  3 30  1  0  0  0  0
  3 31  1  0  0  0  0
  4  5  1  0  0  0  0
  4 32  1  0  0  0  0
  4 33  1  0  0  0  0
  5  6  1  0  0  0  0
  5 34  1  0  0  0  0
  5 35  1  0  0  0  0
  6  7  1  0  0  0  0
  6 36  1  0  0  0  0
  6 37  1  0  0  0  0
  7 24  1  0  0  0  0
  7  8  1  0  0  0  0
  8  9  1  0  0  0  0
  9 10  2  0  0  0  0
  9 11  1  0  0  0  0
 11 12  1  0  0  0  0
 11 24  1  0  0  0  0
 12 13  1  0  0  0  0
 12 38  1  0  0  0  0
 12 39  1  0  0  0  0
 13 14  2  0  0  0  0
 13 15  1  0  0  0  0
 15 16  1  0  0  0  0
 15 40  1  0  0  0  0
 16 17  1  0  0  0  0
 16 41  1  0  0  0  0
 16 42  1  0  0  0  0
 17 18  1  0  0  0  0
 17 43  1  0  0  0  0
 17 44  1  0  0  0  0
 18 23  1  0  0  0  0
 18 19  2  0  0  0  0
 19 20  1  0  0  0  0
 19 45  1  0  0  0  0
 20 21  2  0  0  0  0
 20 46  1  0  0  0  0
 21 22  1  0  0  0  0
 21 47  1  0  0  0  0
 22 23  2  0  0  0  0
 22 48  1  0  0  0  0
 24 25  2  0  0  0  0
M  CHG  1   8  -1
M  END
> <s_m_source_file>
AV-unprocessed.smi

> <i_m_source_file_index>
2973

> <i_lp_mmshare_version>
43012

> <i_f3d_flags>
0

> <s_epik_input>
W0NIMl0xW0NIMl1bQ0gyXVtDSDJdW0NAQEhdKFtDSDNdKVtDQF0xMltOSF1DKD1PKU4oQzI9TylbQ0gyXUMoPU8pW05IXVtDSDJdW0NIMl1jM1tjSF1bY0hdW2NIXVtjSF1uMw==

> <s_epik_cmdline>
J2VwaWtfcHl0aG9uJywgJy1waCcsICc3LjAnLCAnLXRuJywgJzgnLCAnLW1hJywgJzIwMCcsICctbWV0YWxfYmluZGluZycsICctaW1hZScsICc8aW5maWxlLm1hZT4nLCAnLW9tYWUnLCAnPG91dGZpbGUubWFlPic=

> <r_lp_tautomer_probability>
1

> <r_epik_Ionization_Penalty>
6.04175

> <r_epik_Ionization_Penalty_Charging>
6.01728

> <r_epik_Ionization_Penalty_Neutral>
0.0244696

> <r_epik_State_Penalty>
6.03712

> <r_epik_Charging_Adjusted_Penalty>
12.0544

> <i_epik_Tot_Q>
-1

> <i_epik_Tot_abs_Q>
1

> <r_epik_Metal_State_Penalty>
2.01153

> <b_epik_Metal_Only>
1

> <s_lp_Force_Field>
OPLS_2005

> <r_lp_Energy>
12.5421

> <b_lp_Chiralities_Consistent>
1

> <s_lp_Variant>
AV-unprocessed.smi:2973-9

> <Gold.Version>
5.8.1

> <Gold.Id.Protein>
6NUR|6NUR_protein|mol2

> <Gold.PLP.Fitness>
46.1265

> <Gold.PLP.PLP>
-38.4252

> <Gold.PLP.part.hbond>
-4.7467

> <Gold.PLP.part.metal>
0.0000

> <Gold.PLP.part.buried>
-1.0042

> <Gold.PLP.part.nonpolar>
-32.3915

> <Gold.PLP.part.repulsive>
0.0132

> <Gold.PLP.ligand.clash>
0.0000

> <Gold.PLP.ligand.torsion>
0.6872

> <Gold.PLP.Chemscore.Hbond>
3.0000

> <Gold.PLP.Chemscore.CHOScore>
0.0000

> <Gold.PLP.Chemscore.Metal>
0.0000

> <Gold.Chemscore.Hbonds>
donor molecule, donor type, donor heavy atom, donor atom, acceptor molecule, acceptor atom, score
      P1  H  6896  6909       L1    14  1.00
      P1  H  7997  8009       L1     8  2.00

> <Gold.PLP.Chemscore.Internal.Correction>
0.0757

> <Gold.Rescore>
     Score         DG    S(hbond)    S(metal)    S(lipo)     H(rot)  DE(clash)    DE(int)     intcor
     15.66     -19.38       1.92        0.00     103.57       1.81       1.67       2.05       ----

> <Gold.Chemscore.Fitness>
15.6571

> <Gold.Chemscore.DG>
-19.3767

> <Gold.Chemscore.ZeroCoef>
-5.4800

> <Gold.Chemscore.Hbond>
1.9193

> <Gold.Chemscore.Metal>
0.0000

> <Gold.Chemscore.Lipo>
103.5672

> <Gold.Chemscore.Internal_Hbond>
0.0000

> <Gold.Chemscore.DEClash>
1.6699

> <Gold.Chemscore.DEInternal>
2.0496

> <Gold.Chemscore.Rot>
1.8090

> <Gold.Chemscore.Internal.Correction>
   9.000000E+99

> <Gold.Chemscore.Hbonds>
donor molecule, donor type, donor heavy atom, donor atom, acceptor molecule, acceptor atom, score
      P1  H  6896  6909       L1    14  0.95
      P1  H  7997  8009       L1     8  0.78

> <Gold.Chemscore.Hbond.Weighted>
-6.4104

> <Gold.Chemscore.Metal.Weighted>
-0.0000

> <Gold.Chemscore.Lipo.Weighted>
-12.1174

> <Gold.Chemscore.Internal_Hbond.Weighted>
0.0000

> <Gold.Chemscore.DEClash.Weighted>
1.6699

> <Gold.Chemscore.DEInternal.Weighted>
2.0496

> <Gold.Chemscore.Rot.Weighted>
4.6310

> <Gold.Chemscore.Internal.Correction.Weighted>
   9.000000E+99

> <Gold.Protein.RotatedTorsions>
[ 6907 6896 6895 6894 ] final   44.52 input  -60.11 | X-H torsion
[ 7974 7965 7964 7962 ] final -136.62 input  175.53 | X-H torsion
[ 8008 7997 7996 7995 ] final -177.75 input   59.86 | X-H torsion
[ 10167 10162 10161 10158 ] final -159.49 input  -65.29 | X-H torsion
[ 10718 10713 10712 10709 ] final   32.05 input   66.30 | X-H torsion
[ 10763 10752 10751 10750 ] final  -12.96 input  -60.55 | X-H torsion
[ 11005 11000 10999 10996 ] final -158.59 input  -57.11 | X-H torsion

> <Gold.Protein.ActiveResidues>
 VAL166  LYS551  ARG553  GLY616  TRP617  ASP618  TYR619  PRO620  LYS621  CYS622 
 ASP623  PHE694  ASN695  SER759  ASP760  ASP761  ALA762  ILE779  LEU786  VAL792 
 PHE793  MET794  SER795  GLU796  ALA797  LYS798  CYS799  TRP800  GLU811  SER814 

> <Gold.Protein.RotatedAtoms>
  152.2335  134.8299  160.0470 H   0  0  0  0  0  0  0  0  0  0  0  0  # atno 6907 bound_to 6896
  151.9039  133.3539  159.3848 H   0  0  0  0  0  0  0  0  0  0  0  0  # atno 6908 bound_to 6896
  150.7032  134.4726  159.5476 H   0  0  0  0  0  0  0  0  0  0  0  0  # atno 6909 bound_to 6896
  144.8911  140.6644  143.5144 H   0  0  0  0  0  0  0  0  0  0  0  0  # atno 7974 bound_to 7965
  156.0106  140.1240  157.0457 H   0  0  0  0  0  0  0  0  0  0  0  0  # atno 8008 bound_to 7997
  154.4274  140.1088  156.5894 H   0  0  0  0  0  0  0  0  0  0  0  0  # atno 8009 bound_to 7997
  155.6084  140.3471  155.4617 H   0  0  0  0  0  0  0  0  0  0  0  0  # atno 8010 bound_to 7997
  139.6611  143.9911  152.2226 H   0  0  0  0  0  0  0  0  0  0  0  0  # atno 10167 bound_to 10162
  157.2803  130.7251  149.6552 H   0  0  0  0  0  0  0  0  0  0  0  0  # atno 10718 bound_to 10713
  153.5062  135.7017  153.5805 H   0  0  0  0  0  0  0  0  0  0  0  0  # atno 10763 bound_to 10752
  153.3915  135.3894  155.1926 H   0  0  0  0  0  0  0  0  0  0  0  0  # atno 10764 bound_to 10752
  154.8707  135.3859  154.4537 H   0  0  0  0  0  0  0  0  0  0  0  0  # atno 10765 bound_to 10752
  140.6520  134.4441  157.5235 H   0  0  0  0  0  0  0  0  0  0  0  0  # atno 11005 bound_to 11000
  145.3781  139.1643  143.4295 LP  0  0  0  0  0  0  0  0  0  0  0  0  # atno 17320 bound_to 7965
  146.3054  140.3859  142.8689 LP  0  0  0  0  0  0  0  0  0  0  0  0  # atno 17321 bound_to 7965
  139.9651  144.6532  150.8043 LP  0  0  0  0  0  0  0  0  0  0  0  0  # atno 17342 bound_to 10162
  140.7580  143.3098  151.2872 LP  0  0  0  0  0  0  0  0  0  0  0  0  # atno 17343 bound_to 10162
  155.9664  130.4340  150.5031 LP  0  0  0  0  0  0  0  0  0  0  0  0  # atno 17370 bound_to 10713
  157.2973  131.0638  151.2092 LP  0  0  0  0  0  0  0  0  0  0  0  0  # atno 17371 bound_to 10713
  139.9042  134.8485  156.1770 LP  0  0  0  0  0  0  0  0  0  0  0  0  # atno 17394 bound_to 11000
  141.0530  133.6879  156.1807 LP  0  0  0  0  0  0  0  0  0  0  0  0  # atno 17395 bound_to 11000

$$$$
