AV-unprocessed.smi:831|AV-procd|sdf|3874|dock1
  -GOLD-   22720 1323D 1   1.00000     0.00000
 Structure written by MMmdl.
 50 51  0  0  0  0  0  0  0  0  1 V2000
  153.8781  141.8344  160.8976 C   0  0  0  0  0  0  0  0  0  0  0  0
  153.3126  141.8533  159.4703 C   0  0  0  0  0  0  0  0  0  0  0  0
  152.4755  143.1197  159.2313 C   0  0  0  0  0  0  0  0  0  0  0  0
  152.4998  140.5813  159.1808 C   0  0  0  0  0  0  0  0  0  0  0  0
  152.9257  140.0308  157.9393 O   0  0  0  0  0  0  0  0  0  0  0  0
  152.2376  138.8536  157.5288 C   0  0  2  0  0  0  0  0  0  0  0  0
  153.3029  137.8240  157.1255 C   0  0  0  0  0  0  0  0  0  0  0  0
  151.3131  139.1796  156.3368 C   0  0  0  0  0  0  0  0  0  0  0  0
  151.7187  139.9299  155.4509 O   0  0  0  0  0  0  0  0  0  0  0  0
  150.0719  138.6691  156.2833 N   0  0  0  0  0  0  0  0  0  0  0  0
  149.0749  138.8734  155.2381 C   0  0  0  0  0  0  0  0  0  0  0  0
  147.9914  139.8792  155.5995 C   0  0  0  0  0  0  0  0  0  0  0  0
  147.8946  140.4696  156.8783 C   0  0  0  0  0  0  0  0  0  0  0  0
  146.8678  141.3997  157.1268 C   0  0  0  0  0  0  0  0  0  0  0  0
  145.9603  141.7222  156.0903 C   0  0  0  0  0  0  0  0  0  0  0  0
  144.9219  142.6502  156.3210 N   0  0  0  0  0  0  0  0  0  0  0  0
  144.3064  143.2959  155.1630 C   0  0  0  0  0  0  0  0  0  0  0  0
  143.4211  144.4701  155.6138 C   0  0  0  0  0  0  0  0  0  0  0  0
  142.4622  144.0111  156.5607 O   0  0  0  0  0  0  0  0  0  0  0  0
  143.0822  143.4857  157.7295 C   0  0  0  0  0  0  0  0  0  0  0  0
  143.9604  142.2789  157.3562 C   0  0  0  0  0  0  0  0  0  0  0  0
  146.0644  141.1639  154.8591 N   0  0  0  0  0  0  0  0  0  0  0  0
  147.0496  140.2711  154.6267 C   0  0  0  0  0  0  0  0  0  0  0  0
  153.0799  141.8109  161.6402 H   0  0  0  0  0  0  0  0  0  0  0  0
  154.4868  142.7182  161.0904 H   0  0  0  0  0  0  0  0  0  0  0  0
  154.5096  140.9604  161.0593 H   0  0  0  0  0  0  0  0  0  0  0  0
  154.1593  141.8744  158.7829 H   0  0  0  0  0  0  0  0  0  0  0  0
  151.6054  143.1494  159.8879 H   0  0  0  0  0  0  0  0  0  0  0  0
  152.1156  143.1694  158.2033 H   0  0  0  0  0  0  0  0  0  0  0  0
  153.0621  144.0198  159.4159 H   0  0  0  0  0  0  0  0  0  0  0  0
  152.6606  139.8446  159.9693 H   0  0  0  0  0  0  0  0  0  0  0  0
  151.4353  140.8184  159.1722 H   0  0  0  0  0  0  0  0  0  0  0  0
  151.6912  138.4541  158.3822 H   0  0  0  0  0  0  0  0  0  0  0  0
  152.8456  136.8897  156.7980 H   0  0  0  0  0  0  0  0  0  0  0  0
  153.9548  137.5931  157.9684 H   0  0  0  0  0  0  0  0  0  0  0  0
  153.9327  138.1924  156.3146 H   0  0  0  0  0  0  0  0  0  0  0  0
  149.7851  138.0929  157.0611 H   0  0  0  0  0  0  0  0  0  0  0  0
  149.5659  139.2265  154.3304 H   0  0  0  0  0  0  0  0  0  0  0  0
  148.6028  137.9176  155.0048 H   0  0  0  0  0  0  0  0  0  0  0  0
  148.5939  140.2289  157.6653 H   0  0  0  0  0  0  0  0  0  0  0  0
  146.7992  141.8644  158.0992 H   0  0  0  0  0  0  0  0  0  0  0  0
  145.0754  143.6638  154.4823 H   0  0  0  0  0  0  0  0  0  0  0  0
  143.7080  142.5655  154.6169 H   0  0  0  0  0  0  0  0  0  0  0  0
  144.0255  145.2677  156.0490 H   0  0  0  0  0  0  0  0  0  0  0  0
  142.8988  144.8976  154.7578 H   0  0  0  0  0  0  0  0  0  0  0  0
  143.6739  144.2602  158.2203 H   0  0  0  0  0  0  0  0  0  0  0  0
  142.3085  143.1826  158.4352 H   0  0  0  0  0  0  0  0  0  0  0  0
  143.3364  141.4670  156.9801 H   0  0  0  0  0  0  0  0  0  0  0  0
  144.4540  141.9089  158.2535 H   0  0  0  0  0  0  0  0  0  0  0  0
  147.0876  139.8577  153.6295 H   0  0  0  0  0  0  0  0  0  0  0  0
  1  2  1  0  0  0  0
  1 24  1  0  0  0  0
  1 25  1  0  0  0  0
  1 26  1  0  0  0  0
  2  3  1  0  0  0  0
  2  4  1  0  0  0  0
  2 27  1  0  0  0  0
  3 28  1  0  0  0  0
  3 29  1  0  0  0  0
  3 30  1  0  0  0  0
  4  5  1  0  0  0  0
  4 31  1  0  0  0  0
  4 32  1  0  0  0  0
  5  6  1  0  0  0  0
  6  7  1  0  0  0  0
  6  8  1  0  0  0  0
  6 33  1  0  0  0  0
  7 34  1  0  0  0  0
  7 35  1  0  0  0  0
  7 36  1  0  0  0  0
  8  9  2  0  0  0  0
  8 10  1  0  0  0  0
 10 11  1  0  0  0  0
 10 37  1  0  0  0  0
 11 12  1  0  0  0  0
 11 38  1  0  0  0  0
 11 39  1  0  0  0  0
 12 23  1  0  0  0  0
 12 13  2  0  0  0  0
 13 14  1  0  0  0  0
 13 40  1  0  0  0  0
 14 15  2  0  0  0  0
 14 41  1  0  0  0  0
 15 16  1  0  0  0  0
 15 22  1  0  0  0  0
 16 21  1  0  0  0  0
 16 17  1  0  0  0  0
 17 18  1  0  0  0  0
 17 42  1  0  0  0  0
 17 43  1  0  0  0  0
 18 19  1  0  0  0  0
 18 44  1  0  0  0  0
 18 45  1  0  0  0  0
 19 20  1  0  0  0  0
 20 21  1  0  0  0  0
 20 46  1  0  0  0  0
 20 47  1  0  0  0  0
 21 48  1  0  0  0  0
 21 49  1  0  0  0  0
 22 23  2  0  0  0  0
 23 50  1  0  0  0  0
M  END
> <s_m_source_file>
AV-unprocessed.smi

> <i_m_source_file_index>
831

> <i_lp_mmshare_version>
43012

> <i_f3d_flags>
0

> <s_epik_input>
W0NIM11bQ0hdKFtDSDNdKVtDSDJdT1tDQEhdKFtDSDNdKUMoPU8pW05IXVtDSDJdYzFbY0hdW2NIXWMobltjSF0xKU4yW0NIMl1bQ0gyXU9bQ0gyXVtDSDJdMg==

> <s_epik_cmdline>
J2VwaWtfcHl0aG9uJywgJy1waCcsICc3LjAnLCAnLXRuJywgJzgnLCAnLW1hJywgJzIwMCcsICctbWV0YWxfYmluZGluZycsICctaW1hZScsICc8aW5maWxlLm1hZT4nLCAnLW9tYWUnLCAnPG91dGZpbGUubWFlPic=

> <r_lp_tautomer_probability>
1

> <r_epik_Ionization_Penalty>
0.00456501

> <r_epik_Ionization_Penalty_Charging>
0

> <r_epik_Ionization_Penalty_Neutral>
0.00456501

> <r_epik_State_Penalty>
0.00329791

> <r_epik_Charging_Adjusted_Penalty>
0.00329791

> <i_epik_Tot_Q>
0

> <i_epik_Tot_abs_Q>
0

> <r_epik_Metal_State_Penalty>
-0

> <b_epik_Metal_Only>
0

> <s_lp_Force_Field>
OPLS_2005

> <r_lp_Energy>
23.9744

> <b_lp_Chiralities_Consistent>
1

> <s_lp_Variant>
AV-unprocessed.smi:831-1

> <Gold.Version>
5.8.1

> <Gold.Id.Protein>
6NUR|6NUR_protein|mol2

> <Gold.PLP.Fitness>
44.5127

> <Gold.PLP.PLP>
-39.9864

> <Gold.PLP.part.hbond>
-2.0000

> <Gold.PLP.part.metal>
0.0000

> <Gold.PLP.part.buried>
-2.2911

> <Gold.PLP.part.nonpolar>
-36.4668

> <Gold.PLP.part.repulsive>
0.5821

> <Gold.PLP.ligand.clash>
0.0000

> <Gold.PLP.ligand.torsion>
2.2687

> <Gold.PLP.Chemscore.Hbond>
1.8000

> <Gold.PLP.Chemscore.CHOScore>
1.0000

> <Gold.PLP.Chemscore.Metal>
0.0000

> <Gold.Chemscore.Hbonds>
donor molecule, donor type, donor heavy atom, donor atom, acceptor molecule, acceptor atom, score
      P1  H  7989  7998       L1     9  0.66
      P1  H  7997  8008       L1     5  1.00

> <Gold.PLP.Chemscore.Internal.Correction>
0.6636

> <Gold.Rescore>
     Score         DG    S(hbond)    S(metal)    S(lipo)     H(rot)  DE(clash)    DE(int)     intcor
     16.20     -18.52       1.89        0.00      99.47       1.92       0.20       2.12       ----

> <Gold.Chemscore.Fitness>
16.1972

> <Gold.Chemscore.DG>
-18.5220

> <Gold.Chemscore.ZeroCoef>
-5.4800

> <Gold.Chemscore.Hbond>
1.8890

> <Gold.Chemscore.Metal>
0.0000

> <Gold.Chemscore.Lipo>
99.4655

> <Gold.Chemscore.Internal_Hbond>
0.0000

> <Gold.Chemscore.DEClash>
0.2028

> <Gold.Chemscore.DEInternal>
2.1220

> <Gold.Chemscore.Rot>
1.9159

> <Gold.Chemscore.Internal.Correction>
   9.000000E+99

> <Gold.Chemscore.Hbonds>
donor molecule, donor type, donor heavy atom, donor atom, acceptor molecule, acceptor atom, score
      P1  H  7989  7998       L1     9  0.62
      P1  H  7997  8008       L1     5  0.49

> <Gold.Chemscore.Hbond.Weighted>
-6.3093

> <Gold.Chemscore.Metal.Weighted>
-0.0000

> <Gold.Chemscore.Lipo.Weighted>
-11.6375

> <Gold.Chemscore.Internal_Hbond.Weighted>
0.0000

> <Gold.Chemscore.DEClash.Weighted>
0.2028

> <Gold.Chemscore.DEInternal.Weighted>
2.1220

> <Gold.Chemscore.Rot.Weighted>
4.9047

> <Gold.Chemscore.Internal.Correction.Weighted>
   9.000000E+99

> <Gold.Protein.RotatedTorsions>
[ 6907 6896 6895 6894 ] final   57.28 input  -60.11 | X-H torsion
[ 7974 7965 7964 7962 ] final -113.06 input  175.53 | X-H torsion
[ 8008 7997 7996 7995 ] final  -73.24 input   59.86 | X-H torsion
[ 10167 10162 10161 10158 ] final  120.94 input  -65.29 | X-H torsion
[ 10718 10713 10712 10709 ] final  133.42 input   66.30 | X-H torsion
[ 10763 10752 10751 10750 ] final -167.18 input  -60.55 | X-H torsion
[ 11005 11000 10999 10996 ] final  -74.76 input  -57.11 | X-H torsion

> <Gold.Protein.ActiveResidues>
 VAL166  LYS551  ARG553  GLY616  TRP617  ASP618  TYR619  PRO620  LYS621  CYS622 
 ASP623  PHE694  ASN695  SER759  ASP760  ASP761  ALA762  ILE779  LEU786  VAL792 
 PHE793  MET794  SER795  GLU796  ALA797  LYS798  CYS799  TRP800  GLU811  SER814 

> <Gold.Protein.RotatedAtoms>
  152.3717  134.6724  160.0173 H   0  0  0  0  0  0  0  0  0  0  0  0  # atno 6907 bound_to 6896
  151.7015  133.3306  159.3276 H   0  0  0  0  0  0  0  0  0  0  0  0  # atno 6908 bound_to 6896
  150.7678  134.6546  159.6351 H   0  0  0  0  0  0  0  0  0  0  0  0  # atno 6909 bound_to 6896
  145.1365  140.8754  143.3727 H   0  0  0  0  0  0  0  0  0  0  0  0  # atno 7974 bound_to 7965
  154.5231  140.0782  156.8209 H   0  0  0  0  0  0  0  0  0  0  0  0  # atno 8008 bound_to 7997
  155.3532  140.3414  155.4221 H   0  0  0  0  0  0  0  0  0  0  0  0  # atno 8009 bound_to 7997
  156.1703  140.1617  156.8446 H   0  0  0  0  0  0  0  0  0  0  0  0  # atno 8010 bound_to 7997
  139.5951  144.7039  151.3197 H   0  0  0  0  0  0  0  0  0  0  0  0  # atno 10167 bound_to 10162
  157.4774  131.1084  150.9725 H   0  0  0  0  0  0  0  0  0  0  0  0  # atno 10718 bound_to 10713
  154.6758  135.2946  154.9681 H   0  0  0  0  0  0  0  0  0  0  0  0  # atno 10763 bound_to 10752
  154.0692  135.6620  153.4826 H   0  0  0  0  0  0  0  0  0  0  0  0  # atno 10764 bound_to 10752
  153.0515  135.5171  154.7776 H   0  0  0  0  0  0  0  0  0  0  0  0  # atno 10765 bound_to 10752
  141.1638  133.6923  156.7414 H   0  0  0  0  0  0  0  0  0  0  0  0  # atno 11005 bound_to 11000
  145.0578  139.3130  143.5896 LP  0  0  0  0  0  0  0  0  0  0  0  0  # atno 17320 bound_to 7965
  146.3509  140.0009  142.8676 LP  0  0  0  0  0  0  0  0  0  0  0  0  # atno 17321 bound_to 7965
  140.7205  143.7149  150.7740 LP  0  0  0  0  0  0  0  0  0  0  0  0  # atno 17342 bound_to 10162
  140.0713  143.5058  152.2578 LP  0  0  0  0  0  0  0  0  0  0  0  0  # atno 17343 bound_to 10162
  157.0469  130.5771  149.5364 LP  0  0  0  0  0  0  0  0  0  0  0  0  # atno 17370 bound_to 10713
  156.0104  130.5195  150.7969 LP  0  0  0  0  0  0  0  0  0  0  0  0  # atno 17371 bound_to 10713
  140.2671  134.8421  157.3813 LP  0  0  0  0  0  0  0  0  0  0  0  0  # atno 17394 bound_to 11000
  140.1556  134.4794  155.7930 LP  0  0  0  0  0  0  0  0  0  0  0  0  # atno 17395 bound_to 11000

$$$$
