AV-unprocessed.smi:3212|AV-procd|sdf|12278|dock4
  -GOLD-   2272018113D 1   1.00000     0.00000
 Structure written by MMmdl.
 40 40  0  0  0  0  0  0  0  0  2 V2000
  147.7982  145.9984  160.8641 C   0  0  0  0  0  0  0  0  0  0  0  0
  148.2061  144.5924  160.3988 C   0  0  2  0  0  0  0  0  0  0  0  0
  149.2196  144.6984  159.3243 N   0  3  0  0  0  0  0  0  0  0  0  0
  150.5662  145.1275  159.7632 C   0  0  0  0  0  0  0  0  0  0  0  0
  151.6689  144.2660  159.1270 C   0  0  0  0  0  0  0  0  0  0  0  0
  152.3527  143.4367  160.1034 N   0  0  0  0  0  0  0  0  0  0  0  0
  153.3895  142.5506  159.8982 C   0  0  0  0  0  0  0  0  0  0  0  0
  153.6981  141.9991  161.1086 C   0  0  0  0  0  0  0  0  0  0  0  0
  152.7850  142.6194  162.0060 C   0  0  0  0  0  0  0  0  0  0  0  0
  151.9803  143.4787  161.4012 N   0  0  0  0  0  0  0  0  0  0  0  0
  146.9663  143.8084  159.9460 C   0  0  0  0  0  0  0  0  0  0  0  0
  146.6296  142.7866  160.5447 O   0  0  0  0  0  0  0  0  0  0  0  0
  146.3131  144.3026  158.8791 N   0  0  0  0  0  0  0  0  0  0  0  0
  145.1096  143.7786  158.2221 C   0  0  0  0  0  0  0  0  0  0  0  0
  145.4601  142.3720  157.7057 C   0  0  0  0  0  0  0  0  0  0  0  0
  144.7101  144.6669  157.0252 C   0  0  0  0  0  0  0  0  0  0  0  0
  143.9450  143.6674  159.2284 C   0  0  0  0  0  0  0  0  0  0  0  0
  147.0716  145.9543  161.6766 H   0  0  0  0  0  0  0  0  0  0  0  0
  147.3544  146.5763  160.0523 H   0  0  0  0  0  0  0  0  0  0  0  0
  148.6620  146.5536  161.2311 H   0  0  0  0  0  0  0  0  0  0  0  0
  148.6621  144.0762  161.2455 H   0  0  0  0  0  0  0  0  0  0  0  0
  149.2917  143.8044  158.8596 H   0  0  0  0  0  0  0  0  0  0  0  0
  150.7225  146.1769  159.5096 H   0  0  0  0  0  0  0  0  0  0  0  0
  150.6304  145.0499  160.8489 H   0  0  0  0  0  0  0  0  0  0  0  0
  151.2323  143.6097  158.3730 H   0  0  0  0  0  0  0  0  0  0  0  0
  152.4007  144.8888  158.6103 H   0  0  0  0  0  0  0  0  0  0  0  0
  153.8165  142.3871  158.9195 H   0  0  0  0  0  0  0  0  0  0  0  0
  154.4609  141.2648  161.3211 H   0  0  0  0  0  0  0  0  0  0  0  0
  152.6828  142.4710  163.0709 H   0  0  0  0  0  0  0  0  0  0  0  0
  146.6945  145.1423  158.4676 H   0  0  0  0  0  0  0  0  0  0  0  0
  144.6109  141.9112  157.1998 H   0  0  0  0  0  0  0  0  0  0  0  0
  145.7532  141.7095  158.5212 H   0  0  0  0  0  0  0  0  0  0  0  0
  146.2863  142.4030  156.9943 H   0  0  0  0  0  0  0  0  0  0  0  0
  145.5384  144.7891  156.3262 H   0  0  0  0  0  0  0  0  0  0  0  0
  144.3934  145.6615  157.3386 H   0  0  0  0  0  0  0  0  0  0  0  0
  143.8784  144.2282  156.4727 H   0  0  0  0  0  0  0  0  0  0  0  0
  143.0770  143.1911  158.7714 H   0  0  0  0  0  0  0  0  0  0  0  0
  143.6191  144.6430  159.5893 H   0  0  0  0  0  0  0  0  0  0  0  0
  144.2258  143.0710  160.0973 H   0  0  0  0  0  0  0  0  0  0  0  0
  148.8916  145.3805  158.6551 H   0  0  0  0  0  0  0  0  0  0  0  0
  1  2  1  0  0  0  0
  1 18  1  0  0  0  0
  1 19  1  0  0  0  0
  1 20  1  0  0  0  0
  2  3  1  0  0  0  0
  2 11  1  0  0  0  0
  2 21  1  0  0  0  0
  3  4  1  0  0  0  0
  3 22  1  0  0  0  0
  3 40  1  0  0  0  0
  4  5  1  0  0  0  0
  4 23  1  0  0  0  0
  4 24  1  0  0  0  0
  5  6  1  0  0  0  0
  5 25  1  0  0  0  0
  5 26  1  0  0  0  0
  6 10  1  0  0  0  0
  6  7  1  0  0  0  0
  7  8  2  0  0  0  0
  7 27  1  0  0  0  0
  8  9  1  0  0  0  0
  8 28  1  0  0  0  0
  9 10  2  0  0  0  0
  9 29  1  0  0  0  0
 11 12  2  0  0  0  0
 11 13  1  0  0  0  0
 13 14  1  0  0  0  0
 13 30  1  0  0  0  0
 14 15  1  0  0  0  0
 14 16  1  0  0  0  0
 14 17  1  0  0  0  0
 15 31  1  0  0  0  0
 15 32  1  0  0  0  0
 15 33  1  0  0  0  0
 16 34  1  0  0  0  0
 16 35  1  0  0  0  0
 16 36  1  0  0  0  0
 17 37  1  0  0  0  0
 17 38  1  0  0  0  0
 17 39  1  0  0  0  0
M  CHG  1   3   1
M  END
> <s_m_source_file>
AV-unprocessed.smi

> <i_m_source_file_index>
3212

> <i_lp_mmshare_version>
43012

> <i_f3d_flags>
0

> <s_epik_input>
W0NIM11DKFtDSDNdKShbQ0gzXSlbTkhdQyg9TylbQ0BIXShbQ0gzXSlbTkhdW0NIMl1bQ0gyXW4xW2NIXVtjSF1bY0hdbjE=

> <s_epik_cmdline>
J2VwaWtfcHl0aG9uJywgJy1waCcsICc3LjAnLCAnLXRuJywgJzgnLCAnLW1hJywgJzIwMCcsICctbWV0YWxfYmluZGluZycsICctaW1hZScsICc8aW5maWxlLm1hZT4nLCAnLW9tYWUnLCAnPG91dGZpbGUubWFlPic=

> <r_lp_tautomer_probability>
1

> <r_epik_Ionization_Penalty>
0.198377

> <r_epik_Ionization_Penalty_Charging>
0.198374

> <r_epik_Ionization_Penalty_Neutral>
3.0924e-06

> <r_epik_State_Penalty>
0.188176

> <r_epik_Charging_Adjusted_Penalty>
0.38655

> <i_epik_Tot_Q>
1

> <i_epik_Tot_abs_Q>
1

> <r_epik_Metal_State_Penalty>
0.188456

> <b_epik_Metal_Only>
0

> <s_lp_Force_Field>
OPLS_2005

> <r_lp_Energy>
6.00749

> <b_lp_Chiralities_Consistent>
1

> <s_lp_Variant>
AV-unprocessed.smi:3212-1

> <Gold.Version>
5.8.1

> <Gold.Id.Protein>
6NUR|6NUR_protein|mol2

> <Gold.PLP.Fitness>
49.3652

> <Gold.PLP.PLP>
-36.9179

> <Gold.PLP.part.hbond>
-4.0000

> <Gold.PLP.part.metal>
0.0000

> <Gold.PLP.part.buried>
-4.4825

> <Gold.PLP.part.nonpolar>
-28.8554

> <Gold.PLP.part.repulsive>
0.3463

> <Gold.PLP.ligand.clash>
0.0000

> <Gold.PLP.ligand.torsion>
0.7893

> <Gold.PLP.Chemscore.Hbond>
4.6466

> <Gold.PLP.Chemscore.CHOScore>
0.0000

> <Gold.PLP.Chemscore.Metal>
0.0000

> <Gold.Chemscore.Hbonds>
donor molecule, donor type, donor heavy atom, donor atom, acceptor molecule, acceptor atom, score
      L1  H     3    40       P1  8029  2.00
      L1  H    13    30       P1  8029  0.99
      P1  H  6933  6944       L1    12  0.65
      P1  H  6934  6946       L1    12  0.99

> <Gold.PLP.Chemscore.Internal.Correction>
0.0863

> <Gold.Rescore>
     Score         DG    S(hbond)    S(metal)    S(lipo)     H(rot)  DE(clash)    DE(int)     intcor
     17.82     -18.56       2.99        0.00      71.69       2.07       0.00       0.74       ----

> <Gold.Chemscore.Fitness>
17.8242

> <Gold.Chemscore.DG>
-18.5613

> <Gold.Chemscore.ZeroCoef>
-5.4800

> <Gold.Chemscore.Hbond>
2.9886

> <Gold.Chemscore.Metal>
0.0000

> <Gold.Chemscore.Lipo>
71.6921

> <Gold.Chemscore.Internal_Hbond>
0.0000

> <Gold.Chemscore.DEClash>
0.0000

> <Gold.Chemscore.DEInternal>
0.7371

> <Gold.Chemscore.Rot>
2.0659

> <Gold.Chemscore.Internal.Correction>
   9.000000E+99

> <Gold.Chemscore.Hbonds>
donor molecule, donor type, donor heavy atom, donor atom, acceptor molecule, acceptor atom, score
      L1  H     3    40       P1  8029  0.98
      L1  H    13    30       P1  8029  0.94
      P1  H  6933  6944       L1    12  0.15
      P1  H  6934  6946       L1    12  0.93

> <Gold.Chemscore.Hbond.Weighted>
-9.9820

> <Gold.Chemscore.Metal.Weighted>
-0.0000

> <Gold.Chemscore.Lipo.Weighted>
-8.3880

> <Gold.Chemscore.Internal_Hbond.Weighted>
0.0000

> <Gold.Chemscore.DEClash.Weighted>
0.0000

> <Gold.Chemscore.DEInternal.Weighted>
0.7371

> <Gold.Chemscore.Rot.Weighted>
5.2886

> <Gold.Chemscore.Internal.Correction.Weighted>
   9.000000E+99

> <Gold.Protein.RotatedTorsions>
[ 6907 6896 6895 6894 ] final   63.45 input  -60.11 | X-H torsion
[ 7974 7965 7964 7962 ] final  -29.40 input  175.53 | X-H torsion
[ 8008 7997 7996 7995 ] final  -18.12 input   59.86 | X-H torsion
[ 10167 10162 10161 10158 ] final  126.97 input  -65.29 | X-H torsion
[ 10718 10713 10712 10709 ] final  -46.97 input   66.30 | X-H torsion
[ 10763 10752 10751 10750 ] final -167.26 input  -60.55 | X-H torsion
[ 11005 11000 10999 10996 ] final -136.91 input  -57.11 | X-H torsion

> <Gold.Protein.ActiveResidues>
 VAL166  LYS551  ARG553  GLY616  TRP617  ASP618  TYR619  PRO620  LYS621  CYS622 
 ASP623  PHE694  ASN695  SER759  ASP760  ASP761  ALA762  ILE779  LEU786  VAL792 
 PHE793  MET794  SER795  GLU796  ALA797  LYS798  CYS799  TRP800  GLU811  SER814 

> <Gold.Protein.RotatedAtoms>
  152.4254  134.5878  159.9965 H   0  0  0  0  0  0  0  0  0  0  0  0  # atno 6907 bound_to 6896
  151.6017  133.3350  159.3056 H   0  0  0  0  0  0  0  0  0  0  0  0  # atno 6908 bound_to 6896
  150.8143  134.7353  159.6781 H   0  0  0  0  0  0  0  0  0  0  0  0  # atno 6909 bound_to 6896
  146.1219  140.5407  142.8731 H   0  0  0  0  0  0  0  0  0  0  0  0  # atno 7974 bound_to 7965
  154.4929  140.2124  155.9509 H   0  0  0  0  0  0  0  0  0  0  0  0  # atno 8008 bound_to 7997
  156.1330  140.3193  155.8347 H   0  0  0  0  0  0  0  0  0  0  0  0  # atno 8009 bound_to 7997
  155.4261  140.0500  157.3013 H   0  0  0  0  0  0  0  0  0  0  0  0  # atno 8010 bound_to 7997
  139.5603  144.6877  151.4063 H   0  0  0  0  0  0  0  0  0  0  0  0  # atno 10167 bound_to 10162
  156.2130  130.4162  149.9090 H   0  0  0  0  0  0  0  0  0  0  0  0  # atno 10718 bound_to 10713
  154.6750  135.2945  154.9691 H   0  0  0  0  0  0  0  0  0  0  0  0  # atno 10763 bound_to 10752
  154.0705  135.6619  153.4827 H   0  0  0  0  0  0  0  0  0  0  0  0  # atno 10764 bound_to 10752
  153.0510  135.5173  154.7765 H   0  0  0  0  0  0  0  0  0  0  0  0  # atno 10765 bound_to 10752
  140.8761  134.1990  157.4621 H   0  0  0  0  0  0  0  0  0  0  0  0  # atno 11005 bound_to 11000
  144.7605  140.5411  143.6739 LP  0  0  0  0  0  0  0  0  0  0  0  0  # atno 17320 bound_to 7965
  145.5448  139.1476  143.3427 LP  0  0  0  0  0  0  0  0  0  0  0  0  # atno 17321 bound_to 7965
  140.6882  143.7925  150.7216 LP  0  0  0  0  0  0  0  0  0  0  0  0  # atno 17342 bound_to 10162
  140.1399  143.4450  152.2200 LP  0  0  0  0  0  0  0  0  0  0  0  0  # atno 17343 bound_to 10162
  156.6761  130.8840  151.3569 LP  0  0  0  0  0  0  0  0  0  0  0  0  # atno 17370 bound_to 10713
  157.7048  130.9373  150.0898 LP  0  0  0  0  0  0  0  0  0  0  0  0  # atno 17371 bound_to 10713
  139.8715  134.9796  156.5043 LP  0  0  0  0  0  0  0  0  0  0  0  0  # atno 17394 bound_to 11000
  140.8517  133.8127  155.9175 LP  0  0  0  0  0  0  0  0  0  0  0  0  # atno 17395 bound_to 11000

$$$$
