AV-unprocessed.smi:355|AV-procd|sdf|2407|dock2
  -GOLD-   2262022343D 1   1.00000     0.00000
 Structure written by MMmdl.
 39 40  0  0  0  0  0  0  0  0  1 V2000
  153.1809  142.5732  162.5971 C   0  0  0  0  0  0  0  0  0  0  0  0
  152.8330  142.5664  161.1227 C   0  0  0  0  0  0  0  0  0  0  0  0
  152.3768  143.7441  160.4979 C   0  0  0  0  0  0  0  0  0  0  0  0
  152.0546  143.7333  159.1283 C   0  0  0  0  0  0  0  0  0  0  0  0
  152.1864  142.5465  158.3830 C   0  0  0  0  0  0  0  0  0  0  0  0
  152.6373  141.3583  158.9931 C   0  0  0  0  0  0  0  0  0  0  0  0
  152.7356  140.2435  158.1892 O   0  0  0  0  0  0  0  0  0  0  0  0
  152.8235  138.9682  158.8089 C   0  0  0  0  0  0  0  0  0  0  0  0
  152.3749  137.8679  157.8263 C   0  0  0  0  0  0  0  0  0  0  0  0
  150.8994  137.7915  157.6971 N   0  0  0  0  0  0  0  0  0  0  0  0
  150.2649  138.2026  156.4818 C   0  0  0  0  0  0  0  0  0  0  0  0
  151.1131  138.7911  155.3441 C   0  0  0  0  0  0  0  0  0  0  0  0
  150.3534  139.1292  154.3013 F   0  0  0  0  0  0  0  0  0  0  0  0
  151.7351  139.9013  155.7424 F   0  0  0  0  0  0  0  0  0  0  0  0
  152.0154  137.9227  154.8893 F   0  0  0  0  0  0  0  0  0  0  0  0
  148.9314  138.0793  156.3488 C   0  0  0  0  0  0  0  0  0  0  0  0
  148.1434  137.5446  157.4241 C   0  0  0  0  0  0  0  0  0  0  0  0
  148.7234  137.1793  158.5898 C   0  0  0  0  0  0  0  0  0  0  0  0
  147.9525  136.6249  159.7266 C   0  0  0  0  0  0  0  0  0  0  0  0
  147.0474  135.7014  159.3793 N   0  0  0  0  0  0  0  0  0  0  0  0
  148.0634  136.9259  160.9151 O   0  0  0  0  0  0  0  0  0  0  0  0
  150.1911  137.3154  158.7779 C   0  0  0  0  0  0  0  0  0  0  0  0
  150.7761  137.0259  159.8257 O   0  0  0  0  0  0  0  0  0  0  0  0
  152.9605  141.3780  160.3738 C   0  0  0  0  0  0  0  0  0  0  0  0
  153.4368  143.5779  162.9351 H   0  0  0  0  0  0  0  0  0  0  0  0
  154.0340  141.9236  162.7957 H   0  0  0  0  0  0  0  0  0  0  0  0
  152.3342  142.2182  163.1849 H   0  0  0  0  0  0  0  0  0  0  0  0
  152.2729  144.6574  161.0652 H   0  0  0  0  0  0  0  0  0  0  0  0
  151.7055  144.6355  158.6482 H   0  0  0  0  0  0  0  0  0  0  0  0
  151.9366  142.5467  157.3321 H   0  0  0  0  0  0  0  0  0  0  0  0
  153.8592  138.7814  159.0966 H   0  0  0  0  0  0  0  0  0  0  0  0
  152.2151  138.9461  159.7137 H   0  0  0  0  0  0  0  0  0  0  0  0
  152.8567  138.0258  156.8599 H   0  0  0  0  0  0  0  0  0  0  0  0
  152.8020  136.9214  158.1417 H   0  0  0  0  0  0  0  0  0  0  0  0
  148.4303  138.3876  155.4432 H   0  0  0  0  0  0  0  0  0  0  0  0
  147.0804  137.4523  157.2570 H   0  0  0  0  0  0  0  0  0  0  0  0
  146.4745  135.2638  160.0857 H   0  0  0  0  0  0  0  0  0  0  0  0
  146.9437  135.4445  158.4082 H   0  0  0  0  0  0  0  0  0  0  0  0
  153.3107  140.4911  160.8797 H   0  0  0  0  0  0  0  0  0  0  0  0
  1  2  1  0  0  0  0
  1 25  1  0  0  0  0
  1 26  1  0  0  0  0
  1 27  1  0  0  0  0
  2 24  1  0  0  0  0
  2  3  2  0  0  0  0
  3  4  1  0  0  0  0
  3 28  1  0  0  0  0
  4  5  2  0  0  0  0
  4 29  1  0  0  0  0
  5  6  1  0  0  0  0
  5 30  1  0  0  0  0
  6  7  1  0  0  0  0
  6 24  2  0  0  0  0
  7  8  1  0  0  0  0
  8  9  1  0  0  0  0
  8 31  1  0  0  0  0
  8 32  1  0  0  0  0
  9 10  1  0  0  0  0
  9 33  1  0  0  0  0
  9 34  1  0  0  0  0
 10 22  1  0  0  0  0
 10 11  1  0  0  0  0
 11 12  1  0  0  0  0
 11 16  2  0  0  0  0
 12 13  1  0  0  0  0
 12 14  1  0  0  0  0
 12 15  1  0  0  0  0
 16 17  1  0  0  0  0
 16 35  1  0  0  0  0
 17 18  2  0  0  0  0
 17 36  1  0  0  0  0
 18 19  1  0  0  0  0
 18 22  1  0  0  0  0
 19 20  1  0  0  0  0
 19 21  2  0  0  0  0
 20 37  1  0  0  0  0
 20 38  1  0  0  0  0
 22 23  2  0  0  0  0
 24 39  1  0  0  0  0
M  END
> <s_m_source_file>
AV-unprocessed.smi

> <i_m_source_file_index>
355

> <i_lp_mmshare_version>
43012

> <i_f3d_flags>
0

> <s_epik_input>
W0NIM11jMVtjSF1bY0hdW2NIXWMoW2NIXTEpT1tDSDJdW0NIMl1uMmMoQyhGKShGKUYpW2NIXVtjSF1jKGMyPU8pQyg9TylbTkgyXQ==

> <s_epik_cmdline>
J2VwaWtfcHl0aG9uJywgJy1waCcsICc3LjAnLCAnLXRuJywgJzgnLCAnLW1hJywgJzIwMCcsICctbWV0YWxfYmluZGluZycsICctaW1hZScsICc8aW5maWxlLm1hZT4nLCAnLW9tYWUnLCAnPG91dGZpbGUubWFlPic=

> <r_lp_tautomer_probability>
1

> <r_epik_Ionization_Penalty>
1.75992e-06

> <r_epik_Ionization_Penalty_Charging>
1.13667e-09

> <r_epik_Ionization_Penalty_Neutral>
1.75878e-06

> <r_epik_State_Penalty>
-0

> <r_epik_Charging_Adjusted_Penalty>
1.13667e-09

> <i_epik_Tot_Q>
0

> <i_epik_Tot_abs_Q>
0

> <r_epik_Metal_State_Penalty>
-0

> <b_epik_Metal_Only>
0

> <s_lp_Force_Field>
OPLS_2005

> <r_lp_Energy>
35.0119

> <b_lp_Chiralities_Consistent>
1

> <s_lp_Variant>
AV-unprocessed.smi:355-1

> <Gold.Version>
5.8.1

> <Gold.Id.Protein>
6NUR|6NUR_protein|mol2

> <Gold.PLP.Fitness>
52.9247

> <Gold.PLP.PLP>
-45.3917

> <Gold.PLP.part.hbond>
-4.1441

> <Gold.PLP.part.metal>
0.0000

> <Gold.PLP.part.buried>
-5.2767

> <Gold.PLP.part.nonpolar>
-35.6757

> <Gold.PLP.part.repulsive>
0.0302

> <Gold.PLP.ligand.clash>
3.5986

> <Gold.PLP.ligand.torsion>
1.2527

> <Gold.PLP.Chemscore.Hbond>
3.3320

> <Gold.PLP.Chemscore.CHOScore>
0.0000

> <Gold.PLP.Chemscore.Metal>
0.0000

> <Gold.Chemscore.Hbonds>
donor molecule, donor type, donor heavy atom, donor atom, acceptor molecule, acceptor atom, score
      P1  H  6896  6909       L1    23  1.00
      P1  H  6931  6943       L1    21  1.00
      P1  H  6934  6947       L1    21  0.31
      P1  H  7997  8009       L1     7  0.54

> <Gold.PLP.Chemscore.Internal.Correction>
3.6412

> <Gold.Rescore>
     Score         DG    S(hbond)    S(metal)    S(lipo)     H(rot)  DE(clash)    DE(int)     intcor
     15.62     -22.11       2.98        0.00      97.24       1.84       0.11       6.37       ----

> <Gold.Chemscore.Fitness>
15.6218

> <Gold.Chemscore.DG>
-22.1070

> <Gold.Chemscore.ZeroCoef>
-5.4800

> <Gold.Chemscore.Hbond>
2.9829

> <Gold.Chemscore.Metal>
0.0000

> <Gold.Chemscore.Lipo>
97.2445

> <Gold.Chemscore.Internal_Hbond>
0.0000

> <Gold.Chemscore.DEClash>
0.1119

> <Gold.Chemscore.DEInternal>
6.3732

> <Gold.Chemscore.Rot>
1.8412

> <Gold.Chemscore.Internal.Correction>
   9.000000E+99

> <Gold.Chemscore.Hbonds>
donor molecule, donor type, donor heavy atom, donor atom, acceptor molecule, acceptor atom, score
      P1  H  6896  6909       L1    23  0.73
      P1  H  6931  6943       L1    21  0.95
      P1  H  6934  6947       L1    21  0.11
      P1  H  7997  8009       L1     7  0.10

> <Gold.Chemscore.Hbond.Weighted>
-9.9627

> <Gold.Chemscore.Metal.Weighted>
-0.0000

> <Gold.Chemscore.Lipo.Weighted>
-11.3776

> <Gold.Chemscore.Internal_Hbond.Weighted>
0.0000

> <Gold.Chemscore.DEClash.Weighted>
0.1119

> <Gold.Chemscore.DEInternal.Weighted>
6.3732

> <Gold.Chemscore.Rot.Weighted>
4.7134

> <Gold.Chemscore.Internal.Correction.Weighted>
   9.000000E+99

> <Gold.Protein.RotatedTorsions>
[ 6907 6896 6895 6894 ] final   95.18 input  -60.11 | X-H torsion
[ 7974 7965 7964 7962 ] final   86.79 input  175.53 | X-H torsion
[ 8008 7997 7996 7995 ] final  162.86 input   59.86 | X-H torsion
[ 10167 10162 10161 10158 ] final  126.68 input  -65.29 | X-H torsion
[ 10718 10713 10712 10709 ] final   29.78 input   66.30 | X-H torsion
[ 10763 10752 10751 10750 ] final -161.98 input  -60.55 | X-H torsion
[ 11005 11000 10999 10996 ] final  137.54 input  -57.11 | X-H torsion

> <Gold.Protein.ActiveResidues>
 VAL166  LYS551  ARG553  GLY616  TRP617  ASP618  TYR619  PRO620  LYS621  CYS622 
 ASP623  PHE694  ASN695  SER759  ASP760  ASP761  ALA762  ILE779  LEU786  VAL792 
 PHE793  MET794  SER795  GLU796  ALA797  LYS798  CYS799  TRP800  GLU811  SER814 

> <Gold.Protein.RotatedAtoms>
  152.5445  134.1080  159.8345 H   0  0  0  0  0  0  0  0  0  0  0  0  # atno 6907 bound_to 6896
  151.1150  133.5138  159.2611 H   0  0  0  0  0  0  0  0  0  0  0  0  # atno 6908 bound_to 6896
  151.1842  135.0384  159.8860 H   0  0  0  0  0  0  0  0  0  0  0  0  # atno 6909 bound_to 6896
  145.5676  139.2310  143.2424 H   0  0  0  0  0  0  0  0  0  0  0  0  # atno 7974 bound_to 7965
  156.2000  140.1739  156.7920 H   0  0  0  0  0  0  0  0  0  0  0  0  # atno 8008 bound_to 7997
  154.5579  140.0705  156.8803 H   0  0  0  0  0  0  0  0  0  0  0  0  # atno 8009 bound_to 7997
  155.2904  140.3355  155.4255 H   0  0  0  0  0  0  0  0  0  0  0  0  # atno 8010 bound_to 7997
  139.5618  144.6886  151.4022 H   0  0  0  0  0  0  0  0  0  0  0  0  # atno 10167 bound_to 10162
  157.2510  130.7115  149.6405 H   0  0  0  0  0  0  0  0  0  0  0  0  # atno 10718 bound_to 10713
  154.7255  135.3035  154.8978 H   0  0  0  0  0  0  0  0  0  0  0  0  # atno 10763 bound_to 10752
  153.9837  135.6727  153.4755 H   0  0  0  0  0  0  0  0  0  0  0  0  # atno 10764 bound_to 10752
  153.0871  135.4978  154.8537 H   0  0  0  0  0  0  0  0  0  0  0  0  # atno 10765 bound_to 10752
  140.0121  134.9434  157.0300 H   0  0  0  0  0  0  0  0  0  0  0  0  # atno 11005 bound_to 11000
  146.1807  140.6501  142.9190 LP  0  0  0  0  0  0  0  0  0  0  0  0  # atno 17320 bound_to 7965
  144.7453  140.5051  143.6840 LP  0  0  0  0  0  0  0  0  0  0  0  0  # atno 17321 bound_to 7965
  140.6898  143.7887  150.7239 LP  0  0  0  0  0  0  0  0  0  0  0  0  # atno 17342 bound_to 10162
  140.1366  143.4478  152.2220 LP  0  0  0  0  0  0  0  0  0  0  0  0  # atno 17343 bound_to 10162
  155.9666  130.4427  150.5393 LP  0  0  0  0  0  0  0  0  0  0  0  0  # atno 17370 bound_to 10713
  157.3277  131.0694  151.1884 LP  0  0  0  0  0  0  0  0  0  0  0  0  # atno 17371 bound_to 10713
  140.4535  134.1557  155.7184 LP  0  0  0  0  0  0  0  0  0  0  0  0  # atno 17394 bound_to 11000
  141.1718  133.8593  157.1546 LP  0  0  0  0  0  0  0  0  0  0  0  0  # atno 17395 bound_to 11000

$$$$
