AV-unprocessed.smi:1166|AV-procd|sdf|4935|dock7
  -GOLD-   22720 3523D 1   1.00000     0.00000
 Structure written by MMmdl.
 47 48  0  0  0  0  0  0  0  0  2 V2000
  147.6463  133.2693  152.0113 C   0  0  0  0  0  0  0  0  0  0  0  0
  146.3209  133.3314  151.4093 N   0  0  0  0  0  0  0  0  0  0  0  0
  145.8715  132.2760  150.5080 C   0  0  0  0  0  0  0  0  0  0  0  0
  145.4385  134.3755  151.7615 C   0  0  0  0  0  0  0  0  0  0  0  0
  144.0431  134.1922  151.9186 C   0  0  0  0  0  0  0  0  0  0  0  0
  143.2222  135.2837  152.2704 C   0  0  0  0  0  0  0  0  0  0  0  0
  143.8020  136.5625  152.4640 C   0  0  0  0  0  0  0  0  0  0  0  0
  143.0841  137.7399  152.8155 N   0  0  0  0  0  0  0  0  0  0  0  0
  141.8916  137.8695  153.4232 C   0  0  0  0  0  0  0  0  0  0  0  0
  141.1889  136.9448  153.8287 O   0  0  0  0  0  0  0  0  0  0  0  0
  141.5497  139.1605  153.5393 N   0  0  0  0  0  0  0  0  0  0  0  0
  140.3144  139.6561  154.1394 C   0  0  1  0  0  0  0  0  0  0  0  0
  140.2134  141.1829  153.9923 C   0  0  0  0  0  0  0  0  0  0  0  0
  138.8847  141.6722  154.5798 C   0  0  0  0  0  0  0  0  0  0  0  0
  137.6872  140.9566  153.9299 C   0  0  0  0  0  0  0  0  0  0  0  0
  137.8269  139.4876  153.9974 N   0  0  0  0  0  0  0  0  0  0  0  0
  136.9386  138.5826  155.1896 S   0  0  0  0  0  0  0  0  0  0  0  0
  137.8872  137.0163  155.3681 C   0  0  0  0  0  0  0  0  0  0  0  0
  137.0209  139.3157  156.4623 O   0  0  0  0  0  0  0  0  0  0  0  0
  135.6220  138.2588  154.6190 O   0  0  0  0  0  0  0  0  0  0  0  0
  139.1064  138.9654  153.4772 C   0  0  0  0  0  0  0  0  0  0  0  0
  145.1962  136.6885  152.2984 C   0  0  0  0  0  0  0  0  0  0  0  0
  145.9446  135.6165  151.9613 N   0  3  0  0  0  0  0  0  0  0  0  0
  148.2312  134.1488  151.7403 H   0  0  0  0  0  0  0  0  0  0  0  0
  148.1939  132.3886  151.6751 H   0  0  0  0  0  0  0  0  0  0  0  0
  147.5724  133.2199  153.0981 H   0  0  0  0  0  0  0  0  0  0  0  0
  145.0136  131.7518  150.9303 H   0  0  0  0  0  0  0  0  0  0  0  0
  146.6584  131.5422  150.3323 H   0  0  0  0  0  0  0  0  0  0  0  0
  145.5839  132.6928  149.5423 H   0  0  0  0  0  0  0  0  0  0  0  0
  143.5827  133.2264  151.7743 H   0  0  0  0  0  0  0  0  0  0  0  0
  142.1656  135.1033  152.3815 H   0  0  0  0  0  0  0  0  0  0  0  0
  143.5313  138.6053  152.5502 H   0  0  0  0  0  0  0  0  0  0  0  0
  142.1879  139.8558  153.1809 H   0  0  0  0  0  0  0  0  0  0  0  0
  140.3150  139.4069  155.2005 H   0  0  0  0  0  0  0  0  0  0  0  0
  141.0455  141.6726  154.4995 H   0  0  0  0  0  0  0  0  0  0  0  0
  140.2768  141.4642  152.9402 H   0  0  0  0  0  0  0  0  0  0  0  0
  138.8799  141.5089  155.6567 H   0  0  0  0  0  0  0  0  0  0  0  0
  138.7913  142.7488  154.4360 H   0  0  0  0  0  0  0  0  0  0  0  0
  136.7560  141.2722  154.3995 H   0  0  0  0  0  0  0  0  0  0  0  0
  137.6156  141.2466  152.8812 H   0  0  0  0  0  0  0  0  0  0  0  0
  137.3996  136.3891  156.1141 H   0  0  0  0  0  0  0  0  0  0  0  0
  138.9022  137.2313  155.6975 H   0  0  0  0  0  0  0  0  0  0  0  0
  137.9069  136.4825  154.4197 H   0  0  0  0  0  0  0  0  0  0  0  0
  139.1291  139.1321  152.3993 H   0  0  0  0  0  0  0  0  0  0  0  0
  139.1586  137.8862  153.6211 H   0  0  0  0  0  0  0  0  0  0  0  0
  145.7383  137.6149  152.4235 H   0  0  0  0  0  0  0  0  0  0  0  0
  146.9499  135.7497  151.8497 H   0  0  0  0  0  0  0  0  0  0  0  0
  1  2  1  0  0  0  0
  1 24  1  0  0  0  0
  1 25  1  0  0  0  0
  1 26  1  0  0  0  0
  2  3  1  0  0  0  0
  2  4  1  0  0  0  0
  3 27  1  0  0  0  0
  3 28  1  0  0  0  0
  3 29  1  0  0  0  0
  4 23  1  0  0  0  0
  4  5  2  0  0  0  0
  5  6  1  0  0  0  0
  5 30  1  0  0  0  0
  6  7  2  0  0  0  0
  6 31  1  0  0  0  0
  7  8  1  0  0  0  0
  7 22  1  0  0  0  0
  8  9  1  0  0  0  0
  8 32  1  0  0  0  0
  9 10  2  0  0  0  0
  9 11  1  0  0  0  0
 11 12  1  0  0  0  0
 11 33  1  0  0  0  0
 12 21  1  0  0  0  0
 12 13  1  0  0  0  0
 12 34  1  0  0  0  0
 13 14  1  0  0  0  0
 13 35  1  0  0  0  0
 13 36  1  0  0  0  0
 14 15  1  0  0  0  0
 14 37  1  0  0  0  0
 14 38  1  0  0  0  0
 15 16  1  0  0  0  0
 15 39  1  0  0  0  0
 15 40  1  0  0  0  0
 16 17  1  0  0  0  0
 16 21  1  0  0  0  0
 17 18  1  0  0  0  0
 17 19  2  0  0  0  0
 17 20  2  0  0  0  0
 18 41  1  0  0  0  0
 18 42  1  0  0  0  0
 18 43  1  0  0  0  0
 21 44  1  0  0  0  0
 21 45  1  0  0  0  0
 22 23  2  0  0  0  0
 22 46  1  0  0  0  0
 23 47  1  0  0  0  0
M  CHG  1  23   1
M  END
> <s_m_source_file>
AV-unprocessed.smi

> <i_m_source_file_index>
1166

> <i_lp_mmshare_version>
43012

> <i_f3d_flags>
0

> <s_epik_input>
W0NIM11OKFtDSDNdKWMxW2NIXVtjSF1jKFtjSF1uMSlbTkhdQyg9TylbTkhdW0NAQEhdMltDSDJdW0NIMl1bQ0gyXU4oW0NIMl0yKVMoPU8pKD1PKVtDSDNd

> <s_epik_cmdline>
J2VwaWtfcHl0aG9uJywgJy1waCcsICc3LjAnLCAnLXRuJywgJzgnLCAnLW1hJywgJzIwMCcsICctbWV0YWxfYmluZGluZycsICctaW1hZScsICc8aW5maWxlLm1hZT4nLCAnLW9tYWUnLCAnPG91dGZpbGUubWFlPic=

> <r_lp_tautomer_probability>
0.999994

> <r_epik_Ionization_Penalty>
0.276583

> <r_epik_Ionization_Penalty_Charging>
0.276565

> <r_epik_Ionization_Penalty_Neutral>
1.87575e-05

> <r_epik_State_Penalty>
0.268949

> <r_epik_Charging_Adjusted_Penalty>
0.545513

> <i_epik_Tot_Q>
1

> <i_epik_Tot_abs_Q>
1

> <r_epik_Metal_State_Penalty>
0.551815

> <b_epik_Metal_Only>
0

> <s_lp_Force_Field>
OPLS_2005

> <r_lp_Energy>
8.45094

> <b_lp_Chiralities_Consistent>
1

> <s_lp_Variant>
AV-unprocessed.smi:1166-2

> <Gold.Version>
5.8.1

> <Gold.Id.Protein>
6NUR|6NUR_protein|mol2

> <Gold.PLP.Fitness>
47.8935

> <Gold.PLP.PLP>
-37.6108

> <Gold.PLP.part.hbond>
-4.3020

> <Gold.PLP.part.metal>
0.0000

> <Gold.PLP.part.buried>
-3.3551

> <Gold.PLP.part.nonpolar>
-30.4890

> <Gold.PLP.part.repulsive>
0.1847

> <Gold.PLP.ligand.clash>
0.0000

> <Gold.PLP.ligand.torsion>
1.8898

> <Gold.PLP.Chemscore.Hbond>
4.0000

> <Gold.PLP.Chemscore.CHOScore>
0.0000

> <Gold.PLP.Chemscore.Metal>
0.0000

> <Gold.Chemscore.Hbonds>
donor molecule, donor type, donor heavy atom, donor atom, acceptor molecule, acceptor atom, score
      L1  H     8    32       P1 10175  1.00
      L1  H    11    33       P1 10175  1.00
      L1  H    23    47       P1  7948  2.00

> <Gold.PLP.Chemscore.Internal.Correction>
2.0623

> <Gold.Rescore>
     Score         DG    S(hbond)    S(metal)    S(lipo)     H(rot)  DE(clash)    DE(int)     intcor
     16.78     -20.62       2.84        0.00      70.16       1.00       0.17       3.67       ----

> <Gold.Chemscore.Fitness>
16.7770

> <Gold.Chemscore.DG>
-20.6237

> <Gold.Chemscore.ZeroCoef>
-5.4800

> <Gold.Chemscore.Hbond>
2.8428

> <Gold.Chemscore.Metal>
0.0000

> <Gold.Chemscore.Lipo>
70.1601

> <Gold.Chemscore.Internal_Hbond>
0.0000

> <Gold.Chemscore.DEClash>
0.1732

> <Gold.Chemscore.DEInternal>
3.6734

> <Gold.Chemscore.Rot>
1.0000

> <Gold.Chemscore.Internal.Correction>
   9.000000E+99

> <Gold.Chemscore.Hbonds>
donor molecule, donor type, donor heavy atom, donor atom, acceptor molecule, acceptor atom, score
      L1  H     8    32       P1 10175  0.97
      L1  H    11    33       P1 10175  0.74
      L1  H    23    47       P1  7948  0.93

> <Gold.Chemscore.Hbond.Weighted>
-9.4950

> <Gold.Chemscore.Metal.Weighted>
-0.0000

> <Gold.Chemscore.Lipo.Weighted>
-8.2087

> <Gold.Chemscore.Internal_Hbond.Weighted>
0.0000

> <Gold.Chemscore.DEClash.Weighted>
0.1732

> <Gold.Chemscore.DEInternal.Weighted>
3.6734

> <Gold.Chemscore.Rot.Weighted>
2.5600

> <Gold.Chemscore.Internal.Correction.Weighted>
   9.000000E+99

> <Gold.Protein.RotatedTorsions>
[ 6907 6896 6895 6894 ] final -152.69 input  -60.11 | X-H torsion
[ 7974 7965 7964 7962 ] final   -3.29 input  175.53 | X-H torsion
[ 8008 7997 7996 7995 ] final  -36.33 input   59.86 | X-H torsion
[ 10167 10162 10161 10158 ] final  162.62 input  -65.29 | X-H torsion
[ 10718 10713 10712 10709 ] final   23.03 input   66.30 | X-H torsion
[ 10763 10752 10751 10750 ] final -125.21 input  -60.55 | X-H torsion
[ 11005 11000 10999 10996 ] final -100.10 input  -57.11 | X-H torsion

> <Gold.Protein.ActiveResidues>
 VAL166  LYS551  ARG553  GLY616  TRP617  ASP618  TYR619  PRO620  LYS621  CYS622 
 ASP623  PHE694  ASN695  SER759  ASP760  ASP761  ALA762  ILE779  LEU786  VAL792 
 PHE793  MET794  SER795  GLU796  ALA797  LYS798  CYS799  TRP800  GLU811  SER814 

> <Gold.Protein.RotatedAtoms>
  151.2315  133.4448  159.2603 H   0  0  0  0  0  0  0  0  0  0  0  0  # atno 6907 bound_to 6896
  151.0790  134.9846  159.8357 H   0  0  0  0  0  0  0  0  0  0  0  0  # atno 6908 bound_to 6896
  152.5422  134.2256  159.8857 H   0  0  0  0  0  0  0  0  0  0  0  0  # atno 6909 bound_to 6896
  146.2392  140.1699  142.8332 H   0  0  0  0  0  0  0  0  0  0  0  0  # atno 7974 bound_to 7965
  154.4075  140.1633  156.2357 H   0  0  0  0  0  0  0  0  0  0  0  0  # atno 8008 bound_to 7997
  155.9244  140.3419  155.6176 H   0  0  0  0  0  0  0  0  0  0  0  0  # atno 8009 bound_to 7997
  155.7183  140.0765  157.2332 H   0  0  0  0  0  0  0  0  0  0  0  0  # atno 8010 bound_to 7997
  139.4863  144.4420  151.8940 H   0  0  0  0  0  0  0  0  0  0  0  0  # atno 10167 bound_to 10162
  157.1605  130.6715  149.6042 H   0  0  0  0  0  0  0  0  0  0  0  0  # atno 10718 bound_to 10713
  154.8733  135.4037  154.3231 H   0  0  0  0  0  0  0  0  0  0  0  0  # atno 10763 bound_to 10752
  153.4056  135.7019  153.6400 H   0  0  0  0  0  0  0  0  0  0  0  0  # atno 10764 bound_to 10752
  153.5125  135.3704  155.2564 H   0  0  0  0  0  0  0  0  0  0  0  0  # atno 10765 bound_to 10752
  141.1283  133.8373  157.1058 H   0  0  0  0  0  0  0  0  0  0  0  0  # atno 11005 bound_to 11000
  145.0020  140.8640  143.5276 LP  0  0  0  0  0  0  0  0  0  0  0  0  # atno 17320 bound_to 7965
  145.1719  139.2399  143.5337 LP  0  0  0  0  0  0  0  0  0  0  0  0  # atno 17321 bound_to 7965
  140.3872  144.2662  150.5903 LP  0  0  0  0  0  0  0  0  0  0  0  0  # atno 17342 bound_to 10162
  140.5179  143.2273  151.8434 LP  0  0  0  0  0  0  0  0  0  0  0  0  # atno 17343 bound_to 10162
  155.9754  130.4713  150.6460 LP  0  0  0  0  0  0  0  0  0  0  0  0  # atno 17370 bound_to 10713
  157.4136  131.0827  151.1197 LP  0  0  0  0  0  0  0  0  0  0  0  0  # atno 17371 bound_to 10713
  140.0305  134.9903  157.0771 LP  0  0  0  0  0  0  0  0  0  0  0  0  # atno 17394 bound_to 11000
  140.4293  134.1798  155.7167 LP  0  0  0  0  0  0  0  0  0  0  0  0  # atno 17395 bound_to 11000

$$$$
