AV-unprocessed.smi:1640|AV-procd|sdf|6555|dock4
  -GOLD-   22720 7243D 1   1.00000     0.00000
 Structure written by MMmdl.
 46 47  0  0  0  0  0  0  0  0  2 V2000
  147.0780  134.2980  163.0598 C   0  0  0  0  0  0  0  0  0  0  0  0
  145.8854  134.9585  162.3476 C   0  0  0  0  0  0  0  0  0  0  0  0
  144.5627  134.4916  162.9741 C   0  0  0  0  0  0  0  0  0  0  0  0
  145.8912  134.6976  160.8278 C   0  0  0  0  0  0  0  0  0  0  0  0
  147.2874  134.7800  160.1865 C   0  0  0  0  0  0  0  0  0  0  0  0
  148.0936  136.4101  160.4982 S   0  0  0  0  0  0  0  0  0  0  0  0
  147.1605  137.4423  160.0181 O   0  0  0  0  0  0  0  0  0  0  0  0
  148.4270  136.4170  161.9320 O   0  0  0  0  0  0  0  0  0  0  0  0
  149.4082  136.2763  159.5603 N   0  5  0  0  0  0  0  0  0  0  0  0
  149.6575  137.2776  158.5391 C   0  0  0  0  0  0  0  0  0  0  0  0
  151.1322  137.7083  158.5178 C   0  0  0  0  0  0  0  0  0  0  0  0
  151.9740  137.2628  159.5658 C   0  0  0  0  0  0  0  0  0  0  0  0
  153.3334  137.6228  159.5702 C   0  0  0  0  0  0  0  0  0  0  0  0
  153.8133  138.4225  158.5205 C   0  0  0  0  0  0  0  0  0  0  0  0
  153.0337  138.8624  157.5138 N   0  0  0  0  0  0  0  0  0  0  0  0
  151.7195  138.5244  157.4952 C   0  0  0  0  0  0  0  0  0  0  0  0
  150.9760  139.0544  156.4181 N   0  0  0  0  0  0  0  0  0  0  0  0
  150.8905  140.5090  156.4304 C   0  0  0  0  0  0  0  0  0  0  0  0
  149.8721  140.9789  155.3782 C   0  0  0  0  0  0  0  0  0  0  0  0
  150.2346  140.4643  154.0990 O   0  0  0  0  0  0  0  0  0  0  0  0
  150.2475  139.0390  154.0789 C   0  0  0  0  0  0  0  0  0  0  0  0
  151.2771  138.5177  155.0963 C   0  0  0  0  0  0  0  0  0  0  0  0
  147.0924  133.2210  162.8907 H   0  0  0  0  0  0  0  0  0  0  0  0
  147.0314  134.4641  164.1364 H   0  0  0  0  0  0  0  0  0  0  0  0
  148.0289  134.7032  162.7151 H   0  0  0  0  0  0  0  0  0  0  0  0
  145.9545  136.0355  162.5057 H   0  0  0  0  0  0  0  0  0  0  0  0
  144.4294  133.4152  162.8611 H   0  0  0  0  0  0  0  0  0  0  0  0
  143.7095  134.9834  162.5061 H   0  0  0  0  0  0  0  0  0  0  0  0
  144.5283  134.7219  164.0392 H   0  0  0  0  0  0  0  0  0  0  0  0
  145.4476  133.7230  160.6203 H   0  0  0  0  0  0  0  0  0  0  0  0
  145.2451  135.4313  160.3453 H   0  0  0  0  0  0  0  0  0  0  0  0
  147.9339  134.0124  160.6111 H   0  0  0  0  0  0  0  0  0  0  0  0
  147.2570  134.6232  159.1089 H   0  0  0  0  0  0  0  0  0  0  0  0
  149.3790  136.9164  157.5486 H   0  0  0  0  0  0  0  0  0  0  0  0
  149.0594  138.1763  158.6931 H   0  0  0  0  0  0  0  0  0  0  0  0
  151.6016  136.6454  160.3725 H   0  0  0  0  0  0  0  0  0  0  0  0
  153.9910  137.2923  160.3602 H   0  0  0  0  0  0  0  0  0  0  0  0
  154.8512  138.7191  158.4881 H   0  0  0  0  0  0  0  0  0  0  0  0
  150.5976  140.8643  157.4186 H   0  0  0  0  0  0  0  0  0  0  0  0
  151.8730  140.9315  156.2161 H   0  0  0  0  0  0  0  0  0  0  0  0
  148.8646  140.6527  155.6409 H   0  0  0  0  0  0  0  0  0  0  0  0
  149.8530  142.0678  155.3333 H   0  0  0  0  0  0  0  0  0  0  0  0
  149.2513  138.6532  154.3016 H   0  0  0  0  0  0  0  0  0  0  0  0
  150.5048  138.6991  153.0757 H   0  0  0  0  0  0  0  0  0  0  0  0
  152.2802  138.8193  154.7918 H   0  0  0  0  0  0  0  0  0  0  0  0
  151.2588  137.4277  155.1270 H   0  0  0  0  0  0  0  0  0  0  0  0
  1  2  1  0  0  0  0
  1 23  1  0  0  0  0
  1 24  1  0  0  0  0
  1 25  1  0  0  0  0
  2  3  1  0  0  0  0
  2  4  1  0  0  0  0
  2 26  1  0  0  0  0
  3 27  1  0  0  0  0
  3 28  1  0  0  0  0
  3 29  1  0  0  0  0
  4  5  1  0  0  0  0
  4 30  1  0  0  0  0
  4 31  1  0  0  0  0
  5  6  1  0  0  0  0
  5 32  1  0  0  0  0
  5 33  1  0  0  0  0
  6  7  2  0  0  0  0
  6  8  2  0  0  0  0
  6  9  1  0  0  0  0
  9 10  1  0  0  0  0
 10 11  1  0  0  0  0
 10 34  1  0  0  0  0
 10 35  1  0  0  0  0
 11 16  1  0  0  0  0
 11 12  2  0  0  0  0
 12 13  1  0  0  0  0
 12 36  1  0  0  0  0
 13 14  2  0  0  0  0
 13 37  1  0  0  0  0
 14 15  1  0  0  0  0
 14 38  1  0  0  0  0
 15 16  2  0  0  0  0
 16 17  1  0  0  0  0
 17 22  1  0  0  0  0
 17 18  1  0  0  0  0
 18 19  1  0  0  0  0
 18 39  1  0  0  0  0
 18 40  1  0  0  0  0
 19 20  1  0  0  0  0
 19 41  1  0  0  0  0
 19 42  1  0  0  0  0
 20 21  1  0  0  0  0
 21 22  1  0  0  0  0
 21 43  1  0  0  0  0
 21 44  1  0  0  0  0
 22 45  1  0  0  0  0
 22 46  1  0  0  0  0
M  CHG  1   9  -1
M  END
> <s_m_source_file>
AV-unprocessed.smi

> <i_m_source_file_index>
1640

> <i_lp_mmshare_version>
43012

> <i_f3d_flags>
0

> <s_epik_input>
W0NIM11bQ0hdKFtDSDNdKVtDSDJdW0NIMl1TKD1PKSg9TylbTkhdW0NIMl1jMVtjSF1bY0hdW2NIXW5jMU4yW0NIMl1bQ0gyXU9bQ0gyXVtDSDJdMg==

> <s_epik_cmdline>
J2VwaWtfcHl0aG9uJywgJy1waCcsICc3LjAnLCAnLXRuJywgJzgnLCAnLW1hJywgJzIwMCcsICctbWV0YWxfYmluZGluZycsICctaW1hZScsICc8aW5maWxlLm1hZT4nLCAnLW9tYWUnLCAnPG91dGZpbGUubWFlPic=

> <r_lp_tautomer_probability>
1

> <r_epik_Ionization_Penalty>
6.15599

> <r_epik_Ionization_Penalty_Charging>
6.0779

> <r_epik_Ionization_Penalty_Neutral>
0.078089

> <r_epik_State_Penalty>
6.0833

> <r_epik_Charging_Adjusted_Penalty>
12.1612

> <i_epik_Tot_Q>
-1

> <i_epik_Tot_abs_Q>
1

> <r_epik_Metal_State_Penalty>
2.0323

> <b_epik_Metal_Only>
1

> <s_lp_Force_Field>
OPLS_2005

> <r_lp_Energy>
20.5141

> <b_lp_Chiralities_Consistent>
1

> <s_lp_Variant>
AV-unprocessed.smi:1640-2

> <Gold.Version>
5.8.1

> <Gold.Id.Protein>
6NUR|6NUR_protein|mol2

> <Gold.PLP.Fitness>
50.0639

> <Gold.PLP.PLP>
-33.8347

> <Gold.PLP.part.hbond>
-4.6316

> <Gold.PLP.part.metal>
0.0000

> <Gold.PLP.part.buried>
-2.2104

> <Gold.PLP.part.nonpolar>
-28.9419

> <Gold.PLP.part.repulsive>
1.4542

> <Gold.PLP.ligand.clash>
0.0405

> <Gold.PLP.ligand.torsion>
1.0510

> <Gold.PLP.Chemscore.Hbond>
5.7080

> <Gold.PLP.Chemscore.CHOScore>
0.0000

> <Gold.PLP.Chemscore.Metal>
0.0000

> <Gold.Chemscore.Hbonds>
donor molecule, donor type, donor heavy atom, donor atom, acceptor molecule, acceptor atom, score
      P1  H  6896  6908       L1     9  2.00
      P1  H  6931  6943       L1     8  0.70
      P1  H  6934  6947       L1     7  1.00
      P1  H  7989  7998       L1    20  0.83
      P1  H  7997  8008       L1    15  0.89

> <Gold.PLP.Chemscore.Internal.Correction>
1.2476

> <Gold.Rescore>
     Score         DG    S(hbond)    S(metal)    S(lipo)     H(rot)  DE(clash)    DE(int)     intcor
     18.12     -20.46       2.82        0.00      85.41       1.73       1.20       1.14       ----

> <Gold.Chemscore.Fitness>
18.1193

> <Gold.Chemscore.DG>
-20.4587

> <Gold.Chemscore.ZeroCoef>
-5.4800

> <Gold.Chemscore.Hbond>
2.8222

> <Gold.Chemscore.Metal>
0.0000

> <Gold.Chemscore.Lipo>
85.4132

> <Gold.Chemscore.Internal_Hbond>
0.0000

> <Gold.Chemscore.DEClash>
1.1978

> <Gold.Chemscore.DEInternal>
1.1416

> <Gold.Chemscore.Rot>
1.7347

> <Gold.Chemscore.Internal.Correction>
   9.000000E+99

> <Gold.Chemscore.Hbonds>
donor molecule, donor type, donor heavy atom, donor atom, acceptor molecule, acceptor atom, score
      P1  H  6896  6908       L1     9  0.86
      P1  H  6931  6943       L1     8  0.07
      P1  H  6934  6947       L1     7  0.91
      P1  H  7989  7998       L1    20  0.39
      P1  H  7997  8008       L1    15  0.24

> <Gold.Chemscore.Hbond.Weighted>
-9.4262

> <Gold.Chemscore.Metal.Weighted>
-0.0000

> <Gold.Chemscore.Lipo.Weighted>
-9.9933

> <Gold.Chemscore.Internal_Hbond.Weighted>
0.0000

> <Gold.Chemscore.DEClash.Weighted>
1.1978

> <Gold.Chemscore.DEInternal.Weighted>
1.1416

> <Gold.Chemscore.Rot.Weighted>
4.4409

> <Gold.Chemscore.Internal.Correction.Weighted>
   9.000000E+99

> <Gold.Protein.RotatedTorsions>
[ 6907 6896 6895 6894 ] final -169.62 input  -60.11 | X-H torsion
[ 7974 7965 7964 7962 ] final   35.23 input  175.53 | X-H torsion
[ 8008 7997 7996 7995 ] final  -51.02 input   59.86 | X-H torsion
[ 10167 10162 10161 10158 ] final -138.85 input  -65.29 | X-H torsion
[ 10718 10713 10712 10709 ] final  135.44 input   66.30 | X-H torsion
[ 10763 10752 10751 10750 ] final  -63.98 input  -60.55 | X-H torsion
[ 11005 11000 10999 10996 ] final  103.11 input  -57.11 | X-H torsion

> <Gold.Protein.ActiveResidues>
 VAL166  LYS551  ARG553  GLY616  TRP617  ASP618  TYR619  PRO620  LYS621  CYS622 
 ASP623  PHE694  ASN695  SER759  ASP760  ASP761  ALA762  ILE779  LEU786  VAL792 
 PHE793  MET794  SER795  GLU796  ALA797  LYS798  CYS799  TRP800  GLU811  SER814 

> <Gold.Protein.RotatedAtoms>
  151.4946  133.3517  159.2858 H   0  0  0  0  0  0  0  0  0  0  0  0  # atno 6907 bound_to 6896
  150.8812  134.8205  159.7237 H   0  0  0  0  0  0  0  0  0  0  0  0  # atno 6908 bound_to 6896
  152.4764  134.4844  159.9727 H   0  0  0  0  0  0  0  0  0  0  0  0  # atno 6909 bound_to 6896
  146.1297  139.6168  142.9235 H   0  0  0  0  0  0  0  0  0  0  0  0  # atno 7974 bound_to 7965
  154.4074  140.1258  156.4761 H   0  0  0  0  0  0  0  0  0  0  0  0  # atno 8008 bound_to 7997
  155.7131  140.3493  155.4963 H   0  0  0  0  0  0  0  0  0  0  0  0  # atno 8009 bound_to 7997
  155.9282  140.1065  157.1143 H   0  0  0  0  0  0  0  0  0  0  0  0  # atno 8010 bound_to 7997
  139.8437  143.7288  152.2662 H   0  0  0  0  0  0  0  0  0  0  0  0  # atno 10167 bound_to 10162
  157.4570  131.1070  150.9966 H   0  0  0  0  0  0  0  0  0  0  0  0  # atno 10718 bound_to 10713
  154.3231  135.6192  153.5517 H   0  0  0  0  0  0  0  0  0  0  0  0  # atno 10763 bound_to 10752
  152.9818  135.5729  154.5047 H   0  0  0  0  0  0  0  0  0  0  0  0  # atno 10764 bound_to 10752
  154.4719  135.2859  155.1613 H   0  0  0  0  0  0  0  0  0  0  0  0  # atno 10765 bound_to 10752
  139.8781  134.9250  156.5159 H   0  0  0  0  0  0  0  0  0  0  0  0  # atno 11005 bound_to 11000
  145.5287  141.0428  143.2395 LP  0  0  0  0  0  0  0  0  0  0  0  0  # atno 17320 bound_to 7965
  144.7678  139.6804  143.7207 LP  0  0  0  0  0  0  0  0  0  0  0  0  # atno 17321 bound_to 7965
  139.7533  144.7528  151.0473 LP  0  0  0  0  0  0  0  0  0  0  0  0  # atno 17342 bound_to 10162
  140.7795  143.4834  150.9987 LP  0  0  0  0  0  0  0  0  0  0  0  0  # atno 17343 bound_to 10162
  157.0776  130.5890  149.5414 LP  0  0  0  0  0  0  0  0  0  0  0  0  # atno 17370 bound_to 10713
  156.0011  130.5091  150.7668 LP  0  0  0  0  0  0  0  0  0  0  0  0  # atno 17371 bound_to 10713
  140.8486  133.8150  155.9146 LP  0  0  0  0  0  0  0  0  0  0  0  0  # atno 17394 bound_to 11000
  140.9167  134.2193  157.4952 LP  0  0  0  0  0  0  0  0  0  0  0  0  # atno 17395 bound_to 11000

$$$$
