AV-unprocessed.smi:1449|AV-procd|sdf|5896|dock3
  -GOLD-   22720 5583D 1   1.00000     0.00000
 Structure written by MMmdl.
 34 35  0  0  0  0  0  0  0  0  1 V2000
  146.5471  128.5063  152.5408 C   0  0  0  0  0  0  0  0  0  0  0  0
  147.6366  128.8190  153.4014 O   0  0  0  0  0  0  0  0  0  0  0  0
  148.0275  130.1377  153.5114 C   0  0  0  0  0  0  0  0  0  0  0  0
  149.1458  130.4445  154.3114 C   0  0  0  0  0  0  0  0  0  0  0  0
  149.5512  131.7877  154.4309 C   0  0  0  0  0  0  0  0  0  0  0  0
  148.8267  132.7852  153.7355 C   0  0  0  0  0  0  0  0  0  0  0  0
  149.1191  134.1751  153.7863 N   0  0  0  0  0  0  0  0  0  0  0  0
  149.6830  134.8871  154.7820 C   0  0  0  0  0  0  0  0  0  0  0  0
  150.0936  134.4127  155.8386 O   0  0  0  0  0  0  0  0  0  0  0  0
  149.8007  136.2016  154.5219 N   0  0  0  0  0  0  0  0  0  0  0  0
  150.3615  137.2503  155.3754 C   0  0  1  0  0  0  0  0  0  0  0  0
  151.6159  136.7464  156.1134 C   0  0  0  0  0  0  0  0  0  0  0  0
  152.3628  137.9520  156.6973 C   0  0  0  0  0  0  0  0  0  0  0  0
  152.0337  139.3525  155.5615 S   0  0  0  0  0  0  0  0  0  0  0  0
  151.4020  140.4421  156.3208 O   0  0  0  0  0  0  0  0  0  0  0  0
  153.2177  139.5992  154.7247 O   0  0  0  0  0  0  0  0  0  0  0  0
  150.7624  138.4915  154.5620 C   0  0  0  0  0  0  0  0  0  0  0  0
  147.7157  132.3746  152.9704 C   0  0  0  0  0  0  0  0  0  0  0  0
  147.3214  131.0892  152.8520 N   0  0  0  0  0  0  0  0  0  0  0  0
  146.3652  127.4320  152.5664 H   0  0  0  0  0  0  0  0  0  0  0  0
  146.7639  128.7802  151.5073 H   0  0  0  0  0  0  0  0  0  0  0  0
  145.6301  129.0041  152.8593 H   0  0  0  0  0  0  0  0  0  0  0  0
  149.6816  129.6631  154.8298 H   0  0  0  0  0  0  0  0  0  0  0  0
  150.3952  132.0203  155.0609 H   0  0  0  0  0  0  0  0  0  0  0  0
  148.9083  134.6892  152.9434 H   0  0  0  0  0  0  0  0  0  0  0  0
  149.4830  136.5042  153.6123 H   0  0  0  0  0  0  0  0  0  0  0  0
  149.6352  137.5448  156.1350 H   0  0  0  0  0  0  0  0  0  0  0  0
  151.3674  136.0180  156.8859 H   0  0  0  0  0  0  0  0  0  0  0  0
  152.2728  136.2433  155.4022 H   0  0  0  0  0  0  0  0  0  0  0  0
  151.9665  138.2150  157.6783 H   0  0  0  0  0  0  0  0  0  0  0  0
  153.4359  137.7837  156.7889 H   0  0  0  0  0  0  0  0  0  0  0  0
  151.2215  138.2103  153.6134 H   0  0  0  0  0  0  0  0  0  0  0  0
  149.9278  139.1627  154.3584 H   0  0  0  0  0  0  0  0  0  0  0  0
  147.1231  133.1001  152.4321 H   0  0  0  0  0  0  0  0  0  0  0  0
  1  2  1  0  0  0  0
  1 20  1  0  0  0  0
  1 21  1  0  0  0  0
  1 22  1  0  0  0  0
  2  3  1  0  0  0  0
  3 19  1  0  0  0  0
  3  4  2  0  0  0  0
  4  5  1  0  0  0  0
  4 23  1  0  0  0  0
  5  6  2  0  0  0  0
  5 24  1  0  0  0  0
  6  7  1  0  0  0  0
  6 18  1  0  0  0  0
  7  8  1  0  0  0  0
  7 25  1  0  0  0  0
  8  9  2  0  0  0  0
  8 10  1  0  0  0  0
 10 11  1  0  0  0  0
 10 26  1  0  0  0  0
 11 17  1  0  0  0  0
 11 12  1  0  0  0  0
 11 27  1  0  0  0  0
 12 13  1  0  0  0  0
 12 28  1  0  0  0  0
 12 29  1  0  0  0  0
 13 14  1  0  0  0  0
 13 30  1  0  0  0  0
 13 31  1  0  0  0  0
 14 15  2  0  0  0  0
 14 16  2  0  0  0  0
 14 17  1  0  0  0  0
 17 32  1  0  0  0  0
 17 33  1  0  0  0  0
 18 19  2  0  0  0  0
 18 34  1  0  0  0  0
M  END
> <s_m_source_file>
AV-unprocessed.smi

> <i_m_source_file_index>
1449

> <i_lp_mmshare_version>
43012

> <i_f3d_flags>
0

> <s_epik_input>
W0NIM11PYzFbY0hdW2NIXWMoW2NIXW4xKVtOSF1DKD1PKVtOSF1bQ0BASF0oW0NIMl0yKVtDSDJdW0NIMl1TMig9Tyk9Tw==

> <s_epik_cmdline>
J2VwaWtfcHl0aG9uJywgJy1waCcsICc3LjAnLCAnLXRuJywgJzgnLCAnLW1hJywgJzIwMCcsICctbWV0YWxfYmluZGluZycsICctaW1hZScsICc8aW5maWxlLm1hZT4nLCAnLW9tYWUnLCAnPG91dGZpbGUubWFlPic=

> <r_lp_tautomer_probability>
1

> <r_epik_Ionization_Penalty>
7.6506e-05

> <r_epik_Ionization_Penalty_Charging>
0

> <r_epik_Ionization_Penalty_Neutral>
7.6506e-05

> <r_epik_State_Penalty>
-0

> <r_epik_Charging_Adjusted_Penalty>
0

> <i_epik_Tot_Q>
0

> <i_epik_Tot_abs_Q>
0

> <r_epik_Metal_State_Penalty>
-0

> <b_epik_Metal_Only>
0

> <s_lp_Force_Field>
OPLS_2005

> <r_lp_Energy>
18.5668

> <b_lp_Chiralities_Consistent>
1

> <s_lp_Variant>
AV-unprocessed.smi:1449-2

> <Gold.Version>
5.8.1

> <Gold.Id.Protein>
6NUR|6NUR_protein|mol2

> <Gold.PLP.Fitness>
37.5982

> <Gold.PLP.PLP>
-30.4301

> <Gold.PLP.part.hbond>
-4.0012

> <Gold.PLP.part.metal>
0.0000

> <Gold.PLP.part.buried>
-3.4703

> <Gold.PLP.part.nonpolar>
-23.0963

> <Gold.PLP.part.repulsive>
0.2959

> <Gold.PLP.ligand.clash>
0.0000

> <Gold.PLP.ligand.torsion>
0.4799

> <Gold.PLP.Chemscore.Hbond>
2.7084

> <Gold.PLP.Chemscore.CHOScore>
0.0000

> <Gold.PLP.Chemscore.Metal>
0.0000

> <Gold.Chemscore.Hbonds>
donor molecule, donor type, donor heavy atom, donor atom, acceptor molecule, acceptor atom, score
      L1  H     7    25       P1  7948  0.65
      L1  H    10    26       P1  7948  1.00
      P1  H  7989  7998       L1    16  0.01
      P1  H  7997  8009       L1    16  1.00

> <Gold.PLP.Chemscore.Internal.Correction>
0.0028

> <Gold.Rescore>
     Score         DG    S(hbond)    S(metal)    S(lipo)     H(rot)  DE(clash)    DE(int)     intcor
     12.11     -15.06       2.18        0.00      48.30       1.31       0.05       2.90       ----

> <Gold.Chemscore.Fitness>
12.1129

> <Gold.Chemscore.DG>
-15.0614

> <Gold.Chemscore.ZeroCoef>
-5.4800

> <Gold.Chemscore.Hbond>
2.1816

> <Gold.Chemscore.Metal>
0.0000

> <Gold.Chemscore.Lipo>
48.2962

> <Gold.Chemscore.Internal_Hbond>
0.0000

> <Gold.Chemscore.DEClash>
0.0515

> <Gold.Chemscore.DEInternal>
2.8969

> <Gold.Chemscore.Rot>
1.3109

> <Gold.Chemscore.Internal.Correction>
   9.000000E+99

> <Gold.Chemscore.Hbonds>
donor molecule, donor type, donor heavy atom, donor atom, acceptor molecule, acceptor atom, score
      L1  H     7    25       P1  7948  0.05
      L1  H    10    26       P1  7948  0.76
      P1  H  7997  8009       L1    16  0.40

> <Gold.Chemscore.Hbond.Weighted>
-7.2866

> <Gold.Chemscore.Metal.Weighted>
-0.0000

> <Gold.Chemscore.Lipo.Weighted>
-5.6507

> <Gold.Chemscore.Internal_Hbond.Weighted>
0.0000

> <Gold.Chemscore.DEClash.Weighted>
0.0515

> <Gold.Chemscore.DEInternal.Weighted>
2.8969

> <Gold.Chemscore.Rot.Weighted>
3.3559

> <Gold.Chemscore.Internal.Correction.Weighted>
   9.000000E+99

> <Gold.Protein.RotatedTorsions>
[ 6907 6896 6895 6894 ] final   94.83 input  -60.11 | X-H torsion
[ 7974 7965 7964 7962 ] final -112.08 input  175.53 | X-H torsion
[ 8008 7997 7996 7995 ] final -139.42 input   59.86 | X-H torsion
[ 10167 10162 10161 10158 ] final   86.89 input  -65.29 | X-H torsion
[ 10718 10713 10712 10709 ] final -168.49 input   66.30 | X-H torsion
[ 10763 10752 10751 10750 ] final   32.43 input  -60.55 | X-H torsion
[ 11005 11000 10999 10996 ] final  -38.06 input  -57.11 | X-H torsion

> <Gold.Protein.ActiveResidues>
 VAL166  LYS551  ARG553  GLY616  TRP617  ASP618  TYR619  PRO620  LYS621  CYS622 
 ASP623  PHE694  ASN695  SER759  ASP760  ASP761  ALA762  ILE779  LEU786  VAL792 
 PHE793  MET794  SER795  GLU796  ALA797  LYS798  CYS799  TRP800  GLU811  SER814 

> <Gold.Protein.RotatedAtoms>
  152.5447  134.1133  159.8367 H   0  0  0  0  0  0  0  0  0  0  0  0  # atno 6907 bound_to 6896
  151.1197  133.5106  159.2610 H   0  0  0  0  0  0  0  0  0  0  0  0  # atno 6908 bound_to 6896
  151.1793  135.0363  159.8840 H   0  0  0  0  0  0  0  0  0  0  0  0  # atno 6909 bound_to 6896
  145.1484  140.8816  143.3661 H   0  0  0  0  0  0  0  0  0  0  0  0  # atno 7974 bound_to 7965
  155.4446  140.0534  157.3007 H   0  0  0  0  0  0  0  0  0  0  0  0  # atno 8008 bound_to 7997
  154.4803  140.2078  155.9735 H   0  0  0  0  0  0  0  0  0  0  0  0  # atno 8009 bound_to 7997
  156.1196  140.3190  155.8193 H   0  0  0  0  0  0  0  0  0  0  0  0  # atno 8010 bound_to 7997
  139.8829  144.6430  150.8823 H   0  0  0  0  0  0  0  0  0  0  0  0  # atno 10167 bound_to 10162
  156.6977  130.9184  151.3076 H   0  0  0  0  0  0  0  0  0  0  0  0  # atno 10718 bound_to 10713
  153.0263  135.6413  154.1354 H   0  0  0  0  0  0  0  0  0  0  0  0  # atno 10763 bound_to 10752
  154.1082  135.2855  155.3238 H   0  0  0  0  0  0  0  0  0  0  0  0  # atno 10764 bound_to 10752
  154.6350  135.5479  153.7786 H   0  0  0  0  0  0  0  0  0  0  0  0  # atno 10765 bound_to 10752
  140.9999  133.6961  156.2003 H   0  0  0  0  0  0  0  0  0  0  0  0  # atno 11005 bound_to 11000
  145.0457  139.3223  143.5954 LP  0  0  0  0  0  0  0  0  0  0  0  0  # atno 17320 bound_to 7965
  146.3497  139.9847  142.8692 LP  0  0  0  0  0  0  0  0  0  0  0  0  # atno 17321 bound_to 7965
  140.7741  143.3571  151.1900 LP  0  0  0  0  0  0  0  0  0  0  0  0  # atno 17342 bound_to 10162
  139.7179  143.9270  152.2974 LP  0  0  0  0  0  0  0  0  0  0  0  0  # atno 17343 bound_to 10162
  157.6985  130.9307  150.0715 LP  0  0  0  0  0  0  0  0  0  0  0  0  # atno 17370 bound_to 10713
  156.1751  130.3648  149.9111 LP  0  0  0  0  0  0  0  0  0  0  0  0  # atno 17371 bound_to 10713
  140.6906  134.4670  157.5588 LP  0  0  0  0  0  0  0  0  0  0  0  0  # atno 17394 bound_to 11000
  139.9033  134.8505  156.1805 LP  0  0  0  0  0  0  0  0  0  0  0  0  # atno 17395 bound_to 11000

$$$$
