AV-unprocessed.smi:1231|AV-procd|sdf|5165|dock2
  -GOLD-   22720 4233D 1   1.00000     0.00000
 Structure written by MMmdl.
 43 44  0  0  0  0  0  0  0  0  2 V2000
  150.2491  141.9177  156.5907 C   0  0  0  0  0  0  0  0  0  0  0  0
  150.1119  141.0497  155.3352 C   0  0  2  0  0  0  0  0  0  0  0  0
  148.6400  140.8186  154.9452 C   0  0  0  0  0  0  0  0  0  0  0  0
  148.5473  139.9197  153.7706 N   0  3  2  0  0  0  0  0  0  0  0  0
  147.1465  139.7186  153.3236 C   0  0  0  0  0  0  0  0  0  0  0  0
  146.5050  138.4622  153.9444 C   0  0  0  0  0  0  0  0  0  0  0  0
  146.7598  137.2754  153.1365 N   0  0  0  0  0  0  0  0  0  0  0  0
  145.8191  136.4105  152.7298 C   0  0  0  0  0  0  0  0  0  0  0  0
  144.6240  136.5378  152.9987 O   0  0  0  0  0  0  0  0  0  0  0  0
  146.3535  135.4117  152.0055 N   0  0  0  0  0  0  0  0  0  0  0  0
  145.6849  134.3199  151.3903 C   0  0  0  0  0  0  0  0  0  0  0  0
  146.5290  133.3880  150.7450 C   0  0  0  0  0  0  0  0  0  0  0  0
  145.9632  132.2686  150.1047 C   0  0  0  0  0  0  0  0  0  0  0  0
  144.5660  132.1110  150.1243 C   0  0  0  0  0  0  0  0  0  0  0  0
  143.7977  133.0859  150.7870 C   0  0  0  0  0  0  0  0  0  0  0  0
  144.3380  134.1589  151.4023 N   0  0  0  0  0  0  0  0  0  0  0  0
  149.2733  138.6525  154.0341 C   0  0  0  0  0  0  0  0  0  0  0  0
  150.7276  138.9396  154.4541 C   0  0  2  0  0  0  0  0  0  0  0  0
  151.4885  137.6594  154.8160 C   0  0  0  0  0  0  0  0  0  0  0  0
  150.7245  139.7916  155.5944 O   0  0  0  0  0  0  0  0  0  0  0  0
  149.8051  142.9016  156.4378 H   0  0  0  0  0  0  0  0  0  0  0  0
  151.2978  142.0645  156.8501 H   0  0  0  0  0  0  0  0  0  0  0  0
  149.7556  141.4568  157.4469 H   0  0  0  0  0  0  0  0  0  0  0  0
  150.6370  141.5428  154.5151 H   0  0  0  0  0  0  0  0  0  0  0  0
  148.0909  140.3817  155.7813 H   0  0  0  0  0  0  0  0  0  0  0  0
  148.1674  141.7744  154.7151 H   0  0  0  0  0  0  0  0  0  0  0  0
  146.5623  140.6126  153.5468 H   0  0  0  0  0  0  0  0  0  0  0  0
  147.1306  139.6048  152.2386 H   0  0  0  0  0  0  0  0  0  0  0  0
  146.9147  138.2890  154.9398 H   0  0  0  0  0  0  0  0  0  0  0  0
  145.4283  138.5811  154.0677 H   0  0  0  0  0  0  0  0  0  0  0  0
  147.7187  137.0959  152.8761 H   0  0  0  0  0  0  0  0  0  0  0  0
  147.3543  135.4338  151.8778 H   0  0  0  0  0  0  0  0  0  0  0  0
  147.6008  133.5242  150.7393 H   0  0  0  0  0  0  0  0  0  0  0  0
  146.5912  131.5440  149.6076 H   0  0  0  0  0  0  0  0  0  0  0  0
  144.0953  131.2657  149.6444 H   0  0  0  0  0  0  0  0  0  0  0  0
  142.7217  133.0026  150.8246 H   0  0  0  0  0  0  0  0  0  0  0  0
  148.7586  138.0946  154.8184 H   0  0  0  0  0  0  0  0  0  0  0  0
  149.2746  138.0233  153.1449 H   0  0  0  0  0  0  0  0  0  0  0  0
  151.2547  139.4356  153.6370 H   0  0  0  0  0  0  0  0  0  0  0  0
  151.5319  136.9751  153.9684 H   0  0  0  0  0  0  0  0  0  0  0  0
  151.0101  137.1359  155.6443 H   0  0  0  0  0  0  0  0  0  0  0  0
  152.5131  137.8858  155.1128 H   0  0  0  0  0  0  0  0  0  0  0  0
  149.0291  140.3879  153.0163 H   0  0  0  0  0  0  0  0  0  0  0  0
  1  2  1  0  0  0  0
  1 21  1  0  0  0  0
  1 22  1  0  0  0  0
  1 23  1  0  0  0  0
  2 20  1  0  0  0  0
  2  3  1  0  0  0  0
  2 24  1  0  0  0  0
  3  4  1  0  0  0  0
  3 25  1  0  0  0  0
  3 26  1  0  0  0  0
  4  5  1  0  0  0  0
  4 17  1  0  0  0  0
  4 43  1  0  0  0  0
  5  6  1  0  0  0  0
  5 27  1  0  0  0  0
  5 28  1  0  0  0  0
  6  7  1  0  0  0  0
  6 29  1  0  0  0  0
  6 30  1  0  0  0  0
  7  8  1  0  0  0  0
  7 31  1  0  0  0  0
  8  9  2  0  0  0  0
  8 10  1  0  0  0  0
 10 11  1  0  0  0  0
 10 32  1  0  0  0  0
 11 16  1  0  0  0  0
 11 12  2  0  0  0  0
 12 13  1  0  0  0  0
 12 33  1  0  0  0  0
 13 14  2  0  0  0  0
 13 34  1  0  0  0  0
 14 15  1  0  0  0  0
 14 35  1  0  0  0  0
 15 16  2  0  0  0  0
 15 36  1  0  0  0  0
 17 18  1  0  0  0  0
 17 37  1  0  0  0  0
 17 38  1  0  0  0  0
 18 19  1  0  0  0  0
 18 20  1  0  0  0  0
 18 39  1  0  0  0  0
 19 40  1  0  0  0  0
 19 41  1  0  0  0  0
 19 42  1  0  0  0  0
M  CHG  1   4   1
M  END
> <s_m_source_file>
AV-unprocessed.smi

> <i_m_source_file_index>
1231

> <i_lp_mmshare_version>
43012

> <i_f3d_flags>
0

> <s_epik_input>
W0NIM11bQ0BASF0xW0NIMl1OKFtDSDJdW0NASF0oTzEpW0NIM10pW0NIMl1bQ0gyXVtOSF1DKD1PKVtOSF1jMltjSF1bY0hdW2NIXVtjSF1uMg==

> <s_epik_cmdline>
J2VwaWtfcHl0aG9uJywgJy1waCcsICc3LjAnLCAnLXRuJywgJzgnLCAnLW1hJywgJzIwMCcsICctbWV0YWxfYmluZGluZycsICctaW1hZScsICc8aW5maWxlLm1hZT4nLCAnLW9tYWUnLCAnPG91dGZpbGUubWFlPic=

> <r_epik_Ionization_Penalty>
0.602565

> <r_epik_Ionization_Penalty_Charging>
0.602531

> <r_epik_Ionization_Penalty_Neutral>
3.43186e-05

> <r_epik_State_Penalty>
0.617039

> <r_epik_Charging_Adjusted_Penalty>
1.21957

> <i_epik_Tot_Q>
1

> <i_epik_Tot_abs_Q>
1

> <r_epik_Metal_State_Penalty>
0.617041

> <b_epik_Metal_Only>
0

> <s_lp_Force_Field>
OPLS_2005

> <r_lp_Energy>
15.064

> <b_lp_Chiralities_Consistent>
1

> <s_lp_Variant>
AV-unprocessed.smi:1231-6

> <Gold.Version>
5.8.1

> <Gold.Id.Protein>
6NUR|6NUR_protein|mol2

> <Gold.PLP.Fitness>
46.6999

> <Gold.PLP.PLP>
-36.4861

> <Gold.PLP.part.hbond>
-3.0000

> <Gold.PLP.part.metal>
0.0000

> <Gold.PLP.part.buried>
-3.7292

> <Gold.PLP.part.nonpolar>
-30.1661

> <Gold.PLP.part.repulsive>
0.4710

> <Gold.PLP.ligand.clash>
0.0000

> <Gold.PLP.ligand.torsion>
0.6036

> <Gold.PLP.Chemscore.Hbond>
2.8000

> <Gold.PLP.Chemscore.CHOScore>
0.9947

> <Gold.PLP.Chemscore.Metal>
0.0000

> <Gold.Chemscore.Hbonds>
donor molecule, donor type, donor heavy atom, donor atom, acceptor molecule, acceptor atom, score
      L1  H     4    43       P1  7957  0.80
      L1  H     7    31       P1  7948  1.00
      L1  H    10    32       P1  7948  1.00
      L1  C    15    36       P1 10186  0.89

> <Gold.PLP.Chemscore.Internal.Correction>
0.0370

> <Gold.Rescore>
     Score         DG    S(hbond)    S(metal)    S(lipo)     H(rot)  DE(clash)    DE(int)     intcor
     18.53     -21.65       2.83        0.00      91.30       1.55       0.20       2.91       ----

> <Gold.Chemscore.Fitness>
18.5265

> <Gold.Chemscore.DG>
-21.6463

> <Gold.Chemscore.ZeroCoef>
-5.4800

> <Gold.Chemscore.Hbond>
2.8334

> <Gold.Chemscore.Metal>
0.0000

> <Gold.Chemscore.Lipo>
91.3020

> <Gold.Chemscore.Internal_Hbond>
0.0000

> <Gold.Chemscore.DEClash>
0.2048

> <Gold.Chemscore.DEInternal>
2.9150

> <Gold.Chemscore.Rot>
1.5546

> <Gold.Chemscore.Internal.Correction>
   9.000000E+99

> <Gold.Chemscore.Hbonds>
donor molecule, donor type, donor heavy atom, donor atom, acceptor molecule, acceptor atom, score
      L1  H     4    43       P1  7957  0.78
      L1  H     7    31       P1  7948  0.95
      L1  H    10    32       P1  7948  0.98

> <Gold.Chemscore.Hbond.Weighted>
-9.4636

> <Gold.Chemscore.Metal.Weighted>
-0.0000

> <Gold.Chemscore.Lipo.Weighted>
-10.6823

> <Gold.Chemscore.Internal_Hbond.Weighted>
0.0000

> <Gold.Chemscore.DEClash.Weighted>
0.2048

> <Gold.Chemscore.DEInternal.Weighted>
2.9150

> <Gold.Chemscore.Rot.Weighted>
3.9797

> <Gold.Chemscore.Internal.Correction.Weighted>
   9.000000E+99

> <Gold.Protein.RotatedTorsions>
[ 6907 6896 6895 6894 ] final  -53.46 input  -60.11 | X-H torsion
[ 7974 7965 7964 7962 ] final -160.40 input  175.53 | X-H torsion
[ 8008 7997 7996 7995 ] final  128.95 input   59.86 | X-H torsion
[ 10167 10162 10161 10158 ] final  -15.97 input  -65.29 | X-H torsion
[ 10718 10713 10712 10709 ] final  -82.78 input   66.30 | X-H torsion
[ 10763 10752 10751 10750 ] final  -37.91 input  -60.55 | X-H torsion
[ 11005 11000 10999 10996 ] final  -99.71 input  -57.11 | X-H torsion

> <Gold.Protein.ActiveResidues>
 VAL166  LYS551  ARG553  GLY616  TRP617  ASP618  TYR619  PRO620  LYS621  CYS622 
 ASP623  PHE694  ASN695  SER759  ASP760  ASP761  ALA762  ILE779  LEU786  VAL792 
 PHE793  MET794  SER795  GLU796  ALA797  LYS798  CYS799  TRP800  GLU811  SER814 

> <Gold.Protein.RotatedAtoms>
  150.8424  134.7721  159.6943 H   0  0  0  0  0  0  0  0  0  0  0  0  # atno 6907 bound_to 6896
  152.4509  134.5393  159.9844 H   0  0  0  0  0  0  0  0  0  0  0  0  # atno 6908 bound_to 6896
  151.5530  133.3377  159.2992 H   0  0  0  0  0  0  0  0  0  0  0  0  # atno 6909 bound_to 6896
  144.7428  140.3547  143.6108 H   0  0  0  0  0  0  0  0  0  0  0  0  # atno 7974 bound_to 7965
  156.2926  140.2632  156.2518 H   0  0  0  0  0  0  0  0  0  0  0  0  # atno 8008 bound_to 7997
  154.9875  140.0389  157.2323 H   0  0  0  0  0  0  0  0  0  0  0  0  # atno 8009 bound_to 7997
  154.7716  140.2779  155.6138 H   0  0  0  0  0  0  0  0  0  0  0  0  # atno 8010 bound_to 7997
  140.7227  143.5164  150.9687 H   0  0  0  0  0  0  0  0  0  0  0  0  # atno 10167 bound_to 10162
  156.0028  130.4645  150.4158 H   0  0  0  0  0  0  0  0  0  0  0  0  # atno 10718 bound_to 10713
  153.9041  135.6799  153.4754 H   0  0  0  0  0  0  0  0  0  0  0  0  # atno 10763 bound_to 10752
  153.1114  135.4781  154.9038 H   0  0  0  0  0  0  0  0  0  0  0  0  # atno 10764 bound_to 10752
  154.7560  135.3197  154.8423 H   0  0  0  0  0  0  0  0  0  0  0  0  # atno 10765 bound_to 10752
  141.1298  133.8342  157.1007 H   0  0  0  0  0  0  0  0  0  0  0  0  # atno 11005 bound_to 11000
  145.7239  139.1717  143.2469 LP  0  0  0  0  0  0  0  0  0  0  0  0  # atno 17320 bound_to 7965
  146.1256  140.7252  142.9436 LP  0  0  0  0  0  0  0  0  0  0  0  0  # atno 17321 bound_to 7965
  139.8879  143.6989  152.3149 LP  0  0  0  0  0  0  0  0  0  0  0  0  # atno 17342 bound_to 10162
  139.7295  144.7585  151.0825 LP  0  0  0  0  0  0  0  0  0  0  0  0  # atno 17343 bound_to 10162
  157.2217  131.0484  151.2542 LP  0  0  0  0  0  0  0  0  0  0  0  0  # atno 17370 bound_to 10713
  157.3794  130.7223  149.6619 LP  0  0  0  0  0  0  0  0  0  0  0  0  # atno 17371 bound_to 10713
  140.0335  134.9889  157.0826 LP  0  0  0  0  0  0  0  0  0  0  0  0  # atno 17394 bound_to 11000
  140.4247  134.1843  155.7165 LP  0  0  0  0  0  0  0  0  0  0  0  0  # atno 17395 bound_to 11000

$$$$
