AV-unprocessed.smi:1884|AV-procd|sdf|7647|dock2
  -GOLD-   22720 9373D 1   1.00000     0.00000
 Structure written by MMmdl.
 40 42  0  0  0  0  0  0  0  0  1 V2000
  152.1073  138.6662  155.5397 C   0  0  0  0  0  0  0  0  0  0  0  0
  152.1838  139.6325  156.6787 C   0  0  0  0  0  0  0  0  0  0  0  0
  152.9875  139.4379  157.7244 N   0  0  0  0  0  0  0  0  0  0  0  0
  152.7415  140.5500  158.5067 C   0  0  0  0  0  0  0  0  0  0  0  0
  153.2843  140.9345  159.7536 C   0  0  0  0  0  0  0  0  0  0  0  0
  152.8721  142.1329  160.3726 C   0  0  0  0  0  0  0  0  0  0  0  0
  151.9131  142.9619  159.7555 C   0  0  0  0  0  0  0  0  0  0  0  0
  151.3599  142.5978  158.5129 C   0  0  0  0  0  0  0  0  0  0  0  0
  151.7754  141.4013  157.8987 C   0  0  0  0  0  0  0  0  0  0  0  0
  151.4384  140.7645  156.7081 N   0  0  0  0  0  0  0  0  0  0  0  0
  150.4843  141.2357  155.7138 C   0  0  0  0  0  0  0  0  0  0  0  0
  149.0496  141.3412  156.2705 C   0  0  1  0  0  0  0  0  0  0  0  0
  148.8192  142.5944  156.8831 O   0  0  0  0  0  0  0  0  0  0  0  0
  147.9595  141.0873  155.2162 C   0  0  0  0  0  0  0  0  0  0  0  0
  146.6932  141.4980  155.7180 O   0  0  0  0  0  0  0  0  0  0  0  0
  146.0658  142.5678  155.1172 C   0  0  0  0  0  0  0  0  0  0  0  0
  145.1017  143.2551  155.8828 C   0  0  0  0  0  0  0  0  0  0  0  0
  144.4105  144.3604  155.3502 C   0  0  0  0  0  0  0  0  0  0  0  0
  144.6786  144.7929  154.0366 C   0  0  0  0  0  0  0  0  0  0  0  0
  143.9672  145.9333  153.4836 C   0  0  0  0  0  0  0  0  0  0  0  0
  143.4010  146.8412  153.0434 N   0  0  0  0  0  0  0  0  0  0  0  0
  145.6400  144.1148  153.2613 C   0  0  0  0  0  0  0  0  0  0  0  0
  146.3305  143.0094  153.7962 C   0  0  0  0  0  0  0  0  0  0  0  0
  152.7396  137.7986  155.7316 H   0  0  0  0  0  0  0  0  0  0  0  0
  152.4471  139.1408  154.6190 H   0  0  0  0  0  0  0  0  0  0  0  0
  151.0833  138.3193  155.4032 H   0  0  0  0  0  0  0  0  0  0  0  0
  154.0190  140.3058  160.2346 H   0  0  0  0  0  0  0  0  0  0  0  0
  153.2936  142.4173  161.3255 H   0  0  0  0  0  0  0  0  0  0  0  0
  151.6018  143.8775  160.2368 H   0  0  0  0  0  0  0  0  0  0  0  0
  150.6228  143.2292  158.0389 H   0  0  0  0  0  0  0  0  0  0  0  0
  150.8244  142.2047  155.3467 H   0  0  0  0  0  0  0  0  0  0  0  0
  150.5075  140.5644  154.8553 H   0  0  0  0  0  0  0  0  0  0  0  0
  148.9248  140.5972  157.0576 H   0  0  0  0  0  0  0  0  0  0  0  0
  149.1987  143.2681  156.3394 H   0  0  0  0  0  0  0  0  0  0  0  0
  148.1929  141.6706  154.3240 H   0  0  0  0  0  0  0  0  0  0  0  0
  147.9471  140.0340  154.9305 H   0  0  0  0  0  0  0  0  0  0  0  0
  144.8888  142.9304  156.8908 H   0  0  0  0  0  0  0  0  0  0  0  0
  143.6757  144.8716  155.9558 H   0  0  0  0  0  0  0  0  0  0  0  0
  145.8540  144.4376  152.2526 H   0  0  0  0  0  0  0  0  0  0  0  0
  147.0596  142.5172  153.1710 H   0  0  0  0  0  0  0  0  0  0  0  0
  1  2  1  0  0  0  0
  1 24  1  0  0  0  0
  1 25  1  0  0  0  0
  1 26  1  0  0  0  0
  2 10  1  0  0  0  0
  2  3  2  0  0  0  0
  3  4  1  0  0  0  0
  4  9  2  0  0  0  0
  4  5  1  0  0  0  0
  5  6  2  0  0  0  0
  5 27  1  0  0  0  0
  6  7  1  0  0  0  0
  6 28  1  0  0  0  0
  7  8  2  0  0  0  0
  7 29  1  0  0  0  0
  8  9  1  0  0  0  0
  8 30  1  0  0  0  0
  9 10  1  0  0  0  0
 10 11  1  0  0  0  0
 11 12  1  0  0  0  0
 11 31  1  0  0  0  0
 11 32  1  0  0  0  0
 12 13  1  0  0  0  0
 12 14  1  0  0  0  0
 12 33  1  0  0  0  0
 13 34  1  0  0  0  0
 14 15  1  0  0  0  0
 14 35  1  0  0  0  0
 14 36  1  0  0  0  0
 15 16  1  0  0  0  0
 16 23  1  0  0  0  0
 16 17  2  0  0  0  0
 17 18  1  0  0  0  0
 17 37  1  0  0  0  0
 18 19  2  0  0  0  0
 18 38  1  0  0  0  0
 19 20  1  0  0  0  0
 19 22  1  0  0  0  0
 20 21  3  0  0  0  0
 22 23  2  0  0  0  0
 22 39  1  0  0  0  0
 23 40  1  0  0  0  0
M  END
> <s_m_source_file>
AV-unprocessed.smi

> <i_m_source_file_index>
1884

> <i_lp_mmshare_version>
43012

> <i_f3d_flags>
0

> <s_epik_input>
W2NIXTFbY0hdW2NIXVtjSF1jKGMxMiluKGMobjIpW0NIM10pW0NIMl1bQ0BIXShbT0hdKVtDSDJdT2MzW2NIXVtjSF1jKEMjTilbY0hdW2NIXTM=

> <s_epik_cmdline>
J2VwaWtfcHl0aG9uJywgJy1waCcsICc3LjAnLCAnLXRuJywgJzgnLCAnLW1hJywgJzIwMCcsICctbWV0YWxfYmluZGluZycsICctaW1hZScsICc8aW5maWxlLm1hZT4nLCAnLW9tYWUnLCAnPG91dGZpbGUubWFlPic=

> <r_epik_Ionization_Penalty>
0.110799

> <r_epik_Ionization_Penalty_Charging>
0

> <r_epik_Ionization_Penalty_Neutral>
0.110799

> <r_epik_State_Penalty>
0.100537

> <r_epik_Charging_Adjusted_Penalty>
0.100537

> <i_epik_Tot_Q>
0

> <i_epik_Tot_abs_Q>
0

> <r_epik_Metal_State_Penalty>
0.000109561

> <b_epik_Metal_Only>
0

> <s_lp_Force_Field>
OPLS_2005

> <r_lp_Energy>
15.8786

> <b_lp_Chiralities_Consistent>
1

> <s_lp_Variant>
AV-unprocessed.smi:1884-2

> <Gold.Version>
5.8.1

> <Gold.Id.Protein>
6NUR|6NUR_protein|mol2

> <Gold.PLP.Fitness>
50.7394

> <Gold.PLP.PLP>
-47.0060

> <Gold.PLP.part.hbond>
-3.8716

> <Gold.PLP.part.metal>
0.0000

> <Gold.PLP.part.buried>
-2.5982

> <Gold.PLP.part.nonpolar>
-38.2382

> <Gold.PLP.part.repulsive>
0.1531

> <Gold.PLP.ligand.clash>
0.0000

> <Gold.PLP.ligand.torsion>
1.1678

> <Gold.PLP.Chemscore.Hbond>
2.0000

> <Gold.PLP.Chemscore.CHOScore>
0.0000

> <Gold.PLP.Chemscore.Metal>
0.0000

> <Gold.Chemscore.Hbonds>
donor molecule, donor type, donor heavy atom, donor atom, acceptor molecule, acceptor atom, score
      L1  H    13    34       P1  8028  0.85
      P1  H  7997  8008       L1     3  0.57

> <Gold.PLP.Chemscore.Internal.Correction>
0.0691

> <Gold.Rescore>
     Score         DG    S(hbond)    S(metal)    S(lipo)     H(rot)  DE(clash)    DE(int)     intcor
     14.30     -15.62       1.01        0.00     108.42       2.31       0.13       1.19       ----

> <Gold.Chemscore.Fitness>
14.2974

> <Gold.Chemscore.DG>
-15.6159

> <Gold.Chemscore.ZeroCoef>
-5.4800

> <Gold.Chemscore.Hbond>
1.0076

> <Gold.Chemscore.Metal>
0.0000

> <Gold.Chemscore.Lipo>
108.4164

> <Gold.Chemscore.Internal_Hbond>
0.0000

> <Gold.Chemscore.DEClash>
0.1302

> <Gold.Chemscore.DEInternal>
1.1883

> <Gold.Chemscore.Rot>
2.3102

> <Gold.Chemscore.Internal.Correction>
   9.000000E+99

> <Gold.Chemscore.Hbonds>
donor molecule, donor type, donor heavy atom, donor atom, acceptor molecule, acceptor atom, score
      L1  H    13    34       P1  8028  0.83
      P1  H  7997  8008       L1     3  0.01

> <Gold.Chemscore.Hbond.Weighted>
-3.3653

> <Gold.Chemscore.Metal.Weighted>
-0.0000

> <Gold.Chemscore.Lipo.Weighted>
-12.6847

> <Gold.Chemscore.Internal_Hbond.Weighted>
0.0000

> <Gold.Chemscore.DEClash.Weighted>
0.1302

> <Gold.Chemscore.DEInternal.Weighted>
1.1883

> <Gold.Chemscore.Rot.Weighted>
5.9141

> <Gold.Chemscore.Internal.Correction.Weighted>
   9.000000E+99

> <Gold.Protein.RotatedTorsions>
[ 6907 6896 6895 6894 ] final  -64.76 input  -60.11 | X-H torsion
[ 7974 7965 7964 7962 ] final  -16.06 input  175.53 | X-H torsion
[ 8008 7997 7996 7995 ] final  -70.27 input   59.86 | X-H torsion
[ 10167 10162 10161 10158 ] final -122.66 input  -65.29 | X-H torsion
[ 10718 10713 10712 10709 ] final   78.86 input   66.30 | X-H torsion
[ 10763 10752 10751 10750 ] final   44.48 input  -60.55 | X-H torsion
[ 11005 11000 10999 10996 ] final    8.22 input  -57.11 | X-H torsion

> <Gold.Protein.ActiveResidues>
 VAL166  LYS551  ARG553  GLY616  TRP617  ASP618  TYR619  PRO620  LYS621  CYS622 
 ASP623  PHE694  ASN695  SER759  ASP760  ASP761  ALA762  ILE779  LEU786  VAL792 
 PHE793  MET794  SER795  GLU796  ALA797  LYS798  CYS799  TRP800  GLU811  SER814 

> <Gold.Protein.RotatedAtoms>
  150.7565  134.6253  159.6157 H   0  0  0  0  0  0  0  0  0  0  0  0  # atno 6907 bound_to 6896
  152.3547  134.6953  160.0234 H   0  0  0  0  0  0  0  0  0  0  0  0  # atno 6908 bound_to 6896
  151.7363  133.3284  159.3390 H   0  0  0  0  0  0  0  0  0  0  0  0  # atno 6909 bound_to 6896
  146.2005  140.3582  142.8425 H   0  0  0  0  0  0  0  0  0  0  0  0  # atno 7974 bound_to 7965
  154.5000  140.0837  156.7777 H   0  0  0  0  0  0  0  0  0  0  0  0  # atno 8008 bound_to 7997
  155.4026  140.3438  155.4240 H   0  0  0  0  0  0  0  0  0  0  0  0  # atno 8009 bound_to 7997
  156.1443  140.1539  156.8858 H   0  0  0  0  0  0  0  0  0  0  0  0  # atno 8010 bound_to 7997
  140.0118  143.5434  152.2259 H   0  0  0  0  0  0  0  0  0  0  0  0  # atno 10167 bound_to 10162
  157.6758  130.9887  150.1848 H   0  0  0  0  0  0  0  0  0  0  0  0  # atno 10718 bound_to 10713
  152.9840  135.6069  154.3280 H   0  0  0  0  0  0  0  0  0  0  0  0  # atno 10763 bound_to 10752
  154.2986  135.2773  155.2623 H   0  0  0  0  0  0  0  0  0  0  0  0  # atno 10764 bound_to 10752
  154.4886  135.5898  153.6499 H   0  0  0  0  0  0  0  0  0  0  0  0  # atno 10765 bound_to 10752
  140.5394  134.0389  155.7899 H   0  0  0  0  0  0  0  0  0  0  0  0  # atno 11005 bound_to 11000
  144.8672  140.7222  143.6070 LP  0  0  0  0  0  0  0  0  0  0  0  0  # atno 17320 bound_to 7965
  145.3501  139.1708  143.4439 LP  0  0  0  0  0  0  0  0  0  0  0  0  # atno 17321 bound_to 7965
  139.6200  144.7627  151.2762 LP  0  0  0  0  0  0  0  0  0  0  0  0  # atno 17342 bound_to 10162
  140.7378  143.6666  150.8117 LP  0  0  0  0  0  0  0  0  0  0  0  0  # atno 17343 bound_to 10162
  156.2572  130.3707  149.8169 LP  0  0  0  0  0  0  0  0  0  0  0  0  # atno 17370 bound_to 10713
  156.5924  130.8512  151.3411 LP  0  0  0  0  0  0  0  0  0  0  0  0  # atno 17371 bound_to 10713
  141.1236  133.9421  157.2681 LP  0  0  0  0  0  0  0  0  0  0  0  0  # atno 17394 bound_to 11000
  139.9512  135.0175  156.8998 LP  0  0  0  0  0  0  0  0  0  0  0  0  # atno 17395 bound_to 11000

$$$$
