AV-unprocessed.smi:2822|AV-procd|sdf|10875|dock8
  -GOLD-   2272015313D 1   1.00000     0.00000
 Structure written by MMmdl.
 40 42  0  0  0  0  0  0  0  0  2 V2000
  150.7474  137.7398  158.8782 Cl  0  0  0  0  0  0  0  0  0  0  0  0
  150.7399  137.7886  157.1494 C   0  0  0  0  0  0  0  0  0  0  0  0
  151.7435  137.1120  156.4265 C   0  0  0  0  0  0  0  0  0  0  0  0
  151.8086  137.0992  155.0787 N   0  0  0  0  0  0  0  0  0  0  0  0
  150.8586  137.7726  154.3975 C   0  0  0  0  0  0  0  0  0  0  0  0
  149.8118  138.4814  155.0205 C   0  0  0  0  0  0  0  0  0  0  0  0
  149.7449  138.4939  156.4337 C   0  0  0  0  0  0  0  0  0  0  0  0
  148.7403  139.1753  157.1376 N   0  0  0  0  0  0  0  0  0  0  0  0
  148.0792  140.3380  156.5652 C   0  0  0  0  0  0  0  0  0  0  0  0
  148.9667  141.5875  156.6518 C   0  0  1  0  0  0  0  0  0  0  0  0
  148.9369  142.2133  158.0583 C   0  0  0  0  0  0  0  0  0  0  0  0
  149.8534  143.3750  158.1311 N   0  3  1  0  0  0  0  0  0  0  0  0
  149.8265  144.0362  159.4605 C   0  0  0  0  0  0  0  0  0  0  0  0
  150.7143  145.2912  159.4722 C   0  0  0  0  0  0  0  0  0  0  0  0
  152.1503  144.9486  159.0548 C   0  0  0  0  0  0  0  0  0  0  0  0
  152.1474  144.2416  157.6928 C   0  0  0  0  0  0  0  0  0  0  0  0
  151.2307  143.0021  157.7079 C   0  0  2  0  0  0  0  0  0  0  0  0
  151.1902  142.3184  156.3273 C   0  0  0  0  0  0  0  0  0  0  0  0
  150.3075  141.2044  156.3643 O   0  0  0  0  0  0  0  0  0  0  0  0
  152.5165  136.5647  156.9456 H   0  0  0  0  0  0  0  0  0  0  0  0
  150.9349  137.7469  153.3205 H   0  0  0  0  0  0  0  0  0  0  0  0
  149.0883  138.9980  154.4082 H   0  0  0  0  0  0  0  0  0  0  0  0
  148.3245  138.7314  157.9444 H   0  0  0  0  0  0  0  0  0  0  0  0
  147.8544  140.1264  155.5192 H   0  0  0  0  0  0  0  0  0  0  0  0
  147.1303  140.5123  157.0740 H   0  0  0  0  0  0  0  0  0  0  0  0
  148.6248  142.3220  155.9196 H   0  0  0  0  0  0  0  0  0  0  0  0
  147.9231  142.5350  158.3002 H   0  0  0  0  0  0  0  0  0  0  0  0
  149.2252  141.4728  158.8065 H   0  0  0  0  0  0  0  0  0  0  0  0
  148.8015  144.3127  159.7106 H   0  0  0  0  0  0  0  0  0  0  0  0
  150.1617  143.3339  160.2252 H   0  0  0  0  0  0  0  0  0  0  0  0
  150.3030  146.0390  158.7930 H   0  0  0  0  0  0  0  0  0  0  0  0
  150.7125  145.7405  160.4658 H   0  0  0  0  0  0  0  0  0  0  0  0
  152.7564  145.8540  159.0083 H   0  0  0  0  0  0  0  0  0  0  0  0
  152.6092  144.3034  159.8053 H   0  0  0  0  0  0  0  0  0  0  0  0
  151.8145  144.9390  156.9226 H   0  0  0  0  0  0  0  0  0  0  0  0
  153.1649  143.9517  157.4276 H   0  0  0  0  0  0  0  0  0  0  0  0
  151.6238  142.2864  158.4323 H   0  0  0  0  0  0  0  0  0  0  0  0
  150.8769  143.0168  155.5494 H   0  0  0  0  0  0  0  0  0  0  0  0
  152.1847  141.9647  156.0536 H   0  0  0  0  0  0  0  0  0  0  0  0
  149.5177  144.0533  157.4621 H   0  0  0  0  0  0  0  0  0  0  0  0
  1  2  1  0  0  0  0
  2  7  1  0  0  0  0
  2  3  2  0  0  0  0
  3  4  1  0  0  0  0
  3 20  1  0  0  0  0
  4  5  2  0  0  0  0
  5  6  1  0  0  0  0
  5 21  1  0  0  0  0
  6  7  2  0  0  0  0
  6 22  1  0  0  0  0
  7  8  1  0  0  0  0
  8  9  1  0  0  0  0
  8 23  1  0  0  0  0
  9 10  1  0  0  0  0
  9 24  1  0  0  0  0
  9 25  1  0  0  0  0
 10 19  1  0  0  0  0
 10 11  1  0  0  0  0
 10 26  1  0  0  0  0
 11 12  1  0  0  0  0
 11 27  1  0  0  0  0
 11 28  1  0  0  0  0
 12 17  1  0  0  0  0
 12 13  1  0  0  0  0
 12 40  1  0  0  0  0
 13 14  1  0  0  0  0
 13 29  1  0  0  0  0
 13 30  1  0  0  0  0
 14 15  1  0  0  0  0
 14 31  1  0  0  0  0
 14 32  1  0  0  0  0
 15 16  1  0  0  0  0
 15 33  1  0  0  0  0
 15 34  1  0  0  0  0
 16 17  1  0  0  0  0
 16 35  1  0  0  0  0
 16 36  1  0  0  0  0
 17 18  1  0  0  0  0
 17 37  1  0  0  0  0
 18 19  1  0  0  0  0
 18 38  1  0  0  0  0
 18 39  1  0  0  0  0
M  CHG  1  12   1
M  END
> <s_m_source_file>
AV-unprocessed.smi

> <i_m_source_file_index>
2822

> <i_lp_mmshare_version>
43012

> <i_f3d_flags>
0

> <s_epik_input>
Q2xjMVtjSF1uW2NIXVtjSF1jMVtOSF1bQ0gyXVtDQEhdKFtDSDJdMilPW0NIMl1bQ0BASF0oTjIzKVtDSDJdW0NIMl1bQ0gyXVtDSDJdMw==

> <s_epik_cmdline>
J2VwaWtfcHl0aG9uJywgJy1waCcsICc3LjAnLCAnLXRuJywgJzgnLCAnLW1hJywgJzIwMCcsICctbWV0YWxfYmluZGluZycsICctaW1hZScsICc8aW5maWxlLm1hZT4nLCAnLW9tYWUnLCAnPG91dGZpbGUubWFlPic=

> <r_lp_tautomer_probability>
0.999999

> <r_epik_Ionization_Penalty>
0.88937

> <r_epik_Ionization_Penalty_Charging>
0.0803403

> <r_epik_Ionization_Penalty_Neutral>
0.80903

> <r_epik_State_Penalty>
0.931884

> <r_epik_Charging_Adjusted_Penalty>
1.01222

> <i_epik_Tot_Q>
1

> <i_epik_Tot_abs_Q>
1

> <r_epik_Metal_State_Penalty>
0.0782275

> <b_epik_Metal_Only>
0

> <s_lp_Force_Field>
OPLS_2005

> <r_lp_Energy>
28.742

> <b_lp_Chiralities_Consistent>
1

> <s_lp_Variant>
AV-unprocessed.smi:2822-16

> <Gold.Version>
5.8.1

> <Gold.Id.Protein>
6NUR|6NUR_protein|mol2

> <Gold.PLP.Fitness>
41.8856

> <Gold.PLP.PLP>
-30.6893

> <Gold.PLP.part.hbond>
-2.0000

> <Gold.PLP.part.metal>
0.0000

> <Gold.PLP.part.buried>
-6.6635

> <Gold.PLP.part.nonpolar>
-22.6254

> <Gold.PLP.part.repulsive>
0.2491

> <Gold.PLP.ligand.clash>
0.0000

> <Gold.PLP.ligand.torsion>
0.4489

> <Gold.PLP.Chemscore.Hbond>
3.0000

> <Gold.PLP.Chemscore.CHOScore>
1.0312

> <Gold.PLP.Chemscore.Metal>
0.0000

> <Gold.Chemscore.Hbonds>
donor molecule, donor type, donor heavy atom, donor atom, acceptor molecule, acceptor atom, score
      L1  H    12    40       P1  8028  2.00
      P1  H 10752 10764       L1     4  1.00
      L1  C     5    21       P1  7948  0.07
      L1  C     5    21       P1  7949  0.96

> <Gold.PLP.Chemscore.Internal.Correction>
0.0003

> <Gold.Rescore>
     Score         DG    S(hbond)    S(metal)    S(lipo)     H(rot)  DE(clash)    DE(int)     intcor
     16.81     -20.34       1.69        0.00     104.36       1.17       1.67       1.86       ----

> <Gold.Chemscore.Fitness>
16.8087

> <Gold.Chemscore.DG>
-20.3402

> <Gold.Chemscore.ZeroCoef>
-5.4800

> <Gold.Chemscore.Hbond>
1.6897

> <Gold.Chemscore.Metal>
0.0000

> <Gold.Chemscore.Lipo>
104.3587

> <Gold.Chemscore.Internal_Hbond>
0.0000

> <Gold.Chemscore.DEClash>
1.6680

> <Gold.Chemscore.DEInternal>
1.8635

> <Gold.Chemscore.Rot>
1.1693

> <Gold.Chemscore.Internal.Correction>
   9.000000E+99

> <Gold.Chemscore.Hbonds>
donor molecule, donor type, donor heavy atom, donor atom, acceptor molecule, acceptor atom, score
      L1  H    12    40       P1  8028  0.24
      P1  H 10752 10764       L1     4  0.62

> <Gold.Chemscore.Hbond.Weighted>
-5.6436

> <Gold.Chemscore.Metal.Weighted>
-0.0000

> <Gold.Chemscore.Lipo.Weighted>
-12.2100

> <Gold.Chemscore.Internal_Hbond.Weighted>
0.0000

> <Gold.Chemscore.DEClash.Weighted>
1.6680

> <Gold.Chemscore.DEInternal.Weighted>
1.8635

> <Gold.Chemscore.Rot.Weighted>
2.9934

> <Gold.Chemscore.Internal.Correction.Weighted>
   9.000000E+99

> <Gold.Protein.RotatedTorsions>
[ 6907 6896 6895 6894 ] final  -55.46 input  -60.11 | X-H torsion
[ 7974 7965 7964 7962 ] final   51.60 input  175.53 | X-H torsion
[ 8008 7997 7996 7995 ] final  101.95 input   59.86 | X-H torsion
[ 10167 10162 10161 10158 ] final  104.05 input  -65.29 | X-H torsion
[ 10718 10713 10712 10709 ] final  121.16 input   66.30 | X-H torsion
[ 10763 10752 10751 10750 ] final  -62.04 input  -60.55 | X-H torsion
[ 11005 11000 10999 10996 ] final   47.17 input  -57.11 | X-H torsion

> <Gold.Protein.ActiveResidues>
 VAL166  LYS551  ARG553  GLY616  TRP617  ASP618  TYR619  PRO620  LYS621  CYS622 
 ASP623  PHE694  ASN695  SER759  ASP760  ASP761  ALA762  ILE779  LEU786  VAL792 
 PHE793  MET794  SER795  GLU796  ALA797  LYS798  CYS799  TRP800  GLU811  SER814 

> <Gold.Protein.RotatedAtoms>
  150.8250  134.7476  159.6804 H   0  0  0  0  0  0  0  0  0  0  0  0  # atno 6907 bound_to 6896
  152.4361  134.5679  159.9923 H   0  0  0  0  0  0  0  0  0  0  0  0  # atno 6908 bound_to 6896
  151.5854  133.3335  159.3053 H   0  0  0  0  0  0  0  0  0  0  0  0  # atno 6909 bound_to 6896
  145.9897  139.4326  143.0081 H   0  0  0  0  0  0  0  0  0  0  0  0  # atno 7974 bound_to 7965
  156.1347  140.3189  155.8403 H   0  0  0  0  0  0  0  0  0  0  0  0  # atno 8008 bound_to 7997
  155.4266  140.0516  157.3039 H   0  0  0  0  0  0  0  0  0  0  0  0  # atno 8009 bound_to 7997
  154.4927  140.2099  155.9525 H   0  0  0  0  0  0  0  0  0  0  0  0  # atno 8010 bound_to 7997
  139.7211  144.7058  151.0872 H   0  0  0  0  0  0  0  0  0  0  0  0  # atno 10167 bound_to 10162
  157.5838  131.1072  150.8135 H   0  0  0  0  0  0  0  0  0  0  0  0  # atno 10718 bound_to 10713
  154.2938  135.6248  153.5396 H   0  0  0  0  0  0  0  0  0  0  0  0  # atno 10763 bound_to 10752
  152.9849  135.5662  154.5360 H   0  0  0  0  0  0  0  0  0  0  0  0  # atno 10764 bound_to 10752
  154.4976  135.2870  155.1422 H   0  0  0  0  0  0  0  0  0  0  0  0  # atno 10765 bound_to 10752
  140.1303  134.4714  155.8526 H   0  0  0  0  0  0  0  0  0  0  0  0  # atno 11005 bound_to 11000
  145.7648  140.9921  143.1181 LP  0  0  0  0  0  0  0  0  0  0  0  0  # atno 17320 bound_to 7965
  144.6885  139.9374  143.7474 LP  0  0  0  0  0  0  0  0  0  0  0  0  # atno 17321 bound_to 7965
  140.7754  143.5166  150.9588 LP  0  0  0  0  0  0  0  0  0  0  0  0  # atno 17342 bound_to 10162
  139.8852  143.7021  152.3152 LP  0  0  0  0  0  0  0  0  0  0  0  0  # atno 17343 bound_to 10162
  156.8574  130.5101  149.5306 LP  0  0  0  0  0  0  0  0  0  0  0  0  # atno 17370 bound_to 10713
  156.0886  130.5877  150.9692 LP  0  0  0  0  0  0  0  0  0  0  0  0  # atno 17371 bound_to 10713
  141.2169  133.6793  156.7057 LP  0  0  0  0  0  0  0  0  0  0  0  0  # atno 17394 bound_to 11000
  140.2850  134.8286  157.3967 LP  0  0  0  0  0  0  0  0  0  0  0  0  # atno 17395 bound_to 11000

$$$$
