AV-unprocessed.smi:24|AV-procd|sdf|175|dock6
  -GOLD-   2262015433D 1   1.00000     0.00000
 Structure written by MMmdl.
 61 65  0  0  0  0  0  0  0  0  1 V2000
  145.2309  133.1578  150.9047 C   0  0  0  0  0  0  0  0  0  0  0  0
  145.5556  134.2414  151.7632 O   0  0  0  0  0  0  0  0  0  0  0  0
  146.5580  134.0553  152.6908 C   0  0  0  0  0  0  0  0  0  0  0  0
  146.5243  134.8665  153.8433 C   0  0  0  0  0  0  0  0  0  0  0  0
  147.5099  134.7442  154.8406 C   0  0  0  0  0  0  0  0  0  0  0  0
  148.5550  133.8055  154.6978 C   0  0  0  0  0  0  0  0  0  0  0  0
  149.6335  133.6520  155.7690 C   0  0  2  0  0  0  0  0  0  0  0  0
  149.5962  132.2700  156.4268 C   0  0  0  0  0  0  0  0  0  0  0  0
  149.4016  132.6249  157.8629 C   0  0  0  0  0  0  0  0  0  0  0  0
  149.2754  131.5868  158.9102 C   0  0  0  0  0  0  0  0  0  0  0  0
  150.0333  130.3982  158.8044 C   0  0  0  0  0  0  0  0  0  0  0  0
  149.9191  129.4122  159.8040 C   0  0  0  0  0  0  0  0  0  0  0  0
  149.0549  129.6111  160.8989 C   0  0  0  0  0  0  0  0  0  0  0  0
  148.3002  130.7970  160.9990 C   0  0  0  0  0  0  0  0  0  0  0  0
  148.4058  131.7905  160.0058 C   0  0  0  0  0  0  0  0  0  0  0  0
  149.3520  133.8870  158.0822 N   0  0  0  0  0  0  0  0  0  0  0  0
  149.4933  134.5620  156.9137 N   0  0  0  0  0  0  0  0  0  0  0  0
  149.5843  135.9087  156.8396 C   0  0  0  0  0  0  0  0  0  0  0  0
  149.8373  136.4863  155.7806 O   0  0  0  0  0  0  0  0  0  0  0  0
  149.3724  136.7303  158.1290 C   0  0  0  0  0  0  0  0  0  0  0  0
  150.3879  137.7889  158.3245 N   0  0  0  0  0  0  0  0  0  0  0  0
  151.7280  137.4013  158.5743 C   0  0  0  0  0  0  0  0  0  0  0  0
  152.0517  136.2133  158.6167 O   0  0  0  0  0  0  0  0  0  0  0  0
  152.6717  138.4937  158.7814 C   0  0  0  0  0  0  0  0  0  0  0  0
  153.9652  138.2196  159.0216 F   0  0  0  0  0  0  0  0  0  0  0  0
  152.2672  139.7798  158.7371 C   0  0  0  0  0  0  0  0  0  0  0  0
  150.9544  140.1439  158.4959 N   0  0  0  0  0  0  0  0  0  0  0  0
  150.5163  141.5926  158.4580 C   0  0  2  0  0  0  0  0  0  0  0  0
  151.1556  142.3202  157.2609 C   0  0  0  0  0  0  0  0  0  0  0  0
  151.7400  143.5635  157.9009 C   0  0  0  0  0  0  0  0  0  0  0  0
  152.0638  143.0710  159.3033 C   0  0  0  0  0  0  0  0  0  0  0  0
  150.9458  142.2504  159.6165 O   0  0  0  0  0  0  0  0  0  0  0  0
  149.9794  139.1434  158.2903 C   0  0  0  0  0  0  0  0  0  0  0  0
  148.8014  139.4476  158.0894 O   0  0  0  0  0  0  0  0  0  0  0  0
  148.5899  132.9851  153.5524 C   0  0  0  0  0  0  0  0  0  0  0  0
  147.6035  133.1079  152.5548 C   0  0  0  0  0  0  0  0  0  0  0  0
  144.4282  133.4592  150.2319 H   0  0  0  0  0  0  0  0  0  0  0  0
  144.8802  132.2928  151.4692 H   0  0  0  0  0  0  0  0  0  0  0  0
  146.0841  132.8669  150.2906 H   0  0  0  0  0  0  0  0  0  0  0  0
  145.7333  135.5920  153.9648 H   0  0  0  0  0  0  0  0  0  0  0  0
  147.4578  135.3755  155.7156 H   0  0  0  0  0  0  0  0  0  0  0  0
  150.6145  133.8158  155.3187 H   0  0  0  0  0  0  0  0  0  0  0  0
  148.7706  131.6582  156.0600 H   0  0  0  0  0  0  0  0  0  0  0  0
  150.5299  131.7277  156.2738 H   0  0  0  0  0  0  0  0  0  0  0  0
  150.7018  130.2273  157.9729 H   0  0  0  0  0  0  0  0  0  0  0  0
  150.4962  128.5021  159.7308 H   0  0  0  0  0  0  0  0  0  0  0  0
  148.9703  128.8529  161.6636 H   0  0  0  0  0  0  0  0  0  0  0  0
  147.6388  130.9448  161.8400 H   0  0  0  0  0  0  0  0  0  0  0  0
  147.8170  132.6901  160.1060 H   0  0  0  0  0  0  0  0  0  0  0  0
  148.3747  137.1724  158.1136 H   0  0  0  0  0  0  0  0  0  0  0  0
  149.3467  136.0426  158.9755 H   0  0  0  0  0  0  0  0  0  0  0  0
  153.0149  140.5399  158.9025 H   0  0  0  0  0  0  0  0  0  0  0  0
  149.4250  141.5744  158.4400 H   0  0  0  0  0  0  0  0  0  0  0  0
  151.9483  141.7084  156.8265 H   0  0  0  0  0  0  0  0  0  0  0  0
  150.4137  142.5381  156.4921 H   0  0  0  0  0  0  0  0  0  0  0  0
  152.6117  143.9486  157.3714 H   0  0  0  0  0  0  0  0  0  0  0  0
  150.9880  144.3523  157.9462 H   0  0  0  0  0  0  0  0  0  0  0  0
  152.9791  142.4775  159.3041 H   0  0  0  0  0  0  0  0  0  0  0  0
  152.1789  143.8833  160.0210 H   0  0  0  0  0  0  0  0  0  0  0  0
  149.3787  132.2571  153.4317 H   0  0  0  0  0  0  0  0  0  0  0  0
  147.6717  132.4617  151.6931 H   0  0  0  0  0  0  0  0  0  0  0  0
  1  2  1  0  0  0  0
  1 37  1  0  0  0  0
  1 38  1  0  0  0  0
  1 39  1  0  0  0  0
  2  3  1  0  0  0  0
  3 36  1  0  0  0  0
  3  4  2  0  0  0  0
  4  5  1  0  0  0  0
  4 40  1  0  0  0  0
  5  6  2  0  0  0  0
  5 41  1  0  0  0  0
  6  7  1  0  0  0  0
  6 35  1  0  0  0  0
  7 17  1  0  0  0  0
  7  8  1  0  0  0  0
  7 42  1  0  0  0  0
  8  9  1  0  0  0  0
  8 43  1  0  0  0  0
  8 44  1  0  0  0  0
  9 10  1  0  0  0  0
  9 16  2  0  0  0  0
 10 15  1  0  0  0  0
 10 11  2  0  0  0  0
 11 12  1  0  0  0  0
 11 45  1  0  0  0  0
 12 13  2  0  0  0  0
 12 46  1  0  0  0  0
 13 14  1  0  0  0  0
 13 47  1  0  0  0  0
 14 15  2  0  0  0  0
 14 48  1  0  0  0  0
 15 49  1  0  0  0  0
 16 17  1  0  0  0  0
 17 18  1  0  0  0  0
 18 19  2  0  0  0  0
 18 20  1  0  0  0  0
 20 21  1  0  0  0  0
 20 50  1  0  0  0  0
 20 51  1  0  0  0  0
 21 33  1  0  0  0  0
 21 22  1  0  0  0  0
 22 23  2  0  0  0  0
 22 24  1  0  0  0  0
 24 25  1  0  0  0  0
 24 26  2  0  0  0  0
 26 27  1  0  0  0  0
 26 52  1  0  0  0  0
 27 28  1  0  0  0  0
 27 33  1  0  0  0  0
 28 32  1  0  0  0  0
 28 29  1  0  0  0  0
 28 53  1  0  0  0  0
 29 30  1  0  0  0  0
 29 54  1  0  0  0  0
 29 55  1  0  0  0  0
 30 31  1  0  0  0  0
 30 56  1  0  0  0  0
 30 57  1  0  0  0  0
 31 32  1  0  0  0  0
 31 58  1  0  0  0  0
 31 59  1  0  0  0  0
 33 34  2  0  0  0  0
 35 36  2  0  0  0  0
 35 60  1  0  0  0  0
 36 61  1  0  0  0  0
M  END
> <s_m_source_file>
AV-unprocessed.smi

> <i_m_source_file_index>
24

> <i_lp_mmshare_version>
43012

> <i_f3d_flags>
0

> <s_epik_input>
W0NIM11PYzFbY0hdW2NIXWMoW2NIXVtjSF0xKVtDQEBIXTJbQ0gyXUMoYzNbY0hdW2NIXVtjSF1bY0hdW2NIXTMpPU5OMkMoPU8pW0NIMl1uNGMoPU8pYyhGKVtjSF1uKGM0PU8pW0NAQEhdNVtDSDJdW0NIMl1bQ0gyXU81

> <s_epik_cmdline>
J2VwaWtfcHl0aG9uJywgJy1waCcsICc3LjAnLCAnLXRuJywgJzgnLCAnLW1hJywgJzIwMCcsICctbWV0YWxfYmluZGluZycsICctaW1hZScsICc8aW5maWxlLm1hZT4nLCAnLW9tYWUnLCAnPG91dGZpbGUubWFlPic=

> <r_lp_tautomer_probability>
1

> <r_epik_Ionization_Penalty>
1.46326e-08

> <r_epik_Ionization_Penalty_Charging>
4.53232e-09

> <r_epik_Ionization_Penalty_Neutral>
1.01002e-08

> <r_epik_State_Penalty>
-0

> <r_epik_Charging_Adjusted_Penalty>
4.53232e-09

> <i_epik_Tot_Q>
0

> <i_epik_Tot_abs_Q>
0

> <r_epik_Metal_State_Penalty>
-0

> <b_epik_Metal_Only>
0

> <s_epik_Chemistry_Notes>
This compound has an imine and may undergo hydrolysis. This compound contains an acetal/aminal-like group ( X-CH(R)-Y where X, Y are N, S, or O) that may be acid/base labile, releasing an aldehyde.

> <s_lp_Force_Field>
OPLS_2005

> <r_lp_Energy>
50.6154

> <b_lp_Chiralities_Consistent>
1

> <s_lp_Variant>
AV-unprocessed.smi:24-1

> <Gold.Version>
5.8.1

> <Gold.Id.Protein>
6NUR|6NUR_protein|mol2

> <Gold.PLP.Fitness>
47.9739

> <Gold.PLP.PLP>
-45.8438

> <Gold.PLP.part.hbond>
-3.0000

> <Gold.PLP.part.metal>
0.0000

> <Gold.PLP.part.buried>
-6.7370

> <Gold.PLP.part.nonpolar>
-37.2696

> <Gold.PLP.part.repulsive>
0.1991

> <Gold.PLP.ligand.clash>
0.0000

> <Gold.PLP.ligand.torsion>
1.1880

> <Gold.PLP.Chemscore.Hbond>
1.4800

> <Gold.PLP.Chemscore.CHOScore>
0.0000

> <Gold.PLP.Chemscore.Metal>
0.0000

> <Gold.Chemscore.Hbonds>
donor molecule, donor type, donor heavy atom, donor atom, acceptor molecule, acceptor atom, score
      P1  H  6896  6907       L1    23  0.48
      P1  H  6896  6909       L1    16  1.00

> <Gold.PLP.Chemscore.Internal.Correction>
0.0661

> <Gold.Rescore>
     Score         DG    S(hbond)    S(metal)    S(lipo)     H(rot)  DE(clash)    DE(int)     intcor
     15.65     -17.01       1.29        0.00     104.84       1.98       0.08       1.29       ----

> <Gold.Chemscore.Fitness>
15.6467

> <Gold.Chemscore.DG>
-17.0109

> <Gold.Chemscore.ZeroCoef>
-5.4800

> <Gold.Chemscore.Hbond>
1.2936

> <Gold.Chemscore.Metal>
0.0000

> <Gold.Chemscore.Lipo>
104.8413

> <Gold.Chemscore.Internal_Hbond>
0.0000

> <Gold.Chemscore.DEClash>
0.0786

> <Gold.Chemscore.DEInternal>
1.2855

> <Gold.Chemscore.Rot>
1.9750

> <Gold.Chemscore.Internal.Correction>
   9.000000E+99

> <Gold.Chemscore.Hbonds>
donor molecule, donor type, donor heavy atom, donor atom, acceptor molecule, acceptor atom, score
      P1  H  6896  6907       L1    23  0.48
      P1  H  6896  6909       L1    16  0.33

> <Gold.Chemscore.Hbond.Weighted>
-4.3205

> <Gold.Chemscore.Metal.Weighted>
-0.0000

> <Gold.Chemscore.Lipo.Weighted>
-12.2664

> <Gold.Chemscore.Internal_Hbond.Weighted>
0.0000

> <Gold.Chemscore.DEClash.Weighted>
0.0786

> <Gold.Chemscore.DEInternal.Weighted>
1.2855

> <Gold.Chemscore.Rot.Weighted>
5.0561

> <Gold.Chemscore.Internal.Correction.Weighted>
   9.000000E+99

> <Gold.Protein.RotatedTorsions>
[ 6907 6896 6895 6894 ] final   20.18 input  -60.11 | X-H torsion
[ 7974 7965 7964 7962 ] final  -36.24 input  175.53 | X-H torsion
[ 8008 7997 7996 7995 ] final  157.26 input   59.86 | X-H torsion
[ 10167 10162 10161 10158 ] final -160.40 input  -65.29 | X-H torsion
[ 10718 10713 10712 10709 ] final   66.41 input   66.30 | X-H torsion
[ 10763 10752 10751 10750 ] final  -93.34 input  -60.55 | X-H torsion
[ 11005 11000 10999 10996 ] final   -3.44 input  -57.11 | X-H torsion

> <Gold.Protein.ActiveResidues>
 VAL166  LYS551  ARG553  GLY616  TRP617  ASP618  TYR619  PRO620  LYS621  CYS622 
 ASP623  PHE694  ASN695  SER759  ASP760  ASP761  ALA762  ILE779  LEU786  VAL792 
 PHE793  MET794  SER795  GLU796  ALA797  LYS798  CYS799  TRP800  GLU811  SER814 

> <Gold.Protein.RotatedAtoms>
  151.8924  135.0411  160.0498 H   0  0  0  0  0  0  0  0  0  0  0  0  # atno 6907 bound_to 6896
  152.2425  133.5142  159.5286 H   0  0  0  0  0  0  0  0  0  0  0  0  # atno 6908 bound_to 6896
  150.7058  134.0986  159.4000 H   0  0  0  0  0  0  0  0  0  0  0  0  # atno 6909 bound_to 6896
  146.0678  140.6255  142.8967 H   0  0  0  0  0  0  0  0  0  0  0  0  # atno 7974 bound_to 7965
  156.2374  140.1890  156.7082 H   0  0  0  0  0  0  0  0  0  0  0  0  # atno 8008 bound_to 7997
  154.6132  140.0619  156.9548 H   0  0  0  0  0  0  0  0  0  0  0  0  # atno 8009 bound_to 7997
  155.1982  140.3290  155.4350 H   0  0  0  0  0  0  0  0  0  0  0  0  # atno 8010 bound_to 7997
  139.6542  144.0029  152.2182 H   0  0  0  0  0  0  0  0  0  0  0  0  # atno 10167 bound_to 10162
  157.6167  130.9266  150.0105 H   0  0  0  0  0  0  0  0  0  0  0  0  # atno 10718 bound_to 10713
  154.6949  135.5198  153.8444 H   0  0  0  0  0  0  0  0  0  0  0  0  # atno 10763 bound_to 10752
  153.0660  135.6585  154.0364 H   0  0  0  0  0  0  0  0  0  0  0  0  # atno 10764 bound_to 10752
  154.0232  135.2992  155.3358 H   0  0  0  0  0  0  0  0  0  0  0  0  # atno 10765 bound_to 10752
  140.6694  133.9250  155.8485 H   0  0  0  0  0  0  0  0  0  0  0  0  # atno 11005 bound_to 11000
  144.7213  140.4382  143.7006 LP  0  0  0  0  0  0  0  0  0  0  0  0  # atno 17320 bound_to 7965
  145.6446  139.1555  143.2896 LP  0  0  0  0  0  0  0  0  0  0  0  0  # atno 17321 bound_to 7965
  139.9751  144.6467  150.7953 LP  0  0  0  0  0  0  0  0  0  0  0  0  # atno 17342 bound_to 10162
  140.7551  143.3041  151.3007 LP  0  0  0  0  0  0  0  0  0  0  0  0  # atno 17343 bound_to 10162
  156.1293  130.3644  149.9758 LP  0  0  0  0  0  0  0  0  0  0  0  0  # atno 17370 bound_to 10713
  156.7822  130.9225  151.3646 LP  0  0  0  0  0  0  0  0  0  0  0  0  # atno 17371 bound_to 10713
  141.0404  134.0630  157.3909 LP  0  0  0  0  0  0  0  0  0  0  0  0  # atno 17394 bound_to 11000
  139.8986  135.0155  156.7158 LP  0  0  0  0  0  0  0  0  0  0  0  0  # atno 17395 bound_to 11000

$$$$
