AV-unprocessed.smi:158|AV-procd|sdf|1331|dock8
  -GOLD-   2262019 23D 1   1.00000     0.00000
 Structure written by MMmdl.
 31 33  0  0  0  0  0  0  0  0  1 V2000
  144.0820  141.8960  155.0154 N   0  0  0  0  0  0  0  0  0  0  0  0
  145.2618  142.0001  155.6430 C   0  0  0  0  0  0  0  0  0  0  0  0
  145.2966  142.6053  156.8529 N   0  0  0  0  0  0  0  0  0  0  0  0
  146.4545  142.7273  157.5128 C   0  0  0  0  0  0  0  0  0  0  0  0
  146.3884  143.5123  159.0463 Cl  0  0  0  0  0  0  0  0  0  0  0  0
  147.6602  142.3083  157.1165 N   0  0  0  0  0  0  0  0  0  0  0  0
  147.6333  141.6982  155.8968 C   0  0  0  0  0  0  0  0  0  0  0  0
  146.4726  141.5054  155.0996 C   0  0  0  0  0  0  0  0  0  0  0  0
  146.8078  140.8491  153.9241 N   0  0  0  0  0  0  0  0  0  0  0  0
  148.0968  140.6657  154.0255 C   0  0  0  0  0  0  0  0  0  0  0  0
  148.6778  141.1468  155.1787 N   0  0  0  0  0  0  0  0  0  0  0  0
  150.1288  141.0792  155.5469 C   0  0  2  0  0  0  0  0  0  0  0  0
  150.7974  140.2662  154.6250 O   0  0  0  0  0  0  0  0  0  0  0  0
  151.4931  139.2205  155.3038 C   0  0  2  0  0  0  0  0  0  0  0  0
  151.5997  137.9822  154.3987 C   0  0  0  0  0  0  0  0  0  0  0  0
  152.0384  136.8635  155.1400 O   0  0  0  0  0  0  0  0  0  0  0  0
  150.6795  139.0210  156.5849 C   0  0  1  0  0  0  0  0  0  0  0  0
  151.4016  138.3996  157.6289 O   0  0  0  0  0  0  0  0  0  0  0  0
  150.3011  140.4497  156.9333 C   0  0  1  0  0  0  0  0  0  0  0  0
  151.3087  141.0824  157.5398 F   0  0  0  0  0  0  0  0  0  0  0  0
  150.4722  142.1130  155.4880 H   0  0  0  0  0  0  0  0  0  0  0  0
  152.4881  139.6001  155.5444 H   0  0  0  0  0  0  0  0  0  0  0  0
  149.7804  138.4398  156.3812 H   0  0  0  0  0  0  0  0  0  0  0  0
  149.4096  140.5453  157.5547 H   0  0  0  0  0  0  0  0  0  0  0  0
  144.0316  141.4475  154.1119 H   0  0  0  0  0  0  0  0  0  0  0  0
  143.2464  142.2631  155.4475 H   0  0  0  0  0  0  0  0  0  0  0  0
  148.6660  140.1716  153.2514 H   0  0  0  0  0  0  0  0  0  0  0  0
  150.6465  137.7524  153.9233 H   0  0  0  0  0  0  0  0  0  0  0  0
  152.3209  138.1647  153.6018 H   0  0  0  0  0  0  0  0  0  0  0  0
  151.3234  136.5621  155.6796 H   0  0  0  0  0  0  0  0  0  0  0  0
  151.0894  137.5116  157.7183 H   0  0  0  0  0  0  0  0  0  0  0  0
  1  2  1  0  0  0  0
  1 25  1  0  0  0  0
  1 26  1  0  0  0  0
  2  8  1  0  0  0  0
  2  3  2  0  0  0  0
  3  4  1  0  0  0  0
  4  5  1  0  0  0  0
  4  6  2  0  0  0  0
  6  7  1  0  0  0  0
  7 11  1  0  0  0  0
  7  8  2  0  0  0  0
  8  9  1  0  0  0  0
  9 10  2  0  0  0  0
 10 11  1  0  0  0  0
 10 27  1  0  0  0  0
 11 12  1  0  0  0  0
 12 21  1  0  0  0  0
 12 19  1  0  0  0  0
 12 13  1  0  0  0  0
 13 14  1  0  0  0  0
 14 22  1  0  0  0  0
 14 15  1  0  0  0  0
 14 17  1  0  0  0  0
 15 16  1  0  0  0  0
 15 28  1  0  0  0  0
 15 29  1  0  0  0  0
 16 30  1  0  0  0  0
 17 23  1  0  0  0  0
 17 18  1  0  0  0  0
 17 19  1  0  0  0  0
 18 31  1  0  0  0  0
 19 24  1  0  0  0  0
 19 20  1  0  0  0  0
M  END
> <s_m_source_file>
AV-unprocessed.smi

> <i_m_source_file_index>
158

> <i_lp_mmshare_version>
43012

> <i_f3d_flags>
0

> <s_epik_input>
Q2xjKG4xKW5jKFtOSDJdKWMoYzEyKW5bY0hdbjJbQ0BASF0zT1tDQEhdKFtDSDJdW09IXSlbQ0BASF0oW09IXSlbQ0BASF0zRg==

> <s_epik_cmdline>
J2VwaWtfcHl0aG9uJywgJy1waCcsICc3LjAnLCAnLXRuJywgJzgnLCAnLW1hJywgJzIwMCcsICctbWV0YWxfYmluZGluZycsICctaW1hZScsICc8aW5maWxlLm1hZT4nLCAnLW9tYWUnLCAnPG91dGZpbGUubWFlPic=

> <r_lp_tautomer_probability>
1

> <r_epik_Ionization_Penalty>
6.51543e-05

> <r_epik_Ionization_Penalty_Charging>
0

> <r_epik_Ionization_Penalty_Neutral>
6.51543e-05

> <r_epik_State_Penalty>
-0

> <r_epik_Charging_Adjusted_Penalty>
0

> <i_epik_Tot_Q>
0

> <i_epik_Tot_abs_Q>
0

> <r_epik_Metal_State_Penalty>
-0

> <b_epik_Metal_Only>
0

> <s_epik_Chemistry_Notes>
This compound contains an acetal/aminal-like group ( X-CH(R)-Y where X, Y are N, S, or O) that may be acid/base labile, releasing an aldehyde.

> <s_lp_Force_Field>
OPLS_2005

> <r_lp_Energy>
33.8646

> <b_lp_Chiralities_Consistent>
1

> <s_lp_Variant>
AV-unprocessed.smi:158-9

> <Gold.Version>
5.8.1

> <Gold.Id.Protein>
6NUR|6NUR_protein|mol2

> <Gold.PLP.Fitness>
38.6801

> <Gold.PLP.PLP>
-27.0408

> <Gold.PLP.part.hbond>
-3.1780

> <Gold.PLP.part.metal>
0.0000

> <Gold.PLP.part.buried>
-5.6388

> <Gold.PLP.part.nonpolar>
-20.3376

> <Gold.PLP.part.repulsive>
0.9846

> <Gold.PLP.ligand.clash>
0.0000

> <Gold.PLP.ligand.torsion>
0.1705

> <Gold.PLP.Chemscore.Hbond>
2.9913

> <Gold.PLP.Chemscore.CHOScore>
1.0000

> <Gold.PLP.Chemscore.Metal>
0.0000

> <Gold.Chemscore.Hbonds>
donor molecule, donor type, donor heavy atom, donor atom, acceptor molecule, acceptor atom, score
      L1  H     1    25       P1 10175  1.00
      P1  H  7989  7998       L1    13  0.99
      P1  H 10752 10763       L1    16  1.00
      L1  C    10    27       P1  7957  1.00

> <Gold.PLP.Chemscore.Internal.Correction>
0.0065

> <Gold.Rescore>
     Score         DG    S(hbond)    S(metal)    S(lipo)     H(rot)  DE(clash)    DE(int)     intcor
      9.48      -9.55       2.69        0.00      26.26       3.12       0.00       0.07       ----

> <Gold.Chemscore.Fitness>
9.4760

> <Gold.Chemscore.DG>
-9.5501

> <Gold.Chemscore.ZeroCoef>
-5.4800

> <Gold.Chemscore.Hbond>
2.6926

> <Gold.Chemscore.Metal>
0.0000

> <Gold.Chemscore.Lipo>
26.2559

> <Gold.Chemscore.Internal_Hbond>
0.0000

> <Gold.Chemscore.DEClash>
0.0000

> <Gold.Chemscore.DEInternal>
0.0741

> <Gold.Chemscore.Rot>
3.1230

> <Gold.Chemscore.Internal.Correction>
   9.000000E+99

> <Gold.Chemscore.Hbonds>
donor molecule, donor type, donor heavy atom, donor atom, acceptor molecule, acceptor atom, score
      L1  H     1    25       P1 10175  0.26
      P1  H  7989  7998       L1    13  0.75
      P1  H 10752 10763       L1    16  0.70

> <Gold.Chemscore.Hbond.Weighted>
-8.9932

> <Gold.Chemscore.Metal.Weighted>
-0.0000

> <Gold.Chemscore.Lipo.Weighted>
-3.0719

> <Gold.Chemscore.Internal_Hbond.Weighted>
0.0000

> <Gold.Chemscore.DEClash.Weighted>
0.0000

> <Gold.Chemscore.DEInternal.Weighted>
0.0741

> <Gold.Chemscore.Rot.Weighted>
7.9950

> <Gold.Chemscore.Internal.Correction.Weighted>
   9.000000E+99

> <Gold.Protein.RotatedTorsions>
[ 6907 6896 6895 6894 ] final  168.81 input  -60.11 | X-H torsion
[ 7974 7965 7964 7962 ] final  -37.63 input  175.53 | X-H torsion
[ 8008 7997 7996 7995 ] final  156.33 input   59.86 | X-H torsion
[ 10167 10162 10161 10158 ] final  -56.25 input  -65.29 | X-H torsion
[ 10718 10713 10712 10709 ] final  177.02 input   66.30 | X-H torsion
[ 10763 10752 10751 10750 ] final   66.86 input  -60.55 | X-H torsion
[ 11005 11000 10999 10996 ] final -132.40 input  -57.11 | X-H torsion

> <Gold.Protein.ActiveResidues>
 VAL166  LYS551  ARG553  GLY616  TRP617  ASP618  TYR619  PRO620  LYS621  CYS622 
 ASP623  PHE694  ASN695  SER759  ASP760  ASP761  ALA762  ILE779  LEU786  VAL792 
 PHE793  MET794  SER795  GLU796  ALA797  LYS798  CYS799  TRP800  GLU811  SER814 

> <Gold.Protein.RotatedAtoms>
  151.8417  133.3425  159.3644 H   0  0  0  0  0  0  0  0  0  0  0  0  # atno 6907 bound_to 6896
  150.7233  134.5385  159.5744 H   0  0  0  0  0  0  0  0  0  0  0  0  # atno 6908 bound_to 6896
  152.2860  134.7776  160.0438 H   0  0  0  0  0  0  0  0  0  0  0  0  # atno 6909 bound_to 6896
  146.0558  140.6418  142.9020 H   0  0  0  0  0  0  0  0  0  0  0  0  # atno 7974 bound_to 7965
  156.2428  140.1915  156.6939 H   0  0  0  0  0  0  0  0  0  0  0  0  # atno 8008 bound_to 7997
  154.6231  140.0606  156.9666 H   0  0  0  0  0  0  0  0  0  0  0  0  # atno 8009 bound_to 7997
  155.1830  140.3278  155.4374 H   0  0  0  0  0  0  0  0  0  0  0  0  # atno 8010 bound_to 7997
  140.6328  143.2467  151.5197 H   0  0  0  0  0  0  0  0  0  0  0  0  # atno 10167 bound_to 10162
  156.9115  130.9911  151.3020 H   0  0  0  0  0  0  0  0  0  0  0  0  # atno 10718 bound_to 10713
  153.0159  135.5305  154.6889 H   0  0  0  0  0  0  0  0  0  0  0  0  # atno 10763 bound_to 10752
  154.6029  135.2870  155.0518 H   0  0  0  0  0  0  0  0  0  0  0  0  # atno 10764 bound_to 10752
  154.1568  135.6554  153.5029 H   0  0  0  0  0  0  0  0  0  0  0  0  # atno 10765 bound_to 10752
  140.9173  134.1490  157.4342 H   0  0  0  0  0  0  0  0  0  0  0  0  # atno 11005 bound_to 11000
  144.7147  140.4167  143.7053 LP  0  0  0  0  0  0  0  0  0  0  0  0  # atno 17320 bound_to 7965
  145.6646  139.1588  143.2789 LP  0  0  0  0  0  0  0  0  0  0  0  0  # atno 17321 bound_to 7965
  139.5541  144.2321  152.1581 LP  0  0  0  0  0  0  0  0  0  0  0  0  # atno 17342 bound_to 10162
  140.1570  144.5062  150.6654 LP  0  0  0  0  0  0  0  0  0  0  0  0  # atno 17343 bound_to 10162
  157.5964  130.8481  149.8736 LP  0  0  0  0  0  0  0  0  0  0  0  0  # atno 17370 bound_to 10713
  156.0533  130.3713  150.1149 LP  0  0  0  0  0  0  0  0  0  0  0  0  # atno 17371 bound_to 10713
  139.8768  134.9958  156.5764 LP  0  0  0  0  0  0  0  0  0  0  0  0  # atno 17394 bound_to 11000
  140.8033  133.8488  155.8745 LP  0  0  0  0  0  0  0  0  0  0  0  0  # atno 17395 bound_to 11000

$$$$
