AV-unprocessed.smi:66|AV-procd|sdf|627|dock4
  -GOLD-   2262016523D 1   1.00000     0.00000
 Structure written by MMmdl.
 27 29  0  0  0  0  0  0  0  0  3 V2000
  153.2351  139.2060  154.6610 O   0  0  0  0  0  0  0  0  0  0  0  0
  152.4315  138.5146  155.3242 C   0  0  0  0  0  0  0  0  0  0  0  0
  152.6709  137.3807  155.7965 O   0  5  0  0  0  0  0  0  0  0  0  0
  151.0477  139.1263  155.5881 C   0  0  2  0  0  0  0  0  0  0  0  0
  150.2307  139.2857  154.2975 C   0  0  0  0  0  0  0  0  0  0  0  0
  149.2984  140.4441  154.6390 C   0  0  2  0  0  0  0  0  0  0  0  0
  148.7931  141.0940  153.4913 O   0  0  0  0  0  0  0  0  0  0  0  0
  150.1713  141.3584  155.5015 C   0  0  0  0  0  0  0  0  0  0  0  0
  151.1226  140.4725  156.1625 N   0  0  0  0  0  0  0  0  0  0  0  0
  151.4551  140.6883  157.5189 C   0  0  0  0  0  0  0  0  0  0  0  0
  151.9103  139.6352  158.2454 N   0  0  0  0  0  0  0  0  0  0  0  0
  152.2189  139.8453  159.5295 C   0  0  0  0  0  0  0  0  0  0  0  0
  152.1267  140.9966  160.2015 N   0  0  0  0  0  0  0  0  0  0  0  0
  151.6810  142.0545  159.4936 C   0  0  0  0  0  0  0  0  0  0  0  0
  151.4782  143.3204  159.8221 N   0  5  0  0  0  0  0  0  0  0  0  0
  151.0298  143.9588  158.7111 C   0  0  0  0  0  0  0  0  0  0  0  0
  150.9214  143.1545  157.6343 N   0  0  0  0  0  0  0  0  0  0  0  0
  151.3303  141.9556  158.1473 C   0  0  0  0  0  0  0  0  0  0  0  0
  150.4919  138.4834  156.2723 H   0  0  0  0  0  0  0  0  0  0  0  0
  150.8725  139.5601  153.4576 H   0  0  0  0  0  0  0  0  0  0  0  0
  149.6914  138.3778  154.0264 H   0  0  0  0  0  0  0  0  0  0  0  0
  148.4649  140.0700  155.2354 H   0  0  0  0  0  0  0  0  0  0  0  0
  148.5711  140.4363  152.8505 H   0  0  0  0  0  0  0  0  0  0  0  0
  150.7335  142.0636  154.8880 H   0  0  0  0  0  0  0  0  0  0  0  0
  149.5583  141.9273  156.2017 H   0  0  0  0  0  0  0  0  0  0  0  0
  152.5758  138.9907  160.0850 H   0  0  0  0  0  0  0  0  0  0  0  0
  150.8015  145.0168  158.7539 H   0  0  0  0  0  0  0  0  0  0  0  0
  1  2  2  0  0  0  0
  2  3  1  0  0  0  0
  2  4  1  0  0  0  0
  4  5  1  0  0  0  0
  4 19  1  0  0  0  0
  4  9  1  0  0  0  0
  5  6  1  0  0  0  0
  5 20  1  0  0  0  0
  5 21  1  0  0  0  0
  6  7  1  0  0  0  0
  6  8  1  0  0  0  0
  6 22  1  0  0  0  0
  7 23  1  0  0  0  0
  8 24  1  0  0  0  0
  8 25  1  0  0  0  0
  8  9  1  0  0  0  0
  9 10  1  0  0  0  0
 10 11  1  0  0  0  0
 10 18  2  0  0  0  0
 11 12  2  0  0  0  0
 12 26  1  0  0  0  0
 12 13  1  0  0  0  0
 13 14  2  0  0  0  0
 14 15  1  0  0  0  0
 14 18  1  0  0  0  0
 15 16  1  0  0  0  0
 16 17  2  0  0  0  0
 16 27  1  0  0  0  0
 17 18  1  0  0  0  0
M  CHG  1   3  -1
M  CHG  1  15  -1
M  END
> <s_m_source_file>
AV-unprocessed.smi

> <i_m_source_file_index>
66

> <i_lp_mmshare_version>
43012

> <i_f3d_flags>
0

> <s_epik_input>
Tz1DKFtPSF0pW0NAQEhdMVtDSDJdW0NAQEhdKFtPSF0pW0NIMl1OMWMobltjSF1uMiljKGMyMylbbkhdW2NIXW4z

> <s_epik_cmdline>
J2VwaWtfcHl0aG9uJywgJy1waCcsICc3LjAnLCAnLXRuJywgJzgnLCAnLW1hJywgJzIwMCcsICctbWV0YWxfYmluZGluZycsICctaW1hZScsICc8aW5maWxlLm1hZT4nLCAnLW9tYWUnLCAnPG91dGZpbGUubWFlPic=

> <r_lp_tautomer_probability>
0.955585

> <r_epik_Ionization_Penalty>
7.65809

> <r_epik_Ionization_Penalty_Charging>
3.4974

> <r_epik_Ionization_Penalty_Neutral>
4.16069

> <r_epik_State_Penalty>
3.51624

> <r_epik_Charging_Adjusted_Penalty>
7.01364

> <i_epik_Tot_Q>
-2

> <i_epik_Tot_abs_Q>
2

> <r_epik_Metal_State_Penalty>
0.522662

> <b_epik_Metal_Only>
1

> <s_lp_Force_Field>
OPLS_2005

> <r_lp_Energy>
45.1142

> <b_lp_Chiralities_Consistent>
1

> <s_lp_Variant>
AV-unprocessed.smi:66-11

> <Gold.Version>
5.8.1

> <Gold.Id.Protein>
6NUR|6NUR_protein|mol2

> <Gold.PLP.Fitness>
48.4943

> <Gold.PLP.PLP>
-35.0083

> <Gold.PLP.part.hbond>
-5.0000

> <Gold.PLP.part.metal>
0.0000

> <Gold.PLP.part.buried>
-4.4142

> <Gold.PLP.part.nonpolar>
-25.1264

> <Gold.PLP.part.repulsive>
0.1131

> <Gold.PLP.ligand.clash>
0.0000

> <Gold.PLP.ligand.torsion>
0.2433

> <Gold.PLP.Chemscore.Hbond>
4.5694

> <Gold.PLP.Chemscore.CHOScore>
0.0000

> <Gold.PLP.Chemscore.Metal>
0.0000

> <Gold.Chemscore.Hbonds>
donor molecule, donor type, donor heavy atom, donor atom, acceptor molecule, acceptor atom, score
      L1  H     7    23       P1  7957  0.51
      P1  H  7997  8010       L1     1  2.00
      P1  H  8011  8017       L1     7  0.99
      P1  H 10752 10763       L1     3  0.98

> <Gold.PLP.Chemscore.Internal.Correction>
0.2642

> <Gold.Rescore>
     Score         DG    S(hbond)    S(metal)    S(lipo)     H(rot)  DE(clash)    DE(int)     intcor
     10.62     -12.48       2.13        0.00      37.80       1.78       0.30       1.56       ----

> <Gold.Chemscore.Fitness>
10.6210

> <Gold.Chemscore.DG>
-12.4836

> <Gold.Chemscore.ZeroCoef>
-5.4800

> <Gold.Chemscore.Hbond>
2.1335

> <Gold.Chemscore.Metal>
0.0000

> <Gold.Chemscore.Lipo>
37.8017

> <Gold.Chemscore.Internal_Hbond>
0.0000

> <Gold.Chemscore.DEClash>
0.2994

> <Gold.Chemscore.DEInternal>
1.5633

> <Gold.Chemscore.Rot>
1.7754

> <Gold.Chemscore.Internal.Correction>
   9.000000E+99

> <Gold.Chemscore.Hbonds>
donor molecule, donor type, donor heavy atom, donor atom, acceptor molecule, acceptor atom, score
      L1  H     7    23       P1  7957  0.49
      P1  H  7997  8010       L1     1  0.92
      P1  H  8011  8017       L1     7  0.23
      P1  H 10752 10763       L1     3  0.47

> <Gold.Chemscore.Hbond.Weighted>
-7.1259

> <Gold.Chemscore.Metal.Weighted>
-0.0000

> <Gold.Chemscore.Lipo.Weighted>
-4.4228

> <Gold.Chemscore.Internal_Hbond.Weighted>
0.0000

> <Gold.Chemscore.DEClash.Weighted>
0.2994

> <Gold.Chemscore.DEInternal.Weighted>
1.5633

> <Gold.Chemscore.Rot.Weighted>
4.5451

> <Gold.Chemscore.Internal.Correction.Weighted>
   9.000000E+99

> <Gold.Protein.RotatedTorsions>
[ 6907 6896 6895 6894 ] final -140.38 input  -60.11 | X-H torsion
[ 7974 7965 7964 7962 ] final -148.78 input  175.53 | X-H torsion
[ 8008 7997 7996 7995 ] final  124.76 input   59.86 | X-H torsion
[ 10167 10162 10161 10158 ] final -146.90 input  -65.29 | X-H torsion
[ 10718 10713 10712 10709 ] final  -48.00 input   66.30 | X-H torsion
[ 10763 10752 10751 10750 ] final   98.76 input  -60.55 | X-H torsion
[ 11005 11000 10999 10996 ] final -113.01 input  -57.11 | X-H torsion

> <Gold.Protein.ActiveResidues>
 VAL166  LYS551  ARG553  GLY616  TRP617  ASP618  TYR619  PRO620  LYS621  CYS622 
 ASP623  PHE694  ASN695  SER759  ASP760  ASP761  ALA762  ILE779  LEU786  VAL792 
 PHE793  MET794  SER795  GLU796  ALA797  LYS798  CYS799  TRP800  GLU811  SER814 

> <Gold.Protein.RotatedAtoms>
  151.0600  133.5552  159.2634 H   0  0  0  0  0  0  0  0  0  0  0  0  # atno 6907 bound_to 6896
  151.2531  135.0628  159.9079 H   0  0  0  0  0  0  0  0  0  0  0  0  # atno 6908 bound_to 6896
  152.5396  134.0357  159.8098 H   0  0  0  0  0  0  0  0  0  0  0  0  # atno 6909 bound_to 6896
  144.8008  140.5151  143.5709 H   0  0  0  0  0  0  0  0  0  0  0  0  # atno 7974 bound_to 7965
  156.2812  140.2732  156.1840 H   0  0  0  0  0  0  0  0  0  0  0  0  # atno 8008 bound_to 7997
  155.0526  140.0386  157.2567 H   0  0  0  0  0  0  0  0  0  0  0  0  # atno 8009 bound_to 7997
  154.7182  140.2682  155.6571 H   0  0  0  0  0  0  0  0  0  0  0  0  # atno 8010 bound_to 7997
  139.7671  143.8292  152.2618 H   0  0  0  0  0  0  0  0  0  0  0  0  # atno 10167 bound_to 10162
  156.2029  130.4157  149.9216 H   0  0  0  0  0  0  0  0  0  0  0  0  # atno 10718 bound_to 10713
  153.2930  135.4137  155.1184 H   0  0  0  0  0  0  0  0  0  0  0  0  # atno 10763 bound_to 10752
  154.8526  135.3523  154.5955 H   0  0  0  0  0  0  0  0  0  0  0  0  # atno 10764 bound_to 10752
  153.6378  135.7058  153.5310 H   0  0  0  0  0  0  0  0  0  0  0  0  # atno 10765 bound_to 10752
  141.0641  133.9488  157.2612 H   0  0  0  0  0  0  0  0  0  0  0  0  # atno 11005 bound_to 11000
  145.5559  139.1478  143.3368 LP  0  0  0  0  0  0  0  0  0  0  0  0  # atno 17320 bound_to 7965
  146.2288  140.5696  142.8984 LP  0  0  0  0  0  0  0  0  0  0  0  0  # atno 17321 bound_to 7965
  139.8315  144.7251  150.9444 LP  0  0  0  0  0  0  0  0  0  0  0  0  # atno 17342 bound_to 10162
  140.7811  143.4065  151.1062 LP  0  0  0  0  0  0  0  0  0  0  0  0  # atno 17343 bound_to 10162
  156.6920  130.8899  151.3589 LP  0  0  0  0  0  0  0  0  0  0  0  0  # atno 17370 bound_to 10713
  157.6996  130.9319  150.0746 LP  0  0  0  0  0  0  0  0  0  0  0  0  # atno 17371 bound_to 10713
  139.9459  135.0184  156.8851 LP  0  0  0  0  0  0  0  0  0  0  0  0  # atno 17394 bound_to 11000
  140.5810  134.0352  155.7464 LP  0  0  0  0  0  0  0  0  0  0  0  0  # atno 17395 bound_to 11000

$$$$
