AV-unprocessed.smi:1982|AV-procd|sdf|8027|dock3
  -GOLD-   2272010223D 1   1.00000     0.00000
 Structure written by MMmdl.
 36 37  0  0  0  0  0  0  0  0  1 V2000
  153.3973  142.7815  162.9254 C   0  0  0  0  0  0  0  0  0  0  0  0
  152.6443  142.7160  161.5845 C   0  0  1  0  0  0  0  0  0  0  0  0
  151.9683  144.0733  161.2995 C   0  0  0  0  0  0  0  0  0  0  0  0
  151.1865  144.0652  159.9792 C   0  0  0  0  0  0  0  0  0  0  0  0
  152.0944  143.6678  158.8068 C   0  0  0  0  0  0  0  0  0  0  0  0
  152.7846  142.3124  159.0519 C   0  0  2  0  0  0  0  0  0  0  0  0
  151.8140  141.2203  158.9967 N   0  0  0  0  0  0  0  0  0  0  0  0
  151.7688  140.2486  158.0723 C   0  0  0  0  0  0  0  0  0  0  0  0
  152.5231  140.1956  157.1016 O   0  0  0  0  0  0  0  0  0  0  0  0
  150.7100  139.1647  158.2804 C   0  0  0  0  0  0  0  0  0  0  0  0
  151.1499  137.8944  157.7320 N   0  0  0  0  0  0  0  0  0  0  0  0
  151.5869  137.5695  156.5136 C   0  0  0  0  0  0  0  0  0  0  0  0
  151.9156  136.2890  156.4376 N   0  0  0  0  0  0  0  0  0  0  0  0
  151.6511  135.8198  157.7136 N   0  0  0  0  0  0  0  0  0  0  0  0
  151.1962  136.7676  158.4862 N   0  0  0  0  0  0  0  0  0  0  0  0
  153.5560  142.2952  160.3975 C   0  0  2  0  0  0  0  0  0  0  0  0
  154.2507  140.9359  160.6235 C   0  0  0  0  0  0  0  0  0  0  0  0
  154.2489  143.4600  162.8697 H   0  0  0  0  0  0  0  0  0  0  0  0
  153.7660  141.8027  163.2307 H   0  0  0  0  0  0  0  0  0  0  0  0
  152.7443  143.1352  163.7236 H   0  0  0  0  0  0  0  0  0  0  0  0
  151.8560  141.9695  161.6927 H   0  0  0  0  0  0  0  0  0  0  0  0
  151.2923  144.3318  162.1152 H   0  0  0  0  0  0  0  0  0  0  0  0
  152.7233  144.8602  161.2665 H   0  0  0  0  0  0  0  0  0  0  0  0
  150.3468  143.3730  160.0522 H   0  0  0  0  0  0  0  0  0  0  0  0
  150.7570  145.0506  159.7968 H   0  0  0  0  0  0  0  0  0  0  0  0
  151.5195  143.6408  157.8802 H   0  0  0  0  0  0  0  0  0  0  0  0
  152.8554  144.4366  158.6680 H   0  0  0  0  0  0  0  0  0  0  0  0
  153.5148  142.1621  158.2544 H   0  0  0  0  0  0  0  0  0  0  0  0
  151.1453  141.1780  159.7524 H   0  0  0  0  0  0  0  0  0  0  0  0
  150.5005  139.0510  159.3450 H   0  0  0  0  0  0  0  0  0  0  0  0
  149.7767  139.4511  157.7940 H   0  0  0  0  0  0  0  0  0  0  0  0
  151.6696  138.2669  155.6929 H   0  0  0  0  0  0  0  0  0  0  0  0
  154.3473  143.0420  160.3152 H   0  0  0  0  0  0  0  0  0  0  0  0
  153.5324  140.1468  160.8497 H   0  0  0  0  0  0  0  0  0  0  0  0
  154.9640  140.9811  161.4459 H   0  0  0  0  0  0  0  0  0  0  0  0
  154.8088  140.6308  159.7379 H   0  0  0  0  0  0  0  0  0  0  0  0
  1  2  1  0  0  0  0
  1 18  1  0  0  0  0
  1 19  1  0  0  0  0
  1 20  1  0  0  0  0
  2 16  1  0  0  0  0
  2  3  1  0  0  0  0
  2 21  1  0  0  0  0
  3  4  1  0  0  0  0
  3 22  1  0  0  0  0
  3 23  1  0  0  0  0
  4  5  1  0  0  0  0
  4 24  1  0  0  0  0
  4 25  1  0  0  0  0
  5  6  1  0  0  0  0
  5 26  1  0  0  0  0
  5 27  1  0  0  0  0
  6  7  1  0  0  0  0
  6 16  1  0  0  0  0
  6 28  1  0  0  0  0
  7  8  1  0  0  0  0
  7 29  1  0  0  0  0
  8  9  2  0  0  0  0
  8 10  1  0  0  0  0
 10 11  1  0  0  0  0
 10 30  1  0  0  0  0
 10 31  1  0  0  0  0
 11 15  1  0  0  0  0
 11 12  1  0  0  0  0
 12 13  2  0  0  0  0
 12 32  1  0  0  0  0
 13 14  1  0  0  0  0
 14 15  2  0  0  0  0
 16 17  1  0  0  0  0
 16 33  1  0  0  0  0
 17 34  1  0  0  0  0
 17 35  1  0  0  0  0
 17 36  1  0  0  0  0
M  END
> <s_m_source_file>
AV-unprocessed.smi

> <i_m_source_file_index>
1982

> <i_lp_mmshare_version>
43012

> <i_f3d_flags>
0

> <s_epik_input>
W0NIM11bQ0BASF0xW0NIMl1bQ0gyXVtDSDJdW0NASF0oW0NASF0xW0NIM10pW05IXUMoPU8pW0NIMl1uMltjSF1ubm4y

> <s_epik_cmdline>
J2VwaWtfcHl0aG9uJywgJy1waCcsICc3LjAnLCAnLXRuJywgJzgnLCAnLW1hJywgJzIwMCcsICctbWV0YWxfYmluZGluZycsICctaW1hZScsICc8aW5maWxlLm1hZT4nLCAnLW9tYWUnLCAnPG91dGZpbGUubWFlPic=

> <r_lp_tautomer_probability>
1

> <r_epik_Ionization_Penalty>
5.03816e-07

> <r_epik_Ionization_Penalty_Charging>
0

> <r_epik_Ionization_Penalty_Neutral>
5.03816e-07

> <r_epik_State_Penalty>
-0

> <r_epik_Charging_Adjusted_Penalty>
0

> <i_epik_Tot_Q>
0

> <i_epik_Tot_abs_Q>
0

> <r_epik_Metal_State_Penalty>
-0

> <b_epik_Metal_Only>
0

> <s_lp_Force_Field>
OPLS_2005

> <r_lp_Energy>
12.4214

> <b_lp_Chiralities_Consistent>
1

> <s_lp_Variant>
AV-unprocessed.smi:1982-8

> <Gold.Version>
5.8.1

> <Gold.Id.Protein>
6NUR|6NUR_protein|mol2

> <Gold.PLP.Fitness>
43.1398

> <Gold.PLP.PLP>
-38.0020

> <Gold.PLP.part.hbond>
-4.0000

> <Gold.PLP.part.metal>
0.0000

> <Gold.PLP.part.buried>
-3.9902

> <Gold.PLP.part.nonpolar>
-29.0492

> <Gold.PLP.part.repulsive>
0.1350

> <Gold.PLP.ligand.clash>
0.0000

> <Gold.PLP.ligand.torsion>
0.4247

> <Gold.PLP.Chemscore.Hbond>
1.9913

> <Gold.PLP.Chemscore.CHOScore>
0.0000

> <Gold.PLP.Chemscore.Metal>
0.0000

> <Gold.Chemscore.Hbonds>
donor molecule, donor type, donor heavy atom, donor atom, acceptor molecule, acceptor atom, score
      P1  H  7997  8010       L1     9  1.00
      P1  H 10752 10763       L1    13  0.99

> <Gold.PLP.Chemscore.Internal.Correction>
0.0135

> <Gold.Rescore>
     Score         DG    S(hbond)    S(metal)    S(lipo)     H(rot)  DE(clash)    DE(int)     intcor
     16.32     -18.10       1.99        0.00      92.82       1.91       0.00       1.78       ----

> <Gold.Chemscore.Fitness>
16.3201

> <Gold.Chemscore.DG>
-18.1009

> <Gold.Chemscore.ZeroCoef>
-5.4800

> <Gold.Chemscore.Hbond>
1.9879

> <Gold.Chemscore.Metal>
0.0000

> <Gold.Chemscore.Lipo>
92.8216

> <Gold.Chemscore.Internal_Hbond>
0.0000

> <Gold.Chemscore.DEClash>
0.0048

> <Gold.Chemscore.DEInternal>
1.7760

> <Gold.Chemscore.Rot>
1.9058

> <Gold.Chemscore.Internal.Correction>
   9.000000E+99

> <Gold.Chemscore.Hbonds>
donor molecule, donor type, donor heavy atom, donor atom, acceptor molecule, acceptor atom, score
      P1  H  7997  8010       L1     9  0.96
      P1  H 10752 10763       L1    13  0.92

> <Gold.Chemscore.Hbond.Weighted>
-6.6396

> <Gold.Chemscore.Metal.Weighted>
-0.0000

> <Gold.Chemscore.Lipo.Weighted>
-10.8601

> <Gold.Chemscore.Internal_Hbond.Weighted>
0.0000

> <Gold.Chemscore.DEClash.Weighted>
0.0048

> <Gold.Chemscore.DEInternal.Weighted>
1.7760

> <Gold.Chemscore.Rot.Weighted>
4.8788

> <Gold.Chemscore.Internal.Correction.Weighted>
   9.000000E+99

> <Gold.Protein.RotatedTorsions>
[ 6907 6896 6895 6894 ] final   37.84 input  -60.11 | X-H torsion
[ 7974 7965 7964 7962 ] final  129.69 input  175.53 | X-H torsion
[ 8008 7997 7996 7995 ] final   57.29 input   59.86 | X-H torsion
[ 10167 10162 10161 10158 ] final   62.64 input  -65.29 | X-H torsion
[ 10718 10713 10712 10709 ] final  179.68 input   66.30 | X-H torsion
[ 10763 10752 10751 10750 ] final   99.83 input  -60.55 | X-H torsion
[ 11005 11000 10999 10996 ] final -103.19 input  -57.11 | X-H torsion

> <Gold.Protein.ActiveResidues>
 VAL166  LYS551  ARG553  GLY616  TRP617  ASP618  TYR619  PRO620  LYS621  CYS622 
 ASP623  PHE694  ASN695  SER759  ASP760  ASP761  ALA762  ILE779  LEU786  VAL792 
 PHE793  MET794  SER795  GLU796  ALA797  LYS798  CYS799  TRP800  GLU811  SER814 

> <Gold.Protein.RotatedAtoms>
  152.1485  134.9007  160.0549 H   0  0  0  0  0  0  0  0  0  0  0  0  # atno 6907 bound_to 6896
  152.0047  133.3834  159.4204 H   0  0  0  0  0  0  0  0  0  0  0  0  # atno 6908 bound_to 6896
  150.6873  134.3717  159.5039 H   0  0  0  0  0  0  0  0  0  0  0  0  # atno 6909 bound_to 6896
  145.0260  139.4089  143.5174 H   0  0  0  0  0  0  0  0  0  0  0  0  # atno 7974 bound_to 7965
  155.5313  140.3482  155.4427 H   0  0  0  0  0  0  0  0  0  0  0  0  # atno 8008 bound_to 7997
  156.0716  140.1364  156.9848 H   0  0  0  0  0  0  0  0  0  0  0  0  # atno 8009 bound_to 7997
  154.4531  140.0964  156.6653 H   0  0  0  0  0  0  0  0  0  0  0  0  # atno 8010 bound_to 7997
  140.1417  144.4547  150.6807 H   0  0  0  0  0  0  0  0  0  0  0  0  # atno 10167 bound_to 10162
  156.8721  130.9787  151.3072 H   0  0  0  0  0  0  0  0  0  0  0  0  # atno 10718 bound_to 10713
  153.3063  135.4100  155.1296 H   0  0  0  0  0  0  0  0  0  0  0  0  # atno 10763 bound_to 10752
  154.8563  135.3553  154.5784 H   0  0  0  0  0  0  0  0  0  0  0  0  # atno 10764 bound_to 10752
  153.6211  135.7064  153.5368 H   0  0  0  0  0  0  0  0  0  0  0  0  # atno 10765 bound_to 10752
  141.1156  133.8620  157.1455 H   0  0  0  0  0  0  0  0  0  0  0  0  # atno 11005 bound_to 11000
  146.3492  139.9783  142.8698 LP  0  0  0  0  0  0  0  0  0  0  0  0  # atno 17320 bound_to 7965
  145.1833  140.9777  143.4253 LP  0  0  0  0  0  0  0  0  0  0  0  0  # atno 17321 bound_to 7965
  140.6757  143.2304  151.5514 LP  0  0  0  0  0  0  0  0  0  0  0  0  # atno 17342 bound_to 10162
  139.5469  144.2498  152.1459 LP  0  0  0  0  0  0  0  0  0  0  0  0  # atno 17343 bound_to 10162
  157.6189  130.8640  149.9076 LP  0  0  0  0  0  0  0  0  0  0  0  0  # atno 17370 bound_to 10713
  156.0721  130.3684  150.0754 LP  0  0  0  0  0  0  0  0  0  0  0  0  # atno 17371 bound_to 10713
  140.0077  135.0001  157.0328 LP  0  0  0  0  0  0  0  0  0  0  0  0  # atno 17394 bound_to 11000
  140.4653  134.1442  155.7196 LP  0  0  0  0  0  0  0  0  0  0  0  0  # atno 17395 bound_to 11000

$$$$
