AV-unprocessed.smi:1216|AV-procd|sdf|5099|dock6
  -GOLD-   22720 4153D 1   1.00000     0.00000
 Structure written by MMmdl.
 43 44  0  0  0  0  0  0  0  0  2 V2000
  151.1056  141.4142  156.8140 C   0  0  0  0  0  0  0  0  0  0  0  0
  150.1128  140.6688  155.9116 C   0  0  1  0  0  0  0  0  0  0  0  0
  149.7083  141.5317  154.6964 C   0  0  0  0  0  0  0  0  0  0  0  0
  148.2703  141.4878  154.4107 N   0  0  0  0  0  0  0  0  0  0  0  0
  147.2656  142.1284  155.0898 C   0  0  0  0  0  0  0  0  0  0  0  0
  146.0945  141.7967  154.4586 C   0  0  0  0  0  0  0  0  0  0  0  0
  146.4328  140.9633  153.4264 N   0  3  0  0  0  0  0  0  0  0  0  0
  147.7558  140.7732  153.4014 C   0  0  0  0  0  0  0  0  0  0  0  0
  150.7193  139.4083  155.4859 N   0  0  0  0  0  0  0  0  0  0  0  0
  150.1332  138.2012  155.5205 C   0  0  0  0  0  0  0  0  0  0  0  0
  148.9710  138.0244  155.8890 O   0  0  0  0  0  0  0  0  0  0  0  0
  150.9932  137.0262  155.0361 C   0  0  0  0  0  0  0  0  0  0  0  0
  150.5378  135.7230  155.5436 N   0  0  0  0  0  0  0  0  0  0  0  0
  149.2456  135.2312  155.0396 C   0  0  0  0  0  0  0  0  0  0  0  0
  149.3685  134.0141  154.0938 C   0  0  0  0  0  0  0  0  0  0  0  0
  150.5562  133.0667  154.3548 C   0  0  0  0  0  0  0  0  0  0  0  0
  150.6867  132.5687  155.8096 C   0  0  0  0  0  0  0  0  0  0  0  0
  150.7379  133.6551  156.9105 C   0  0  0  0  0  0  0  0  0  0  0  0
  151.2748  135.0160  156.4373 C   0  0  0  0  0  0  0  0  0  0  0  0
  152.3503  135.4163  156.8840 O   0  0  0  0  0  0  0  0  0  0  0  0
  150.6776  142.3471  157.1821 H   0  0  0  0  0  0  0  0  0  0  0  0
  152.0242  141.6584  156.2794 H   0  0  0  0  0  0  0  0  0  0  0  0
  151.3752  140.8131  157.6833 H   0  0  0  0  0  0  0  0  0  0  0  0
  149.2264  140.4631  156.5145 H   0  0  0  0  0  0  0  0  0  0  0  0
  149.9701  142.5766  154.8685 H   0  0  0  0  0  0  0  0  0  0  0  0
  150.2449  141.2167  153.8001 H   0  0  0  0  0  0  0  0  0  0  0  0
  147.4546  142.7610  155.9449 H   0  0  0  0  0  0  0  0  0  0  0  0
  145.0727  142.0832  154.6614 H   0  0  0  0  0  0  0  0  0  0  0  0
  148.3016  140.1690  152.6987 H   0  0  0  0  0  0  0  0  0  0  0  0
  151.6748  139.4546  155.1618 H   0  0  0  0  0  0  0  0  0  0  0  0
  150.9934  137.0281  153.9456 H   0  0  0  0  0  0  0  0  0  0  0  0
  152.0329  137.1942  155.3237 H   0  0  0  0  0  0  0  0  0  0  0  0
  148.6031  134.9799  155.8837 H   0  0  0  0  0  0  0  0  0  0  0  0
  148.7037  136.0273  154.5273 H   0  0  0  0  0  0  0  0  0  0  0  0
  148.4367  133.4488  154.1256 H   0  0  0  0  0  0  0  0  0  0  0  0
  149.4552  134.3784  153.0697 H   0  0  0  0  0  0  0  0  0  0  0  0
  150.4689  132.2039  153.6938 H   0  0  0  0  0  0  0  0  0  0  0  0
  151.4829  133.5576  154.0542 H   0  0  0  0  0  0  0  0  0  0  0  0
  149.8580  131.8941  156.0278 H   0  0  0  0  0  0  0  0  0  0  0  0
  151.5865  131.9564  155.8806 H   0  0  0  0  0  0  0  0  0  0  0  0
  149.7478  133.7975  157.3429 H   0  0  0  0  0  0  0  0  0  0  0  0
  151.3520  133.2967  157.7377 H   0  0  0  0  0  0  0  0  0  0  0  0
  145.7787  140.5507  152.7732 H   0  0  0  0  0  0  0  0  0  0  0  0
  1  2  1  0  0  0  0
  1 21  1  0  0  0  0
  1 22  1  0  0  0  0
  1 23  1  0  0  0  0
  2  3  1  0  0  0  0
  2  9  1  0  0  0  0
  2 24  1  0  0  0  0
  3  4  1  0  0  0  0
  3 25  1  0  0  0  0
  3 26  1  0  0  0  0
  4  8  1  0  0  0  0
  4  5  1  0  0  0  0
  5  6  2  0  0  0  0
  5 27  1  0  0  0  0
  6  7  1  0  0  0  0
  6 28  1  0  0  0  0
  7  8  2  0  0  0  0
  7 43  1  0  0  0  0
  8 29  1  0  0  0  0
  9 10  1  0  0  0  0
  9 30  1  0  0  0  0
 10 11  2  0  0  0  0
 10 12  1  0  0  0  0
 12 13  1  0  0  0  0
 12 31  1  0  0  0  0
 12 32  1  0  0  0  0
 13 19  1  0  0  0  0
 13 14  1  0  0  0  0
 14 15  1  0  0  0  0
 14 33  1  0  0  0  0
 14 34  1  0  0  0  0
 15 16  1  0  0  0  0
 15 35  1  0  0  0  0
 15 36  1  0  0  0  0
 16 17  1  0  0  0  0
 16 37  1  0  0  0  0
 16 38  1  0  0  0  0
 17 18  1  0  0  0  0
 17 39  1  0  0  0  0
 17 40  1  0  0  0  0
 18 19  1  0  0  0  0
 18 41  1  0  0  0  0
 18 42  1  0  0  0  0
 19 20  2  0  0  0  0
M  CHG  1   7   1
M  END
> <s_m_source_file>
AV-unprocessed.smi

> <i_m_source_file_index>
1216

> <i_lp_mmshare_version>
43012

> <i_f3d_flags>
0

> <s_epik_input>
W2NIXTFuW2NIXVtjSF1uMVtDSDJdW0NAQEhdKFtDSDNdKVtOSF1DKD1PKVtDSDJdTjJbQ0gyXVtDSDJdW0NIMl1bQ0gyXVtDSDJdQzI9Tw==

> <s_epik_cmdline>
J2VwaWtfcHl0aG9uJywgJy1waCcsICc3LjAnLCAnLXRuJywgJzgnLCAnLW1hJywgJzIwMCcsICctbWV0YWxfYmluZGluZycsICctaW1hZScsICc8aW5maWxlLm1hZT4nLCAnLW9tYWUnLCAnPG91dGZpbGUubWFlPic=

> <r_lp_tautomer_probability>
1

> <r_epik_Ionization_Penalty>
0.254232

> <r_epik_Ionization_Penalty_Charging>
0

> <r_epik_Ionization_Penalty_Neutral>
0.254232

> <r_epik_State_Penalty>
0.245698

> <r_epik_Charging_Adjusted_Penalty>
0.245698

> <i_epik_Tot_Q>
1

> <i_epik_Tot_abs_Q>
1

> <r_epik_Metal_State_Penalty>
0.535799

> <b_epik_Metal_Only>
0

> <s_lp_Force_Field>
OPLS_2005

> <r_lp_Energy>
21.2202

> <b_lp_Chiralities_Consistent>
1

> <s_lp_Variant>
AV-unprocessed.smi:1216-2

> <Gold.Version>
5.8.1

> <Gold.Id.Protein>
6NUR|6NUR_protein|mol2

> <Gold.PLP.Fitness>
43.5243

> <Gold.PLP.PLP>
-31.9351

> <Gold.PLP.part.hbond>
-2.0000

> <Gold.PLP.part.metal>
0.0000

> <Gold.PLP.part.buried>
-1.5892

> <Gold.PLP.part.nonpolar>
-28.2377

> <Gold.PLP.part.repulsive>
0.1041

> <Gold.PLP.ligand.clash>
0.0000

> <Gold.PLP.ligand.torsion>
1.3578

> <Gold.PLP.Chemscore.Hbond>
3.0000

> <Gold.PLP.Chemscore.CHOScore>
1.7602

> <Gold.PLP.Chemscore.Metal>
0.0000

> <Gold.Chemscore.Hbonds>
donor molecule, donor type, donor heavy atom, donor atom, acceptor molecule, acceptor atom, score
      L1  H     7    43       P1 10175  1.22
      P1  H 10752 10765       L1    20  0.65
      L1  C     5    27       P1  8028  0.76
      L1  C     8    29       P1  7957  0.96

> <Gold.PLP.Chemscore.Internal.Correction>
0.0243

> <Gold.Rescore>
     Score         DG    S(hbond)    S(metal)    S(lipo)     H(rot)  DE(clash)    DE(int)     intcor
      9.69     -12.43       1.81        0.00      56.17       2.22       0.01       2.73       ----

> <Gold.Chemscore.Fitness>
9.6934

> <Gold.Chemscore.DG>
-12.4255

> <Gold.Chemscore.ZeroCoef>
-5.4800

> <Gold.Chemscore.Hbond>
1.8104

> <Gold.Chemscore.Metal>
0.0000

> <Gold.Chemscore.Lipo>
56.1716

> <Gold.Chemscore.Internal_Hbond>
0.0000

> <Gold.Chemscore.DEClash>
0.0060

> <Gold.Chemscore.DEInternal>
2.7261

> <Gold.Chemscore.Rot>
2.2161

> <Gold.Chemscore.Internal.Correction>
   9.000000E+99

> <Gold.Chemscore.Hbonds>
donor molecule, donor type, donor heavy atom, donor atom, acceptor molecule, acceptor atom, score
      L1  H     7    43       P1 10175  0.39
      P1  H 10752 10765       L1    20  0.05

> <Gold.Chemscore.Hbond.Weighted>
-6.0467

> <Gold.Chemscore.Metal.Weighted>
-0.0000

> <Gold.Chemscore.Lipo.Weighted>
-6.5721

> <Gold.Chemscore.Internal_Hbond.Weighted>
0.0000

> <Gold.Chemscore.DEClash.Weighted>
0.0060

> <Gold.Chemscore.DEInternal.Weighted>
2.7261

> <Gold.Chemscore.Rot.Weighted>
5.6733

> <Gold.Chemscore.Internal.Correction.Weighted>
   9.000000E+99

> <Gold.Protein.RotatedTorsions>
[ 6907 6896 6895 6894 ] final  136.59 input  -60.11 | X-H torsion
[ 7974 7965 7964 7962 ] final  132.89 input  175.53 | X-H torsion
[ 8008 7997 7996 7995 ] final -123.88 input   59.86 | X-H torsion
[ 10167 10162 10161 10158 ] final -176.61 input  -65.29 | X-H torsion
[ 10718 10713 10712 10709 ] final  149.66 input   66.30 | X-H torsion
[ 10763 10752 10751 10750 ] final -147.44 input  -60.55 | X-H torsion
[ 11005 11000 10999 10996 ] final   56.77 input  -57.11 | X-H torsion

> <Gold.Protein.ActiveResidues>
 VAL166  LYS551  ARG553  GLY616  TRP617  ASP618  TYR619  PRO620  LYS621  CYS622 
 ASP623  PHE694  ASN695  SER759  ASP760  ASP761  ALA762  ILE779  LEU786  VAL792 
 PHE793  MET794  SER795  GLU796  ALA797  LYS798  CYS799  TRP800  GLU811  SER814 

> <Gold.Protein.RotatedAtoms>
  152.2876  133.5530  159.5536 H   0  0  0  0  0  0  0  0  0  0  0  0  # atno 6907 bound_to 6896
  150.7222  134.0474  159.3795 H   0  0  0  0  0  0  0  0  0  0  0  0  # atno 6908 bound_to 6896
  151.8382  135.0599  160.0496 H   0  0  0  0  0  0  0  0  0  0  0  0  # atno 6909 bound_to 6896
  144.9922  139.4395  143.5334 H   0  0  0  0  0  0  0  0  0  0  0  0  # atno 7974 bound_to 7965
  155.1877  140.0412  157.2894 H   0  0  0  0  0  0  0  0  0  0  0  0  # atno 8008 bound_to 7997
  154.6160  140.2489  155.7581 H   0  0  0  0  0  0  0  0  0  0  0  0  # atno 8009 bound_to 7997
  156.2406  140.2905  156.0445 H   0  0  0  0  0  0  0  0  0  0  0  0  # atno 8010 bound_to 7997
  139.5521  144.2083  152.1095 H   0  0  0  0  0  0  0  0  0  0  0  0  # atno 10167 bound_to 10162
  157.2932  131.0857  151.1446 H   0  0  0  0  0  0  0  0  0  0  0  0  # atno 10718 bound_to 10713
  154.8285  135.3360  154.6818 H   0  0  0  0  0  0  0  0  0  0  0  0  # atno 10763 bound_to 10752
  153.7441  135.6944  153.4965 H   0  0  0  0  0  0  0  0  0  0  0  0  # atno 10764 bound_to 10752
  153.2223  135.4445  155.0454 H   0  0  0  0  0  0  0  0  0  0  0  0  # atno 10765 bound_to 10752
  140.0503  134.5746  155.9272 H   0  0  0  0  0  0  0  0  0  0  0  0  # atno 11005 bound_to 11000
  146.3434  139.9260  142.8760 LP  0  0  0  0  0  0  0  0  0  0  0  0  # atno 17320 bound_to 7965
  145.2270  140.9958  143.4012 LP  0  0  0  0  0  0  0  0  0  0  0  0  # atno 17321 bound_to 7965
  140.1580  144.5052  150.6649 LP  0  0  0  0  0  0  0  0  0  0  0  0  # atno 17342 bound_to 10162
  140.6786  143.2316  151.5444 LP  0  0  0  0  0  0  0  0  0  0  0  0  # atno 17343 bound_to 10162
  157.2834  130.6761  149.6077 LP  0  0  0  0  0  0  0  0  0  0  0  0  # atno 17370 bound_to 10713
  155.9668  130.4443  150.5455 LP  0  0  0  0  0  0  0  0  0  0  0  0  # atno 17371 bound_to 10713
  141.1927  133.6576  156.5514 LP  0  0  0  0  0  0  0  0  0  0  0  0  # atno 17394 bound_to 11000
  140.3928  134.7425  157.4732 LP  0  0  0  0  0  0  0  0  0  0  0  0  # atno 17395 bound_to 11000

$$$$
