AV-unprocessed.smi:1762|AV-procd|sdf|7126|dock3
  -GOLD-   22720 8363D 1   1.00000     0.00000
 Structure written by MMmdl.
 52 53  0  0  0  0  0  0  0  0  3 V2000
  149.7574  134.5042  154.4332 C   0  0  0  0  0  0  0  0  0  0  0  0
  149.0270  135.1388  155.6303 C   0  0  1  0  0  0  0  0  0  0  0  0
  149.1294  136.6742  155.6683 C   0  0  0  0  0  0  0  0  0  0  0  0
  148.2860  137.3125  154.6159 N   0  3  2  0  0  0  0  0  0  0  0  0
  148.4423  138.8060  154.5604 C   0  0  1  0  0  0  0  0  0  0  0  0
  149.8960  139.1896  154.1891 C   0  0  0  0  0  0  0  0  0  0  0  0
  150.5710  138.3825  153.5401 O   0  0  0  0  0  0  0  0  0  0  0  0
  150.2335  140.4076  154.6967 N   0  5  0  0  0  0  0  0  0  0  0  0
  150.6330  140.6312  156.0849 C   0  0  0  0  0  0  0  0  0  0  0  0
  150.7169  142.1469  156.3802 C   0  0  0  0  0  0  0  0  0  0  0  0
  151.4888  142.4989  157.6477 C   0  0  0  0  0  0  0  0  0  0  0  0
  151.7181  143.8493  157.9974 C   0  0  0  0  0  0  0  0  0  0  0  0
  152.4214  144.1295  159.1849 C   0  0  0  0  0  0  0  0  0  0  0  0
  152.8651  143.0556  159.9800 C   0  0  0  0  0  0  0  0  0  0  0  0
  152.5829  141.7434  159.5515 C   0  0  0  0  0  0  0  0  0  0  0  0
  151.9079  141.4635  158.4159 N   0  0  0  0  0  0  0  0  0  0  0  0
  147.4110  139.5375  153.6347 C   0  0  0  0  0  0  0  0  0  0  0  0
  147.4947  139.1442  152.1445 C   0  0  0  0  0  0  0  0  0  0  0  0
  147.4549  141.0713  153.7798 C   0  0  0  0  0  0  0  0  0  0  0  0
  146.8860  136.8290  154.7638 C   0  0  0  0  0  0  0  0  0  0  0  0
  146.8232  135.2916  154.7077 C   0  0  2  0  0  0  0  0  0  0  0  0
  145.4025  134.7663  154.9419 C   0  0  0  0  0  0  0  0  0  0  0  0
  147.6625  134.7368  155.7138 O   0  0  0  0  0  0  0  0  0  0  0  0
  150.8260  134.7171  154.4773 H   0  0  0  0  0  0  0  0  0  0  0  0
  149.3942  134.8808  153.4773 H   0  0  0  0  0  0  0  0  0  0  0  0
  149.6380  133.4207  154.4348 H   0  0  0  0  0  0  0  0  0  0  0  0
  149.5074  134.7534  156.5302 H   0  0  0  0  0  0  0  0  0  0  0  0
  148.8073  137.0373  156.6458 H   0  0  0  0  0  0  0  0  0  0  0  0
  150.1799  136.9470  155.5714 H   0  0  0  0  0  0  0  0  0  0  0  0
  148.2305  139.1529  155.5752 H   0  0  0  0  0  0  0  0  0  0  0  0
  149.9472  140.1602  156.7904 H   0  0  0  0  0  0  0  0  0  0  0  0
  151.6064  140.1818  156.2821 H   0  0  0  0  0  0  0  0  0  0  0  0
  151.1853  142.6594  155.5385 H   0  0  0  0  0  0  0  0  0  0  0  0
  149.7123  142.5649  156.4627 H   0  0  0  0  0  0  0  0  0  0  0  0
  151.3653  144.6527  157.3672 H   0  0  0  0  0  0  0  0  0  0  0  0
  152.6156  145.1497  159.4810 H   0  0  0  0  0  0  0  0  0  0  0  0
  153.4077  143.2325  160.8969 H   0  0  0  0  0  0  0  0  0  0  0  0
  152.9055  140.8958  160.1379 H   0  0  0  0  0  0  0  0  0  0  0  0
  146.4132  139.2720  153.9817 H   0  0  0  0  0  0  0  0  0  0  0  0
  148.4090  139.5121  151.6794 H   0  0  0  0  0  0  0  0  0  0  0  0
  146.6598  139.5689  151.5868 H   0  0  0  0  0  0  0  0  0  0  0  0
  147.4631  138.0648  152.0011 H   0  0  0  0  0  0  0  0  0  0  0  0
  148.3762  141.4940  153.3780 H   0  0  0  0  0  0  0  0  0  0  0  0
  147.3804  141.3694  154.8260 H   0  0  0  0  0  0  0  0  0  0  0  0
  146.6255  141.5372  153.2472 H   0  0  0  0  0  0  0  0  0  0  0  0
  146.4721  137.1965  155.7041 H   0  0  0  0  0  0  0  0  0  0  0  0
  146.2495  137.2019  153.9642 H   0  0  0  0  0  0  0  0  0  0  0  0
  147.1490  134.9487  153.7256 H   0  0  0  0  0  0  0  0  0  0  0  0
  144.7143  135.1430  154.1848 H   0  0  0  0  0  0  0  0  0  0  0  0
  145.0245  135.0694  155.9189 H   0  0  0  0  0  0  0  0  0  0  0  0
  145.3783  133.6772  154.8991 H   0  0  0  0  0  0  0  0  0  0  0  0
  148.6198  136.9686  153.7268 H   0  0  0  0  0  0  0  0  0  0  0  0
  1  2  1  0  0  0  0
  1 24  1  0  0  0  0
  1 25  1  0  0  0  0
  1 26  1  0  0  0  0
  2 23  1  0  0  0  0
  2  3  1  0  0  0  0
  2 27  1  0  0  0  0
  3  4  1  0  0  0  0
  3 28  1  0  0  0  0
  3 29  1  0  0  0  0
  4  5  1  0  0  0  0
  4 20  1  0  0  0  0
  4 52  1  0  0  0  0
  5  6  1  0  0  0  0
  5 17  1  0  0  0  0
  5 30  1  0  0  0  0
  6  7  2  0  0  0  0
  6  8  1  0  0  0  0
  8  9  1  0  0  0  0
  9 10  1  0  0  0  0
  9 31  1  0  0  0  0
  9 32  1  0  0  0  0
 10 11  1  0  0  0  0
 10 33  1  0  0  0  0
 10 34  1  0  0  0  0
 11 16  1  0  0  0  0
 11 12  2  0  0  0  0
 12 13  1  0  0  0  0
 12 35  1  0  0  0  0
 13 14  2  0  0  0  0
 13 36  1  0  0  0  0
 14 15  1  0  0  0  0
 14 37  1  0  0  0  0
 15 16  2  0  0  0  0
 15 38  1  0  0  0  0
 17 18  1  0  0  0  0
 17 19  1  0  0  0  0
 17 39  1  0  0  0  0
 18 40  1  0  0  0  0
 18 41  1  0  0  0  0
 18 42  1  0  0  0  0
 19 43  1  0  0  0  0
 19 44  1  0  0  0  0
 19 45  1  0  0  0  0
 20 21  1  0  0  0  0
 20 46  1  0  0  0  0
 20 47  1  0  0  0  0
 21 22  1  0  0  0  0
 21 23  1  0  0  0  0
 21 48  1  0  0  0  0
 22 49  1  0  0  0  0
 22 50  1  0  0  0  0
 22 51  1  0  0  0  0
M  CHG  1   4   1
M  CHG  1   8  -1
M  END
> <s_m_source_file>
AV-unprocessed.smi

> <i_m_source_file_index>
1762

> <i_lp_mmshare_version>
43012

> <i_f3d_flags>
0

> <s_epik_input>
W0NIM11bQ0BASF0xW0NIMl1OKFtDSDJdW0NASF0oTzEpW0NIM10pW0NAQEhdKFtDSF0oW0NIM10pW0NIM10pQyg9TylbTkhdW0NIMl1bQ0gyXWMyW2NIXVtjSF1bY0hdW2NIXW4y

> <s_epik_cmdline>
J2VwaWtfcHl0aG9uJywgJy1waCcsICc3LjAnLCAnLXRuJywgJzgnLCAnLW1hJywgJzIwMCcsICctbWV0YWxfYmluZGluZycsICctaW1hZScsICc8aW5maWxlLm1hZT4nLCAnLW9tYWUnLCAnPG91dGZpbGUubWFlPic=

> <r_epik_Ionization_Penalty>
7.82966

> <r_epik_Ionization_Penalty_Charging>
7.7461

> <r_epik_Ionization_Penalty_Neutral>
0.0835571

> <r_epik_State_Penalty>
8.52273

> <r_epik_Charging_Adjusted_Penalty>
16.2688

> <i_epik_Tot_Q>
0

> <i_epik_Tot_abs_Q>
2

> <r_epik_Metal_State_Penalty>
4.47451

> <b_epik_Metal_Only>
1

> <s_lp_Force_Field>
OPLS_2005

> <r_lp_Energy>
24.57

> <b_lp_Chiralities_Consistent>
1

> <s_lp_Variant>
AV-unprocessed.smi:1762-28

> <Gold.Version>
5.8.1

> <Gold.Id.Protein>
6NUR|6NUR_protein|mol2

> <Gold.PLP.Fitness>
40.7072

> <Gold.PLP.PLP>
-34.6244

> <Gold.PLP.part.hbond>
-2.0000

> <Gold.PLP.part.metal>
0.0000

> <Gold.PLP.part.buried>
3.1341

> <Gold.PLP.part.nonpolar>
-36.4494

> <Gold.PLP.part.repulsive>
1.1588

> <Gold.PLP.ligand.clash>
0.0000

> <Gold.PLP.ligand.torsion>
1.5992

> <Gold.PLP.Chemscore.Hbond>
2.9920

> <Gold.PLP.Chemscore.CHOScore>
0.0000

> <Gold.PLP.Chemscore.Metal>
0.0000

> <Gold.Chemscore.Hbonds>
donor molecule, donor type, donor heavy atom, donor atom, acceptor molecule, acceptor atom, score
      L1  H     4    52       P1  7948  2.00
      P1  H  7989  7998       L1     8  1.00

> <Gold.PLP.Chemscore.Internal.Correction>
0.3051

> <Gold.Rescore>
     Score         DG    S(hbond)    S(metal)    S(lipo)     H(rot)  DE(clash)    DE(int)     intcor
     13.88     -19.33       1.33        0.00     115.49       1.60       2.87       2.58       ----

> <Gold.Chemscore.Fitness>
13.8768

> <Gold.Chemscore.DG>
-19.3296

> <Gold.Chemscore.ZeroCoef>
-5.4800

> <Gold.Chemscore.Hbond>
1.3284

> <Gold.Chemscore.Metal>
0.0000

> <Gold.Chemscore.Lipo>
115.4864

> <Gold.Chemscore.Internal_Hbond>
0.0000

> <Gold.Chemscore.DEClash>
2.8679

> <Gold.Chemscore.DEInternal>
2.5850

> <Gold.Chemscore.Rot>
1.6012

> <Gold.Chemscore.Internal.Correction>
   9.000000E+99

> <Gold.Chemscore.Hbonds>
donor molecule, donor type, donor heavy atom, donor atom, acceptor molecule, acceptor atom, score
      L1  H     4    52       P1  7948  0.93
      P1  H  7989  7998       L1     8  0.20

> <Gold.Chemscore.Hbond.Weighted>
-4.4367

> <Gold.Chemscore.Metal.Weighted>
-0.0000

> <Gold.Chemscore.Lipo.Weighted>
-13.5119

> <Gold.Chemscore.Internal_Hbond.Weighted>
0.0000

> <Gold.Chemscore.DEClash.Weighted>
2.8679

> <Gold.Chemscore.DEInternal.Weighted>
2.5850

> <Gold.Chemscore.Rot.Weighted>
4.0990

> <Gold.Chemscore.Internal.Correction.Weighted>
   9.000000E+99

> <Gold.Protein.RotatedTorsions>
[ 6907 6896 6895 6894 ] final -100.75 input  -60.11 | X-H torsion
[ 7974 7965 7964 7962 ] final -156.48 input  175.53 | X-H torsion
[ 8008 7997 7996 7995 ] final  -25.37 input   59.86 | X-H torsion
[ 10167 10162 10161 10158 ] final -126.66 input  -65.29 | X-H torsion
[ 10718 10713 10712 10709 ] final  -54.11 input   66.30 | X-H torsion
[ 10763 10752 10751 10750 ] final   56.11 input  -60.55 | X-H torsion
[ 11005 11000 10999 10996 ] final   -1.05 input  -57.11 | X-H torsion

> <Gold.Protein.ActiveResidues>
 VAL166  LYS551  ARG553  GLY616  TRP617  ASP618  TYR619  PRO620  LYS621  CYS622 
 ASP623  PHE694  ASN695  SER759  ASP760  ASP761  ALA762  ILE779  LEU786  VAL792 
 PHE793  MET794  SER795  GLU796  ALA797  LYS798  CYS799  TRP800  GLU811  SER814 

> <Gold.Protein.RotatedAtoms>
  150.7128  134.0839  159.3907 H   0  0  0  0  0  0  0  0  0  0  0  0  # atno 6907 bound_to 6896
  151.8824  135.0446  160.0499 H   0  0  0  0  0  0  0  0  0  0  0  0  # atno 6908 bound_to 6896
  152.2557  133.5218  159.5388 H   0  0  0  0  0  0  0  0  0  0  0  0  # atno 6909 bound_to 6896
  144.7591  140.4104  143.5990 H   0  0  0  0  0  0  0  0  0  0  0  0  # atno 7974 bound_to 7965
  154.4479  140.1928  156.0608 H   0  0  0  0  0  0  0  0  0  0  0  0  # atno 8008 bound_to 7997
  156.0584  140.3300  155.7405 H   0  0  0  0  0  0  0  0  0  0  0  0  # atno 8009 bound_to 7997
  155.5450  140.0590  157.2853 H   0  0  0  0  0  0  0  0  0  0  0  0  # atno 8010 bound_to 7997
  139.9691  143.5866  152.2419 H   0  0  0  0  0  0  0  0  0  0  0  0  # atno 10167 bound_to 10162
  156.1478  130.4152  149.9994 H   0  0  0  0  0  0  0  0  0  0  0  0  # atno 10718 bound_to 10713
  152.9827  135.5687  154.5176 H   0  0  0  0  0  0  0  0  0  0  0  0  # atno 10763 bound_to 10752
  154.4669  135.2783  155.1673 H   0  0  0  0  0  0  0  0  0  0  0  0  # atno 10764 bound_to 10752
  154.3237  135.6263  153.5573 H   0  0  0  0  0  0  0  0  0  0  0  0  # atno 10765 bound_to 10752
  140.6430  133.9472  155.8337 H   0  0  0  0  0  0  0  0  0  0  0  0  # atno 11005 bound_to 11000
  145.6679  139.1593  143.2771 LP  0  0  0  0  0  0  0  0  0  0  0  0  # atno 17320 bound_to 7965
  146.1635  140.6753  142.9266 LP  0  0  0  0  0  0  0  0  0  0  0  0  # atno 17321 bound_to 7965
  139.6495  144.7660  151.2176 LP  0  0  0  0  0  0  0  0  0  0  0  0  # atno 17342 bound_to 10162
  140.7528  143.6184  150.8537 LP  0  0  0  0  0  0  0  0  0  0  0  0  # atno 17343 bound_to 10162
  156.7861  130.9239  151.3646 LP  0  0  0  0  0  0  0  0  0  0  0  0  # atno 17370 bound_to 10713
  157.6632  130.8984  149.9874 LP  0  0  0  0  0  0  0  0  0  0  0  0  # atno 17371 bound_to 10713
  141.0593  134.0370  157.3680 LP  0  0  0  0  0  0  0  0  0  0  0  0  # atno 17394 bound_to 11000
  139.9073  135.0182  156.7542 LP  0  0  0  0  0  0  0  0  0  0  0  0  # atno 17395 bound_to 11000

$$$$
