AV-unprocessed.smi:2767|AV-procd|sdf|10647|dock8
  -GOLD-   2272015 93D 1   1.00000     0.00000
 Structure written by MMmdl.
 34 36  0  0  0  0  0  0  0  0  1 V2000
  146.0886  138.9532  153.8532 O   0  0  0  0  0  0  0  0  0  0  0  0
  146.9648  138.1776  153.4700 C   0  0  0  0  0  0  0  0  0  0  0  0
  146.7115  137.0679  152.7619 N   0  0  0  0  0  0  0  0  0  0  0  0
  145.3884  136.6468  152.3155 C   0  0  0  0  0  0  0  0  0  0  0  0
  145.3595  135.4549  151.3663 C   0  0  0  0  0  0  0  0  0  0  0  0
  146.0565  134.2009  151.8883 C   0  0  0  0  0  0  0  0  0  0  0  0
  146.6390  133.1997  150.9178 C   0  0  0  0  0  0  0  0  0  0  0  0
  145.4787  132.8031  151.7992 C   0  0  0  0  0  0  0  0  0  0  0  0
  144.0876  135.2400  150.5697 C   0  0  0  0  0  0  0  0  0  0  0  0
  145.3179  135.7590  149.8766 C   0  0  0  0  0  0  0  0  0  0  0  0
  148.2834  138.3234  153.6897 N   0  0  0  0  0  0  0  0  0  0  0  0
  148.9499  139.3823  154.3619 C   0  0  0  0  0  0  0  0  0  0  0  0
  150.2678  139.0891  154.7805 C   0  0  0  0  0  0  0  0  0  0  0  0
  151.0167  140.0738  155.4538 C   0  0  0  0  0  0  0  0  0  0  0  0
  150.4257  141.3275  155.6910 C   0  0  0  0  0  0  0  0  0  0  0  0
  151.1065  142.3052  156.3347 F   0  0  0  0  0  0  0  0  0  0  0  0
  149.1091  141.5391  155.2419 C   0  0  0  0  0  0  0  0  0  0  0  0
  148.3904  140.5962  154.5962 N   0  0  0  0  0  0  0  0  0  0  0  0
  147.4901  136.4862  152.4895 H   0  0  0  0  0  0  0  0  0  0  0  0
  144.8164  136.3818  153.2050 H   0  0  0  0  0  0  0  0  0  0  0  0
  144.8674  137.4948  151.8674 H   0  0  0  0  0  0  0  0  0  0  0  0
  146.6513  134.3761  152.7827 H   0  0  0  0  0  0  0  0  0  0  0  0
  146.4366  133.3455  149.8584 H   0  0  0  0  0  0  0  0  0  0  0  0
  147.6182  132.7878  151.1524 H   0  0  0  0  0  0  0  0  0  0  0  0
  145.6904  132.1231  152.6215 H   0  0  0  0  0  0  0  0  0  0  0  0
  144.5132  132.6556  151.3227 H   0  0  0  0  0  0  0  0  0  0  0  0
  143.7887  134.2162  150.3542 H   0  0  0  0  0  0  0  0  0  0  0  0
  143.2674  135.9388  150.7228 H   0  0  0  0  0  0  0  0  0  0  0  0
  145.3120  136.8038  149.5723 H   0  0  0  0  0  0  0  0  0  0  0  0
  145.8285  135.0928  149.1867 H   0  0  0  0  0  0  0  0  0  0  0  0
  148.8816  137.6005  153.3179 H   0  0  0  0  0  0  0  0  0  0  0  0
  150.7052  138.1198  154.5893 H   0  0  0  0  0  0  0  0  0  0  0  0
  152.0254  139.8699  155.7813 H   0  0  0  0  0  0  0  0  0  0  0  0
  148.6197  142.4880  155.4045 H   0  0  0  0  0  0  0  0  0  0  0  0
  1  2  2  0  0  0  0
  2  3  1  0  0  0  0
  2 11  1  0  0  0  0
  3  4  1  0  0  0  0
  3 19  1  0  0  0  0
  4  5  1  0  0  0  0
  4 20  1  0  0  0  0
  4 21  1  0  0  0  0
  5 10  1  0  0  0  0
  5  6  1  0  0  0  0
  5  9  1  0  0  0  0
  6  8  1  0  0  0  0
  6  7  1  0  0  0  0
  6 22  1  0  0  0  0
  7  8  1  0  0  0  0
  7 23  1  0  0  0  0
  7 24  1  0  0  0  0
  8 25  1  0  0  0  0
  8 26  1  0  0  0  0
  9 10  1  0  0  0  0
  9 27  1  0  0  0  0
  9 28  1  0  0  0  0
 10 29  1  0  0  0  0
 10 30  1  0  0  0  0
 11 12  1  0  0  0  0
 11 31  1  0  0  0  0
 12 18  1  0  0  0  0
 12 13  2  0  0  0  0
 13 14  1  0  0  0  0
 13 32  1  0  0  0  0
 14 15  2  0  0  0  0
 14 33  1  0  0  0  0
 15 16  1  0  0  0  0
 15 17  1  0  0  0  0
 17 18  2  0  0  0  0
 17 34  1  0  0  0  0
M  END
> <s_m_source_file>
AV-unprocessed.smi

> <i_m_source_file_index>
2767

> <i_lp_mmshare_version>
43012

> <i_f3d_flags>
0

> <s_epik_input>
W0NIMl0xW0NIMl1bQ0hdMUMyKFtDSDJdW0NIMl0yKVtDSDJdW05IXUMoPU8pW05IXWMzW2NIXVtjSF1jKEYpW2NIXW4z

> <s_epik_cmdline>
J2VwaWtfcHl0aG9uJywgJy1waCcsICc3LjAnLCAnLXRuJywgJzgnLCAnLW1hJywgJzIwMCcsICctbWV0YWxfYmluZGluZycsICctaW1hZScsICc8aW5maWxlLm1hZT4nLCAnLW9tYWUnLCAnPG91dGZpbGUubWFlPic=

> <r_lp_tautomer_probability>
1

> <r_epik_Ionization_Penalty>
3.94364e-05

> <r_epik_Ionization_Penalty_Charging>
0

> <r_epik_Ionization_Penalty_Neutral>
3.94364e-05

> <r_epik_State_Penalty>
-0

> <r_epik_Charging_Adjusted_Penalty>
0

> <i_epik_Tot_Q>
0

> <i_epik_Tot_abs_Q>
0

> <r_epik_Metal_State_Penalty>
-0

> <b_epik_Metal_Only>
0

> <s_lp_Force_Field>
OPLS_2005

> <r_lp_Energy>
31.6765

> <b_lp_Chiralities_Consistent>
1

> <s_lp_Variant>
AV-unprocessed.smi:2767-1

> <Gold.Version>
5.8.1

> <Gold.Id.Protein>
6NUR|6NUR_protein|mol2

> <Gold.PLP.Fitness>
37.3661

> <Gold.PLP.PLP>
-29.6858

> <Gold.PLP.part.hbond>
-2.0000

> <Gold.PLP.part.metal>
0.0000

> <Gold.PLP.part.buried>
-0.0529

> <Gold.PLP.part.nonpolar>
-28.1231

> <Gold.PLP.part.repulsive>
0.2667

> <Gold.PLP.ligand.clash>
0.0000

> <Gold.PLP.ligand.torsion>
1.6934

> <Gold.PLP.Chemscore.Hbond>
1.8480

> <Gold.PLP.Chemscore.CHOScore>
1.0000

> <Gold.PLP.Chemscore.Metal>
0.0000

> <Gold.Chemscore.Hbonds>
donor molecule, donor type, donor heavy atom, donor atom, acceptor molecule, acceptor atom, score
      L1  H     3    19       P1  7948  1.00
      L1  H    11    31       P1  7948  0.83
      L1  C    17    34       P1  8028  1.00

> <Gold.PLP.Chemscore.Internal.Correction>
2.5232

> <Gold.Rescore>
     Score         DG    S(hbond)    S(metal)    S(lipo)     H(rot)  DE(clash)    DE(int)     intcor
     11.18     -15.55       1.77        0.00      67.42       1.46       1.51       2.87       ----

> <Gold.Chemscore.Fitness>
11.1767

> <Gold.Chemscore.DG>
-15.5494

> <Gold.Chemscore.ZeroCoef>
-5.4800

> <Gold.Chemscore.Hbond>
1.7726

> <Gold.Chemscore.Metal>
0.0000

> <Gold.Chemscore.Lipo>
67.4243

> <Gold.Chemscore.Internal_Hbond>
0.0000

> <Gold.Chemscore.DEClash>
1.5067

> <Gold.Chemscore.DEInternal>
2.8661

> <Gold.Chemscore.Rot>
1.4608

> <Gold.Chemscore.Internal.Correction>
   9.000000E+99

> <Gold.Chemscore.Hbonds>
donor molecule, donor type, donor heavy atom, donor atom, acceptor molecule, acceptor atom, score
      L1  H     3    19       P1  7948  0.96
      L1  H    11    31       P1  7948  0.81

> <Gold.Chemscore.Hbond.Weighted>
-5.9203

> <Gold.Chemscore.Metal.Weighted>
-0.0000

> <Gold.Chemscore.Lipo.Weighted>
-7.8886

> <Gold.Chemscore.Internal_Hbond.Weighted>
0.0000

> <Gold.Chemscore.DEClash.Weighted>
1.5067

> <Gold.Chemscore.DEInternal.Weighted>
2.8661

> <Gold.Chemscore.Rot.Weighted>
3.7396

> <Gold.Chemscore.Internal.Correction.Weighted>
   9.000000E+99

> <Gold.Protein.RotatedTorsions>
[ 6907 6896 6895 6894 ] final  -46.75 input  -60.11 | X-H torsion
[ 7974 7965 7964 7962 ] final   62.07 input  175.53 | X-H torsion
[ 8008 7997 7996 7995 ] final  110.69 input   59.86 | X-H torsion
[ 10167 10162 10161 10158 ] final   97.95 input  -65.29 | X-H torsion
[ 10718 10713 10712 10709 ] final  148.01 input   66.30 | X-H torsion
[ 10763 10752 10751 10750 ] final  -15.50 input  -60.55 | X-H torsion
[ 11005 11000 10999 10996 ] final -134.73 input  -57.11 | X-H torsion

> <Gold.Protein.ActiveResidues>
 VAL166  LYS551  ARG553  GLY616  TRP617  ASP618  TYR619  PRO620  LYS621  CYS622 
 ASP623  PHE694  ASN695  SER759  ASP760  ASP761  ALA762  ILE779  LEU786  VAL792 
 PHE793  MET794  SER795  GLU796  ALA797  LYS798  CYS799  TRP800  GLU811  SER814 

> <Gold.Protein.RotatedAtoms>
  150.9080  134.8495  159.7405 H   0  0  0  0  0  0  0  0  0  0  0  0  # atno 6907 bound_to 6896
  152.4929  134.4402  159.9551 H   0  0  0  0  0  0  0  0  0  0  0  0  # atno 6908 bound_to 6896
  151.4447  133.3594  159.2822 H   0  0  0  0  0  0  0  0  0  0  0  0  # atno 6909 bound_to 6896
  145.8775  139.3420  143.0726 H   0  0  0  0  0  0  0  0  0  0  0  0  # atno 7974 bound_to 7965
  156.2071  140.3033  155.9651 H   0  0  0  0  0  0  0  0  0  0  0  0  # atno 8008 bound_to 7997
  155.2814  140.0438  157.3033 H   0  0  0  0  0  0  0  0  0  0  0  0  # atno 8009 bound_to 7997
  154.5648  140.2331  155.8288 H   0  0  0  0  0  0  0  0  0  0  0  0  # atno 8010 bound_to 7997
  139.7754  144.6908  151.0097 H   0  0  0  0  0  0  0  0  0  0  0  0  # atno 10167 bound_to 10162
  157.3139  131.0892  151.1294 H   0  0  0  0  0  0  0  0  0  0  0  0  # atno 10718 bound_to 10713
  153.5442  135.7013  153.5622 H   0  0  0  0  0  0  0  0  0  0  0  0  # atno 10763 bound_to 10752
  153.3574  135.3979  155.1692 H   0  0  0  0  0  0  0  0  0  0  0  0  # atno 10764 bound_to 10752
  154.8669  135.3780  154.4949 H   0  0  0  0  0  0  0  0  0  0  0  0  # atno 10765 bound_to 10752
  140.8963  134.1747  157.4492 H   0  0  0  0  0  0  0  0  0  0  0  0  # atno 11005 bound_to 11000
  145.9063  140.9210  143.0477 LP  0  0  0  0  0  0  0  0  0  0  0  0  # atno 17320 bound_to 7965
  144.6726  140.1100  143.7456 LP  0  0  0  0  0  0  0  0  0  0  0  0  # atno 17321 bound_to 7965
  140.7816  143.4542  151.0369 LP  0  0  0  0  0  0  0  0  0  0  0  0  # atno 17342 bound_to 10162
  139.8224  143.7801  152.3177 LP  0  0  0  0  0  0  0  0  0  0  0  0  # atno 17343 bound_to 10162
  157.2606  130.6657  149.5973 LP  0  0  0  0  0  0  0  0  0  0  0  0  # atno 17370 bound_to 10713
  155.9680  130.4510  150.5718 LP  0  0  0  0  0  0  0  0  0  0  0  0  # atno 17371 bound_to 10713
  139.8736  134.9880  156.5391 LP  0  0  0  0  0  0  0  0  0  0  0  0  # atno 17394 bound_to 11000
  140.8285  133.8298  155.8961 LP  0  0  0  0  0  0  0  0  0  0  0  0  # atno 17395 bound_to 11000

$$$$
