AV-unprocessed.smi:3278|AV-procd|sdf|12546|dock6
  -GOLD-   2272018463D 1   1.00000     0.00000
 Structure written by MMmdl.
 38 39  0  0  0  0  0  0  0  0  1 V2000
  145.8162  143.1818  154.1464 C   0  0  0  0  0  0  0  0  0  0  0  0
  146.9630  142.3088  154.2751 N   0  0  0  0  0  0  0  0  0  0  0  0
  147.9130  142.2773  155.2728 C   0  0  0  0  0  0  0  0  0  0  0  0
  148.8016  141.2830  154.9681 C   0  0  0  0  0  0  0  0  0  0  0  0
  150.0280  140.8271  155.7303 C   0  0  1  0  0  0  0  0  0  0  0  0
  149.5981  140.1330  157.0337 C   0  0  0  0  0  0  0  0  0  0  0  0
  150.7762  139.8611  155.0147 O   0  0  0  0  0  0  0  0  0  0  0  0
  150.9801  142.0022  156.0471 C   0  0  0  0  0  0  0  0  0  0  0  0
  150.4141  142.9179  157.0423 N   0  0  0  0  0  0  0  0  0  0  0  0
  151.3498  143.4363  158.0444 C   0  0  1  0  0  0  0  0  0  0  0  0
  150.8502  144.7583  158.6734 C   0  0  0  0  0  0  0  0  0  0  0  0
  151.8349  145.3429  159.6997 C   0  0  0  0  0  0  0  0  0  0  0  0
  152.0907  144.3971  160.8797 C   0  0  0  0  0  0  0  0  0  0  0  0
  152.8409  142.8476  160.3174 S   0  0  0  0  0  0  0  0  0  0  0  0
  151.5677  142.3588  159.1226 C   0  0  0  0  0  0  0  0  0  0  0  0
  148.2940  140.7617  153.7419 C   0  0  0  0  0  0  0  0  0  0  0  0
  147.1965  141.3752  153.3310 N   0  0  0  0  0  0  0  0  0  0  0  0
  145.8445  143.9521  154.9176 H   0  0  0  0  0  0  0  0  0  0  0  0
  144.8988  142.6028  154.2558 H   0  0  0  0  0  0  0  0  0  0  0  0
  145.8232  143.6616  153.1672 H   0  0  0  0  0  0  0  0  0  0  0  0
  147.8790  142.9572  156.1113 H   0  0  0  0  0  0  0  0  0  0  0  0
  149.0376  140.8113  157.6780 H   0  0  0  0  0  0  0  0  0  0  0  0
  150.4593  139.7808  157.6026 H   0  0  0  0  0  0  0  0  0  0  0  0
  148.9607  139.2710  156.8325 H   0  0  0  0  0  0  0  0  0  0  0  0
  151.2045  139.2931  155.6366 H   0  0  0  0  0  0  0  0  0  0  0  0
  151.9237  141.6067  156.4251 H   0  0  0  0  0  0  0  0  0  0  0  0
  151.2159  142.5279  155.1223 H   0  0  0  0  0  0  0  0  0  0  0  0
  149.9500  143.6871  156.5696 H   0  0  0  0  0  0  0  0  0  0  0  0
  152.3089  143.6242  157.5599 H   0  0  0  0  0  0  0  0  0  0  0  0
  150.6962  145.5133  157.9038 H   0  0  0  0  0  0  0  0  0  0  0  0
  149.8797  144.6010  159.1462 H   0  0  0  0  0  0  0  0  0  0  0  0
  152.7788  145.5827  159.2092 H   0  0  0  0  0  0  0  0  0  0  0  0
  151.4400  146.2864  160.0770 H   0  0  0  0  0  0  0  0  0  0  0  0
  152.7580  144.8662  161.6029 H   0  0  0  0  0  0  0  0  0  0  0  0
  151.1585  144.1749  161.3996 H   0  0  0  0  0  0  0  0  0  0  0  0
  150.6394  142.1569  159.6590 H   0  0  0  0  0  0  0  0  0  0  0  0
  151.8798  141.4204  158.6633 H   0  0  0  0  0  0  0  0  0  0  0  0
  148.6908  139.9558  153.1422 H   0  0  0  0  0  0  0  0  0  0  0  0
  1  2  1  0  0  0  0
  1 18  1  0  0  0  0
  1 19  1  0  0  0  0
  1 20  1  0  0  0  0
  2 17  1  0  0  0  0
  2  3  1  0  0  0  0
  3  4  2  0  0  0  0
  3 21  1  0  0  0  0
  4  5  1  0  0  0  0
  4 16  1  0  0  0  0
  5  6  1  0  0  0  0
  5  7  1  0  0  0  0
  5  8  1  0  0  0  0
  6 22  1  0  0  0  0
  6 23  1  0  0  0  0
  6 24  1  0  0  0  0
  7 25  1  0  0  0  0
  8  9  1  0  0  0  0
  8 26  1  0  0  0  0
  8 27  1  0  0  0  0
  9 10  1  0  0  0  0
  9 28  1  0  0  0  0
 10 15  1  0  0  0  0
 10 11  1  0  0  0  0
 10 29  1  0  0  0  0
 11 12  1  0  0  0  0
 11 30  1  0  0  0  0
 11 31  1  0  0  0  0
 12 13  1  0  0  0  0
 12 32  1  0  0  0  0
 12 33  1  0  0  0  0
 13 14  1  0  0  0  0
 13 34  1  0  0  0  0
 13 35  1  0  0  0  0
 14 15  1  0  0  0  0
 15 36  1  0  0  0  0
 15 37  1  0  0  0  0
 16 17  2  0  0  0  0
 16 38  1  0  0  0  0
M  END
> <s_m_source_file>
AV-unprocessed.smi

> <i_m_source_file_index>
3278

> <i_lp_mmshare_version>
43012

> <i_f3d_flags>
0

> <s_epik_input>
W0NIM11uMVtjSF1jKFtjSF1uMSlbQ0BAXShbQ0gzXSkoW09IXSlbQ0gyXVtOSF1bQ0BASF0yW0NIMl1bQ0gyXVtDSDJdU1tDSDJdMg==

> <s_epik_cmdline>
J2VwaWtfcHl0aG9uJywgJy1waCcsICc3LjAnLCAnLXRuJywgJzgnLCAnLW1hJywgJzIwMCcsICctbWV0YWxfYmluZGluZycsICctaW1hZScsICc8aW5maWxlLm1hZT4nLCAnLW9tYWUnLCAnPG91dGZpbGUubWFlPic=

> <r_lp_tautomer_probability>
1

> <r_epik_Ionization_Penalty>
2.06123

> <r_epik_Ionization_Penalty_Charging>
0

> <r_epik_Ionization_Penalty_Neutral>
2.06123

> <r_epik_State_Penalty>
2.1944

> <r_epik_Charging_Adjusted_Penalty>
2.1944

> <i_epik_Tot_Q>
0

> <i_epik_Tot_abs_Q>
0

> <r_epik_Metal_State_Penalty>
2.19434

> <b_epik_Metal_Only>
0

> <s_lp_Force_Field>
OPLS_2005

> <r_lp_Energy>
12.2085

> <b_lp_Chiralities_Consistent>
1

> <s_lp_Variant>
AV-unprocessed.smi:3278-7

> <Gold.Version>
5.8.1

> <Gold.Id.Protein>
6NUR|6NUR_protein|mol2

> <Gold.PLP.Fitness>
47.7742

> <Gold.PLP.PLP>
-38.5215

> <Gold.PLP.part.hbond>
-2.0000

> <Gold.PLP.part.metal>
0.0000

> <Gold.PLP.part.buried>
-1.6463

> <Gold.PLP.part.nonpolar>
-34.2273

> <Gold.PLP.part.repulsive>
0.1857

> <Gold.PLP.ligand.clash>
0.0000

> <Gold.PLP.ligand.torsion>
0.7476

> <Gold.PLP.Chemscore.Hbond>
2.0000

> <Gold.PLP.Chemscore.CHOScore>
1.5717

> <Gold.PLP.Chemscore.Metal>
0.0000

> <Gold.Chemscore.Hbonds>
donor molecule, donor type, donor heavy atom, donor atom, acceptor molecule, acceptor atom, score
      L1  H     9    28       P1  8028  1.00
      P1  H  7989  7998       L1     7  1.00
      L1  C     3    21       P1  8028  0.62
      L1  C    16    38       P1  7957  0.98

> <Gold.PLP.Chemscore.Internal.Correction>
0.0328

> <Gold.Rescore>
     Score         DG    S(hbond)    S(metal)    S(lipo)     H(rot)  DE(clash)    DE(int)     intcor
     18.80     -19.57       1.95        0.00     107.19       1.93       0.21       0.57       ----

> <Gold.Chemscore.Fitness>
18.7957

> <Gold.Chemscore.DG>
-19.5730

> <Gold.Chemscore.ZeroCoef>
-5.4800

> <Gold.Chemscore.Hbond>
1.9462

> <Gold.Chemscore.Metal>
0.0000

> <Gold.Chemscore.Lipo>
107.1869

> <Gold.Chemscore.Internal_Hbond>
0.0000

> <Gold.Chemscore.DEClash>
0.2051

> <Gold.Chemscore.DEInternal>
0.5722

> <Gold.Chemscore.Rot>
1.9329

> <Gold.Chemscore.Internal.Correction>
   9.000000E+99

> <Gold.Chemscore.Hbonds>
donor molecule, donor type, donor heavy atom, donor atom, acceptor molecule, acceptor atom, score
      L1  H     9    28       P1  8028  1.00
      P1  H  7989  7998       L1     7  0.48

> <Gold.Chemscore.Hbond.Weighted>
-6.5004

> <Gold.Chemscore.Metal.Weighted>
-0.0000

> <Gold.Chemscore.Lipo.Weighted>
-12.5409

> <Gold.Chemscore.Internal_Hbond.Weighted>
0.0000

> <Gold.Chemscore.DEClash.Weighted>
0.2051

> <Gold.Chemscore.DEInternal.Weighted>
0.5722

> <Gold.Chemscore.Rot.Weighted>
4.9483

> <Gold.Chemscore.Internal.Correction.Weighted>
   9.000000E+99

> <Gold.Protein.RotatedTorsions>
[ 6907 6896 6895 6894 ] final  101.16 input  -60.11 | X-H torsion
[ 7974 7965 7964 7962 ] final -125.25 input  175.53 | X-H torsion
[ 8008 7997 7996 7995 ] final   41.71 input   59.86 | X-H torsion
[ 10167 10162 10161 10158 ] final   -0.99 input  -65.29 | X-H torsion
[ 10718 10713 10712 10709 ] final  -69.01 input   66.30 | X-H torsion
[ 10763 10752 10751 10750 ] final   74.49 input  -60.55 | X-H torsion
[ 11005 11000 10999 10996 ] final -123.21 input  -57.11 | X-H torsion

> <Gold.Protein.ActiveResidues>
 VAL166  LYS551  ARG553  GLY616  TRP617  ASP618  TYR619  PRO620  LYS621  CYS622 
 ASP623  PHE694  ASN695  SER759  ASP760  ASP761  ALA762  ILE779  LEU786  VAL792 
 PHE793  MET794  SER795  GLU796  ALA797  LYS798  CYS799  TRP800  GLU811  SER814 

> <Gold.Protein.RotatedAtoms>
  152.5356  134.0168  159.7963 H   0  0  0  0  0  0  0  0  0  0  0  0  # atno 6907 bound_to 6896
  151.0361  133.5739  159.2663 H   0  0  0  0  0  0  0  0  0  0  0  0  # atno 6908 bound_to 6896
  151.2726  135.0696  159.9193 H   0  0  0  0  0  0  0  0  0  0  0  0  # atno 6909 bound_to 6896
  144.9995  140.7807  143.4505 H   0  0  0  0  0  0  0  0  0  0  0  0  # atno 7974 bound_to 7965
  155.2742  140.3368  155.4263 H   0  0  0  0  0  0  0  0  0  0  0  0  # atno 8008 bound_to 7997
  156.2119  140.1773  156.7717 H   0  0  0  0  0  0  0  0  0  0  0  0  # atno 8009 bound_to 7997
  154.5698  140.0672  156.8932 H   0  0  0  0  0  0  0  0  0  0  0  0  # atno 8010 bound_to 7997
  140.6791  143.6829  150.8091 H   0  0  0  0  0  0  0  0  0  0  0  0  # atno 10167 bound_to 10162
  156.0476  130.4305  150.2084 H   0  0  0  0  0  0  0  0  0  0  0  0  # atno 10718 bound_to 10713
  153.0590  135.5024  154.8049 H   0  0  0  0  0  0  0  0  0  0  0  0  # atno 10763 bound_to 10752
  154.6853  135.2975  154.9558 H   0  0  0  0  0  0  0  0  0  0  0  0  # atno 10764 bound_to 10752
  154.0331  135.6727  153.4835 H   0  0  0  0  0  0  0  0  0  0  0  0  # atno 10765 bound_to 10752
  140.9936  134.0503  157.3624 H   0  0  0  0  0  0  0  0  0  0  0  0  # atno 11005 bound_to 11000
  145.2173  139.2176  143.5111 LP  0  0  0  0  0  0  0  0  0  0  0  0  # atno 17320 bound_to 7965
  146.3449  140.2023  142.8589 LP  0  0  0  0  0  0  0  0  0  0  0  0  # atno 17321 bound_to 7965
  140.0526  143.5234  152.2666 LP  0  0  0  0  0  0  0  0  0  0  0  0  # atno 17342 bound_to 10162
  139.6101  144.7606  151.2970 LP  0  0  0  0  0  0  0  0  0  0  0  0  # atno 17343 bound_to 10162
  157.0172  130.9968  151.3350 LP  0  0  0  0  0  0  0  0  0  0  0  0  # atno 17370 bound_to 10713
  157.5369  130.8095  149.7983 LP  0  0  0  0  0  0  0  0  0  0  0  0  # atno 17371 bound_to 10713
  139.9004  135.0162  156.7240 LP  0  0  0  0  0  0  0  0  0  0  0  0  # atno 17394 bound_to 11000
  140.7001  133.9314  155.8019 LP  0  0  0  0  0  0  0  0  0  0  0  0  # atno 17395 bound_to 11000

$$$$
