AV-unprocessed.smi:657|AV-procd|sdf|3224|dock6
  -GOLD-   22720 0163D 1   1.00000     0.00000
 Structure written by MMmdl.
 46 47  0  0  0  0  0  0  0  0  1 V2000
  146.7059  140.6479  155.9406 C   0  0  0  0  0  0  0  0  0  0  0  0
  148.0076  141.2955  155.4254 C   0  0  0  0  0  0  0  0  0  0  0  0
  147.8181  141.9180  154.0293 C   0  0  0  0  0  0  0  0  0  0  0  0
  149.1743  140.3843  155.4595 N   0  0  0  0  0  0  0  0  0  0  0  0
  150.4648  141.0885  155.5624 C   0  0  0  0  0  0  0  0  0  0  0  0
  151.6051  140.1091  155.8885 C   0  0  0  0  0  0  0  0  0  0  0  0
  151.7203  139.0265  154.8139 C   0  0  0  0  0  0  0  0  0  0  0  0
  150.3660  138.3324  154.6548 C   0  0  0  0  0  0  0  0  0  0  0  0
  149.2420  139.3558  154.3691 C   0  0  1  0  0  0  0  0  0  0  0  0
  147.9239  138.6010  154.1067 C   0  0  0  0  0  0  0  0  0  0  0  0
  147.3827  137.9605  155.0085 O   0  0  0  0  0  0  0  0  0  0  0  0
  147.4086  138.7098  152.8728 N   0  0  0  0  0  0  0  0  0  0  0  0
  146.1604  138.1021  152.4321 C   0  0  0  0  0  0  0  0  0  0  0  0
  146.3736  137.3222  151.1280 C   0  0  0  0  0  0  0  0  0  0  0  0
  145.8059  135.9334  151.2183 C   0  0  0  0  0  0  0  0  0  0  0  0
  146.3816  134.7926  151.8472 C   0  0  0  0  0  0  0  0  0  0  0  0
  145.6257  133.7115  151.7438 N   0  0  0  0  0  0  0  0  0  0  0  0
  144.5459  134.1222  151.0477 N   0  0  0  0  0  0  0  0  0  0  0  0
  143.4932  133.1777  150.7414 C   0  0  0  0  0  0  0  0  0  0  0  0
  144.6262  135.4582  150.7185 C   0  0  0  0  0  0  0  0  0  0  0  0
  145.9041  141.3853  155.9830 H   0  0  0  0  0  0  0  0  0  0  0  0
  146.8202  140.2441  156.9459 H   0  0  0  0  0  0  0  0  0  0  0  0
  146.3648  139.8422  155.2906 H   0  0  0  0  0  0  0  0  0  0  0  0
  148.2161  142.1538  156.0619 H   0  0  0  0  0  0  0  0  0  0  0  0
  147.1090  142.7450  154.0744 H   0  0  0  0  0  0  0  0  0  0  0  0
  147.4249  141.2084  153.3021 H   0  0  0  0  0  0  0  0  0  0  0  0
  148.7562  142.3171  153.6426 H   0  0  0  0  0  0  0  0  0  0  0  0
  150.6891  141.6119  154.6322 H   0  0  0  0  0  0  0  0  0  0  0  0
  150.4448  141.8413  156.3480 H   0  0  0  0  0  0  0  0  0  0  0  0
  152.5482  140.6508  155.9673 H   0  0  0  0  0  0  0  0  0  0  0  0
  151.4294  139.6493  156.8620 H   0  0  0  0  0  0  0  0  0  0  0  0
  152.0227  139.4738  153.8662 H   0  0  0  0  0  0  0  0  0  0  0  0
  152.4898  138.3023  155.0832 H   0  0  0  0  0  0  0  0  0  0  0  0
  150.4288  137.5992  153.8493 H   0  0  0  0  0  0  0  0  0  0  0  0
  150.1431  137.7728  155.5650 H   0  0  0  0  0  0  0  0  0  0  0  0
  149.5023  139.8676  153.4406 H   0  0  0  0  0  0  0  0  0  0  0  0
  147.9151  139.2598  152.1943 H   0  0  0  0  0  0  0  0  0  0  0  0
  145.7977  137.4372  153.2172 H   0  0  0  0  0  0  0  0  0  0  0  0
  145.3972  138.8674  152.2802 H   0  0  0  0  0  0  0  0  0  0  0  0
  145.9127  137.8685  150.3039 H   0  0  0  0  0  0  0  0  0  0  0  0
  147.4393  137.2837  150.8985 H   0  0  0  0  0  0  0  0  0  0  0  0
  147.3234  134.7186  152.3709 H   0  0  0  0  0  0  0  0  0  0  0  0
  142.7023  133.6702  150.1751 H   0  0  0  0  0  0  0  0  0  0  0  0
  143.0729  132.7802  151.6657 H   0  0  0  0  0  0  0  0  0  0  0  0
  143.8957  132.3567  150.1472 H   0  0  0  0  0  0  0  0  0  0  0  0
  143.8474  135.9556  150.1593 H   0  0  0  0  0  0  0  0  0  0  0  0
  1  2  1  0  0  0  0
  1 21  1  0  0  0  0
  1 22  1  0  0  0  0
  1 23  1  0  0  0  0
  2  3  1  0  0  0  0
  2  4  1  0  0  0  0
  2 24  1  0  0  0  0
  3 25  1  0  0  0  0
  3 26  1  0  0  0  0
  3 27  1  0  0  0  0
  4  9  1  0  0  0  0
  4  5  1  0  0  0  0
  5  6  1  0  0  0  0
  5 28  1  0  0  0  0
  5 29  1  0  0  0  0
  6  7  1  0  0  0  0
  6 30  1  0  0  0  0
  6 31  1  0  0  0  0
  7  8  1  0  0  0  0
  7 32  1  0  0  0  0
  7 33  1  0  0  0  0
  8  9  1  0  0  0  0
  8 34  1  0  0  0  0
  8 35  1  0  0  0  0
  9 10  1  0  0  0  0
  9 36  1  0  0  0  0
 10 11  2  0  0  0  0
 10 12  1  0  0  0  0
 12 13  1  0  0  0  0
 12 37  1  0  0  0  0
 13 14  1  0  0  0  0
 13 38  1  0  0  0  0
 13 39  1  0  0  0  0
 14 15  1  0  0  0  0
 14 40  1  0  0  0  0
 14 41  1  0  0  0  0
 15 20  2  0  0  0  0
 15 16  1  0  0  0  0
 16 17  2  0  0  0  0
 16 42  1  0  0  0  0
 17 18  1  0  0  0  0
 18 19  1  0  0  0  0
 18 20  1  0  0  0  0
 19 43  1  0  0  0  0
 19 44  1  0  0  0  0
 19 45  1  0  0  0  0
 20 46  1  0  0  0  0
M  END
> <s_m_source_file>
AV-unprocessed.smi

> <i_m_source_file_index>
657

> <i_lp_mmshare_version>
43012

> <i_f3d_flags>
0

> <s_epik_input>
W0NIM11bQ0hdKFtDSDNdKU4xW0NIMl1bQ0gyXVtDSDJdW0NIMl1bQ0BIXTFDKD1PKVtOSF1bQ0gyXVtDSDJdYzJbY0hdbm4oW0NIM10pW2NIXTI=

> <s_epik_cmdline>
J2VwaWtfcHl0aG9uJywgJy1waCcsICc3LjAnLCAnLXRuJywgJzgnLCAnLW1hJywgJzIwMCcsICctbWV0YWxfYmluZGluZycsICctaW1hZScsICc8aW5maWxlLm1hZT4nLCAnLW9tYWUnLCAnPG91dGZpbGUubWFlPic=

> <r_lp_tautomer_probability>
1

> <r_epik_Ionization_Penalty>
1.91154

> <r_epik_Ionization_Penalty_Charging>
0

> <r_epik_Ionization_Penalty_Neutral>
1.91154

> <r_epik_State_Penalty>
2.0331

> <r_epik_Charging_Adjusted_Penalty>
2.0331

> <i_epik_Tot_Q>
0

> <i_epik_Tot_abs_Q>
0

> <r_epik_Metal_State_Penalty>
2.04973

> <b_epik_Metal_Only>
0

> <s_lp_Force_Field>
OPLS_2005

> <r_lp_Energy>
17.3109

> <b_lp_Chiralities_Consistent>
1

> <s_lp_Variant>
AV-unprocessed.smi:657-5

> <Gold.Version>
5.8.1

> <Gold.Id.Protein>
6NUR|6NUR_protein|mol2

> <Gold.PLP.Fitness>
39.0486

> <Gold.PLP.PLP>
-33.1181

> <Gold.PLP.part.hbond>
-1.8965

> <Gold.PLP.part.metal>
0.0000

> <Gold.PLP.part.buried>
7.0786

> <Gold.PLP.part.nonpolar>
-37.4434

> <Gold.PLP.part.repulsive>
0.2996

> <Gold.PLP.ligand.clash>
0.0000

> <Gold.PLP.ligand.torsion>
1.0177

> <Gold.PLP.Chemscore.Hbond>
0.9913

> <Gold.PLP.Chemscore.CHOScore>
1.6270

> <Gold.PLP.Chemscore.Metal>
0.0000

> <Gold.Chemscore.Hbonds>
donor molecule, donor type, donor heavy atom, donor atom, acceptor molecule, acceptor atom, score
      L1  H    12    37       P1  7957  0.81
      L1  C    16    42       P1  7948  0.76
      L1  C    20    46       P1 10171  0.64

> <Gold.PLP.Chemscore.Internal.Correction>
0.1113

> <Gold.Rescore>
     Score         DG    S(hbond)    S(metal)    S(lipo)     H(rot)  DE(clash)    DE(int)     intcor
     12.78     -15.56       0.97        0.00      92.94       1.57       1.65       1.13       ----

> <Gold.Chemscore.Fitness>
12.7779

> <Gold.Chemscore.DG>
-15.5550

> <Gold.Chemscore.ZeroCoef>
-5.4800

> <Gold.Chemscore.Hbond>
0.9670

> <Gold.Chemscore.Metal>
0.0000

> <Gold.Chemscore.Lipo>
92.9383

> <Gold.Chemscore.Internal_Hbond>
0.0000

> <Gold.Chemscore.DEClash>
1.6504

> <Gold.Chemscore.DEInternal>
1.1268

> <Gold.Chemscore.Rot>
1.5736

> <Gold.Chemscore.Internal.Correction>
   9.000000E+99

> <Gold.Chemscore.Hbonds>
donor molecule, donor type, donor heavy atom, donor atom, acceptor molecule, acceptor atom, score
      L1  H    12    37       P1  7957  0.78

> <Gold.Chemscore.Hbond.Weighted>
-3.2297

> <Gold.Chemscore.Metal.Weighted>
-0.0000

> <Gold.Chemscore.Lipo.Weighted>
-10.8738

> <Gold.Chemscore.Internal_Hbond.Weighted>
0.0000

> <Gold.Chemscore.DEClash.Weighted>
1.6504

> <Gold.Chemscore.DEInternal.Weighted>
1.1268

> <Gold.Chemscore.Rot.Weighted>
4.0284

> <Gold.Chemscore.Internal.Correction.Weighted>
   9.000000E+99

> <Gold.Protein.RotatedTorsions>
[ 6907 6896 6895 6894 ] final  -29.17 input  -60.11 | X-H torsion
[ 7974 7965 7964 7962 ] final -141.97 input  175.53 | X-H torsion
[ 8008 7997 7996 7995 ] final   55.00 input   59.86 | X-H torsion
[ 10167 10162 10161 10158 ] final  -89.66 input  -65.29 | X-H torsion
[ 10718 10713 10712 10709 ] final   81.50 input   66.30 | X-H torsion
[ 10763 10752 10751 10750 ] final   52.23 input  -60.55 | X-H torsion
[ 11005 11000 10999 10996 ] final  -55.42 input  -57.11 | X-H torsion

> <Gold.Protein.ActiveResidues>
 VAL166  LYS551  ARG553  GLY616  TRP617  ASP618  TYR619  PRO620  LYS621  CYS622 
 ASP623  PHE694  ASN695  SER759  ASP760  ASP761  ALA762  ILE779  LEU786  VAL792 
 PHE793  MET794  SER795  GLU796  ALA797  LYS798  CYS799  TRP800  GLU811  SER814 

> <Gold.Protein.RotatedAtoms>
  151.1229  135.0089  159.8546 H   0  0  0  0  0  0  0  0  0  0  0  0  # atno 6907 bound_to 6896
  152.5448  134.1702  159.8603 H   0  0  0  0  0  0  0  0  0  0  0  0  # atno 6908 bound_to 6896
  151.1761  133.4709  159.2627 H   0  0  0  0  0  0  0  0  0  0  0  0  # atno 6909 bound_to 6896
  144.8479  140.6015  143.5409 H   0  0  0  0  0  0  0  0  0  0  0  0  # atno 7974 bound_to 7965
  155.4939  140.3472  155.4359 H   0  0  0  0  0  0  0  0  0  0  0  0  # atno 8008 bound_to 7997
  156.0958  140.1422  156.9560 H   0  0  0  0  0  0  0  0  0  0  0  0  # atno 8009 bound_to 7997
  154.4663  140.0916  156.7005 H   0  0  0  0  0  0  0  0  0  0  0  0  # atno 8010 bound_to 7997
  140.3626  143.2834  151.9596 H   0  0  0  0  0  0  0  0  0  0  0  0  # atno 10167 bound_to 10162
  157.6834  131.0006  150.2235 H   0  0  0  0  0  0  0  0  0  0  0  0  # atno 10718 bound_to 10713
  152.9788  135.5819  154.4544 H   0  0  0  0  0  0  0  0  0  0  0  0  # atno 10763 bound_to 10752
  154.4129  135.2770  155.2027 H   0  0  0  0  0  0  0  0  0  0  0  0  # atno 10764 bound_to 10752
  154.3809  135.6147  153.5844 H   0  0  0  0  0  0  0  0  0  0  0  0  # atno 10765 bound_to 10752
  141.1073  133.6612  156.4466 H   0  0  0  0  0  0  0  0  0  0  0  0  # atno 11005 bound_to 11000
  145.4560  139.1518  143.3892 LP  0  0  0  0  0  0  0  0  0  0  0  0  # atno 17320 bound_to 7965
  146.2759  140.4688  142.8795 LP  0  0  0  0  0  0  0  0  0  0  0  0  # atno 17321 bound_to 7965
  139.4812  144.5979  151.7658 LP  0  0  0  0  0  0  0  0  0  0  0  0  # atno 17342 bound_to 10162
  140.5112  144.1022  150.5995 LP  0  0  0  0  0  0  0  0  0  0  0  0  # atno 17343 bound_to 10162
  156.2882  130.3742  149.7867 LP  0  0  0  0  0  0  0  0  0  0  0  0  # atno 17370 bound_to 10713
  156.5535  130.8352  151.3307 LP  0  0  0  0  0  0  0  0  0  0  0  0  # atno 17371 bound_to 10713
  140.4869  134.6612  157.5194 LP  0  0  0  0  0  0  0  0  0  0  0  0  # atno 17394 bound_to 11000
  139.9949  134.6927  155.9627 LP  0  0  0  0  0  0  0  0  0  0  0  0  # atno 17395 bound_to 11000

$$$$
