AV-unprocessed.smi:741|AV-procd|sdf|3555|dock1
  -GOLD-   22720 0553D 1   1.00000     0.00000
 Structure written by MMmdl.
 42 43  0  0  0  0  0  0  0  0  2 V2000
  146.0238  136.2861  155.9427 C   0  0  0  0  0  0  0  0  0  0  0  0
  146.6510  137.5924  155.4339 C   0  0  0  0  0  0  0  0  0  0  0  0
  146.2220  137.9722  154.0036 C   0  0  1  0  0  0  0  0  0  0  0  0
  146.9003  139.2839  153.5489 C   0  0  0  0  0  0  0  0  0  0  0  0
  146.1661  140.4962  153.9862 N   0  3  0  0  0  0  0  0  0  0  0  0
  145.8165  140.5345  155.4212 C   0  0  0  0  0  0  0  0  0  0  0  0
  145.5567  142.0076  155.7141 C   0  0  0  0  0  0  0  0  0  0  0  0
  146.5981  142.7181  154.8540 C   0  0  0  0  0  0  0  0  0  0  0  0
  146.8398  141.7760  153.6656 C   0  0  0  0  0  0  0  0  0  0  0  0
  146.5413  136.8762  153.0854 N   0  0  0  0  0  0  0  0  0  0  0  0
  145.6574  136.0881  152.4558 C   0  0  0  0  0  0  0  0  0  0  0  0
  144.4389  136.2290  152.5495 O   0  0  0  0  0  0  0  0  0  0  0  0
  146.2802  135.1649  151.7030 N   0  0  0  0  0  0  0  0  0  0  0  0
  145.7090  134.1519  150.8857 C   0  0  0  0  0  0  0  0  0  0  0  0
  146.5152  133.0422  150.5575 C   0  0  0  0  0  0  0  0  0  0  0  0
  145.9678  132.0162  149.7614 C   0  0  0  0  0  0  0  0  0  0  0  0
  144.7002  132.0335  149.2985 N   0  0  0  0  0  0  0  0  0  0  0  0
  143.9250  133.0890  149.6256 C   0  0  0  0  0  0  0  0  0  0  0  0
  144.3739  134.1674  150.4144 C   0  0  0  0  0  0  0  0  0  0  0  0
  146.3215  136.0912  156.9731 H   0  0  0  0  0  0  0  0  0  0  0  0
  146.3352  135.4299  155.3441 H   0  0  0  0  0  0  0  0  0  0  0  0
  144.9349  136.3359  155.9163 H   0  0  0  0  0  0  0  0  0  0  0  0
  146.3725  138.3961  156.1166 H   0  0  0  0  0  0  0  0  0  0  0  0
  147.7378  137.5146  155.4870 H   0  0  0  0  0  0  0  0  0  0  0  0
  145.1417  138.1260  154.0250 H   0  0  0  0  0  0  0  0  0  0  0  0
  147.9287  139.3339  153.9100 H   0  0  0  0  0  0  0  0  0  0  0  0
  146.9594  139.2836  152.4592 H   0  0  0  0  0  0  0  0  0  0  0  0
  144.9561  139.9073  155.6538 H   0  0  0  0  0  0  0  0  0  0  0  0
  146.6598  140.1854  156.0194 H   0  0  0  0  0  0  0  0  0  0  0  0
  144.5531  142.2793  155.3838 H   0  0  0  0  0  0  0  0  0  0  0  0
  145.6412  142.2521  156.7735 H   0  0  0  0  0  0  0  0  0  0  0  0
  146.2715  143.7108  154.5426 H   0  0  0  0  0  0  0  0  0  0  0  0
  147.5224  142.8370  155.4211 H   0  0  0  0  0  0  0  0  0  0  0  0
  147.9108  141.6386  153.5092 H   0  0  0  0  0  0  0  0  0  0  0  0
  146.4186  142.1788  152.7442 H   0  0  0  0  0  0  0  0  0  0  0  0
  147.5227  136.6848  152.9424 H   0  0  0  0  0  0  0  0  0  0  0  0
  147.2873  135.2259  151.6691 H   0  0  0  0  0  0  0  0  0  0  0  0
  147.5368  132.9747  150.9025 H   0  0  0  0  0  0  0  0  0  0  0  0
  146.5647  131.1576  149.4908 H   0  0  0  0  0  0  0  0  0  0  0  0
  142.9120  133.0726  149.2515 H   0  0  0  0  0  0  0  0  0  0  0  0
  143.6872  134.9657  150.6486 H   0  0  0  0  0  0  0  0  0  0  0  0
  145.2909  140.5136  153.4818 H   0  0  0  0  0  0  0  0  0  0  0  0
  1  2  1  0  0  0  0
  1 20  1  0  0  0  0
  1 21  1  0  0  0  0
  1 22  1  0  0  0  0
  2  3  1  0  0  0  0
  2 23  1  0  0  0  0
  2 24  1  0  0  0  0
  3  4  1  0  0  0  0
  3 10  1  0  0  0  0
  3 25  1  0  0  0  0
  4  5  1  0  0  0  0
  4 26  1  0  0  0  0
  4 27  1  0  0  0  0
  5  9  1  0  0  0  0
  5  6  1  0  0  0  0
  5 42  1  0  0  0  0
  6  7  1  0  0  0  0
  6 28  1  0  0  0  0
  6 29  1  0  0  0  0
  7  8  1  0  0  0  0
  7 30  1  0  0  0  0
  7 31  1  0  0  0  0
  8  9  1  0  0  0  0
  8 32  1  0  0  0  0
  8 33  1  0  0  0  0
  9 34  1  0  0  0  0
  9 35  1  0  0  0  0
 10 11  1  0  0  0  0
 10 36  1  0  0  0  0
 11 12  2  0  0  0  0
 11 13  1  0  0  0  0
 13 14  1  0  0  0  0
 13 37  1  0  0  0  0
 14 19  1  0  0  0  0
 14 15  2  0  0  0  0
 15 16  1  0  0  0  0
 15 38  1  0  0  0  0
 16 17  2  0  0  0  0
 16 39  1  0  0  0  0
 17 18  1  0  0  0  0
 18 19  2  0  0  0  0
 18 40  1  0  0  0  0
 19 41  1  0  0  0  0
M  CHG  1   5   1
M  END
> <s_m_source_file>
AV-unprocessed.smi

> <i_m_source_file_index>
741

> <i_lp_mmshare_version>
43012

> <i_f3d_flags>
0

> <s_epik_input>
W0NIMl0xW0NIMl1bQ0gyXVtDSDJdTjFbQ0gyXVtDQEBIXShbQ0gyXVtDSDNdKVtOSF1DKD1PKVtOSF1jMltjSF1bY0hdbltjSF1bY0hdMg==

> <s_epik_cmdline>
J2VwaWtfcHl0aG9uJywgJy1waCcsICc3LjAnLCAnLXRuJywgJzgnLCAnLW1hJywgJzIwMCcsICctbWV0YWxfYmluZGluZycsICctaW1hZScsICc8aW5maWxlLm1hZT4nLCAnLW9tYWUnLCAnPG91dGZpbGUubWFlPic=

> <r_epik_Ionization_Penalty>
0.101421

> <r_epik_Ionization_Penalty_Charging>
0.00180027

> <r_epik_Ionization_Penalty_Neutral>
0.0996204

> <r_epik_State_Penalty>
0.0910414

> <r_epik_Charging_Adjusted_Penalty>
0.0928416

> <i_epik_Tot_Q>
1

> <i_epik_Tot_abs_Q>
1

> <r_epik_Metal_State_Penalty>
0.076772

> <b_epik_Metal_Only>
0

> <s_lp_Force_Field>
OPLS_2005

> <r_lp_Energy>
40.7955

> <b_lp_Chiralities_Consistent>
1

> <s_lp_Variant>
AV-unprocessed.smi:741-2

> <Gold.Version>
5.8.1

> <Gold.Id.Protein>
6NUR|6NUR_protein|mol2

> <Gold.PLP.Fitness>
46.5365

> <Gold.PLP.PLP>
-29.8459

> <Gold.PLP.part.hbond>
-3.7403

> <Gold.PLP.part.metal>
0.0000

> <Gold.PLP.part.buried>
-3.0670

> <Gold.PLP.part.nonpolar>
-22.9659

> <Gold.PLP.part.repulsive>
0.4076

> <Gold.PLP.ligand.clash>
0.0000

> <Gold.PLP.ligand.torsion>
0.4756

> <Gold.PLP.Chemscore.Hbond>
3.9920

> <Gold.PLP.Chemscore.CHOScore>
1.8689

> <Gold.PLP.Chemscore.Metal>
0.0000

> <Gold.Chemscore.Hbonds>
donor molecule, donor type, donor heavy atom, donor atom, acceptor molecule, acceptor atom, score
      L1  H     5    42       P1 10175  2.00
      L1  H    10    36       P1  7948  1.00
      L1  H    13    37       P1  7948  1.00
      L1  C    16    39       P1 10747  0.87
      L1  C    18    40       P1 10186  1.00

> <Gold.PLP.Chemscore.Internal.Correction>
0.0593

> <Gold.Rescore>
     Score         DG    S(hbond)    S(metal)    S(lipo)     H(rot)  DE(clash)    DE(int)     intcor
     17.79     -19.55       2.87        0.00      73.02       1.59       0.11       1.65       ----

> <Gold.Chemscore.Fitness>
17.7923

> <Gold.Chemscore.DG>
-19.5515

> <Gold.Chemscore.ZeroCoef>
-5.4800

> <Gold.Chemscore.Hbond>
2.8707

> <Gold.Chemscore.Metal>
0.0000

> <Gold.Chemscore.Lipo>
73.0169

> <Gold.Chemscore.Internal_Hbond>
0.0000

> <Gold.Chemscore.DEClash>
0.1101

> <Gold.Chemscore.DEInternal>
1.6490

> <Gold.Chemscore.Rot>
1.5858

> <Gold.Chemscore.Internal.Correction>
   9.000000E+99

> <Gold.Chemscore.Hbonds>
donor molecule, donor type, donor heavy atom, donor atom, acceptor molecule, acceptor atom, score
      L1  H     5    42       P1 10175  0.98
      L1  H    10    36       P1  7948  0.95
      L1  H    13    37       P1  7948  0.91
      P1  H 10785 10796       L1    17  0.01

> <Gold.Chemscore.Hbond.Weighted>
-9.5881

> <Gold.Chemscore.Metal.Weighted>
-0.0000

> <Gold.Chemscore.Lipo.Weighted>
-8.5430

> <Gold.Chemscore.Internal_Hbond.Weighted>
0.0000

> <Gold.Chemscore.DEClash.Weighted>
0.1101

> <Gold.Chemscore.DEInternal.Weighted>
1.6490

> <Gold.Chemscore.Rot.Weighted>
4.0596

> <Gold.Chemscore.Internal.Correction.Weighted>
   9.000000E+99

> <Gold.Protein.RotatedTorsions>
[ 6907 6896 6895 6894 ] final -147.04 input  -60.11 | X-H torsion
[ 7974 7965 7964 7962 ] final -170.66 input  175.53 | X-H torsion
[ 8008 7997 7996 7995 ] final  132.82 input   59.86 | X-H torsion
[ 10167 10162 10161 10158 ] final -129.33 input  -65.29 | X-H torsion
[ 10718 10713 10712 10709 ] final  -79.68 input   66.30 | X-H torsion
[ 10763 10752 10751 10750 ] final -115.09 input  -60.55 | X-H torsion
[ 11005 11000 10999 10996 ] final  -75.98 input  -57.11 | X-H torsion

> <Gold.Protein.ActiveResidues>
 VAL166  LYS551  ARG553  GLY616  TRP617  ASP618  TYR619  PRO620  LYS621  CYS622 
 ASP623  PHE694  ASN695  SER759  ASP760  ASP761  ALA762  ILE779  LEU786  VAL792 
 PHE793  MET794  SER795  GLU796  ALA797  LYS798  CYS799  TRP800  GLU811  SER814 

> <Gold.Protein.RotatedAtoms>
  151.1501  133.4913  159.2595 H   0  0  0  0  0  0  0  0  0  0  0  0  # atno 6907 bound_to 6896
  151.1563  135.0251  159.8700 H   0  0  0  0  0  0  0  0  0  0  0  0  # atno 6908 bound_to 6896
  152.5463  134.1380  159.8520 H   0  0  0  0  0  0  0  0  0  0  0  0  # atno 6909 bound_to 6896
  144.7167  140.2039  143.6335 H   0  0  0  0  0  0  0  0  0  0  0  0  # atno 7974 bound_to 7965
  156.2986  140.2537  156.3151 H   0  0  0  0  0  0  0  0  0  0  0  0  # atno 8008 bound_to 7997
  154.9289  140.0399  157.2056 H   0  0  0  0  0  0  0  0  0  0  0  0  # atno 8009 bound_to 7997
  154.8238  140.2864  155.5773 H   0  0  0  0  0  0  0  0  0  0  0  0  # atno 8010 bound_to 7997
  139.9409  143.6164  152.2504 H   0  0  0  0  0  0  0  0  0  0  0  0  # atno 10167 bound_to 10162
  156.0087  130.4552  150.3685 H   0  0  0  0  0  0  0  0  0  0  0  0  # atno 10718 bound_to 10713
  154.8467  135.4394  154.1608 H   0  0  0  0  0  0  0  0  0  0  0  0  # atno 10763 bound_to 10752
  153.2746  135.6948  153.7453 H   0  0  0  0  0  0  0  0  0  0  0  0  # atno 10764 bound_to 10752
  153.6680  135.3423  155.3120 H   0  0  0  0  0  0  0  0  0  0  0  0  # atno 10765 bound_to 10752
  141.1650  133.6966  156.7599 H   0  0  0  0  0  0  0  0  0  0  0  0  # atno 11005 bound_to 11000
  145.8654  139.2244  143.1692 LP  0  0  0  0  0  0  0  0  0  0  0  0  # atno 17320 bound_to 7965
  146.0134  140.8414  142.9959 LP  0  0  0  0  0  0  0  0  0  0  0  0  # atno 17321 bound_to 7965
  139.6705  144.7661  151.1792 LP  0  0  0  0  0  0  0  0  0  0  0  0  # atno 17342 bound_to 10162
  140.7611  143.5872  150.8834 LP  0  0  0  0  0  0  0  0  0  0  0  0  # atno 17343 bound_to 10162
  157.1771  131.0383  151.2767 LP  0  0  0  0  0  0  0  0  0  0  0  0  # atno 17370 bound_to 10713
  157.4178  130.7421  149.6889 LP  0  0  0  0  0  0  0  0  0  0  0  0  # atno 17371 bound_to 10713
  140.2541  134.8517  157.3696 LP  0  0  0  0  0  0  0  0  0  0  0  0  # atno 17394 bound_to 11000
  140.1674  134.4652  155.7854 LP  0  0  0  0  0  0  0  0  0  0  0  0  # atno 17395 bound_to 11000

$$$$
