AV-unprocessed.smi:2466|AV-procd|sdf|9724|dock10
  -GOLD-   2272013363D 1   1.00000     0.00000
 Structure written by MMmdl.
 36 37  0  0  0  0  0  0  0  0  1 V2000
  150.9715  141.5301  156.1473 C   0  0  0  0  0  0  0  0  0  0  0  0
  150.6807  140.4918  155.2184 O   0  0  0  0  0  0  0  0  0  0  0  0
  149.3902  140.3856  154.7427 C   0  0  0  0  0  0  0  0  0  0  0  0
  149.0316  139.2674  153.9625 C   0  0  0  0  0  0  0  0  0  0  0  0
  147.6991  139.1953  153.4978 C   0  0  0  0  0  0  0  0  0  0  0  0
  147.3788  138.0506  152.7210 N   0  0  0  0  0  0  0  0  0  0  0  0
  146.1609  137.5942  152.3797 C   0  0  0  0  0  0  0  0  0  0  0  0
  145.0922  138.1269  152.6799 O   0  0  0  0  0  0  0  0  0  0  0  0
  146.2515  136.4683  151.6563 N   0  0  0  0  0  0  0  0  0  0  0  0
  145.1255  135.6983  151.1320 C   0  0  0  0  0  0  0  0  0  0  0  0
  145.2681  134.1925  151.4054 C   0  0  0  0  0  0  0  0  0  0  0  0
  145.0977  133.9523  152.9130 C   0  0  0  0  0  0  0  0  0  0  0  0
  144.4453  133.2574  150.4928 C   0  0  0  0  0  0  0  0  0  0  0  0
  145.6454  132.3164  150.4045 C   0  0  0  0  0  0  0  0  0  0  0  0
  146.5095  133.5187  150.7815 C   0  0  0  0  0  0  0  0  0  0  0  0
  146.8213  140.1822  153.8049 N   0  0  0  0  0  0  0  0  0  0  0  0
  147.2593  141.1996  154.5488 C   0  0  0  0  0  0  0  0  0  0  0  0
  148.4912  141.3565  155.0346 N   0  0  0  0  0  0  0  0  0  0  0  0
  152.0242  141.4814  156.4255 H   0  0  0  0  0  0  0  0  0  0  0  0
  150.3833  141.4243  157.0600 H   0  0  0  0  0  0  0  0  0  0  0  0
  150.7883  142.5151  155.7154 H   0  0  0  0  0  0  0  0  0  0  0  0
  149.7541  138.4971  153.7348 H   0  0  0  0  0  0  0  0  0  0  0  0
  148.1675  137.5102  152.3984 H   0  0  0  0  0  0  0  0  0  0  0  0
  147.1731  136.1091  151.4544 H   0  0  0  0  0  0  0  0  0  0  0  0
  144.2281  136.0841  151.6163 H   0  0  0  0  0  0  0  0  0  0  0  0
  144.9794  135.8846  150.0665 H   0  0  0  0  0  0  0  0  0  0  0  0
  145.3269  132.9224  153.1869 H   0  0  0  0  0  0  0  0  0  0  0  0
  144.0761  134.1446  153.2412 H   0  0  0  0  0  0  0  0  0  0  0  0
  145.7582  134.5924  153.4987 H   0  0  0  0  0  0  0  0  0  0  0  0
  143.5617  132.8223  150.9609 H   0  0  0  0  0  0  0  0  0  0  0  0
  144.1997  133.7077  149.5292 H   0  0  0  0  0  0  0  0  0  0  0  0
  145.6362  131.5390  151.1698 H   0  0  0  0  0  0  0  0  0  0  0  0
  145.8356  131.9088  149.4112 H   0  0  0  0  0  0  0  0  0  0  0  0
  146.8896  134.0456  149.9043 H   0  0  0  0  0  0  0  0  0  0  0  0
  147.3130  133.2963  151.4845 H   0  0  0  0  0  0  0  0  0  0  0  0
  146.5431  141.9736  154.7820 H   0  0  0  0  0  0  0  0  0  0  0  0
  1  2  1  0  0  0  0
  1 19  1  0  0  0  0
  1 20  1  0  0  0  0
  1 21  1  0  0  0  0
  2  3  1  0  0  0  0
  3 18  1  0  0  0  0
  3  4  2  0  0  0  0
  4  5  1  0  0  0  0
  4 22  1  0  0  0  0
  5  6  1  0  0  0  0
  5 16  2  0  0  0  0
  6  7  1  0  0  0  0
  6 23  1  0  0  0  0
  7  8  2  0  0  0  0
  7  9  1  0  0  0  0
  9 10  1  0  0  0  0
  9 24  1  0  0  0  0
 10 11  1  0  0  0  0
 10 25  1  0  0  0  0
 10 26  1  0  0  0  0
 11 15  1  0  0  0  0
 11 12  1  0  0  0  0
 11 13  1  0  0  0  0
 12 27  1  0  0  0  0
 12 28  1  0  0  0  0
 12 29  1  0  0  0  0
 13 14  1  0  0  0  0
 13 30  1  0  0  0  0
 13 31  1  0  0  0  0
 14 15  1  0  0  0  0
 14 32  1  0  0  0  0
 14 33  1  0  0  0  0
 15 34  1  0  0  0  0
 15 35  1  0  0  0  0
 16 17  1  0  0  0  0
 17 18  2  0  0  0  0
 17 36  1  0  0  0  0
M  END
> <s_m_source_file>
AV-unprocessed.smi

> <i_m_source_file_index>
2466

> <i_lp_mmshare_version>
43012

> <i_f3d_flags>
0

> <s_epik_input>
W0NIM11PYzFbY0hdYyhuW2NIXW4xKVtOSF1DKD1PKVtOSF1bQ0gyXUMyKFtDSDNdKVtDSDJdW0NIMl1bQ0gyXTI=

> <s_epik_cmdline>
J2VwaWtfcHl0aG9uJywgJy1waCcsICc3LjAnLCAnLXRuJywgJzgnLCAnLW1hJywgJzIwMCcsICctbWV0YWxfYmluZGluZycsICctaW1hZScsICc8aW5maWxlLm1hZT4nLCAnLW9tYWUnLCAnPG91dGZpbGUubWFlPic=

> <r_lp_tautomer_probability>
1

> <r_epik_Ionization_Penalty>
2.72078e-05

> <r_epik_Ionization_Penalty_Charging>
0

> <r_epik_Ionization_Penalty_Neutral>
2.72078e-05

> <r_epik_State_Penalty>
-0

> <r_epik_Charging_Adjusted_Penalty>
0

> <i_epik_Tot_Q>
0

> <i_epik_Tot_abs_Q>
0

> <r_epik_Metal_State_Penalty>
-0

> <b_epik_Metal_Only>
0

> <s_lp_Force_Field>
OPLS_2005

> <r_lp_Energy>
15.1515

> <b_lp_Chiralities_Consistent>
1

> <s_lp_Variant>
AV-unprocessed.smi:2466-1

> <Gold.Version>
5.8.1

> <Gold.Id.Protein>
6NUR|6NUR_protein|mol2

> <Gold.PLP.Fitness>
36.6954

> <Gold.PLP.PLP>
-28.3640

> <Gold.PLP.part.hbond>
-3.0000

> <Gold.PLP.part.metal>
0.0000

> <Gold.PLP.part.buried>
-4.0471

> <Gold.PLP.part.nonpolar>
-24.0325

> <Gold.PLP.part.repulsive>
3.1789

> <Gold.PLP.ligand.clash>
0.0000

> <Gold.PLP.ligand.torsion>
0.3117

> <Gold.PLP.Chemscore.Hbond>
2.9440

> <Gold.PLP.Chemscore.CHOScore>
0.0000

> <Gold.PLP.Chemscore.Metal>
0.0000

> <Gold.Chemscore.Hbonds>
donor molecule, donor type, donor heavy atom, donor atom, acceptor molecule, acceptor atom, score
      L1  H     6    23       P1  7948  1.00
      L1  H     9    24       P1  7948  0.93
      P1  H  7989  7998       L1     2  0.95

> <Gold.PLP.Chemscore.Internal.Correction>
0.1229

> <Gold.Rescore>
     Score         DG    S(hbond)    S(metal)    S(lipo)     H(rot)  DE(clash)    DE(int)     intcor
     12.60     -15.48       2.41        0.00      52.09       1.62       1.11       1.77       ----

> <Gold.Chemscore.Fitness>
12.6033

> <Gold.Chemscore.DG>
-15.4810

> <Gold.Chemscore.ZeroCoef>
-5.4800

> <Gold.Chemscore.Hbond>
2.4120

> <Gold.Chemscore.Metal>
0.0000

> <Gold.Chemscore.Lipo>
52.0857

> <Gold.Chemscore.Internal_Hbond>
0.0000

> <Gold.Chemscore.DEClash>
1.1098

> <Gold.Chemscore.DEInternal>
1.7679

> <Gold.Chemscore.Rot>
1.6207

> <Gold.Chemscore.Internal.Correction>
   9.000000E+99

> <Gold.Chemscore.Hbonds>
donor molecule, donor type, donor heavy atom, donor atom, acceptor molecule, acceptor atom, score
      L1  H     6    23       P1  7948  0.97
      L1  H     9    24       P1  7948  0.91
      P1  H  7989  7998       L1     2  0.13

> <Gold.Chemscore.Hbond.Weighted>
-8.0561

> <Gold.Chemscore.Metal.Weighted>
-0.0000

> <Gold.Chemscore.Lipo.Weighted>
-6.0940

> <Gold.Chemscore.Internal_Hbond.Weighted>
0.0000

> <Gold.Chemscore.DEClash.Weighted>
1.1098

> <Gold.Chemscore.DEInternal.Weighted>
1.7679

> <Gold.Chemscore.Rot.Weighted>
4.1491

> <Gold.Chemscore.Internal.Correction.Weighted>
   9.000000E+99

> <Gold.Protein.RotatedTorsions>
[ 6907 6896 6895 6894 ] final   60.32 input  -60.11 | X-H torsion
[ 7974 7965 7964 7962 ] final -160.24 input  175.53 | X-H torsion
[ 8008 7997 7996 7995 ] final   90.98 input   59.86 | X-H torsion
[ 10167 10162 10161 10158 ] final  179.39 input  -65.29 | X-H torsion
[ 10718 10713 10712 10709 ] final   94.27 input   66.30 | X-H torsion
[ 10763 10752 10751 10750 ] final   43.32 input  -60.55 | X-H torsion
[ 11005 11000 10999 10996 ] final -164.41 input  -57.11 | X-H torsion

> <Gold.Protein.ActiveResidues>
 VAL166  LYS551  ARG553  GLY616  TRP617  ASP618  TYR619  PRO620  LYS621  CYS622 
 ASP623  PHE694  ASN695  SER759  ASP760  ASP761  ALA762  ILE779  LEU786  VAL792 
 PHE793  MET794  SER795  GLU796  ALA797  LYS798  CYS799  TRP800  GLU811  SER814 

> <Gold.Protein.RotatedAtoms>
  152.3993  134.6313  160.0076 H   0  0  0  0  0  0  0  0  0  0  0  0  # atno 6907 bound_to 6896
  151.6523  133.3315  159.3163 H   0  0  0  0  0  0  0  0  0  0  0  0  # atno 6908 bound_to 6896
  150.7895  134.6951  159.6563 H   0  0  0  0  0  0  0  0  0  0  0  0  # atno 6909 bound_to 6896
  144.7434  140.3570  143.6104 H   0  0  0  0  0  0  0  0  0  0  0  0  # atno 7974 bound_to 7965
  156.0184  140.3343  155.7013 H   0  0  0  0  0  0  0  0  0  0  0  0  # atno 8008 bound_to 7997
  155.6058  140.0660  157.2738 H   0  0  0  0  0  0  0  0  0  0  0  0  # atno 8009 bound_to 7997
  154.4307  140.1802  156.1208 H   0  0  0  0  0  0  0  0  0  0  0  0  # atno 8010 bound_to 7997
  139.5334  144.2567  152.0740 H   0  0  0  0  0  0  0  0  0  0  0  0  # atno 10167 bound_to 10162
  157.6949  131.0507  150.4161 H   0  0  0  0  0  0  0  0  0  0  0  0  # atno 10718 bound_to 10713
  152.9863  135.6105  154.3092 H   0  0  0  0  0  0  0  0  0  0  0  0  # atno 10763 bound_to 10752
  154.2808  135.2777  155.2700 H   0  0  0  0  0  0  0  0  0  0  0  0  # atno 10764 bound_to 10752
  154.5039  135.5859  153.6609 H   0  0  0  0  0  0  0  0  0  0  0  0  # atno 10765 bound_to 10752
  140.5872  134.5082  157.5187 H   0  0  0  0  0  0  0  0  0  0  0  0  # atno 11005 bound_to 11000
  145.7217  139.1711  143.2481 LP  0  0  0  0  0  0  0  0  0  0  0  0  # atno 17320 bound_to 7965
  146.1272  140.7232  142.9429 LP  0  0  0  0  0  0  0  0  0  0  0  0  # atno 17321 bound_to 7965
  140.2034  144.4635  150.6420 LP  0  0  0  0  0  0  0  0  0  0  0  0  # atno 17342 bound_to 10162
  140.6526  143.2229  151.6041 LP  0  0  0  0  0  0  0  0  0  0  0  0  # atno 17343 bound_to 10162
  156.4540  130.4017  149.6618 LP  0  0  0  0  0  0  0  0  0  0  0  0  # atno 17370 bound_to 10713
  156.3757  130.7553  151.2541 LP  0  0  0  0  0  0  0  0  0  0  0  0  # atno 17371 bound_to 10713
  139.9290  134.7999  156.0984 LP  0  0  0  0  0  0  0  0  0  0  0  0  # atno 17394 bound_to 11000
  141.0958  133.6696  156.2643 LP  0  0  0  0  0  0  0  0  0  0  0  0  # atno 17395 bound_to 11000

$$$$
