AV-unprocessed.smi:2718|AV-procd|sdf|10486|dock1
  -GOLD-   2272014533D 1   1.00000     0.00000
 Structure written by MMmdl.
 47 48  0  0  0  0  0  0  0  0  1 V2000
  155.1391  140.5949  159.8711 C   0  0  0  0  0  0  0  0  0  0  0  0
  153.9159  141.4074  160.2464 C   0  0  0  0  0  0  0  0  0  0  0  0
  153.7919  141.7205  161.7274 C   0  0  0  0  0  0  0  0  0  0  0  0
  153.0233  141.8118  159.3227 C   0  0  0  0  0  0  0  0  0  0  0  0
  151.7963  142.6131  159.5720 C   0  0  2  0  0  0  0  0  0  0  0  0
  150.8215  142.9201  158.4489 C   0  0  1  0  0  0  0  0  0  0  0  0
  149.3537  142.9020  158.7404 C   0  0  0  0  0  0  0  0  0  0  0  0
  148.8523  143.4146  159.7417 O   0  0  0  0  0  0  0  0  0  0  0  0
  148.6317  142.2684  157.8047 N   0  0  0  0  0  0  0  0  0  0  0  0
  147.1833  142.0768  157.8250 C   0  0  0  0  0  0  0  0  0  0  0  0
  146.6969  140.8851  156.9669 C   0  0  2  0  0  0  0  0  0  0  0  0
  146.7857  139.5593  157.7363 C   0  0  0  0  0  0  0  0  0  0  0  0
  147.3881  140.7972  155.6322 C   0  0  0  0  0  0  0  0  0  0  0  0
  148.2153  139.8000  155.2906 N   0  0  0  0  0  0  0  0  0  0  0  0
  148.6290  140.0809  154.0045 N   0  0  0  0  0  0  0  0  0  0  0  0
  147.9981  141.2107  153.6893 C   0  0  0  0  0  0  0  0  0  0  0  0
  147.2045  141.7056  154.6506 N   0  0  0  0  0  0  0  0  0  0  0  0
  146.3780  142.8960  154.6104 C   0  0  0  0  0  0  0  0  0  0  0  0
  151.6744  144.0332  159.0459 C   0  0  0  0  0  0  0  0  0  0  0  0
  151.1161  145.1067  159.9707 C   0  0  0  0  0  0  0  0  0  0  0  0
  152.7504  144.6437  158.1605 C   0  0  0  0  0  0  0  0  0  0  0  0
  155.1331  139.6384  160.3947 H   0  0  0  0  0  0  0  0  0  0  0  0
  156.0471  141.1315  160.1472 H   0  0  0  0  0  0  0  0  0  0  0  0
  155.1758  140.3948  158.7998 H   0  0  0  0  0  0  0  0  0  0  0  0
  154.6514  142.3024  162.0609 H   0  0  0  0  0  0  0  0  0  0  0  0
  153.7615  140.7961  162.3046 H   0  0  0  0  0  0  0  0  0  0  0  0
  152.8920  142.2886  161.9612 H   0  0  0  0  0  0  0  0  0  0  0  0
  153.1906  141.5390  158.2909 H   0  0  0  0  0  0  0  0  0  0  0  0
  151.3789  142.4079  160.5565 H   0  0  0  0  0  0  0  0  0  0  0  0
  151.0996  142.5950  157.4471 H   0  0  0  0  0  0  0  0  0  0  0  0
  149.1256  141.8831  157.0125 H   0  0  0  0  0  0  0  0  0  0  0  0
  146.9075  141.9070  158.8662 H   0  0  0  0  0  0  0  0  0  0  0  0
  146.6819  142.9971  157.5219 H   0  0  0  0  0  0  0  0  0  0  0  0
  145.6367  141.0541  156.7829 H   0  0  0  0  0  0  0  0  0  0  0  0
  146.3571  138.7412  157.1564 H   0  0  0  0  0  0  0  0  0  0  0  0
  146.2427  139.6158  158.6800 H   0  0  0  0  0  0  0  0  0  0  0  0
  147.8204  139.3000  157.9634 H   0  0  0  0  0  0  0  0  0  0  0  0
  148.1138  141.6868  152.7266 H   0  0  0  0  0  0  0  0  0  0  0  0
  146.5327  143.4288  153.6714 H   0  0  0  0  0  0  0  0  0  0  0  0
  146.6368  143.5570  155.4371 H   0  0  0  0  0  0  0  0  0  0  0  0
  145.3276  142.6154  154.6913 H   0  0  0  0  0  0  0  0  0  0  0  0
  150.5491  145.8404  159.3977 H   0  0  0  0  0  0  0  0  0  0  0  0
  151.9278  145.6225  160.4844 H   0  0  0  0  0  0  0  0  0  0  0  0
  150.4665  144.6803  160.7339 H   0  0  0  0  0  0  0  0  0  0  0  0
  152.3427  145.4793  157.5909 H   0  0  0  0  0  0  0  0  0  0  0  0
  153.1400  143.9117  157.4529 H   0  0  0  0  0  0  0  0  0  0  0  0
  153.5809  145.0065  158.7666 H   0  0  0  0  0  0  0  0  0  0  0  0
  1  2  1  0  0  0  0
  1 22  1  0  0  0  0
  1 23  1  0  0  0  0
  1 24  1  0  0  0  0
  2  3  1  0  0  0  0
  2  4  2  0  0  0  0
  3 25  1  0  0  0  0
  3 26  1  0  0  0  0
  3 27  1  0  0  0  0
  4  5  1  0  0  0  0
  4 28  1  0  0  0  0
  5 19  1  0  0  0  0
  5  6  1  0  0  0  0
  5 29  1  0  0  0  0
  6  7  1  0  0  0  0
  6 19  1  0  0  0  0
  6 30  1  0  0  0  0
  7  8  2  0  0  0  0
  7  9  1  0  0  0  0
  9 10  1  0  0  0  0
  9 31  1  0  0  0  0
 10 11  1  0  0  0  0
 10 32  1  0  0  0  0
 10 33  1  0  0  0  0
 11 12  1  0  0  0  0
 11 13  1  0  0  0  0
 11 34  1  0  0  0  0
 12 35  1  0  0  0  0
 12 36  1  0  0  0  0
 12 37  1  0  0  0  0
 13 17  1  0  0  0  0
 13 14  2  0  0  0  0
 14 15  1  0  0  0  0
 15 16  2  0  0  0  0
 16 17  1  0  0  0  0
 16 38  1  0  0  0  0
 17 18  1  0  0  0  0
 18 39  1  0  0  0  0
 18 40  1  0  0  0  0
 18 41  1  0  0  0  0
 19 20  1  0  0  0  0
 19 21  1  0  0  0  0
 20 42  1  0  0  0  0
 20 43  1  0  0  0  0
 20 44  1  0  0  0  0
 21 45  1  0  0  0  0
 21 46  1  0  0  0  0
 21 47  1  0  0  0  0
M  END
> <s_m_source_file>
AV-unprocessed.smi

> <i_m_source_file_index>
2718

> <i_lp_mmshare_version>
43012

> <i_f3d_flags>
0

> <s_epik_input>
W0NIM11DKFtDSDNdKT1bQ0hdW0NAQEhdKEMxKFtDSDNdKVtDSDNdKVtDQEhdMUMoPU8pW05IXVtDSDJdW0NASF0oW0NIM10pYzJubltjSF1uMltDSDNd

> <s_epik_cmdline>
J2VwaWtfcHl0aG9uJywgJy1waCcsICc3LjAnLCAnLXRuJywgJzgnLCAnLW1hJywgJzIwMCcsICctbWV0YWxfYmluZGluZycsICctaW1hZScsICc8aW5maWxlLm1hZT4nLCAnLW9tYWUnLCAnPG91dGZpbGUubWFlPic=

> <r_lp_tautomer_probability>
1

> <r_epik_Ionization_Penalty>
0.000449586

> <r_epik_Ionization_Penalty_Charging>
0

> <r_epik_Ionization_Penalty_Neutral>
0.000449586

> <r_epik_State_Penalty>
0.000243372

> <r_epik_Charging_Adjusted_Penalty>
0.000243372

> <i_epik_Tot_Q>
0

> <i_epik_Tot_abs_Q>
0

> <r_epik_Metal_State_Penalty>
-0

> <b_epik_Metal_Only>
0

> <s_lp_Force_Field>
OPLS_2005

> <r_lp_Energy>
15.15

> <b_lp_Chiralities_Consistent>
1

> <s_lp_Variant>
AV-unprocessed.smi:2718-1

> <Gold.Version>
5.8.1

> <Gold.Id.Protein>
6NUR|6NUR_protein|mol2

> <Gold.PLP.Fitness>
45.6622

> <Gold.PLP.PLP>
-45.2509

> <Gold.PLP.part.hbond>
-1.7363

> <Gold.PLP.part.metal>
0.0000

> <Gold.PLP.part.buried>
-5.0173

> <Gold.PLP.part.nonpolar>
-40.0626

> <Gold.PLP.part.repulsive>
0.7896

> <Gold.PLP.ligand.clash>
0.0000

> <Gold.PLP.ligand.torsion>
1.1818

> <Gold.PLP.Chemscore.Hbond>
0.1087

> <Gold.PLP.Chemscore.CHOScore>
0.7270

> <Gold.PLP.Chemscore.Metal>
0.0000

> <Gold.Chemscore.Hbonds>
donor molecule, donor type, donor heavy atom, donor atom, acceptor molecule, acceptor atom, score
      P1  H  6933  6944       L1     8  0.51
      L1  C    16    38       P1  7957  0.34

> <Gold.PLP.Chemscore.Internal.Correction>
0.2679

> <Gold.Rescore>
     Score         DG    S(hbond)    S(metal)    S(lipo)     H(rot)  DE(clash)    DE(int)     intcor
     12.08     -14.35       0.64        0.00     100.36       1.95       0.14       2.13       ----

> <Gold.Chemscore.Fitness>
12.0804

> <Gold.Chemscore.DG>
-14.3459

> <Gold.Chemscore.ZeroCoef>
-5.4800

> <Gold.Chemscore.Hbond>
0.6362

> <Gold.Chemscore.Metal>
0.0000

> <Gold.Chemscore.Lipo>
100.3557

> <Gold.Chemscore.Internal_Hbond>
0.0000

> <Gold.Chemscore.DEClash>
0.1385

> <Gold.Chemscore.DEInternal>
2.1270

> <Gold.Chemscore.Rot>
1.9533

> <Gold.Chemscore.Internal.Correction>
   9.000000E+99

> <Gold.Chemscore.Hbonds>
donor molecule, donor type, donor heavy atom, donor atom, acceptor molecule, acceptor atom, score
      P1  H  6933  6944       L1     8  0.49

> <Gold.Chemscore.Hbond.Weighted>
-2.1248

> <Gold.Chemscore.Metal.Weighted>
-0.0000

> <Gold.Chemscore.Lipo.Weighted>
-11.7416

> <Gold.Chemscore.Internal_Hbond.Weighted>
0.0000

> <Gold.Chemscore.DEClash.Weighted>
0.1385

> <Gold.Chemscore.DEInternal.Weighted>
2.1270

> <Gold.Chemscore.Rot.Weighted>
5.0005

> <Gold.Chemscore.Internal.Correction.Weighted>
   9.000000E+99

> <Gold.Protein.RotatedTorsions>
[ 6907 6896 6895 6894 ] final  -91.56 input  -60.11 | X-H torsion
[ 7974 7965 7964 7962 ] final  -48.71 input  175.53 | X-H torsion
[ 8008 7997 7996 7995 ] final  110.46 input   59.86 | X-H torsion
[ 10167 10162 10161 10158 ] final  -86.00 input  -65.29 | X-H torsion
[ 10718 10713 10712 10709 ] final  115.30 input   66.30 | X-H torsion
[ 10763 10752 10751 10750 ] final  -40.55 input  -60.55 | X-H torsion
[ 11005 11000 10999 10996 ] final -103.81 input  -57.11 | X-H torsion

> <Gold.Protein.ActiveResidues>
 VAL166  LYS551  ARG553  GLY616  TRP617  ASP618  TYR619  PRO620  LYS621  CYS622 
 ASP623  PHE694  ASN695  SER759  ASP760  ASP761  ALA762  ILE779  LEU786  VAL792 
 PHE793  MET794  SER795  GLU796  ALA797  LYS798  CYS799  TRP800  GLU811  SER814 

> <Gold.Protein.RotatedAtoms>
  150.6894  134.2258  159.4414 H   0  0  0  0  0  0  0  0  0  0  0  0  # atno 6907 bound_to 6896
  152.0212  134.9819  160.0580 H   0  0  0  0  0  0  0  0  0  0  0  0  # atno 6908 bound_to 6896
  152.1396  133.4421  159.4797 H   0  0  0  0  0  0  0  0  0  0  0  0  # atno 6909 bound_to 6896
  145.9483  140.7596  142.9517 H   0  0  0  0  0  0  0  0  0  0  0  0  # atno 7974 bound_to 7965
  156.2054  140.3038  155.9616 H   0  0  0  0  0  0  0  0  0  0  0  0  # atno 8008 bound_to 7997
  155.2853  140.0439  157.3036 H   0  0  0  0  0  0  0  0  0  0  0  0  # atno 8009 bound_to 7997
  154.5626  140.2325  155.8320 H   0  0  0  0  0  0  0  0  0  0  0  0  # atno 8010 bound_to 7997
  140.3984  143.2673  151.9174 H   0  0  0  0  0  0  0  0  0  0  0  0  # atno 10167 bound_to 10162
  157.6230  131.1010  150.7310 H   0  0  0  0  0  0  0  0  0  0  0  0  # atno 10718 bound_to 10713
  153.9478  135.6754  153.4744 H   0  0  0  0  0  0  0  0  0  0  0  0  # atno 10763 bound_to 10752
  153.0899  135.4880  154.8666 H   0  0  0  0  0  0  0  0  0  0  0  0  # atno 10764 bound_to 10752
  154.7342  135.3145  154.8799 H   0  0  0  0  0  0  0  0  0  0  0  0  # atno 10765 bound_to 10752
  141.1129  133.8671  157.1533 H   0  0  0  0  0  0  0  0  0  0  0  0  # atno 11005 bound_to 11000
  144.6791  140.2393  143.7345 LP  0  0  0  0  0  0  0  0  0  0  0  0  # atno 17320 bound_to 7965
  145.8206  139.2042  143.1940 LP  0  0  0  0  0  0  0  0  0  0  0  0  # atno 17321 bound_to 7965
  139.4785  144.5658  151.8167 LP  0  0  0  0  0  0  0  0  0  0  0  0  # atno 17342 bound_to 10162
  140.4766  144.1510  150.5926 LP  0  0  0  0  0  0  0  0  0  0  0  0  # atno 17343 bound_to 10162
  156.7663  130.4815  149.5427 LP  0  0  0  0  0  0  0  0  0  0  0  0  # atno 17370 bound_to 10713
  156.1386  130.6228  151.0435 LP  0  0  0  0  0  0  0  0  0  0  0  0  # atno 17371 bound_to 10713
  140.0033  135.0019  157.0237 LP  0  0  0  0  0  0  0  0  0  0  0  0  # atno 17394 bound_to 11000
  140.4726  134.1370  155.7205 LP  0  0  0  0  0  0  0  0  0  0  0  0  # atno 17395 bound_to 11000

$$$$
