AV-unprocessed.smi:1644|AV-procd|sdf|6585|dock9
  -GOLD-   22720 7273D 1   1.00000     0.00000
 Structure written by MMmdl.
 49 51  0  0  0  0  0  0  0  0  1 V2000
  148.4763  131.2508  154.4014 C   0  0  0  0  0  0  0  0  0  0  0  0
  148.9538  132.2487  153.3406 C   0  0  0  0  0  0  0  0  0  0  0  0
  149.8118  133.3765  153.9394 C   0  0  0  0  0  0  0  0  0  0  0  0
  149.0337  134.3549  154.8454 C   0  0  1  0  0  0  0  0  0  0  0  0
  148.7010  133.7431  156.1164 N   0  0  0  0  0  0  0  0  0  0  0  0
  149.2302  134.3930  157.1604 C   0  0  0  0  0  0  0  0  0  0  0  0
  149.1107  134.0585  158.3379 O   0  0  0  0  0  0  0  0  0  0  0  0
  149.9100  135.4557  156.6961 N   0  0  0  0  0  0  0  0  0  0  0  0
  150.6585  136.3922  157.5398 C   0  0  0  0  0  0  0  0  0  0  0  0
  152.0694  136.6581  156.9753 C   0  0  2  0  0  0  0  0  0  0  0  0
  152.9159  135.5849  157.3401 O   0  0  0  0  0  0  0  0  0  0  0  0
  152.6760  137.9608  157.5294 C   0  0  0  0  0  0  0  0  0  0  0  0
  152.0784  139.1399  156.9303 N   0  0  0  0  0  0  0  0  0  0  0  0
  151.5507  139.2527  155.6963 C   0  0  0  0  0  0  0  0  0  0  0  0
  151.0513  140.4374  155.3543 N   0  0  0  0  0  0  0  0  0  0  0  0
  151.2814  141.1785  156.5012 C   0  0  0  0  0  0  0  0  0  0  0  0
  150.9841  142.5268  156.7977 C   0  0  0  0  0  0  0  0  0  0  0  0
  151.3145  143.0824  158.0545 C   0  0  0  0  0  0  0  0  0  0  0  0
  150.9761  144.5367  158.3307 C   0  0  0  0  0  0  0  0  0  0  0  0
  151.9535  142.2858  159.0384 C   0  0  0  0  0  0  0  0  0  0  0  0
  152.3176  142.8606  160.3959 C   0  0  0  0  0  0  0  0  0  0  0  0
  152.2580  140.9372  158.7585 C   0  0  0  0  0  0  0  0  0  0  0  0
  151.9238  140.3962  157.5045 C   0  0  0  0  0  0  0  0  0  0  0  0
  149.8624  135.5217  155.3588 C   0  0  0  0  0  0  0  0  0  0  0  0
  150.3925  136.3687  154.6400 O   0  0  0  0  0  0  0  0  0  0  0  0
  147.8652  130.4683  153.9508 H   0  0  0  0  0  0  0  0  0  0  0  0
  147.8749  131.7441  155.1654 H   0  0  0  0  0  0  0  0  0  0  0  0
  149.3202  130.7692  154.8967 H   0  0  0  0  0  0  0  0  0  0  0  0
  149.5158  131.7060  152.5811 H   0  0  0  0  0  0  0  0  0  0  0  0
  148.0878  132.6782  152.8358 H   0  0  0  0  0  0  0  0  0  0  0  0
  150.6199  132.9293  154.5202 H   0  0  0  0  0  0  0  0  0  0  0  0
  150.2957  133.9272  153.1308 H   0  0  0  0  0  0  0  0  0  0  0  0
  148.1250  134.7154  154.3617 H   0  0  0  0  0  0  0  0  0  0  0  0
  148.1417  132.9056  156.1912 H   0  0  0  0  0  0  0  0  0  0  0  0
  150.0972  137.3274  157.5791 H   0  0  0  0  0  0  0  0  0  0  0  0
  150.7069  136.0480  158.5749 H   0  0  0  0  0  0  0  0  0  0  0  0
  152.0347  136.7221  155.8868 H   0  0  0  0  0  0  0  0  0  0  0  0
  152.4135  134.9624  157.8434 H   0  0  0  0  0  0  0  0  0  0  0  0
  152.5199  138.0202  158.6073 H   0  0  0  0  0  0  0  0  0  0  0  0
  153.7548  137.9862  157.3672 H   0  0  0  0  0  0  0  0  0  0  0  0
  151.5290  138.4172  155.0120 H   0  0  0  0  0  0  0  0  0  0  0  0
  150.4974  143.1334  156.0481 H   0  0  0  0  0  0  0  0  0  0  0  0
  151.8840  145.1100  158.5190 H   0  0  0  0  0  0  0  0  0  0  0  0
  150.3266  144.6200  159.2023 H   0  0  0  0  0  0  0  0  0  0  0  0
  150.4609  144.9937  157.4855 H   0  0  0  0  0  0  0  0  0  0  0  0
  152.8153  142.1191  161.0214 H   0  0  0  0  0  0  0  0  0  0  0  0
  151.4229  143.1953  160.9212 H   0  0  0  0  0  0  0  0  0  0  0  0
  152.9915  143.7100  160.2831 H   0  0  0  0  0  0  0  0  0  0  0  0
  152.7432  140.3175  159.4985 H   0  0  0  0  0  0  0  0  0  0  0  0
  1  2  1  0  0  0  0
  1 26  1  0  0  0  0
  1 27  1  0  0  0  0
  1 28  1  0  0  0  0
  2  3  1  0  0  0  0
  2 29  1  0  0  0  0
  2 30  1  0  0  0  0
  3  4  1  0  0  0  0
  3 31  1  0  0  0  0
  3 32  1  0  0  0  0
  4 24  1  0  0  0  0
  4  5  1  0  0  0  0
  4 33  1  0  0  0  0
  5  6  1  0  0  0  0
  5 34  1  0  0  0  0
  6  7  2  0  0  0  0
  6  8  1  0  0  0  0
  8  9  1  0  0  0  0
  8 24  1  0  0  0  0
  9 10  1  0  0  0  0
  9 35  1  0  0  0  0
  9 36  1  0  0  0  0
 10 11  1  0  0  0  0
 10 12  1  0  0  0  0
 10 37  1  0  0  0  0
 11 38  1  0  0  0  0
 12 13  1  0  0  0  0
 12 39  1  0  0  0  0
 12 40  1  0  0  0  0
 13 23  1  0  0  0  0
 13 14  1  0  0  0  0
 14 15  2  0  0  0  0
 14 41  1  0  0  0  0
 15 16  1  0  0  0  0
 16 23  2  0  0  0  0
 16 17  1  0  0  0  0
 17 18  2  0  0  0  0
 17 42  1  0  0  0  0
 18 19  1  0  0  0  0
 18 20  1  0  0  0  0
 19 43  1  0  0  0  0
 19 44  1  0  0  0  0
 19 45  1  0  0  0  0
 20 21  1  0  0  0  0
 20 22  2  0  0  0  0
 21 46  1  0  0  0  0
 21 47  1  0  0  0  0
 21 48  1  0  0  0  0
 22 23  1  0  0  0  0
 22 49  1  0  0  0  0
 24 25  2  0  0  0  0
M  END
> <s_m_source_file>
AV-unprocessed.smi

> <i_m_source_file_index>
1644

> <i_lp_mmshare_version>
43012

> <i_f3d_flags>
0

> <s_epik_input>
W0NIM11bQ0gyXVtDSDJdW0NAQEhdMVtOSF1DKD1PKU4oQzE9TylbQ0gyXVtDQEhdKFtPSF0pW0NIMl1uKFtjSF1uMiljKGMyMylbY0hdYyhbQ0gzXSljKFtjSF0zKVtDSDNd

> <s_epik_cmdline>
J2VwaWtfcHl0aG9uJywgJy1waCcsICc3LjAnLCAnLXRuJywgJzgnLCAnLW1hJywgJzIwMCcsICctbWV0YWxfYmluZGluZycsICctaW1hZScsICc8aW5maWxlLm1hZT4nLCAnLW9tYWUnLCAnPG91dGZpbGUubWFlPic=

> <r_lp_tautomer_probability>
1

> <r_epik_Ionization_Penalty>
0.10693

> <r_epik_Ionization_Penalty_Charging>
0

> <r_epik_Ionization_Penalty_Neutral>
0.10693

> <r_epik_State_Penalty>
0.096713

> <r_epik_Charging_Adjusted_Penalty>
0.096713

> <i_epik_Tot_Q>
0

> <i_epik_Tot_abs_Q>
0

> <r_epik_Metal_State_Penalty>
0.102757

> <b_epik_Metal_Only>
0

> <s_lp_Force_Field>
OPLS_2005

> <r_lp_Energy>
21.5813

> <b_lp_Chiralities_Consistent>
1

> <s_lp_Variant>
AV-unprocessed.smi:1644-2

> <Gold.Version>
5.8.1

> <Gold.Id.Protein>
6NUR|6NUR_protein|mol2

> <Gold.PLP.Fitness>
48.3118

> <Gold.PLP.PLP>
-41.0931

> <Gold.PLP.part.hbond>
-3.0000

> <Gold.PLP.part.metal>
0.0000

> <Gold.PLP.part.buried>
-6.2042

> <Gold.PLP.part.nonpolar>
-33.2878

> <Gold.PLP.part.repulsive>
0.8687

> <Gold.PLP.ligand.clash>
0.0000

> <Gold.PLP.ligand.torsion>
0.9002

> <Gold.PLP.Chemscore.Hbond>
2.9600

> <Gold.PLP.Chemscore.CHOScore>
0.0000

> <Gold.PLP.Chemscore.Metal>
0.0000

> <Gold.Chemscore.Hbonds>
donor molecule, donor type, donor heavy atom, donor atom, acceptor molecule, acceptor atom, score
      P1  H  6896  6907       L1     7  1.00
      P1  H  7989  7998       L1    15  0.98
      P1  H 10752 10763       L1    11  0.56

> <Gold.PLP.Chemscore.Internal.Correction>
0.1391

> <Gold.Rescore>
     Score         DG    S(hbond)    S(metal)    S(lipo)     H(rot)  DE(clash)    DE(int)     intcor
     14.66     -17.24       1.89        0.00     106.17       2.72       0.33       2.25       ----

> <Gold.Chemscore.Fitness>
14.6606

> <Gold.Chemscore.DG>
-17.2446

> <Gold.Chemscore.ZeroCoef>
-5.4800

> <Gold.Chemscore.Hbond>
1.8888

> <Gold.Chemscore.Metal>
0.0000

> <Gold.Chemscore.Lipo>
106.1728

> <Gold.Chemscore.Internal_Hbond>
0.0000

> <Gold.Chemscore.DEClash>
0.3291

> <Gold.Chemscore.DEInternal>
2.2548

> <Gold.Chemscore.Rot>
2.7212

> <Gold.Chemscore.Internal.Correction>
   9.000000E+99

> <Gold.Chemscore.Hbonds>
donor molecule, donor type, donor heavy atom, donor atom, acceptor molecule, acceptor atom, score
      P1  H  6896  6907       L1     7  0.93
      P1  H  7989  7998       L1    15  0.64
      P1  H 10752 10763       L1    11  0.07

> <Gold.Chemscore.Hbond.Weighted>
-6.3086

> <Gold.Chemscore.Metal.Weighted>
-0.0000

> <Gold.Chemscore.Lipo.Weighted>
-12.4222

> <Gold.Chemscore.Internal_Hbond.Weighted>
0.0000

> <Gold.Chemscore.DEClash.Weighted>
0.3291

> <Gold.Chemscore.DEInternal.Weighted>
2.2548

> <Gold.Chemscore.Rot.Weighted>
6.9663

> <Gold.Chemscore.Internal.Correction.Weighted>
   9.000000E+99

> <Gold.Protein.RotatedTorsions>
[ 6907 6896 6895 6894 ] final -108.78 input  -60.11 | X-H torsion
[ 7974 7965 7964 7962 ] final  -36.36 input  175.53 | X-H torsion
[ 8008 7997 7996 7995 ] final   11.56 input   59.86 | X-H torsion
[ 10167 10162 10161 10158 ] final  -81.47 input  -65.29 | X-H torsion
[ 10718 10713 10712 10709 ] final  147.83 input   66.30 | X-H torsion
[ 10763 10752 10751 10750 ] final  131.79 input  -60.55 | X-H torsion
[ 11005 11000 10999 10996 ] final   30.89 input  -57.11 | X-H torsion

> <Gold.Protein.ActiveResidues>
 VAL166  LYS551  ARG553  GLY616  TRP617  ASP618  TYR619  PRO620  LYS621  CYS622 
 ASP623  PHE694  ASN695  SER759  ASP760  ASP761  ALA762  ILE779  LEU786  VAL792 
 PHE793  MET794  SER795  GLU796  ALA797  LYS798  CYS799  TRP800  GLU811  SER814 

> <Gold.Protein.RotatedAtoms>
  150.7522  133.9627  159.3520 H   0  0  0  0  0  0  0  0  0  0  0  0  # atno 6907 bound_to 6896
  151.7554  135.0821  160.0346 H   0  0  0  0  0  0  0  0  0  0  0  0  # atno 6908 bound_to 6896
  152.3439  133.6062  159.5932 H   0  0  0  0  0  0  0  0  0  0  0  0  # atno 6909 bound_to 6896
  146.0668  140.6269  142.8971 H   0  0  0  0  0  0  0  0  0  0  0  0  # atno 7974 bound_to 7965
  154.8086  140.2864  155.5869 H   0  0  0  0  0  0  0  0  0  0  0  0  # atno 8008 bound_to 7997
  156.2985  140.2572  156.2899 H   0  0  0  0  0  0  0  0  0  0  0  0  # atno 8009 bound_to 7997
  154.9474  140.0380  157.2116 H   0  0  0  0  0  0  0  0  0  0  0  0  # atno 8010 bound_to 7997
  140.4409  143.2515  151.8627 H   0  0  0  0  0  0  0  0  0  0  0  0  # atno 10167 bound_to 10162
  157.3161  131.0896  151.1278 H   0  0  0  0  0  0  0  0  0  0  0  0  # atno 10718 bound_to 10713
  153.7800  135.3170  155.3364 H   0  0  0  0  0  0  0  0  0  0  0  0  # atno 10763 bound_to 10752
  154.8165  135.4633  154.0660 H   0  0  0  0  0  0  0  0  0  0  0  0  # atno 10764 bound_to 10752
  153.1946  135.6913  153.8394 H   0  0  0  0  0  0  0  0  0  0  0  0  # atno 10765 bound_to 10752
  140.2896  134.2880  155.7779 H   0  0  0  0  0  0  0  0  0  0  0  0  # atno 11005 bound_to 11000
  144.7207  140.4364  143.7010 LP  0  0  0  0  0  0  0  0  0  0  0  0  # atno 17320 bound_to 7965
  145.6463  139.1558  143.2887 LP  0  0  0  0  0  0  0  0  0  0  0  0  # atno 17321 bound_to 7965
  139.4789  144.5230  151.8775 LP  0  0  0  0  0  0  0  0  0  0  0  0  # atno 17342 bound_to 10162
  140.4319  144.2103  150.5888 LP  0  0  0  0  0  0  0  0  0  0  0  0  # atno 17343 bound_to 10162
  157.2581  130.6646  149.5962 LP  0  0  0  0  0  0  0  0  0  0  0  0  # atno 17370 bound_to 10713
  155.9681  130.4517  150.5746 LP  0  0  0  0  0  0  0  0  0  0  0  0  # atno 17371 bound_to 10713
  141.2148  133.7577  156.9604 LP  0  0  0  0  0  0  0  0  0  0  0  0  # atno 17394 bound_to 11000
  140.1208  134.9418  157.2200 LP  0  0  0  0  0  0  0  0  0  0  0  0  # atno 17395 bound_to 11000

$$$$
