AV-unprocessed.smi:1636|AV-procd|sdf|6542|dock10
  -GOLD-   22720 7223D 1   1.00000     0.00000
 Structure written by MMmdl.
 43 44  0  0  0  0  0  0  0  0  1 V2000
  152.3533  144.6011  158.6458 C   0  0  0  0  0  0  0  0  0  0  0  0
  152.2257  143.1227  158.2634 C   0  0  2  0  0  0  0  0  0  0  0  0
  150.9801  142.8537  157.3974 C   0  0  0  0  0  0  0  0  0  0  0  0
  150.8362  141.4222  157.1403 N   0  0  0  0  0  0  0  0  0  0  0  0
  149.9031  141.0170  156.1617 C   0  0  0  0  0  0  0  0  0  0  0  0
  148.5158  141.1305  156.4143 C   0  0  0  0  0  0  0  0  0  0  0  0
  147.6022  140.7226  155.4241 C   0  0  0  0  0  0  0  0  0  0  0  0
  148.0904  140.2089  154.2068 C   0  0  0  0  0  0  0  0  0  0  0  0
  147.1096  139.7768  153.1233 C   0  0  0  0  0  0  0  0  0  0  0  0
  147.1506  138.3595  152.7751 N   0  0  0  0  0  0  0  0  0  0  0  0
  146.1006  137.5276  152.8204 C   0  0  0  0  0  0  0  0  0  0  0  0
  144.9706  137.8622  153.1768 O   0  0  0  0  0  0  0  0  0  0  0  0
  146.4320  136.2863  152.4387 N   0  0  0  0  0  0  0  0  0  0  0  0
  145.5199  135.1482  152.4003 C   0  0  0  0  0  0  0  0  0  0  0  0
  145.1869  134.7329  150.9568 C   0  0  0  0  0  0  0  0  0  0  0  0
  145.1234  135.8719  150.1252 O   0  0  0  0  0  0  0  0  0  0  0  0
  149.4912  140.1335  154.0432 C   0  0  0  0  0  0  0  0  0  0  0  0
  150.3719  140.5203  154.9902 N   0  0  0  0  0  0  0  0  0  0  0  0
  150.8654  140.6107  158.3542 C   0  0  0  0  0  0  0  0  0  0  0  0
  152.1032  140.9562  159.1996 C   0  0  0  0  0  0  0  0  0  0  0  0
  152.1350  142.3556  159.4606 O   0  0  0  0  0  0  0  0  0  0  0  0
  152.4423  145.2290  157.7588 H   0  0  0  0  0  0  0  0  0  0  0  0
  153.2371  144.7689  159.2616 H   0  0  0  0  0  0  0  0  0  0  0  0
  151.4840  144.9395  159.2103 H   0  0  0  0  0  0  0  0  0  0  0  0
  153.1235  142.8277  157.7169 H   0  0  0  0  0  0  0  0  0  0  0  0
  150.0845  143.2206  157.9011 H   0  0  0  0  0  0  0  0  0  0  0  0
  151.0703  143.3954  156.4548 H   0  0  0  0  0  0  0  0  0  0  0  0
  148.1450  141.5101  157.3548 H   0  0  0  0  0  0  0  0  0  0  0  0
  146.5396  140.8022  155.6007 H   0  0  0  0  0  0  0  0  0  0  0  0
  146.0961  140.0497  153.4229 H   0  0  0  0  0  0  0  0  0  0  0  0
  147.3270  140.3501  152.2219 H   0  0  0  0  0  0  0  0  0  0  0  0
  148.0393  137.9898  152.4705 H   0  0  0  0  0  0  0  0  0  0  0  0
  147.3883  136.1096  152.1677 H   0  0  0  0  0  0  0  0  0  0  0  0
  145.9873  134.3094  152.9192 H   0  0  0  0  0  0  0  0  0  0  0  0
  144.6159  135.3805  152.9644 H   0  0  0  0  0  0  0  0  0  0  0  0
  145.9001  134.0099  150.5585 H   0  0  0  0  0  0  0  0  0  0  0  0
  144.2064  134.2572  150.9309 H   0  0  0  0  0  0  0  0  0  0  0  0
  145.6034  135.6908  149.3316 H   0  0  0  0  0  0  0  0  0  0  0  0
  149.9287  139.7578  153.1302 H   0  0  0  0  0  0  0  0  0  0  0  0
  149.9575  140.8033  158.9272 H   0  0  0  0  0  0  0  0  0  0  0  0
  150.8769  139.5454  158.1274 H   0  0  0  0  0  0  0  0  0  0  0  0
  152.0705  140.4200  160.1481 H   0  0  0  0  0  0  0  0  0  0  0  0
  153.0193  140.6489  158.6923 H   0  0  0  0  0  0  0  0  0  0  0  0
  1  2  1  0  0  0  0
  1 22  1  0  0  0  0
  1 23  1  0  0  0  0
  1 24  1  0  0  0  0
  2 21  1  0  0  0  0
  2  3  1  0  0  0  0
  2 25  1  0  0  0  0
  3  4  1  0  0  0  0
  3 26  1  0  0  0  0
  3 27  1  0  0  0  0
  4  5  1  0  0  0  0
  4 19  1  0  0  0  0
  5 18  1  0  0  0  0
  5  6  2  0  0  0  0
  6  7  1  0  0  0  0
  6 28  1  0  0  0  0
  7  8  2  0  0  0  0
  7 29  1  0  0  0  0
  8  9  1  0  0  0  0
  8 17  1  0  0  0  0
  9 10  1  0  0  0  0
  9 30  1  0  0  0  0
  9 31  1  0  0  0  0
 10 11  1  0  0  0  0
 10 32  1  0  0  0  0
 11 12  2  0  0  0  0
 11 13  1  0  0  0  0
 13 14  1  0  0  0  0
 13 33  1  0  0  0  0
 14 15  1  0  0  0  0
 14 34  1  0  0  0  0
 14 35  1  0  0  0  0
 15 16  1  0  0  0  0
 15 36  1  0  0  0  0
 15 37  1  0  0  0  0
 16 38  1  0  0  0  0
 17 18  2  0  0  0  0
 17 39  1  0  0  0  0
 19 20  1  0  0  0  0
 19 40  1  0  0  0  0
 19 41  1  0  0  0  0
 20 21  1  0  0  0  0
 20 42  1  0  0  0  0
 20 43  1  0  0  0  0
M  END
> <s_m_source_file>
AV-unprocessed.smi

> <i_m_source_file_index>
1636

> <i_lp_mmshare_version>
43012

> <i_f3d_flags>
0

> <s_epik_input>
W0NIM11bQ0BASF0xW0NIMl1OKFtDSDJdW0NIMl1PMSljMltjSF1bY0hdYyhbY0hdbjIpW0NIMl1bTkhdQyg9TylbTkhdW0NIMl1bQ0gyXVtPSF0=

> <s_epik_cmdline>
J2VwaWtfcHl0aG9uJywgJy1waCcsICc3LjAnLCAnLXRuJywgJzgnLCAnLW1hJywgJzIwMCcsICctbWV0YWxfYmluZGluZycsICctaW1hZScsICc8aW5maWxlLm1hZT4nLCAnLW9tYWUnLCAnPG91dGZpbGUubWFlPic=

> <r_lp_tautomer_probability>
1

> <r_epik_Ionization_Penalty>
0.00695222

> <r_epik_Ionization_Penalty_Charging>
0

> <r_epik_Ionization_Penalty_Neutral>
0.00695222

> <r_epik_State_Penalty>
0.00513345

> <r_epik_Charging_Adjusted_Penalty>
0.00513345

> <i_epik_Tot_Q>
0

> <i_epik_Tot_abs_Q>
0

> <r_epik_Metal_State_Penalty>
-0

> <b_epik_Metal_Only>
0

> <s_lp_Force_Field>
OPLS_2005

> <r_lp_Energy>
15.2616

> <b_lp_Chiralities_Consistent>
1

> <s_lp_Variant>
AV-unprocessed.smi:1636-1

> <Gold.Version>
5.8.1

> <Gold.Id.Protein>
6NUR|6NUR_protein|mol2

> <Gold.PLP.Fitness>
46.1529

> <Gold.PLP.PLP>
-34.1619

> <Gold.PLP.part.hbond>
-4.9709

> <Gold.PLP.part.metal>
0.0000

> <Gold.PLP.part.buried>
-3.3964

> <Gold.PLP.part.nonpolar>
-27.0903

> <Gold.PLP.part.repulsive>
1.0814

> <Gold.PLP.ligand.clash>
0.0000

> <Gold.PLP.ligand.torsion>
0.3742

> <Gold.PLP.Chemscore.Hbond>
3.1334

> <Gold.PLP.Chemscore.CHOScore>
1.0000

> <Gold.PLP.Chemscore.Metal>
0.0000

> <Gold.Chemscore.Hbonds>
donor molecule, donor type, donor heavy atom, donor atom, acceptor molecule, acceptor atom, score
      L1  H    10    32       P1  7948  0.81
      L1  H    13    33       P1  7948  1.00
      L1  H    16    38       P1  7921  1.00
      P1  H  7989  7998       L1    18  0.29
      L1  C    17    39       P1  7957  0.95

> <Gold.PLP.Chemscore.Internal.Correction>
0.3391

> <Gold.Rescore>
     Score         DG    S(hbond)    S(metal)    S(lipo)     H(rot)  DE(clash)    DE(int)     intcor
     16.37     -17.18       2.89        0.00      78.24       2.78       0.42       0.39       ----

> <Gold.Chemscore.Fitness>
16.3670

> <Gold.Chemscore.DG>
-17.1779

> <Gold.Chemscore.ZeroCoef>
-5.4800

> <Gold.Chemscore.Hbond>
2.8944

> <Gold.Chemscore.Metal>
0.0000

> <Gold.Chemscore.Lipo>
78.2443

> <Gold.Chemscore.Internal_Hbond>
0.0000

> <Gold.Chemscore.DEClash>
0.4215

> <Gold.Chemscore.DEInternal>
0.3895

> <Gold.Chemscore.Rot>
2.7828

> <Gold.Chemscore.Internal.Correction>
   9.000000E+99

> <Gold.Chemscore.Hbonds>
donor molecule, donor type, donor heavy atom, donor atom, acceptor molecule, acceptor atom, score
      L1  H    10    32       P1  7948  0.76
      L1  H    13    33       P1  7948  0.98
      L1  H    16    38       P1  7921  0.98

> <Gold.Chemscore.Hbond.Weighted>
-9.6674

> <Gold.Chemscore.Metal.Weighted>
-0.0000

> <Gold.Chemscore.Lipo.Weighted>
-9.1546

> <Gold.Chemscore.Internal_Hbond.Weighted>
0.0000

> <Gold.Chemscore.DEClash.Weighted>
0.4215

> <Gold.Chemscore.DEInternal.Weighted>
0.3895

> <Gold.Chemscore.Rot.Weighted>
7.1241

> <Gold.Chemscore.Internal.Correction.Weighted>
   9.000000E+99

> <Gold.Protein.RotatedTorsions>
[ 6907 6896 6895 6894 ] final -119.04 input  -60.11 | X-H torsion
[ 7974 7965 7964 7962 ] final  -37.45 input  175.53 | X-H torsion
[ 8008 7997 7996 7995 ] final  -71.40 input   59.86 | X-H torsion
[ 10167 10162 10161 10158 ] final -159.79 input  -65.29 | X-H torsion
[ 10718 10713 10712 10709 ] final  -35.48 input   66.30 | X-H torsion
[ 10763 10752 10751 10750 ] final   69.19 input  -60.55 | X-H torsion
[ 11005 11000 10999 10996 ] final  -47.45 input  -57.11 | X-H torsion

> <Gold.Protein.ActiveResidues>
 VAL166  LYS551  ARG553  GLY616  TRP617  ASP618  TYR619  PRO620  LYS621  CYS622 
 ASP623  PHE694  ASN695  SER759  ASP760  ASP761  ALA762  ILE779  LEU786  VAL792 
 PHE793  MET794  SER795  GLU796  ALA797  LYS798  CYS799  TRP800  GLU811  SER814 

> <Gold.Protein.RotatedAtoms>
  150.8271  133.8153  159.3113 H   0  0  0  0  0  0  0  0  0  0  0  0  # atno 6907 bound_to 6896
  151.5894  135.1052  160.0045 H   0  0  0  0  0  0  0  0  0  0  0  0  # atno 6908 bound_to 6896
  152.4355  133.7311  159.6644 H   0  0  0  0  0  0  0  0  0  0  0  0  # atno 6909 bound_to 6896
  146.0573  140.6398  142.9013 H   0  0  0  0  0  0  0  0  0  0  0  0  # atno 7974 bound_to 7965
  154.5085  140.0816  156.7942 H   0  0  0  0  0  0  0  0  0  0  0  0  # atno 8008 bound_to 7997
  155.3840  140.3429  155.4230 H   0  0  0  0  0  0  0  0  0  0  0  0  # atno 8009 bound_to 7997
  156.1544  140.1568  156.8704 H   0  0  0  0  0  0  0  0  0  0  0  0  # atno 8010 bound_to 7997
  139.6588  143.9950  152.2212 H   0  0  0  0  0  0  0  0  0  0  0  0  # atno 10167 bound_to 10162
  156.3381  130.4289  149.7812 H   0  0  0  0  0  0  0  0  0  0  0  0  # atno 10718 bound_to 10713
  153.0274  135.5219  154.7251 H   0  0  0  0  0  0  0  0  0  0  0  0  # atno 10763 bound_to 10752
  154.6295  135.2898  155.0235 H   0  0  0  0  0  0  0  0  0  0  0  0  # atno 10764 bound_to 10752
  154.1193  135.6610  153.4952 H   0  0  0  0  0  0  0  0  0  0  0  0  # atno 10765 bound_to 10752
  141.0641  133.6699  156.3299 H   0  0  0  0  0  0  0  0  0  0  0  0  # atno 11005 bound_to 11000
  144.7155  140.4194  143.7047 LP  0  0  0  0  0  0  0  0  0  0  0  0  # atno 17320 bound_to 7965
  145.6621  139.1583  143.2802 LP  0  0  0  0  0  0  0  0  0  0  0  0  # atno 17321 bound_to 7965
  139.9683  144.6511  150.8013 LP  0  0  0  0  0  0  0  0  0  0  0  0  # atno 17342 bound_to 10162
  140.7571  143.3079  151.2916 LP  0  0  0  0  0  0  0  0  0  0  0  0  # atno 17343 bound_to 10162
  156.5059  130.8150  151.3150 LP  0  0  0  0  0  0  0  0  0  0  0  0  # atno 17370 bound_to 10713
  157.7442  130.9930  150.2655 LP  0  0  0  0  0  0  0  0  0  0  0  0  # atno 17371 bound_to 10713
  140.5809  134.5747  157.5479 LP  0  0  0  0  0  0  0  0  0  0  0  0  # atno 17394 bound_to 11000
  139.9460  134.7701  156.0561 LP  0  0  0  0  0  0  0  0  0  0  0  0  # atno 17395 bound_to 11000

$$$$
