AV-unprocessed.smi:167|AV-procd|sdf|1392|dock8
  -GOLD-   2262019133D 1   1.00000     0.00000
 Structure written by MMmdl.
 51 55  0  0  0  0  0  0  0  0  1 V2000
  146.4689  137.7972  150.5039 O   0  0  0  0  0  0  0  0  0  0  0  0
  146.1353  137.7576  151.8755 C   0  0  0  0  0  0  0  0  0  0  0  0
  144.8730  136.9036  152.0949 C   0  0  2  0  0  0  0  0  0  0  0  0
  144.1908  137.1788  153.4496 C   0  0  0  0  0  0  0  0  0  0  0  0
  144.1856  135.7802  154.0892 C   0  0  1  0  0  0  0  0  0  0  0  0
  143.1379  134.8999  153.3792 C   0  0  0  0  0  0  0  0  0  0  0  0
  143.8423  134.6157  152.0429 C   0  0  0  0  0  0  0  0  0  0  0  0
  145.1643  135.3923  152.2269 C   0  0  2  0  0  0  0  0  0  0  0  0
  145.4599  135.2376  153.6465 N   0  0  0  0  0  0  0  0  0  0  0  0
  145.9199  134.0464  154.1222 C   0  0  0  0  0  0  0  0  0  0  0  0
  146.1407  133.9263  155.4587 N   0  0  0  0  0  0  0  0  0  0  0  0
  146.5886  132.7793  155.9753 C   0  0  0  0  0  0  0  0  0  0  0  0
  146.8755  131.6389  155.3475 N   0  0  0  0  0  0  0  0  0  0  0  0
  146.6456  131.7423  154.0077 C   0  0  0  0  0  0  0  0  0  0  0  0
  146.1623  132.8926  153.3182 C   0  0  0  0  0  0  0  0  0  0  0  0
  146.0259  132.5967  151.9662 N   0  0  0  0  0  0  0  0  0  0  0  0
  146.4127  131.3553  151.8626 C   0  0  0  0  0  0  0  0  0  0  0  0
  146.8302  130.7735  153.0369 N   0  0  0  0  0  0  0  0  0  0  0  0
  147.2688  129.4210  153.2206 C   0  0  0  0  0  0  0  0  0  0  0  0
  148.5008  128.8870  152.4839 C   0  0  0  0  0  0  0  0  0  0  0  0
  147.8452  127.4875  152.4268 C   0  0  0  0  0  0  0  0  0  0  0  0
  148.0139  126.6779  151.1256 C   0  0  0  0  0  0  0  0  0  0  0  0
  149.3381  126.2191  150.9393 O   0  0  0  0  0  0  0  0  0  0  0  0
  148.1928  126.5465  153.5961 C   0  0  0  0  0  0  0  0  0  0  0  0
  147.3645  125.4014  153.6054 O   0  0  0  0  0  0  0  0  0  0  0  0
  146.5078  128.2438  152.6010 C   0  0  0  0  0  0  0  0  0  0  0  0
  145.6731  137.8938  150.0033 H   0  0  0  0  0  0  0  0  0  0  0  0
  146.9802  137.3648  152.4422 H   0  0  0  0  0  0  0  0  0  0  0  0
  145.9638  138.7791  152.2165 H   0  0  0  0  0  0  0  0  0  0  0  0
  144.1766  137.0938  151.2767 H   0  0  0  0  0  0  0  0  0  0  0  0
  144.7765  137.8710  154.0563 H   0  0  0  0  0  0  0  0  0  0  0  0
  143.1889  137.5957  153.3415 H   0  0  0  0  0  0  0  0  0  0  0  0
  144.0422  135.8374  155.1662 H   0  0  0  0  0  0  0  0  0  0  0  0
  142.9662  133.9734  153.9288 H   0  0  0  0  0  0  0  0  0  0  0  0
  142.1788  135.4043  153.2564 H   0  0  0  0  0  0  0  0  0  0  0  0
  144.0264  133.5470  151.9262 H   0  0  0  0  0  0  0  0  0  0  0  0
  143.2681  134.9529  151.1794 H   0  0  0  0  0  0  0  0  0  0  0  0
  145.9523  135.0562  151.5518 H   0  0  0  0  0  0  0  0  0  0  0  0
  146.7395  132.7753  157.0447 H   0  0  0  0  0  0  0  0  0  0  0  0
  146.4080  130.8309  150.9181 H   0  0  0  0  0  0  0  0  0  0  0  0
  147.3773  129.2857  154.2979 H   0  0  0  0  0  0  0  0  0  0  0  0
  148.6280  129.3517  151.5047 H   0  0  0  0  0  0  0  0  0  0  0  0
  149.4252  128.9440  153.0594 H   0  0  0  0  0  0  0  0  0  0  0  0
  147.3619  125.8043  151.1183 H   0  0  0  0  0  0  0  0  0  0  0  0
  147.7436  127.2791  150.2569 H   0  0  0  0  0  0  0  0  0  0  0  0
  149.9303  126.8488  151.3211 H   0  0  0  0  0  0  0  0  0  0  0  0
  149.2276  126.2082  153.5404 H   0  0  0  0  0  0  0  0  0  0  0  0
  148.0921  127.0580  154.5540 H   0  0  0  0  0  0  0  0  0  0  0  0
  147.8841  124.6537  153.3517 H   0  0  0  0  0  0  0  0  0  0  0  0
  145.7950  127.7663  153.2739 H   0  0  0  0  0  0  0  0  0  0  0  0
  146.0286  128.5110  151.6579 H   0  0  0  0  0  0  0  0  0  0  0  0
  1  2  1  0  0  0  0
  1 27  1  0  0  0  0
  2  3  1  0  0  0  0
  2 28  1  0  0  0  0
  2 29  1  0  0  0  0
  3  8  1  0  0  0  0
  3  4  1  0  0  0  0
  3 30  1  0  0  0  0
  4  5  1  0  0  0  0
  4 31  1  0  0  0  0
  4 32  1  0  0  0  0
  5  9  1  0  0  0  0
  5  6  1  0  0  0  0
  5 33  1  0  0  0  0
  6  7  1  0  0  0  0
  6 34  1  0  0  0  0
  6 35  1  0  0  0  0
  7  8  1  0  0  0  0
  7 36  1  0  0  0  0
  7 37  1  0  0  0  0
  8  9  1  0  0  0  0
  8 38  1  0  0  0  0
  9 10  1  0  0  0  0
 10 15  1  0  0  0  0
 10 11  2  0  0  0  0
 11 12  1  0  0  0  0
 12 13  2  0  0  0  0
 12 39  1  0  0  0  0
 13 14  1  0  0  0  0
 14 18  1  0  0  0  0
 14 15  2  0  0  0  0
 15 16  1  0  0  0  0
 16 17  2  0  0  0  0
 17 18  1  0  0  0  0
 17 40  1  0  0  0  0
 18 19  1  0  0  0  0
 19 26  1  0  0  0  0
 19 20  1  0  0  0  0
 19 41  1  0  0  0  0
 20 21  1  0  0  0  0
 20 42  1  0  0  0  0
 20 43  1  0  0  0  0
 21 22  1  0  0  0  0
 21 24  1  0  0  0  0
 21 26  1  0  0  0  0
 22 23  1  0  0  0  0
 22 44  1  0  0  0  0
 22 45  1  0  0  0  0
 23 46  1  0  0  0  0
 24 25  1  0  0  0  0
 24 47  1  0  0  0  0
 24 48  1  0  0  0  0
 25 49  1  0  0  0  0
 26 50  1  0  0  0  0
 26 51  1  0  0  0  0
M  END
> <s_m_source_file>
AV-unprocessed.smi

> <i_m_source_file_index>
167

> <i_lp_mmshare_version>
43012

> <i_f3d_flags>
0

> <s_epik_input>
W09IXVtDSDJdW0NASF0oW0NIMl1bQ0BASF0xMilbQ0BIXShbQ0gyXVtDSDJdMSlOMmMobltjSF1uMyljKGMzNCluW2NIXW40W0NIXShbQ0gyXTUpW0NIMl1DNShbQ0gyXVtPSF0pW0NIMl1bT0hd

> <s_epik_cmdline>
J2VwaWtfcHl0aG9uJywgJy1waCcsICc3LjAnLCAnLXRuJywgJzgnLCAnLW1hJywgJzIwMCcsICctbWV0YWxfYmluZGluZycsICctaW1hZScsICc8aW5maWxlLm1hZT4nLCAnLW9tYWUnLCAnPG91dGZpbGUubWFlPic=

> <r_lp_tautomer_probability>
1

> <r_epik_Ionization_Penalty>
0.0047903

> <r_epik_Ionization_Penalty_Charging>
0

> <r_epik_Ionization_Penalty_Neutral>
0.0047903

> <r_epik_State_Penalty>
0.00341021

> <r_epik_Charging_Adjusted_Penalty>
0.00341021

> <i_epik_Tot_Q>
0

> <i_epik_Tot_abs_Q>
0

> <r_epik_Metal_State_Penalty>
-0

> <b_epik_Metal_Only>
0

> <s_lp_Force_Field>
OPLS_2005

> <r_lp_Energy>
90.0047

> <b_lp_Chiralities_Consistent>
1

> <s_lp_Variant>
AV-unprocessed.smi:167-1

> <Gold.Version>
5.8.1

> <Gold.Id.Protein>
6NUR|6NUR_protein|mol2

> <Gold.PLP.Fitness>
44.5146

> <Gold.PLP.PLP>
-34.6805

> <Gold.PLP.part.hbond>
-4.7705

> <Gold.PLP.part.metal>
0.0000

> <Gold.PLP.part.buried>
-1.8127

> <Gold.PLP.part.nonpolar>
-27.4265

> <Gold.PLP.part.repulsive>
0.3612

> <Gold.PLP.ligand.clash>
0.0000

> <Gold.PLP.ligand.torsion>
0.5058

> <Gold.PLP.Chemscore.Hbond>
2.8640

> <Gold.PLP.Chemscore.CHOScore>
0.5873

> <Gold.PLP.Chemscore.Metal>
0.0000

> <Gold.Chemscore.Hbonds>
donor molecule, donor type, donor heavy atom, donor atom, acceptor molecule, acceptor atom, score
      L1  H     1    27       P1 10171  1.00
      L1  H    23    46       P1 10737  0.36
      P1  H  7954  7966       L1     1  0.94
      L1  C    17    40       P1 10747  0.32

> <Gold.PLP.Chemscore.Internal.Correction>
0.4919

> <Gold.Rescore>
     Score         DG    S(hbond)    S(metal)    S(lipo)     H(rot)  DE(clash)    DE(int)     intcor
      8.15     -12.39       2.86        0.00      69.47       4.20       1.12       3.11       ----

> <Gold.Chemscore.Fitness>
8.1513

> <Gold.Chemscore.DG>
-12.3863

> <Gold.Chemscore.ZeroCoef>
-5.4800

> <Gold.Chemscore.Hbond>
2.8561

> <Gold.Chemscore.Metal>
0.0000

> <Gold.Chemscore.Lipo>
69.4750

> <Gold.Chemscore.Internal_Hbond>
0.0000

> <Gold.Chemscore.DEClash>
1.1241

> <Gold.Chemscore.DEInternal>
3.1109

> <Gold.Chemscore.Rot>
4.2038

> <Gold.Chemscore.Internal.Correction>
   9.000000E+99

> <Gold.Chemscore.Hbonds>
donor molecule, donor type, donor heavy atom, donor atom, acceptor molecule, acceptor atom, score
      L1  H     1    27       P1 10171  0.95
      L1  H    23    46       P1 10737  0.34
      P1  H  7954  7966       L1     1  0.90

> <Gold.Chemscore.Hbond.Weighted>
-9.5394

> <Gold.Chemscore.Metal.Weighted>
-0.0000

> <Gold.Chemscore.Lipo.Weighted>
-8.1286

> <Gold.Chemscore.Internal_Hbond.Weighted>
0.0000

> <Gold.Chemscore.DEClash.Weighted>
1.1241

> <Gold.Chemscore.DEInternal.Weighted>
3.1109

> <Gold.Chemscore.Rot.Weighted>
10.7617

> <Gold.Chemscore.Internal.Correction.Weighted>
   9.000000E+99

> <Gold.Protein.RotatedTorsions>
[ 6907 6896 6895 6894 ] final    3.71 input  -60.11 | X-H torsion
[ 7974 7965 7964 7962 ] final   33.33 input  175.53 | X-H torsion
[ 8008 7997 7996 7995 ] final   96.50 input   59.86 | X-H torsion
[ 10167 10162 10161 10158 ] final  168.39 input  -65.29 | X-H torsion
[ 10718 10713 10712 10709 ] final   48.82 input   66.30 | X-H torsion
[ 10763 10752 10751 10750 ] final  -14.26 input  -60.55 | X-H torsion
[ 11005 11000 10999 10996 ] final    4.22 input  -57.11 | X-H torsion

> <Gold.Protein.ActiveResidues>
 VAL166  LYS551  ARG553  GLY616  TRP617  ASP618  TYR619  PRO620  LYS621  CYS622 
 ASP623  PHE694  ASN695  SER759  ASP760  ASP761  ALA762  ILE779  LEU786  VAL792 
 PHE793  MET794  SER795  GLU796  ALA797  LYS798  CYS799  TRP800  GLU811  SER814 

> <Gold.Protein.RotatedAtoms>
  151.6296  135.1024  160.0118 H   0  0  0  0  0  0  0  0  0  0  0  0  # atno 6907 bound_to 6896
  152.4114  133.6965  159.6409 H   0  0  0  0  0  0  0  0  0  0  0  0  # atno 6908 bound_to 6896
  150.8004  133.8535  159.3253 H   0  0  0  0  0  0  0  0  0  0  0  0  # atno 6909 bound_to 6896
  146.1428  139.6411  142.9152 H   0  0  0  0  0  0  0  0  0  0  0  0  # atno 7974 bound_to 7965
  156.0803  140.3271  155.7685 H   0  0  0  0  0  0  0  0  0  0  0  0  # atno 8008 bound_to 7997
  155.5164  140.0581  157.2932 H   0  0  0  0  0  0  0  0  0  0  0  0  # atno 8009 bound_to 7997
  154.4578  140.1951  156.0346 H   0  0  0  0  0  0  0  0  0  0  0  0  # atno 8010 bound_to 7997
  139.4967  144.3820  151.9612 H   0  0  0  0  0  0  0  0  0  0  0  0  # atno 10167 bound_to 10162
  157.4725  130.8264  149.8004 H   0  0  0  0  0  0  0  0  0  0  0  0  # atno 10718 bound_to 10713
  153.5257  135.7015  153.5709 H   0  0  0  0  0  0  0  0  0  0  0  0  # atno 10763 bound_to 10752
  153.3738  135.3938  155.1808 H   0  0  0  0  0  0  0  0  0  0  0  0  # atno 10764 bound_to 10752
  154.8690  135.3818  154.4749 H   0  0  0  0  0  0  0  0  0  0  0  0  # atno 10765 bound_to 10752
  140.5844  133.9983  155.8061 H   0  0  0  0  0  0  0  0  0  0  0  0  # atno 11005 bound_to 11000
  145.5008  141.0437  143.2541 LP  0  0  0  0  0  0  0  0  0  0  0  0  # atno 17320 bound_to 7965
  144.7811  139.6523  143.7154 LP  0  0  0  0  0  0  0  0  0  0  0  0  # atno 17321 bound_to 7965
  140.3256  144.3376  150.5999 LP  0  0  0  0  0  0  0  0  0  0  0  0  # atno 17342 bound_to 10162
  140.5687  143.2183  151.7638 LP  0  0  0  0  0  0  0  0  0  0  0  0  # atno 17343 bound_to 10162
  156.0080  130.3846  150.2361 LP  0  0  0  0  0  0  0  0  0  0  0  0  # atno 17370 bound_to 10713
  157.0544  131.0072  151.3243 LP  0  0  0  0  0  0  0  0  0  0  0  0  # atno 17371 bound_to 10713
  141.0975  133.9820  157.3135 LP  0  0  0  0  0  0  0  0  0  0  0  0  # atno 17394 bound_to 11000
  139.9302  135.0200  156.8375 LP  0  0  0  0  0  0  0  0  0  0  0  0  # atno 17395 bound_to 11000

$$$$
