AV-unprocessed.smi:301|AV-procd|sdf|2271|dock8
  -GOLD-   2262022163D 1   1.00000     0.00000
 Structure written by MMmdl.
 32 33  0  0  0  0  0  0  0  0  1 V2000
  145.7369  142.0628  158.0199 C   0  0  0  0  0  0  0  0  0  0  0  0
  146.0933  142.1330  156.5746 C   0  0  0  0  0  0  0  0  0  0  0  0
  147.3068  141.8423  156.0991 N   0  0  0  0  0  0  0  0  0  0  0  0
  147.3936  141.9939  154.7110 C   0  0  0  0  0  0  0  0  0  0  0  0
  148.6902  141.7119  154.0055 C   0  0  0  0  0  0  0  0  0  0  0  0
  149.7930  141.3228  154.9971 C   0  0  0  0  0  0  0  0  0  0  0  0
  150.4417  140.2868  154.8434 O   0  0  0  0  0  0  0  0  0  0  0  0
  150.0002  142.1721  156.0153 N   0  0  0  0  0  0  0  0  0  0  0  0
  150.9859  141.9860  157.0739 C   0  0  0  0  0  0  0  0  0  0  0  0
  150.9889  143.1694  158.0554 C   0  0  1  0  0  0  0  0  0  0  0  0
  151.8072  142.9154  159.3204 C   0  0  0  0  0  0  0  0  0  0  0  0
  152.1685  144.3225  159.7367 C   0  0  0  0  0  0  0  0  0  0  0  0
  152.4311  144.9844  158.3878 C   0  0  0  0  0  0  0  0  0  0  0  0
  151.5847  144.3182  157.4543 O   0  0  0  0  0  0  0  0  0  0  0  0
  146.2124  142.3970  154.1377 C   0  0  0  0  0  0  0  0  0  0  0  0
  144.9545  142.6146  155.3234 S   0  0  0  0  0  0  0  0  0  0  0  0
  146.4533  141.4440  158.5613 H   0  0  0  0  0  0  0  0  0  0  0  0
  144.7432  141.6309  158.1402 H   0  0  0  0  0  0  0  0  0  0  0  0
  145.7402  143.0633  158.4525 H   0  0  0  0  0  0  0  0  0  0  0  0
  148.5722  140.9007  153.2861 H   0  0  0  0  0  0  0  0  0  0  0  0
  149.0017  142.5875  153.4337 H   0  0  0  0  0  0  0  0  0  0  0  0
  149.4245  143.0000  156.0697 H   0  0  0  0  0  0  0  0  0  0  0  0
  150.7883  141.0540  157.6059 H   0  0  0  0  0  0  0  0  0  0  0  0
  151.9687  141.8770  156.6146 H   0  0  0  0  0  0  0  0  0  0  0  0
  149.9695  143.4317  158.3439 H   0  0  0  0  0  0  0  0  0  0  0  0
  151.2512  142.3717  160.0847 H   0  0  0  0  0  0  0  0  0  0  0  0
  152.7122  142.3517  159.0893 H   0  0  0  0  0  0  0  0  0  0  0  0
  151.3191  144.7966  160.2304 H   0  0  0  0  0  0  0  0  0  0  0  0
  153.0257  144.3666  160.4090 H   0  0  0  0  0  0  0  0  0  0  0  0
  152.2392  146.0574  158.4063 H   0  0  0  0  0  0  0  0  0  0  0  0
  153.4673  144.8310  158.0838 H   0  0  0  0  0  0  0  0  0  0  0  0
  146.0093  142.5848  153.0937 H   0  0  0  0  0  0  0  0  0  0  0  0
  1  2  1  0  0  0  0
  1 17  1  0  0  0  0
  1 18  1  0  0  0  0
  1 19  1  0  0  0  0
  2 16  1  0  0  0  0
  2  3  2  0  0  0  0
  3  4  1  0  0  0  0
  4  5  1  0  0  0  0
  4 15  2  0  0  0  0
  5  6  1  0  0  0  0
  5 20  1  0  0  0  0
  5 21  1  0  0  0  0
  6  7  2  0  0  0  0
  6  8  1  0  0  0  0
  8  9  1  0  0  0  0
  8 22  1  0  0  0  0
  9 10  1  0  0  0  0
  9 23  1  0  0  0  0
  9 24  1  0  0  0  0
 10 14  1  0  0  0  0
 10 11  1  0  0  0  0
 10 25  1  0  0  0  0
 11 12  1  0  0  0  0
 11 26  1  0  0  0  0
 11 27  1  0  0  0  0
 12 13  1  0  0  0  0
 12 28  1  0  0  0  0
 12 29  1  0  0  0  0
 13 14  1  0  0  0  0
 13 30  1  0  0  0  0
 13 31  1  0  0  0  0
 15 16  1  0  0  0  0
 15 32  1  0  0  0  0
M  END
> <s_m_source_file>
AV-unprocessed.smi

> <i_m_source_file_index>
301

> <i_lp_mmshare_version>
43012

> <i_f3d_flags>
0

> <s_epik_input>
W0NIM11jMW5jKFtjSF1zMSlbQ0gyXUMoPU8pW05IXVtDSDJdW0NAQEhdMltDSDJdW0NIMl1bQ0gyXU8y

> <s_epik_cmdline>
J2VwaWtfcHl0aG9uJywgJy1waCcsICc3LjAnLCAnLXRuJywgJzgnLCAnLW1hJywgJzIwMCcsICctbWV0YWxfYmluZGluZycsICctaW1hZScsICc8aW5maWxlLm1hZT4nLCAnLW9tYWUnLCAnPG91dGZpbGUubWFlPic=

> <r_lp_tautomer_probability>
1

> <r_epik_Ionization_Penalty>
6.06873e-05

> <r_epik_Ionization_Penalty_Charging>
0

> <r_epik_Ionization_Penalty_Neutral>
6.06873e-05

> <r_epik_State_Penalty>
-0

> <r_epik_Charging_Adjusted_Penalty>
0

> <i_epik_Tot_Q>
0

> <i_epik_Tot_abs_Q>
0

> <r_epik_Metal_State_Penalty>
-0

> <b_epik_Metal_Only>
0

> <s_lp_Force_Field>
OPLS_2005

> <r_lp_Energy>
16.0562

> <b_lp_Chiralities_Consistent>
1

> <s_lp_Variant>
AV-unprocessed.smi:301-2

> <Gold.Version>
5.8.1

> <Gold.Id.Protein>
6NUR|6NUR_protein|mol2

> <Gold.PLP.Fitness>
40.5085

> <Gold.PLP.PLP>
-34.9065

> <Gold.PLP.part.hbond>
-2.0000

> <Gold.PLP.part.metal>
0.0000

> <Gold.PLP.part.buried>
-2.3041

> <Gold.PLP.part.nonpolar>
-29.6370

> <Gold.PLP.part.repulsive>
0.4654

> <Gold.PLP.ligand.clash>
0.0000

> <Gold.PLP.ligand.torsion>
0.1269

> <Gold.PLP.Chemscore.Hbond>
1.9500

> <Gold.PLP.Chemscore.CHOScore>
0.0000

> <Gold.PLP.Chemscore.Metal>
0.0000

> <Gold.Chemscore.Hbonds>
donor molecule, donor type, donor heavy atom, donor atom, acceptor molecule, acceptor atom, score
      L1  H     8    22       P1  8028  1.00
      P1  H  7989  7998       L1     7  0.95

> <Gold.PLP.Chemscore.Internal.Correction>
0.0058

> <Gold.Rescore>
     Score         DG    S(hbond)    S(metal)    S(lipo)     H(rot)  DE(clash)    DE(int)     intcor
     14.60     -14.85       1.00        0.00      84.69       1.51       0.15       0.09       ----

> <Gold.Chemscore.Fitness>
14.5982

> <Gold.Chemscore.DG>
-14.8458

> <Gold.Chemscore.ZeroCoef>
-5.4800

> <Gold.Chemscore.Hbond>
0.9954

> <Gold.Chemscore.Metal>
0.0000

> <Gold.Chemscore.Lipo>
84.6854

> <Gold.Chemscore.Internal_Hbond>
0.0000

> <Gold.Chemscore.DEClash>
0.1538

> <Gold.Chemscore.DEInternal>
0.0938

> <Gold.Chemscore.Rot>
1.5106

> <Gold.Chemscore.Internal.Correction>
   9.000000E+99

> <Gold.Chemscore.Hbonds>
donor molecule, donor type, donor heavy atom, donor atom, acceptor molecule, acceptor atom, score
      L1  H     8    22       P1  8028  0.99
      P1  H  7989  7998       L1     7  0.21

> <Gold.Chemscore.Hbond.Weighted>
-3.3246

> <Gold.Chemscore.Metal.Weighted>
-0.0000

> <Gold.Chemscore.Lipo.Weighted>
-9.9082

> <Gold.Chemscore.Internal_Hbond.Weighted>
0.0000

> <Gold.Chemscore.DEClash.Weighted>
0.1538

> <Gold.Chemscore.DEInternal.Weighted>
0.0938

> <Gold.Chemscore.Rot.Weighted>
3.8670

> <Gold.Chemscore.Internal.Correction.Weighted>
   9.000000E+99

> <Gold.Protein.RotatedTorsions>
[ 6907 6896 6895 6894 ] final  -95.70 input  -60.11 | X-H torsion
[ 7974 7965 7964 7962 ] final  -51.58 input  175.53 | X-H torsion
[ 8008 7997 7996 7995 ] final  128.61 input   59.86 | X-H torsion
[ 10167 10162 10161 10158 ] final   37.87 input  -65.29 | X-H torsion
[ 10718 10713 10712 10709 ] final  -24.43 input   66.30 | X-H torsion
[ 10763 10752 10751 10750 ] final  -41.61 input  -60.55 | X-H torsion
[ 11005 11000 10999 10996 ] final   22.12 input  -57.11 | X-H torsion

> <Gold.Protein.ActiveResidues>
 VAL166  LYS551  ARG553  GLY616  TRP617  ASP618  TYR619  PRO620  LYS621  CYS622 
 ASP623  PHE694  ASN695  SER759  ASP760  ASP761  ALA762  ILE779  LEU786  VAL792 
 PHE793  MET794  SER795  GLU796  ALA797  LYS798  CYS799  TRP800  GLU811  SER814 

> <Gold.Protein.RotatedAtoms>
  150.6970  134.1618  159.4178 H   0  0  0  0  0  0  0  0  0  0  0  0  # atno 6907 bound_to 6896
  151.9598  135.0127  160.0556 H   0  0  0  0  0  0  0  0  0  0  0  0  # atno 6908 bound_to 6896
  152.1937  133.4756  159.5058 H   0  0  0  0  0  0  0  0  0  0  0  0  # atno 6909 bound_to 6896
  145.9174  140.7863  142.9665 H   0  0  0  0  0  0  0  0  0  0  0  0  # atno 7974 bound_to 7965
  156.2918  140.2640  156.2463 H   0  0  0  0  0  0  0  0  0  0  0  0  # atno 8008 bound_to 7997
  154.9927  140.0388  157.2344 H   0  0  0  0  0  0  0  0  0  0  0  0  # atno 8009 bound_to 7997
  154.7672  140.2771  155.6171 H   0  0  0  0  0  0  0  0  0  0  0  0  # atno 8010 bound_to 7997
  140.3991  144.1748  150.6133 H   0  0  0  0  0  0  0  0  0  0  0  0  # atno 10167 bound_to 10162
  156.4777  130.4538  149.6830 H   0  0  0  0  0  0  0  0  0  0  0  0  # atno 10718 bound_to 10713
  153.9654  135.6734  153.4746 H   0  0  0  0  0  0  0  0  0  0  0  0  # atno 10763 bound_to 10752
  153.0818  135.4919  154.8515 H   0  0  0  0  0  0  0  0  0  0  0  0  # atno 10764 bound_to 10752
  154.7249  135.3125  154.8947 H   0  0  0  0  0  0  0  0  0  0  0  0  # atno 10765 bound_to 10752
  140.3840  134.1890  155.7663 H   0  0  0  0  0  0  0  0  0  0  0  0  # atno 11005 bound_to 11000
  144.6749  140.1921  143.7395 LP  0  0  0  0  0  0  0  0  0  0  0  0  # atno 17320 bound_to 7965
  145.8594  139.2215  143.1725 LP  0  0  0  0  0  0  0  0  0  0  0  0  # atno 17321 bound_to 7965
  140.4759  143.2396  151.9024 LP  0  0  0  0  0  0  0  0  0  0  0  0  # atno 17342 bound_to 10162
  139.4785  144.5321  151.8652 LP  0  0  0  0  0  0  0  0  0  0  0  0  # atno 17343 bound_to 10162
  156.3553  130.7453  151.2418 LP  0  0  0  0  0  0  0  0  0  0  0  0  # atno 17370 bound_to 10713
  157.7486  131.0365  150.4414 LP  0  0  0  0  0  0  0  0  0  0  0  0  # atno 17371 bound_to 10713
  141.1914  133.8197  157.0882 LP  0  0  0  0  0  0  0  0  0  0  0  0  # atno 17394 bound_to 11000
  140.0457  134.9832  157.1044 LP  0  0  0  0  0  0  0  0  0  0  0  0  # atno 17395 bound_to 11000

$$$$
