AV-unprocessed.smi:268|AV-procd|sdf|2041|dock4
  -GOLD-   2262021263D 1   1.00000     0.00000
 Structure written by MMmdl.
 50 53  0  0  0  0  0  0  0  0  1 V2000
  152.3856  144.8039  158.1985 C   0  0  0  0  0  0  0  0  0  0  0  0
  152.5437  143.7132  159.2660 C   0  0  0  0  0  0  0  0  0  0  0  0
  152.3572  142.4056  158.7407 O   0  0  0  0  0  0  0  0  0  0  0  0
  151.0120  142.0831  158.4176 C   0  0  2  0  0  0  0  0  0  0  0  0
  150.8184  140.6962  157.7871 C   0  0  0  0  0  0  0  0  0  0  0  0
  149.8451  141.3595  156.7969 C   0  0  2  0  0  0  0  0  0  0  0  0
  149.9688  140.8786  155.4187 N   0  0  0  0  0  0  0  0  0  0  0  0
  148.8010  141.0176  154.5543 C   0  0  0  0  0  0  0  0  0  0  0  0
  150.6638  139.7320  155.1959 C   0  0  0  0  0  0  0  0  0  0  0  0
  151.9902  139.7855  154.8983 N   0  0  0  0  0  0  0  0  0  0  0  0
  152.6826  138.6622  154.6892 C   0  0  0  0  0  0  0  0  0  0  0  0
  152.2545  137.3993  154.7279 N   0  0  0  0  0  0  0  0  0  0  0  0
  150.9256  137.3371  155.0272 C   0  0  0  0  0  0  0  0  0  0  0  0
  150.0645  138.4428  155.2767 C   0  0  0  0  0  0  0  0  0  0  0  0
  148.7785  137.9877  155.5431 N   0  0  0  0  0  0  0  0  0  0  0  0
  148.8745  136.6890  155.4579 C   0  0  0  0  0  0  0  0  0  0  0  0
  150.1268  136.2124  155.1418 N   0  0  0  0  0  0  0  0  0  0  0  0
  150.5167  134.8202  154.9779 C   0  0  0  0  0  0  0  0  0  0  0  0
  149.4123  133.8156  155.3566 C   0  0  0  0  0  0  0  0  0  0  0  0
  149.0368  134.0283  156.8376 C   0  0  0  0  0  0  0  0  0  0  0  0
  150.0612  133.6171  157.7207 O   0  0  0  0  0  0  0  0  0  0  0  0
  148.2441  133.7380  154.3632 C   0  0  0  0  0  0  0  0  0  0  0  0
  148.3855  132.3079  154.2151 O   0  0  0  0  0  0  0  0  0  0  0  0
  149.6439  132.3610  154.9225 C   0  0  0  0  0  0  0  0  0  0  0  0
  150.6053  142.6682  157.0587 C   0  0  0  0  0  0  0  0  0  0  0  0
  152.4165  145.7939  158.6535 H   0  0  0  0  0  0  0  0  0  0  0  0
  151.4330  144.7066  157.6774 H   0  0  0  0  0  0  0  0  0  0  0  0
  153.1831  144.7633  157.4577 H   0  0  0  0  0  0  0  0  0  0  0  0
  153.5083  143.7950  159.7692 H   0  0  0  0  0  0  0  0  0  0  0  0
  151.7843  143.8640  160.0333 H   0  0  0  0  0  0  0  0  0  0  0  0
  150.2823  142.3184  159.1953 H   0  0  0  0  0  0  0  0  0  0  0  0
  151.7266  140.3127  157.3175 H   0  0  0  0  0  0  0  0  0  0  0  0
  150.3599  139.9567  158.4439 H   0  0  0  0  0  0  0  0  0  0  0  0
  148.8221  141.3942  157.1762 H   0  0  0  0  0  0  0  0  0  0  0  0
  149.0611  141.5885  153.6627 H   0  0  0  0  0  0  0  0  0  0  0  0
  147.9932  141.5441  155.0632 H   0  0  0  0  0  0  0  0  0  0  0  0
  148.4117  140.0477  154.2397 H   0  0  0  0  0  0  0  0  0  0  0  0
  153.7292  138.7948  154.4578 H   0  0  0  0  0  0  0  0  0  0  0  0
  148.0265  136.0405  155.6217 H   0  0  0  0  0  0  0  0  0  0  0  0
  150.8315  134.6687  153.9447 H   0  0  0  0  0  0  0  0  0  0  0  0
  151.4088  134.6547  155.5832 H   0  0  0  0  0  0  0  0  0  0  0  0
  148.8377  135.0794  157.0469 H   0  0  0  0  0  0  0  0  0  0  0  0
  148.1305  133.4773  157.0909 H   0  0  0  0  0  0  0  0  0  0  0  0
  150.2434  132.7029  157.5651 H   0  0  0  0  0  0  0  0  0  0  0  0
  147.2774  134.0240  154.7788 H   0  0  0  0  0  0  0  0  0  0  0  0
  148.4266  134.2600  153.4227 H   0  0  0  0  0  0  0  0  0  0  0  0
  150.4879  132.2263  154.2453 H   0  0  0  0  0  0  0  0  0  0  0  0
  149.6922  131.6498  155.7476 H   0  0  0  0  0  0  0  0  0  0  0  0
  149.9759  143.5566  157.1167 H   0  0  0  0  0  0  0  0  0  0  0  0
  151.4551  142.8195  156.3899 H   0  0  0  0  0  0  0  0  0  0  0  0
  1  2  1  0  0  0  0
  1 26  1  0  0  0  0
  1 27  1  0  0  0  0
  1 28  1  0  0  0  0
  2  3  1  0  0  0  0
  2 29  1  0  0  0  0
  2 30  1  0  0  0  0
  3  4  1  0  0  0  0
  4 25  1  0  0  0  0
  4  5  1  0  0  0  0
  4 31  1  0  0  0  0
  5  6  1  0  0  0  0
  5 32  1  0  0  0  0
  5 33  1  0  0  0  0
  6  7  1  0  0  0  0
  6 25  1  0  0  0  0
  6 34  1  0  0  0  0
  7  8  1  0  0  0  0
  7  9  1  0  0  0  0
  8 35  1  0  0  0  0
  8 36  1  0  0  0  0
  8 37  1  0  0  0  0
  9 14  1  0  0  0  0
  9 10  2  0  0  0  0
 10 11  1  0  0  0  0
 11 12  2  0  0  0  0
 11 38  1  0  0  0  0
 12 13  1  0  0  0  0
 13 17  1  0  0  0  0
 13 14  2  0  0  0  0
 14 15  1  0  0  0  0
 15 16  2  0  0  0  0
 16 17  1  0  0  0  0
 16 39  1  0  0  0  0
 17 18  1  0  0  0  0
 18 19  1  0  0  0  0
 18 40  1  0  0  0  0
 18 41  1  0  0  0  0
 19 24  1  0  0  0  0
 19 20  1  0  0  0  0
 19 22  1  0  0  0  0
 20 21  1  0  0  0  0
 20 42  1  0  0  0  0
 20 43  1  0  0  0  0
 21 44  1  0  0  0  0
 22 23  1  0  0  0  0
 22 45  1  0  0  0  0
 22 46  1  0  0  0  0
 23 24  1  0  0  0  0
 24 47  1  0  0  0  0
 24 48  1  0  0  0  0
 25 49  1  0  0  0  0
 25 50  1  0  0  0  0
M  END
> <s_m_source_file>
AV-unprocessed.smi

> <i_m_source_file_index>
268

> <i_lp_mmshare_version>
43012

> <i_f3d_flags>
0

> <s_epik_input>
W0NIM11bQ0gyXU9bQ0BASF0xW0NIMl1bQ0BIXShbQ0gyXTEpTihbQ0gzXSljKG5bY0hdbjIpYyhjMjMpbltjSF1uM1tDSDJdQzQoW0NIMl1bT0hdKVtDSDJdT1tDSDJdNA==

> <s_epik_cmdline>
J2VwaWtfcHl0aG9uJywgJy1waCcsICc3LjAnLCAnLXRuJywgJzgnLCAnLW1hJywgJzIwMCcsICctbWV0YWxfYmluZGluZycsICctaW1hZScsICc8aW5maWxlLm1hZT4nLCAnLW9tYWUnLCAnPG91dGZpbGUubWFlPic=

> <r_lp_tautomer_probability>
1

> <r_epik_Ionization_Penalty>
0.00205824

> <r_epik_Ionization_Penalty_Charging>
0

> <r_epik_Ionization_Penalty_Neutral>
0.00205824

> <r_epik_State_Penalty>
0.00125218

> <r_epik_Charging_Adjusted_Penalty>
0.00125218

> <i_epik_Tot_Q>
0

> <i_epik_Tot_abs_Q>
0

> <r_epik_Metal_State_Penalty>
-0

> <b_epik_Metal_Only>
0

> <s_lp_Force_Field>
OPLS_2005

> <r_lp_Energy>
41.5967

> <b_lp_Chiralities_Consistent>
1

> <s_lp_Variant>
AV-unprocessed.smi:268-2

> <Gold.Version>
5.8.1

> <Gold.Id.Protein>
6NUR|6NUR_protein|mol2

> <Gold.PLP.Fitness>
48.9258

> <Gold.PLP.PLP>
-44.1285

> <Gold.PLP.part.hbond>
-3.0000

> <Gold.PLP.part.metal>
0.0000

> <Gold.PLP.part.buried>
-6.5944

> <Gold.PLP.part.nonpolar>
-36.1066

> <Gold.PLP.part.repulsive>
0.3960

> <Gold.PLP.ligand.clash>
0.0000

> <Gold.PLP.ligand.torsion>
1.9231

> <Gold.PLP.Chemscore.Hbond>
2.4192

> <Gold.PLP.Chemscore.CHOScore>
0.0000

> <Gold.PLP.Chemscore.Metal>
0.0000

> <Gold.Chemscore.Hbonds>
donor molecule, donor type, donor heavy atom, donor atom, acceptor molecule, acceptor atom, score
      P1  H  6896  6907       L1    21  0.65
      P1  H  7989  7998       L1    10  0.49
      P1  H 10752 10765       L1    12  0.74

> <Gold.PLP.Chemscore.Internal.Correction>
1.3860

> <Gold.Rescore>
     Score         DG    S(hbond)    S(metal)    S(lipo)     H(rot)  DE(clash)    DE(int)     intcor
     12.98     -15.29       2.54        0.00      80.25       3.15       0.09       2.22       ----

> <Gold.Chemscore.Fitness>
12.9799

> <Gold.Chemscore.DG>
-15.2920

> <Gold.Chemscore.ZeroCoef>
-5.4800

> <Gold.Chemscore.Hbond>
2.5443

> <Gold.Chemscore.Metal>
0.0000

> <Gold.Chemscore.Lipo>
80.2461

> <Gold.Chemscore.Internal_Hbond>
0.0000

> <Gold.Chemscore.DEClash>
0.0923

> <Gold.Chemscore.DEInternal>
2.2198

> <Gold.Chemscore.Rot>
3.1542

> <Gold.Chemscore.Internal.Correction>
   9.000000E+99

> <Gold.Chemscore.Hbonds>
donor molecule, donor type, donor heavy atom, donor atom, acceptor molecule, acceptor atom, score
      P1  H  6896  6907       L1    21  0.05
      P1  H  7989  7998       L1    10  0.03
      P1  H 10752 10765       L1    12  0.59

> <Gold.Chemscore.Hbond.Weighted>
-8.4980

> <Gold.Chemscore.Metal.Weighted>
-0.0000

> <Gold.Chemscore.Lipo.Weighted>
-9.3888

> <Gold.Chemscore.Internal_Hbond.Weighted>
0.0000

> <Gold.Chemscore.DEClash.Weighted>
0.0923

> <Gold.Chemscore.DEInternal.Weighted>
2.2198

> <Gold.Chemscore.Rot.Weighted>
8.0748

> <Gold.Chemscore.Internal.Correction.Weighted>
   9.000000E+99

> <Gold.Protein.RotatedTorsions>
[ 6907 6896 6895 6894 ] final -132.42 input  -60.11 | X-H torsion
[ 7974 7965 7964 7962 ] final -120.84 input  175.53 | X-H torsion
[ 8008 7997 7996 7995 ] final  137.21 input   59.86 | X-H torsion
[ 10167 10162 10161 10158 ] final -148.05 input  -65.29 | X-H torsion
[ 10718 10713 10712 10709 ] final   -8.91 input   66.30 | X-H torsion
[ 10763 10752 10751 10750 ] final  160.42 input  -60.55 | X-H torsion
[ 11005 11000 10999 10996 ] final  -67.94 input  -57.11 | X-H torsion

> <Gold.Protein.ActiveResidues>
 VAL166  LYS551  ARG553  GLY616  TRP617  ASP618  TYR619  PRO620  LYS621  CYS622 
 ASP623  PHE694  ASN695  SER759  ASP760  ASP761  ALA762  ILE779  LEU786  VAL792 
 PHE793  MET794  SER795  GLU796  ALA797  LYS798  CYS799  TRP800  GLU811  SER814 

> <Gold.Protein.RotatedAtoms>
  150.9622  133.6433  159.2752 H   0  0  0  0  0  0  0  0  0  0  0  0  # atno 6907 bound_to 6896
  151.3752  135.0928  159.9488 H   0  0  0  0  0  0  0  0  0  0  0  0  # atno 6908 bound_to 6896
  152.5152  133.9168  159.7569 H   0  0  0  0  0  0  0  0  0  0  0  0  # atno 6909 bound_to 6896
  145.0469  140.8188  143.4232 H   0  0  0  0  0  0  0  0  0  0  0  0  # atno 7974 bound_to 7965
  156.3003  140.2425  156.3872 H   0  0  0  0  0  0  0  0  0  0  0  0  # atno 8008 bound_to 7997
  154.8647  140.0418  157.1707 H   0  0  0  0  0  0  0  0  0  0  0  0  # atno 8009 bound_to 7997
  154.8859  140.2956  155.5402 H   0  0  0  0  0  0  0  0  0  0  0  0  # atno 8010 bound_to 7997
  139.7566  143.8438  152.2598 H   0  0  0  0  0  0  0  0  0  0  0  0  # atno 10167 bound_to 10162
  156.6957  130.5078  149.5931 H   0  0  0  0  0  0  0  0  0  0  0  0  # atno 10718 bound_to 10713
  154.2471  135.2773  155.2831 H   0  0  0  0  0  0  0  0  0  0  0  0  # atno 10763 bound_to 10752
  154.5496  135.5679  153.6914 H   0  0  0  0  0  0  0  0  0  0  0  0  # atno 10764 bound_to 10752
  152.9988  135.6271  154.2617 H   0  0  0  0  0  0  0  0  0  0  0  0  # atno 10765 bound_to 10752
  141.1520  133.6730  156.6370 H   0  0  0  0  0  0  0  0  0  0  0  0  # atno 11005 bound_to 11000
  145.1576  139.2477  143.5408 LP  0  0  0  0  0  0  0  0  0  0  0  0  # atno 17320 bound_to 7965
  146.3514  140.1295  142.8597 LP  0  0  0  0  0  0  0  0  0  0  0  0  # atno 17321 bound_to 7965
  139.8432  144.7200  150.9305 LP  0  0  0  0  0  0  0  0  0  0  0  0  # atno 17342 bound_to 10162
  140.7803  143.3964  151.1222 LP  0  0  0  0  0  0  0  0  0  0  0  0  # atno 17343 bound_to 10162
  156.1765  130.6471  151.0900 LP  0  0  0  0  0  0  0  0  0  0  0  0  # atno 17370 bound_to 10713
  157.6992  131.0782  150.6874 LP  0  0  0  0  0  0  0  0  0  0  0  0  # atno 17371 bound_to 10713
  140.3423  134.7839  157.4406 LP  0  0  0  0  0  0  0  0  0  0  0  0  # atno 17394 bound_to 11000
  140.0928  134.5578  155.8427 LP  0  0  0  0  0  0  0  0  0  0  0  0  # atno 17395 bound_to 11000

$$$$
