AV-unprocessed.smi:1875|AV-procd|sdf|7617|dock9
  -GOLD-   22720 9343D 1   1.00000     0.00000
 Structure written by MMmdl.
 49 51  0  0  0  0  0  0  0  0  3 V2000
  149.9225  130.3070  154.5871 C   0  0  0  0  0  0  0  0  0  0  0  0
  149.3654  131.6948  154.3461 C   0  0  0  0  0  0  0  0  0  0  0  0
  148.1500  131.7730  153.7954 N   0  0  0  0  0  0  0  0  0  0  0  0
  147.6513  133.0105  153.5837 C   0  0  0  0  0  0  0  0  0  0  0  0
  148.3766  134.1701  153.9257 C   0  0  0  0  0  0  0  0  0  0  0  0
  149.6463  133.9619  154.5040 C   0  0  0  0  0  0  0  0  0  0  0  0
  150.5345  135.1223  154.9010 C   0  0  0  0  0  0  0  0  0  0  0  0
  149.8571  136.4013  154.6194 N   0  3  0  0  0  0  0  0  0  0  0  0
  150.7413  137.5825  154.6792 C   0  0  0  0  0  0  0  0  0  0  0  0
  150.7049  138.2338  156.0718 C   0  0  1  0  0  0  0  0  0  0  0  0
  150.8671  137.2269  157.0525 O   0  0  0  0  0  0  0  0  0  0  0  0
  151.8065  139.2991  156.2487 C   0  0  0  0  0  0  0  0  0  0  0  0
  151.2700  140.6631  156.3583 N   0  0  0  0  0  0  0  0  0  0  0  0
  150.4402  141.3494  155.5254 C   0  0  0  0  0  0  0  0  0  0  0  0
  150.2482  142.5852  156.0640 N   0  3  0  0  0  0  0  0  0  0  0  0
  150.9607  142.6884  157.2606 C   0  0  0  0  0  0  0  0  0  0  0  0
  151.0806  143.7394  158.1620 C   0  0  0  0  0  0  0  0  0  0  0  0
  151.8896  143.5237  159.3005 C   0  0  0  0  0  0  0  0  0  0  0  0
  152.0426  144.6526  160.3055 C   0  0  0  0  0  0  0  0  0  0  0  0
  152.5448  142.2817  159.5059 C   0  0  0  0  0  0  0  0  0  0  0  0
  153.4071  142.0588  160.7365 C   0  0  0  0  0  0  0  0  0  0  0  0
  152.4117  141.2254  158.5761 C   0  0  0  0  0  0  0  0  0  0  0  0
  151.6136  141.4564  157.4585 C   0  0  0  0  0  0  0  0  0  0  0  0
  150.1414  132.7210  154.7092 N   0  0  0  0  0  0  0  0  0  0  0  0
  149.3078  129.5420  154.1113 H   0  0  0  0  0  0  0  0  0  0  0  0
  149.9600  130.0970  155.6564 H   0  0  0  0  0  0  0  0  0  0  0  0
  150.9330  130.2260  154.1853 H   0  0  0  0  0  0  0  0  0  0  0  0
  146.6701  133.0764  153.1373 H   0  0  0  0  0  0  0  0  0  0  0  0
  147.9764  135.1583  153.7529 H   0  0  0  0  0  0  0  0  0  0  0  0
  150.7763  135.0575  155.9627 H   0  0  0  0  0  0  0  0  0  0  0  0
  151.4745  135.0696  154.3495 H   0  0  0  0  0  0  0  0  0  0  0  0
  149.4510  136.3460  153.6961 H   0  0  0  0  0  0  0  0  0  0  0  0
  151.7611  137.2992  154.4144 H   0  0  0  0  0  0  0  0  0  0  0  0
  150.4040  138.2987  153.9287 H   0  0  0  0  0  0  0  0  0  0  0  0
  149.7304  138.6995  156.2237 H   0  0  0  0  0  0  0  0  0  0  0  0
  150.6182  136.3951  156.6788 H   0  0  0  0  0  0  0  0  0  0  0  0
  152.3854  139.1015  157.1522 H   0  0  0  0  0  0  0  0  0  0  0  0
  152.5122  139.2746  155.4172 H   0  0  0  0  0  0  0  0  0  0  0  0
  150.0155  140.9842  154.6013 H   0  0  0  0  0  0  0  0  0  0  0  0
  150.5770  144.6815  158.0001 H   0  0  0  0  0  0  0  0  0  0  0  0
  151.6427  144.3576  161.2758 H   0  0  0  0  0  0  0  0  0  0  0  0
  151.5111  145.5486  159.9840 H   0  0  0  0  0  0  0  0  0  0  0  0
  153.0929  144.9174  160.4294 H   0  0  0  0  0  0  0  0  0  0  0  0
  153.8266  141.0524  160.7531 H   0  0  0  0  0  0  0  0  0  0  0  0
  152.8186  142.1890  161.6450 H   0  0  0  0  0  0  0  0  0  0  0  0
  154.2371  142.7654  160.7562 H   0  0  0  0  0  0  0  0  0  0  0  0
  152.9100  140.2805  158.7328 H   0  0  0  0  0  0  0  0  0  0  0  0
  149.1117  136.5219  155.2905 H   0  0  0  0  0  0  0  0  0  0  0  0
  149.6731  143.3043  155.6436 H   0  0  0  0  0  0  0  0  0  0  0  0
  1  2  1  0  0  0  0
  1 25  1  0  0  0  0
  1 26  1  0  0  0  0
  1 27  1  0  0  0  0
  2 24  1  0  0  0  0
  2  3  2  0  0  0  0
  3  4  1  0  0  0  0
  4  5  2  0  0  0  0
  4 28  1  0  0  0  0
  5  6  1  0  0  0  0
  5 29  1  0  0  0  0
  6  7  1  0  0  0  0
  6 24  2  0  0  0  0
  7  8  1  0  0  0  0
  7 30  1  0  0  0  0
  7 31  1  0  0  0  0
  8  9  1  0  0  0  0
  8 32  1  0  0  0  0
  8 48  1  0  0  0  0
  9 10  1  0  0  0  0
  9 33  1  0  0  0  0
  9 34  1  0  0  0  0
 10 11  1  0  0  0  0
 10 12  1  0  0  0  0
 10 35  1  0  0  0  0
 11 36  1  0  0  0  0
 12 13  1  0  0  0  0
 12 37  1  0  0  0  0
 12 38  1  0  0  0  0
 13 23  1  0  0  0  0
 13 14  1  0  0  0  0
 14 15  2  0  0  0  0
 14 39  1  0  0  0  0
 15 16  1  0  0  0  0
 15 49  1  0  0  0  0
 16 23  2  0  0  0  0
 16 17  1  0  0  0  0
 17 18  2  0  0  0  0
 17 40  1  0  0  0  0
 18 19  1  0  0  0  0
 18 20  1  0  0  0  0
 19 41  1  0  0  0  0
 19 42  1  0  0  0  0
 19 43  1  0  0  0  0
 20 21  1  0  0  0  0
 20 22  2  0  0  0  0
 21 44  1  0  0  0  0
 21 45  1  0  0  0  0
 21 46  1  0  0  0  0
 22 23  1  0  0  0  0
 22 47  1  0  0  0  0
M  CHG  1   8   1
M  CHG  1  15   1
M  END
> <s_m_source_file>
AV-unprocessed.smi

> <i_m_source_file_index>
1875

> <i_lp_mmshare_version>
43012

> <i_f3d_flags>
0

> <s_epik_input>
W0NIM11jMW5bY0hdW2NIXWMobjEpW0NIMl1bTkhdW0NIMl1bQ0BIXShbT0hdKVtDSDJdbihbY0hdbjIpYyhjMjMpW2NIXWMoW0NIM10pYyhbY0hdMylbQ0gzXQ==

> <s_epik_cmdline>
J2VwaWtfcHl0aG9uJywgJy1waCcsICc3LjAnLCAnLXRuJywgJzgnLCAnLW1hJywgJzIwMCcsICctbWV0YWxfYmluZGluZycsICctaW1hZScsICc8aW5maWxlLm1hZT4nLCAnLW9tYWUnLCAnPG91dGZpbGUubWFlPic=

> <r_lp_tautomer_probability>
1

> <r_epik_Ionization_Penalty>
1.27527

> <r_epik_Ionization_Penalty_Charging>
1.27526

> <r_epik_Ionization_Penalty_Neutral>
8.72389e-06

> <r_epik_State_Penalty>
1.28654

> <r_epik_Charging_Adjusted_Penalty>
2.5618

> <i_epik_Tot_Q>
2

> <i_epik_Tot_abs_Q>
2

> <r_epik_Metal_State_Penalty>
1.36882

> <b_epik_Metal_Only>
0

> <s_epik_Chemistry_Notes>
This compound contains an electron-poor aromatic ring that is susceptible to covalent hydrolysis at low pH, typically resulting in measured values for nitrogen ring protonation that are around two units higher than predicted values.

> <s_lp_Force_Field>
OPLS_2005

> <r_lp_Energy>
13.7453

> <b_lp_Chiralities_Consistent>
1

> <s_lp_Variant>
AV-unprocessed.smi:1875-6

> <Gold.Version>
5.8.1

> <Gold.Id.Protein>
6NUR|6NUR_protein|mol2

> <Gold.PLP.Fitness>
58.0022

> <Gold.PLP.PLP>
-48.1272

> <Gold.PLP.part.hbond>
-2.0000

> <Gold.PLP.part.metal>
0.0000

> <Gold.PLP.part.buried>
-4.3457

> <Gold.PLP.part.nonpolar>
-41.1603

> <Gold.PLP.part.repulsive>
0.2534

> <Gold.PLP.ligand.clash>
0.0000

> <Gold.PLP.ligand.torsion>
1.0843

> <Gold.PLP.Chemscore.Hbond>
4.0000

> <Gold.PLP.Chemscore.CHOScore>
0.0000

> <Gold.PLP.Chemscore.Metal>
0.0000

> <Gold.Chemscore.Hbonds>
donor molecule, donor type, donor heavy atom, donor atom, acceptor molecule, acceptor atom, score
      L1  H     8    32       P1  7948  2.00
      L1  H    15    49       P1  8028  2.00

> <Gold.PLP.Chemscore.Internal.Correction>
0.0437

> <Gold.Rescore>
     Score         DG    S(hbond)    S(metal)    S(lipo)     H(rot)  DE(clash)    DE(int)     intcor
     17.66     -18.82       1.89        0.00     123.31       2.88       0.05       1.11       ----

> <Gold.Chemscore.Fitness>
17.6570

> <Gold.Chemscore.DG>
-18.8219

> <Gold.Chemscore.ZeroCoef>
-5.4800

> <Gold.Chemscore.Hbond>
1.8855

> <Gold.Chemscore.Metal>
0.0000

> <Gold.Chemscore.Lipo>
123.3066

> <Gold.Chemscore.Internal_Hbond>
0.0000

> <Gold.Chemscore.DEClash>
0.0539

> <Gold.Chemscore.DEInternal>
1.1109

> <Gold.Chemscore.Rot>
2.8838

> <Gold.Chemscore.Internal.Correction>
   9.000000E+99

> <Gold.Chemscore.Hbonds>
donor molecule, donor type, donor heavy atom, donor atom, acceptor molecule, acceptor atom, score
      L1  H     8    32       P1  7948  0.74
      L1  H    15    49       P1  8028  0.97

> <Gold.Chemscore.Hbond.Weighted>
-6.2975

> <Gold.Chemscore.Metal.Weighted>
-0.0000

> <Gold.Chemscore.Lipo.Weighted>
-14.4269

> <Gold.Chemscore.Internal_Hbond.Weighted>
0.0000

> <Gold.Chemscore.DEClash.Weighted>
0.0539

> <Gold.Chemscore.DEInternal.Weighted>
1.1109

> <Gold.Chemscore.Rot.Weighted>
7.3824

> <Gold.Chemscore.Internal.Correction.Weighted>
   9.000000E+99

> <Gold.Protein.RotatedTorsions>
[ 6907 6896 6895 6894 ] final -100.97 input  -60.11 | X-H torsion
[ 7974 7965 7964 7962 ] final  170.60 input  175.53 | X-H torsion
[ 8008 7997 7996 7995 ] final  -97.09 input   59.86 | X-H torsion
[ 10167 10162 10161 10158 ] final  134.52 input  -65.29 | X-H torsion
[ 10718 10713 10712 10709 ] final   81.33 input   66.30 | X-H torsion
[ 10763 10752 10751 10750 ] final -113.41 input  -60.55 | X-H torsion
[ 11005 11000 10999 10996 ] final  169.93 input  -57.11 | X-H torsion

> <Gold.Protein.ActiveResidues>
 VAL166  LYS551  ARG553  GLY616  TRP617  ASP618  TYR619  PRO620  LYS621  CYS622 
 ASP623  PHE694  ASN695  SER759  ASP760  ASP761  ALA762  ILE779  LEU786  VAL792 
 PHE793  MET794  SER795  GLU796  ALA797  LYS798  CYS799  TRP800  GLU811  SER814 

> <Gold.Protein.RotatedAtoms>
  150.7136  134.0806  159.3896 H   0  0  0  0  0  0  0  0  0  0  0  0  # atno 6907 bound_to 6896
  151.8790  135.0458  160.0496 H   0  0  0  0  0  0  0  0  0  0  0  0  # atno 6908 bound_to 6896
  152.2583  133.5239  159.5403 H   0  0  0  0  0  0  0  0  0  0  0  0  # atno 6909 bound_to 6896
  144.7319  139.9226  143.6421 H   0  0  0  0  0  0  0  0  0  0  0  0  # atno 7974 bound_to 7965
  154.7831  140.0466  157.1142 H   0  0  0  0  0  0  0  0  0  0  0  0  # atno 8008 bound_to 7997
  154.9681  140.3086  155.4980 H   0  0  0  0  0  0  0  0  0  0  0  0  # atno 8009 bound_to 7997
  156.2939  140.2258  156.4772 H   0  0  0  0  0  0  0  0  0  0  0  0  # atno 8010 bound_to 7997
  139.5253  144.6563  151.5151 H   0  0  0  0  0  0  0  0  0  0  0  0  # atno 10167 bound_to 10162
  157.6830  130.9999  150.2211 H   0  0  0  0  0  0  0  0  0  0  0  0  # atno 10718 bound_to 10713
  154.8395  135.4455  154.1345 H   0  0  0  0  0  0  0  0  0  0  0  0  # atno 10763 bound_to 10752
  153.2546  135.6930  153.7649 H   0  0  0  0  0  0  0  0  0  0  0  0  # atno 10764 bound_to 10752
  153.6948  135.3381  155.3186 H   0  0  0  0  0  0  0  0  0  0  0  0  # atno 10765 bound_to 10752
  140.3030  134.7580  157.3931 H   0  0  0  0  0  0  0  0  0  0  0  0  # atno 11005 bound_to 11000
  146.0918  139.3908  143.0401 LP  0  0  0  0  0  0  0  0  0  0  0  0  # atno 17320 bound_to 7965
  145.7701  140.9900  143.1154 LP  0  0  0  0  0  0  0  0  0  0  0  0  # atno 17321 bound_to 7965
  140.6391  143.8926  150.6674 LP  0  0  0  0  0  0  0  0  0  0  0  0  # atno 17342 bound_to 10162
  140.2254  143.3776  152.1609 LP  0  0  0  0  0  0  0  0  0  0  0  0  # atno 17343 bound_to 10162
  156.2862  130.3739  149.7886 LP  0  0  0  0  0  0  0  0  0  0  0  0  # atno 17370 bound_to 10713
  156.5560  130.8362  151.3314 LP  0  0  0  0  0  0  0  0  0  0  0  0  # atno 17371 bound_to 10713
  140.1093  134.5368  155.8281 LP  0  0  0  0  0  0  0  0  0  0  0  0  # atno 17394 bound_to 11000
  141.2124  133.6719  156.6658 LP  0  0  0  0  0  0  0  0  0  0  0  0  # atno 17395 bound_to 11000

$$$$
