AV-unprocessed.smi:1217|AV-procd|sdf|5103|dock3
  -GOLD-   22720 4153D 1   1.00000     0.00000
 Structure written by MMmdl.
 34 35  0  0  0  0  0  0  0  0  1 V2000
  148.2156  140.8183  153.5487 C   0  0  0  0  0  0  0  0  0  0  0  0
  147.6053  141.2166  154.9006 C   0  0  1  0  0  0  0  0  0  0  0  0
  148.5232  142.1307  155.5793 N   0  0  0  0  0  0  0  0  0  0  0  0
  149.4997  141.7780  156.4291 C   0  0  0  0  0  0  0  0  0  0  0  0
  149.7381  140.6127  156.7475 O   0  0  0  0  0  0  0  0  0  0  0  0
  150.1636  142.8575  156.8786 N   0  0  0  0  0  0  0  0  0  0  0  0
  151.2481  142.9036  157.7949 C   0  0  0  0  0  0  0  0  0  0  0  0
  151.7497  144.1972  158.0650 C   0  0  0  0  0  0  0  0  0  0  0  0
  152.8256  144.3502  158.9609 C   0  0  0  0  0  0  0  0  0  0  0  0
  153.3728  143.2044  159.5650 C   0  0  0  0  0  0  0  0  0  0  0  0
  152.8142  141.9539  159.2424 C   0  0  0  0  0  0  0  0  0  0  0  0
  151.7835  141.8049  158.3839 N   0  0  0  0  0  0  0  0  0  0  0  0
  146.2171  141.8689  154.7340 C   0  0  2  0  0  0  0  0  0  0  0  0
  146.1818  143.0931  153.8156 C   0  0  0  0  0  0  0  0  0  0  0  0
  144.9543  143.8170  154.3172 C   0  0  0  0  0  0  0  0  0  0  0  0
  145.0572  143.5913  155.8221 C   0  0  0  0  0  0  0  0  0  0  0  0
  145.7355  142.3485  155.9880 O   0  0  0  0  0  0  0  0  0  0  0  0
  147.5810  140.1033  153.0247 H   0  0  0  0  0  0  0  0  0  0  0  0
  149.1919  140.3510  153.6819 H   0  0  0  0  0  0  0  0  0  0  0  0
  148.3459  141.6846  152.8993 H   0  0  0  0  0  0  0  0  0  0  0  0
  147.4885  140.3040  155.4879 H   0  0  0  0  0  0  0  0  0  0  0  0
  148.4022  143.1134  155.3829 H   0  0  0  0  0  0  0  0  0  0  0  0
  149.8538  143.7515  156.5276 H   0  0  0  0  0  0  0  0  0  0  0  0
  151.3171  145.0672  157.5928 H   0  0  0  0  0  0  0  0  0  0  0  0
  153.2231  145.3301  159.1803 H   0  0  0  0  0  0  0  0  0  0  0  0
  154.1980  143.2814  160.2573 H   0  0  0  0  0  0  0  0  0  0  0  0
  153.2047  141.0495  159.6847 H   0  0  0  0  0  0  0  0  0  0  0  0
  145.4996  141.1332  154.3662 H   0  0  0  0  0  0  0  0  0  0  0  0
  147.0663  143.7141  153.9660 H   0  0  0  0  0  0  0  0  0  0  0  0
  146.1219  142.8324  152.7585 H   0  0  0  0  0  0  0  0  0  0  0  0
  144.9342  144.8724  154.0441 H   0  0  0  0  0  0  0  0  0  0  0  0
  144.0537  143.3428  153.9247 H   0  0  0  0  0  0  0  0  0  0  0  0
  145.6573  144.3756  156.2848 H   0  0  0  0  0  0  0  0  0  0  0  0
  144.0814  143.5807  156.3081 H   0  0  0  0  0  0  0  0  0  0  0  0
  1  2  1  0  0  0  0
  1 18  1  0  0  0  0
  1 19  1  0  0  0  0
  1 20  1  0  0  0  0
  2  3  1  0  0  0  0
  2 13  1  0  0  0  0
  2 21  1  0  0  0  0
  3  4  1  0  0  0  0
  3 22  1  0  0  0  0
  4  5  2  0  0  0  0
  4  6  1  0  0  0  0
  6  7  1  0  0  0  0
  6 23  1  0  0  0  0
  7 12  1  0  0  0  0
  7  8  2  0  0  0  0
  8  9  1  0  0  0  0
  8 24  1  0  0  0  0
  9 10  2  0  0  0  0
  9 25  1  0  0  0  0
 10 11  1  0  0  0  0
 10 26  1  0  0  0  0
 11 12  2  0  0  0  0
 11 27  1  0  0  0  0
 13 17  1  0  0  0  0
 13 14  1  0  0  0  0
 13 28  1  0  0  0  0
 14 15  1  0  0  0  0
 14 29  1  0  0  0  0
 14 30  1  0  0  0  0
 15 16  1  0  0  0  0
 15 31  1  0  0  0  0
 15 32  1  0  0  0  0
 16 17  1  0  0  0  0
 16 33  1  0  0  0  0
 16 34  1  0  0  0  0
M  END
> <s_m_source_file>
AV-unprocessed.smi

> <i_m_source_file_index>
1217

> <i_lp_mmshare_version>
43012

> <i_f3d_flags>
0

> <s_epik_input>
TzFbQ0gyXVtDSDJdW0NIMl1bQ0BIXTFbQ0BIXShbQ0gzXSlbTkhdQyg9TylbTkhdYzJbY0hdW2NIXVtjSF1bY0hdbjI=

> <s_epik_cmdline>
J2VwaWtfcHl0aG9uJywgJy1waCcsICc3LjAnLCAnLXRuJywgJzgnLCAnLW1hJywgJzIwMCcsICctbWV0YWxfYmluZGluZycsICctaW1hZScsICc8aW5maWxlLm1hZT4nLCAnLW9tYWUnLCAnPG91dGZpbGUubWFlPic=

> <r_lp_tautomer_probability>
1

> <r_epik_Ionization_Penalty>
4.51768e-05

> <r_epik_Ionization_Penalty_Charging>
0

> <r_epik_Ionization_Penalty_Neutral>
4.51768e-05

> <r_epik_State_Penalty>
-0

> <r_epik_Charging_Adjusted_Penalty>
0

> <i_epik_Tot_Q>
0

> <i_epik_Tot_abs_Q>
0

> <r_epik_Metal_State_Penalty>
-0

> <b_epik_Metal_Only>
0

> <s_lp_Force_Field>
OPLS_2005

> <r_lp_Energy>
19.7673

> <b_lp_Chiralities_Consistent>
1

> <s_lp_Variant>
AV-unprocessed.smi:1217-2

> <Gold.Version>
5.8.1

> <Gold.Id.Protein>
6NUR|6NUR_protein|mol2

> <Gold.PLP.Fitness>
41.2425

> <Gold.PLP.PLP>
-36.0248

> <Gold.PLP.part.hbond>
-2.0000

> <Gold.PLP.part.metal>
0.0000

> <Gold.PLP.part.buried>
-2.7980

> <Gold.PLP.part.nonpolar>
-31.8385

> <Gold.PLP.part.repulsive>
0.2920

> <Gold.PLP.ligand.clash>
0.0000

> <Gold.PLP.ligand.torsion>
0.3984

> <Gold.PLP.Chemscore.Hbond>
2.0000

> <Gold.PLP.Chemscore.CHOScore>
0.0000

> <Gold.PLP.Chemscore.Metal>
0.0000

> <Gold.Chemscore.Hbonds>
donor molecule, donor type, donor heavy atom, donor atom, acceptor molecule, acceptor atom, score
      L1  H     3    22       P1  8028  1.00
      L1  H     6    23       P1  8028  1.00

> <Gold.PLP.Chemscore.Internal.Correction>
0.0145

> <Gold.Rescore>
     Score         DG    S(hbond)    S(metal)    S(lipo)     H(rot)  DE(clash)    DE(int)     intcor
     16.67     -18.65       1.91        0.00      85.45       1.25       0.25       1.72       ----

> <Gold.Chemscore.Fitness>
16.6722

> <Gold.Chemscore.DG>
-18.6482

> <Gold.Chemscore.ZeroCoef>
-5.4800

> <Gold.Chemscore.Hbond>
1.9079

> <Gold.Chemscore.Metal>
0.0000

> <Gold.Chemscore.Lipo>
85.4496

> <Gold.Chemscore.Internal_Hbond>
0.0000

> <Gold.Chemscore.DEClash>
0.2538

> <Gold.Chemscore.DEInternal>
1.7222

> <Gold.Chemscore.Rot>
1.2506

> <Gold.Chemscore.Internal.Correction>
   9.000000E+99

> <Gold.Chemscore.Hbonds>
donor molecule, donor type, donor heavy atom, donor atom, acceptor molecule, acceptor atom, score
      L1  H     3    22       P1  8028  0.94
      L1  H     6    23       P1  8028  0.97

> <Gold.Chemscore.Hbond.Weighted>
-6.3722

> <Gold.Chemscore.Metal.Weighted>
-0.0000

> <Gold.Chemscore.Lipo.Weighted>
-9.9976

> <Gold.Chemscore.Internal_Hbond.Weighted>
0.0000

> <Gold.Chemscore.DEClash.Weighted>
0.2538

> <Gold.Chemscore.DEInternal.Weighted>
1.7222

> <Gold.Chemscore.Rot.Weighted>
3.2016

> <Gold.Chemscore.Internal.Correction.Weighted>
   9.000000E+99

> <Gold.Protein.RotatedTorsions>
[ 6907 6896 6895 6894 ] final  -87.01 input  -60.11 | X-H torsion
[ 7974 7965 7964 7962 ] final  -23.49 input  175.53 | X-H torsion
[ 8008 7997 7996 7995 ] final  -73.14 input   59.86 | X-H torsion
[ 10167 10162 10161 10158 ] final   62.27 input  -65.29 | X-H torsion
[ 10718 10713 10712 10709 ] final  -32.16 input   66.30 | X-H torsion
[ 10763 10752 10751 10750 ] final -125.00 input  -60.55 | X-H torsion
[ 11005 11000 10999 10996 ] final  -90.31 input  -57.11 | X-H torsion

> <Gold.Protein.ActiveResidues>
 VAL166  LYS551  ARG553  GLY616  TRP617  ASP618  TYR619  PRO620  LYS621  CYS622 
 ASP623  PHE694  ASN695  SER759  ASP760  ASP761  ALA762  ILE779  LEU786  VAL792 
 PHE793  MET794  SER795  GLU796  ALA797  LYS798  CYS799  TRP800  GLU811  SER814 

> <Gold.Protein.RotatedAtoms>
  150.6866  134.2962  159.4687 H   0  0  0  0  0  0  0  0  0  0  0  0  # atno 6907 bound_to 6896
  152.0862  134.9435  160.0582 H   0  0  0  0  0  0  0  0  0  0  0  0  # atno 6908 bound_to 6896
  152.0768  133.4099  159.4520 H   0  0  0  0  0  0  0  0  0  0  0  0  # atno 6909 bound_to 6896
  146.1613  140.4623  142.8570 H   0  0  0  0  0  0  0  0  0  0  0  0  # atno 7974 bound_to 7965
  154.5223  140.0784  156.8194 H   0  0  0  0  0  0  0  0  0  0  0  0  # atno 8008 bound_to 7997
  155.3550  140.3415  155.4221 H   0  0  0  0  0  0  0  0  0  0  0  0  # atno 8009 bound_to 7997
  156.1694  140.1614  156.8461 H   0  0  0  0  0  0  0  0  0  0  0  0  # atno 8010 bound_to 7997
  140.1458  144.4510  150.6786 H   0  0  0  0  0  0  0  0  0  0  0  0  # atno 10167 bound_to 10162
  156.3784  130.4351  149.7489 H   0  0  0  0  0  0  0  0  0  0  0  0  # atno 10718 bound_to 10713
  154.8730  135.4044  154.3198 H   0  0  0  0  0  0  0  0  0  0  0  0  # atno 10763 bound_to 10752
  153.4028  135.7018  153.6419 H   0  0  0  0  0  0  0  0  0  0  0  0  # atno 10764 bound_to 10752
  153.5155  135.3698  155.2578 H   0  0  0  0  0  0  0  0  0  0  0  0  # atno 10765 bound_to 10752
  141.1568  133.7684  156.9719 H   0  0  0  0  0  0  0  0  0  0  0  0  # atno 11005 bound_to 11000
  144.8031  140.6249  143.6465 LP  0  0  0  0  0  0  0  0  0  0  0  0  # atno 17320 bound_to 7965
  145.4581  139.1516  143.3881 LP  0  0  0  0  0  0  0  0  0  0  0  0  # atno 17321 bound_to 7965
  140.6733  143.2294  151.5571 LP  0  0  0  0  0  0  0  0  0  0  0  0  # atno 17342 bound_to 10162
  139.5450  144.2546  152.1424 LP  0  0  0  0  0  0  0  0  0  0  0  0  # atno 17343 bound_to 10162
  156.4589  130.7942  151.2963 LP  0  0  0  0  0  0  0  0  0  0  0  0  # atno 17370 bound_to 10713
  157.7490  131.0072  150.3180 LP  0  0  0  0  0  0  0  0  0  0  0  0  # atno 17371 bound_to 10713
  140.1124  134.9469  157.2084 LP  0  0  0  0  0  0  0  0  0  0  0  0  # atno 17394 bound_to 11000
  140.3177  134.2951  155.7253 LP  0  0  0  0  0  0  0  0  0  0  0  0  # atno 17395 bound_to 11000

$$$$
