AV-unprocessed.smi:1560|AV-procd|sdf|6275|dock4
  -GOLD-   22720 6463D 1   1.00000     0.00000
 Structure written by MMmdl.
 47 48  0  0  0  0  0  0  0  0  1 V2000
  149.5496  141.6589  155.1612 C   0  0  0  0  0  0  0  0  0  0  0  0
  150.6764  141.9435  156.1687 C   0  0  0  0  0  0  0  0  0  0  0  0
  151.1593  140.7076  156.9983 C   0  0  1  0  0  0  0  0  0  0  0  0
  149.9058  140.1414  157.7169 C   0  0  0  0  0  0  0  0  0  0  0  0
  151.6709  139.6099  156.0094 C   0  0  0  0  0  0  0  0  0  0  0  0
  151.5151  138.2557  156.5260 N   0  0  0  0  0  0  0  0  0  0  0  0
  151.3721  137.1407  155.7942 C   0  0  0  0  0  0  0  0  0  0  0  0
  151.3481  137.1480  154.5641 O   0  0  0  0  0  0  0  0  0  0  0  0
  151.2302  135.8056  156.5466 C   0  0  0  0  0  0  0  0  0  0  0  0
  150.1298  134.9508  156.0672 N   0  0  0  0  0  0  0  0  0  0  0  0
  150.0684  134.5793  154.7315 C   0  0  0  0  0  0  0  0  0  0  0  0
  149.0700  133.8266  154.2116 C   0  0  0  0  0  0  0  0  0  0  0  0
  147.9798  133.3581  155.0602 C   0  0  0  0  0  0  0  0  0  0  0  0
  147.0304  132.6750  154.6829 O   0  0  0  0  0  0  0  0  0  0  0  0
  148.0773  133.7512  156.3975 N   0  0  0  0  0  0  0  0  0  0  0  0
  149.1030  134.5267  156.9395 C   0  0  0  0  0  0  0  0  0  0  0  0
  149.0850  134.8291  158.1318 O   0  0  0  0  0  0  0  0  0  0  0  0
  152.2386  141.0881  157.9586 N   0  0  0  0  0  0  0  0  0  0  0  0
  151.9263  142.2264  158.8340 C   0  0  0  0  0  0  0  0  0  0  0  0
  153.1247  142.6395  159.7050 C   0  0  0  0  0  0  0  0  0  0  0  0
  153.5605  141.5283  160.4770 O   0  0  0  0  0  0  0  0  0  0  0  0
  153.9396  140.4250  159.6649 C   0  0  0  0  0  0  0  0  0  0  0  0
  152.7519  139.9899  158.7893 C   0  0  0  0  0  0  0  0  0  0  0  0
  147.3435  133.4514  157.0229 H   0  0  0  0  0  0  0  0  0  0  0  0
  149.2973  142.5624  154.6060 H   0  0  0  0  0  0  0  0  0  0  0  0
  148.6404  141.3197  155.6569 H   0  0  0  0  0  0  0  0  0  0  0  0
  149.8413  140.8994  154.4357 H   0  0  0  0  0  0  0  0  0  0  0  0
  151.5122  142.3998  155.6396 H   0  0  0  0  0  0  0  0  0  0  0  0
  150.3423  142.7428  156.8311 H   0  0  0  0  0  0  0  0  0  0  0  0
  149.1174  139.8877  157.0073 H   0  0  0  0  0  0  0  0  0  0  0  0
  149.4704  140.8582  158.4126 H   0  0  0  0  0  0  0  0  0  0  0  0
  150.1273  139.2317  158.2744 H   0  0  0  0  0  0  0  0  0  0  0  0
  151.1490  139.6775  155.0540 H   0  0  0  0  0  0  0  0  0  0  0  0
  152.7305  139.7528  155.7957 H   0  0  0  0  0  0  0  0  0  0  0  0
  151.5220  138.1555  157.5306 H   0  0  0  0  0  0  0  0  0  0  0  0
  152.1772  135.2696  156.4668 H   0  0  0  0  0  0  0  0  0  0  0  0
  151.1135  136.0168  157.6110 H   0  0  0  0  0  0  0  0  0  0  0  0
  150.8518  134.9097  154.0643 H   0  0  0  0  0  0  0  0  0  0  0  0
  149.0767  133.5718  153.1616 H   0  0  0  0  0  0  0  0  0  0  0  0
  151.6346  143.0995  158.2545 H   0  0  0  0  0  0  0  0  0  0  0  0
  151.0886  141.9824  159.4870 H   0  0  0  0  0  0  0  0  0  0  0  0
  153.9441  143.0080  159.0858 H   0  0  0  0  0  0  0  0  0  0  0  0
  152.8420  143.4501  160.3769 H   0  0  0  0  0  0  0  0  0  0  0  0
  154.7961  140.6963  159.0457 H   0  0  0  0  0  0  0  0  0  0  0  0
  154.2573  139.6035  160.3071 H   0  0  0  0  0  0  0  0  0  0  0  0
  151.9626  139.6035  159.4342 H   0  0  0  0  0  0  0  0  0  0  0  0
  153.0954  139.1604  158.1749 H   0  0  0  0  0  0  0  0  0  0  0  0
  1  2  1  0  0  0  0
  1 25  1  0  0  0  0
  1 26  1  0  0  0  0
  1 27  1  0  0  0  0
  2  3  1  0  0  0  0
  2 28  1  0  0  0  0
  2 29  1  0  0  0  0
  3  4  1  0  0  0  0
  3  5  1  0  0  0  0
  3 18  1  0  0  0  0
  4 30  1  0  0  0  0
  4 31  1  0  0  0  0
  4 32  1  0  0  0  0
  5  6  1  0  0  0  0
  5 33  1  0  0  0  0
  5 34  1  0  0  0  0
  6  7  1  0  0  0  0
  6 35  1  0  0  0  0
  7  8  2  0  0  0  0
  7  9  1  0  0  0  0
  9 10  1  0  0  0  0
  9 36  1  0  0  0  0
  9 37  1  0  0  0  0
 10 16  1  0  0  0  0
 10 11  1  0  0  0  0
 11 12  2  0  0  0  0
 11 38  1  0  0  0  0
 12 13  1  0  0  0  0
 12 39  1  0  0  0  0
 13 14  2  0  0  0  0
 13 15  1  0  0  0  0
 15 24  1  0  0  0  0
 15 16  1  0  0  0  0
 16 17  2  0  0  0  0
 18 23  1  0  0  0  0
 18 19  1  0  0  0  0
 19 20  1  0  0  0  0
 19 40  1  0  0  0  0
 19 41  1  0  0  0  0
 20 21  1  0  0  0  0
 20 42  1  0  0  0  0
 20 43  1  0  0  0  0
 21 22  1  0  0  0  0
 22 23  1  0  0  0  0
 22 44  1  0  0  0  0
 22 45  1  0  0  0  0
 23 46  1  0  0  0  0
 23 47  1  0  0  0  0
M  END
> <s_m_source_file>
AV-unprocessed.smi

> <i_m_source_file_index>
1560

> <i_lp_mmshare_version>
43012

> <i_f3d_flags>
0

> <s_epik_input>
W0NIMl0xW0NIMl1PW0NIMl1bQ0gyXU4xW0NAQF0oW0NIM10pKFtDSDJdW0NIM10pW0NIMl1bTkhdQyg9TylbQ0gyXW4yW2NIXVtjSF1jKD1PKVtuSF1jMj1P

> <s_epik_cmdline>
J2VwaWtfcHl0aG9uJywgJy1waCcsICc3LjAnLCAnLXRuJywgJzgnLCAnLW1hJywgJzIwMCcsICctbWV0YWxfYmluZGluZycsICctaW1hZScsICc8aW5maWxlLm1hZT4nLCAnLW9tYWUnLCAnPG91dGZpbGUubWFlPic=

> <r_lp_tautomer_probability>
0.999537

> <r_epik_Ionization_Penalty>
0.321965

> <r_epik_Ionization_Penalty_Charging>
0.00329831

> <r_epik_Ionization_Penalty_Neutral>
0.318667

> <r_epik_State_Penalty>
0.288097

> <r_epik_Charging_Adjusted_Penalty>
0.291396

> <i_epik_Tot_Q>
0

> <i_epik_Tot_abs_Q>
0

> <r_epik_Metal_State_Penalty>
0.654595

> <b_epik_Metal_Only>
0

> <s_lp_Force_Field>
OPLS_2005

> <r_lp_Energy>
42.3402

> <b_lp_Chiralities_Consistent>
1

> <s_lp_Variant>
AV-unprocessed.smi:1560-1

> <Gold.Version>
5.8.1

> <Gold.Id.Protein>
6NUR|6NUR_protein|mol2

> <Gold.PLP.Fitness>
38.3137

> <Gold.PLP.PLP>
-33.9041

> <Gold.PLP.part.hbond>
-2.0000

> <Gold.PLP.part.metal>
0.0000

> <Gold.PLP.part.buried>
-5.4266

> <Gold.PLP.part.nonpolar>
-26.7047

> <Gold.PLP.part.repulsive>
0.2208

> <Gold.PLP.ligand.clash>
0.0000

> <Gold.PLP.ligand.torsion>
0.8398

> <Gold.PLP.Chemscore.Hbond>
2.0000

> <Gold.PLP.Chemscore.CHOScore>
0.0000

> <Gold.PLP.Chemscore.Metal>
0.0000

> <Gold.Chemscore.Hbonds>
donor molecule, donor type, donor heavy atom, donor atom, acceptor molecule, acceptor atom, score
      P1  H  6896  6907       L1    17  0.73
      P1  H 10752 10765       L1     8  0.32
      L1  C    11    38       P1  7949  0.22

> <Gold.PLP.Chemscore.Internal.Correction>
0.0893

> <Gold.Rescore>
     Score         DG    S(hbond)    S(metal)    S(lipo)     H(rot)  DE(clash)    DE(int)     intcor
     12.53     -14.87       1.83        0.00      82.31       2.49       0.00       2.34       ----

> <Gold.Chemscore.Fitness>
12.5307

> <Gold.Chemscore.DG>
-14.8707

> <Gold.Chemscore.ZeroCoef>
-5.4800

> <Gold.Chemscore.Hbond>
1.8337

> <Gold.Chemscore.Metal>
0.0000

> <Gold.Chemscore.Lipo>
82.3144

> <Gold.Chemscore.Internal_Hbond>
0.0000

> <Gold.Chemscore.DEClash>
0.0000

> <Gold.Chemscore.DEInternal>
2.3401

> <Gold.Chemscore.Rot>
2.4862

> <Gold.Chemscore.Internal.Correction>
   9.000000E+99

> <Gold.Chemscore.Hbonds>
donor molecule, donor type, donor heavy atom, donor atom, acceptor molecule, acceptor atom, score
      P1  H  6896  6907       L1    17  0.68
      P1  H 10752 10765       L1     8  0.02

> <Gold.Chemscore.Hbond.Weighted>
-6.1246

> <Gold.Chemscore.Metal.Weighted>
-0.0000

> <Gold.Chemscore.Lipo.Weighted>
-9.6308

> <Gold.Chemscore.Internal_Hbond.Weighted>
0.0000

> <Gold.Chemscore.DEClash.Weighted>
0.0000

> <Gold.Chemscore.DEInternal.Weighted>
2.3401

> <Gold.Chemscore.Rot.Weighted>
6.3646

> <Gold.Chemscore.Internal.Correction.Weighted>
   9.000000E+99

> <Gold.Protein.RotatedTorsions>
[ 6907 6896 6895 6894 ] final -103.67 input  -60.11 | X-H torsion
[ 7974 7965 7964 7962 ] final  -30.56 input  175.53 | X-H torsion
[ 8008 7997 7996 7995 ] final   46.35 input   59.86 | X-H torsion
[ 10167 10162 10161 10158 ] final -103.76 input  -65.29 | X-H torsion
[ 10718 10713 10712 10709 ] final -138.97 input   66.30 | X-H torsion
[ 10763 10752 10751 10750 ] final  173.63 input  -60.55 | X-H torsion
[ 11005 11000 10999 10996 ] final  140.27 input  -57.11 | X-H torsion

> <Gold.Protein.ActiveResidues>
 VAL166  LYS551  ARG553  GLY616  TRP617  ASP618  TYR619  PRO620  LYS621  CYS622 
 ASP623  PHE694  ASN695  SER759  ASP760  ASP761  ALA762  ILE779  LEU786  VAL792 
 PHE793  MET794  SER795  GLU796  ALA797  LYS798  CYS799  TRP800  GLU811  SER814 

> <Gold.Protein.RotatedAtoms>
  150.7251  134.0394  159.3760 H   0  0  0  0  0  0  0  0  0  0  0  0  # atno 6907 bound_to 6896
  151.8367  135.0601  160.0452 H   0  0  0  0  0  0  0  0  0  0  0  0  # atno 6908 bound_to 6896
  152.2893  133.5510  159.5584 H   0  0  0  0  0  0  0  0  0  0  0  0  # atno 6909 bound_to 6896
  146.1134  140.5556  142.8768 H   0  0  0  0  0  0  0  0  0  0  0  0  # atno 7974 bound_to 7965
  155.3511  140.3413  155.4239 H   0  0  0  0  0  0  0  0  0  0  0  0  # atno 8008 bound_to 7997
  156.1763  140.1649  156.8391 H   0  0  0  0  0  0  0  0  0  0  0  0  # atno 8009 bound_to 7997
  154.5286  140.0750  156.8286 H   0  0  0  0  0  0  0  0  0  0  0  0  # atno 8010 bound_to 7997
  140.2166  143.3707  152.1005 H   0  0  0  0  0  0  0  0  0  0  0  0  # atno 10167 bound_to 10162
  156.3054  130.7452  151.1514 H   0  0  0  0  0  0  0  0  0  0  0  0  # atno 10718 bound_to 10713
  154.4428  135.2762  155.1836 H   0  0  0  0  0  0  0  0  0  0  0  0  # atno 10763 bound_to 10752
  154.3695  135.6112  153.5736 H   0  0  0  0  0  0  0  0  0  0  0  0  # atno 10764 bound_to 10752
  152.9842  135.5854  154.4758 H   0  0  0  0  0  0  0  0  0  0  0  0  # atno 10765 bound_to 10752
  140.0315  134.9349  157.0671 H   0  0  0  0  0  0  0  0  0  0  0  0  # atno 11005 bound_to 11000
  144.7531  140.5241  143.6788 LP  0  0  0  0  0  0  0  0  0  0  0  0  # atno 17320 bound_to 7965
  145.5617  139.1479  143.3337 LP  0  0  0  0  0  0  0  0  0  0  0  0  # atno 17321 bound_to 7965
  139.5160  144.6971  151.5600 LP  0  0  0  0  0  0  0  0  0  0  0  0  # atno 17342 bound_to 10162
  140.6285  143.9121  150.6585 LP  0  0  0  0  0  0  0  0  0  0  0  0  # atno 17343 bound_to 10162
  157.7378  131.0547  150.5332 LP  0  0  0  0  0  0  0  0  0  0  0  0  # atno 17370 bound_to 10713
  156.5465  130.4221  149.6128 LP  0  0  0  0  0  0  0  0  0  0  0  0  # atno 17371 bound_to 10713
  140.4218  134.1873  155.7165 LP  0  0  0  0  0  0  0  0  0  0  0  0  # atno 17394 bound_to 11000
  141.1833  133.8366  157.1178 LP  0  0  0  0  0  0  0  0  0  0  0  0  # atno 17395 bound_to 11000

$$$$
