AV-unprocessed.smi:2826|AV-procd|sdf|10895|dock2
  -GOLD-   2272015343D 1   1.00000     0.00000
 Structure written by MMmdl.
 50 51  0  0  0  0  0  0  0  0  1 V2000
  151.8539  141.2005  157.2407 C   0  0  0  0  0  0  0  0  0  0  0  0
  152.4962  139.9532  157.0009 O   0  0  0  0  0  0  0  0  0  0  0  0
  151.7906  138.9703  156.3376 C   0  0  0  0  0  0  0  0  0  0  0  0
  152.0775  137.6226  156.6266 C   0  0  0  0  0  0  0  0  0  0  0  0
  151.3646  136.6156  155.9499 C   0  0  0  0  0  0  0  0  0  0  0  0
  150.3885  136.9856  154.9937 C   0  0  0  0  0  0  0  0  0  0  0  0
  149.6058  136.0397  154.2744 N   0  0  0  0  0  0  0  0  0  0  0  0
  149.3197  134.7701  154.6094 C   0  0  0  0  0  0  0  0  0  0  0  0
  149.7038  134.1994  155.6301 O   0  0  0  0  0  0  0  0  0  0  0  0
  148.5706  134.1784  153.6683 N   0  0  0  0  0  0  0  0  0  0  0  0
  148.1060  132.7923  153.7042 C   0  0  1  0  0  0  0  0  0  0  0  0
  147.1236  132.5849  154.8674 C   0  0  0  0  0  0  0  0  0  0  0  0
  145.7592  133.2311  154.5720 C   0  0  0  0  0  0  0  0  0  0  0  0
  145.2417  132.7350  153.3424 O   0  0  0  0  0  0  0  0  0  0  0  0
  146.0524  133.0592  152.2156 C   0  0  2  0  0  0  0  0  0  0  0  0
  145.3343  132.5827  150.9392 C   0  0  0  0  0  0  0  0  0  0  0  0
  143.9716  133.2585  150.6709 C   0  0  0  0  0  0  0  0  0  0  0  0
  143.3262  132.6852  149.3999 C   0  0  0  0  0  0  0  0  0  0  0  0
  144.0785  134.7897  150.5711 C   0  0  0  0  0  0  0  0  0  0  0  0
  147.4297  132.3848  152.3816 C   0  0  0  0  0  0  0  0  0  0  0  0
  150.1612  138.3679  154.7876 C   0  0  0  0  0  0  0  0  0  0  0  0
  149.1193  138.8603  153.7985 C   0  0  0  0  0  0  0  0  0  0  0  0
  150.8459  139.3353  155.4366 N   0  0  0  0  0  0  0  0  0  0  0  0
  152.5418  141.8658  157.7621 H   0  0  0  0  0  0  0  0  0  0  0  0
  150.9707  141.0794  157.8693 H   0  0  0  0  0  0  0  0  0  0  0  0
  151.5662  141.6875  156.3078 H   0  0  0  0  0  0  0  0  0  0  0  0
  152.8291  137.3650  157.3581 H   0  0  0  0  0  0  0  0  0  0  0  0
  151.5696  135.5832  156.1874 H   0  0  0  0  0  0  0  0  0  0  0  0
  149.2941  136.3395  153.3623 H   0  0  0  0  0  0  0  0  0  0  0  0
  148.3062  134.7237  152.8609 H   0  0  0  0  0  0  0  0  0  0  0  0
  148.9723  132.1499  153.8727 H   0  0  0  0  0  0  0  0  0  0  0  0
  146.9784  131.5154  155.0247 H   0  0  0  0  0  0  0  0  0  0  0  0
  147.5382  132.9772  155.7969 H   0  0  0  0  0  0  0  0  0  0  0  0
  145.0547  132.9943  155.3693 H   0  0  0  0  0  0  0  0  0  0  0  0
  145.8387  134.3186  154.5334 H   0  0  0  0  0  0  0  0  0  0  0  0
  146.1915  134.1396  152.1680 H   0  0  0  0  0  0  0  0  0  0  0  0
  145.9862  132.7393  150.0786 H   0  0  0  0  0  0  0  0  0  0  0  0
  145.1879  131.5040  151.0102 H   0  0  0  0  0  0  0  0  0  0  0  0
  143.3040  133.0242  151.5008 H   0  0  0  0  0  0  0  0  0  0  0  0
  143.9390  132.8833  148.5200 H   0  0  0  0  0  0  0  0  0  0  0  0
  142.3425  133.1224  149.2257 H   0  0  0  0  0  0  0  0  0  0  0  0
  143.1938  131.6055  149.4772 H   0  0  0  0  0  0  0  0  0  0  0  0
  144.7797  135.0885  149.7912 H   0  0  0  0  0  0  0  0  0  0  0  0
  144.4108  135.2337  151.5090 H   0  0  0  0  0  0  0  0  0  0  0  0
  143.1112  135.2342  150.3349 H   0  0  0  0  0  0  0  0  0  0  0  0
  148.0729  132.6192  151.5325 H   0  0  0  0  0  0  0  0  0  0  0  0
  147.3000  131.3018  152.3717 H   0  0  0  0  0  0  0  0  0  0  0  0
  149.3447  138.4954  152.7960 H   0  0  0  0  0  0  0  0  0  0  0  0
  149.0847  139.9499  153.7603 H   0  0  0  0  0  0  0  0  0  0  0  0
  148.1293  138.5028  154.0819 H   0  0  0  0  0  0  0  0  0  0  0  0
  1  2  1  0  0  0  0
  1 24  1  0  0  0  0
  1 25  1  0  0  0  0
  1 26  1  0  0  0  0
  2  3  1  0  0  0  0
  3 23  1  0  0  0  0
  3  4  2  0  0  0  0
  4  5  1  0  0  0  0
  4 27  1  0  0  0  0
  5  6  2  0  0  0  0
  5 28  1  0  0  0  0
  6  7  1  0  0  0  0
  6 21  1  0  0  0  0
  7  8  1  0  0  0  0
  7 29  1  0  0  0  0
  8  9  2  0  0  0  0
  8 10  1  0  0  0  0
 10 11  1  0  0  0  0
 10 30  1  0  0  0  0
 11 20  1  0  0  0  0
 11 12  1  0  0  0  0
 11 31  1  0  0  0  0
 12 13  1  0  0  0  0
 12 32  1  0  0  0  0
 12 33  1  0  0  0  0
 13 14  1  0  0  0  0
 13 34  1  0  0  0  0
 13 35  1  0  0  0  0
 14 15  1  0  0  0  0
 15 16  1  0  0  0  0
 15 20  1  0  0  0  0
 15 36  1  0  0  0  0
 16 17  1  0  0  0  0
 16 37  1  0  0  0  0
 16 38  1  0  0  0  0
 17 18  1  0  0  0  0
 17 19  1  0  0  0  0
 17 39  1  0  0  0  0
 18 40  1  0  0  0  0
 18 41  1  0  0  0  0
 18 42  1  0  0  0  0
 19 43  1  0  0  0  0
 19 44  1  0  0  0  0
 19 45  1  0  0  0  0
 20 46  1  0  0  0  0
 20 47  1  0  0  0  0
 21 22  1  0  0  0  0
 21 23  2  0  0  0  0
 22 48  1  0  0  0  0
 22 49  1  0  0  0  0
 22 50  1  0  0  0  0
M  END
> <s_m_source_file>
AV-unprocessed.smi

> <i_m_source_file_index>
2826

> <i_lp_mmshare_version>
43012

> <i_f3d_flags>
0

> <s_epik_input>
W0NIM11PYzFbY0hdW2NIXWMoYyhuMSlbQ0gzXSlbTkhdQyg9TylbTkhdW0NAQEhdMltDSDJdW0NIMl1PW0NASF0oW0NIMl0yKVtDSDJdW0NIXShbQ0gzXSlbQ0gzXQ==

> <s_epik_cmdline>
J2VwaWtfcHl0aG9uJywgJy1waCcsICc3LjAnLCAnLXRuJywgJzgnLCAnLW1hJywgJzIwMCcsICctbWV0YWxfYmluZGluZycsICctaW1hZScsICc8aW5maWxlLm1hZT4nLCAnLW9tYWUnLCAnPG91dGZpbGUubWFlPic=

> <r_lp_tautomer_probability>
1

> <r_epik_Ionization_Penalty>
0.000249977

> <r_epik_Ionization_Penalty_Charging>
0

> <r_epik_Ionization_Penalty_Neutral>
0.000249977

> <r_epik_State_Penalty>
-0

> <r_epik_Charging_Adjusted_Penalty>
0

> <i_epik_Tot_Q>
0

> <i_epik_Tot_abs_Q>
0

> <r_epik_Metal_State_Penalty>
-0

> <b_epik_Metal_Only>
0

> <s_lp_Force_Field>
OPLS_2005

> <r_lp_Energy>
13.0858

> <b_lp_Chiralities_Consistent>
1

> <s_lp_Variant>
AV-unprocessed.smi:2826-4

> <Gold.Version>
5.8.1

> <Gold.Id.Protein>
6NUR|6NUR_protein|mol2

> <Gold.PLP.Fitness>
41.7277

> <Gold.PLP.PLP>
-33.7506

> <Gold.PLP.part.hbond>
-3.2619

> <Gold.PLP.part.metal>
0.0000

> <Gold.PLP.part.buried>
-1.6035

> <Gold.PLP.part.nonpolar>
-28.4399

> <Gold.PLP.part.repulsive>
0.2132

> <Gold.PLP.ligand.clash>
0.0000

> <Gold.PLP.ligand.torsion>
0.5460

> <Gold.PLP.Chemscore.Hbond>
3.0000

> <Gold.PLP.Chemscore.CHOScore>
0.0000

> <Gold.PLP.Chemscore.Metal>
0.0000

> <Gold.Chemscore.Hbonds>
donor molecule, donor type, donor heavy atom, donor atom, acceptor molecule, acceptor atom, score
      L1  H     7    29       P1  7948  0.96
      L1  H    10    30       P1  7948  0.77
      P1  H  7997  8010       L1     2  1.00

> <Gold.PLP.Chemscore.Internal.Correction>
0.0692

> <Gold.Rescore>
     Score         DG    S(hbond)    S(metal)    S(lipo)     H(rot)  DE(clash)    DE(int)     intcor
     15.74     -18.06       1.89        0.00      86.47       1.51       0.56       1.75       ----

> <Gold.Chemscore.Fitness>
15.7440

> <Gold.Chemscore.DG>
-18.0589

> <Gold.Chemscore.ZeroCoef>
-5.4800

> <Gold.Chemscore.Hbond>
1.8911

> <Gold.Chemscore.Metal>
0.0000

> <Gold.Chemscore.Lipo>
86.4718

> <Gold.Chemscore.Internal_Hbond>
0.0000

> <Gold.Chemscore.DEClash>
0.5603

> <Gold.Chemscore.DEInternal>
1.7545

> <Gold.Chemscore.Rot>
1.5057

> <Gold.Chemscore.Internal.Correction>
   9.000000E+99

> <Gold.Chemscore.Hbonds>
donor molecule, donor type, donor heavy atom, donor atom, acceptor molecule, acceptor atom, score
      L1  H     7    29       P1  7948  0.77
      L1  H    10    30       P1  7948  0.43
      P1  H  7997  8010       L1     2  0.84

> <Gold.Chemscore.Hbond.Weighted>
-6.3163

> <Gold.Chemscore.Metal.Weighted>
-0.0000

> <Gold.Chemscore.Lipo.Weighted>
-10.1172

> <Gold.Chemscore.Internal_Hbond.Weighted>
0.0000

> <Gold.Chemscore.DEClash.Weighted>
0.5603

> <Gold.Chemscore.DEInternal.Weighted>
1.7545

> <Gold.Chemscore.Rot.Weighted>
3.8547

> <Gold.Chemscore.Internal.Correction.Weighted>
   9.000000E+99

> <Gold.Protein.RotatedTorsions>
[ 6907 6896 6895 6894 ] final -126.02 input  -60.11 | X-H torsion
[ 7974 7965 7964 7962 ] final   95.60 input  175.53 | X-H torsion
[ 8008 7997 7996 7995 ] final   55.34 input   59.86 | X-H torsion
[ 10167 10162 10161 10158 ] final   -2.23 input  -65.29 | X-H torsion
[ 10718 10713 10712 10709 ] final   52.99 input   66.30 | X-H torsion
[ 10763 10752 10751 10750 ] final   74.43 input  -60.55 | X-H torsion
[ 11005 11000 10999 10996 ] final -167.71 input  -57.11 | X-H torsion

> <Gold.Protein.ActiveResidues>
 VAL166  LYS551  ARG553  GLY616  TRP617  ASP618  TYR619  PRO620  LYS621  CYS622 
 ASP623  PHE694  ASN695  SER759  ASP760  ASP761  ALA762  ILE779  LEU786  VAL792 
 PHE793  MET794  SER795  GLU796  ALA797  LYS798  CYS799  TRP800  GLU811  SER814 

> <Gold.Protein.RotatedAtoms>
  150.8926  133.7223  159.2900 H   0  0  0  0  0  0  0  0  0  0  0  0  # atno 6907 bound_to 6896
  151.4768  135.1048  159.9776 H   0  0  0  0  0  0  0  0  0  0  0  0  # atno 6908 bound_to 6896
  152.4829  133.8253  159.7130 H   0  0  0  0  0  0  0  0  0  0  0  0  # atno 6909 bound_to 6896
  145.4501  139.2294  143.3044 H   0  0  0  0  0  0  0  0  0  0  0  0  # atno 7974 bound_to 7965
  155.4995  140.3474  155.4368 H   0  0  0  0  0  0  0  0  0  0  0  0  # atno 8008 bound_to 7997
  156.0923  140.1414  156.9603 H   0  0  0  0  0  0  0  0  0  0  0  0  # atno 8009 bound_to 7997
  154.4642  140.0923  156.6954 H   0  0  0  0  0  0  0  0  0  0  0  0  # atno 8010 bound_to 7997
  140.6843  143.6681  150.8208 H   0  0  0  0  0  0  0  0  0  0  0  0  # atno 10167 bound_to 10162
  157.5126  130.8511  149.8454 H   0  0  0  0  0  0  0  0  0  0  0  0  # atno 10718 bound_to 10713
  153.0586  135.5026  154.8041 H   0  0  0  0  0  0  0  0  0  0  0  0  # atno 10763 bound_to 10752
  154.6847  135.2974  154.9566 H   0  0  0  0  0  0  0  0  0  0  0  0  # atno 10764 bound_to 10752
  154.0340  135.6725  153.4836 H   0  0  0  0  0  0  0  0  0  0  0  0  # atno 10765 bound_to 10752
  140.5502  134.5436  157.5120 H   0  0  0  0  0  0  0  0  0  0  0  0  # atno 11005 bound_to 11000
  146.2509  140.5259  142.8894 LP  0  0  0  0  0  0  0  0  0  0  0  0  # atno 17320 bound_to 7965
  144.8067  140.6312  143.6442 LP  0  0  0  0  0  0  0  0  0  0  0  0  # atno 17321 bound_to 7965
  140.0386  143.5369  152.2728 LP  0  0  0  0  0  0  0  0  0  0  0  0  # atno 17342 bound_to 10162
  139.6188  144.7625  151.2786 LP  0  0  0  0  0  0  0  0  0  0  0  0  # atno 17343 bound_to 10162
  156.0299  130.3768  150.1717 LP  0  0  0  0  0  0  0  0  0  0  0  0  # atno 17370 bound_to 10713
  156.9907  130.9892  151.3415 LP  0  0  0  0  0  0  0  0  0  0  0  0  # atno 17371 bound_to 10713
  139.9459  134.7703  156.0564 LP  0  0  0  0  0  0  0  0  0  0  0  0  # atno 17394 bound_to 11000
  141.1176  133.6623  156.3133 LP  0  0  0  0  0  0  0  0  0  0  0  0  # atno 17395 bound_to 11000

$$$$
