AV-unprocessed.smi:236|AV-procd|sdf|1812|dock1
  -GOLD-   2262020393D 1   1.00000     0.00000
 Structure written by MMmdl.
 58 62  0  0  0  0  0  0  0  0  1 V2000
  143.8293  134.7690  161.6863 C   0  0  0  0  0  0  0  0  0  0  0  0
  145.0931  135.1704  162.4610 C   0  0  1  0  0  0  0  0  0  0  0  0
  145.7705  134.0184  162.9559 O   0  0  0  0  0  0  0  0  0  0  0  0
  147.1770  134.2461  162.9744 C   0  0  0  0  0  0  0  0  0  0  0  0
  147.3655  135.7078  162.5782 C   0  0  0  0  0  0  0  0  0  0  0  0
  146.1576  135.9702  161.6864 C   0  0  2  0  0  0  0  0  0  0  0  0
  145.8565  137.3524  161.7203 O   0  0  0  0  0  0  0  0  0  0  0  0
  146.3475  135.5098  160.2143 C   0  0  0  0  0  0  0  0  0  0  0  0
  147.4041  136.2146  159.5055 N   0  0  0  0  0  0  0  0  0  0  0  0
  148.7512  136.1806  159.7881 C   0  0  0  0  0  0  0  0  0  0  0  0
  149.5025  136.9080  159.0076 N   0  0  0  0  0  0  0  0  0  0  0  0
  148.6083  137.4708  158.1046 C   0  0  0  0  0  0  0  0  0  0  0  0
  148.7342  138.3567  156.9969 C   0  0  0  0  0  0  0  0  0  0  0  0
  149.8925  138.9002  156.5680 N   0  0  0  0  0  0  0  0  0  0  0  0
  150.2876  138.4301  155.2476 C   0  0  0  0  0  0  0  0  0  0  0  0
  151.6900  138.9569  154.9041 C   0  0  0  0  0  0  0  0  0  0  0  0
  151.7037  140.3766  155.0186 O   0  0  0  0  0  0  0  0  0  0  0  0
  151.4081  140.8204  156.3421 C   0  0  1  0  0  0  0  0  0  0  0  0
  151.5240  142.3495  156.3694 C   0  0  0  0  0  0  0  0  0  0  0  0
  151.1301  142.8201  157.6476 O   0  0  0  0  0  0  0  0  0  0  0  0
  151.4242  144.1929  157.8388 C   0  0  0  0  0  0  0  0  0  0  0  0
  152.3052  144.3449  159.0604 C   0  0  0  0  0  0  0  0  0  0  0  0
  153.1993  143.2152  159.5201 C   0  0  0  0  0  0  0  0  0  0  0  0
  151.9821  143.5862  160.3277 C   0  0  0  0  0  0  0  0  0  0  0  0
  149.9870  140.3484  156.7064 C   0  0  0  0  0  0  0  0  0  0  0  0
  147.6071  138.7086  156.3317 N   0  0  0  0  0  0  0  0  0  0  0  0
  146.4243  138.2195  156.7163 C   0  0  0  0  0  0  0  0  0  0  0  0
  146.1518  137.3875  157.7243 N   0  0  0  0  0  0  0  0  0  0  0  0
  147.2843  137.0401  158.4011 C   0  0  0  0  0  0  0  0  0  0  0  0
  143.3242  135.6455  161.2796 H   0  0  0  0  0  0  0  0  0  0  0  0
  143.1251  134.2553  162.3407 H   0  0  0  0  0  0  0  0  0  0  0  0
  144.0572  134.0947  160.8609 H   0  0  0  0  0  0  0  0  0  0  0  0
  144.7918  135.7449  163.3392 H   0  0  0  0  0  0  0  0  0  0  0  0
  147.6024  134.0258  163.9537 H   0  0  0  0  0  0  0  0  0  0  0  0
  147.6477  133.5860  162.2451 H   0  0  0  0  0  0  0  0  0  0  0  0
  147.3106  136.3243  163.4773 H   0  0  0  0  0  0  0  0  0  0  0  0
  148.3306  135.9061  162.1144 H   0  0  0  0  0  0  0  0  0  0  0  0
  144.9719  137.4593  162.0359 H   0  0  0  0  0  0  0  0  0  0  0  0
  146.5724  134.4436  160.1769 H   0  0  0  0  0  0  0  0  0  0  0  0
  145.4233  135.6438  159.6512 H   0  0  0  0  0  0  0  0  0  0  0  0
  149.1604  135.6042  160.6051 H   0  0  0  0  0  0  0  0  0  0  0  0
  150.2816  137.3398  155.2209 H   0  0  0  0  0  0  0  0  0  0  0  0
  149.5678  138.7765  154.5045 H   0  0  0  0  0  0  0  0  0  0  0  0
  152.4423  138.5203  155.5630 H   0  0  0  0  0  0  0  0  0  0  0  0
  151.9573  138.6783  153.8849 H   0  0  0  0  0  0  0  0  0  0  0  0
  152.1256  140.3935  157.0455 H   0  0  0  0  0  0  0  0  0  0  0  0
  152.5447  142.6576  156.1370 H   0  0  0  0  0  0  0  0  0  0  0  0
  150.8688  142.7853  155.6134 H   0  0  0  0  0  0  0  0  0  0  0  0
  151.9544  144.5894  156.9719 H   0  0  0  0  0  0  0  0  0  0  0  0
  150.5077  144.7711  157.9663 H   0  0  0  0  0  0  0  0  0  0  0  0
  152.6865  145.3544  159.2041 H   0  0  0  0  0  0  0  0  0  0  0  0
  153.1663  142.2819  158.9616 H   0  0  0  0  0  0  0  0  0  0  0  0
  154.1732  143.4801  159.9267 H   0  0  0  0  0  0  0  0  0  0  0  0
  152.1425  144.0991  161.2737 H   0  0  0  0  0  0  0  0  0  0  0  0
  151.1386  142.8989  160.3070 H   0  0  0  0  0  0  0  0  0  0  0  0
  149.2634  140.8361  156.0529 H   0  0  0  0  0  0  0  0  0  0  0  0
  149.7445  140.6364  157.7303 H   0  0  0  0  0  0  0  0  0  0  0  0
  145.5740  138.5437  156.1347 H   0  0  0  0  0  0  0  0  0  0  0  0
  1  2  1  0  0  0  0
  1 30  1  0  0  0  0
  1 31  1  0  0  0  0
  1 32  1  0  0  0  0
  2  6  1  0  0  0  0
  2  3  1  0  0  0  0
  2 33  1  0  0  0  0
  3  4  1  0  0  0  0
  4  5  1  0  0  0  0
  4 34  1  0  0  0  0
  4 35  1  0  0  0  0
  5  6  1  0  0  0  0
  5 36  1  0  0  0  0
  5 37  1  0  0  0  0
  6  7  1  0  0  0  0
  6  8  1  0  0  0  0
  7 38  1  0  0  0  0
  8  9  1  0  0  0  0
  8 39  1  0  0  0  0
  8 40  1  0  0  0  0
  9 29  1  0  0  0  0
  9 10  1  0  0  0  0
 10 11  2  0  0  0  0
 10 41  1  0  0  0  0
 11 12  1  0  0  0  0
 12 29  2  0  0  0  0
 12 13  1  0  0  0  0
 13 14  1  0  0  0  0
 13 26  2  0  0  0  0
 14 25  1  0  0  0  0
 14 15  1  0  0  0  0
 15 16  1  0  0  0  0
 15 42  1  0  0  0  0
 15 43  1  0  0  0  0
 16 17  1  0  0  0  0
 16 44  1  0  0  0  0
 16 45  1  0  0  0  0
 17 18  1  0  0  0  0
 18 19  1  0  0  0  0
 18 25  1  0  0  0  0
 18 46  1  0  0  0  0
 19 20  1  0  0  0  0
 19 47  1  0  0  0  0
 19 48  1  0  0  0  0
 20 21  1  0  0  0  0
 21 22  1  0  0  0  0
 21 49  1  0  0  0  0
 21 50  1  0  0  0  0
 22 24  1  0  0  0  0
 22 23  1  0  0  0  0
 22 51  1  0  0  0  0
 23 24  1  0  0  0  0
 23 52  1  0  0  0  0
 23 53  1  0  0  0  0
 24 54  1  0  0  0  0
 24 55  1  0  0  0  0
 25 56  1  0  0  0  0
 25 57  1  0  0  0  0
 26 27  1  0  0  0  0
 27 28  2  0  0  0  0
 27 58  1  0  0  0  0
 28 29  1  0  0  0  0
M  END
> <s_m_source_file>
AV-unprocessed.smi

> <i_m_source_file_index>
236

> <i_lp_mmshare_version>
43012

> <i_f3d_flags>
0

> <s_epik_input>
W0NIMl0xW0NIMl1PW0NAQEhdKFtDSDNdKVtDQEBdMShbT0hdKVtDSDJdbihbY0hdbjIpYyhjMjMpbltjSF1uYzNONFtDSDJdW0NIMl1PW0NASF0oW0NIMl00KVtDSDJdT1tDSDJdW0NIXTVbQ0gyXVtDSDJdNQ==

> <s_epik_cmdline>
J2VwaWtfcHl0aG9uJywgJy1waCcsICc3LjAnLCAnLXRuJywgJzgnLCAnLW1hJywgJzIwMCcsICctbWV0YWxfYmluZGluZycsICctaW1hZScsICc8aW5maWxlLm1hZT4nLCAnLW9tYWUnLCAnPG91dGZpbGUubWFlPic=

> <r_lp_tautomer_probability>
1

> <r_epik_Ionization_Penalty>
7.21838e-05

> <r_epik_Ionization_Penalty_Charging>
0

> <r_epik_Ionization_Penalty_Neutral>
7.21838e-05

> <r_epik_State_Penalty>
-0

> <r_epik_Charging_Adjusted_Penalty>
0

> <i_epik_Tot_Q>
0

> <i_epik_Tot_abs_Q>
0

> <r_epik_Metal_State_Penalty>
-0

> <b_epik_Metal_Only>
0

> <s_lp_Force_Field>
OPLS_2005

> <r_lp_Energy>
49.6686

> <b_lp_Chiralities_Consistent>
1

> <s_lp_Variant>
AV-unprocessed.smi:236-4

> <Gold.Version>
5.8.1

> <Gold.Id.Protein>
6NUR|6NUR_protein|mol2

> <Gold.PLP.Fitness>
48.0358

> <Gold.PLP.PLP>
-44.2433

> <Gold.PLP.part.hbond>
-2.7041

> <Gold.PLP.part.metal>
0.0000

> <Gold.PLP.part.buried>
-6.1021

> <Gold.PLP.part.nonpolar>
-35.5706

> <Gold.PLP.part.repulsive>
0.1719

> <Gold.PLP.ligand.clash>
0.0000

> <Gold.PLP.ligand.torsion>
0.7901

> <Gold.PLP.Chemscore.Hbond>
1.5200

> <Gold.PLP.Chemscore.CHOScore>
0.0000

> <Gold.PLP.Chemscore.Metal>
0.0000

> <Gold.Chemscore.Hbonds>
donor molecule, donor type, donor heavy atom, donor atom, acceptor molecule, acceptor atom, score
      P1  H  6934  6947       L1     7  0.41
      P1  H  7989  7998       L1    17  0.86

> <Gold.PLP.Chemscore.Internal.Correction>
0.8129

> <Gold.Rescore>
     Score         DG    S(hbond)    S(metal)    S(lipo)     H(rot)  DE(clash)    DE(int)     intcor
     15.26     -17.95       1.49        0.00     126.61       2.87       1.87       0.81       ----

> <Gold.Chemscore.Fitness>
15.2632

> <Gold.Chemscore.DG>
-17.9461

> <Gold.Chemscore.ZeroCoef>
-5.4800

> <Gold.Chemscore.Hbond>
1.4935

> <Gold.Chemscore.Metal>
0.0000

> <Gold.Chemscore.Lipo>
126.6133

> <Gold.Chemscore.Internal_Hbond>
0.0000

> <Gold.Chemscore.DEClash>
1.8702

> <Gold.Chemscore.DEInternal>
0.8128

> <Gold.Chemscore.Rot>
2.8655

> <Gold.Chemscore.Internal.Correction>
   9.000000E+99

> <Gold.Chemscore.Hbonds>
donor molecule, donor type, donor heavy atom, donor atom, acceptor molecule, acceptor atom, score
      P1  H  6934  6947       L1     7  0.39
      P1  H  7989  7998       L1    17  0.37

> <Gold.Chemscore.Hbond.Weighted>
-4.9881

> <Gold.Chemscore.Metal.Weighted>
-0.0000

> <Gold.Chemscore.Lipo.Weighted>
-14.8138

> <Gold.Chemscore.Internal_Hbond.Weighted>
0.0000

> <Gold.Chemscore.DEClash.Weighted>
1.8702

> <Gold.Chemscore.DEInternal.Weighted>
0.8128

> <Gold.Chemscore.Rot.Weighted>
7.3358

> <Gold.Chemscore.Internal.Correction.Weighted>
   9.000000E+99

> <Gold.Protein.RotatedTorsions>
[ 6907 6896 6895 6894 ] final  -38.15 input  -60.11 | X-H torsion
[ 7974 7965 7964 7962 ] final  139.70 input  175.53 | X-H torsion
[ 8008 7997 7996 7995 ] final  -20.31 input   59.86 | X-H torsion
[ 10167 10162 10161 10158 ] final  -51.31 input  -65.29 | X-H torsion
[ 10718 10713 10712 10709 ] final  -88.94 input   66.30 | X-H torsion
[ 10763 10752 10751 10750 ] final -118.63 input  -60.55 | X-H torsion
[ 11005 11000 10999 10996 ] final   -6.10 input  -57.11 | X-H torsion

> <Gold.Protein.ActiveResidues>
 VAL166  LYS551  ARG553  GLY616  TRP617  ASP618  TYR619  PRO620  LYS621  CYS622 
 ASP623  PHE694  ASN695  SER759  ASP760  ASP761  ALA762  ILE779  LEU786  VAL792 
 PHE793  MET794  SER795  GLU796  ALA797  LYS798  CYS799  TRP800  GLU811  SER814 

> <Gold.Protein.RotatedAtoms>
  151.0059  134.9359  159.7979 H   0  0  0  0  0  0  0  0  0  0  0  0  # atno 6907 bound_to 6896
  152.5290  134.3092  159.9117 H   0  0  0  0  0  0  0  0  0  0  0  0  # atno 6908 bound_to 6896
  151.3097  133.4044  159.2680 H   0  0  0  0  0  0  0  0  0  0  0  0  # atno 6909 bound_to 6896
  144.9254  139.5114  143.5643 H   0  0  0  0  0  0  0  0  0  0  0  0  # atno 7974 bound_to 7965
  154.4778  140.2065  155.9836 H   0  0  0  0  0  0  0  0  0  0  0  0  # atno 8008 bound_to 7997
  156.1117  140.3228  155.8052 H   0  0  0  0  0  0  0  0  0  0  0  0  # atno 8009 bound_to 7997
  155.4623  140.0525  157.2980 H   0  0  0  0  0  0  0  0  0  0  0  0  # atno 8010 bound_to 7997
  140.6594  143.2624  151.4485 H   0  0  0  0  0  0  0  0  0  0  0  0  # atno 10167 bound_to 10162
  155.9984  130.4854  150.5096 H   0  0  0  0  0  0  0  0  0  0  0  0  # atno 10718 bound_to 10713
  154.8593  135.4267  154.2170 H   0  0  0  0  0  0  0  0  0  0  0  0  # atno 10763 bound_to 10752
  153.3183  135.6980  153.7059 H   0  0  0  0  0  0  0  0  0  0  0  0  # atno 10764 bound_to 10752
  153.6124  135.3517  155.2957 H   0  0  0  0  0  0  0  0  0  0  0  0  # atno 10765 bound_to 10752
  140.6984  133.9011  155.8666 H   0  0  0  0  0  0  0  0  0  0  0  0  # atno 11005 bound_to 11000
  146.3224  139.8165  142.8935 LP  0  0  0  0  0  0  0  0  0  0  0  0  # atno 17320 bound_to 7965
  145.3227  141.0248  143.3491 LP  0  0  0  0  0  0  0  0  0  0  0  0  # atno 17321 bound_to 7965
  139.5825  144.1679  152.1986 LP  0  0  0  0  0  0  0  0  0  0  0  0  # atno 17342 bound_to 10162
  140.1008  144.5541  150.6990 LP  0  0  0  0  0  0  0  0  0  0  0  0  # atno 17343 bound_to 10162
  157.3071  131.0656  151.2028 LP  0  0  0  0  0  0  0  0  0  0  0  0  # atno 17370 bound_to 10713
  157.2987  130.6832  149.6152 LP  0  0  0  0  0  0  0  0  0  0  0  0  # atno 17371 bound_to 10713
  141.0184  134.0923  157.4147 LP  0  0  0  0  0  0  0  0  0  0  0  0  # atno 17394 bound_to 11000
  139.8904  135.0111  156.6731 LP  0  0  0  0  0  0  0  0  0  0  0  0  # atno 17395 bound_to 11000

$$$$
