AV-unprocessed.smi:2561|AV-procd|sdf|10040|dock1
  -GOLD-   2272014 83D 1   1.00000     0.00000
 Structure written by MMmdl.
 32 33  0  0  0  0  0  0  0  0  1 V2000
  146.7939  138.8156  151.9588 C   0  0  0  0  0  0  0  0  0  0  0  0
  148.0471  138.7783  152.6971 N   0  0  0  0  0  0  0  0  0  0  0  0
  148.3512  139.6057  153.7056 C   0  0  0  0  0  0  0  0  0  0  0  0
  147.5943  140.4894  154.1070 O   0  0  0  0  0  0  0  0  0  0  0  0
  149.5783  139.3503  154.1914 N   0  0  0  0  0  0  0  0  0  0  0  0
  150.2647  140.0047  155.2498 C   0  0  0  0  0  0  0  0  0  0  0  0
  149.7212  141.0598  156.0207 C   0  0  0  0  0  0  0  0  0  0  0  0
  150.4975  141.6163  157.0553 C   0  0  0  0  0  0  0  0  0  0  0  0
  151.7864  141.0978  157.2962 C   0  0  0  0  0  0  0  0  0  0  0  0
  152.5578  141.6565  158.3267 N   0  0  0  0  0  0  0  0  0  0  0  0
  152.1768  142.9978  158.7380 C   0  0  0  0  0  0  0  0  0  0  0  0
  152.8719  143.2240  160.0828 C   0  0  0  0  0  0  0  0  0  0  0  0
  153.1513  141.8160  160.6226 C   0  0  0  0  0  0  0  0  0  0  0  0
  152.6144  140.8681  159.5465 C   0  0  0  0  0  0  0  0  0  0  0  0
  152.3069  140.0796  156.5703 N   0  0  0  0  0  0  0  0  0  0  0  0
  151.5583  139.5508  155.5797 C   0  0  0  0  0  0  0  0  0  0  0  0
  146.7920  138.0427  151.1903 H   0  0  0  0  0  0  0  0  0  0  0  0
  146.6583  139.7819  151.4713 H   0  0  0  0  0  0  0  0  0  0  0  0
  145.9469  138.6388  152.6229 H   0  0  0  0  0  0  0  0  0  0  0  0
  148.7242  138.0816  152.4221 H   0  0  0  0  0  0  0  0  0  0  0  0
  150.1089  138.6425  153.7050 H   0  0  0  0  0  0  0  0  0  0  0  0
  148.7269  141.4420  155.8509 H   0  0  0  0  0  0  0  0  0  0  0  0
  150.1053  142.4240  157.6562 H   0  0  0  0  0  0  0  0  0  0  0  0
  152.4833  143.7376  157.9979 H   0  0  0  0  0  0  0  0  0  0  0  0
  151.0953  143.0713  158.8608 H   0  0  0  0  0  0  0  0  0  0  0  0
  153.8114  143.7583  159.9376 H   0  0  0  0  0  0  0  0  0  0  0  0
  152.2545  143.8148  160.7601 H   0  0  0  0  0  0  0  0  0  0  0  0
  154.2248  141.6745  160.7524 H   0  0  0  0  0  0  0  0  0  0  0  0
  152.6742  141.6388  161.5869 H   0  0  0  0  0  0  0  0  0  0  0  0
  151.6187  140.5163  159.8205 H   0  0  0  0  0  0  0  0  0  0  0  0
  153.2578  139.9967  159.4224 H   0  0  0  0  0  0  0  0  0  0  0  0
  152.0118  138.7401  155.0282 H   0  0  0  0  0  0  0  0  0  0  0  0
  1  2  1  0  0  0  0
  1 17  1  0  0  0  0
  1 18  1  0  0  0  0
  1 19  1  0  0  0  0
  2  3  1  0  0  0  0
  2 20  1  0  0  0  0
  3  4  2  0  0  0  0
  3  5  1  0  0  0  0
  5  6  1  0  0  0  0
  5 21  1  0  0  0  0
  6 16  1  0  0  0  0
  6  7  2  0  0  0  0
  7  8  1  0  0  0  0
  7 22  1  0  0  0  0
  8  9  2  0  0  0  0
  8 23  1  0  0  0  0
  9 10  1  0  0  0  0
  9 15  1  0  0  0  0
 10 14  1  0  0  0  0
 10 11  1  0  0  0  0
 11 12  1  0  0  0  0
 11 24  1  0  0  0  0
 11 25  1  0  0  0  0
 12 13  1  0  0  0  0
 12 26  1  0  0  0  0
 12 27  1  0  0  0  0
 13 14  1  0  0  0  0
 13 28  1  0  0  0  0
 13 29  1  0  0  0  0
 14 30  1  0  0  0  0
 14 31  1  0  0  0  0
 15 16  2  0  0  0  0
 16 32  1  0  0  0  0
M  END
> <s_m_source_file>
AV-unprocessed.smi

> <i_m_source_file_index>
2561

> <i_lp_mmshare_version>
43012

> <i_f3d_flags>
0

> <s_epik_input>
W0NIM11bTkhdQyg9TylbTkhdYzFbY0hdW2NIXWMobltjSF0xKU4yW0NIMl1bQ0gyXVtDSDJdW0NIMl0y

> <s_epik_cmdline>
J2VwaWtfcHl0aG9uJywgJy1waCcsICc3LjAnLCAnLXRuJywgJzgnLCAnLW1hJywgJzIwMCcsICctbWV0YWxfYmluZGluZycsICctaW1hZScsICc8aW5maWxlLm1hZT4nLCAnLW9tYWUnLCAnPG91dGZpbGUubWFlPic=

> <r_lp_tautomer_probability>
1

> <r_epik_Ionization_Penalty>
0.281536

> <r_epik_Ionization_Penalty_Charging>
0

> <r_epik_Ionization_Penalty_Neutral>
0.281536

> <r_epik_State_Penalty>
0.27354

> <r_epik_Charging_Adjusted_Penalty>
0.27354

> <i_epik_Tot_Q>
0

> <i_epik_Tot_abs_Q>
0

> <r_epik_Metal_State_Penalty>
0.184484

> <b_epik_Metal_Only>
0

> <s_lp_Force_Field>
OPLS_2005

> <r_lp_Energy>
32.7589

> <b_lp_Chiralities_Consistent>
1

> <s_lp_Variant>
AV-unprocessed.smi:2561-1

> <Gold.Version>
5.8.1

> <Gold.Id.Protein>
6NUR|6NUR_protein|mol2

> <Gold.PLP.Fitness>
36.9742

> <Gold.PLP.PLP>
-32.2801

> <Gold.PLP.part.hbond>
-3.6638

> <Gold.PLP.part.metal>
0.0000

> <Gold.PLP.part.buried>
0.8015

> <Gold.PLP.part.nonpolar>
-28.8448

> <Gold.PLP.part.repulsive>
0.2966

> <Gold.PLP.ligand.clash>
0.0158

> <Gold.PLP.ligand.torsion>
0.5315

> <Gold.PLP.Chemscore.Hbond>
1.9193

> <Gold.PLP.Chemscore.CHOScore>
0.0000

> <Gold.PLP.Chemscore.Metal>
0.0000

> <Gold.Chemscore.Hbonds>
donor molecule, donor type, donor heavy atom, donor atom, acceptor molecule, acceptor atom, score
      L1  H     2    20       P1  7948  0.91
      P1  H  7997  8009       L1    15  0.99

> <Gold.PLP.Chemscore.Internal.Correction>
0.0152

> <Gold.Rescore>
     Score         DG    S(hbond)    S(metal)    S(lipo)     H(rot)  DE(clash)    DE(int)     intcor
     16.11     -17.70       1.74        0.00      76.70       1.00       0.23       1.37       ----

> <Gold.Chemscore.Fitness>
16.1078

> <Gold.Chemscore.DG>
-17.7032

> <Gold.Chemscore.ZeroCoef>
-5.4800

> <Gold.Chemscore.Hbond>
1.7392

> <Gold.Chemscore.Metal>
0.0000

> <Gold.Chemscore.Lipo>
76.7022

> <Gold.Chemscore.Internal_Hbond>
0.0000

> <Gold.Chemscore.DEClash>
0.2298

> <Gold.Chemscore.DEInternal>
1.3655

> <Gold.Chemscore.Rot>
1.0000

> <Gold.Chemscore.Internal.Correction>
   9.000000E+99

> <Gold.Chemscore.Hbonds>
donor molecule, donor type, donor heavy atom, donor atom, acceptor molecule, acceptor atom, score
      L1  H     2    20       P1  7948  0.89
      P1  H  7997  8009       L1    15  0.80

> <Gold.Chemscore.Hbond.Weighted>
-5.8090

> <Gold.Chemscore.Metal.Weighted>
-0.0000

> <Gold.Chemscore.Lipo.Weighted>
-8.9742

> <Gold.Chemscore.Internal_Hbond.Weighted>
0.0000

> <Gold.Chemscore.DEClash.Weighted>
0.2298

> <Gold.Chemscore.DEInternal.Weighted>
1.3655

> <Gold.Chemscore.Rot.Weighted>
2.5600

> <Gold.Chemscore.Internal.Correction.Weighted>
   9.000000E+99

> <Gold.Protein.RotatedTorsions>
[ 6907 6896 6895 6894 ] final -167.98 input  -60.11 | X-H torsion
[ 7974 7965 7964 7962 ] final    6.47 input  175.53 | X-H torsion
[ 8008 7997 7996 7995 ] final -165.27 input   59.86 | X-H torsion
[ 10167 10162 10161 10158 ] final  -50.05 input  -65.29 | X-H torsion
[ 10718 10713 10712 10709 ] final  -55.26 input   66.30 | X-H torsion
[ 10763 10752 10751 10750 ] final  -90.55 input  -60.55 | X-H torsion
[ 11005 11000 10999 10996 ] final -149.62 input  -57.11 | X-H torsion

> <Gold.Protein.ActiveResidues>
 VAL166  LYS551  ARG553  GLY616  TRP617  ASP618  TYR619  PRO620  LYS621  CYS622 
 ASP623  PHE694  ASN695  SER759  ASP760  ASP761  ALA762  ILE779  LEU786  VAL792 
 PHE793  MET794  SER795  GLU796  ALA797  LYS798  CYS799  TRP800  GLU811  SER814 

> <Gold.Protein.RotatedAtoms>
  151.4682  133.3575  159.2819 H   0  0  0  0  0  0  0  0  0  0  0  0  # atno 6907 bound_to 6896
  150.8979  134.8391  159.7350 H   0  0  0  0  0  0  0  0  0  0  0  0  # atno 6908 bound_to 6896
  152.4862  134.4599  159.9653 H   0  0  0  0  0  0  0  0  0  0  0  0  # atno 6909 bound_to 6896
  146.2434  140.0228  142.8396 H   0  0  0  0  0  0  0  0  0  0  0  0  # atno 7974 bound_to 7965
  155.8475  140.0958  157.1696 H   0  0  0  0  0  0  0  0  0  0  0  0  # atno 8008 bound_to 7997
  154.3984  140.1389  156.3865 H   0  0  0  0  0  0  0  0  0  0  0  0  # atno 8009 bound_to 7997
  155.7998  140.3453  155.5398 H   0  0  0  0  0  0  0  0  0  0  0  0  # atno 8010 bound_to 7997
  140.6656  143.2673  151.4303 H   0  0  0  0  0  0  0  0  0  0  0  0  # atno 10167 bound_to 10162
  156.1383  130.4156  150.0147 H   0  0  0  0  0  0  0  0  0  0  0  0  # atno 10718 bound_to 10713
  154.6669  135.5300  153.8089 H   0  0  0  0  0  0  0  0  0  0  0  0  # atno 10763 bound_to 10752
  153.0477  135.6519  154.0784 H   0  0  0  0  0  0  0  0  0  0  0  0  # atno 10764 bound_to 10752
  154.0687  135.2956  155.3292 H   0  0  0  0  0  0  0  0  0  0  0  0  # atno 10765 bound_to 10752
  140.7488  134.3430  157.5130 H   0  0  0  0  0  0  0  0  0  0  0  0  # atno 11005 bound_to 11000
  145.1225  140.9471  143.4592 LP  0  0  0  0  0  0  0  0  0  0  0  0  # atno 17320 bound_to 7965
  145.0467  139.3215  143.5949 LP  0  0  0  0  0  0  0  0  0  0  0  0  # atno 17321 bound_to 7965
  139.5904  144.1512  152.2081 LP  0  0  0  0  0  0  0  0  0  0  0  0  # atno 17342 bound_to 10162
  140.0864  144.5657  150.7085 LP  0  0  0  0  0  0  0  0  0  0  0  0  # atno 17343 bound_to 10162
  156.8040  130.9301  151.3645 LP  0  0  0  0  0  0  0  0  0  0  0  0  # atno 17370 bound_to 10713
  157.6552  130.8918  149.9715 LP  0  0  0  0  0  0  0  0  0  0  0  0  # atno 17371 bound_to 10713
  139.8791  134.9129  156.3070 LP  0  0  0  0  0  0  0  0  0  0  0  0  # atno 17394 bound_to 11000
  140.9769  133.7291  156.0616 LP  0  0  0  0  0  0  0  0  0  0  0  0  # atno 17395 bound_to 11000

$$$$
