AV-unprocessed.smi:1550|AV-procd|sdf|6228|dock10
  -GOLD-   22720 6403D 1   1.00000     0.00000
 Structure written by MMmdl.
 42 43  0  0  0  0  0  0  0  0  2 V2000
  150.6005  138.1725  156.8520 C   0  0  0  0  0  0  0  0  0  0  0  0
  149.6204  138.5513  157.9722 C   0  0  2  0  0  0  0  0  0  0  0  0
  150.1265  139.7207  158.6101 O   0  0  0  0  0  0  0  0  0  0  0  0
  150.4275  140.8068  157.7409 C   0  0  0  0  0  0  0  0  0  0  0  0
  151.5245  141.6643  158.3849 C   0  0  2  0  0  0  0  0  0  0  0  0
  152.5349  140.8079  159.1732 C   0  0  0  0  0  0  0  0  0  0  0  0
  153.5647  141.7001  159.8758 C   0  0  0  0  0  0  0  0  0  0  0  0
  152.8431  142.7550  160.7209 C   0  0  0  0  0  0  0  0  0  0  0  0
  151.8133  143.5091  159.8651 C   0  0  0  0  0  0  0  0  0  0  0  0
  150.9021  142.5836  159.2808 O   0  0  0  0  0  0  0  0  0  0  0  0
  149.4687  137.4126  158.9939 C   0  0  0  0  0  0  0  0  0  0  0  0
  150.4424  137.0712  159.6646 O   0  0  0  0  0  0  0  0  0  0  0  0
  148.2305  136.8898  159.0913 N   0  0  0  0  0  0  0  0  0  0  0  0
  147.7465  135.8594  159.9163 C   0  0  0  0  0  0  0  0  0  0  0  0
  147.6974  134.5410  159.5772 C   0  0  0  0  0  0  0  0  0  0  0  0
  147.1784  133.5215  160.4804 C   0  0  0  0  0  0  0  0  0  0  0  0
  147.0429  132.0556  160.1079 C   0  0  0  0  0  0  0  0  0  0  0  0
  148.2316  131.5172  159.8348 F   0  0  0  0  0  0  0  0  0  0  0  0
  146.4842  131.3605  161.0989 F   0  0  0  0  0  0  0  0  0  0  0  0
  146.2729  131.9316  159.0278 F   0  0  0  0  0  0  0  0  0  0  0  0
  146.7269  134.0564  161.6710 C   0  0  0  0  0  0  0  0  0  0  0  0
  146.7451  135.3416  162.0872 N   0  5  0  0  0  0  0  0  0  0  0  0
  147.2448  136.2848  161.2397 C   0  0  0  0  0  0  0  0  0  0  0  0
  147.2863  137.4749  161.5540 O   0  0  0  0  0  0  0  0  0  0  0  0
  150.2793  137.2677  156.3345 H   0  0  0  0  0  0  0  0  0  0  0  0
  151.6063  138.0010  157.2377 H   0  0  0  0  0  0  0  0  0  0  0  0
  150.6654  138.9693  156.1109 H   0  0  0  0  0  0  0  0  0  0  0  0
  148.6536  138.7753  157.5161 H   0  0  0  0  0  0  0  0  0  0  0  0
  150.7509  140.4424  156.7646 H   0  0  0  0  0  0  0  0  0  0  0  0
  149.5389  141.4189  157.5834 H   0  0  0  0  0  0  0  0  0  0  0  0
  152.0506  142.2126  157.6013 H   0  0  0  0  0  0  0  0  0  0  0  0
  152.0085  140.2045  159.9138 H   0  0  0  0  0  0  0  0  0  0  0  0
  153.0425  140.1102  158.5062 H   0  0  0  0  0  0  0  0  0  0  0  0
  154.2280  141.1002  160.4995 H   0  0  0  0  0  0  0  0  0  0  0  0
  154.1916  142.1924  159.1312 H   0  0  0  0  0  0  0  0  0  0  0  0
  152.3362  142.2721  161.5575 H   0  0  0  0  0  0  0  0  0  0  0  0
  153.5626  143.4527  161.1501 H   0  0  0  0  0  0  0  0  0  0  0  0
  151.2543  144.2118  160.4833 H   0  0  0  0  0  0  0  0  0  0  0  0
  152.3060  144.0928  159.0860 H   0  0  0  0  0  0  0  0  0  0  0  0
  147.5239  137.3158  158.5092 H   0  0  0  0  0  0  0  0  0  0  0  0
  148.0360  134.2007  158.6132 H   0  0  0  0  0  0  0  0  0  0  0  0
  146.2834  133.3442  162.3991 H   0  0  0  0  0  0  0  0  0  0  0  0
  1  2  1  0  0  0  0
  1 25  1  0  0  0  0
  1 26  1  0  0  0  0
  1 27  1  0  0  0  0
  2  3  1  0  0  0  0
  2 11  1  0  0  0  0
  2 28  1  0  0  0  0
  3  4  1  0  0  0  0
  4  5  1  0  0  0  0
  4 29  1  0  0  0  0
  4 30  1  0  0  0  0
  5 10  1  0  0  0  0
  5  6  1  0  0  0  0
  5 31  1  0  0  0  0
  6  7  1  0  0  0  0
  6 32  1  0  0  0  0
  6 33  1  0  0  0  0
  7  8  1  0  0  0  0
  7 34  1  0  0  0  0
  7 35  1  0  0  0  0
  8  9  1  0  0  0  0
  8 36  1  0  0  0  0
  8 37  1  0  0  0  0
  9 10  1  0  0  0  0
  9 38  1  0  0  0  0
  9 39  1  0  0  0  0
 11 12  2  0  0  0  0
 11 13  1  0  0  0  0
 13 14  1  0  0  0  0
 13 40  1  0  0  0  0
 14 23  1  0  0  0  0
 14 15  2  0  0  0  0
 15 16  1  0  0  0  0
 15 41  1  0  0  0  0
 16 17  1  0  0  0  0
 16 21  2  0  0  0  0
 17 18  1  0  0  0  0
 17 19  1  0  0  0  0
 17 20  1  0  0  0  0
 21 22  1  0  0  0  0
 21 42  1  0  0  0  0
 22 23  1  0  0  0  0
 23 24  2  0  0  0  0
M  CHG  1  22  -1
M  END
> <s_m_source_file>
AV-unprocessed.smi

> <i_m_source_file_index>
1550

> <i_lp_mmshare_version>
43012

> <i_f3d_flags>
0

> <s_epik_input>
TzFbQ0gyXVtDSDJdW0NIMl1bQ0gyXVtDQEhdMVtDSDJdT1tDQEBIXShbQ0gzXSlDKD1PKVtOSF1jMltjSF1jKEMoRikoRilGKVtjSF1bbkhdYzI9Tw==

> <s_epik_cmdline>
J2VwaWtfcHl0aG9uJywgJy1waCcsICc3LjAnLCAnLXRuJywgJzgnLCAnLW1hJywgJzIwMCcsICctbWV0YWxfYmluZGluZycsICctaW1hZScsICc8aW5maWxlLm1hZT4nLCAnLW9tYWUnLCAnPG91dGZpbGUubWFlPic=

> <r_epik_Ionization_Penalty>
2.54933

> <r_epik_Ionization_Penalty_Charging>
0.0583423

> <r_epik_Ionization_Penalty_Neutral>
2.49099

> <r_epik_State_Penalty>
2.65532

> <r_epik_Charging_Adjusted_Penalty>
2.71366

> <i_epik_Tot_Q>
-1

> <i_epik_Tot_abs_Q>
1

> <r_epik_Metal_State_Penalty>
0.516364

> <b_epik_Metal_Only>
0

> <s_lp_Force_Field>
OPLS_2005

> <r_lp_Energy>
27.7019

> <b_lp_Chiralities_Consistent>
1

> <s_lp_Variant>
AV-unprocessed.smi:1550-5

> <Gold.Version>
5.8.1

> <Gold.Id.Protein>
6NUR|6NUR_protein|mol2

> <Gold.PLP.Fitness>
44.6636

> <Gold.PLP.PLP>
-39.2369

> <Gold.PLP.part.hbond>
-3.6700

> <Gold.PLP.part.metal>
0.0000

> <Gold.PLP.part.buried>
-5.1473

> <Gold.PLP.part.nonpolar>
-30.7418

> <Gold.PLP.part.repulsive>
0.1926

> <Gold.PLP.ligand.clash>
0.0000

> <Gold.PLP.ligand.torsion>
1.2498

> <Gold.PLP.Chemscore.Hbond>
2.6104

> <Gold.PLP.Chemscore.CHOScore>
0.0000

> <Gold.PLP.Chemscore.Metal>
0.0000

> <Gold.Chemscore.Hbonds>
donor molecule, donor type, donor heavy atom, donor atom, acceptor molecule, acceptor atom, score
      P1  H  6896  6908       L1    12  0.78
      P1  H  6931  6943       L1    24  0.74
      P1  H  6934  6947       L1    24  0.88

> <Gold.PLP.Chemscore.Internal.Correction>
0.0950

> <Gold.Rescore>
     Score         DG    S(hbond)    S(metal)    S(lipo)     H(rot)  DE(clash)    DE(int)     intcor
     18.18     -19.31       2.77        0.00      78.99       1.82       0.00       1.13       ----

> <Gold.Chemscore.Fitness>
18.1785

> <Gold.Chemscore.DG>
-19.3105

> <Gold.Chemscore.ZeroCoef>
-5.4800

> <Gold.Chemscore.Hbond>
2.7717

> <Gold.Chemscore.Metal>
0.0000

> <Gold.Chemscore.Lipo>
78.9856

> <Gold.Chemscore.Internal_Hbond>
0.0000

> <Gold.Chemscore.DEClash>
0.0048

> <Gold.Chemscore.DEInternal>
1.1272

> <Gold.Chemscore.Rot>
1.8236

> <Gold.Chemscore.Internal.Correction>
   9.000000E+99

> <Gold.Chemscore.Hbonds>
donor molecule, donor type, donor heavy atom, donor atom, acceptor molecule, acceptor atom, score
      P1  H  6896  6908       L1    12  0.76
      P1  H  6931  6943       L1    24  0.70
      P1  H  6934  6947       L1    24  0.86

> <Gold.Chemscore.Hbond.Weighted>
-9.2576

> <Gold.Chemscore.Metal.Weighted>
-0.0000

> <Gold.Chemscore.Lipo.Weighted>
-9.2413

> <Gold.Chemscore.Internal_Hbond.Weighted>
0.0000

> <Gold.Chemscore.DEClash.Weighted>
0.0048

> <Gold.Chemscore.DEInternal.Weighted>
1.1272

> <Gold.Chemscore.Rot.Weighted>
4.6684

> <Gold.Chemscore.Internal.Correction.Weighted>
   9.000000E+99

> <Gold.Protein.RotatedTorsions>
[ 6907 6896 6895 6894 ] final -152.84 input  -60.11 | X-H torsion
[ 7974 7965 7964 7962 ] final  -53.82 input  175.53 | X-H torsion
[ 8008 7997 7996 7995 ] final  -82.78 input   59.86 | X-H torsion
[ 10167 10162 10161 10158 ] final   50.65 input  -65.29 | X-H torsion
[ 10718 10713 10712 10709 ] final  -98.62 input   66.30 | X-H torsion
[ 10763 10752 10751 10750 ] final   74.35 input  -60.55 | X-H torsion
[ 11005 11000 10999 10996 ] final   66.13 input  -57.11 | X-H torsion

> <Gold.Protein.ActiveResidues>
 VAL166  LYS551  ARG553  GLY616  TRP617  ASP618  TYR619  PRO620  LYS621  CYS622 
 ASP623  PHE694  ASN695  SER759  ASP760  ASP761  ALA762  ILE779  LEU786  VAL792 
 PHE793  MET794  SER795  GLU796  ALA797  LYS798  CYS799  TRP800  GLU811  SER814 

> <Gold.Protein.RotatedAtoms>
  151.2337  133.4436  159.2604 H   0  0  0  0  0  0  0  0  0  0  0  0  # atno 6907 bound_to 6896
  151.0770  134.9834  159.8347 H   0  0  0  0  0  0  0  0  0  0  0  0  # atno 6908 bound_to 6896
  152.5419  134.2279  159.8866 H   0  0  0  0  0  0  0  0  0  0  0  0  # atno 6909 bound_to 6896
  145.8925  140.8059  142.9784 H   0  0  0  0  0  0  0  0  0  0  0  0  # atno 7974 bound_to 7965
  154.6122  140.0628  156.9508 H   0  0  0  0  0  0  0  0  0  0  0  0  # atno 8008 bound_to 7997
  155.1954  140.3310  155.4333 H   0  0  0  0  0  0  0  0  0  0  0  0  # atno 8009 bound_to 7997
  156.2383  140.1873  156.7042 H   0  0  0  0  0  0  0  0  0  0  0  0  # atno 8010 bound_to 7997
  140.2702  144.3274  150.6292 H   0  0  0  0  0  0  0  0  0  0  0  0  # atno 10167 bound_to 10162
  156.0112  130.5246  150.6550 H   0  0  0  0  0  0  0  0  0  0  0  0  # atno 10718 bound_to 10713
  153.0581  135.5029  154.8029 H   0  0  0  0  0  0  0  0  0  0  0  0  # atno 10763 bound_to 10752
  154.6839  135.2973  154.9577 H   0  0  0  0  0  0  0  0  0  0  0  0  # atno 10764 bound_to 10752
  154.0353  135.6724  153.4837 H   0  0  0  0  0  0  0  0  0  0  0  0  # atno 10765 bound_to 10752
  139.9851  134.6681  156.0191 H   0  0  0  0  0  0  0  0  0  0  0  0  # atno 11005 bound_to 11000
  144.6731  140.1551  143.7427 LP  0  0  0  0  0  0  0  0  0  0  0  0  # atno 17320 bound_to 7965
  145.8891  139.2365  143.1560 LP  0  0  0  0  0  0  0  0  0  0  0  0  # atno 17321 bound_to 7965
  140.5895  143.2168  151.7279 LP  0  0  0  0  0  0  0  0  0  0  0  0  # atno 17342 bound_to 10162
  139.4991  144.3960  152.0231 LP  0  0  0  0  0  0  0  0  0  0  0  0  # atno 17343 bound_to 10162
  157.4304  131.0848  151.1044 LP  0  0  0  0  0  0  0  0  0  0  0  0  # atno 17370 bound_to 10713
  157.1619  130.6229  149.5613 LP  0  0  0  0  0  0  0  0  0  0  0  0  # atno 17371 bound_to 10713
  141.1517  133.6547  156.4034 LP  0  0  0  0  0  0  0  0  0  0  0  0  # atno 17394 bound_to 11000
  140.5019  134.6478  157.5251 LP  0  0  0  0  0  0  0  0  0  0  0  0  # atno 17395 bound_to 11000

$$$$
