AV-unprocessed.smi:1436|AV-procd|sdf|5861|dock10
  -GOLD-   22720 5533D 1   1.00000     0.00000
 Structure written by MMmdl.
 44 45  0  0  0  0  0  0  0  0  2 V2000
  152.9445  140.4382  159.3840 C   0  0  0  0  0  0  0  0  0  0  0  0
  152.6108  141.8173  159.8760 C   0  0  0  0  0  0  0  0  0  0  0  0
  153.0307  142.1998  161.0694 N   0  0  0  0  0  0  0  0  0  0  0  0
  152.5841  143.5149  161.2293 O   0  0  0  0  0  0  0  0  0  0  0  0
  151.9111  143.8801  160.1093 C   0  0  0  0  0  0  0  0  0  0  0  0
  151.3729  145.2707  160.0822 C   0  0  0  0  0  0  0  0  0  0  0  0
  151.8894  142.8498  159.2090 C   0  0  0  0  0  0  0  0  0  0  0  0
  151.2765  142.8156  157.8314 C   0  0  0  0  0  0  0  0  0  0  0  0
  149.9891  141.9992  157.8981 C   0  0  0  0  0  0  0  0  0  0  0  0
  150.0100  140.8517  158.3411 O   0  0  0  0  0  0  0  0  0  0  0  0
  148.8676  142.6325  157.5187 N   0  0  0  0  0  0  0  0  0  0  0  0
  147.5025  142.1401  157.6966 C   0  0  2  0  0  0  0  0  0  0  0  0
  146.6467  142.5681  156.4971 C   0  0  0  0  0  0  0  0  0  0  0  0
  146.9126  142.6565  159.0296 C   0  0  0  0  0  0  0  0  0  0  0  0
  146.4496  144.0664  158.9513 N   0  3  0  0  0  0  0  0  0  0  0  0
  145.0555  144.1984  158.4681 C   0  0  0  0  0  0  0  0  0  0  0  0
  144.6735  145.6837  158.3411 C   0  0  0  0  0  0  0  0  0  0  0  0
  144.8630  146.3391  159.5892 O   0  0  0  0  0  0  0  0  0  0  0  0
  146.2183  146.2879  160.0173 C   0  0  0  0  0  0  0  0  0  0  0  0
  146.6373  144.8220  160.2128 C   0  0  0  0  0  0  0  0  0  0  0  0
  153.8271  140.4576  158.7441 H   0  0  0  0  0  0  0  0  0  0  0  0
  152.1227  140.0173  158.8048 H   0  0  0  0  0  0  0  0  0  0  0  0
  153.1472  139.7549  160.2095 H   0  0  0  0  0  0  0  0  0  0  0  0
  152.1820  145.9942  159.9828 H   0  0  0  0  0  0  0  0  0  0  0  0
  150.8291  145.4935  161.0004 H   0  0  0  0  0  0  0  0  0  0  0  0
  150.6904  145.4124  159.2446 H   0  0  0  0  0  0  0  0  0  0  0  0
  151.0571  143.8177  157.4612 H   0  0  0  0  0  0  0  0  0  0  0  0
  151.9498  142.3640  157.1019 H   0  0  0  0  0  0  0  0  0  0  0  0
  148.9634  143.5685  157.1516 H   0  0  0  0  0  0  0  0  0  0  0  0
  147.5059  141.0491  157.7102 H   0  0  0  0  0  0  0  0  0  0  0  0
  145.6261  142.1957  156.5917 H   0  0  0  0  0  0  0  0  0  0  0  0
  147.0535  142.1760  155.5643 H   0  0  0  0  0  0  0  0  0  0  0  0
  146.5974  143.6541  156.4087 H   0  0  0  0  0  0  0  0  0  0  0  0
  146.0618  142.0237  159.2883 H   0  0  0  0  0  0  0  0  0  0  0  0
  147.6313  142.5449  159.8427 H   0  0  0  0  0  0  0  0  0  0  0  0
  144.9514  143.7120  157.4975 H   0  0  0  0  0  0  0  0  0  0  0  0
  144.3785  143.6930  159.1585 H   0  0  0  0  0  0  0  0  0  0  0  0
  145.2682  146.1750  157.5709 H   0  0  0  0  0  0  0  0  0  0  0  0
  143.6289  145.7799  158.0447 H   0  0  0  0  0  0  0  0  0  0  0  0
  146.8639  146.7838  159.2901 H   0  0  0  0  0  0  0  0  0  0  0  0
  146.3145  146.8353  160.9551 H   0  0  0  0  0  0  0  0  0  0  0  0
  146.0443  144.3663  161.0072 H   0  0  0  0  0  0  0  0  0  0  0  0
  147.6790  144.7815  160.5296 H   0  0  0  0  0  0  0  0  0  0  0  0
  147.0286  144.5143  158.2549 H   0  0  0  0  0  0  0  0  0  0  0  0
  1  2  1  0  0  0  0
  1 21  1  0  0  0  0
  1 22  1  0  0  0  0
  1 23  1  0  0  0  0
  2  7  1  0  0  0  0
  2  3  2  0  0  0  0
  3  4  1  0  0  0  0
  4  5  1  0  0  0  0
  5  6  1  0  0  0  0
  5  7  2  0  0  0  0
  6 24  1  0  0  0  0
  6 25  1  0  0  0  0
  6 26  1  0  0  0  0
  7  8  1  0  0  0  0
  8  9  1  0  0  0  0
  8 27  1  0  0  0  0
  8 28  1  0  0  0  0
  9 10  2  0  0  0  0
  9 11  1  0  0  0  0
 11 12  1  0  0  0  0
 11 29  1  0  0  0  0
 12 13  1  0  0  0  0
 12 14  1  0  0  0  0
 12 30  1  0  0  0  0
 13 31  1  0  0  0  0
 13 32  1  0  0  0  0
 13 33  1  0  0  0  0
 14 15  1  0  0  0  0
 14 34  1  0  0  0  0
 14 35  1  0  0  0  0
 15 20  1  0  0  0  0
 15 16  1  0  0  0  0
 15 44  1  0  0  0  0
 16 17  1  0  0  0  0
 16 36  1  0  0  0  0
 16 37  1  0  0  0  0
 17 18  1  0  0  0  0
 17 38  1  0  0  0  0
 17 39  1  0  0  0  0
 18 19  1  0  0  0  0
 19 20  1  0  0  0  0
 19 40  1  0  0  0  0
 19 41  1  0  0  0  0
 20 42  1  0  0  0  0
 20 43  1  0  0  0  0
M  CHG  1  15   1
M  END
> <s_m_source_file>
AV-unprocessed.smi

> <i_m_source_file_index>
1436

> <i_lp_mmshare_version>
43012

> <i_f3d_flags>
0

> <s_epik_input>
W0NIM11jMW5vYyhbQ0gzXSljMVtDSDJdQyg9TylbTkhdW0NASF0oW0NIM10pW0NIMl1OMltDSDJdW0NIMl1PW0NIMl1bQ0gyXTI=

> <s_epik_cmdline>
J2VwaWtfcHl0aG9uJywgJy1waCcsICc3LjAnLCAnLXRuJywgJzgnLCAnLW1hJywgJzIwMCcsICctbWV0YWxfYmluZGluZycsICctaW1hZScsICc8aW5maWxlLm1hZT4nLCAnLW9tYWUnLCAnPG91dGZpbGUubWFlPic=

> <r_epik_Ionization_Penalty>
0.663207

> <r_epik_Ionization_Penalty_Charging>
0.663207

> <r_epik_Ionization_Penalty_Neutral>
1.07515e-07

> <r_epik_State_Penalty>
0.682743

> <r_epik_Charging_Adjusted_Penalty>
1.34595

> <i_epik_Tot_Q>
1

> <i_epik_Tot_abs_Q>
1

> <r_epik_Metal_State_Penalty>
0.682743

> <b_epik_Metal_Only>
0

> <s_lp_Force_Field>
OPLS_2005

> <r_lp_Energy>
13.3689

> <b_lp_Chiralities_Consistent>
1

> <s_lp_Variant>
AV-unprocessed.smi:1436-3

> <Gold.Version>
5.8.1

> <Gold.Id.Protein>
6NUR|6NUR_protein|mol2

> <Gold.PLP.Fitness>
39.3655

> <Gold.PLP.PLP>
-32.5159

> <Gold.PLP.part.hbond>
-2.3292

> <Gold.PLP.part.metal>
0.0000

> <Gold.PLP.part.buried>
-4.5149

> <Gold.PLP.part.nonpolar>
-26.2011

> <Gold.PLP.part.repulsive>
0.3821

> <Gold.PLP.ligand.clash>
0.0000

> <Gold.PLP.ligand.torsion>
1.1074

> <Gold.PLP.Chemscore.Hbond>
3.0000

> <Gold.PLP.Chemscore.CHOScore>
0.0000

> <Gold.PLP.Chemscore.Metal>
0.0000

> <Gold.Chemscore.Hbonds>
donor molecule, donor type, donor heavy atom, donor atom, acceptor molecule, acceptor atom, score
      L1  H    11    29       P1  8028  0.98
      L1  H    15    44       P1  8029  2.00

> <Gold.PLP.Chemscore.Internal.Correction>
0.0645

> <Gold.Rescore>
     Score         DG    S(hbond)    S(metal)    S(lipo)     H(rot)  DE(clash)    DE(int)     intcor
     13.07     -14.42       1.25        0.00      80.11       1.79       0.08       1.28       ----

> <Gold.Chemscore.Fitness>
13.0679

> <Gold.Chemscore.DG>
-14.4249

> <Gold.Chemscore.ZeroCoef>
-5.4800

> <Gold.Chemscore.Hbond>
1.2468

> <Gold.Chemscore.Metal>
0.0000

> <Gold.Chemscore.Lipo>
80.1057

> <Gold.Chemscore.Internal_Hbond>
0.0000

> <Gold.Chemscore.DEClash>
0.0763

> <Gold.Chemscore.DEInternal>
1.2808

> <Gold.Chemscore.Rot>
1.7936

> <Gold.Chemscore.Internal.Correction>
   9.000000E+99

> <Gold.Chemscore.Hbonds>
donor molecule, donor type, donor heavy atom, donor atom, acceptor molecule, acceptor atom, score
      L1  H    11    29       P1  8028  0.37
      L1  H    15    44       P1  8029  0.78

> <Gold.Chemscore.Hbond.Weighted>
-4.1642

> <Gold.Chemscore.Metal.Weighted>
-0.0000

> <Gold.Chemscore.Lipo.Weighted>
-9.3724

> <Gold.Chemscore.Internal_Hbond.Weighted>
0.0000

> <Gold.Chemscore.DEClash.Weighted>
0.0763

> <Gold.Chemscore.DEInternal.Weighted>
1.2808

> <Gold.Chemscore.Rot.Weighted>
4.5916

> <Gold.Chemscore.Internal.Correction.Weighted>
   9.000000E+99

> <Gold.Protein.RotatedTorsions>
[ 6907 6896 6895 6894 ] final  131.83 input  -60.11 | X-H torsion
[ 7974 7965 7964 7962 ] final   22.73 input  175.53 | X-H torsion
[ 8008 7997 7996 7995 ] final  -38.01 input   59.86 | X-H torsion
[ 10167 10162 10161 10158 ] final  158.72 input  -65.29 | X-H torsion
[ 10718 10713 10712 10709 ] final -111.84 input   66.30 | X-H torsion
[ 10763 10752 10751 10750 ] final -128.90 input  -60.55 | X-H torsion
[ 11005 11000 10999 10996 ] final  104.72 input  -57.11 | X-H torsion

> <Gold.Protein.ActiveResidues>
 VAL166  LYS551  ARG553  GLY616  TRP617  ASP618  TYR619  PRO620  LYS621  CYS622 
 ASP623  PHE694  ASN695  SER759  ASP760  ASP761  ALA762  ILE779  LEU786  VAL792 
 PHE793  MET794  SER795  GLU796  ALA797  LYS798  CYS799  TRP800  GLU811  SER814 

> <Gold.Protein.RotatedAtoms>
  152.3386  133.6041  159.5860 H   0  0  0  0  0  0  0  0  0  0  0  0  # atno 6907 bound_to 6896
  150.7465  133.9757  159.3569 H   0  0  0  0  0  0  0  0  0  0  0  0  # atno 6908 bound_to 6896
  151.7623  135.0807  160.0398 H   0  0  0  0  0  0  0  0  0  0  0  0  # atno 6909 bound_to 6896
  146.2016  139.7844  142.8757 H   0  0  0  0  0  0  0  0  0  0  0  0  # atno 7974 bound_to 7965
  154.4044  140.1589  156.2630 H   0  0  0  0  0  0  0  0  0  0  0  0  # atno 8008 bound_to 7997
  155.9020  140.3432  155.6011 H   0  0  0  0  0  0  0  0  0  0  0  0  # atno 8009 bound_to 7997
  155.7437  140.0796  157.2224 H   0  0  0  0  0  0  0  0  0  0  0  0  # atno 8010 bound_to 7997
  139.4828  144.4798  151.8460 H   0  0  0  0  0  0  0  0  0  0  0  0  # atno 10167 bound_to 10162
  156.0670  130.5888  150.8428 H   0  0  0  0  0  0  0  0  0  0  0  0  # atno 10718 bound_to 10713
  154.8757  135.3913  154.3832 H   0  0  0  0  0  0  0  0  0  0  0  0  # atno 10763 bound_to 10752
  153.4577  135.7029  153.6075 H   0  0  0  0  0  0  0  0  0  0  0  0  # atno 10764 bound_to 10752
  153.4587  135.3817  155.2294 H   0  0  0  0  0  0  0  0  0  0  0  0  # atno 10765 bound_to 10752
  139.8794  134.9310  156.5404 H   0  0  0  0  0  0  0  0  0  0  0  0  # atno 11005 bound_to 11000
  145.3465  141.0298  143.3363 LP  0  0  0  0  0  0  0  0  0  0  0  0  # atno 17320 bound_to 7965
  144.8696  139.5057  143.6774 LP  0  0  0  0  0  0  0  0  0  0  0  0  # atno 17321 bound_to 7965
  140.4273  144.2163  150.5887 LP  0  0  0  0  0  0  0  0  0  0  0  0  # atno 17342 bound_to 10162
  140.4814  143.2378  151.8949 LP  0  0  0  0  0  0  0  0  0  0  0  0  # atno 17343 bound_to 10162
  157.5718  131.0946  150.9406 LP  0  0  0  0  0  0  0  0  0  0  0  0  # atno 17370 bound_to 10713
  156.9620  130.5459  149.5286 LP  0  0  0  0  0  0  0  0  0  0  0  0  # atno 17371 bound_to 10713
  140.8315  133.8275  155.8988 LP  0  0  0  0  0  0  0  0  0  0  0  0  # atno 17394 bound_to 11000
  140.9324  134.2005  157.4854 LP  0  0  0  0  0  0  0  0  0  0  0  0  # atno 17395 bound_to 11000

$$$$
