AV-unprocessed.smi:2788|AV-procd|sdf|10761|dock9
  -GOLD-   2272015193D 1   1.00000     0.00000
 Structure written by MMmdl.
 47 48  0  0  0  0  0  0  0  0  1 V2000
  150.1083  130.4193  155.2414 C   0  0  0  0  0  0  0  0  0  0  0  0
  149.9931  131.7745  155.8777 C   0  0  0  0  0  0  0  0  0  0  0  0
  150.2908  131.9217  157.1577 N   0  0  0  0  0  0  0  0  0  0  0  0
  150.1089  133.2786  157.4399 O   0  0  0  0  0  0  0  0  0  0  0  0
  149.7056  133.9033  156.3050 C   0  0  0  0  0  0  0  0  0  0  0  0
  149.4840  135.3747  156.4009 C   0  0  0  0  0  0  0  0  0  0  0  0
  149.6074  133.0066  155.2758 C   0  0  0  0  0  0  0  0  0  0  0  0
  149.2184  133.2537  153.8401 C   0  0  0  0  0  0  0  0  0  0  0  0
  147.6952  133.2417  153.7276 C   0  0  0  0  0  0  0  0  0  0  0  0
  147.0568  132.2819  154.1574 O   0  0  0  0  0  0  0  0  0  0  0  0
  147.1441  134.3068  153.1168 N   0  0  0  0  0  0  0  0  0  0  0  0
  145.7376  134.5367  152.7517 C   0  0  2  0  0  0  0  0  0  0  0  0
  145.6832  135.9416  152.1074 C   0  0  0  0  0  0  0  0  0  0  0  0
  144.8520  134.5368  154.0322 C   0  0  0  0  0  0  0  0  0  0  0  0
  144.7952  133.2646  154.6501 O   0  0  0  0  0  0  0  0  0  0  0  0
  145.2639  133.4317  151.7383 C   0  0  0  0  0  0  0  0  0  0  0  0
  146.2175  133.2247  150.5292 C   0  0  0  0  0  0  0  0  0  0  0  0
  145.7744  132.0494  149.6443 C   0  0  0  0  0  0  0  0  0  0  0  0
  144.3346  132.2393  149.1488 C   0  0  0  0  0  0  0  0  0  0  0  0
  143.3730  132.4432  150.3274 C   0  0  0  0  0  0  0  0  0  0  0  0
  143.8158  133.6169  151.2169 C   0  0  0  0  0  0  0  0  0  0  0  0
  151.0406  130.3315  154.6837 H   0  0  0  0  0  0  0  0  0  0  0  0
  149.2878  130.2394  154.5469 H   0  0  0  0  0  0  0  0  0  0  0  0
  150.0890  129.6227  155.9857 H   0  0  0  0  0  0  0  0  0  0  0  0
  148.9986  135.7595  155.5044 H   0  0  0  0  0  0  0  0  0  0  0  0
  150.4331  135.8978  156.5199 H   0  0  0  0  0  0  0  0  0  0  0  0
  148.8533  135.6167  157.2563 H   0  0  0  0  0  0  0  0  0  0  0  0
  149.5977  134.2114  153.4821 H   0  0  0  0  0  0  0  0  0  0  0  0
  149.6331  132.4970  153.1732 H   0  0  0  0  0  0  0  0  0  0  0  0
  147.7847  135.0294  152.8234 H   0  0  0  0  0  0  0  0  0  0  0  0
  144.6654  136.2339  151.8506 H   0  0  0  0  0  0  0  0  0  0  0  0
  146.2847  136.0016  151.2010 H   0  0  0  0  0  0  0  0  0  0  0  0
  146.0672  136.7046  152.7854 H   0  0  0  0  0  0  0  0  0  0  0  0
  145.2412  135.2329  154.7741 H   0  0  0  0  0  0  0  0  0  0  0  0
  143.8346  134.8602  153.8126 H   0  0  0  0  0  0  0  0  0  0  0  0
  143.9022  132.9572  154.6220 H   0  0  0  0  0  0  0  0  0  0  0  0
  145.2592  132.4882  152.2854 H   0  0  0  0  0  0  0  0  0  0  0  0
  146.2569  134.1270  149.9195 H   0  0  0  0  0  0  0  0  0  0  0  0
  147.2381  133.0333  150.8576 H   0  0  0  0  0  0  0  0  0  0  0  0
  146.4494  131.9511  148.7936 H   0  0  0  0  0  0  0  0  0  0  0  0
  145.8504  131.1185  150.2077 H   0  0  0  0  0  0  0  0  0  0  0  0
  144.2867  133.1014  148.4823 H   0  0  0  0  0  0  0  0  0  0  0  0
  144.0256  131.3747  148.5606 H   0  0  0  0  0  0  0  0  0  0  0  0
  142.3639  132.6203  149.9546 H   0  0  0  0  0  0  0  0  0  0  0  0
  143.3259  131.5306  150.9230 H   0  0  0  0  0  0  0  0  0  0  0  0
  143.1112  133.6994  152.0430 H   0  0  0  0  0  0  0  0  0  0  0  0
  143.7337  134.5412  150.6450 H   0  0  0  0  0  0  0  0  0  0  0  0
  1  2  1  0  0  0  0
  1 22  1  0  0  0  0
  1 23  1  0  0  0  0
  1 24  1  0  0  0  0
  2  7  1  0  0  0  0
  2  3  2  0  0  0  0
  3  4  1  0  0  0  0
  4  5  1  0  0  0  0
  5  6  1  0  0  0  0
  5  7  2  0  0  0  0
  6 25  1  0  0  0  0
  6 26  1  0  0  0  0
  6 27  1  0  0  0  0
  7  8  1  0  0  0  0
  8  9  1  0  0  0  0
  8 28  1  0  0  0  0
  8 29  1  0  0  0  0
  9 10  2  0  0  0  0
  9 11  1  0  0  0  0
 11 12  1  0  0  0  0
 11 30  1  0  0  0  0
 12 13  1  0  0  0  0
 12 14  1  0  0  0  0
 12 16  1  0  0  0  0
 13 31  1  0  0  0  0
 13 32  1  0  0  0  0
 13 33  1  0  0  0  0
 14 15  1  0  0  0  0
 14 34  1  0  0  0  0
 14 35  1  0  0  0  0
 15 36  1  0  0  0  0
 16 21  1  0  0  0  0
 16 17  1  0  0  0  0
 16 37  1  0  0  0  0
 17 18  1  0  0  0  0
 17 38  1  0  0  0  0
 17 39  1  0  0  0  0
 18 19  1  0  0  0  0
 18 40  1  0  0  0  0
 18 41  1  0  0  0  0
 19 20  1  0  0  0  0
 19 42  1  0  0  0  0
 19 43  1  0  0  0  0
 20 21  1  0  0  0  0
 20 44  1  0  0  0  0
 20 45  1  0  0  0  0
 21 46  1  0  0  0  0
 21 47  1  0  0  0  0
M  END
> <s_m_source_file>
AV-unprocessed.smi

> <i_m_source_file_index>
2788

> <i_lp_mmshare_version>
43012

> <i_f3d_flags>
0

> <s_epik_input>
W0NIM11jMW5vYyhbQ0gzXSljMVtDSDJdQyg9TylbTkhdW0NAQF0oW0NIM10pKFtDSDJdW09IXSlbQ0hdMltDSDJdW0NIMl1bQ0gyXVtDSDJdW0NIMl0y

> <s_epik_cmdline>
J2VwaWtfcHl0aG9uJywgJy1waCcsICc3LjAnLCAnLXRuJywgJzgnLCAnLW1hJywgJzIwMCcsICctbWV0YWxfYmluZGluZycsICctaW1hZScsICc8aW5maWxlLm1hZT4nLCAnLW9tYWUnLCAnPG91dGZpbGUubWFlPic=

> <r_lp_tautomer_probability>
1

> <r_epik_Ionization_Penalty>
1.3408e-07

> <r_epik_Ionization_Penalty_Charging>
0

> <r_epik_Ionization_Penalty_Neutral>
1.3408e-07

> <r_epik_State_Penalty>
-0

> <r_epik_Charging_Adjusted_Penalty>
0

> <i_epik_Tot_Q>
0

> <i_epik_Tot_abs_Q>
0

> <r_epik_Metal_State_Penalty>
-0

> <b_epik_Metal_Only>
0

> <s_lp_Force_Field>
OPLS_2005

> <r_lp_Energy>
14.1961

> <b_lp_Chiralities_Consistent>
1

> <s_lp_Variant>
AV-unprocessed.smi:2788-2

> <Gold.Version>
5.8.1

> <Gold.Id.Protein>
6NUR|6NUR_protein|mol2

> <Gold.PLP.Fitness>
46.0055

> <Gold.PLP.PLP>
-37.9293

> <Gold.PLP.part.hbond>
-3.0000

> <Gold.PLP.part.metal>
0.0000

> <Gold.PLP.part.buried>
-5.1373

> <Gold.PLP.part.nonpolar>
-30.6395

> <Gold.PLP.part.repulsive>
0.0490

> <Gold.PLP.ligand.clash>
0.0000

> <Gold.PLP.ligand.torsion>
0.4701

> <Gold.PLP.Chemscore.Hbond>
2.9833

> <Gold.PLP.Chemscore.CHOScore>
0.0000

> <Gold.PLP.Chemscore.Metal>
0.0000

> <Gold.Chemscore.Hbonds>
donor molecule, donor type, donor heavy atom, donor atom, acceptor molecule, acceptor atom, score
      L1  H    11    30       P1  7948  1.00
      L1  H    15    36       P1 10957  1.00
      P1  H  6896  6909       L1     4  1.00

> <Gold.PLP.Chemscore.Internal.Correction>
0.0665

> <Gold.Rescore>
     Score         DG    S(hbond)    S(metal)    S(lipo)     H(rot)  DE(clash)    DE(int)     intcor
     19.37     -19.99       2.87        0.00      90.97       2.24       0.01       0.61       ----

> <Gold.Chemscore.Fitness>
19.3729

> <Gold.Chemscore.DG>
-19.9939

> <Gold.Chemscore.ZeroCoef>
-5.4800

> <Gold.Chemscore.Hbond>
2.8725

> <Gold.Chemscore.Metal>
0.0000

> <Gold.Chemscore.Lipo>
90.9695

> <Gold.Chemscore.Internal_Hbond>
0.0000

> <Gold.Chemscore.DEClash>
0.0115

> <Gold.Chemscore.DEInternal>
0.6095

> <Gold.Chemscore.Rot>
2.2357

> <Gold.Chemscore.Internal.Correction>
   9.000000E+99

> <Gold.Chemscore.Hbonds>
donor molecule, donor type, donor heavy atom, donor atom, acceptor molecule, acceptor atom, score
      L1  H    11    30       P1  7948  0.98
      L1  H    15    36       P1 10957  0.97
      P1  H  6896  6909       L1     4  0.47

> <Gold.Chemscore.Hbond.Weighted>
-9.5940

> <Gold.Chemscore.Metal.Weighted>
-0.0000

> <Gold.Chemscore.Lipo.Weighted>
-10.6434

> <Gold.Chemscore.Internal_Hbond.Weighted>
0.0000

> <Gold.Chemscore.DEClash.Weighted>
0.0115

> <Gold.Chemscore.DEInternal.Weighted>
0.6095

> <Gold.Chemscore.Rot.Weighted>
5.7235

> <Gold.Chemscore.Internal.Correction.Weighted>
   9.000000E+99

> <Gold.Protein.RotatedTorsions>
[ 6907 6896 6895 6894 ] final  -18.48 input  -60.11 | X-H torsion
[ 7974 7965 7964 7962 ] final   11.14 input  175.53 | X-H torsion
[ 8008 7997 7996 7995 ] final  -73.04 input   59.86 | X-H torsion
[ 10167 10162 10161 10158 ] final  -69.83 input  -65.29 | X-H torsion
[ 10718 10713 10712 10709 ] final  -54.24 input   66.30 | X-H torsion
[ 10763 10752 10751 10750 ] final   16.18 input  -60.55 | X-H torsion
[ 11005 11000 10999 10996 ] final  148.90 input  -57.11 | X-H torsion

> <Gold.Protein.ActiveResidues>
 VAL166  LYS551  ARG553  GLY616  TRP617  ASP618  TYR619  PRO620  LYS621  CYS622 
 ASP623  PHE694  ASN695  SER759  ASP760  ASP761  ALA762  ILE779  LEU786  VAL792 
 PHE793  MET794  SER795  GLU796  ALA797  LYS798  CYS799  TRP800  GLU811  SER814 

> <Gold.Protein.RotatedAtoms>
  151.2776  135.0704  159.9156 H   0  0  0  0  0  0  0  0  0  0  0  0  # atno 6907 bound_to 6896
  152.5340  134.0065  159.7929 H   0  0  0  0  0  0  0  0  0  0  0  0  # atno 6908 bound_to 6896
  151.0313  133.5737  159.2691 H   0  0  0  0  0  0  0  0  0  0  0  0  # atno 6909 bound_to 6896
  146.2376  139.9530  142.8468 H   0  0  0  0  0  0  0  0  0  0  0  0  # atno 7974 bound_to 7965
  154.5215  140.0786  156.8180 H   0  0  0  0  0  0  0  0  0  0  0  0  # atno 8008 bound_to 7997
  155.3566  140.3415  155.4222 H   0  0  0  0  0  0  0  0  0  0  0  0  # atno 8009 bound_to 7997
  156.1686  140.1612  156.8474 H   0  0  0  0  0  0  0  0  0  0  0  0  # atno 8010 bound_to 7997
  140.5400  143.2315  151.7107 H   0  0  0  0  0  0  0  0  0  0  0  0  # atno 10167 bound_to 10162
  156.1467  130.4152  150.0012 H   0  0  0  0  0  0  0  0  0  0  0  0  # atno 10718 bound_to 10713
  153.1455  135.6768  153.8961 H   0  0  0  0  0  0  0  0  0  0  0  0  # atno 10763 bound_to 10752
  153.8404  135.3106  155.3427 H   0  0  0  0  0  0  0  0  0  0  0  0  # atno 10764 bound_to 10752
  154.7822  135.4882  153.9953 H   0  0  0  0  0  0  0  0  0  0  0  0  # atno 10765 bound_to 10752
  140.0999  134.8989  157.1780 H   0  0  0  0  0  0  0  0  0  0  0  0  # atno 11005 bound_to 11000
  145.1844  140.9782  143.4248 LP  0  0  0  0  0  0  0  0  0  0  0  0  # atno 17320 bound_to 7965
  144.9913  139.3686  143.6213 LP  0  0  0  0  0  0  0  0  0  0  0  0  # atno 17321 bound_to 7965
  139.4985  144.3983  152.0208 LP  0  0  0  0  0  0  0  0  0  0  0  0  # atno 17342 bound_to 10162
  140.3092  144.3558  150.6038 LP  0  0  0  0  0  0  0  0  0  0  0  0  # atno 17343 bound_to 10162
  156.7881  130.9246  151.3646 LP  0  0  0  0  0  0  0  0  0  0  0  0  # atno 17370 bound_to 10713
  157.6623  130.8977  149.9856 LP  0  0  0  0  0  0  0  0  0  0  0  0  # atno 17371 bound_to 10713
  140.3234  134.2890  155.7241 LP  0  0  0  0  0  0  0  0  0  0  0  0  # atno 17394 bound_to 11000
  141.2103  133.7724  156.9943 LP  0  0  0  0  0  0  0  0  0  0  0  0  # atno 17395 bound_to 11000

$$$$
