AV-unprocessed.smi:3191|AV-procd|sdf|12199|dock1
  -GOLD-   2272018 33D 1   1.00000     0.00000
 Structure written by MMmdl.
 35 36  0  0  0  0  0  0  0  0  1 V2000
  143.1757  133.7505  151.7113 C   0  0  0  0  0  0  0  0  0  0  0  0
  144.0122  132.9947  150.8007 N   0  0  0  0  0  0  0  0  0  0  0  0
  143.7473  132.7024  149.5201 C   0  0  0  0  0  0  0  0  0  0  0  0
  144.6888  131.9939  148.9121 N   0  0  0  0  0  0  0  0  0  0  0  0
  145.6540  131.8122  149.8986 C   0  0  0  0  0  0  0  0  0  0  0  0
  145.2525  132.4219  151.0687 C   0  0  0  0  0  0  0  0  0  0  0  0
  145.9219  132.5164  152.4056 C   0  0  0  0  0  0  0  0  0  0  0  0
  147.4289  132.8205  152.3377 C   0  0  0  0  0  0  0  0  0  0  0  0
  148.2252  131.7022  152.8298 N   0  0  0  0  0  0  0  0  0  0  0  0
  148.9838  131.7234  153.9363 C   0  0  0  0  0  0  0  0  0  0  0  0
  149.0775  132.7150  154.6606 O   0  0  0  0  0  0  0  0  0  0  0  0
  149.6902  130.4306  154.2055 C   0  0  2  0  0  0  0  0  0  0  0  0
  149.3304  129.6728  155.4669 C   0  0  0  0  0  0  0  0  0  0  0  0
  150.6921  130.3216  155.3534 C   0  0  0  0  0  0  0  0  0  0  0  0
  151.9212  129.4548  155.1429 C   0  0  0  0  0  0  0  0  0  0  0  0
  151.0390  131.4924  156.2652 C   0  0  0  0  0  0  0  0  0  0  0  0
  149.9122  129.8305  153.3239 H   0  0  0  0  0  0  0  0  0  0  0  0
  142.2745  134.0928  151.2015 H   0  0  0  0  0  0  0  0  0  0  0  0
  143.7236  134.6178  152.0807 H   0  0  0  0  0  0  0  0  0  0  0  0
  142.8884  133.1218  152.5544 H   0  0  0  0  0  0  0  0  0  0  0  0
  142.8426  133.0164  149.0202 H   0  0  0  0  0  0  0  0  0  0  0  0
  146.5584  131.2592  149.6910 H   0  0  0  0  0  0  0  0  0  0  0  0
  145.4230  133.2878  152.9935 H   0  0  0  0  0  0  0  0  0  0  0  0
  145.7706  131.5804  152.9445 H   0  0  0  0  0  0  0  0  0  0  0  0
  147.7242  133.0134  151.3059 H   0  0  0  0  0  0  0  0  0  0  0  0
  147.6653  133.7229  152.9043 H   0  0  0  0  0  0  0  0  0  0  0  0
  148.1989  130.8502  152.2885 H   0  0  0  0  0  0  0  0  0  0  0  0
  148.6149  130.1172  156.1568 H   0  0  0  0  0  0  0  0  0  0  0  0
  149.2692  128.5893  155.3879 H   0  0  0  0  0  0  0  0  0  0  0  0
  152.2792  129.0625  156.0954 H   0  0  0  0  0  0  0  0  0  0  0  0
  152.7204  130.0360  154.6820 H   0  0  0  0  0  0  0  0  0  0  0  0
  151.6932  128.6098  154.4923 H   0  0  0  0  0  0  0  0  0  0  0  0
  151.5805  131.1425  157.1445 H   0  0  0  0  0  0  0  0  0  0  0  0
  150.1459  132.0060  156.6187 H   0  0  0  0  0  0  0  0  0  0  0  0
  151.6667  132.2099  155.7361 H   0  0  0  0  0  0  0  0  0  0  0  0
  1  2  1  0  0  0  0
  1 18  1  0  0  0  0
  1 19  1  0  0  0  0
  1 20  1  0  0  0  0
  2  6  1  0  0  0  0
  2  3  1  0  0  0  0
  3  4  2  0  0  0  0
  3 21  1  0  0  0  0
  4  5  1  0  0  0  0
  5  6  2  0  0  0  0
  5 22  1  0  0  0  0
  6  7  1  0  0  0  0
  7  8  1  0  0  0  0
  7 23  1  0  0  0  0
  7 24  1  0  0  0  0
  8  9  1  0  0  0  0
  8 25  1  0  0  0  0
  8 26  1  0  0  0  0
  9 10  1  0  0  0  0
  9 27  1  0  0  0  0
 10 11  2  0  0  0  0
 10 12  1  0  0  0  0
 12 17  1  0  0  0  0
 12 14  1  0  0  0  0
 12 13  1  0  0  0  0
 13 14  1  0  0  0  0
 13 28  1  0  0  0  0
 13 29  1  0  0  0  0
 14 15  1  0  0  0  0
 14 16  1  0  0  0  0
 15 30  1  0  0  0  0
 15 31  1  0  0  0  0
 15 32  1  0  0  0  0
 16 33  1  0  0  0  0
 16 34  1  0  0  0  0
 16 35  1  0  0  0  0
M  END
> <s_m_source_file>
AV-unprocessed.smi

> <i_m_source_file_index>
3191

> <i_lp_mmshare_version>
43012

> <i_f3d_flags>
0

> <s_epik_input>
W0NIM11uMVtjSF1uW2NIXWMxW0NIMl1bQ0gyXVtOSF1DKD1PKVtDQEBIXShbQ0gyXTIpQzIoW0NIM10pW0NIM10=

> <s_epik_cmdline>
J2VwaWtfcHl0aG9uJywgJy1waCcsICc3LjAnLCAnLXRuJywgJzgnLCAnLW1hJywgJzIwMCcsICctbWV0YWxfYmluZGluZycsICctaW1hZScsICc8aW5maWxlLm1hZT4nLCAnLW9tYWUnLCAnPG91dGZpbGUubWFlPic=

> <r_lp_tautomer_probability>
1

> <r_epik_Ionization_Penalty>
0.874249

> <r_epik_Ionization_Penalty_Charging>
0.874249

> <r_epik_Ionization_Penalty_Neutral>
1.97773e-08

> <r_epik_State_Penalty>
0.911868

> <r_epik_Charging_Adjusted_Penalty>
1.78612

> <i_epik_Tot_Q>
0

> <i_epik_Tot_abs_Q>
0

> <r_epik_Metal_State_Penalty>
0.361186

> <b_epik_Metal_Only>
0

> <s_lp_Force_Field>
OPLS_2005

> <r_lp_Energy>
11.6999

> <b_lp_Chiralities_Consistent>
1

> <s_lp_Variant>
AV-unprocessed.smi:3191-4

> <Gold.Version>
5.8.1

> <Gold.Id.Protein>
6NUR|6NUR_protein|mol2

> <Gold.PLP.Fitness>
41.2294

> <Gold.PLP.PLP>
-34.2841

> <Gold.PLP.part.hbond>
-2.1521

> <Gold.PLP.part.metal>
0.0000

> <Gold.PLP.part.buried>
-5.0948

> <Gold.PLP.part.nonpolar>
-27.1836

> <Gold.PLP.part.repulsive>
0.2490

> <Gold.PLP.ligand.clash>
0.0000

> <Gold.PLP.ligand.torsion>
0.6567

> <Gold.PLP.Chemscore.Hbond>
0.7200

> <Gold.PLP.Chemscore.CHOScore>
2.0000

> <Gold.PLP.Chemscore.Metal>
0.0000

> <Gold.Chemscore.Hbonds>
donor molecule, donor type, donor heavy atom, donor atom, acceptor molecule, acceptor atom, score
      L1  H     9    27       P1 10747  0.29
      P1  H 10785 10796       L1     4  0.03
      L1  C     3    21       P1 10186  1.00
      L1  C     5    22       P1 10747  1.00

> <Gold.PLP.Chemscore.Internal.Correction>
0.0987

> <Gold.Rescore>
     Score         DG    S(hbond)    S(metal)    S(lipo)     H(rot)  DE(clash)    DE(int)     intcor
      9.46     -11.41       0.87        0.00      62.78       1.69       0.00       1.95       ----

> <Gold.Chemscore.Fitness>
9.4640

> <Gold.Chemscore.DG>
-11.4140

> <Gold.Chemscore.ZeroCoef>
-5.4800

> <Gold.Chemscore.Hbond>
0.8741

> <Gold.Chemscore.Metal>
0.0000

> <Gold.Chemscore.Lipo>
62.7833

> <Gold.Chemscore.Internal_Hbond>
0.0000

> <Gold.Chemscore.DEClash>
0.0033

> <Gold.Chemscore.DEInternal>
1.9466

> <Gold.Chemscore.Rot>
1.6919

> <Gold.Chemscore.Internal.Correction>
   9.000000E+99

> <Gold.Chemscore.Hbonds>
donor molecule, donor type, donor heavy atom, donor atom, acceptor molecule, acceptor atom, score
      L1  H     9    27       P1 10747  0.28

> <Gold.Chemscore.Hbond.Weighted>
-2.9195

> <Gold.Chemscore.Metal.Weighted>
-0.0000

> <Gold.Chemscore.Lipo.Weighted>
-7.3457

> <Gold.Chemscore.Internal_Hbond.Weighted>
0.0000

> <Gold.Chemscore.DEClash.Weighted>
0.0033

> <Gold.Chemscore.DEInternal.Weighted>
1.9466

> <Gold.Chemscore.Rot.Weighted>
4.3312

> <Gold.Chemscore.Internal.Correction.Weighted>
   9.000000E+99

> <Gold.Protein.RotatedTorsions>
[ 6907 6896 6895 6894 ] final   54.66 input  -60.11 | X-H torsion
[ 7974 7965 7964 7962 ] final -151.96 input  175.53 | X-H torsion
[ 8008 7997 7996 7995 ] final  112.99 input   59.86 | X-H torsion
[ 10167 10162 10161 10158 ] final  142.31 input  -65.29 | X-H torsion
[ 10718 10713 10712 10709 ] final  -50.14 input   66.30 | X-H torsion
[ 10763 10752 10751 10750 ] final -169.77 input  -60.55 | X-H torsion
[ 11005 11000 10999 10996 ] final -152.02 input  -57.11 | X-H torsion

> <Gold.Protein.ActiveResidues>
 VAL166  LYS551  ARG553  GLY616  TRP617  ASP618  TYR619  PRO620  LYS621  CYS622 
 ASP623  PHE694  ASN695  SER759  ASP760  ASP761  ALA762  ILE779  LEU786  VAL792 
 PHE793  MET794  SER795  GLU796  ALA797  LYS798  CYS799  TRP800  GLU811  SER814 

> <Gold.Protein.RotatedAtoms>
  152.3461  134.7069  160.0249 H   0  0  0  0  0  0  0  0  0  0  0  0  # atno 6907 bound_to 6896
  151.7439  133.3318  159.3381 H   0  0  0  0  0  0  0  0  0  0  0  0  # atno 6908 bound_to 6896
  150.7510  134.6186  159.6169 H   0  0  0  0  0  0  0  0  0  0  0  0  # atno 6909 bound_to 6896
  144.7821  140.4727  143.5832 H   0  0  0  0  0  0  0  0  0  0  0  0  # atno 7974 bound_to 7965
  156.2229  140.2988  155.9995 H   0  0  0  0  0  0  0  0  0  0  0  0  # atno 8008 bound_to 7997
  155.2435  140.0423  157.2995 H   0  0  0  0  0  0  0  0  0  0  0  0  # atno 8009 bound_to 7997
  154.5868  140.2390  155.7984 H   0  0  0  0  0  0  0  0  0  0  0  0  # atno 8010 bound_to 7997
  139.4997  144.6115  151.6261 H   0  0  0  0  0  0  0  0  0  0  0  0  # atno 10167 bound_to 10162
  156.1828  130.4151  149.9483 H   0  0  0  0  0  0  0  0  0  0  0  0  # atno 10718 bound_to 10713
  154.6487  135.2908  155.0014 H   0  0  0  0  0  0  0  0  0  0  0  0  # atno 10763 bound_to 10752
  154.1115  135.6562  153.4890 H   0  0  0  0  0  0  0  0  0  0  0  0  # atno 10764 bound_to 10752
  153.0364  135.5266  154.7385 H   0  0  0  0  0  0  0  0  0  0  0  0  # atno 10765 bound_to 10752
  140.7233  134.3702  157.5179 H   0  0  0  0  0  0  0  0  0  0  0  0  # atno 11005 bound_to 11000
  145.6023  139.1505  143.3122 LP  0  0  0  0  0  0  0  0  0  0  0  0  # atno 17320 bound_to 7965
  146.2034  140.6143  142.9092 LP  0  0  0  0  0  0  0  0  0  0  0  0  # atno 17321 bound_to 7965
  140.5791  143.9977  150.6258 LP  0  0  0  0  0  0  0  0  0  0  0  0  # atno 17342 bound_to 10162
  140.3120  143.3192  152.0869 LP  0  0  0  0  0  0  0  0  0  0  0  0  # atno 17343 bound_to 10162
  156.7248  130.9020  151.3621 LP  0  0  0  0  0  0  0  0  0  0  0  0  # atno 17370 bound_to 10713
  157.6879  130.9204  150.0435 LP  0  0  0  0  0  0  0  0  0  0  0  0  # atno 17371 bound_to 10713
  139.8843  134.8970  156.2713 LP  0  0  0  0  0  0  0  0  0  0  0  0  # atno 17394 bound_to 11000
  140.9984  133.7166  156.0922 LP  0  0  0  0  0  0  0  0  0  0  0  0  # atno 17395 bound_to 11000

$$$$
