AV-unprocessed.smi:2765|AV-procd|sdf|10644|dock5
  -GOLD-   2272015 93D 1   1.00000     0.00000
 Structure written by MMmdl.
 45 46  0  0  0  0  0  0  0  0  2 V2000
  148.2891  139.3890  155.7923 C   0  0  0  0  0  0  0  0  0  0  0  0
  148.6826  138.6123  154.5165 C   0  0  0  0  0  0  0  0  0  0  0  0
  147.6503  138.9902  153.4363 C   0  0  0  0  0  0  0  0  0  0  0  0
  150.0871  139.0091  153.9965 C   0  0  0  0  0  0  0  0  0  0  0  0
  151.2697  138.3598  154.7411 C   0  0  0  0  0  0  0  0  0  0  0  0
  151.5486  138.9637  156.0427 N   0  0  0  0  0  0  0  0  0  0  0  0
  151.5193  140.2771  156.3135 C   0  0  0  0  0  0  0  0  0  0  0  0
  151.2393  141.1349  155.4759 O   0  0  0  0  0  0  0  0  0  0  0  0
  151.8267  140.5163  157.6007 N   0  0  0  0  0  0  0  0  0  0  0  0
  151.9072  141.7696  158.2646 C   0  0  0  0  0  0  0  0  0  0  0  0
  150.9332  142.7171  157.8748 C   0  0  0  0  0  0  0  0  0  0  0  0
  150.9259  143.9909  158.4761 C   0  0  0  0  0  0  0  0  0  0  0  0
  151.8947  144.2827  159.4527 C   0  0  0  0  0  0  0  0  0  0  0  0
  151.9270  145.4930  160.0590 F   0  0  0  0  0  0  0  0  0  0  0  0
  152.8294  143.2843  159.7835 C   0  0  0  0  0  0  0  0  0  0  0  0
  152.8377  142.0633  159.2074 N   0  0  0  0  0  0  0  0  0  0  0  0
  151.0665  136.8395  154.8405 C   0  0  0  0  0  0  0  0  0  0  0  0
  149.6818  136.3916  155.3759 C   0  0  0  0  0  0  0  0  0  0  0  0
  149.4914  134.9057  155.0135 C   0  0  0  0  0  0  0  0  0  0  0  0
  149.5881  136.4854  156.9149 C   0  0  0  0  0  0  0  0  0  0  0  0
  148.5756  137.1390  154.7135 N   0  3  0  0  0  0  0  0  0  0  0  0
  148.2071  140.4565  155.5845 H   0  0  0  0  0  0  0  0  0  0  0  0
  149.0064  139.2972  156.6010 H   0  0  0  0  0  0  0  0  0  0  0  0
  147.3220  139.0595  156.1737 H   0  0  0  0  0  0  0  0  0  0  0  0
  147.6760  140.0583  153.2159 H   0  0  0  0  0  0  0  0  0  0  0  0
  146.6347  138.7460  153.7512 H   0  0  0  0  0  0  0  0  0  0  0  0
  147.8352  138.4608  152.5006 H   0  0  0  0  0  0  0  0  0  0  0  0
  150.1676  138.7003  152.9529 H   0  0  0  0  0  0  0  0  0  0  0  0
  150.1909  140.0947  153.9779 H   0  0  0  0  0  0  0  0  0  0  0  0
  152.1655  138.5183  154.1373 H   0  0  0  0  0  0  0  0  0  0  0  0
  151.7955  138.3336  156.7919 H   0  0  0  0  0  0  0  0  0  0  0  0
  152.0321  139.7101  158.1719 H   0  0  0  0  0  0  0  0  0  0  0  0
  150.1957  142.4750  157.1232 H   0  0  0  0  0  0  0  0  0  0  0  0
  150.1900  144.7287  158.1925 H   0  0  0  0  0  0  0  0  0  0  0  0
  153.5893  143.4688  160.5287 H   0  0  0  0  0  0  0  0  0  0  0  0
  151.1929  136.4386  153.8334 H   0  0  0  0  0  0  0  0  0  0  0  0
  151.8670  136.3892  155.4297 H   0  0  0  0  0  0  0  0  0  0  0  0
  150.2826  134.2866  155.4386 H   0  0  0  0  0  0  0  0  0  0  0  0
  149.5029  134.7512  153.9336 H   0  0  0  0  0  0  0  0  0  0  0  0
  148.5405  134.5212  155.3850 H   0  0  0  0  0  0  0  0  0  0  0  0
  150.3005  135.8089  157.3885 H   0  0  0  0  0  0  0  0  0  0  0  0
  148.5949  136.2056  157.2679 H   0  0  0  0  0  0  0  0  0  0  0  0
  149.8045  137.4728  157.3086 H   0  0  0  0  0  0  0  0  0  0  0  0
  147.7086  136.9335  155.1890 H   0  0  0  0  0  0  0  0  0  0  0  0
  148.5126  136.7512  153.7831 H   0  0  0  0  0  0  0  0  0  0  0  0
  1  2  1  0  0  0  0
  1 22  1  0  0  0  0
  1 23  1  0  0  0  0
  1 24  1  0  0  0  0
  2 21  1  0  0  0  0
  2  3  1  0  0  0  0
  2  4  1  0  0  0  0
  3 25  1  0  0  0  0
  3 26  1  0  0  0  0
  3 27  1  0  0  0  0
  4  5  1  0  0  0  0
  4 28  1  0  0  0  0
  4 29  1  0  0  0  0
  5  6  1  0  0  0  0
  5 17  1  0  0  0  0
  5 30  1  0  0  0  0
  6  7  1  0  0  0  0
  6 31  1  0  0  0  0
  7  8  2  0  0  0  0
  7  9  1  0  0  0  0
  9 10  1  0  0  0  0
  9 32  1  0  0  0  0
 10 16  1  0  0  0  0
 10 11  2  0  0  0  0
 11 12  1  0  0  0  0
 11 33  1  0  0  0  0
 12 13  2  0  0  0  0
 12 34  1  0  0  0  0
 13 14  1  0  0  0  0
 13 15  1  0  0  0  0
 15 16  2  0  0  0  0
 15 35  1  0  0  0  0
 17 18  1  0  0  0  0
 17 36  1  0  0  0  0
 17 37  1  0  0  0  0
 18 19  1  0  0  0  0
 18 20  1  0  0  0  0
 18 21  1  0  0  0  0
 19 38  1  0  0  0  0
 19 39  1  0  0  0  0
 19 40  1  0  0  0  0
 20 41  1  0  0  0  0
 20 42  1  0  0  0  0
 20 43  1  0  0  0  0
 21 44  1  0  0  0  0
 21 45  1  0  0  0  0
M  CHG  1  21   1
M  END
> <s_m_source_file>
AV-unprocessed.smi

> <i_m_source_file_index>
2765

> <i_lp_mmshare_version>
43012

> <i_f3d_flags>
0

> <s_epik_input>
W0NIM11DMShbQ0gzXSlbQ0gyXVtDSF0oW0NIMl1DKFtDSDNdKShbQ0gzXSlbTkhdMSlbTkhdQyg9TylbTkhdYzJbY0hdW2NIXWMoRilbY0hdbjI=

> <s_epik_cmdline>
J2VwaWtfcHl0aG9uJywgJy1waCcsICc3LjAnLCAnLXRuJywgJzgnLCAnLW1hJywgJzIwMCcsICctbWV0YWxfYmluZGluZycsICctaW1hZScsICc8aW5maWxlLm1hZT4nLCAnLW9tYWUnLCAnPG91dGZpbGUubWFlPic=

> <r_lp_tautomer_probability>
1

> <r_epik_Ionization_Penalty>
0.000124854

> <r_epik_Ionization_Penalty_Charging>
9.44458e-05

> <r_epik_Ionization_Penalty_Neutral>
3.0408e-05

> <r_epik_State_Penalty>
-0

> <r_epik_Charging_Adjusted_Penalty>
9.44458e-05

> <i_epik_Tot_Q>
1

> <i_epik_Tot_abs_Q>
1

> <r_epik_Metal_State_Penalty>
-0

> <b_epik_Metal_Only>
0

> <s_lp_Force_Field>
OPLS_2005

> <r_lp_Energy>
29.8768

> <b_lp_Chiralities_Consistent>
1

> <s_lp_Variant>
AV-unprocessed.smi:2765-1

> <Gold.Version>
5.8.1

> <Gold.Id.Protein>
6NUR|6NUR_protein|mol2

> <Gold.PLP.Fitness>
43.4938

> <Gold.PLP.PLP>
-36.7300

> <Gold.PLP.part.hbond>
-2.0000

> <Gold.PLP.part.metal>
0.0000

> <Gold.PLP.part.buried>
-2.0316

> <Gold.PLP.part.nonpolar>
-32.5102

> <Gold.PLP.part.repulsive>
0.2283

> <Gold.PLP.ligand.clash>
0.0000

> <Gold.PLP.ligand.torsion>
0.4912

> <Gold.PLP.Chemscore.Hbond>
2.5760

> <Gold.PLP.Chemscore.CHOScore>
0.0000

> <Gold.PLP.Chemscore.Metal>
0.0000

> <Gold.Chemscore.Hbonds>
donor molecule, donor type, donor heavy atom, donor atom, acceptor molecule, acceptor atom, score
      L1  H    21    45       P1  7948  1.98
      P1  H  7989  7998       L1     8  0.58

> <Gold.PLP.Chemscore.Internal.Correction>
0.0183

> <Gold.Rescore>
     Score         DG    S(hbond)    S(metal)    S(lipo)     H(rot)  DE(clash)    DE(int)     intcor
     14.51     -18.75       1.58        0.00      90.07       1.00       1.17       3.07       ----

> <Gold.Chemscore.Fitness>
14.5128

> <Gold.Chemscore.DG>
-18.7511

> <Gold.Chemscore.ZeroCoef>
-5.4800

> <Gold.Chemscore.Hbond>
1.5847

> <Gold.Chemscore.Metal>
0.0000

> <Gold.Chemscore.Lipo>
90.0689

> <Gold.Chemscore.Internal_Hbond>
0.0000

> <Gold.Chemscore.DEClash>
1.1684

> <Gold.Chemscore.DEInternal>
3.0699

> <Gold.Chemscore.Rot>
1.0000

> <Gold.Chemscore.Internal.Correction>
   9.000000E+99

> <Gold.Chemscore.Hbonds>
donor molecule, donor type, donor heavy atom, donor atom, acceptor molecule, acceptor atom, score
      L1  H    21    45       P1  7948  0.92
      P1  H  7989  7998       L1     8  0.54

> <Gold.Chemscore.Hbond.Weighted>
-5.2930

> <Gold.Chemscore.Metal.Weighted>
-0.0000

> <Gold.Chemscore.Lipo.Weighted>
-10.5381

> <Gold.Chemscore.Internal_Hbond.Weighted>
0.0000

> <Gold.Chemscore.DEClash.Weighted>
1.1684

> <Gold.Chemscore.DEInternal.Weighted>
3.0699

> <Gold.Chemscore.Rot.Weighted>
2.5600

> <Gold.Chemscore.Internal.Correction.Weighted>
   9.000000E+99

> <Gold.Protein.RotatedTorsions>
[ 6907 6896 6895 6894 ] final   44.77 input  -60.11 | X-H torsion
[ 7974 7965 7964 7962 ] final  -75.86 input  175.53 | X-H torsion
[ 8008 7997 7996 7995 ] final   76.69 input   59.86 | X-H torsion
[ 10167 10162 10161 10158 ] final -107.85 input  -65.29 | X-H torsion
[ 10718 10713 10712 10709 ] final   77.43 input   66.30 | X-H torsion
[ 10763 10752 10751 10750 ] final -178.81 input  -60.55 | X-H torsion
[ 11005 11000 10999 10996 ] final -128.53 input  -57.11 | X-H torsion

> <Gold.Protein.ActiveResidues>
 VAL166  LYS551  ARG553  GLY616  TRP617  ASP618  TYR619  PRO620  LYS621  CYS622 
 ASP623  PHE694  ASN695  SER759  ASP760  ASP761  ALA762  ILE779  LEU786  VAL792 
 PHE793  MET794  SER795  GLU796  ALA797  LYS798  CYS799  TRP800  GLU811  SER814 

> <Gold.Protein.RotatedAtoms>
  152.2365  134.8271  160.0466 H   0  0  0  0  0  0  0  0  0  0  0  0  # atno 6907 bound_to 6896
  151.9001  133.3531  159.3836 H   0  0  0  0  0  0  0  0  0  0  0  0  # atno 6908 bound_to 6896
  150.7041  134.4763  159.5493 H   0  0  0  0  0  0  0  0  0  0  0  0  # atno 6909 bound_to 6896
  145.6205  140.9364  143.1141 H   0  0  0  0  0  0  0  0  0  0  0  0  # atno 7974 bound_to 7965
  155.8310  140.3466  155.5572 H   0  0  0  0  0  0  0  0  0  0  0  0  # atno 8008 bound_to 7997
  155.8242  140.0917  157.1851 H   0  0  0  0  0  0  0  0  0  0  0  0  # atno 8009 bound_to 7997
  154.4004  140.1424  156.3524 H   0  0  0  0  0  0  0  0  0  0  0  0  # atno 8010 bound_to 7997
  140.1725  143.4032  152.1344 H   0  0  0  0  0  0  0  0  0  0  0  0  # atno 10167 bound_to 10162
  157.6710  130.9821  150.1640 H   0  0  0  0  0  0  0  0  0  0  0  0  # atno 10718 bound_to 10713
  154.5431  135.2807  155.1078 H   0  0  0  0  0  0  0  0  0  0  0  0  # atno 10763 bound_to 10752
  154.2553  135.6332  153.5258 H   0  0  0  0  0  0  0  0  0  0  0  0  # atno 10764 bound_to 10752
  152.9984  135.5592  154.5975 H   0  0  0  0  0  0  0  0  0  0  0  0  # atno 10765 bound_to 10752
  140.9508  134.1067  157.4063 H   0  0  0  0  0  0  0  0  0  0  0  0  # atno 11005 bound_to 11000
  144.7233  139.7957  143.7374 LP  0  0  0  0  0  0  0  0  0  0  0  0  # atno 17320 bound_to 7965
  146.1435  139.4498  143.0094 LP  0  0  0  0  0  0  0  0  0  0  0  0  # atno 17321 bound_to 7965
  139.5332  144.7181  151.4984 LP  0  0  0  0  0  0  0  0  0  0  0  0  # atno 17342 bound_to 10162
  140.6573  143.8572  150.6849 LP  0  0  0  0  0  0  0  0  0  0  0  0  # atno 17343 bound_to 10162
  156.2410  130.3691  149.8338 LP  0  0  0  0  0  0  0  0  0  0  0  0  # atno 17370 bound_to 10713
  156.6138  130.8597  151.3460 LP  0  0  0  0  0  0  0  0  0  0  0  0  # atno 17371 bound_to 10713
  139.8847  135.0065  156.6386 LP  0  0  0  0  0  0  0  0  0  0  0  0  # atno 17394 bound_to 11000
  140.7604  133.8822  155.8414 LP  0  0  0  0  0  0  0  0  0  0  0  0  # atno 17395 bound_to 11000

$$$$
