AV-unprocessed.smi:39|AV-procd|sdf|365|dock2
  -GOLD-   2262016203D 1   1.00000     0.00000
 Structure written by MMmdl.
 31 32  0  0  0  0  0  0  0  0  4 V2000
  150.6138  144.6417  158.9924 C   0  0  0  0  0  0  0  0  0  0  0  0
  151.2743  143.2927  158.7680 C   0  0  0  0  0  0  0  0  0  0  0  0
  151.0723  142.5684  157.6447 C   0  0  0  0  0  0  0  0  0  0  0  0
  151.6740  141.3365  157.4461 N   0  0  0  0  0  0  0  0  0  0  0  0
  151.4393  140.5235  156.1875 C   0  0  1  0  0  0  0  0  0  0  0  0
  150.8355  139.1523  156.5347 C   0  0  0  0  0  0  0  0  0  0  0  0
  149.6276  139.0781  155.6145 C   0  0  1  0  0  0  0  0  0  0  0  0
  148.5447  138.2551  156.1580 N   0  0  0  0  0  0  0  0  0  0  0  0
  148.1248  138.5692  157.2791 N   0  3  0  0  0  0  0  0  0  0  0  0
  147.6368  138.7908  158.2829 N   0  5  0  0  0  0  0  0  0  0  0  0
  149.2390  140.5517  155.4951 C   0  0  2  0  0  0  0  0  0  0  0  0
  148.3756  140.8646  154.2635 C   0  0  0  0  0  0  0  0  0  0  0  0
  149.1936  141.2824  153.1916 O   0  0  0  0  0  0  0  0  0  0  0  0
  150.5137  141.1720  155.3628 O   0  0  0  0  0  0  0  0  0  0  0  0
  152.5464  140.8170  158.4384 C   0  0  0  0  0  0  0  0  0  0  0  0
  153.0776  139.7263  158.2262 O   0  0  0  0  0  0  0  0  0  0  0  0
  152.7552  141.5398  159.5751 N   0  5  0  0  0  0  0  0  0  0  0  0
  152.1640  142.7480  159.8002 C   0  0  0  0  0  0  0  0  0  0  0  0
  152.3557  143.3868  160.8346 O   0  0  0  0  0  0  0  0  0  0  0  0
  152.4050  140.4753  155.6814 H   0  0  0  0  0  0  0  0  0  0  0  0
  149.9454  138.7155  154.6344 H   0  0  0  0  0  0  0  0  0  0  0  0
  148.7497  140.8806  156.4144 H   0  0  0  0  0  0  0  0  0  0  0  0
  149.9968  144.9283  158.1403 H   0  0  0  0  0  0  0  0  0  0  0  0
  151.3679  145.4156  159.1386 H   0  0  0  0  0  0  0  0  0  0  0  0
  149.9760  144.6104  159.8763 H   0  0  0  0  0  0  0  0  0  0  0  0
  150.4197  142.9770  156.8889 H   0  0  0  0  0  0  0  0  0  0  0  0
  151.5574  138.3537  156.3614 H   0  0  0  0  0  0  0  0  0  0  0  0
  150.5320  139.1316  157.5831 H   0  0  0  0  0  0  0  0  0  0  0  0
  147.7743  140.0034  153.9711 H   0  0  0  0  0  0  0  0  0  0  0  0
  147.6868  141.6804  154.4849 H   0  0  0  0  0  0  0  0  0  0  0  0
  149.2182  140.5931  152.5460 H   0  0  0  0  0  0  0  0  0  0  0  0
  1  2  1  0  0  0  0
  1 23  1  0  0  0  0
  1 24  1  0  0  0  0
  1 25  1  0  0  0  0
  2 18  1  0  0  0  0
  2  3  2  0  0  0  0
  3  4  1  0  0  0  0
  3 26  1  0  0  0  0
  4  5  1  0  0  0  0
  4 15  1  0  0  0  0
  5 20  1  0  0  0  0
  5 14  1  0  0  0  0
  5  6  1  0  0  0  0
  6  7  1  0  0  0  0
  6 27  1  0  0  0  0
  6 28  1  0  0  0  0
  7 21  1  0  0  0  0
  7  8  1  0  0  0  0
  7 11  1  0  0  0  0
  8  9  2  0  0  0  0
  9 10  2  0  0  0  0
 11 22  1  0  0  0  0
 11 12  1  0  0  0  0
 11 14  1  0  0  0  0
 12 13  1  0  0  0  0
 12 29  1  0  0  0  0
 12 30  1  0  0  0  0
 13 31  1  0  0  0  0
 15 16  2  0  0  0  0
 15 17  1  0  0  0  0
 17 18  1  0  0  0  0
 18 19  2  0  0  0  0
M  CHG  1   9   1
M  CHG  1  10  -1
M  CHG  1  17  -1
M  END
> <s_m_source_file>
AV-unprocessed.smi

> <i_m_source_file_index>
39

> <i_lp_mmshare_version>
43012

> <i_f3d_flags>
0

> <s_epik_input>
Tz1jMVtuSF1jKD1PKW4oW2NIXWMxW0NIM10pW0NASF0yW0NIMl1bQ0BIXShOPVtOK109W04tXSlbQ0BIXShPMilbQ0gyXVtPSF0=

> <s_epik_cmdline>
J2VwaWtfcHl0aG9uJywgJy1waCcsICc3LjAnLCAnLXRuJywgJzgnLCAnLW1hJywgJzIwMCcsICctbWV0YWxfYmluZGluZycsICctaW1hZScsICc8aW5maWxlLm1hZT4nLCAnLW9tYWUnLCAnPG91dGZpbGUubWFlPic=

> <r_lp_tautomer_probability>
0.999537

> <r_epik_Ionization_Penalty>
3.6393

> <r_epik_Ionization_Penalty_Charging>
9.76484e-08

> <r_epik_Ionization_Penalty_Neutral>
3.6393

> <r_epik_State_Penalty>
3.63887

> <r_epik_Charging_Adjusted_Penalty>
3.63887

> <i_epik_Tot_Q>
-1

> <i_epik_Tot_abs_Q>
3

> <r_epik_Metal_State_Penalty>
0.225911

> <b_epik_Metal_Only>
1

> <s_epik_Chemistry_Notes>
This compound contains an acetal/aminal-like group ( X-CH(R)-Y where X, Y are N, S, or O) that may be acid/base labile, releasing an aldehyde.

> <s_lp_Force_Field>
OPLS_2005

> <r_lp_Energy>
32.9978

> <b_lp_Chiralities_Consistent>
1

> <s_lp_Variant>
AV-unprocessed.smi:39-15

> <Gold.Version>
5.8.1

> <Gold.Id.Protein>
6NUR|6NUR_protein|mol2

> <Gold.PLP.Fitness>
40.1643

> <Gold.PLP.PLP>
-28.8875

> <Gold.PLP.part.hbond>
-5.4232

> <Gold.PLP.part.metal>
0.0000

> <Gold.PLP.part.buried>
-4.7827

> <Gold.PLP.part.nonpolar>
-19.2490

> <Gold.PLP.part.repulsive>
0.1593

> <Gold.PLP.ligand.clash>
0.0000

> <Gold.PLP.ligand.torsion>
0.5348

> <Gold.PLP.Chemscore.Hbond>
3.3456

> <Gold.PLP.Chemscore.CHOScore>
0.7579

> <Gold.PLP.Chemscore.Metal>
0.0000

> <Gold.Chemscore.Hbonds>
donor molecule, donor type, donor heavy atom, donor atom, acceptor molecule, acceptor atom, score
      L1  H    13    31       P1  7957  1.00
      P1  H  7989  7998       L1    14  0.32
      P1  H  7997  8010       L1    16  1.00
      P1  H  8011  8017       L1    13  0.90
      L1  C     3    26       P1  8028  0.77

> <Gold.PLP.Chemscore.Internal.Correction>
0.0359

> <Gold.Rescore>
     Score         DG    S(hbond)    S(metal)    S(lipo)     H(rot)  DE(clash)    DE(int)     intcor
     10.60     -12.20       2.43        0.00      47.57       2.72       0.02       1.57       ----

> <Gold.Chemscore.Fitness>
10.6025

> <Gold.Chemscore.DG>
-12.1958

> <Gold.Chemscore.ZeroCoef>
-5.4800

> <Gold.Chemscore.Hbond>
2.4256

> <Gold.Chemscore.Metal>
0.0000

> <Gold.Chemscore.Lipo>
47.5672

> <Gold.Chemscore.Internal_Hbond>
0.0000

> <Gold.Chemscore.DEClash>
0.0208

> <Gold.Chemscore.DEInternal>
1.5725

> <Gold.Chemscore.Rot>
2.7153

> <Gold.Chemscore.Internal.Correction>
   9.000000E+99

> <Gold.Chemscore.Hbonds>
donor molecule, donor type, donor heavy atom, donor atom, acceptor molecule, acceptor atom, score
      L1  H    13    31       P1  7957  0.89
      P1  H  7989  7998       L1    14  0.05
      P1  H  7997  8010       L1    16  0.54
      P1  H  8011  8017       L1    13  0.17

> <Gold.Chemscore.Hbond.Weighted>
-8.1016

> <Gold.Chemscore.Metal.Weighted>
-0.0000

> <Gold.Chemscore.Lipo.Weighted>
-5.5654

> <Gold.Chemscore.Internal_Hbond.Weighted>
0.0000

> <Gold.Chemscore.DEClash.Weighted>
0.0208

> <Gold.Chemscore.DEInternal.Weighted>
1.5725

> <Gold.Chemscore.Rot.Weighted>
6.9512

> <Gold.Chemscore.Internal.Correction.Weighted>
   9.000000E+99

> <Gold.Protein.RotatedTorsions>
[ 6907 6896 6895 6894 ] final  110.10 input  -60.11 | X-H torsion
[ 7974 7965 7964 7962 ] final   11.46 input  175.53 | X-H torsion
[ 8008 7997 7996 7995 ] final   42.09 input   59.86 | X-H torsion
[ 10167 10162 10161 10158 ] final  -71.33 input  -65.29 | X-H torsion
[ 10718 10713 10712 10709 ] final  128.89 input   66.30 | X-H torsion
[ 10763 10752 10751 10750 ] final   19.01 input  -60.55 | X-H torsion
[ 11005 11000 10999 10996 ] final -149.21 input  -57.11 | X-H torsion

> <Gold.Protein.ActiveResidues>
 VAL166  LYS551  ARG553  GLY616  TRP617  ASP618  TYR619  PRO620  LYS621  CYS622 
 ASP623  PHE694  ASN695  SER759  ASP760  ASP761  ALA762  ILE779  LEU786  VAL792 
 PHE793  MET794  SER795  GLU796  ALA797  LYS798  CYS799  TRP800  GLU811  SER814 

> <Gold.Protein.RotatedAtoms>
  152.5036  133.8849  159.7364 H   0  0  0  0  0  0  0  0  0  0  0  0  # atno 6907 bound_to 6896
  150.9302  133.6767  159.2819 H   0  0  0  0  0  0  0  0  0  0  0  0  # atno 6908 bound_to 6896
  151.4114  135.0990  159.9639 H   0  0  0  0  0  0  0  0  0  0  0  0  # atno 6909 bound_to 6896
  146.2370  139.9481  142.8474 H   0  0  0  0  0  0  0  0  0  0  0  0  # atno 7974 bound_to 7965
  155.2805  140.3372  155.4258 H   0  0  0  0  0  0  0  0  0  0  0  0  # atno 8008 bound_to 7997
  156.2092  140.1763  156.7773 H   0  0  0  0  0  0  0  0  0  0  0  0  # atno 8009 bound_to 7997
  154.5663  140.0678  156.8880 H   0  0  0  0  0  0  0  0  0  0  0  0  # atno 8010 bound_to 7997
  140.5282  143.2324  151.7310 H   0  0  0  0  0  0  0  0  0  0  0  0  # atno 10167 bound_to 10162
  157.5204  131.1098  150.9162 H   0  0  0  0  0  0  0  0  0  0  0  0  # atno 10718 bound_to 10713
  153.1199  135.6716  153.9354 H   0  0  0  0  0  0  0  0  0  0  0  0  # atno 10763 bound_to 10752
  153.8872  135.3051  155.3448 H   0  0  0  0  0  0  0  0  0  0  0  0  # atno 10764 bound_to 10752
  154.7612  135.4987  153.9546 H   0  0  0  0  0  0  0  0  0  0  0  0  # atno 10765 bound_to 10752
  140.7532  134.3383  157.5121 H   0  0  0  0  0  0  0  0  0  0  0  0  # atno 11005 bound_to 11000
  145.1887  140.9801  143.4223 LP  0  0  0  0  0  0  0  0  0  0  0  0  # atno 17320 bound_to 7965
  144.9876  139.3721  143.6231 LP  0  0  0  0  0  0  0  0  0  0  0  0  # atno 17321 bound_to 7965
  139.4945  144.4154  152.0035 LP  0  0  0  0  0  0  0  0  0  0  0  0  # atno 17342 bound_to 10162
  140.3255  144.3378  150.5999 LP  0  0  0  0  0  0  0  0  0  0  0  0  # atno 17343 bound_to 10162
  156.9774  130.5514  149.5294 LP  0  0  0  0  0  0  0  0  0  0  0  0  # atno 17370 bound_to 10713
  156.0349  130.5438  150.8629 LP  0  0  0  0  0  0  0  0  0  0  0  0  # atno 17371 bound_to 10713
  139.8784  134.9155  156.3132 LP  0  0  0  0  0  0  0  0  0  0  0  0  # atno 17394 bound_to 11000
  140.9732  133.7314  156.0564 LP  0  0  0  0  0  0  0  0  0  0  0  0  # atno 17395 bound_to 11000

$$$$
