AV-unprocessed.smi:2132|AV-procd|sdf|8691|dock10
  -GOLD-   2272011443D 1   1.00000     0.00000
 Structure written by MMmdl.
 38 39  0  0  0  0  0  0  0  0  1 V2000
  152.6638  142.8483  160.7857 C   0  0  0  0  0  0  0  0  0  0  0  0
  152.5241  143.4542  159.5131 O   0  0  0  0  0  0  0  0  0  0  0  0
  151.4035  142.9618  158.7965 C   0  0  0  0  0  0  0  0  0  0  0  0
  151.4401  143.5104  157.3636 C   0  0  0  0  0  0  0  0  0  0  0  0
  150.3853  142.9285  156.5430 N   0  0  0  0  0  0  0  0  0  0  0  0
  150.3354  141.6504  156.1346 C   0  0  0  0  0  0  0  0  0  0  0  0
  151.2061  140.8207  156.3975 O   0  0  0  0  0  0  0  0  0  0  0  0
  149.1729  141.2846  155.2480 C   0  0  0  0  0  0  0  0  0  0  0  0
  148.2916  142.3111  154.8393 C   0  0  0  0  0  0  0  0  0  0  0  0
  147.1917  142.0003  154.0210 C   0  0  0  0  0  0  0  0  0  0  0  0
  147.0124  140.6630  153.6293 C   0  0  0  0  0  0  0  0  0  0  0  0
  147.8513  139.6717  153.9905 N   0  0  0  0  0  0  0  0  0  0  0  0
  148.9195  139.9607  154.7747 C   0  0  0  0  0  0  0  0  0  0  0  0
  149.7891  138.8893  155.0616 N   0  0  0  0  0  0  0  0  0  0  0  0
  151.0714  138.9647  154.3728 C   0  0  0  0  0  0  0  0  0  0  0  0
  152.0455  137.9353  154.9709 C   0  0  0  0  0  0  0  0  0  0  0  0
  151.4647  136.6348  154.9163 O   0  0  0  0  0  0  0  0  0  0  0  0
  150.2491  136.5572  155.6562 C   0  0  0  0  0  0  0  0  0  0  0  0
  149.2253  137.5440  155.0698 C   0  0  0  0  0  0  0  0  0  0  0  0
  153.5335  143.2631  161.2951 H   0  0  0  0  0  0  0  0  0  0  0  0
  152.8093  141.7711  160.6955 H   0  0  0  0  0  0  0  0  0  0  0  0
  151.7883  143.0329  161.4094 H   0  0  0  0  0  0  0  0  0  0  0  0
  151.4023  141.8704  158.7890 H   0  0  0  0  0  0  0  0  0  0  0  0
  150.4847  143.2847  159.2881 H   0  0  0  0  0  0  0  0  0  0  0  0
  151.3474  144.5975  157.3749 H   0  0  0  0  0  0  0  0  0  0  0  0
  152.4025  143.2881  156.9022 H   0  0  0  0  0  0  0  0  0  0  0  0
  149.6389  143.5456  156.2570 H   0  0  0  0  0  0  0  0  0  0  0  0
  148.4458  143.3317  155.1587 H   0  0  0  0  0  0  0  0  0  0  0  0
  146.5013  142.7677  153.7042 H   0  0  0  0  0  0  0  0  0  0  0  0
  146.1782  140.3823  153.0037 H   0  0  0  0  0  0  0  0  0  0  0  0
  150.9187  138.7638  153.3118 H   0  0  0  0  0  0  0  0  0  0  0  0
  151.4952  139.9661  154.4502 H   0  0  0  0  0  0  0  0  0  0  0  0
  152.9800  137.9317  154.4098 H   0  0  0  0  0  0  0  0  0  0  0  0
  152.2935  138.1907  156.0025 H   0  0  0  0  0  0  0  0  0  0  0  0
  149.8638  135.5391  155.6029 H   0  0  0  0  0  0  0  0  0  0  0  0
  150.4379  136.7733  156.7092 H   0  0  0  0  0  0  0  0  0  0  0  0
  148.3082  137.5288  155.6599 H   0  0  0  0  0  0  0  0  0  0  0  0
  148.9657  137.2460  154.0530 H   0  0  0  0  0  0  0  0  0  0  0  0
  1  2  1  0  0  0  0
  1 20  1  0  0  0  0
  1 21  1  0  0  0  0
  1 22  1  0  0  0  0
  2  3  1  0  0  0  0
  3  4  1  0  0  0  0
  3 23  1  0  0  0  0
  3 24  1  0  0  0  0
  4  5  1  0  0  0  0
  4 25  1  0  0  0  0
  4 26  1  0  0  0  0
  5  6  1  0  0  0  0
  5 27  1  0  0  0  0
  6  7  2  0  0  0  0
  6  8  1  0  0  0  0
  8 13  1  0  0  0  0
  8  9  2  0  0  0  0
  9 10  1  0  0  0  0
  9 28  1  0  0  0  0
 10 11  2  0  0  0  0
 10 29  1  0  0  0  0
 11 12  1  0  0  0  0
 11 30  1  0  0  0  0
 12 13  2  0  0  0  0
 13 14  1  0  0  0  0
 14 19  1  0  0  0  0
 14 15  1  0  0  0  0
 15 16  1  0  0  0  0
 15 31  1  0  0  0  0
 15 32  1  0  0  0  0
 16 17  1  0  0  0  0
 16 33  1  0  0  0  0
 16 34  1  0  0  0  0
 17 18  1  0  0  0  0
 18 19  1  0  0  0  0
 18 35  1  0  0  0  0
 18 36  1  0  0  0  0
 19 37  1  0  0  0  0
 19 38  1  0  0  0  0
M  END
> <s_m_source_file>
AV-unprocessed.smi

> <i_m_source_file_index>
2132

> <i_lp_mmshare_version>
43012

> <i_f3d_flags>
0

> <s_epik_input>
W0NIM11PW0NIMl1bQ0gyXVtOSF1DKD1PKWMxW2NIXVtjSF1bY0hdbmMxTjJbQ0gyXVtDSDJdT1tDSDJdW0NIMl0y

> <s_epik_cmdline>
J2VwaWtfcHl0aG9uJywgJy1waCcsICc3LjAnLCAnLXRuJywgJzgnLCAnLW1hJywgJzIwMCcsICctbWV0YWxfYmluZGluZycsICctaW1hZScsICc8aW5maWxlLm1hZT4nLCAnLW9tYWUnLCAnPG91dGZpbGUubWFlPic=

> <r_lp_tautomer_probability>
1

> <r_epik_Ionization_Penalty>
1.38099e-05

> <r_epik_Ionization_Penalty_Charging>
0

> <r_epik_Ionization_Penalty_Neutral>
1.38099e-05

> <r_epik_State_Penalty>
-0

> <r_epik_Charging_Adjusted_Penalty>
0

> <i_epik_Tot_Q>
0

> <i_epik_Tot_abs_Q>
0

> <r_epik_Metal_State_Penalty>
-0

> <b_epik_Metal_Only>
0

> <s_lp_Force_Field>
OPLS_2005

> <r_lp_Energy>
24.8445

> <b_lp_Chiralities_Consistent>
1

> <s_lp_Variant>
AV-unprocessed.smi:2132-1

> <Gold.Version>
5.8.1

> <Gold.Id.Protein>
6NUR|6NUR_protein|mol2

> <Gold.PLP.Fitness>
39.8741

> <Gold.PLP.PLP>
-31.7471

> <Gold.PLP.part.hbond>
-2.0000

> <Gold.PLP.part.metal>
0.0000

> <Gold.PLP.part.buried>
-2.8502

> <Gold.PLP.part.nonpolar>
-28.4031

> <Gold.PLP.part.repulsive>
0.4857

> <Gold.PLP.ligand.clash>
0.0017

> <Gold.PLP.ligand.torsion>
0.5630

> <Gold.PLP.Chemscore.Hbond>
2.0000

> <Gold.PLP.Chemscore.CHOScore>
1.0000

> <Gold.PLP.Chemscore.Metal>
0.0000

> <Gold.Chemscore.Hbonds>
donor molecule, donor type, donor heavy atom, donor atom, acceptor molecule, acceptor atom, score
      L1  H     5    27       P1  8028  0.96
      P1  H 10752 10764       L1    17  1.00
      L1  C    11    30       P1 10175  0.96

> <Gold.PLP.Chemscore.Internal.Correction>
0.2547

> <Gold.Rescore>
     Score         DG    S(hbond)    S(metal)    S(lipo)     H(rot)  DE(clash)    DE(int)     intcor
     12.73     -17.30       1.82        0.00      84.48       1.62       1.16       3.40       ----

> <Gold.Chemscore.Fitness>
12.7308

> <Gold.Chemscore.DG>
-17.2981

> <Gold.Chemscore.ZeroCoef>
-5.4800

> <Gold.Chemscore.Hbond>
1.8214

> <Gold.Chemscore.Metal>
0.0000

> <Gold.Chemscore.Lipo>
84.4806

> <Gold.Chemscore.Internal_Hbond>
0.0000

> <Gold.Chemscore.DEClash>
1.1639

> <Gold.Chemscore.DEInternal>
3.4034

> <Gold.Chemscore.Rot>
1.6209

> <Gold.Chemscore.Internal.Correction>
   9.000000E+99

> <Gold.Chemscore.Hbonds>
donor molecule, donor type, donor heavy atom, donor atom, acceptor molecule, acceptor atom, score
      L1  H     5    27       P1  8028  0.91
      P1  H 10752 10764       L1    17  0.25

> <Gold.Chemscore.Hbond.Weighted>
-6.0835

> <Gold.Chemscore.Metal.Weighted>
-0.0000

> <Gold.Chemscore.Lipo.Weighted>
-9.8842

> <Gold.Chemscore.Internal_Hbond.Weighted>
0.0000

> <Gold.Chemscore.DEClash.Weighted>
1.1639

> <Gold.Chemscore.DEInternal.Weighted>
3.4034

> <Gold.Chemscore.Rot.Weighted>
4.1496

> <Gold.Chemscore.Internal.Correction.Weighted>
   9.000000E+99

> <Gold.Protein.RotatedTorsions>
[ 6907 6896 6895 6894 ] final   49.50 input  -60.11 | X-H torsion
[ 7974 7965 7964 7962 ] final  -43.14 input  175.53 | X-H torsion
[ 8008 7997 7996 7995 ] final   57.22 input   59.86 | X-H torsion
[ 10167 10162 10161 10158 ] final  -85.15 input  -65.29 | X-H torsion
[ 10718 10713 10712 10709 ] final  -18.85 input   66.30 | X-H torsion
[ 10763 10752 10751 10750 ] final  -76.83 input  -60.55 | X-H torsion
[ 11005 11000 10999 10996 ] final  157.75 input  -57.11 | X-H torsion

> <Gold.Protein.ActiveResidues>
 VAL166  LYS551  ARG553  GLY616  TRP617  ASP618  TYR619  PRO620  LYS621  CYS622 
 ASP623  PHE694  ASN695  SER759  ASP760  ASP761  ALA762  ILE779  LEU786  VAL792 
 PHE793  MET794  SER795  GLU796  ALA797  LYS798  CYS799  TRP800  GLU811  SER814 

> <Gold.Protein.RotatedAtoms>
  152.2915  134.7716  160.0376 H   0  0  0  0  0  0  0  0  0  0  0  0  # atno 6907 bound_to 6896
  151.8261  133.3396  159.3607 H   0  0  0  0  0  0  0  0  0  0  0  0  # atno 6908 bound_to 6896
  150.7232  134.5457  159.5813 H   0  0  0  0  0  0  0  0  0  0  0  0  # atno 6909 bound_to 6896
  146.0048  140.7033  142.9253 H   0  0  0  0  0  0  0  0  0  0  0  0  # atno 7974 bound_to 7965
  155.5302  140.3482  155.4425 H   0  0  0  0  0  0  0  0  0  0  0  0  # atno 8008 bound_to 7997
  156.0723  140.1366  156.9840 H   0  0  0  0  0  0  0  0  0  0  0  0  # atno 8009 bound_to 7997
  154.4535  140.0963  156.6663 H   0  0  0  0  0  0  0  0  0  0  0  0  # atno 8010 bound_to 7997
  140.4065  143.2640  151.9074 H   0  0  0  0  0  0  0  0  0  0  0  0  # atno 10167 bound_to 10162
  156.5538  130.4708  149.6439 H   0  0  0  0  0  0  0  0  0  0  0  0  # atno 10718 bound_to 10713
  154.5050  135.5784  153.6560 H   0  0  0  0  0  0  0  0  0  0  0  0  # atno 10763 bound_to 10752
  152.9886  135.6145  154.2953 H   0  0  0  0  0  0  0  0  0  0  0  0  # atno 10764 bound_to 10752
  154.2863  135.2849  155.2654 H   0  0  0  0  0  0  0  0  0  0  0  0  # atno 10765 bound_to 10752
  140.1799  134.8483  157.2791 H   0  0  0  0  0  0  0  0  0  0  0  0  # atno 11005 bound_to 11000
  144.6932  140.3295  143.7218 LP  0  0  0  0  0  0  0  0  0  0  0  0  # atno 17320 bound_to 7965
  145.7433  139.1771  143.2363 LP  0  0  0  0  0  0  0  0  0  0  0  0  # atno 17321 bound_to 7965
  139.4783  144.5581  151.8283 LP  0  0  0  0  0  0  0  0  0  0  0  0  # atno 17342 bound_to 10162
  140.4684  144.1622  150.5914 LP  0  0  0  0  0  0  0  0  0  0  0  0  # atno 17343 bound_to 10162
  156.2861  130.7098  151.1935 LP  0  0  0  0  0  0  0  0  0  0  0  0  # atno 17370 bound_to 10713
  157.7382  131.0543  150.5307 LP  0  0  0  0  0  0  0  0  0  0  0  0  # atno 17371 bound_to 10713
  140.2279  134.3945  155.7535 LP  0  0  0  0  0  0  0  0  0  0  0  0  # atno 17394 bound_to 11000
  141.2222  133.7199  156.8594 LP  0  0  0  0  0  0  0  0  0  0  0  0  # atno 17395 bound_to 11000

$$$$
