AV-unprocessed.smi:1901|AV-procd|sdf|7718|dock7
  -GOLD-   22720 9463D 1   1.00000     0.00000
 Structure written by MMmdl.
 27 28  0  0  0  0  0  0  0  0  2 V2000
  152.6640  139.6112  155.8562 O   0  0  0  0  0  0  0  0  0  0  0  0
  151.5065  140.0138  155.7221 C   0  0  0  0  0  0  0  0  0  0  0  0
  150.9119  140.6517  156.7393 N   0  0  0  0  0  0  0  0  0  0  0  0
  151.5245  140.9279  158.0330 C   0  0  0  0  0  0  0  0  0  0  0  0
  151.2595  142.3781  158.4696 C   0  0  2  0  0  0  0  0  0  0  0  0
  151.5487  143.4234  157.4100 C   0  0  0  0  0  0  0  0  0  0  0  0
  151.6720  144.6934  158.2465 C   0  0  0  0  0  0  0  0  0  0  0  0
  152.1796  144.2802  159.5124 O   0  0  0  0  0  0  0  0  0  0  0  0
  152.1600  142.8586  159.6070 C   0  0  0  0  0  0  0  0  0  0  0  0
  150.7101  139.8936  154.6293 N   0  5  0  0  0  0  0  0  0  0  0  0
  149.4833  140.4437  154.4908 C   0  0  0  0  0  0  0  0  0  0  0  0
  149.1154  141.6913  154.8268 N   0  0  0  0  0  0  0  0  0  0  0  0
  147.7762  141.9801  154.5644 C   0  0  0  0  0  0  0  0  0  0  0  0
  147.0958  140.9293  154.0120 C   0  0  0  0  0  0  0  0  0  0  0  0
  148.1263  139.5425  153.8080 S   0  0  0  0  0  0  0  0  0  0  0  0
  149.9639  140.9695  156.6011 H   0  0  0  0  0  0  0  0  0  0  0  0
  151.1199  140.2387  158.7755 H   0  0  0  0  0  0  0  0  0  0  0  0
  152.5977  140.7400  157.9728 H   0  0  0  0  0  0  0  0  0  0  0  0
  150.2192  142.4782  158.7847 H   0  0  0  0  0  0  0  0  0  0  0  0
  152.4958  143.2086  156.9125 H   0  0  0  0  0  0  0  0  0  0  0  0
  150.7712  143.4921  156.6486 H   0  0  0  0  0  0  0  0  0  0  0  0
  152.3185  145.4374  157.7808 H   0  0  0  0  0  0  0  0  0  0  0  0
  150.6908  145.1445  158.3985 H   0  0  0  0  0  0  0  0  0  0  0  0
  151.8086  142.5294  160.5851 H   0  0  0  0  0  0  0  0  0  0  0  0
  153.1791  142.4932  159.4740 H   0  0  0  0  0  0  0  0  0  0  0  0
  147.3920  142.9606  154.8028 H   0  0  0  0  0  0  0  0  0  0  0  0
  146.0592  140.8849  153.7144 H   0  0  0  0  0  0  0  0  0  0  0  0
  1  2  2  0  0  0  0
  2  3  1  0  0  0  0
  2 10  1  0  0  0  0
  3  4  1  0  0  0  0
  3 16  1  0  0  0  0
  4  5  1  0  0  0  0
  4 17  1  0  0  0  0
  4 18  1  0  0  0  0
  5  9  1  0  0  0  0
  5  6  1  0  0  0  0
  5 19  1  0  0  0  0
  6  7  1  0  0  0  0
  6 20  1  0  0  0  0
  6 21  1  0  0  0  0
  7  8  1  0  0  0  0
  7 22  1  0  0  0  0
  7 23  1  0  0  0  0
  8  9  1  0  0  0  0
  9 24  1  0  0  0  0
  9 25  1  0  0  0  0
 10 11  1  0  0  0  0
 11 15  1  0  0  0  0
 11 12  2  0  0  0  0
 12 13  1  0  0  0  0
 13 14  2  0  0  0  0
 13 26  1  0  0  0  0
 14 15  1  0  0  0  0
 14 27  1  0  0  0  0
M  CHG  1  10  -1
M  END
> <s_m_source_file>
AV-unprocessed.smi

> <i_m_source_file_index>
1901

> <i_lp_mmshare_version>
43012

> <i_f3d_flags>
0

> <s_epik_input>
czFbY0hdW2NIXW5jMVtOSF1DKD1PKVtOSF1bQ0gyXVtDQEBIXTJbQ0gyXVtDSDJdT1tDSDJdMg==

> <s_epik_cmdline>
J2VwaWtfcHl0aG9uJywgJy1waCcsICc3LjAnLCAnLXRuJywgJzgnLCAnLW1hJywgJzIwMCcsICctbWV0YWxfYmluZGluZycsICctaW1hZScsICc8aW5maWxlLm1hZT4nLCAnLW9tYWUnLCAnPG91dGZpbGUubWFlPic=

> <r_lp_tautomer_probability>
0.999

> <r_epik_Ionization_Penalty>
8.4411

> <r_epik_Ionization_Penalty_Charging>
6.72681

> <r_epik_Ionization_Penalty_Neutral>
1.71429

> <r_epik_State_Penalty>
6.72698

> <r_epik_Charging_Adjusted_Penalty>
13.4538

> <i_epik_Tot_Q>
-1

> <i_epik_Tot_abs_Q>
1

> <r_epik_Metal_State_Penalty>
2.64812

> <b_epik_Metal_Only>
1

> <s_lp_Force_Field>
OPLS_2005

> <r_lp_Energy>
18.4833

> <b_lp_Chiralities_Consistent>
1

> <s_lp_Variant>
AV-unprocessed.smi:1901-3

> <Gold.Version>
5.8.1

> <Gold.Id.Protein>
6NUR|6NUR_protein|mol2

> <Gold.PLP.Fitness>
37.3353

> <Gold.PLP.PLP>
-30.9862

> <Gold.PLP.part.hbond>
-2.0637

> <Gold.PLP.part.metal>
0.0000

> <Gold.PLP.part.buried>
-3.6745

> <Gold.PLP.part.nonpolar>
-25.3149

> <Gold.PLP.part.repulsive>
0.3270

> <Gold.PLP.ligand.clash>
2.7965

> <Gold.PLP.ligand.torsion>
0.5433

> <Gold.PLP.Chemscore.Hbond>
2.0000

> <Gold.PLP.Chemscore.CHOScore>
1.4086

> <Gold.PLP.Chemscore.Metal>
0.0000

> <Gold.Chemscore.Hbonds>
donor molecule, donor type, donor heavy atom, donor atom, acceptor molecule, acceptor atom, score
      P1  H  7989  7998       L1    10  1.00
      P1  H  7997  8009       L1     1  1.00
      L1  C    13    26       P1  8028  0.84
      L1  C    14    27       P1 10175  0.57

> <Gold.PLP.Chemscore.Internal.Correction>
0.0064

> <Gold.Rescore>
     Score         DG    S(hbond)    S(metal)    S(lipo)     H(rot)  DE(clash)    DE(int)     intcor
     12.10     -14.12       1.17        0.00      68.84       1.30       0.15       1.86       ----

> <Gold.Chemscore.Fitness>
12.1016

> <Gold.Chemscore.DG>
-14.1164

> <Gold.Chemscore.ZeroCoef>
-5.4800

> <Gold.Chemscore.Hbond>
1.1708

> <Gold.Chemscore.Metal>
0.0000

> <Gold.Chemscore.Lipo>
68.8366

> <Gold.Chemscore.Internal_Hbond>
0.0000

> <Gold.Chemscore.DEClash>
0.1546

> <Gold.Chemscore.DEInternal>
1.8601

> <Gold.Chemscore.Rot>
1.3000

> <Gold.Chemscore.Internal.Correction>
   9.000000E+99

> <Gold.Chemscore.Hbonds>
donor molecule, donor type, donor heavy atom, donor atom, acceptor molecule, acceptor atom, score
      P1  H  7989  7998       L1    10  0.08
      P1  H  7997  8009       L1     1  1.00

> <Gold.Chemscore.Hbond.Weighted>
-3.9105

> <Gold.Chemscore.Metal.Weighted>
-0.0000

> <Gold.Chemscore.Lipo.Weighted>
-8.0539

> <Gold.Chemscore.Internal_Hbond.Weighted>
0.0000

> <Gold.Chemscore.DEClash.Weighted>
0.1546

> <Gold.Chemscore.DEInternal.Weighted>
1.8601

> <Gold.Chemscore.Rot.Weighted>
3.3280

> <Gold.Chemscore.Internal.Correction.Weighted>
   9.000000E+99

> <Gold.Protein.RotatedTorsions>
[ 6907 6896 6895 6894 ] final   65.11 input  -60.11 | X-H torsion
[ 7974 7965 7964 7962 ] final  -49.91 input  175.53 | X-H torsion
[ 8008 7997 7996 7995 ] final -147.88 input   59.86 | X-H torsion
[ 10167 10162 10161 10158 ] final  158.34 input  -65.29 | X-H torsion
[ 10718 10713 10712 10709 ] final  -80.91 input   66.30 | X-H torsion
[ 10763 10752 10751 10750 ] final -131.07 input  -60.55 | X-H torsion
[ 11005 11000 10999 10996 ] final   75.32 input  -57.11 | X-H torsion

> <Gold.Protein.ActiveResidues>
 VAL166  LYS551  ARG553  GLY616  TRP617  ASP618  TYR619  PRO620  LYS621  CYS622 
 ASP623  PHE694  ASN695  SER759  ASP760  ASP761  ALA762  ILE779  LEU786  VAL792 
 PHE793  MET794  SER795  GLU796  ALA797  LYS798  CYS799  TRP800  GLU811  SER814 

> <Gold.Protein.RotatedAtoms>
  152.4383  134.5642  159.9902 H   0  0  0  0  0  0  0  0  0  0  0  0  # atno 6907 bound_to 6896
  151.5746  133.3379  159.3004 H   0  0  0  0  0  0  0  0  0  0  0  0  # atno 6908 bound_to 6896
  150.8285  134.7561  159.6897 H   0  0  0  0  0  0  0  0  0  0  0  0  # atno 6909 bound_to 6896
  145.9355  140.7710  142.9578 H   0  0  0  0  0  0  0  0  0  0  0  0  # atno 7974 bound_to 7965
  155.5827  140.0645  157.2779 H   0  0  0  0  0  0  0  0  0  0  0  0  # atno 8008 bound_to 7997
  154.4328  140.1849  156.1039 H   0  0  0  0  0  0  0  0  0  0  0  0  # atno 8009 bound_to 7997
  156.0293  140.3308  155.7126 H   0  0  0  0  0  0  0  0  0  0  0  0  # atno 8010 bound_to 7997
  139.4826  144.4834  151.8412 H   0  0  0  0  0  0  0  0  0  0  0  0  # atno 10167 bound_to 10162
  156.0060  130.4588  150.3872 H   0  0  0  0  0  0  0  0  0  0  0  0  # atno 10718 bound_to 10713
  154.8753  135.3842  154.4186 H   0  0  0  0  0  0  0  0  0  0  0  0  # atno 10763 bound_to 10752
  153.4892  135.7030  153.5899 H   0  0  0  0  0  0  0  0  0  0  0  0  # atno 10764 bound_to 10752
  153.4280  135.3885  155.2120 H   0  0  0  0  0  0  0  0  0  0  0  0  # atno 10765 bound_to 10752
  139.9349  134.7508  156.1257 H   0  0  0  0  0  0  0  0  0  0  0  0  # atno 11005 bound_to 11000
  144.6771  140.2195  143.7368 LP  0  0  0  0  0  0  0  0  0  0  0  0  # atno 17320 bound_to 7965
  145.8370  139.2112  143.1850 LP  0  0  0  0  0  0  0  0  0  0  0  0  # atno 17321 bound_to 7965
  140.4312  144.2113  150.5888 LP  0  0  0  0  0  0  0  0  0  0  0  0  # atno 17342 bound_to 10162
  140.4778  143.2390  151.8999 LP  0  0  0  0  0  0  0  0  0  0  0  0  # atno 17343 bound_to 10162
  157.1949  131.0424  151.2681 LP  0  0  0  0  0  0  0  0  0  0  0  0  # atno 17370 bound_to 10713
  157.4028  130.7342  149.6780 LP  0  0  0  0  0  0  0  0  0  0  0  0  # atno 17371 bound_to 10713
  141.0958  133.6696  156.2641 LP  0  0  0  0  0  0  0  0  0  0  0  0  # atno 17394 bound_to 11000
  140.6102  134.5466  157.5532 LP  0  0  0  0  0  0  0  0  0  0  0  0  # atno 17395 bound_to 11000

$$$$
