AV-unprocessed.smi:1450|AV-procd|sdf|5897|dock1
  -GOLD-   22720 5583D 1   1.00000     0.00000
 Structure written by MMmdl.
 31 32  0  0  0  0  0  0  0  0  1 V2000
  145.3272  138.2387  153.4218 O   0  0  0  0  0  0  0  0  0  0  0  0
  146.3031  137.6805  152.9205 C   0  0  0  0  0  0  0  0  0  0  0  0
  146.2330  136.5098  152.2720 N   0  0  0  0  0  0  0  0  0  0  0  0
  145.0131  135.7352  152.0712 C   0  0  0  0  0  0  0  0  0  0  0  0
  145.2110  134.6100  151.0388 C   0  0  2  0  0  0  0  0  0  0  0  0
  144.1429  133.5336  151.0599 C   0  0  0  0  0  0  0  0  0  0  0  0
  144.8427  132.3806  150.3470 C   0  0  0  0  0  0  0  0  0  0  0  0
  146.2284  132.5191  150.6477 O   0  0  0  0  0  0  0  0  0  0  0  0
  146.4735  133.7790  151.2657 C   0  0  0  0  0  0  0  0  0  0  0  0
  147.5669  138.1355  152.9646 N   0  0  0  0  0  0  0  0  0  0  0  0
  148.0506  139.3450  153.5321 C   0  0  0  0  0  0  0  0  0  0  0  0
  147.2780  140.5235  153.6717 C   0  0  0  0  0  0  0  0  0  0  0  0
  147.8794  141.6675  154.2310 C   0  0  0  0  0  0  0  0  0  0  0  0
  149.2300  141.5941  154.6238 C   0  0  0  0  0  0  0  0  0  0  0  0
  149.9818  140.4820  154.4840 N   0  0  0  0  0  0  0  0  0  0  0  0
  149.3990  139.3894  153.9458 C   0  0  0  0  0  0  0  0  0  0  0  0
  147.0856  136.1213  151.8963 H   0  0  0  0  0  0  0  0  0  0  0  0
  144.6707  135.3197  153.0205 H   0  0  0  0  0  0  0  0  0  0  0  0
  144.2318  136.4181  151.7368 H   0  0  0  0  0  0  0  0  0  0  0  0
  145.2556  135.0365  150.0349 H   0  0  0  0  0  0  0  0  0  0  0  0
  143.9073  133.2502  152.0867 H   0  0  0  0  0  0  0  0  0  0  0  0
  143.2181  133.8353  150.5671 H   0  0  0  0  0  0  0  0  0  0  0  0
  144.4626  131.4071  150.6580 H   0  0  0  0  0  0  0  0  0  0  0  0
  144.7125  132.4663  149.2676 H   0  0  0  0  0  0  0  0  0  0  0  0
  147.3646  134.2558  150.8563 H   0  0  0  0  0  0  0  0  0  0  0  0
  146.6409  133.6098  152.3303 H   0  0  0  0  0  0  0  0  0  0  0  0
  148.2744  137.5197  152.5912 H   0  0  0  0  0  0  0  0  0  0  0  0
  146.2499  140.5779  153.3493 H   0  0  0  0  0  0  0  0  0  0  0  0
  147.3190  142.5828  154.3517 H   0  0  0  0  0  0  0  0  0  0  0  0
  149.7217  142.4535  155.0553 H   0  0  0  0  0  0  0  0  0  0  0  0
  150.0313  138.5191  153.8463 H   0  0  0  0  0  0  0  0  0  0  0  0
  1  2  2  0  0  0  0
  2  3  1  0  0  0  0
  2 10  1  0  0  0  0
  3  4  1  0  0  0  0
  3 17  1  0  0  0  0
  4  5  1  0  0  0  0
  4 18  1  0  0  0  0
  4 19  1  0  0  0  0
  5  9  1  0  0  0  0
  5  6  1  0  0  0  0
  5 20  1  0  0  0  0
  6  7  1  0  0  0  0
  6 21  1  0  0  0  0
  6 22  1  0  0  0  0
  7  8  1  0  0  0  0
  7 23  1  0  0  0  0
  7 24  1  0  0  0  0
  8  9  1  0  0  0  0
  9 25  1  0  0  0  0
  9 26  1  0  0  0  0
 10 11  1  0  0  0  0
 10 27  1  0  0  0  0
 11 16  1  0  0  0  0
 11 12  2  0  0  0  0
 12 13  1  0  0  0  0
 12 28  1  0  0  0  0
 13 14  2  0  0  0  0
 13 29  1  0  0  0  0
 14 15  1  0  0  0  0
 14 30  1  0  0  0  0
 15 16  2  0  0  0  0
 16 31  1  0  0  0  0
M  END
> <s_m_source_file>
AV-unprocessed.smi

> <i_m_source_file_index>
1450

> <i_lp_mmshare_version>
43012

> <i_f3d_flags>
0

> <s_epik_input>
W2NIXTFuW2NIXVtjSF1bY0hdYzFbTkhdQyg9TylbTkhdW0NIMl1bQ0BASF0yW0NIMl1bQ0gyXU9bQ0gyXTI=

> <s_epik_cmdline>
J2VwaWtfcHl0aG9uJywgJy1waCcsICc3LjAnLCAnLXRuJywgJzgnLCAnLW1hJywgJzIwMCcsICctbWV0YWxfYmluZGluZycsICctaW1hZScsICc8aW5maWxlLm1hZT4nLCAnLW9tYWUnLCAnPG91dGZpbGUubWFlPic=

> <r_epik_Ionization_Penalty>
0.00478342

> <r_epik_Ionization_Penalty_Charging>
0

> <r_epik_Ionization_Penalty_Neutral>
0.00478342

> <r_epik_State_Penalty>
0.0034384

> <r_epik_Charging_Adjusted_Penalty>
0.0034384

> <i_epik_Tot_Q>
0

> <i_epik_Tot_abs_Q>
0

> <r_epik_Metal_State_Penalty>
-0

> <b_epik_Metal_Only>
0

> <s_lp_Force_Field>
OPLS_2005

> <r_lp_Energy>
20.8722

> <b_lp_Chiralities_Consistent>
1

> <s_lp_Variant>
AV-unprocessed.smi:1450-1

> <Gold.Version>
5.8.1

> <Gold.Id.Protein>
6NUR|6NUR_protein|mol2

> <Gold.PLP.Fitness>
38.5619

> <Gold.PLP.PLP>
-27.6202

> <Gold.PLP.part.hbond>
-3.1953

> <Gold.PLP.part.metal>
0.0000

> <Gold.PLP.part.buried>
-1.8376

> <Gold.PLP.part.nonpolar>
-25.3353

> <Gold.PLP.part.repulsive>
2.4918

> <Gold.PLP.ligand.clash>
0.0000

> <Gold.PLP.ligand.torsion>
0.3195

> <Gold.PLP.Chemscore.Hbond>
2.8560

> <Gold.PLP.Chemscore.CHOScore>
1.0000

> <Gold.PLP.Chemscore.Metal>
0.0000

> <Gold.Chemscore.Hbonds>
donor molecule, donor type, donor heavy atom, donor atom, acceptor molecule, acceptor atom, score
      L1  H     3    17       P1  7948  0.94
      L1  H    10    27       P1  7948  1.00
      P1  H  7989  7998       L1    15  0.86
      L1  C    14    30       P1  8028  1.00

> <Gold.PLP.Chemscore.Internal.Correction>
0.0128

> <Gold.Rescore>
     Score         DG    S(hbond)    S(metal)    S(lipo)     H(rot)  DE(clash)    DE(int)     intcor
     15.31     -16.71       2.09        0.00      63.33       1.24       0.09       1.31       ----

> <Gold.Chemscore.Fitness>
15.3066

> <Gold.Chemscore.DG>
-16.7103

> <Gold.Chemscore.ZeroCoef>
-5.4800

> <Gold.Chemscore.Hbond>
2.0934

> <Gold.Chemscore.Metal>
0.0000

> <Gold.Chemscore.Lipo>
63.3347

> <Gold.Chemscore.Internal_Hbond>
0.0000

> <Gold.Chemscore.DEClash>
0.0906

> <Gold.Chemscore.DEInternal>
1.3130

> <Gold.Chemscore.Rot>
1.2390

> <Gold.Chemscore.Internal.Correction>
   9.000000E+99

> <Gold.Chemscore.Hbonds>
donor molecule, donor type, donor heavy atom, donor atom, acceptor molecule, acceptor atom, score
      L1  H     3    17       P1  7948  0.91
      L1  H    10    27       P1  7948  0.99
      P1  H  7989  7998       L1    15  0.44

> <Gold.Chemscore.Hbond.Weighted>
-6.9919

> <Gold.Chemscore.Metal.Weighted>
-0.0000

> <Gold.Chemscore.Lipo.Weighted>
-7.4102

> <Gold.Chemscore.Internal_Hbond.Weighted>
0.0000

> <Gold.Chemscore.DEClash.Weighted>
0.0906

> <Gold.Chemscore.DEInternal.Weighted>
1.3130

> <Gold.Chemscore.Rot.Weighted>
3.1718

> <Gold.Chemscore.Internal.Correction.Weighted>
   9.000000E+99

> <Gold.Protein.RotatedTorsions>
[ 6907 6896 6895 6894 ] final   84.35 input  -60.11 | X-H torsion
[ 7974 7965 7964 7962 ] final   55.06 input  175.53 | X-H torsion
[ 8008 7997 7996 7995 ] final  -26.92 input   59.86 | X-H torsion
[ 10167 10162 10161 10158 ] final  -86.72 input  -65.29 | X-H torsion
[ 10718 10713 10712 10709 ] final  -14.24 input   66.30 | X-H torsion
[ 10763 10752 10751 10750 ] final  176.52 input  -60.55 | X-H torsion
[ 11005 11000 10999 10996 ] final    1.08 input  -57.11 | X-H torsion

> <Gold.Protein.ActiveResidues>
 VAL166  LYS551  ARG553  GLY616  TRP617  ASP618  TYR619  PRO620  LYS621  CYS622 
 ASP623  PHE694  ASN695  SER759  ASP760  ASP761  ALA762  ILE779  LEU786  VAL792 
 PHE793  MET794  SER795  GLU796  ALA797  LYS798  CYS799  TRP800  GLU811  SER814 

> <Gold.Protein.RotatedAtoms>
  152.5350  134.2755  159.8987 H   0  0  0  0  0  0  0  0  0  0  0  0  # atno 6907 bound_to 6896
  151.2710  133.4248  159.2629 H   0  0  0  0  0  0  0  0  0  0  0  0  # atno 6908 bound_to 6896
  151.0367  134.9593  159.8197 H   0  0  0  0  0  0  0  0  0  0  0  0  # atno 6909 bound_to 6896
  145.9544  139.4001  143.0286 H   0  0  0  0  0  0  0  0  0  0  0  0  # atno 7974 bound_to 7965
  154.4402  140.1886  156.0851 H   0  0  0  0  0  0  0  0  0  0  0  0  # atno 8008 bound_to 7997
  156.0409  140.3320  155.7216 H   0  0  0  0  0  0  0  0  0  0  0  0  # atno 8009 bound_to 7997
  155.5701  140.0612  157.2799 H   0  0  0  0  0  0  0  0  0  0  0  0  # atno 8010 bound_to 7997
  140.3914  143.2703  151.9260 H   0  0  0  0  0  0  0  0  0  0  0  0  # atno 10167 bound_to 10162
  156.6188  130.4869  149.6173 H   0  0  0  0  0  0  0  0  0  0  0  0  # atno 10718 bound_to 10713
  154.4822  135.2775  155.1562 H   0  0  0  0  0  0  0  0  0  0  0  0  # atno 10763 bound_to 10752
  154.3268  135.6198  153.5536 H   0  0  0  0  0  0  0  0  0  0  0  0  # atno 10764 bound_to 10752
  152.9876  135.5756  154.5225 H   0  0  0  0  0  0  0  0  0  0  0  0  # atno 10765 bound_to 10752
  140.6194  133.9675  155.8217 H   0  0  0  0  0  0  0  0  0  0  0  0  # atno 11005 bound_to 11000
  145.8127  140.9718  143.0940 LP  0  0  0  0  0  0  0  0  0  0  0  0  # atno 17320 bound_to 7965
  144.6802  139.9941  143.7484 LP  0  0  0  0  0  0  0  0  0  0  0  0  # atno 17321 bound_to 7965
  139.4789  144.5724  151.8067 LP  0  0  0  0  0  0  0  0  0  0  0  0  # atno 17342 bound_to 10162
  140.4836  144.1414  150.5937 LP  0  0  0  0  0  0  0  0  0  0  0  0  # atno 17343 bound_to 10162
  156.2329  130.6805  151.1481 LP  0  0  0  0  0  0  0  0  0  0  0  0  # atno 17370 bound_to 10713
  157.7234  131.0667  150.6040 LP  0  0  0  0  0  0  0  0  0  0  0  0  # atno 17371 bound_to 10713
  141.0753  134.0145  157.3467 LP  0  0  0  0  0  0  0  0  0  0  0  0  # atno 17394 bound_to 11000
  139.9159  135.0196  156.7880 LP  0  0  0  0  0  0  0  0  0  0  0  0  # atno 17395 bound_to 11000

$$$$
