AV-unprocessed.smi:67|AV-procd|sdf|638|dock6
  -GOLD-   2262016533D 1   1.00000     0.00000
 Structure written by MMmdl.
 48 50  0  0  0  0  0  0  0  0  2 V2000
  145.3172  139.2406  154.4735 O   0  0  0  0  0  0  0  0  0  0  0  0
  146.4915  138.8197  153.8062 C   0  0  2  0  0  0  0  0  0  0  0  0
  147.5182  138.3022  154.8490 C   0  0  0  0  0  0  0  0  0  0  0  0
  148.8657  138.9358  154.7735 N   0  3  2  0  0  0  0  0  0  0  0  0
  149.9484  137.9526  155.0445 C   0  0  0  0  0  0  0  0  0  0  0  0
  151.3433  138.5667  154.8361 C   0  0  0  0  0  0  0  0  0  0  0  0
  151.5413  139.8299  155.6954 C   0  0  2  0  0  0  0  0  0  0  0  0
  151.5174  139.5213  157.0876 O   0  0  0  0  0  0  0  0  0  0  0  0
  151.9891  140.4353  158.0077 C   0  0  0  0  0  0  0  0  0  0  0  0
  152.9556  139.9674  158.9207 C   0  0  0  0  0  0  0  0  0  0  0  0
  153.4963  140.8216  159.8992 C   0  0  0  0  0  0  0  0  0  0  0  0
  153.0718  142.1603  159.9777 C   0  0  0  0  0  0  0  0  0  0  0  0
  152.1010  142.6489  159.0776 C   0  0  0  0  0  0  0  0  0  0  0  0
  151.6337  144.0955  159.1415 C   0  0  0  0  0  0  0  0  0  0  0  0
  150.3067  144.1431  159.2621 F   0  0  0  0  0  0  0  0  0  0  0  0
  152.1709  144.7423  160.1765 F   0  0  0  0  0  0  0  0  0  0  0  0
  151.9851  144.7193  158.0178 F   0  0  0  0  0  0  0  0  0  0  0  0
  151.5679  141.7864  158.0952 C   0  0  0  0  0  0  0  0  0  0  0  0
  150.3929  140.8092  155.4171 C   0  0  0  0  0  0  0  0  0  0  0  0
  149.0161  140.1522  155.6168 C   0  0  0  0  0  0  0  0  0  0  0  0
  147.0374  139.9245  152.8786 C   0  0  0  0  0  0  0  0  0  0  0  0
  146.7221  139.4412  151.4645 C   0  0  0  0  0  0  0  0  0  0  0  0
  146.6975  137.9920  151.5612 N   0  0  0  0  0  0  0  0  0  0  0  0
  146.0585  137.7005  152.8355 C   0  0  0  0  0  0  0  0  0  0  0  0
  145.5434  139.4917  155.3563 H   0  0  0  0  0  0  0  0  0  0  0  0
  147.1226  138.3777  155.8634 H   0  0  0  0  0  0  0  0  0  0  0  0
  147.6480  137.2351  154.6618 H   0  0  0  0  0  0  0  0  0  0  0  0
  149.8516  137.5768  156.0645 H   0  0  0  0  0  0  0  0  0  0  0  0
  149.8420  137.0935  154.3811 H   0  0  0  0  0  0  0  0  0  0  0  0
  152.1073  137.8216  155.0556 H   0  0  0  0  0  0  0  0  0  0  0  0
  151.4681  138.8248  153.7837 H   0  0  0  0  0  0  0  0  0  0  0  0
  152.4699  140.3367  155.4323 H   0  0  0  0  0  0  0  0  0  0  0  0
  153.2875  138.9406  158.8699 H   0  0  0  0  0  0  0  0  0  0  0  0
  154.2381  140.4493  160.5903 H   0  0  0  0  0  0  0  0  0  0  0  0
  153.4979  142.8056  160.7313 H   0  0  0  0  0  0  0  0  0  0  0  0
  150.8352  142.1919  157.4154 H   0  0  0  0  0  0  0  0  0  0  0  0
  150.4854  141.6843  156.0614 H   0  0  0  0  0  0  0  0  0  0  0  0
  150.4706  141.1757  154.3925 H   0  0  0  0  0  0  0  0  0  0  0  0
  148.2603  140.8915  155.3619 H   0  0  0  0  0  0  0  0  0  0  0  0
  148.8666  139.8928  156.6661 H   0  0  0  0  0  0  0  0  0  0  0  0
  146.6106  140.9075  153.0826 H   0  0  0  0  0  0  0  0  0  0  0  0
  148.1196  140.0152  152.9771 H   0  0  0  0  0  0  0  0  0  0  0  0
  145.7400  139.8068  151.1611 H   0  0  0  0  0  0  0  0  0  0  0  0
  147.4486  139.7898  150.7302 H   0  0  0  0  0  0  0  0  0  0  0  0
  147.6546  137.6564  151.5957 H   0  0  0  0  0  0  0  0  0  0  0  0
  146.3169  136.7037  153.1939 H   0  0  0  0  0  0  0  0  0  0  0  0
  144.9763  137.7131  152.6941 H   0  0  0  0  0  0  0  0  0  0  0  0
  148.9863  139.2297  153.8147 H   0  0  0  0  0  0  0  0  0  0  0  0
  1  2  1  0  0  0  0
  1 25  1  0  0  0  0
  2 24  1  0  0  0  0
  2  3  1  0  0  0  0
  2 21  1  0  0  0  0
  3  4  1  0  0  0  0
  3 26  1  0  0  0  0
  3 27  1  0  0  0  0
  4 20  1  0  0  0  0
  4  5  1  0  0  0  0
  4 48  1  0  0  0  0
  5  6  1  0  0  0  0
  5 28  1  0  0  0  0
  5 29  1  0  0  0  0
  6  7  1  0  0  0  0
  6 30  1  0  0  0  0
  6 31  1  0  0  0  0
  7  8  1  0  0  0  0
  7 19  1  0  0  0  0
  7 32  1  0  0  0  0
  8  9  1  0  0  0  0
  9 18  1  0  0  0  0
  9 10  2  0  0  0  0
 10 11  1  0  0  0  0
 10 33  1  0  0  0  0
 11 12  2  0  0  0  0
 11 34  1  0  0  0  0
 12 13  1  0  0  0  0
 12 35  1  0  0  0  0
 13 14  1  0  0  0  0
 13 18  2  0  0  0  0
 14 15  1  0  0  0  0
 14 16  1  0  0  0  0
 14 17  1  0  0  0  0
 18 36  1  0  0  0  0
 19 20  1  0  0  0  0
 19 37  1  0  0  0  0
 19 38  1  0  0  0  0
 20 39  1  0  0  0  0
 20 40  1  0  0  0  0
 21 22  1  0  0  0  0
 21 41  1  0  0  0  0
 21 42  1  0  0  0  0
 22 23  1  0  0  0  0
 22 43  1  0  0  0  0
 22 44  1  0  0  0  0
 23 24  1  0  0  0  0
 23 45  1  0  0  0  0
 24 46  1  0  0  0  0
 24 47  1  0  0  0  0
M  CHG  1   4   1
M  END
> <s_m_source_file>
AV-unprocessed.smi

> <i_m_source_file_index>
67

> <i_lp_mmshare_version>
43012

> <i_f3d_flags>
0

> <s_epik_input>
W0NIMl0xW05IXVtDSDJdW0NIMl1bQ0BAXTEoW09IXSlbQ0gyXU4yW0NIMl1bQ0gyXVtDSF0oW0NIMl1bQ0gyXTIpT2MzW2NIXVtjSF1bY0hdYyhDKEYpKEYpRilbY0hdMw==

> <s_epik_cmdline>
J2VwaWtfcHl0aG9uJywgJy1waCcsICc3LjAnLCAnLXRuJywgJzgnLCAnLW1hJywgJzIwMCcsICctbWV0YWxfYmluZGluZycsICctaW1hZScsICc8aW5maWxlLm1hZT4nLCAnLW9tYWUnLCAnPG91dGZpbGUubWFlPic=

> <r_epik_Ionization_Penalty>
2.37709

> <r_epik_Ionization_Penalty_Charging>
0.0305656

> <r_epik_Ionization_Penalty_Neutral>
2.34653

> <r_epik_State_Penalty>
2.56959

> <r_epik_Charging_Adjusted_Penalty>
2.60016

> <i_epik_Tot_Q>
1

> <i_epik_Tot_abs_Q>
1

> <r_epik_Metal_State_Penalty>
2.56925

> <b_epik_Metal_Only>
0

> <s_lp_Force_Field>
OPLS_2005

> <r_lp_Energy>
52.4549

> <b_lp_Chiralities_Consistent>
1

> <s_lp_Variant>
AV-unprocessed.smi:67-10

> <Gold.Version>
5.8.1

> <Gold.Id.Protein>
6NUR|6NUR_protein|mol2

> <Gold.PLP.Fitness>
51.1424

> <Gold.PLP.PLP>
-51.3979

> <Gold.PLP.part.hbond>
-2.6640

> <Gold.PLP.part.metal>
0.0000

> <Gold.PLP.part.buried>
-2.7189

> <Gold.PLP.part.nonpolar>
-45.4953

> <Gold.PLP.part.repulsive>
0.0271

> <Gold.PLP.ligand.clash>
0.2956

> <Gold.PLP.ligand.torsion>
1.7936

> <Gold.PLP.Chemscore.Hbond>
0.9920

> <Gold.PLP.Chemscore.CHOScore>
0.0000

> <Gold.PLP.Chemscore.Metal>
0.0000

> <Gold.Chemscore.Hbonds>
donor molecule, donor type, donor heavy atom, donor atom, acceptor molecule, acceptor atom, score
      L1  H    23    45       P1  7948  1.00

> <Gold.PLP.Chemscore.Internal.Correction>
0.6513

> <Gold.Rescore>
     Score         DG    S(hbond)    S(metal)    S(lipo)     H(rot)  DE(clash)    DE(int)     intcor
     14.67     -16.82       1.00        0.00     116.02       2.17       0.46       1.69       ----

> <Gold.Chemscore.Fitness>
14.6736

> <Gold.Chemscore.DG>
-16.8234

> <Gold.Chemscore.ZeroCoef>
-5.4800

> <Gold.Chemscore.Hbond>
0.9979

> <Gold.Chemscore.Metal>
0.0000

> <Gold.Chemscore.Lipo>
116.0204

> <Gold.Chemscore.Internal_Hbond>
0.0000

> <Gold.Chemscore.DEClash>
0.4634

> <Gold.Chemscore.DEInternal>
1.6865

> <Gold.Chemscore.Rot>
2.1734

> <Gold.Chemscore.Internal.Correction>
   9.000000E+99

> <Gold.Chemscore.Hbonds>
donor molecule, donor type, donor heavy atom, donor atom, acceptor molecule, acceptor atom, score
      L1  H    23    45       P1  7948  0.96

> <Gold.Chemscore.Hbond.Weighted>
-3.3330

> <Gold.Chemscore.Metal.Weighted>
-0.0000

> <Gold.Chemscore.Lipo.Weighted>
-13.5744

> <Gold.Chemscore.Internal_Hbond.Weighted>
0.0000

> <Gold.Chemscore.DEClash.Weighted>
0.4634

> <Gold.Chemscore.DEInternal.Weighted>
1.6865

> <Gold.Chemscore.Rot.Weighted>
5.5640

> <Gold.Chemscore.Internal.Correction.Weighted>
   9.000000E+99

> <Gold.Protein.RotatedTorsions>
[ 6907 6896 6895 6894 ] final   17.02 input  -60.11 | X-H torsion
[ 7974 7965 7964 7962 ] final  110.26 input  175.53 | X-H torsion
[ 8008 7997 7996 7995 ] final  108.81 input   59.86 | X-H torsion
[ 10167 10162 10161 10158 ] final  -82.96 input  -65.29 | X-H torsion
[ 10718 10713 10712 10709 ] final  134.93 input   66.30 | X-H torsion
[ 10763 10752 10751 10750 ] final  -40.86 input  -60.55 | X-H torsion
[ 11005 11000 10999 10996 ] final   21.30 input  -57.11 | X-H torsion

> <Gold.Protein.ActiveResidues>
 VAL166  LYS551  ARG553  GLY616  TRP617  ASP618  TYR619  PRO620  LYS621  CYS622 
 ASP623  PHE694  ASN695  SER759  ASP760  ASP761  ALA762  ILE779  LEU786  VAL792 
 PHE793  MET794  SER795  GLU796  ALA797  LYS798  CYS799  TRP800  GLU811  SER814 

> <Gold.Protein.RotatedAtoms>
  151.8430  135.0583  160.0450 H   0  0  0  0  0  0  0  0  0  0  0  0  # atno 6907 bound_to 6896
  152.2794  133.5452  159.5497 H   0  0  0  0  0  0  0  0  0  0  0  0  # atno 6908 bound_to 6896
  150.7183  134.0501  159.3837 H   0  0  0  0  0  0  0  0  0  0  0  0  # atno 6909 bound_to 6896
  145.2573  139.2716  143.4035 H   0  0  0  0  0  0  0  0  0  0  0  0  # atno 7974 bound_to 7965
  156.1932  140.3069  155.9374 H   0  0  0  0  0  0  0  0  0  0  0  0  # atno 8008 bound_to 7997
  155.3126  140.0452  157.3052 H   0  0  0  0  0  0  0  0  0  0  0  0  # atno 8009 bound_to 7997
  154.5477  140.2281  155.8545 H   0  0  0  0  0  0  0  0  0  0  0  0  # atno 8010 bound_to 7997
  140.4271  143.2562  151.8810 H   0  0  0  0  0  0  0  0  0  0  0  0  # atno 10167 bound_to 10162
  157.4622  131.1074  150.9905 H   0  0  0  0  0  0  0  0  0  0  0  0  # atno 10718 bound_to 10713
  153.9530  135.6748  153.4744 H   0  0  0  0  0  0  0  0  0  0  0  0  # atno 10763 bound_to 10752
  153.0875  135.4891  154.8622 H   0  0  0  0  0  0  0  0  0  0  0  0  # atno 10764 bound_to 10752
  154.7315  135.3139  154.8843 H   0  0  0  0  0  0  0  0  0  0  0  0  # atno 10765 bound_to 10752
  140.3931  134.1798  155.7663 H   0  0  0  0  0  0  0  0  0  0  0  0  # atno 11005 bound_to 11000
  146.3285  140.2980  142.8619 LP  0  0  0  0  0  0  0  0  0  0  0  0  # atno 17320 bound_to 7965
  144.9449  140.8118  143.5607 LP  0  0  0  0  0  0  0  0  0  0  0  0  # atno 17321 bound_to 7965
  139.4784  144.5375  151.8578 LP  0  0  0  0  0  0  0  0  0  0  0  0  # atno 17342 bound_to 10162
  140.4468  144.1910  150.5894 LP  0  0  0  0  0  0  0  0  0  0  0  0  # atno 17343 bound_to 10162
  157.0699  130.5859  149.5400 LP  0  0  0  0  0  0  0  0  0  0  0  0  # atno 17370 bound_to 10713
  156.0034  130.5117  150.7744 LP  0  0  0  0  0  0  0  0  0  0  0  0  # atno 17371 bound_to 10713
  141.1883  133.8262  157.0998 LP  0  0  0  0  0  0  0  0  0  0  0  0  # atno 17394 bound_to 11000
  140.0391  134.9863  157.0928 LP  0  0  0  0  0  0  0  0  0  0  0  0  # atno 17395 bound_to 11000

$$$$
