AV-unprocessed.smi:619|AV-procd|sdf|3086|dock2
  -GOLD-   22720 0 13D 1   1.00000     0.00000
 Structure written by MMmdl.
 37 38  0  0  0  0  0  0  0  0  1 V2000
  151.5544  138.2972  154.6776 C   0  0  0  0  0  0  0  0  0  0  0  0
  150.2395  138.2504  154.1344 O   0  0  0  0  0  0  0  0  0  0  0  0
  149.4855  139.4087  154.1300 C   0  0  0  0  0  0  0  0  0  0  0  0
  150.0063  140.5199  154.7089 N   0  0  0  0  0  0  0  0  0  0  0  0
  149.2695  141.6498  154.7105 C   0  0  0  0  0  0  0  0  0  0  0  0
  147.9831  141.7311  154.1469 C   0  0  0  0  0  0  0  0  0  0  0  0
  147.4408  140.5802  153.5456 C   0  0  0  0  0  0  0  0  0  0  0  0
  148.2085  139.3905  153.5220 C   0  0  0  0  0  0  0  0  0  0  0  0
  147.7482  138.1676  152.9599 N   0  0  0  0  0  0  0  0  0  0  0  0
  146.4939  137.8175  152.6291 C   0  0  0  0  0  0  0  0  0  0  0  0
  145.5032  138.5400  152.7360 O   0  0  0  0  0  0  0  0  0  0  0  0
  146.4566  136.5690  152.1411 N   0  0  0  0  0  0  0  0  0  0  0  0
  145.2645  135.8644  151.6768 C   0  0  0  0  0  0  0  0  0  0  0  0
  144.3016  135.6429  152.8588 C   0  0  0  0  0  0  0  0  0  0  0  0
  143.0697  134.8275  152.4341 C   0  0  0  0  0  0  0  0  0  0  0  0
  143.4801  133.4882  151.8027 C   0  0  0  0  0  0  0  0  0  0  0  0
  144.4347  133.7038  150.6178 C   0  0  0  0  0  0  0  0  0  0  0  0
  145.6675  134.5229  151.0342 C   0  0  0  0  0  0  0  0  0  0  0  0
  152.0108  137.3105  154.6012 H   0  0  0  0  0  0  0  0  0  0  0  0
  151.5407  138.5745  155.7327 H   0  0  0  0  0  0  0  0  0  0  0  0
  152.1881  138.9971  154.1310 H   0  0  0  0  0  0  0  0  0  0  0  0
  149.7162  142.5129  155.1815 H   0  0  0  0  0  0  0  0  0  0  0  0
  147.4227  142.6537  154.1799 H   0  0  0  0  0  0  0  0  0  0  0  0
  146.4459  140.6286  153.1310 H   0  0  0  0  0  0  0  0  0  0  0  0
  148.4713  137.5026  152.7270 H   0  0  0  0  0  0  0  0  0  0  0  0
  147.3269  136.0608  152.0854 H   0  0  0  0  0  0  0  0  0  0  0  0
  144.7412  136.4578  150.9248 H   0  0  0  0  0  0  0  0  0  0  0  0
  144.8184  135.1207  153.6655 H   0  0  0  0  0  0  0  0  0  0  0  0
  143.9834  136.6030  153.2666 H   0  0  0  0  0  0  0  0  0  0  0  0
  142.4256  134.6512  153.2958 H   0  0  0  0  0  0  0  0  0  0  0  0
  142.4797  135.4029  151.7196 H   0  0  0  0  0  0  0  0  0  0  0  0
  143.9647  132.8630  152.5539 H   0  0  0  0  0  0  0  0  0  0  0  0
  142.5941  132.9446  151.4733 H   0  0  0  0  0  0  0  0  0  0  0  0
  144.7483  132.7412  150.2132 H   0  0  0  0  0  0  0  0  0  0  0  0
  143.9083  134.2204  149.8143 H   0  0  0  0  0  0  0  0  0  0  0  0
  146.3006  134.7010  150.1641 H   0  0  0  0  0  0  0  0  0  0  0  0
  146.2652  133.9407  151.7371 H   0  0  0  0  0  0  0  0  0  0  0  0
  1  2  1  0  0  0  0
  1 19  1  0  0  0  0
  1 20  1  0  0  0  0
  1 21  1  0  0  0  0
  2  3  1  0  0  0  0
  3  8  1  0  0  0  0
  3  4  2  0  0  0  0
  4  5  1  0  0  0  0
  5  6  2  0  0  0  0
  5 22  1  0  0  0  0
  6  7  1  0  0  0  0
  6 23  1  0  0  0  0
  7  8  2  0  0  0  0
  7 24  1  0  0  0  0
  8  9  1  0  0  0  0
  9 10  1  0  0  0  0
  9 25  1  0  0  0  0
 10 11  2  0  0  0  0
 10 12  1  0  0  0  0
 12 13  1  0  0  0  0
 12 26  1  0  0  0  0
 13 18  1  0  0  0  0
 13 14  1  0  0  0  0
 13 27  1  0  0  0  0
 14 15  1  0  0  0  0
 14 28  1  0  0  0  0
 14 29  1  0  0  0  0
 15 16  1  0  0  0  0
 15 30  1  0  0  0  0
 15 31  1  0  0  0  0
 16 17  1  0  0  0  0
 16 32  1  0  0  0  0
 16 33  1  0  0  0  0
 17 18  1  0  0  0  0
 17 34  1  0  0  0  0
 17 35  1  0  0  0  0
 18 36  1  0  0  0  0
 18 37  1  0  0  0  0
M  END
> <s_m_source_file>
AV-unprocessed.smi

> <i_m_source_file_index>
619

> <i_lp_mmshare_version>
43012

> <i_f3d_flags>
0

> <s_epik_input>
W0NIM11PYzFuW2NIXVtjSF1bY0hdYzFbTkhdQyg9TylbTkhdW0NIXTJbQ0gyXVtDSDJdW0NIMl1bQ0gyXVtDSDJdMg==

> <s_epik_cmdline>
J2VwaWtfcHl0aG9uJywgJy1waCcsICc3LjAnLCAnLXRuJywgJzgnLCAnLW1hJywgJzIwMCcsICctbWV0YWxfYmluZGluZycsICctaW1hZScsICc8aW5maWxlLm1hZT4nLCAnLW9tYWUnLCAnPG91dGZpbGUubWFlPic=

> <r_lp_tautomer_probability>
1

> <r_epik_Ionization_Penalty>
9.99348e-05

> <r_epik_Ionization_Penalty_Charging>
0

> <r_epik_Ionization_Penalty_Neutral>
9.99348e-05

> <r_epik_State_Penalty>
-0

> <r_epik_Charging_Adjusted_Penalty>
0

> <i_epik_Tot_Q>
0

> <i_epik_Tot_abs_Q>
0

> <r_epik_Metal_State_Penalty>
-0

> <b_epik_Metal_Only>
0

> <s_lp_Force_Field>
OPLS_2005

> <r_lp_Energy>
11.7457

> <b_lp_Chiralities_Consistent>
1

> <s_lp_Variant>
AV-unprocessed.smi:619-1

> <Gold.Version>
5.8.1

> <Gold.Id.Protein>
6NUR|6NUR_protein|mol2

> <Gold.PLP.Fitness>
41.5577

> <Gold.PLP.PLP>
-30.2974

> <Gold.PLP.part.hbond>
-3.4867

> <Gold.PLP.part.metal>
0.0000

> <Gold.PLP.part.buried>
-0.0960

> <Gold.PLP.part.nonpolar>
-30.6077

> <Gold.PLP.part.repulsive>
3.6457

> <Gold.PLP.ligand.clash>
0.0000

> <Gold.PLP.ligand.torsion>
0.1073

> <Gold.PLP.Chemscore.Hbond>
2.8240

> <Gold.PLP.Chemscore.CHOScore>
1.0000

> <Gold.PLP.Chemscore.Metal>
0.0000

> <Gold.Chemscore.Hbonds>
donor molecule, donor type, donor heavy atom, donor atom, acceptor molecule, acceptor atom, score
      L1  H     9    25       P1  7948  0.99
      L1  H    12    26       P1  7948  0.88
      P1  H  7989  7998       L1     4  0.86
      L1  C     5    22       P1  8028  1.00

> <Gold.PLP.Chemscore.Internal.Correction>
0.0030

> <Gold.Rescore>
     Score         DG    S(hbond)    S(metal)    S(lipo)     H(rot)  DE(clash)    DE(int)     intcor
     13.68     -16.62       1.94        0.00      66.58       1.23       1.62       1.32       ----

> <Gold.Chemscore.Fitness>
13.6794

> <Gold.Chemscore.DG>
-16.6161

> <Gold.Chemscore.ZeroCoef>
-5.4800

> <Gold.Chemscore.Hbond>
1.9407

> <Gold.Chemscore.Metal>
0.0000

> <Gold.Chemscore.Lipo>
66.5831

> <Gold.Chemscore.Internal_Hbond>
0.0000

> <Gold.Chemscore.DEClash>
1.6205

> <Gold.Chemscore.DEInternal>
1.3162

> <Gold.Chemscore.Rot>
1.2250

> <Gold.Chemscore.Internal.Correction>
   9.000000E+99

> <Gold.Chemscore.Hbonds>
donor molecule, donor type, donor heavy atom, donor atom, acceptor molecule, acceptor atom, score
      L1  H     9    25       P1  7948  0.93
      L1  H    12    26       P1  7948  0.86
      P1  H  7989  7998       L1     4  0.13

> <Gold.Chemscore.Hbond.Weighted>
-6.4819

> <Gold.Chemscore.Metal.Weighted>
-0.0000

> <Gold.Chemscore.Lipo.Weighted>
-7.7902

> <Gold.Chemscore.Internal_Hbond.Weighted>
0.0000

> <Gold.Chemscore.DEClash.Weighted>
1.6205

> <Gold.Chemscore.DEInternal.Weighted>
1.3162

> <Gold.Chemscore.Rot.Weighted>
3.1360

> <Gold.Chemscore.Internal.Correction.Weighted>
   9.000000E+99

> <Gold.Protein.RotatedTorsions>
[ 6907 6896 6895 6894 ] final  122.74 input  -60.11 | X-H torsion
[ 7974 7965 7964 7962 ] final    3.11 input  175.53 | X-H torsion
[ 8008 7997 7996 7995 ] final   90.03 input   59.86 | X-H torsion
[ 10167 10162 10161 10158 ] final  -47.32 input  -65.29 | X-H torsion
[ 10718 10713 10712 10709 ] final  -91.55 input   66.30 | X-H torsion
[ 10763 10752 10751 10750 ] final    2.88 input  -60.55 | X-H torsion
[ 11005 11000 10999 10996 ] final   71.97 input  -57.11 | X-H torsion

> <Gold.Protein.ActiveResidues>
 VAL166  LYS551  ARG553  GLY616  TRP617  ASP618  TYR619  PRO620  LYS621  CYS622 
 ASP623  PHE694  ASN695  SER759  ASP760  ASP761  ALA762  ILE779  LEU786  VAL792 
 PHE793  MET794  SER795  GLU796  ALA797  LYS798  CYS799  TRP800  GLU811  SER814 

> <Gold.Protein.RotatedAtoms>
  152.4219  133.7130  159.6489 H   0  0  0  0  0  0  0  0  0  0  0  0  # atno 6907 bound_to 6896
  150.8095  133.8437  159.3195 H   0  0  0  0  0  0  0  0  0  0  0  0  # atno 6908 bound_to 6896
  151.6152  135.1039  160.0141 H   0  0  0  0  0  0  0  0  0  0  0  0  # atno 6909 bound_to 6896
  146.2445  140.0735  142.8361 H   0  0  0  0  0  0  0  0  0  0  0  0  # atno 7974 bound_to 7965
  156.0071  140.3354  155.6903 H   0  0  0  0  0  0  0  0  0  0  0  0  # atno 8008 bound_to 7997
  155.6210  140.0675  157.2696 H   0  0  0  0  0  0  0  0  0  0  0  0  # atno 8009 bound_to 7997
  154.4268  140.1776  156.1359 H   0  0  0  0  0  0  0  0  0  0  0  0  # atno 8010 bound_to 7997
  140.6780  143.2790  151.3910 H   0  0  0  0  0  0  0  0  0  0  0  0  # atno 10167 bound_to 10162
  155.9994  130.4952  150.5492 H   0  0  0  0  0  0  0  0  0  0  0  0  # atno 10718 bound_to 10713
  153.2901  135.6948  153.7301 H   0  0  0  0  0  0  0  0  0  0  0  0  # atno 10763 bound_to 10752
  153.6256  135.3419  155.3026 H   0  0  0  0  0  0  0  0  0  0  0  0  # atno 10764 bound_to 10752
  154.8521  135.4396  154.1981 H   0  0  0  0  0  0  0  0  0  0  0  0  # atno 10765 bound_to 10752
  139.9515  134.7218  156.0851 H   0  0  0  0  0  0  0  0  0  0  0  0  # atno 11005 bound_to 11000
  145.0795  140.9211  143.4834 LP  0  0  0  0  0  0  0  0  0  0  0  0  # atno 17320 bound_to 7965
  145.0885  139.2907  143.5747 LP  0  0  0  0  0  0  0  0  0  0  0  0  # atno 17321 bound_to 7965
  139.6084  144.1149  152.2273 LP  0  0  0  0  0  0  0  0  0  0  0  0  # atno 17342 bound_to 10162
  140.0555  144.5898  150.7303 LP  0  0  0  0  0  0  0  0  0  0  0  0  # atno 17343 bound_to 10162
  157.3417  131.0718  151.1783 LP  0  0  0  0  0  0  0  0  0  0  0  0  # atno 17370 bound_to 10713
  157.2629  130.6667  149.5983 LP  0  0  0  0  0  0  0  0  0  0  0  0  # atno 17371 bound_to 10713
  141.1179  133.6622  156.3139 LP  0  0  0  0  0  0  0  0  0  0  0  0  # atno 17394 bound_to 11000
  140.5708  134.5842  157.5457 LP  0  0  0  0  0  0  0  0  0  0  0  0  # atno 17395 bound_to 11000

$$$$
