AV-unprocessed.smi:2514|AV-procd|sdf|9896|dock5
  -GOLD-   2272013533D 1   1.00000     0.00000
 Structure written by MMmdl.
 24 25  0  0  0  0  0  0  0  0  1 V2000
  146.9562  142.1023  153.9725 C   0  0  0  0  0  0  0  0  0  0  0  0
  147.1840  140.6075  153.7147 C   0  0  1  0  0  0  0  0  0  0  0  0
  147.0171  140.3314  152.3386 O   0  0  0  0  0  0  0  0  0  0  0  0
  148.5687  140.1598  154.0906 C   0  0  0  0  0  0  0  0  0  0  0  0
  149.1038  138.9041  154.0315 C   0  0  0  0  0  0  0  0  0  0  0  0
  150.3891  139.0797  154.4985 N   0  0  0  0  0  0  0  0  0  0  0  0
  151.4013  138.0750  154.6545 C   0  0  0  0  0  0  0  0  0  0  0  0
  151.2464  136.9055  155.6324 C   0  0  0  0  0  0  0  0  0  0  0  0
  152.6770  137.0153  155.8618 N   0  0  0  0  0  0  0  0  0  0  0  0
  152.6895  138.3972  155.4122 C   0  0  0  0  0  0  0  0  0  0  0  0
  150.6265  140.3704  154.8327 N   0  0  0  0  0  0  0  0  0  0  0  0
  149.5392  141.0324  154.5899 N   0  0  0  0  0  0  0  0  0  0  0  0
  147.0874  142.3400  155.0286 H   0  0  0  0  0  0  0  0  0  0  0  0
  145.9464  142.4001  153.6899 H   0  0  0  0  0  0  0  0  0  0  0  0
  147.6557  142.7159  153.4036 H   0  0  0  0  0  0  0  0  0  0  0  0
  146.4406  140.0306  154.2660 H   0  0  0  0  0  0  0  0  0  0  0  0
  147.8613  140.1169  151.9723 H   0  0  0  0  0  0  0  0  0  0  0  0
  148.7043  137.9516  153.7156 H   0  0  0  0  0  0  0  0  0  0  0  0
  151.6223  137.7091  153.6491 H   0  0  0  0  0  0  0  0  0  0  0  0
  150.6743  137.1307  156.5337 H   0  0  0  0  0  0  0  0  0  0  0  0
  150.9422  135.9678  155.1666 H   0  0  0  0  0  0  0  0  0  0  0  0
  152.9179  136.9267  156.8390 H   0  0  0  0  0  0  0  0  0  0  0  0
  153.5353  138.6489  154.7719 H   0  0  0  0  0  0  0  0  0  0  0  0
  152.5637  139.0992  156.2380 H   0  0  0  0  0  0  0  0  0  0  0  0
  1  2  1  0  0  0  0
  1 13  1  0  0  0  0
  1 14  1  0  0  0  0
  1 15  1  0  0  0  0
  2  3  1  0  0  0  0
  2  4  1  0  0  0  0
  2 16  1  0  0  0  0
  3 17  1  0  0  0  0
  4 12  1  0  0  0  0
  4  5  2  0  0  0  0
  5  6  1  0  0  0  0
  5 18  1  0  0  0  0
  6  7  1  0  0  0  0
  6 11  1  0  0  0  0
  7 10  1  0  0  0  0
  7  8  1  0  0  0  0
  7 19  1  0  0  0  0
  8  9  1  0  0  0  0
  8 20  1  0  0  0  0
  8 21  1  0  0  0  0
  9 10  1  0  0  0  0
  9 22  1  0  0  0  0
 10 23  1  0  0  0  0
 10 24  1  0  0  0  0
 11 12  2  0  0  0  0
M  END
> <s_m_source_file>
AV-unprocessed.smi

> <i_m_source_file_index>
2514

> <i_lp_mmshare_version>
43012

> <i_f3d_flags>
0

> <s_epik_input>
W0NIM11bQ0BIXShbT0hdKWMxW2NIXW4obm4xKVtDSF0yW0NIMl1bTkhdW0NIMl0y

> <s_epik_cmdline>
J2VwaWtfcHl0aG9uJywgJy1waCcsICc3LjAnLCAnLXRuJywgJzgnLCAnLW1hJywgJzIwMCcsICctbWV0YWxfYmluZGluZycsICctaW1hZScsICc8aW5maWxlLm1hZT4nLCAnLW9tYWUnLCAnPG91dGZpbGUubWFlPic=

> <r_lp_tautomer_probability>
1

> <r_epik_Ionization_Penalty>
0.704859

> <r_epik_Ionization_Penalty_Charging>
0

> <r_epik_Ionization_Penalty_Neutral>
0.704859

> <r_epik_State_Penalty>
0.727806

> <r_epik_Charging_Adjusted_Penalty>
0.727806

> <i_epik_Tot_Q>
0

> <i_epik_Tot_abs_Q>
0

> <r_epik_Metal_State_Penalty>
0.727738

> <b_epik_Metal_Only>
0

> <s_lp_Force_Field>
OPLS_2005

> <r_lp_Energy>
11.7069

> <b_lp_Chiralities_Consistent>
1

> <s_lp_Variant>
AV-unprocessed.smi:2514-4

> <Gold.Version>
5.8.1

> <Gold.Id.Protein>
6NUR|6NUR_protein|mol2

> <Gold.PLP.Fitness>
36.1561

> <Gold.PLP.PLP>
-25.0823

> <Gold.PLP.part.hbond>
-3.9100

> <Gold.PLP.part.metal>
0.0000

> <Gold.PLP.part.buried>
-3.3522

> <Gold.PLP.part.nonpolar>
-18.7522

> <Gold.PLP.part.repulsive>
0.2107

> <Gold.PLP.ligand.clash>
0.0000

> <Gold.PLP.ligand.torsion>
0.1204

> <Gold.PLP.Chemscore.Hbond>
2.7040

> <Gold.PLP.Chemscore.CHOScore>
0.9988

> <Gold.PLP.Chemscore.Metal>
0.0000

> <Gold.Chemscore.Hbonds>
donor molecule, donor type, donor heavy atom, donor atom, acceptor molecule, acceptor atom, score
      L1  H     3    17       P1  7957  1.00
      P1  H  7989  7998       L1    11  1.00
      P1  H 10752 10763       L1     9  0.70
      L1  C     5    18       P1  7948  1.00

> <Gold.PLP.Chemscore.Internal.Correction>
0.2060

> <Gold.Rescore>
     Score         DG    S(hbond)    S(metal)    S(lipo)     H(rot)  DE(clash)    DE(int)     intcor
     11.51     -11.70       1.61        0.00      46.10       1.78       0.09       0.10       ----

> <Gold.Chemscore.Fitness>
11.5058

> <Gold.Chemscore.DG>
-11.6975

> <Gold.Chemscore.ZeroCoef>
-5.4800

> <Gold.Chemscore.Hbond>
1.6126

> <Gold.Chemscore.Metal>
0.0000

> <Gold.Chemscore.Lipo>
46.1041

> <Gold.Chemscore.Internal_Hbond>
0.0000

> <Gold.Chemscore.DEClash>
0.0878

> <Gold.Chemscore.DEInternal>
0.1039

> <Gold.Chemscore.Rot>
1.7823

> <Gold.Chemscore.Internal.Correction>
   9.000000E+99

> <Gold.Chemscore.Hbonds>
donor molecule, donor type, donor heavy atom, donor atom, acceptor molecule, acceptor atom, score
      L1  H     3    17       P1  7957  1.00
      P1  H  7989  7998       L1    11  0.09
      P1  H 10752 10763       L1     9  0.10

> <Gold.Chemscore.Hbond.Weighted>
-5.3861

> <Gold.Chemscore.Metal.Weighted>
-0.0000

> <Gold.Chemscore.Lipo.Weighted>
-5.3942

> <Gold.Chemscore.Internal_Hbond.Weighted>
0.0000

> <Gold.Chemscore.DEClash.Weighted>
0.0878

> <Gold.Chemscore.DEInternal.Weighted>
0.1039

> <Gold.Chemscore.Rot.Weighted>
4.5627

> <Gold.Chemscore.Internal.Correction.Weighted>
   9.000000E+99

> <Gold.Protein.RotatedTorsions>
[ 6907 6896 6895 6894 ] final -158.73 input  -60.11 | X-H torsion
[ 7974 7965 7964 7962 ] final  112.55 input  175.53 | X-H torsion
[ 8008 7997 7996 7995 ] final   70.11 input   59.86 | X-H torsion
[ 10167 10162 10161 10158 ] final  -56.59 input  -65.29 | X-H torsion
[ 10718 10713 10712 10709 ] final  -13.16 input   66.30 | X-H torsion
[ 10763 10752 10751 10750 ] final   99.88 input  -60.55 | X-H torsion
[ 11005 11000 10999 10996 ] final  151.52 input  -57.11 | X-H torsion

> <Gold.Protein.ActiveResidues>
 VAL166  LYS551  ARG553  GLY616  TRP617  ASP618  TYR619  PRO620  LYS621  CYS622 
 ASP623  PHE694  ASN695  SER759  ASP760  ASP761  ALA762  ILE779  LEU786  VAL792 
 PHE793  MET794  SER795  GLU796  ALA797  LYS798  CYS799  TRP800  GLU811  SER814 

> <Gold.Protein.RotatedAtoms>
  151.3226  133.4033  159.2655 H   0  0  0  0  0  0  0  0  0  0  0  0  # atno 6907 bound_to 6896
  151.0022  134.9331  159.7970 H   0  0  0  0  0  0  0  0  0  0  0  0  # atno 6908 bound_to 6896
  152.5278  134.3191  159.9194 H   0  0  0  0  0  0  0  0  0  0  0  0  # atno 6909 bound_to 6896
  145.2281  139.2831  143.4182 H   0  0  0  0  0  0  0  0  0  0  0  0  # atno 7974 bound_to 7965
  155.7339  140.3491  155.5072 H   0  0  0  0  0  0  0  0  0  0  0  0  # atno 8008 bound_to 7997
  155.9157  140.1058  157.1267 H   0  0  0  0  0  0  0  0  0  0  0  0  # atno 8009 bound_to 7997
  154.4062  140.1259  156.4601 H   0  0  0  0  0  0  0  0  0  0  0  0  # atno 8010 bound_to 7997
  140.6308  143.2458  151.5246 H   0  0  0  0  0  0  0  0  0  0  0  0  # atno 10167 bound_to 10162
  156.6342  130.4910  149.6118 H   0  0  0  0  0  0  0  0  0  0  0  0  # atno 10718 bound_to 10713
  153.3070  135.4098  155.1302 H   0  0  0  0  0  0  0  0  0  0  0  0  # atno 10763 bound_to 10752
  154.8565  135.3555  154.5775 H   0  0  0  0  0  0  0  0  0  0  0  0  # atno 10764 bound_to 10752
  153.6202  135.7064  153.5372 H   0  0  0  0  0  0  0  0  0  0  0  0  # atno 10765 bound_to 10752
  140.1226  134.8854  157.2093 H   0  0  0  0  0  0  0  0  0  0  0  0  # atno 11005 bound_to 11000
  146.3359  140.2608  142.8602 LP  0  0  0  0  0  0  0  0  0  0  0  0  # atno 17320 bound_to 7965
  144.9702  140.8361  143.5460 LP  0  0  0  0  0  0  0  0  0  0  0  0  # atno 17321 bound_to 7965
  139.5522  144.2365  152.1551 LP  0  0  0  0  0  0  0  0  0  0  0  0  # atno 17342 bound_to 10162
  140.1608  144.5027  150.6633 LP  0  0  0  0  0  0  0  0  0  0  0  0  # atno 17343 bound_to 10162
  156.2210  130.6737  151.1368 LP  0  0  0  0  0  0  0  0  0  0  0  0  # atno 17370 bound_to 10713
  157.7191  131.0692  150.6210 LP  0  0  0  0  0  0  0  0  0  0  0  0  # atno 17371 bound_to 10713
  140.2946  134.3202  155.7306 LP  0  0  0  0  0  0  0  0  0  0  0  0  # atno 17394 bound_to 11000
  141.2155  133.7555  156.9552 LP  0  0  0  0  0  0  0  0  0  0  0  0  # atno 17395 bound_to 11000

$$$$
