AV-unprocessed.smi:2775|AV-procd|sdf|10689|dock3
  -GOLD-   2272015133D 1   1.00000     0.00000
 Structure written by MMmdl.
 42 45  0  0  0  0  0  0  0  0  1 V2000
  143.7042  132.6603  150.5974 C   0  0  0  0  0  0  0  0  0  0  0  0
  143.7823  133.8149  151.5787 C   0  0  0  0  0  0  0  0  0  0  0  0
  142.6181  134.1594  152.1709 N   0  0  0  0  0  0  0  0  0  0  0  0
  142.6334  135.1775  153.0552 C   0  0  0  0  0  0  0  0  0  0  0  0
  143.7955  135.9006  153.3858 C   0  0  0  0  0  0  0  0  0  0  0  0
  145.0146  135.5516  152.7563 C   0  0  0  0  0  0  0  0  0  0  0  0
  146.2552  136.1966  153.0165 N   0  0  0  0  0  0  0  0  0  0  0  0
  146.6403  136.9325  154.0770 C   0  0  0  0  0  0  0  0  0  0  0  0
  145.9325  137.2039  155.0441 O   0  0  0  0  0  0  0  0  0  0  0  0
  147.9038  137.3835  153.9901 N   0  0  0  0  0  0  0  0  0  0  0  0
  148.6196  138.2041  154.9674 C   0  0  1  0  0  0  0  0  0  0  0  0
  150.1190  138.2903  154.6770 C   0  0  2  0  0  0  0  0  0  0  0  0
  151.3329  137.7447  155.3382 C   0  0  0  0  0  0  0  0  0  0  0  0
  152.1988  139.0287  155.2767 C   0  0  0  0  0  0  0  0  0  0  0  0
  151.3097  140.0837  154.8361 O   0  0  0  0  0  0  0  0  0  0  0  0
  150.0331  139.6788  155.2919 C   0  0  1  0  0  0  0  0  0  0  0  0
  148.6503  139.7334  154.6289 C   0  0  0  0  0  0  0  0  0  0  0  0
  147.5611  140.6911  155.1274 C   0  0  0  0  0  0  0  0  0  0  0  0
  147.0802  140.8341  153.6789 C   0  0  0  0  0  0  0  0  0  0  0  0
  148.4411  140.3052  153.2141 C   0  0  0  0  0  0  0  0  0  0  0  0
  145.0064  134.4738  151.8398 C   0  0  0  0  0  0  0  0  0  0  0  0
  146.4650  133.9728  151.0501 Cl  0  0  0  0  0  0  0  0  0  0  0  0
  144.0182  132.9853  149.6052 H   0  0  0  0  0  0  0  0  0  0  0  0
  142.6892  132.2690  150.5178 H   0  0  0  0  0  0  0  0  0  0  0  0
  144.3549  131.8458  150.9164 H   0  0  0  0  0  0  0  0  0  0  0  0
  141.6891  135.4215  153.5189 H   0  0  0  0  0  0  0  0  0  0  0  0
  143.7253  136.6914  154.1158 H   0  0  0  0  0  0  0  0  0  0  0  0
  146.9342  136.1221  152.2730 H   0  0  0  0  0  0  0  0  0  0  0  0
  148.4178  137.1384  153.1560 H   0  0  0  0  0  0  0  0  0  0  0  0
  148.3983  137.9752  156.0136 H   0  0  0  0  0  0  0  0  0  0  0  0
  150.2820  138.3313  153.5935 H   0  0  0  0  0  0  0  0  0  0  0  0
  151.1341  137.4335  156.3646 H   0  0  0  0  0  0  0  0  0  0  0  0
  151.7760  136.9126  154.7906 H   0  0  0  0  0  0  0  0  0  0  0  0
  152.6118  139.2651  156.2582 H   0  0  0  0  0  0  0  0  0  0  0  0
  153.0274  138.9301  154.5748 H   0  0  0  0  0  0  0  0  0  0  0  0
  149.9744  139.6773  156.3856 H   0  0  0  0  0  0  0  0  0  0  0  0
  146.8334  140.2467  155.8063 H   0  0  0  0  0  0  0  0  0  0  0  0
  147.9704  141.6197  155.5277 H   0  0  0  0  0  0  0  0  0  0  0  0
  146.2598  140.1570  153.4371 H   0  0  0  0  0  0  0  0  0  0  0  0
  146.8620  141.8571  153.3711 H   0  0  0  0  0  0  0  0  0  0  0  0
  149.1435  141.1061  152.9791 H   0  0  0  0  0  0  0  0  0  0  0  0
  148.3901  139.5695  152.4112 H   0  0  0  0  0  0  0  0  0  0  0  0
  1  2  1  0  0  0  0
  1 23  1  0  0  0  0
  1 24  1  0  0  0  0
  1 25  1  0  0  0  0
  2 21  1  0  0  0  0
  2  3  2  0  0  0  0
  3  4  1  0  0  0  0
  4  5  2  0  0  0  0
  4 26  1  0  0  0  0
  5  6  1  0  0  0  0
  5 27  1  0  0  0  0
  6  7  1  0  0  0  0
  6 21  2  0  0  0  0
  7  8  1  0  0  0  0
  7 28  1  0  0  0  0
  8  9  2  0  0  0  0
  8 10  1  0  0  0  0
 10 11  1  0  0  0  0
 10 29  1  0  0  0  0
 11 17  1  0  0  0  0
 11 12  1  0  0  0  0
 11 30  1  0  0  0  0
 12 16  1  0  0  0  0
 12 13  1  0  0  0  0
 12 31  1  0  0  0  0
 13 14  1  0  0  0  0
 13 32  1  0  0  0  0
 13 33  1  0  0  0  0
 14 15  1  0  0  0  0
 14 34  1  0  0  0  0
 14 35  1  0  0  0  0
 15 16  1  0  0  0  0
 16 17  1  0  0  0  0
 16 36  1  0  0  0  0
 17 20  1  0  0  0  0
 17 18  1  0  0  0  0
 18 19  1  0  0  0  0
 18 37  1  0  0  0  0
 18 38  1  0  0  0  0
 19 20  1  0  0  0  0
 19 39  1  0  0  0  0
 19 40  1  0  0  0  0
 20 41  1  0  0  0  0
 20 42  1  0  0  0  0
 21 22  1  0  0  0  0
M  END
> <s_m_source_file>
AV-unprocessed.smi

> <i_m_source_file_index>
2775

> <i_lp_mmshare_version>
43012

> <i_f3d_flags>
0

> <s_epik_input>
W0NIM11jMW5bY0hdW2NIXWMoYzFDbClbTkhdQyg9TylbTkhdW0NAQEhdMltDQEhdKFtDSDJdW0NIMl1PMylbQ0BASF0zQzI0W0NIMl1bQ0gyXVtDSDJdNA==

> <s_epik_cmdline>
J2VwaWtfcHl0aG9uJywgJy1waCcsICc3LjAnLCAnLXRuJywgJzgnLCAnLW1hJywgJzIwMCcsICctbWV0YWxfYmluZGluZycsICctaW1hZScsICc8aW5maWxlLm1hZT4nLCAnLW9tYWUnLCAnPG91dGZpbGUubWFlPic=

> <r_epik_Ionization_Penalty>
0.01026

> <r_epik_Ionization_Penalty_Charging>
0

> <r_epik_Ionization_Penalty_Neutral>
0.01026

> <r_epik_State_Penalty>
0.00780685

> <r_epik_Charging_Adjusted_Penalty>
0.00780685

> <i_epik_Tot_Q>
0

> <i_epik_Tot_abs_Q>
0

> <r_epik_Metal_State_Penalty>
0.00767411

> <b_epik_Metal_Only>
0

> <s_lp_Force_Field>
OPLS_2005

> <r_lp_Energy>
80.4779

> <b_lp_Chiralities_Consistent>
1

> <s_lp_Variant>
AV-unprocessed.smi:2775-2

> <Gold.Version>
5.8.1

> <Gold.Id.Protein>
6NUR|6NUR_protein|mol2

> <Gold.PLP.Fitness>
39.2679

> <Gold.PLP.PLP>
-31.0614

> <Gold.PLP.part.hbond>
-2.8337

> <Gold.PLP.part.metal>
0.0000

> <Gold.PLP.part.buried>
-2.0885

> <Gold.PLP.part.nonpolar>
-27.4040

> <Gold.PLP.part.repulsive>
0.3418

> <Gold.PLP.ligand.clash>
0.0000

> <Gold.PLP.ligand.torsion>
0.3132

> <Gold.PLP.Chemscore.Hbond>
2.8385

> <Gold.PLP.Chemscore.CHOScore>
0.0000

> <Gold.PLP.Chemscore.Metal>
0.0000

> <Gold.Chemscore.Hbonds>
donor molecule, donor type, donor heavy atom, donor atom, acceptor molecule, acceptor atom, score
      L1  H     7    28       P1  7948  0.86
      L1  H    10    29       P1  7948  1.00
      P1  H  7989  7998       L1    15  1.00

> <Gold.PLP.Chemscore.Internal.Correction>
0.3175

> <Gold.Rescore>
     Score         DG    S(hbond)    S(metal)    S(lipo)     H(rot)  DE(clash)    DE(int)     intcor
     19.91     -22.67       2.89        0.00      86.20       1.00       1.71       1.05       ----

> <Gold.Chemscore.Fitness>
19.9112

> <Gold.Chemscore.DG>
-22.6670

> <Gold.Chemscore.ZeroCoef>
-5.4800

> <Gold.Chemscore.Hbond>
2.8925

> <Gold.Chemscore.Metal>
0.0000

> <Gold.Chemscore.Lipo>
86.2043

> <Gold.Chemscore.Internal_Hbond>
0.0000

> <Gold.Chemscore.DEClash>
1.7097

> <Gold.Chemscore.DEInternal>
1.0460

> <Gold.Chemscore.Rot>
1.0000

> <Gold.Chemscore.Internal.Correction>
   9.000000E+99

> <Gold.Chemscore.Hbonds>
donor molecule, donor type, donor heavy atom, donor atom, acceptor molecule, acceptor atom, score
      L1  H     7    28       P1  7948  0.79
      L1  H    10    29       P1  7948  0.99
      P1  H  7989  7998       L1    15  0.94

> <Gold.Chemscore.Hbond.Weighted>
-9.6611

> <Gold.Chemscore.Metal.Weighted>
-0.0000

> <Gold.Chemscore.Lipo.Weighted>
-10.0859

> <Gold.Chemscore.Internal_Hbond.Weighted>
0.0000

> <Gold.Chemscore.DEClash.Weighted>
1.7097

> <Gold.Chemscore.DEInternal.Weighted>
1.0460

> <Gold.Chemscore.Rot.Weighted>
2.5600

> <Gold.Chemscore.Internal.Correction.Weighted>
   9.000000E+99

> <Gold.Protein.RotatedTorsions>
[ 6907 6896 6895 6894 ] final   82.94 input  -60.11 | X-H torsion
[ 7974 7965 7964 7962 ] final -138.27 input  175.53 | X-H torsion
[ 8008 7997 7996 7995 ] final  -66.07 input   59.86 | X-H torsion
[ 10167 10162 10161 10158 ] final   15.04 input  -65.29 | X-H torsion
[ 10718 10713 10712 10709 ] final   77.45 input   66.30 | X-H torsion
[ 10763 10752 10751 10750 ] final  120.34 input  -60.55 | X-H torsion
[ 11005 11000 10999 10996 ] final -176.75 input  -57.11 | X-H torsion

> <Gold.Protein.ActiveResidues>
 VAL166  LYS551  ARG553  GLY616  TRP617  ASP618  TYR619  PRO620  LYS621  CYS622 
 ASP623  PHE694  ASN695  SER759  ASP760  ASP761  ALA762  ILE779  LEU786  VAL792 
 PHE793  MET794  SER795  GLU796  ALA797  LYS798  CYS799  TRP800  GLU811  SER814 

> <Gold.Protein.RotatedAtoms>
  152.5313  134.2971  159.9064 H   0  0  0  0  0  0  0  0  0  0  0  0  # atno 6907 bound_to 6896
  151.2923  133.4153  159.2641 H   0  0  0  0  0  0  0  0  0  0  0  0  # atno 6908 bound_to 6896
  151.0190  134.9471  159.8106 H   0  0  0  0  0  0  0  0  0  0  0  0  # atno 6909 bound_to 6896
  144.8773  140.6455  143.5229 H   0  0  0  0  0  0  0  0  0  0  0  0  # atno 7974 bound_to 7965
  154.4711  140.0920  156.7146 H   0  0  0  0  0  0  0  0  0  0  0  0  # atno 8008 bound_to 7997
  155.4722  140.3465  155.4309 H   0  0  0  0  0  0  0  0  0  0  0  0  # atno 8009 bound_to 7997
  156.1040  140.1430  156.9417 H   0  0  0  0  0  0  0  0  0  0  0  0  # atno 8010 bound_to 7997
  140.5894  143.8825  150.6860 H   0  0  0  0  0  0  0  0  0  0  0  0  # atno 10167 bound_to 10162
  157.6710  130.9822  150.1643 H   0  0  0  0  0  0  0  0  0  0  0  0  # atno 10718 bound_to 10713
  153.5970  135.3455  155.2931 H   0  0  0  0  0  0  0  0  0  0  0  0  # atno 10763 bound_to 10752
  154.8643  135.4218  154.2454 H   0  0  0  0  0  0  0  0  0  0  0  0  # atno 10764 bound_to 10752
  153.3274  135.7042  153.7049 H   0  0  0  0  0  0  0  0  0  0  0  0  # atno 10765 bound_to 10752
  140.4486  134.6364  157.4791 H   0  0  0  0  0  0  0  0  0  0  0  0  # atno 11005 bound_to 11000
  145.4020  139.1596  143.4172 LP  0  0  0  0  0  0  0  0  0  0  0  0  # atno 17320 bound_to 7965
  146.2971  140.4117  142.8718 LP  0  0  0  0  0  0  0  0  0  0  0  0  # atno 17321 bound_to 7965
  140.2344  143.3711  152.1539 LP  0  0  0  0  0  0  0  0  0  0  0  0  # atno 17342 bound_to 10162
  139.5218  144.7051  151.5379 LP  0  0  0  0  0  0  0  0  0  0  0  0  # atno 17343 bound_to 10162
  156.2412  130.3691  149.8335 LP  0  0  0  0  0  0  0  0  0  0  0  0  # atno 17370 bound_to 10713
  156.6135  130.8596  151.3459 LP  0  0  0  0  0  0  0  0  0  0  0  0  # atno 17371 bound_to 10713
  140.0022  134.6819  155.9512 LP  0  0  0  0  0  0  0  0  0  0  0  0  # atno 17394 bound_to 11000
  141.1674  133.6537  156.4528 LP  0  0  0  0  0  0  0  0  0  0  0  0  # atno 17395 bound_to 11000

$$$$
