AV-unprocessed.smi:1897|AV-procd|sdf|7697|dock9
  -GOLD-   22720 9433D 1   1.00000     0.00000
 Structure written by MMmdl.
 38 40  0  0  0  0  0  0  0  0  3 V2000
  152.3800  138.6791  154.6450 C   0  0  0  0  0  0  0  0  0  0  0  0
  151.0134  138.1432  154.9025 C   0  0  0  0  0  0  0  0  0  0  0  0
  149.9672  138.9296  155.1651 N   0  0  0  0  0  0  0  0  0  0  0  0
  148.8056  138.2014  155.3763 N   0  0  0  0  0  0  0  0  0  0  0  0
  148.9851  136.8784  155.2569 C   0  0  0  0  0  0  0  0  0  0  0  0
  147.9819  135.9958  155.4192 N   0  5  0  0  0  0  0  0  0  0  0  0
  148.0733  134.7011  155.0181 C   0  0  0  0  0  0  0  0  0  0  0  0
  147.7217  133.7496  155.7141 O   0  0  0  0  0  0  0  0  0  0  0  0
  148.5763  134.4589  153.7933 N   0  0  0  0  0  0  0  0  0  0  0  0
  148.7553  133.1455  153.1877 C   0  0  1  0  0  0  0  0  0  0  0  0
  149.4813  132.1338  154.0950 C   0  0  0  0  0  0  0  0  0  0  0  0
  148.7573  130.7921  153.8697 C   0  0  0  0  0  0  0  0  0  0  0  0
  147.7816  131.0530  152.7944 N   0  3  1  0  0  0  0  0  0  0  0  0
  146.6064  130.1586  152.7153 C   0  0  0  0  0  0  0  0  0  0  0  0
  145.7563  130.5443  151.4878 C   0  0  0  0  0  0  0  0  0  0  0  0
  145.3904  132.0433  151.4920 C   0  0  0  0  0  0  0  0  0  0  0  0
  146.6435  132.9219  151.6727 C   0  0  0  0  0  0  0  0  0  0  0  0
  147.4118  132.4696  152.9249 C   0  0  2  0  0  0  0  0  0  0  0  0
  150.6472  136.4263  154.8792 S   0  0  0  0  0  0  0  0  0  0  0  0
  152.4614  139.0100  153.6097 H   0  0  0  0  0  0  0  0  0  0  0  0
  153.1289  137.9083  154.8275 H   0  0  0  0  0  0  0  0  0  0  0  0
  152.5845  139.5248  155.3021 H   0  0  0  0  0  0  0  0  0  0  0  0
  148.8524  135.2581  153.2416 H   0  0  0  0  0  0  0  0  0  0  0  0
  149.2966  133.2387  152.2438 H   0  0  0  0  0  0  0  0  0  0  0  0
  150.5396  132.0722  153.8396 H   0  0  0  0  0  0  0  0  0  0  0  0
  149.4145  132.4196  155.1458 H   0  0  0  0  0  0  0  0  0  0  0  0
  149.4412  129.9912  153.5883 H   0  0  0  0  0  0  0  0  0  0  0  0
  148.2380  130.4909  154.7808 H   0  0  0  0  0  0  0  0  0  0  0  0
  146.9388  129.1233  152.6335 H   0  0  0  0  0  0  0  0  0  0  0  0
  146.0161  130.2383  153.6297 H   0  0  0  0  0  0  0  0  0  0  0  0
  146.3129  130.3141  150.5782 H   0  0  0  0  0  0  0  0  0  0  0  0
  144.8503  129.9385  151.4548 H   0  0  0  0  0  0  0  0  0  0  0  0
  144.8766  132.3071  150.5670 H   0  0  0  0  0  0  0  0  0  0  0  0
  144.6884  132.2424  152.3028 H   0  0  0  0  0  0  0  0  0  0  0  0
  147.2811  132.8442  150.7910 H   0  0  0  0  0  0  0  0  0  0  0  0
  146.3586  133.9707  151.7622 H   0  0  0  0  0  0  0  0  0  0  0  0
  146.7734  132.5826  153.8048 H   0  0  0  0  0  0  0  0  0  0  0  0
  148.2856  130.9698  151.9232 H   0  0  0  0  0  0  0  0  0  0  0  0
  1  2  1  0  0  0  0
  1 20  1  0  0  0  0
  1 21  1  0  0  0  0
  1 22  1  0  0  0  0
  2 19  1  0  0  0  0
  2  3  2  0  0  0  0
  3  4  1  0  0  0  0
  4  5  2  0  0  0  0
  5  6  1  0  0  0  0
  5 19  1  0  0  0  0
  6  7  1  0  0  0  0
  7  8  2  0  0  0  0
  7  9  1  0  0  0  0
  9 10  1  0  0  0  0
  9 23  1  0  0  0  0
 10 18  1  0  0  0  0
 10 11  1  0  0  0  0
 10 24  1  0  0  0  0
 11 12  1  0  0  0  0
 11 25  1  0  0  0  0
 11 26  1  0  0  0  0
 12 13  1  0  0  0  0
 12 27  1  0  0  0  0
 12 28  1  0  0  0  0
 13 18  1  0  0  0  0
 13 14  1  0  0  0  0
 13 38  1  0  0  0  0
 14 15  1  0  0  0  0
 14 29  1  0  0  0  0
 14 30  1  0  0  0  0
 15 16  1  0  0  0  0
 15 31  1  0  0  0  0
 15 32  1  0  0  0  0
 16 17  1  0  0  0  0
 16 33  1  0  0  0  0
 16 34  1  0  0  0  0
 17 18  1  0  0  0  0
 17 35  1  0  0  0  0
 17 36  1  0  0  0  0
 18 37  1  0  0  0  0
M  CHG  1   6  -1
M  CHG  1  13   1
M  END
> <s_m_source_file>
AV-unprocessed.smi

> <i_m_source_file_index>
1897

> <i_lp_mmshare_version>
43012

> <i_f3d_flags>
0

> <s_epik_input>
W0NIM11jMW5uYyhzMSlbTkhdQyg9TylbTkhdW0NASF0oW0NIMl1bQ0gyXTIpW0NAQEhdKE4yMylbQ0gyXVtDSDJdW0NIMl1bQ0gyXTM=

> <s_epik_cmdline>
J2VwaWtfcHl0aG9uJywgJy1waCcsICc3LjAnLCAnLXRuJywgJzgnLCAnLW1hJywgJzIwMCcsICctbWV0YWxfYmluZGluZycsICctaW1hZScsICc8aW5maWxlLm1hZT4nLCAnLW9tYWUnLCAnPG91dGZpbGUubWFlPic=

> <r_lp_tautomer_probability>
1

> <r_epik_Ionization_Penalty>
3.77712

> <r_epik_Ionization_Penalty_Charging>
3.67739

> <r_epik_Ionization_Penalty_Neutral>
0.0997294

> <r_epik_State_Penalty>
3.67514

> <r_epik_Charging_Adjusted_Penalty>
7.35254

> <i_epik_Tot_Q>
0

> <i_epik_Tot_abs_Q>
2

> <r_epik_Metal_State_Penalty>
0.540795

> <b_epik_Metal_Only>
1

> <s_lp_Force_Field>
OPLS_2005

> <r_lp_Energy>
28.3621

> <b_lp_Chiralities_Consistent>
1

> <s_lp_Variant>
AV-unprocessed.smi:1897-14

> <Gold.Version>
5.8.1

> <Gold.Id.Protein>
6NUR|6NUR_protein|mol2

> <Gold.PLP.Fitness>
36.5742

> <Gold.PLP.PLP>
-31.5674

> <Gold.PLP.part.hbond>
-2.0000

> <Gold.PLP.part.metal>
0.0000

> <Gold.PLP.part.buried>
-4.3914

> <Gold.PLP.part.nonpolar>
-25.7591

> <Gold.PLP.part.repulsive>
0.2189

> <Gold.PLP.ligand.clash>
0.0000

> <Gold.PLP.ligand.torsion>
0.5025

> <Gold.PLP.Chemscore.Hbond>
2.0000

> <Gold.PLP.Chemscore.CHOScore>
0.0000

> <Gold.PLP.Chemscore.Metal>
0.0000

> <Gold.Chemscore.Hbonds>
donor molecule, donor type, donor heavy atom, donor atom, acceptor molecule, acceptor atom, score
      L1  H     9    23       P1  7948  1.00
      L1  H    13    38       P1 10747  1.00

> <Gold.PLP.Chemscore.Internal.Correction>
0.0118

> <Gold.Rescore>
     Score         DG    S(hbond)    S(metal)    S(lipo)     H(rot)  DE(clash)    DE(int)     intcor
     16.38     -18.42       1.92        0.00      77.60       1.00       0.03       2.01       ----

> <Gold.Chemscore.Fitness>
16.3776

> <Gold.Chemscore.DG>
-18.4187

> <Gold.Chemscore.ZeroCoef>
-5.4800

> <Gold.Chemscore.Hbond>
1.9220

> <Gold.Chemscore.Metal>
0.0000

> <Gold.Chemscore.Lipo>
77.5994

> <Gold.Chemscore.Internal_Hbond>
0.0000

> <Gold.Chemscore.DEClash>
0.0334

> <Gold.Chemscore.DEInternal>
2.0077

> <Gold.Chemscore.Rot>
1.0000

> <Gold.Chemscore.Internal.Correction>
   9.000000E+99

> <Gold.Chemscore.Hbonds>
donor molecule, donor type, donor heavy atom, donor atom, acceptor molecule, acceptor atom, score
      L1  H     9    23       P1  7948  0.59
      L1  H    13    38       P1 10747  1.00

> <Gold.Chemscore.Hbond.Weighted>
-6.4196

> <Gold.Chemscore.Metal.Weighted>
-0.0000

> <Gold.Chemscore.Lipo.Weighted>
-9.0791

> <Gold.Chemscore.Internal_Hbond.Weighted>
0.0000

> <Gold.Chemscore.DEClash.Weighted>
0.0334

> <Gold.Chemscore.DEInternal.Weighted>
2.0077

> <Gold.Chemscore.Rot.Weighted>
2.5600

> <Gold.Chemscore.Internal.Correction.Weighted>
   9.000000E+99

> <Gold.Protein.RotatedTorsions>
[ 6907 6896 6895 6894 ] final  -97.14 input  -60.11 | X-H torsion
[ 7974 7965 7964 7962 ] final   44.31 input  175.53 | X-H torsion
[ 8008 7997 7996 7995 ] final  -72.76 input   59.86 | X-H torsion
[ 10167 10162 10161 10158 ] final  153.30 input  -65.29 | X-H torsion
[ 10718 10713 10712 10709 ] final   79.11 input   66.30 | X-H torsion
[ 10763 10752 10751 10750 ] final   -5.50 input  -60.55 | X-H torsion
[ 11005 11000 10999 10996 ] final -104.32 input  -57.11 | X-H torsion

> <Gold.Protein.ActiveResidues>
 VAL166  LYS551  ARG553  GLY616  TRP617  ASP618  TYR619  PRO620  LYS621  CYS622 
 ASP623  PHE694  ASN695  SER759  ASP760  ASP761  ALA762  ILE779  LEU786  VAL792 
 PHE793  MET794  SER795  GLU796  ALA797  LYS798  CYS799  TRP800  GLU811  SER814 

> <Gold.Protein.RotatedAtoms>
  150.7008  134.1395  159.4099 H   0  0  0  0  0  0  0  0  0  0  0  0  # atno 6907 bound_to 6896
  151.9380  135.0224  160.0543 H   0  0  0  0  0  0  0  0  0  0  0  0  # atno 6908 bound_to 6896
  152.2119  133.4882  159.5151 H   0  0  0  0  0  0  0  0  0  0  0  0  # atno 6909 bound_to 6896
  146.0579  139.5088  142.9676 H   0  0  0  0  0  0  0  0  0  0  0  0  # atno 7974 bound_to 7965
  154.5192  140.0791  156.8139 H   0  0  0  0  0  0  0  0  0  0  0  0  # atno 8008 bound_to 7997
  155.3614  140.3418  155.4223 H   0  0  0  0  0  0  0  0  0  0  0  0  # atno 8009 bound_to 7997
  156.1662  140.1604  156.8515 H   0  0  0  0  0  0  0  0  0  0  0  0  # atno 8010 bound_to 7997
  139.4828  144.5285  151.7762 H   0  0  0  0  0  0  0  0  0  0  0  0  # atno 10167 bound_to 10162
  157.6766  130.9899  150.1884 H   0  0  0  0  0  0  0  0  0  0  0  0  # atno 10718 bound_to 10713
  153.3994  135.7004  153.6437 H   0  0  0  0  0  0  0  0  0  0  0  0  # atno 10763 bound_to 10752
  153.4976  135.3659  155.2524 H   0  0  0  0  0  0  0  0  0  0  0  0  # atno 10764 bound_to 10752
  154.8709  135.4104  154.3326 H   0  0  0  0  0  0  0  0  0  0  0  0  # atno 10765 bound_to 10752
  141.1106  133.8714  157.1597 H   0  0  0  0  0  0  0  0  0  0  0  0  # atno 11005 bound_to 11000
  145.6611  141.0240  143.1708 LP  0  0  0  0  0  0  0  0  0  0  0  0  # atno 17320 bound_to 7965
  144.7158  139.8201  143.7399 LP  0  0  0  0  0  0  0  0  0  0  0  0  # atno 17321 bound_to 7965
  140.4808  144.1452  150.5932 LP  0  0  0  0  0  0  0  0  0  0  0  0  # atno 17342 bound_to 10162
  140.4280  143.2581  151.9632 LP  0  0  0  0  0  0  0  0  0  0  0  0  # atno 17343 bound_to 10162
  156.2601  130.3710  149.8139 LP  0  0  0  0  0  0  0  0  0  0  0  0  # atno 17370 bound_to 10713
  156.5887  130.8497  151.3402 LP  0  0  0  0  0  0  0  0  0  0  0  0  # atno 17371 bound_to 10713
  139.9997  135.0032  157.0163 LP  0  0  0  0  0  0  0  0  0  0  0  0  # atno 17394 bound_to 11000
  140.4786  134.1312  155.7213 LP  0  0  0  0  0  0  0  0  0  0  0  0  # atno 17395 bound_to 11000

$$$$
