AV-unprocessed.smi:919|AV-procd|sdf|4165|dock4
  -GOLD-   22720 2 73D 1   1.00000     0.00000
 Structure written by MMmdl.
 43 45  0  0  0  0  0  0  0  0  1 V2000
  147.4142  139.1914  156.4777 C   0  0  0  0  0  0  0  0  0  0  0  0
  147.1440  138.8654  155.0369 C   0  0  0  0  0  0  0  0  0  0  0  0
  146.5680  137.7143  154.7335 N   0  0  0  0  0  0  0  0  0  0  0  0
  146.4408  137.7034  153.3410 O   0  0  0  0  0  0  0  0  0  0  0  0
  146.9500  138.8640  152.8552 C   0  0  0  0  0  0  0  0  0  0  0  0
  146.9011  139.0554  151.3771 C   0  0  0  0  0  0  0  0  0  0  0  0
  147.4161  139.6451  153.8758 C   0  0  0  0  0  0  0  0  0  0  0  0
  148.0523  141.0056  153.7893 C   0  0  0  0  0  0  0  0  0  0  0  0
  149.4700  140.9977  154.3817 C   0  0  0  0  0  0  0  0  0  0  0  0
  149.6131  141.9874  155.4419 N   0  0  0  0  0  0  0  0  0  0  0  0
  150.0148  141.7207  156.6962 C   0  0  0  0  0  0  0  0  0  0  0  0
  150.2989  140.5915  157.0914 O   0  0  0  0  0  0  0  0  0  0  0  0
  150.0917  142.7949  157.5012 N   0  0  0  0  0  0  0  0  0  0  0  0
  150.4933  142.8362  158.9100 C   0  0  1  0  0  0  0  0  0  0  0  0
  151.8553  142.1381  159.1209 C   0  0  0  0  0  0  0  0  0  0  0  0
  152.7228  143.2449  159.7485 C   0  0  1  0  0  0  0  0  0  0  0  0
  153.0551  144.3078  158.6838 C   0  0  0  0  0  0  0  0  0  0  0  0
  151.7146  145.0459  158.5088 C   0  0  0  0  0  0  0  0  0  0  0  0
  150.7739  144.2633  159.4500 C   0  0  2  0  0  0  0  0  0  0  0  0
  151.7092  143.9744  160.6195 C   0  0  0  0  0  0  0  0  0  0  0  0
  148.0442  140.0749  156.5774 H   0  0  0  0  0  0  0  0  0  0  0  0
  147.9222  138.3672  156.9793 H   0  0  0  0  0  0  0  0  0  0  0  0
  146.4853  139.3860  157.0140 H   0  0  0  0  0  0  0  0  0  0  0  0
  146.4559  140.0192  151.1290 H   0  0  0  0  0  0  0  0  0  0  0  0
  146.3082  138.2765  150.8973 H   0  0  0  0  0  0  0  0  0  0  0  0
  147.9043  139.0285  150.9519 H   0  0  0  0  0  0  0  0  0  0  0  0
  148.0932  141.3487  152.7552 H   0  0  0  0  0  0  0  0  0  0  0  0
  147.4425  141.7411  154.3155 H   0  0  0  0  0  0  0  0  0  0  0  0
  149.7207  140.0057  154.7620 H   0  0  0  0  0  0  0  0  0  0  0  0
  150.2001  141.2251  153.6043 H   0  0  0  0  0  0  0  0  0  0  0  0
  149.4032  142.9459  155.2046 H   0  0  0  0  0  0  0  0  0  0  0  0
  149.8507  143.6843  157.0883 H   0  0  0  0  0  0  0  0  0  0  0  0
  149.7398  142.3398  159.5245 H   0  0  0  0  0  0  0  0  0  0  0  0
  151.7480  141.2980  159.8084 H   0  0  0  0  0  0  0  0  0  0  0  0
  152.2929  141.7524  158.1988 H   0  0  0  0  0  0  0  0  0  0  0  0
  153.5982  142.8664  160.2771 H   0  0  0  0  0  0  0  0  0  0  0  0
  153.8253  144.9928  159.0406 H   0  0  0  0  0  0  0  0  0  0  0  0
  153.4081  143.8616  157.7533 H   0  0  0  0  0  0  0  0  0  0  0  0
  151.8076  146.0807  158.8409 H   0  0  0  0  0  0  0  0  0  0  0  0
  151.3781  145.0695  157.4723 H   0  0  0  0  0  0  0  0  0  0  0  0
  149.8726  144.8151  159.7181 H   0  0  0  0  0  0  0  0  0  0  0  0
  151.2612  143.3400  161.3863 H   0  0  0  0  0  0  0  0  0  0  0  0
  152.1095  144.8746  161.0891 H   0  0  0  0  0  0  0  0  0  0  0  0
  1  2  1  0  0  0  0
  1 21  1  0  0  0  0
  1 22  1  0  0  0  0
  1 23  1  0  0  0  0
  2  7  1  0  0  0  0
  2  3  2  0  0  0  0
  3  4  1  0  0  0  0
  4  5  1  0  0  0  0
  5  6  1  0  0  0  0
  5  7  2  0  0  0  0
  6 24  1  0  0  0  0
  6 25  1  0  0  0  0
  6 26  1  0  0  0  0
  7  8  1  0  0  0  0
  8  9  1  0  0  0  0
  8 27  1  0  0  0  0
  8 28  1  0  0  0  0
  9 10  1  0  0  0  0
  9 29  1  0  0  0  0
  9 30  1  0  0  0  0
 10 11  1  0  0  0  0
 10 31  1  0  0  0  0
 11 12  2  0  0  0  0
 11 13  1  0  0  0  0
 13 14  1  0  0  0  0
 13 32  1  0  0  0  0
 14 19  1  0  0  0  0
 14 15  1  0  0  0  0
 14 33  1  0  0  0  0
 15 16  1  0  0  0  0
 15 34  1  0  0  0  0
 15 35  1  0  0  0  0
 16 20  1  0  0  0  0
 16 17  1  0  0  0  0
 16 36  1  0  0  0  0
 17 18  1  0  0  0  0
 17 37  1  0  0  0  0
 17 38  1  0  0  0  0
 18 19  1  0  0  0  0
 18 39  1  0  0  0  0
 18 40  1  0  0  0  0
 19 20  1  0  0  0  0
 19 41  1  0  0  0  0
 20 42  1  0  0  0  0
 20 43  1  0  0  0  0
M  END
> <s_m_source_file>
AV-unprocessed.smi

> <i_m_source_file_index>
919

> <i_lp_mmshare_version>
43012

> <i_f3d_flags>
0

> <s_epik_input>
W0NIM11jMW5vYyhbQ0gzXSljMVtDSDJdW0NIMl1bTkhdQyg9TylbTkhdW0NASF0oW0NIMl1bQ0BASF0yMylbQ0BASF0oW0NIMl0zKVtDSDJdW0NIMl0y

> <s_epik_cmdline>
J2VwaWtfcHl0aG9uJywgJy1waCcsICc3LjAnLCAnLXRuJywgJzgnLCAnLW1hJywgJzIwMCcsICctbWV0YWxfYmluZGluZycsICctaW1hZScsICc8aW5maWxlLm1hZT4nLCAnLW9tYWUnLCAnPG91dGZpbGUubWFlPic=

> <r_lp_tautomer_probability>
1

> <r_epik_Ionization_Penalty>
6.40771e-05

> <r_epik_Ionization_Penalty_Charging>
0

> <r_epik_Ionization_Penalty_Neutral>
6.40771e-05

> <r_epik_State_Penalty>
-0

> <r_epik_Charging_Adjusted_Penalty>
0

> <i_epik_Tot_Q>
0

> <i_epik_Tot_abs_Q>
0

> <r_epik_Metal_State_Penalty>
-0

> <b_epik_Metal_Only>
0

> <s_lp_Force_Field>
OPLS_2005

> <r_lp_Energy>
47.6346

> <b_lp_Chiralities_Consistent>
1

> <s_lp_Variant>
AV-unprocessed.smi:919-2

> <Gold.Version>
5.8.1

> <Gold.Id.Protein>
6NUR|6NUR_protein|mol2

> <Gold.PLP.Fitness>
43.5805

> <Gold.PLP.PLP>
-38.5400

> <Gold.PLP.part.hbond>
-2.0000

> <Gold.PLP.part.metal>
0.0000

> <Gold.PLP.part.buried>
-1.8408

> <Gold.PLP.part.nonpolar>
-34.5498

> <Gold.PLP.part.repulsive>
0.4773

> <Gold.PLP.ligand.clash>
0.0000

> <Gold.PLP.ligand.torsion>
0.4818

> <Gold.PLP.Chemscore.Hbond>
1.9920

> <Gold.PLP.Chemscore.CHOScore>
0.0000

> <Gold.PLP.Chemscore.Metal>
0.0000

> <Gold.Chemscore.Hbonds>
donor molecule, donor type, donor heavy atom, donor atom, acceptor molecule, acceptor atom, score
      L1  H    10    31       P1  8028  1.00
      L1  H    13    32       P1  8028  1.00

> <Gold.PLP.Chemscore.Internal.Correction>
0.0281

> <Gold.Rescore>
     Score         DG    S(hbond)    S(metal)    S(lipo)     H(rot)  DE(clash)    DE(int)     intcor
     20.89     -22.35       1.87        0.00     123.88       1.52       1.03       0.43       ----

> <Gold.Chemscore.Fitness>
20.8888

> <Gold.Chemscore.DG>
-22.3501

> <Gold.Chemscore.ZeroCoef>
-5.4800

> <Gold.Chemscore.Hbond>
1.8736

> <Gold.Chemscore.Metal>
0.0000

> <Gold.Chemscore.Lipo>
123.8757

> <Gold.Chemscore.Internal_Hbond>
0.0000

> <Gold.Chemscore.DEClash>
1.0263

> <Gold.Chemscore.DEInternal>
0.4350

> <Gold.Chemscore.Rot>
1.5161

> <Gold.Chemscore.Internal.Correction>
   9.000000E+99

> <Gold.Chemscore.Hbonds>
donor molecule, donor type, donor heavy atom, donor atom, acceptor molecule, acceptor atom, score
      L1  H    10    31       P1  8028  0.97
      L1  H    13    32       P1  8028  0.87

> <Gold.Chemscore.Hbond.Weighted>
-6.2580

> <Gold.Chemscore.Metal.Weighted>
-0.0000

> <Gold.Chemscore.Lipo.Weighted>
-14.4935

> <Gold.Chemscore.Internal_Hbond.Weighted>
0.0000

> <Gold.Chemscore.DEClash.Weighted>
1.0263

> <Gold.Chemscore.DEInternal.Weighted>
0.4350

> <Gold.Chemscore.Rot.Weighted>
3.8813

> <Gold.Chemscore.Internal.Correction.Weighted>
   9.000000E+99

> <Gold.Protein.RotatedTorsions>
[ 6907 6896 6895 6894 ] final  -99.61 input  -60.11 | X-H torsion
[ 7974 7965 7964 7962 ] final  -81.47 input  175.53 | X-H torsion
[ 8008 7997 7996 7995 ] final  -90.96 input   59.86 | X-H torsion
[ 10167 10162 10161 10158 ] final -128.60 input  -65.29 | X-H torsion
[ 10718 10713 10712 10709 ] final  -13.10 input   66.30 | X-H torsion
[ 10763 10752 10751 10750 ] final -151.32 input  -60.55 | X-H torsion
[ 11005 11000 10999 10996 ] final    8.98 input  -57.11 | X-H torsion

> <Gold.Protein.ActiveResidues>
 VAL166  LYS551  ARG553  GLY616  TRP617  ASP618  TYR619  PRO620  LYS621  CYS622 
 ASP623  PHE694  ASN695  SER759  ASP760  ASP761  ALA762  ILE779  LEU786  VAL792 
 PHE793  MET794  SER795  GLU796  ALA797  LYS798  CYS799  TRP800  GLU811  SER814 

> <Gold.Protein.RotatedAtoms>
  150.7086  134.1013  159.3966 H   0  0  0  0  0  0  0  0  0  0  0  0  # atno 6907 bound_to 6896
  151.9000  135.0380  160.0515 H   0  0  0  0  0  0  0  0  0  0  0  0  # atno 6908 bound_to 6896
  152.2422  133.5109  159.5313 H   0  0  0  0  0  0  0  0  0  0  0  0  # atno 6909 bound_to 6896
  145.5462  140.9503  143.1524 H   0  0  0  0  0  0  0  0  0  0  0  0  # atno 7974 bound_to 7965
  154.7049  140.0524  157.0494 H   0  0  0  0  0  0  0  0  0  0  0  0  # atno 8008 bound_to 7997
  155.0634  140.3192  155.4634 H   0  0  0  0  0  0  0  0  0  0  0  0  # atno 8009 bound_to 7997
  156.2771  140.2094  156.5761 H   0  0  0  0  0  0  0  0  0  0  0  0  # atno 8010 bound_to 7997
  139.9486  143.6082  152.2482 H   0  0  0  0  0  0  0  0  0  0  0  0  # atno 10167 bound_to 10162
  156.6351  130.4912  149.6115 H   0  0  0  0  0  0  0  0  0  0  0  0  # atno 10718 bound_to 10713
  154.8065  135.3263  154.7418 H   0  0  0  0  0  0  0  0  0  0  0  0  # atno 10763 bound_to 10752
  153.8075  135.6898  153.4850 H   0  0  0  0  0  0  0  0  0  0  0  0  # atno 10764 bound_to 10752
  153.1814  135.4585  154.9977 H   0  0  0  0  0  0  0  0  0  0  0  0  # atno 10765 bound_to 10752
  140.5309  134.0467  155.7873 H   0  0  0  0  0  0  0  0  0  0  0  0  # atno 11005 bound_to 11000
  144.7552  139.7092  143.7257 LP  0  0  0  0  0  0  0  0  0  0  0  0  # atno 17320 bound_to 7965
  146.1948  139.5208  142.9782 LP  0  0  0  0  0  0  0  0  0  0  0  0  # atno 17321 bound_to 7965
  139.6647  144.7662  151.1896 LP  0  0  0  0  0  0  0  0  0  0  0  0  # atno 17342 bound_to 10162
  140.7590  143.5956  150.8751 LP  0  0  0  0  0  0  0  0  0  0  0  0  # atno 17343 bound_to 10162
  156.2204  130.6733  151.1362 LP  0  0  0  0  0  0  0  0  0  0  0  0  # atno 17370 bound_to 10713
  157.7188  131.0694  150.6219 LP  0  0  0  0  0  0  0  0  0  0  0  0  # atno 17371 bound_to 10713
  141.1282  133.9347  157.2591 LP  0  0  0  0  0  0  0  0  0  0  0  0  # atno 17394 bound_to 11000
  139.9555  135.0166  156.9115 LP  0  0  0  0  0  0  0  0  0  0  0  0  # atno 17395 bound_to 11000

$$$$
