AV-unprocessed.smi:220|AV-procd|sdf|1682|dock5
  -GOLD-   2262020113D 1   1.00000     0.00000
 Structure written by MMmdl.
 51 55  0  0  0  0  0  0  0  0  1 V2000
  149.5118  140.3971  156.5782 N   0  0  0  0  0  0  0  0  0  0  0  0
  150.7345  140.9311  156.6258 C   0  0  0  0  0  0  0  0  0  0  0  0
  151.4859  140.9316  155.6521 O   0  0  0  0  0  0  0  0  0  0  0  0
  151.1588  141.5666  157.9594 C   0  0  2  0  0  0  0  0  0  0  0  0
  151.5381  143.0538  157.7996 C   0  0  1  0  0  0  0  0  0  0  0  0
  150.4308  144.0701  158.1253 C   0  0  0  0  0  0  0  0  0  0  0  0
  151.1381  145.1723  158.9160 C   0  0  0  0  0  0  0  0  0  0  0  0
  152.1887  144.4248  159.7380 C   0  0  0  0  0  0  0  0  0  0  0  0
  152.6676  143.3022  158.8071 C   0  0  1  0  0  0  0  0  0  0  0  0
  152.9242  141.9411  159.4610 C   0  0  0  0  0  0  0  0  0  0  0  0
  152.3675  140.9724  158.5305 N   0  0  0  0  0  0  0  0  0  0  0  0
  152.2923  139.7116  159.0140 C   0  0  0  0  0  0  0  0  0  0  0  0
  151.6723  138.7976  158.2288 N   0  0  0  0  0  0  0  0  0  0  0  0
  151.5571  137.5314  158.6388 C   0  0  0  0  0  0  0  0  0  0  0  0
  151.9892  136.9793  159.7744 N   0  0  0  0  0  0  0  0  0  0  0  0
  152.6255  137.8939  160.5614 C   0  0  0  0  0  0  0  0  0  0  0  0
  152.8223  139.2714  160.2608 C   0  0  0  0  0  0  0  0  0  0  0  0
  153.5183  139.8845  161.2960 N   0  0  0  0  0  0  0  0  0  0  0  0
  153.7105  138.9284  162.1628 C   0  0  0  0  0  0  0  0  0  0  0  0
  153.2154  137.6968  161.7982 N   0  0  0  0  0  0  0  0  0  0  0  0
  153.2885  136.4639  162.5674 C   0  0  0  0  0  0  0  0  0  0  0  0
  154.1935  136.5587  163.8123 C   0  0  0  0  0  0  0  0  0  0  0  0
  153.5258  137.4183  164.9000 C   0  0  0  0  0  0  0  0  0  0  0  0
  152.3304  136.8247  165.3640 O   0  0  0  0  0  0  0  0  0  0  0  0
  154.7759  135.2327  164.3226 C   0  0  0  0  0  0  0  0  0  0  0  0
  156.1196  135.7583  164.3280 O   0  0  0  0  0  0  0  0  0  0  0  0
  155.6693  136.8836  163.5445 C   0  0  0  0  0  0  0  0  0  0  0  0
  149.1853  139.9701  155.7234 H   0  0  0  0  0  0  0  0  0  0  0  0
  148.9172  140.4240  157.3935 H   0  0  0  0  0  0  0  0  0  0  0  0
  150.3408  141.4724  158.6730 H   0  0  0  0  0  0  0  0  0  0  0  0
  151.9304  143.2517  156.7997 H   0  0  0  0  0  0  0  0  0  0  0  0
  149.9387  144.4502  157.2296 H   0  0  0  0  0  0  0  0  0  0  0  0
  149.6627  143.6194  158.7548 H   0  0  0  0  0  0  0  0  0  0  0  0
  151.6301  145.8620  158.2289 H   0  0  0  0  0  0  0  0  0  0  0  0
  150.4524  145.7502  159.5362 H   0  0  0  0  0  0  0  0  0  0  0  0
  153.0030  145.0716  160.0651 H   0  0  0  0  0  0  0  0  0  0  0  0
  151.7152  144.0130  160.6300 H   0  0  0  0  0  0  0  0  0  0  0  0
  153.5543  143.6260  158.2596 H   0  0  0  0  0  0  0  0  0  0  0  0
  153.9900  141.7692  159.6158 H   0  0  0  0  0  0  0  0  0  0  0  0
  152.4281  141.8632  160.4298 H   0  0  0  0  0  0  0  0  0  0  0  0
  151.0453  136.8654  157.9598 H   0  0  0  0  0  0  0  0  0  0  0  0
  154.2245  139.0990  163.0970 H   0  0  0  0  0  0  0  0  0  0  0  0
  152.2710  136.1969  162.8558 H   0  0  0  0  0  0  0  0  0  0  0  0
  153.6217  135.6614  161.9084 H   0  0  0  0  0  0  0  0  0  0  0  0
  154.1916  137.5884  165.7462 H   0  0  0  0  0  0  0  0  0  0  0  0
  153.2766  138.4056  164.5094 H   0  0  0  0  0  0  0  0  0  0  0  0
  152.2229  137.0399  166.2778 H   0  0  0  0  0  0  0  0  0  0  0  0
  154.4312  134.9477  165.3174 H   0  0  0  0  0  0  0  0  0  0  0  0
  154.6767  134.4015  163.6231 H   0  0  0  0  0  0  0  0  0  0  0  0
  155.9605  136.7902  162.4971 H   0  0  0  0  0  0  0  0  0  0  0  0
  155.9984  137.8391  163.9548 H   0  0  0  0  0  0  0  0  0  0  0  0
  1  2  1  0  0  0  0
  1 28  1  0  0  0  0
  1 29  1  0  0  0  0
  2  3  2  0  0  0  0
  2  4  1  0  0  0  0
  4 11  1  0  0  0  0
  4  5  1  0  0  0  0
  4 30  1  0  0  0  0
  5  9  1  0  0  0  0
  5  6  1  0  0  0  0
  5 31  1  0  0  0  0
  6  7  1  0  0  0  0
  6 32  1  0  0  0  0
  6 33  1  0  0  0  0
  7  8  1  0  0  0  0
  7 34  1  0  0  0  0
  7 35  1  0  0  0  0
  8  9  1  0  0  0  0
  8 36  1  0  0  0  0
  8 37  1  0  0  0  0
  9 10  1  0  0  0  0
  9 38  1  0  0  0  0
 10 11  1  0  0  0  0
 10 39  1  0  0  0  0
 10 40  1  0  0  0  0
 11 12  1  0  0  0  0
 12 17  1  0  0  0  0
 12 13  2  0  0  0  0
 13 14  1  0  0  0  0
 14 15  2  0  0  0  0
 14 41  1  0  0  0  0
 15 16  1  0  0  0  0
 16 20  1  0  0  0  0
 16 17  2  0  0  0  0
 17 18  1  0  0  0  0
 18 19  2  0  0  0  0
 19 20  1  0  0  0  0
 19 42  1  0  0  0  0
 20 21  1  0  0  0  0
 21 22  1  0  0  0  0
 21 43  1  0  0  0  0
 21 44  1  0  0  0  0
 22 27  1  0  0  0  0
 22 23  1  0  0  0  0
 22 25  1  0  0  0  0
 23 24  1  0  0  0  0
 23 45  1  0  0  0  0
 23 46  1  0  0  0  0
 24 47  1  0  0  0  0
 25 26  1  0  0  0  0
 25 48  1  0  0  0  0
 25 49  1  0  0  0  0
 26 27  1  0  0  0  0
 27 50  1  0  0  0  0
 27 51  1  0  0  0  0
M  END
> <s_m_source_file>
AV-unprocessed.smi

> <i_m_source_file_index>
220

> <i_lp_mmshare_version>
43012

> <i_f3d_flags>
0

> <s_epik_input>
W0NIMl0xW0NIMl1bQ0gyXVtDQEhdKFtDQEhdMTIpW0NIMl1OKFtDQEBIXTJDKD1PKVtOSDJdKWMobltjSF1uMyljKGMzNCluW2NIXW40W0NIMl1DNShbQ0gyXVtPSF0pW0NIMl1PW0NIMl01

> <s_epik_cmdline>
J2VwaWtfcHl0aG9uJywgJy1waCcsICc3LjAnLCAnLXRuJywgJzgnLCAnLW1hJywgJzIwMCcsICctbWV0YWxfYmluZGluZycsICctaW1hZScsICc8aW5maWxlLm1hZT4nLCAnLW9tYWUnLCAnPG91dGZpbGUubWFlPic=

> <r_lp_tautomer_probability>
1

> <r_epik_Ionization_Penalty>
0.00118987

> <r_epik_Ionization_Penalty_Charging>
0

> <r_epik_Ionization_Penalty_Neutral>
0.00118987

> <r_epik_State_Penalty>
0.000654261

> <r_epik_Charging_Adjusted_Penalty>
0.000654261

> <i_epik_Tot_Q>
0

> <i_epik_Tot_abs_Q>
0

> <r_epik_Metal_State_Penalty>
-0

> <b_epik_Metal_Only>
0

> <s_lp_Force_Field>
OPLS_2005

> <r_lp_Energy>
61.293

> <b_lp_Chiralities_Consistent>
1

> <s_lp_Variant>
AV-unprocessed.smi:220-1

> <Gold.Version>
5.8.1

> <Gold.Id.Protein>
6NUR|6NUR_protein|mol2

> <Gold.PLP.Fitness>
49.6727

> <Gold.PLP.PLP>
-46.2829

> <Gold.PLP.part.hbond>
-4.0000

> <Gold.PLP.part.metal>
0.0000

> <Gold.PLP.part.buried>
-5.6498

> <Gold.PLP.part.nonpolar>
-35.4314

> <Gold.PLP.part.repulsive>
0.0419

> <Gold.PLP.ligand.clash>
0.0000

> <Gold.PLP.ligand.torsion>
0.5432

> <Gold.PLP.Chemscore.Hbond>
1.3494

> <Gold.PLP.Chemscore.CHOScore>
0.0000

> <Gold.PLP.Chemscore.Metal>
0.0000

> <Gold.Chemscore.Hbonds>
donor molecule, donor type, donor heavy atom, donor atom, acceptor molecule, acceptor atom, score
      P1  H  6896  6907       L1    15  1.00
      P1  H  7989  7998       L1     3  0.45

> <Gold.PLP.Chemscore.Internal.Correction>
0.4280

> <Gold.Rescore>
     Score         DG    S(hbond)    S(metal)    S(lipo)     H(rot)  DE(clash)    DE(int)     intcor
     11.42     -15.21       1.52        0.00     111.22       3.27       0.51       3.28       ----

> <Gold.Chemscore.Fitness>
11.4230

> <Gold.Chemscore.DG>
-15.2083

> <Gold.Chemscore.ZeroCoef>
-5.4800

> <Gold.Chemscore.Hbond>
1.5231

> <Gold.Chemscore.Metal>
0.0000

> <Gold.Chemscore.Lipo>
111.2236

> <Gold.Chemscore.Internal_Hbond>
0.0000

> <Gold.Chemscore.DEClash>
0.5094

> <Gold.Chemscore.DEInternal>
3.2760

> <Gold.Chemscore.Rot>
3.2703

> <Gold.Chemscore.Internal.Correction>
   9.000000E+99

> <Gold.Chemscore.Hbonds>
donor molecule, donor type, donor heavy atom, donor atom, acceptor molecule, acceptor atom, score
      P1  H  6896  6907       L1    15  0.97
      P1  H  7989  7998       L1     3  0.44

> <Gold.Chemscore.Hbond.Weighted>
-5.0872

> <Gold.Chemscore.Metal.Weighted>
-0.0000

> <Gold.Chemscore.Lipo.Weighted>
-13.0132

> <Gold.Chemscore.Internal_Hbond.Weighted>
0.0000

> <Gold.Chemscore.DEClash.Weighted>
0.5094

> <Gold.Chemscore.DEInternal.Weighted>
3.2760

> <Gold.Chemscore.Rot.Weighted>
8.3721

> <Gold.Chemscore.Internal.Correction.Weighted>
   9.000000E+99

> <Gold.Protein.RotatedTorsions>
[ 6907 6896 6895 6894 ] final   18.26 input  -60.11 | X-H torsion
[ 7974 7965 7964 7962 ] final    5.05 input  175.53 | X-H torsion
[ 8008 7997 7996 7995 ] final  -12.95 input   59.86 | X-H torsion
[ 10167 10162 10161 10158 ] final  -28.02 input  -65.29 | X-H torsion
[ 10718 10713 10712 10709 ] final  -25.12 input   66.30 | X-H torsion
[ 10763 10752 10751 10750 ] final  148.85 input  -60.55 | X-H torsion
[ 11005 11000 10999 10996 ] final   65.19 input  -57.11 | X-H torsion

> <Gold.Protein.ActiveResidues>
 VAL166  LYS551  ARG553  GLY616  TRP617  ASP618  TYR619  PRO620  LYS621  CYS622 
 ASP623  PHE694  ASN695  SER759  ASP760  ASP761  ALA762  ILE779  LEU786  VAL792 
 PHE793  MET794  SER795  GLU796  ALA797  LYS798  CYS799  TRP800  GLU811  SER814 

> <Gold.Protein.RotatedAtoms>
  151.8625  135.0519  160.0470 H   0  0  0  0  0  0  0  0  0  0  0  0  # atno 6907 bound_to 6896
  152.2652  133.5328  159.5414 H   0  0  0  0  0  0  0  0  0  0  0  0  # atno 6908 bound_to 6896
  150.7131  134.0691  159.3900 H   0  0  0  0  0  0  0  0  0  0  0  0  # atno 6909 bound_to 6896
  146.2442  140.0442  142.8380 H   0  0  0  0  0  0  0  0  0  0  0  0  # atno 7974 bound_to 7965
  154.5333  140.2262  155.8766 H   0  0  0  0  0  0  0  0  0  0  0  0  # atno 8008 bound_to 7997
  156.1786  140.3105  155.9069 H   0  0  0  0  0  0  0  0  0  0  0  0  # atno 8009 bound_to 7997
  155.3406  140.0450  157.3035 H   0  0  0  0  0  0  0  0  0  0  0  0  # atno 8010 bound_to 7997
  140.7273  143.4045  151.1209 H   0  0  0  0  0  0  0  0  0  0  0  0  # atno 10167 bound_to 10162
  156.4686  130.4519  149.6883 H   0  0  0  0  0  0  0  0  0  0  0  0  # atno 10718 bound_to 10713
  154.0616  135.2873  155.3324 H   0  0  0  0  0  0  0  0  0  0  0  0  # atno 10763 bound_to 10752
  154.6805  135.5265  153.8259 H   0  0  0  0  0  0  0  0  0  0  0  0  # atno 10764 bound_to 10752
  153.0520  135.6580  154.0804 H   0  0  0  0  0  0  0  0  0  0  0  0  # atno 10765 bound_to 10752
  139.9910  134.6591  156.0091 H   0  0  0  0  0  0  0  0  0  0  0  0  # atno 11005 bound_to 11000
  145.1042  140.9365  143.4694 LP  0  0  0  0  0  0  0  0  0  0  0  0  # atno 17320 bound_to 7965
  145.0641  139.3082  143.5865 LP  0  0  0  0  0  0  0  0  0  0  0  0  # atno 17321 bound_to 7965
  139.7669  143.8551  152.3112 LP  0  0  0  0  0  0  0  0  0  0  0  0  # atno 17342 bound_to 10162
  139.8456  144.7189  150.9276 LP  0  0  0  0  0  0  0  0  0  0  0  0  # atno 17343 bound_to 10162
  156.3642  130.7497  151.2473 LP  0  0  0  0  0  0  0  0  0  0  0  0  # atno 17370 bound_to 10713
  157.7493  131.0341  150.4304 LP  0  0  0  0  0  0  0  0  0  0  0  0  # atno 17371 bound_to 10713
  141.1566  133.6542  156.4181 LP  0  0  0  0  0  0  0  0  0  0  0  0  # atno 17394 bound_to 11000
  140.4908  134.6577  157.5210 LP  0  0  0  0  0  0  0  0  0  0  0  0  # atno 17395 bound_to 11000

$$$$
