AV-unprocessed.smi:3129|AV-procd|sdf|11924|dock5
  -GOLD-   2272017303D 1   1.00000     0.00000
 Structure written by MMmdl.
 39 39  0  0  0  0  0  0  0  0  1 V2000
  147.3843  140.2372  153.2965 C   0  0  0  0  0  0  0  0  0  0  0  0
  147.6530  141.0610  154.5647 C   0  0  0  0  0  0  0  0  0  0  0  0
  146.7983  142.3405  154.5656 C   0  0  0  0  0  0  0  0  0  0  0  0
  149.1616  141.3477  154.7156 C   0  0  0  0  0  0  0  0  0  0  0  0
  149.7351  140.7062  155.8953 N   0  0  0  0  0  0  0  0  0  0  0  0
  150.9163  140.0701  155.9439 C   0  0  0  0  0  0  0  0  0  0  0  0
  151.6625  139.9513  154.9716 O   0  0  0  0  0  0  0  0  0  0  0  0
  151.3066  139.4508  157.2966 C   0  0  2  0  0  0  0  0  0  0  0  0
  150.2591  138.4171  157.7408 C   0  0  0  0  0  0  0  0  0  0  0  0
  151.5032  140.4502  158.3622 N   0  0  0  0  0  0  0  0  0  0  0  0
  152.8566  140.4913  158.9048 C   0  0  0  0  0  0  0  0  0  0  0  0
  152.8845  141.3999  160.1413 C   0  0  0  0  0  0  0  0  0  0  0  0
  152.2680  142.6838  159.8697 N   0  0  0  0  0  0  0  0  0  0  0  0
  152.0927  143.7490  160.7278 C   0  0  0  0  0  0  0  0  0  0  0  0
  151.4572  144.7341  160.0275 C   0  0  0  0  0  0  0  0  0  0  0  0
  151.2822  144.1694  158.7330 C   0  0  0  0  0  0  0  0  0  0  0  0
  151.7670  142.9414  158.6422 N   0  0  0  0  0  0  0  0  0  0  0  0
  147.6706  140.7867  152.3992 H   0  0  0  0  0  0  0  0  0  0  0  0
  146.3276  139.9834  153.2085 H   0  0  0  0  0  0  0  0  0  0  0  0
  147.9455  139.3024  153.3075 H   0  0  0  0  0  0  0  0  0  0  0  0
  147.3398  140.4552  155.4163 H   0  0  0  0  0  0  0  0  0  0  0  0
  147.0980  143.0161  153.7640 H   0  0  0  0  0  0  0  0  0  0  0  0
  146.8847  142.8819  155.5075 H   0  0  0  0  0  0  0  0  0  0  0  0
  145.7424  142.1072  154.4266 H   0  0  0  0  0  0  0  0  0  0  0  0
  149.6957  140.9600  153.8477 H   0  0  0  0  0  0  0  0  0  0  0  0
  149.3452  142.4236  154.7240 H   0  0  0  0  0  0  0  0  0  0  0  0
  149.1871  140.7446  156.7427 H   0  0  0  0  0  0  0  0  0  0  0  0
  152.2497  138.9175  157.1641 H   0  0  0  0  0  0  0  0  0  0  0  0
  150.1043  137.6556  156.9752 H   0  0  0  0  0  0  0  0  0  0  0  0
  149.2944  138.8826  157.9475 H   0  0  0  0  0  0  0  0  0  0  0  0
  150.5783  137.9045  158.6489 H   0  0  0  0  0  0  0  0  0  0  0  0
  151.2258  141.3736  158.0608 H   0  0  0  0  0  0  0  0  0  0  0  0
  153.1759  139.4833  159.1738 H   0  0  0  0  0  0  0  0  0  0  0  0
  153.5573  140.8723  158.1612 H   0  0  0  0  0  0  0  0  0  0  0  0
  152.3542  140.9319  160.9719 H   0  0  0  0  0  0  0  0  0  0  0  0
  153.9104  141.5671  160.4738 H   0  0  0  0  0  0  0  0  0  0  0  0
  152.4294  143.7169  161.7535 H   0  0  0  0  0  0  0  0  0  0  0  0
  151.1616  145.7091  160.3855 H   0  0  0  0  0  0  0  0  0  0  0  0
  150.8198  144.6118  157.8630 H   0  0  0  0  0  0  0  0  0  0  0  0
  1  2  1  0  0  0  0
  1 18  1  0  0  0  0
  1 19  1  0  0  0  0
  1 20  1  0  0  0  0
  2  3  1  0  0  0  0
  2  4  1  0  0  0  0
  2 21  1  0  0  0  0
  3 22  1  0  0  0  0
  3 23  1  0  0  0  0
  3 24  1  0  0  0  0
  4  5  1  0  0  0  0
  4 25  1  0  0  0  0
  4 26  1  0  0  0  0
  5  6  1  0  0  0  0
  5 27  1  0  0  0  0
  6  7  2  0  0  0  0
  6  8  1  0  0  0  0
  8  9  1  0  0  0  0
  8 10  1  0  0  0  0
  8 28  1  0  0  0  0
  9 29  1  0  0  0  0
  9 30  1  0  0  0  0
  9 31  1  0  0  0  0
 10 11  1  0  0  0  0
 10 32  1  0  0  0  0
 11 12  1  0  0  0  0
 11 33  1  0  0  0  0
 11 34  1  0  0  0  0
 12 13  1  0  0  0  0
 12 35  1  0  0  0  0
 12 36  1  0  0  0  0
 13 17  1  0  0  0  0
 13 14  1  0  0  0  0
 14 15  2  0  0  0  0
 14 37  1  0  0  0  0
 15 16  1  0  0  0  0
 15 38  1  0  0  0  0
 16 17  2  0  0  0  0
 16 39  1  0  0  0  0
M  END
> <s_m_source_file>
AV-unprocessed.smi

> <i_m_source_file_index>
3129

> <i_lp_mmshare_version>
43012

> <i_f3d_flags>
0

> <s_epik_input>
W0NIM11bQ0hdKFtDSDNdKVtDSDJdW05IXUMoPU8pW0NASF0oW0NIM10pW05IXVtDSDJdW0NIMl1uMVtjSF1bY0hdW2NIXW4x

> <s_epik_cmdline>
J2VwaWtfcHl0aG9uJywgJy1waCcsICc3LjAnLCAnLXRuJywgJzgnLCAnLW1hJywgJzIwMCcsICctbWV0YWxfYmluZGluZycsICctaW1hZScsICc8aW5maWxlLm1hZT4nLCAnLW9tYWUnLCAnPG91dGZpbGUubWFlPic=

> <r_lp_tautomer_probability>
1

> <r_epik_Ionization_Penalty>
0.724007

> <r_epik_Ionization_Penalty_Charging>
0

> <r_epik_Ionization_Penalty_Neutral>
0.724007

> <r_epik_State_Penalty>
0.74758

> <r_epik_Charging_Adjusted_Penalty>
0.74758

> <i_epik_Tot_Q>
0

> <i_epik_Tot_abs_Q>
0

> <r_epik_Metal_State_Penalty>
0.746851

> <b_epik_Metal_Only>
0

> <s_lp_Force_Field>
OPLS_2005

> <r_lp_Energy>
5.79034

> <b_lp_Chiralities_Consistent>
1

> <s_lp_Variant>
AV-unprocessed.smi:3129-3

> <Gold.Version>
5.8.1

> <Gold.Id.Protein>
6NUR|6NUR_protein|mol2

> <Gold.PLP.Fitness>
43.7634

> <Gold.PLP.PLP>
-40.9182

> <Gold.PLP.part.hbond>
-1.0000

> <Gold.PLP.part.metal>
0.0000

> <Gold.PLP.part.buried>
-5.1910

> <Gold.PLP.part.nonpolar>
-35.1010

> <Gold.PLP.part.repulsive>
0.2100

> <Gold.PLP.ligand.clash>
0.0000

> <Gold.PLP.ligand.torsion>
1.6680

> <Gold.PLP.Chemscore.Hbond>
1.0000

> <Gold.PLP.Chemscore.CHOScore>
1.0000

> <Gold.PLP.Chemscore.Metal>
0.0000

> <Gold.Chemscore.Hbonds>
donor molecule, donor type, donor heavy atom, donor atom, acceptor molecule, acceptor atom, score
      P1  H  7989  7998       L1     7  1.00
      L1  C    16    39       P1  8028  0.09

> <Gold.PLP.Chemscore.Internal.Correction>
0.1812

> <Gold.Rescore>
     Score         DG    S(hbond)    S(metal)    S(lipo)     H(rot)  DE(clash)    DE(int)     intcor
     11.29     -14.14       0.99        0.00      92.33       2.13       0.13       2.72       ----

> <Gold.Chemscore.Fitness>
11.2917

> <Gold.Chemscore.DG>
-14.1418

> <Gold.Chemscore.ZeroCoef>
-5.4800

> <Gold.Chemscore.Hbond>
0.9949

> <Gold.Chemscore.Metal>
0.0000

> <Gold.Chemscore.Lipo>
92.3349

> <Gold.Chemscore.Internal_Hbond>
0.0000

> <Gold.Chemscore.DEClash>
0.1333

> <Gold.Chemscore.DEInternal>
2.7168

> <Gold.Chemscore.Rot>
2.1345

> <Gold.Chemscore.Internal.Correction>
   9.000000E+99

> <Gold.Chemscore.Hbonds>
donor molecule, donor type, donor heavy atom, donor atom, acceptor molecule, acceptor atom, score
      P1  H  7989  7998       L1     7  0.96

> <Gold.Chemscore.Hbond.Weighted>
-3.3228

> <Gold.Chemscore.Metal.Weighted>
-0.0000

> <Gold.Chemscore.Lipo.Weighted>
-10.8032

> <Gold.Chemscore.Internal_Hbond.Weighted>
0.0000

> <Gold.Chemscore.DEClash.Weighted>
0.1333

> <Gold.Chemscore.DEInternal.Weighted>
2.7168

> <Gold.Chemscore.Rot.Weighted>
5.4642

> <Gold.Chemscore.Internal.Correction.Weighted>
   9.000000E+99

> <Gold.Protein.RotatedTorsions>
[ 6907 6896 6895 6894 ] final -178.63 input  -60.11 | X-H torsion
[ 7974 7965 7964 7962 ] final  150.86 input  175.53 | X-H torsion
[ 8008 7997 7996 7995 ] final -174.06 input   59.86 | X-H torsion
[ 10167 10162 10161 10158 ] final    6.11 input  -65.29 | X-H torsion
[ 10718 10713 10712 10709 ] final  -55.29 input   66.30 | X-H torsion
[ 10763 10752 10751 10750 ] final   25.04 input  -60.55 | X-H torsion
[ 11005 11000 10999 10996 ] final   43.10 input  -57.11 | X-H torsion

> <Gold.Protein.ActiveResidues>
 VAL166  LYS551  ARG553  GLY616  TRP617  ASP618  TYR619  PRO620  LYS621  CYS622 
 ASP623  PHE694  ASN695  SER759  ASP760  ASP761  ALA762  ILE779  LEU786  VAL792 
 PHE793  MET794  SER795  GLU796  ALA797  LYS798  CYS799  TRP800  GLU811  SER814 

> <Gold.Protein.RotatedAtoms>
  151.6404  133.3326  159.3128 H   0  0  0  0  0  0  0  0  0  0  0  0  # atno 6907 bound_to 6896
  150.8011  134.7108  159.6612 H   0  0  0  0  0  0  0  0  0  0  0  0  # atno 6908 bound_to 6896
  152.4103  134.6140  160.0085 H   0  0  0  0  0  0  0  0  0  0  0  0  # atno 6909 bound_to 6896
  144.8333  139.6463  143.6049 H   0  0  0  0  0  0  0  0  0  0  0  0  # atno 7974 bound_to 7965
  155.9653  140.1152  157.0860 H   0  0  0  0  0  0  0  0  0  0  0  0  # atno 8008 bound_to 7997
  154.4142  140.1174  156.5300 H   0  0  0  0  0  0  0  0  0  0  0  0  # atno 8009 bound_to 7997
  155.6668  140.3473  155.4805 H   0  0  0  0  0  0  0  0  0  0  0  0  # atno 8010 bound_to 7997
  140.6445  143.7694  150.7478 H   0  0  0  0  0  0  0  0  0  0  0  0  # atno 10167 bound_to 10162
  156.1381  130.4156  150.0151 H   0  0  0  0  0  0  0  0  0  0  0  0  # atno 10718 bound_to 10713
  153.0720  135.6592  154.0227 H   0  0  0  0  0  0  0  0  0  0  0  0  # atno 10763 bound_to 10752
  153.9870  135.2949  155.3417 H   0  0  0  0  0  0  0  0  0  0  0  0  # atno 10764 bound_to 10752
  154.7097  135.5210  153.8718 H   0  0  0  0  0  0  0  0  0  0  0  0  # atno 10765 bound_to 10752
  140.1676  134.4262  155.8277 H   0  0  0  0  0  0  0  0  0  0  0  0  # atno 11005 bound_to 11000
  146.2635  139.6464  142.9346 LP  0  0  0  0  0  0  0  0  0  0  0  0  # atno 17320 bound_to 7965
  145.4848  141.0438  143.2626 LP  0  0  0  0  0  0  0  0  0  0  0  0  # atno 17321 bound_to 7965
  140.1333  143.4507  152.2241 LP  0  0  0  0  0  0  0  0  0  0  0  0  # atno 17342 bound_to 10162
  139.5655  144.7432  151.4034 LP  0  0  0  0  0  0  0  0  0  0  0  0  # atno 17343 bound_to 10162
  156.8044  130.9302  151.3645 LP  0  0  0  0  0  0  0  0  0  0  0  0  # atno 17370 bound_to 10713
  157.6551  130.8917  149.9711 LP  0  0  0  0  0  0  0  0  0  0  0  0  # atno 17371 bound_to 10713
  141.2215  133.6941  156.7707 LP  0  0  0  0  0  0  0  0  0  0  0  0  # atno 17394 bound_to 11000
  140.2415  134.8610  157.3578 LP  0  0  0  0  0  0  0  0  0  0  0  0  # atno 17395 bound_to 11000

$$$$
