AV-unprocessed.smi:221|AV-procd|sdf|1695|dock9
  -GOLD-   2262020143D 1   1.00000     0.00000
 Structure written by MMmdl.
 50 53  0  0  0  0  0  0  0  0  1 V2000
  150.4463  144.4485  157.9775 N   0  0  0  0  0  0  0  0  0  0  0  0
  150.9642  143.7240  158.9721 C   0  0  0  0  0  0  0  0  0  0  0  0
  150.4037  143.6211  160.0622 O   0  0  0  0  0  0  0  0  0  0  0  0
  152.3050  143.0209  158.6884 C   0  0  1  0  0  0  0  0  0  0  0  0
  153.4153  143.4865  159.6482 C   0  0  0  0  0  0  0  0  0  0  0  0
  153.3730  142.4948  160.8114 C   0  0  1  0  0  0  0  0  0  0  0  0
  152.4537  142.8732  161.7008 F   0  0  0  0  0  0  0  0  0  0  0  0
  152.9424  141.1870  160.1452 C   0  0  0  0  0  0  0  0  0  0  0  0
  152.2413  141.5783  158.9253 N   0  0  0  0  0  0  0  0  0  0  0  0
  151.6887  140.6649  158.0786 C   0  0  0  0  0  0  0  0  0  0  0  0
  151.8850  139.3478  158.3546 N   0  0  0  0  0  0  0  0  0  0  0  0
  151.3712  138.3982  157.5691 C   0  0  0  0  0  0  0  0  0  0  0  0
  150.6387  138.5381  156.4649 N   0  0  0  0  0  0  0  0  0  0  0  0
  150.4365  139.8536  156.1727 C   0  0  0  0  0  0  0  0  0  0  0  0
  150.9173  140.9724  156.9151 C   0  0  0  0  0  0  0  0  0  0  0  0
  150.4990  142.1458  156.2940 N   0  0  0  0  0  0  0  0  0  0  0  0
  149.8141  141.7468  155.2586 C   0  0  0  0  0  0  0  0  0  0  0  0
  149.7354  140.3832  155.1043 N   0  0  0  0  0  0  0  0  0  0  0  0
  149.0479  139.6611  154.0478 C   0  0  0  0  0  0  0  0  0  0  0  0
  147.5067  139.6725  154.2167 C   0  0  2  0  0  0  0  0  0  0  0  0
  146.7965  139.2031  152.9253 C   0  0  0  0  0  0  0  0  0  0  0  0
  145.4641  138.8140  153.1866 O   0  0  0  0  0  0  0  0  0  0  0  0
  146.9481  141.0340  154.7159 C   0  0  1  0  0  0  0  0  0  0  0  0
  146.8928  142.1525  153.6860 C   0  0  0  0  0  0  0  0  0  0  0  0
  145.8361  143.1059  154.2542 C   0  0  0  0  0  0  0  0  0  0  0  0
  145.2147  142.4226  155.3401 O   0  0  0  0  0  0  0  0  0  0  0  0
  145.5176  141.0390  155.2522 C   0  0  0  0  0  0  0  0  0  0  0  0
  152.6194  143.2299  157.6657 H   0  0  0  0  0  0  0  0  0  0  0  0
  154.3219  142.4124  161.3420 H   0  0  0  0  0  0  0  0  0  0  0  0
  149.5675  144.9266  158.1133 H   0  0  0  0  0  0  0  0  0  0  0  0
  150.9313  144.5141  157.0946 H   0  0  0  0  0  0  0  0  0  0  0  0
  154.3797  143.4069  159.1447 H   0  0  0  0  0  0  0  0  0  0  0  0
  153.3093  144.5220  159.9749 H   0  0  0  0  0  0  0  0  0  0  0  0
  153.8174  140.5938  159.8761 H   0  0  0  0  0  0  0  0  0  0  0  0
  152.3144  140.5888  160.8071 H   0  0  0  0  0  0  0  0  0  0  0  0
  151.5779  137.3812  157.8681 H   0  0  0  0  0  0  0  0  0  0  0  0
  149.3528  142.4408  154.5709 H   0  0  0  0  0  0  0  0  0  0  0  0
  149.3488  140.1107  153.1029 H   0  0  0  0  0  0  0  0  0  0  0  0
  149.4233  138.6375  154.0361 H   0  0  0  0  0  0  0  0  0  0  0  0
  147.2668  138.9412  154.9900 H   0  0  0  0  0  0  0  0  0  0  0  0
  146.8031  139.9888  152.1697 H   0  0  0  0  0  0  0  0  0  0  0  0
  147.2987  138.3403  152.4891 H   0  0  0  0  0  0  0  0  0  0  0  0
  144.9067  139.5731  153.1065 H   0  0  0  0  0  0  0  0  0  0  0  0
  147.5916  141.3980  155.5181 H   0  0  0  0  0  0  0  0  0  0  0  0
  147.8604  142.6367  153.5501 H   0  0  0  0  0  0  0  0  0  0  0  0
  146.5666  141.7922  152.7115 H   0  0  0  0  0  0  0  0  0  0  0  0
  146.2827  144.0315  154.6182 H   0  0  0  0  0  0  0  0  0  0  0  0
  145.0944  143.3635  153.4975 H   0  0  0  0  0  0  0  0  0  0  0  0
  144.8172  140.5730  154.5586 H   0  0  0  0  0  0  0  0  0  0  0  0
  145.4241  140.5493  156.2215 H   0  0  0  0  0  0  0  0  0  0  0  0
  1  2  1  0  0  0  0
  1 30  1  0  0  0  0
  1 31  1  0  0  0  0
  2  3  2  0  0  0  0
  2  4  1  0  0  0  0
  4 28  1  0  0  0  0
  4  9  1  0  0  0  0
  4  5  1  0  0  0  0
  5  6  1  0  0  0  0
  5 32  1  0  0  0  0
  5 33  1  0  0  0  0
  6 29  1  0  0  0  0
  6  7  1  0  0  0  0
  6  8  1  0  0  0  0
  8  9  1  0  0  0  0
  8 34  1  0  0  0  0
  8 35  1  0  0  0  0
  9 10  1  0  0  0  0
 10 15  1  0  0  0  0
 10 11  2  0  0  0  0
 11 12  1  0  0  0  0
 12 13  2  0  0  0  0
 12 36  1  0  0  0  0
 13 14  1  0  0  0  0
 14 18  1  0  0  0  0
 14 15  2  0  0  0  0
 15 16  1  0  0  0  0
 16 17  2  0  0  0  0
 17 18  1  0  0  0  0
 17 37  1  0  0  0  0
 18 19  1  0  0  0  0
 19 20  1  0  0  0  0
 19 38  1  0  0  0  0
 19 39  1  0  0  0  0
 20 21  1  0  0  0  0
 20 23  1  0  0  0  0
 20 40  1  0  0  0  0
 21 22  1  0  0  0  0
 21 41  1  0  0  0  0
 21 42  1  0  0  0  0
 22 43  1  0  0  0  0
 23 27  1  0  0  0  0
 23 24  1  0  0  0  0
 23 44  1  0  0  0  0
 24 25  1  0  0  0  0
 24 45  1  0  0  0  0
 24 46  1  0  0  0  0
 25 26  1  0  0  0  0
 25 47  1  0  0  0  0
 25 48  1  0  0  0  0
 26 27  1  0  0  0  0
 27 49  1  0  0  0  0
 27 50  1  0  0  0  0
M  END
> <s_m_source_file>
AV-unprocessed.smi

> <i_m_source_file_index>
221

> <i_lp_mmshare_version>
43012

> <i_f3d_flags>
0

> <s_epik_input>
W05IMl1DKD1PKVtDQEBIXTFbQ0gyXVtDQEBIXShGKVtDSDJdTjFjKG5bY0hdbjIpYyhjMjMpbltjSF1uM1tDSDJdW0NASF0oW0NIMl1bT0hdKVtDQEBIXTRbQ0gyXVtDSDJdT1tDSDJdNA==

> <s_epik_cmdline>
J2VwaWtfcHl0aG9uJywgJy1waCcsICc3LjAnLCAnLXRuJywgJzgnLCAnLW1hJywgJzIwMCcsICctbWV0YWxfYmluZGluZycsICctaW1hZScsICc8aW5maWxlLm1hZT4nLCAnLW9tYWUnLCAnPG91dGZpbGUubWFlPic=

> <r_lp_tautomer_probability>
1

> <r_epik_Ionization_Penalty>
0.000818822

> <r_epik_Ionization_Penalty_Charging>
0

> <r_epik_Ionization_Penalty_Neutral>
0.000818822

> <r_epik_State_Penalty>
0.000440551

> <r_epik_Charging_Adjusted_Penalty>
0.000440551

> <i_epik_Tot_Q>
0

> <i_epik_Tot_abs_Q>
0

> <r_epik_Metal_State_Penalty>
-0

> <b_epik_Metal_Only>
0

> <s_lp_Force_Field>
OPLS_2005

> <r_lp_Energy>
49.0425

> <b_lp_Chiralities_Consistent>
1

> <s_lp_Variant>
AV-unprocessed.smi:221-10

> <Gold.Version>
5.8.1

> <Gold.Id.Protein>
6NUR|6NUR_protein|mol2

> <Gold.PLP.Fitness>
54.9465

> <Gold.PLP.PLP>
-48.8900

> <Gold.PLP.part.hbond>
-4.0000

> <Gold.PLP.part.metal>
0.0000

> <Gold.PLP.part.buried>
-5.4672

> <Gold.PLP.part.nonpolar>
-39.7273

> <Gold.PLP.part.repulsive>
0.6833

> <Gold.PLP.ligand.clash>
0.0000

> <Gold.PLP.ligand.torsion>
0.6351

> <Gold.PLP.Chemscore.Hbond>
1.7114

> <Gold.PLP.Chemscore.CHOScore>
0.6700

> <Gold.PLP.Chemscore.Metal>
0.0000

> <Gold.Chemscore.Hbonds>
donor molecule, donor type, donor heavy atom, donor atom, acceptor molecule, acceptor atom, score
      L1  H     1    30       P1  8029  0.67
      L1  H    22    43       P1 10175  1.00
      L1  C    17    37       P1  8028  0.63

> <Gold.PLP.Chemscore.Internal.Correction>
0.1826

> <Gold.Rescore>
     Score         DG    S(hbond)    S(metal)    S(lipo)     H(rot)  DE(clash)    DE(int)     intcor
      7.92     -12.69       1.52        0.00      90.56       3.31       1.38       3.39       ----

> <Gold.Chemscore.Fitness>
7.9241

> <Gold.Chemscore.DG>
-12.6934

> <Gold.Chemscore.ZeroCoef>
-5.4800

> <Gold.Chemscore.Hbond>
1.5237

> <Gold.Chemscore.Metal>
0.0000

> <Gold.Chemscore.Lipo>
90.5559

> <Gold.Chemscore.Internal_Hbond>
0.0000

> <Gold.Chemscore.DEClash>
1.3839

> <Gold.Chemscore.DEInternal>
3.3854

> <Gold.Chemscore.Rot>
3.3089

> <Gold.Chemscore.Internal.Correction>
   9.000000E+99

> <Gold.Chemscore.Hbonds>
donor molecule, donor type, donor heavy atom, donor atom, acceptor molecule, acceptor atom, score
      L1  H     1    30       P1  8029  0.13
      L1  H    22    43       P1 10175  0.98

> <Gold.Chemscore.Hbond.Weighted>
-5.0893

> <Gold.Chemscore.Metal.Weighted>
-0.0000

> <Gold.Chemscore.Lipo.Weighted>
-10.5950

> <Gold.Chemscore.Internal_Hbond.Weighted>
0.0000

> <Gold.Chemscore.DEClash.Weighted>
1.3839

> <Gold.Chemscore.DEInternal.Weighted>
3.3854

> <Gold.Chemscore.Rot.Weighted>
8.4709

> <Gold.Chemscore.Internal.Correction.Weighted>
   9.000000E+99

> <Gold.Protein.RotatedTorsions>
[ 6907 6896 6895 6894 ] final   98.53 input  -60.11 | X-H torsion
[ 7974 7965 7964 7962 ] final   92.12 input  175.53 | X-H torsion
[ 8008 7997 7996 7995 ] final -114.03 input   59.86 | X-H torsion
[ 10167 10162 10161 10158 ] final  -31.13 input  -65.29 | X-H torsion
[ 10718 10713 10712 10709 ] final  146.56 input   66.30 | X-H torsion
[ 10763 10752 10751 10750 ] final  -27.21 input  -60.55 | X-H torsion
[ 11005 11000 10999 10996 ] final   77.93 input  -57.11 | X-H torsion

> <Gold.Protein.ActiveResidues>
 VAL166  LYS551  ARG553  GLY616  TRP617  ASP618  TYR619  PRO620  LYS621  CYS622 
 ASP623  PHE694  ASN695  SER759  ASP760  ASP761  ALA762  ILE779  LEU786  VAL792 
 PHE793  MET794  SER795  GLU796  ALA797  LYS798  CYS799  TRP800  GLU811  SER814 

> <Gold.Protein.RotatedAtoms>
  152.5407  134.0566  159.8133 H   0  0  0  0  0  0  0  0  0  0  0  0  # atno 6907 bound_to 6896
  151.0700  133.5466  159.2635 H   0  0  0  0  0  0  0  0  0  0  0  0  # atno 6908 bound_to 6896
  151.2333  135.0570  159.9050 H   0  0  0  0  0  0  0  0  0  0  0  0  # atno 6909 bound_to 6896
  145.4966  139.2276  143.2800 H   0  0  0  0  0  0  0  0  0  0  0  0  # atno 7974 bound_to 7965
  155.0299  140.0393  157.2470 H   0  0  0  0  0  0  0  0  0  0  0  0  # atno 8008 bound_to 7997
  154.7306  140.2729  155.6436 H   0  0  0  0  0  0  0  0  0  0  0  0  # atno 8009 bound_to 7997
  156.2840  140.2685  156.2004 H   0  0  0  0  0  0  0  0  0  0  0  0  # atno 8010 bound_to 7997
  140.7240  143.3794  151.1628 H   0  0  0  0  0  0  0  0  0  0  0  0  # atno 10167 bound_to 10162
  157.3317  131.0921  151.1157 H   0  0  0  0  0  0  0  0  0  0  0  0  # atno 10718 bound_to 10713
  153.7283  135.6940  153.4995 H   0  0  0  0  0  0  0  0  0  0  0  0  # atno 10763 bound_to 10752
  153.2154  135.4388  155.0427 H   0  0  0  0  0  0  0  0  0  0  0  0  # atno 10764 bound_to 10752
  154.8261  135.3447  154.6814 H   0  0  0  0  0  0  0  0  0  0  0  0  # atno 10765 bound_to 10752
  139.9233  134.7723  156.1585 H   0  0  0  0  0  0  0  0  0  0  0  0  # atno 11005 bound_to 11000
  146.2252  140.5764  142.9000 LP  0  0  0  0  0  0  0  0  0  0  0  0  # atno 17320 bound_to 7965
  144.7803  140.5827  143.6610 LP  0  0  0  0  0  0  0  0  0  0  0  0  # atno 17321 bound_to 7965
  139.7381  143.8968  152.3041 LP  0  0  0  0  0  0  0  0  0  0  0  0  # atno 17342 bound_to 10162
  139.8779  144.7033  150.8911 LP  0  0  0  0  0  0  0  0  0  0  0  0  # atno 17343 bound_to 10162
  157.2402  130.6566  149.5886 LP  0  0  0  0  0  0  0  0  0  0  0  0  # atno 17370 bound_to 10713
  155.9696  130.4571  150.5948 LP  0  0  0  0  0  0  0  0  0  0  0  0  # atno 17371 bound_to 10713
  141.0772  133.6770  156.2261 LP  0  0  0  0  0  0  0  0  0  0  0  0  # atno 17394 bound_to 11000
  140.6408  134.5167  157.5569 LP  0  0  0  0  0  0  0  0  0  0  0  0  # atno 17395 bound_to 11000

$$$$
