AV-unprocessed.smi:2078|AV-procd|sdf|8469|dock8
  -GOLD-   2272011173D 1   1.00000     0.00000
 Structure written by MMmdl.
 41 42  0  0  0  0  0  0  0  0  3 V2000
  151.0152  141.3345  156.1536 C   0  0  0  0  0  0  0  0  0  0  0  0
  151.3784  140.0086  155.5783 C   0  0  0  0  0  0  0  0  0  0  0  0
  150.7009  138.8275  155.4678 C   0  0  0  0  0  0  0  0  0  0  0  0
  151.6370  137.9757  154.8204 C   0  0  0  0  0  0  0  0  0  0  0  0
  151.4327  136.6958  154.4729 N   0  5  0  0  0  0  0  0  0  0  0  0
  150.5481  135.9364  155.1578 C   0  0  0  0  0  0  0  0  0  0  0  0
  150.6368  135.5927  156.3390 O   0  0  0  0  0  0  0  0  0  0  0  0
  149.4948  135.5454  154.4261 N   0  0  0  0  0  0  0  0  0  0  0  0
  148.3974  134.7095  154.8970 C   0  0  0  0  0  0  0  0  0  0  0  0
  147.7320  133.9514  153.7328 C   0  0  0  0  0  0  0  0  0  0  0  0
  146.8962  134.8388  152.8871 N   0  3  1  0  0  0  0  0  0  0  0  0
  146.1330  134.0806  151.8628 C   0  0  0  0  0  0  0  0  0  0  0  0
  145.3999  135.0300  150.9023 C   0  0  0  0  0  0  0  0  0  0  0  0
  144.4832  135.9920  151.6714 C   0  0  0  0  0  0  0  0  0  0  0  0
  145.2555  136.7355  152.7768 C   0  0  2  0  0  0  0  0  0  0  0  0
  146.1832  137.8313  152.2233 C   0  0  0  0  0  0  0  0  0  0  0  0
  146.0086  135.7349  153.6779 C   0  0  0  0  0  0  0  0  0  0  0  0
  152.7759  138.5899  154.5484 N   0  0  0  0  0  0  0  0  0  0  0  0
  152.6199  139.8933  155.0351 O   0  0  0  0  0  0  0  0  0  0  0  0
  150.4156  141.9091  155.4475 H   0  0  0  0  0  0  0  0  0  0  0  0
  151.9062  141.9152  156.3934 H   0  0  0  0  0  0  0  0  0  0  0  0
  150.4365  141.2127  157.0693 H   0  0  0  0  0  0  0  0  0  0  0  0
  149.6974  138.6064  155.7989 H   0  0  0  0  0  0  0  0  0  0  0  0
  149.4603  135.8509  153.4643 H   0  0  0  0  0  0  0  0  0  0  0  0
  148.7713  134.0299  155.6630 H   0  0  0  0  0  0  0  0  0  0  0  0
  147.6668  135.3548  155.3851 H   0  0  0  0  0  0  0  0  0  0  0  0
  148.5246  133.5126  153.1247 H   0  0  0  0  0  0  0  0  0  0  0  0
  147.1275  133.1181  154.0942 H   0  0  0  0  0  0  0  0  0  0  0  0
  146.8106  133.4485  151.2876 H   0  0  0  0  0  0  0  0  0  0  0  0
  145.4212  133.4165  152.3559 H   0  0  0  0  0  0  0  0  0  0  0  0
  146.1263  135.5940  150.3165 H   0  0  0  0  0  0  0  0  0  0  0  0
  144.8131  134.4533  150.1867 H   0  0  0  0  0  0  0  0  0  0  0  0
  144.0150  136.6999  150.9866 H   0  0  0  0  0  0  0  0  0  0  0  0
  143.6699  135.4223  152.1233 H   0  0  0  0  0  0  0  0  0  0  0  0
  144.5186  137.2444  153.3996 H   0  0  0  0  0  0  0  0  0  0  0  0
  146.9810  137.4179  151.6066 H   0  0  0  0  0  0  0  0  0  0  0  0
  146.6516  138.3912  153.0333 H   0  0  0  0  0  0  0  0  0  0  0  0
  145.6276  138.5443  151.6133 H   0  0  0  0  0  0  0  0  0  0  0  0
  145.2916  135.1254  154.2303 H   0  0  0  0  0  0  0  0  0  0  0  0
  146.5806  136.2853  154.4238 H   0  0  0  0  0  0  0  0  0  0  0  0
  147.5370  135.4315  152.3791 H   0  0  0  0  0  0  0  0  0  0  0  0
  1  2  1  0  0  0  0
  1 20  1  0  0  0  0
  1 21  1  0  0  0  0
  1 22  1  0  0  0  0
  2 19  1  0  0  0  0
  2  3  2  0  0  0  0
  3  4  1  0  0  0  0
  3 23  1  0  0  0  0
  4  5  1  0  0  0  0
  4 18  2  0  0  0  0
  5  6  1  0  0  0  0
  6  7  2  0  0  0  0
  6  8  1  0  0  0  0
  8  9  1  0  0  0  0
  8 24  1  0  0  0  0
  9 10  1  0  0  0  0
  9 25  1  0  0  0  0
  9 26  1  0  0  0  0
 10 11  1  0  0  0  0
 10 27  1  0  0  0  0
 10 28  1  0  0  0  0
 11 17  1  0  0  0  0
 11 12  1  0  0  0  0
 11 41  1  0  0  0  0
 12 13  1  0  0  0  0
 12 29  1  0  0  0  0
 12 30  1  0  0  0  0
 13 14  1  0  0  0  0
 13 31  1  0  0  0  0
 13 32  1  0  0  0  0
 14 15  1  0  0  0  0
 14 33  1  0  0  0  0
 14 34  1  0  0  0  0
 15 16  1  0  0  0  0
 15 17  1  0  0  0  0
 15 35  1  0  0  0  0
 16 36  1  0  0  0  0
 16 37  1  0  0  0  0
 16 38  1  0  0  0  0
 17 39  1  0  0  0  0
 17 40  1  0  0  0  0
 18 19  1  0  0  0  0
M  CHG  1   5  -1
M  CHG  1  11   1
M  END
> <s_m_source_file>
AV-unprocessed.smi

> <i_m_source_file_index>
2078

> <i_lp_mmshare_version>
43012

> <i_f3d_flags>
0

> <s_epik_input>
W0NIM11jMVtjSF1jKG5vMSlbTkhdQyg9TylbTkhdW0NIMl1bQ0gyXU4yW0NIMl1bQ0gyXVtDSDJdW0NAQEhdKFtDSDNdKVtDSDJdMg==

> <s_epik_cmdline>
J2VwaWtfcHl0aG9uJywgJy1waCcsICc3LjAnLCAnLXRuJywgJzgnLCAnLW1hJywgJzIwMCcsICctbWV0YWxfYmluZGluZycsICctaW1hZScsICc8aW5maWxlLm1hZT4nLCAnLW9tYWUnLCAnPG91dGZpbGUubWFlPic=

> <r_epik_Ionization_Penalty>
6.22434

> <r_epik_Ionization_Penalty_Charging>
6.22425

> <r_epik_Ionization_Penalty_Neutral>
9.37855e-05

> <r_epik_State_Penalty>
6.22423

> <r_epik_Charging_Adjusted_Penalty>
12.4485

> <i_epik_Tot_Q>
0

> <i_epik_Tot_abs_Q>
2

> <r_epik_Metal_State_Penalty>
2.16764

> <b_epik_Metal_Only>
1

> <s_lp_Force_Field>
OPLS_2005

> <r_lp_Energy>
5.82233

> <b_lp_Chiralities_Consistent>
1

> <s_lp_Variant>
AV-unprocessed.smi:2078-7

> <Gold.Version>
5.8.1

> <Gold.Id.Protein>
6NUR|6NUR_protein|mol2

> <Gold.PLP.Fitness>
46.9892

> <Gold.PLP.PLP>
-30.8510

> <Gold.PLP.part.hbond>
-5.0000

> <Gold.PLP.part.metal>
0.0000

> <Gold.PLP.part.buried>
-2.3186

> <Gold.PLP.part.nonpolar>
-23.0648

> <Gold.PLP.part.repulsive>
0.4946

> <Gold.PLP.ligand.clash>
0.0000

> <Gold.PLP.ligand.torsion>
1.0418

> <Gold.PLP.Chemscore.Hbond>
6.0519

> <Gold.PLP.Chemscore.CHOScore>
0.0000

> <Gold.PLP.Chemscore.Metal>
0.0000

> <Gold.Chemscore.Hbonds>
donor molecule, donor type, donor heavy atom, donor atom, acceptor molecule, acceptor atom, score
      L1  H     8    24       P1  7948  1.00
      L1  H    11    41       P1  7948  2.00
      P1  H  7989  7998       L1    19  0.03
      P1  H  7997  8009       L1    19  0.98
      P1  H 10752 10763       L1     5  2.00

> <Gold.PLP.Chemscore.Internal.Correction>
0.0662

> <Gold.Rescore>
     Score         DG    S(hbond)    S(metal)    S(lipo)     H(rot)  DE(clash)    DE(int)     intcor
     17.26     -18.31       3.09        0.00      55.15       1.54       0.04       1.00       ----

> <Gold.Chemscore.Fitness>
17.2645

> <Gold.Chemscore.DG>
-18.3118

> <Gold.Chemscore.ZeroCoef>
-5.4800

> <Gold.Chemscore.Hbond>
3.0911

> <Gold.Chemscore.Metal>
0.0000

> <Gold.Chemscore.Lipo>
55.1464

> <Gold.Chemscore.Internal_Hbond>
0.0000

> <Gold.Chemscore.DEClash>
0.0430

> <Gold.Chemscore.DEInternal>
1.0043

> <Gold.Chemscore.Rot>
1.5409

> <Gold.Chemscore.Internal.Correction>
   9.000000E+99

> <Gold.Chemscore.Hbonds>
donor molecule, donor type, donor heavy atom, donor atom, acceptor molecule, acceptor atom, score
      L1  H     8    24       P1  7948  0.35
      L1  H    11    41       P1  7948  1.00
      P1  H  7997  8009       L1    19  0.28
      P1  H 10752 10763       L1     5  0.60

> <Gold.Chemscore.Hbond.Weighted>
-10.3243

> <Gold.Chemscore.Metal.Weighted>
-0.0000

> <Gold.Chemscore.Lipo.Weighted>
-6.4521

> <Gold.Chemscore.Internal_Hbond.Weighted>
0.0000

> <Gold.Chemscore.DEClash.Weighted>
0.0430

> <Gold.Chemscore.DEInternal.Weighted>
1.0043

> <Gold.Chemscore.Rot.Weighted>
3.9446

> <Gold.Chemscore.Internal.Correction.Weighted>
   9.000000E+99

> <Gold.Protein.RotatedTorsions>
[ 6907 6896 6895 6894 ] final  -18.70 input  -60.11 | X-H torsion
[ 7974 7965 7964 7962 ] final  153.37 input  175.53 | X-H torsion
[ 8008 7997 7996 7995 ] final -139.81 input   59.86 | X-H torsion
[ 10167 10162 10161 10158 ] final -101.39 input  -65.29 | X-H torsion
[ 10718 10713 10712 10709 ] final  135.97 input   66.30 | X-H torsion
[ 10763 10752 10751 10750 ] final   33.24 input  -60.55 | X-H torsion
[ 11005 11000 10999 10996 ] final   72.14 input  -57.11 | X-H torsion

> <Gold.Protein.ActiveResidues>
 VAL166  LYS551  ARG553  GLY616  TRP617  ASP618  TYR619  PRO620  LYS621  CYS622 
 ASP623  PHE694  ASN695  SER759  ASP760  ASP761  ALA762  ILE779  LEU786  VAL792 
 PHE793  MET794  SER795  GLU796  ALA797  LYS798  CYS799  TRP800  GLU811  SER814 

> <Gold.Protein.RotatedAtoms>
  151.2742  135.0694  159.9144 H   0  0  0  0  0  0  0  0  0  0  0  0  # atno 6907 bound_to 6896
  152.5345  134.0099  159.7944 H   0  0  0  0  0  0  0  0  0  0  0  0  # atno 6908 bound_to 6896
  151.0342  133.5713  159.2688 H   0  0  0  0  0  0  0  0  0  0  0  0  # atno 6909 bound_to 6896
  144.8159  139.6792  143.6121 H   0  0  0  0  0  0  0  0  0  0  0  0  # atno 7974 bound_to 7965
  155.4511  140.0539  157.3001 H   0  0  0  0  0  0  0  0  0  0  0  0  # atno 8008 bound_to 7997
  154.4777  140.2068  155.9794 H   0  0  0  0  0  0  0  0  0  0  0  0  # atno 8009 bound_to 7997
  156.1157  140.3196  155.8141 H   0  0  0  0  0  0  0  0  0  0  0  0  # atno 8010 bound_to 7997
  140.2418  143.3534  152.0795 H   0  0  0  0  0  0  0  0  0  0  0  0  # atno 10167 bound_to 10162
  157.4515  131.1066  151.0028 H   0  0  0  0  0  0  0  0  0  0  0  0  # atno 10718 bound_to 10713
  153.0222  135.6392  154.1480 H   0  0  0  0  0  0  0  0  0  0  0  0  # atno 10763 bound_to 10752
  154.1213  135.2846  155.3209 H   0  0  0  0  0  0  0  0  0  0  0  0  # atno 10764 bound_to 10752
  154.6261  135.5508  153.7691 H   0  0  0  0  0  0  0  0  0  0  0  0  # atno 10765 bound_to 10752
  139.9506  134.7234  156.0872 H   0  0  0  0  0  0  0  0  0  0  0  0  # atno 11005 bound_to 11000
  146.2462  139.6103  142.9458 LP  0  0  0  0  0  0  0  0  0  0  0  0  # atno 17320 bound_to 7965
  145.5216  141.0431  143.2432 LP  0  0  0  0  0  0  0  0  0  0  0  0  # atno 17321 bound_to 7965
  139.5075  144.6833  151.5953 LP  0  0  0  0  0  0  0  0  0  0  0  0  # atno 17342 bound_to 10162
  140.6108  143.9440  150.6452 LP  0  0  0  0  0  0  0  0  0  0  0  0  # atno 17343 bound_to 10162
  157.0856  130.5921  149.5429 LP  0  0  0  0  0  0  0  0  0  0  0  0  # atno 17370 bound_to 10713
  155.9989  130.5064  150.7588 LP  0  0  0  0  0  0  0  0  0  0  0  0  # atno 17371 bound_to 10713
  141.1168  133.6625  156.3114 LP  0  0  0  0  0  0  0  0  0  0  0  0  # atno 17394 bound_to 11000
  140.5728  134.5823  157.5461 LP  0  0  0  0  0  0  0  0  0  0  0  0  # atno 17395 bound_to 11000

$$$$
