AV-unprocessed.smi:146|AV-procd|sdf|1199|dock1
  -GOLD-   2262018353D 1   1.00000     0.00000
 Structure written by MMmdl.
 55 59  0  0  0  0  0  0  0  0  1 V2000
  143.1092  145.5269  157.7787 C   0  0  0  0  0  0  0  0  0  0  0  0
  144.0218  144.3602  158.1874 C   0  0  0  0  0  0  0  0  0  0  0  0
  143.1432  143.1440  158.5458 C   0  0  0  0  0  0  0  0  0  0  0  0
  144.9861  144.0322  157.0312 C   0  0  0  0  0  0  0  0  0  0  0  0
  146.0457  143.1417  157.4850 N   0  0  0  0  0  0  0  0  0  0  0  0
  146.7075  142.4820  156.5003 C   0  0  0  0  0  0  0  0  0  0  0  0
  146.0316  142.0351  155.4079 N   0  0  0  0  0  0  0  0  0  0  0  0
  146.6717  141.3687  154.4428 C   0  0  0  0  0  0  0  0  0  0  0  0
  147.9640  141.0456  154.3679 N   0  0  0  0  0  0  0  0  0  0  0  0
  148.6521  141.5027  155.4530 C   0  0  0  0  0  0  0  0  0  0  0  0
  148.1070  142.2229  156.5537 C   0  0  0  0  0  0  0  0  0  0  0  0
  149.1132  142.5234  157.4642 N   0  0  0  0  0  0  0  0  0  0  0  0
  150.1858  141.9958  156.9412 C   0  0  0  0  0  0  0  0  0  0  0  0
  150.0034  141.3727  155.7266 N   0  0  0  0  0  0  0  0  0  0  0  0
  151.0140  140.6956  154.9251 C   0  0  0  0  0  0  0  0  0  0  0  0
  151.0405  139.1548  155.0725 C   0  0  0  0  0  0  0  0  0  0  0  0
  149.6659  138.6126  154.6572 C   0  0  0  0  0  0  0  0  0  0  0  0
  149.6721  138.1665  153.3162 O   0  0  0  0  0  0  0  0  0  0  0  0
  152.2641  138.4005  154.5225 C   0  0  0  0  0  0  0  0  0  0  0  0
  152.8520  138.2896  155.8361 O   0  0  0  0  0  0  0  0  0  0  0  0
  151.5718  138.6211  156.4133 C   0  0  0  0  0  0  0  0  0  0  0  0
  146.8183  143.7200  158.5773 C   0  0  0  0  0  0  0  0  0  0  0  0
  145.9012  144.0987  159.7639 C   0  0  2  0  0  0  0  0  0  0  0  0
  146.6486  144.9840  160.7541 C   0  0  0  0  0  0  0  0  0  0  0  0
  147.2992  143.9800  161.6924 C   0  0  0  0  0  0  0  0  0  0  0  0
  146.2837  143.0087  161.8662 O   0  0  0  0  0  0  0  0  0  0  0  0
  145.5360  142.8935  160.6584 C   0  0  0  0  0  0  0  0  0  0  0  0
  144.7609  144.8470  159.3183 O   0  0  0  0  0  0  0  0  0  0  0  0
  142.5085  145.2749  156.9040 H   0  0  0  0  0  0  0  0  0  0  0  0
  143.6907  146.4166  157.5342 H   0  0  0  0  0  0  0  0  0  0  0  0
  142.4251  145.7942  158.5847 H   0  0  0  0  0  0  0  0  0  0  0  0
  142.4821  142.8847  157.7184 H   0  0  0  0  0  0  0  0  0  0  0  0
  142.5168  143.3510  159.4139 H   0  0  0  0  0  0  0  0  0  0  0  0
  143.7334  142.2545  158.7612 H   0  0  0  0  0  0  0  0  0  0  0  0
  144.4288  143.6144  156.1936 H   0  0  0  0  0  0  0  0  0  0  0  0
  145.4503  144.9480  156.6623 H   0  0  0  0  0  0  0  0  0  0  0  0
  146.0603  141.0470  153.6126 H   0  0  0  0  0  0  0  0  0  0  0  0
  151.1448  142.0480  157.4345 H   0  0  0  0  0  0  0  0  0  0  0  0
  150.8466  140.9695  153.8829 H   0  0  0  0  0  0  0  0  0  0  0  0
  151.9794  141.1279  155.1892 H   0  0  0  0  0  0  0  0  0  0  0  0
  149.3722  137.7712  155.2855 H   0  0  0  0  0  0  0  0  0  0  0  0
  148.8916  139.3716  154.7744 H   0  0  0  0  0  0  0  0  0  0  0  0
  149.4075  138.8829  152.7596 H   0  0  0  0  0  0  0  0  0  0  0  0
  152.0249  137.4203  154.1065 H   0  0  0  0  0  0  0  0  0  0  0  0
  152.8809  138.9673  153.8267 H   0  0  0  0  0  0  0  0  0  0  0  0
  151.6401  139.3657  157.2049 H   0  0  0  0  0  0  0  0  0  0  0  0
  151.0533  137.7310  156.7737 H   0  0  0  0  0  0  0  0  0  0  0  0
  147.5923  143.0263  158.9081 H   0  0  0  0  0  0  0  0  0  0  0  0
  147.3266  144.6090  158.2004 H   0  0  0  0  0  0  0  0  0  0  0  0
  147.3657  145.6593  160.2865 H   0  0  0  0  0  0  0  0  0  0  0  0
  145.9434  145.5939  161.3211 H   0  0  0  0  0  0  0  0  0  0  0  0
  148.1743  143.5201  161.2311 H   0  0  0  0  0  0  0  0  0  0  0  0
  147.6009  144.4215  162.6423 H   0  0  0  0  0  0  0  0  0  0  0  0
  144.4812  142.8973  160.9312 H   0  0  0  0  0  0  0  0  0  0  0  0
  145.7515  141.9420  160.1711 H   0  0  0  0  0  0  0  0  0  0  0  0
  1  2  1  0  0  0  0
  1 29  1  0  0  0  0
  1 30  1  0  0  0  0
  1 31  1  0  0  0  0
  2 28  1  0  0  0  0
  2  3  1  0  0  0  0
  2  4  1  0  0  0  0
  3 32  1  0  0  0  0
  3 33  1  0  0  0  0
  3 34  1  0  0  0  0
  4  5  1  0  0  0  0
  4 35  1  0  0  0  0
  4 36  1  0  0  0  0
  5  6  1  0  0  0  0
  5 22  1  0  0  0  0
  6 11  1  0  0  0  0
  6  7  2  0  0  0  0
  7  8  1  0  0  0  0
  8  9  2  0  0  0  0
  8 37  1  0  0  0  0
  9 10  1  0  0  0  0
 10 14  1  0  0  0  0
 10 11  2  0  0  0  0
 11 12  1  0  0  0  0
 12 13  2  0  0  0  0
 13 14  1  0  0  0  0
 13 38  1  0  0  0  0
 14 15  1  0  0  0  0
 15 16  1  0  0  0  0
 15 39  1  0  0  0  0
 15 40  1  0  0  0  0
 16 21  1  0  0  0  0
 16 17  1  0  0  0  0
 16 19  1  0  0  0  0
 17 18  1  0  0  0  0
 17 41  1  0  0  0  0
 17 42  1  0  0  0  0
 18 43  1  0  0  0  0
 19 20  1  0  0  0  0
 19 44  1  0  0  0  0
 19 45  1  0  0  0  0
 20 21  1  0  0  0  0
 21 46  1  0  0  0  0
 21 47  1  0  0  0  0
 22 23  1  0  0  0  0
 22 48  1  0  0  0  0
 22 49  1  0  0  0  0
 23 27  1  0  0  0  0
 23 24  1  0  0  0  0
 23 28  1  0  0  0  0
 24 25  1  0  0  0  0
 24 50  1  0  0  0  0
 24 51  1  0  0  0  0
 25 26  1  0  0  0  0
 25 52  1  0  0  0  0
 25 53  1  0  0  0  0
 26 27  1  0  0  0  0
 27 54  1  0  0  0  0
 27 55  1  0  0  0  0
M  END
> <s_m_source_file>
AV-unprocessed.smi

> <i_m_source_file_index>
146

> <i_lp_mmshare_version>
43012

> <i_f3d_flags>
0

> <s_epik_input>
W0NIMl0xT1tDSDJdW0NIMl1bQ0BAXTEyW0NIMl1OKFtDSDJdQyhPMikoW0NIM10pW0NIM10pYyhuW2NIXW4zKWMoYzM0KW5bY0hdbjRbQ0gyXUM1KFtDSDJdW09IXSlbQ0gyXU9bQ0gyXTU=

> <s_epik_cmdline>
J2VwaWtfcHl0aG9uJywgJy1waCcsICc3LjAnLCAnLXRuJywgJzgnLCAnLW1hJywgJzIwMCcsICctbWV0YWxfYmluZGluZycsICctaW1hZScsICc8aW5maWxlLm1hZT4nLCAnLW9tYWUnLCAnPG91dGZpbGUubWFlPic=

> <r_lp_tautomer_probability>
1

> <r_epik_Ionization_Penalty>
0.00353822

> <r_epik_Ionization_Penalty_Charging>
0

> <r_epik_Ionization_Penalty_Neutral>
0.00353822

> <r_epik_State_Penalty>
0.0023805

> <r_epik_Charging_Adjusted_Penalty>
0.0023805

> <i_epik_Tot_Q>
0

> <i_epik_Tot_abs_Q>
0

> <r_epik_Metal_State_Penalty>
-0

> <b_epik_Metal_Only>
0

> <s_lp_Force_Field>
OPLS_2005

> <r_lp_Energy>
56.8345

> <b_lp_Chiralities_Consistent>
1

> <s_lp_Variant>
AV-unprocessed.smi:146-1

> <Gold.Version>
5.8.1

> <Gold.Id.Protein>
6NUR|6NUR_protein|mol2

> <Gold.PLP.Fitness>
39.4080

> <Gold.PLP.PLP>
-32.9267

> <Gold.PLP.part.hbond>
-5.0775

> <Gold.PLP.part.metal>
0.0000

> <Gold.PLP.part.buried>
-3.9031

> <Gold.PLP.part.nonpolar>
-24.9986

> <Gold.PLP.part.repulsive>
0.4843

> <Gold.PLP.ligand.clash>
0.0000

> <Gold.PLP.ligand.torsion>
1.4374

> <Gold.PLP.Chemscore.Hbond>
1.9920

> <Gold.PLP.Chemscore.CHOScore>
0.9207

> <Gold.PLP.Chemscore.Metal>
0.0000

> <Gold.Chemscore.Hbonds>
donor molecule, donor type, donor heavy atom, donor atom, acceptor molecule, acceptor atom, score
      L1  H    18    43       P1  7957  1.00
      P1  H  7997  8008       L1    20  0.05
      L1  C     8    37       P1 10175  0.61

> <Gold.PLP.Chemscore.Internal.Correction>
0.6181

> <Gold.Rescore>
     Score         DG    S(hbond)    S(metal)    S(lipo)     H(rot)  DE(clash)    DE(int)     intcor
      4.29      -9.64       0.97        0.00      61.14       2.44       1.34       4.00       ----

> <Gold.Chemscore.Fitness>
4.2923

> <Gold.Chemscore.DG>
-9.6385

> <Gold.Chemscore.ZeroCoef>
-5.4800

> <Gold.Chemscore.Hbond>
0.9716

> <Gold.Chemscore.Metal>
0.0000

> <Gold.Chemscore.Lipo>
61.1423

> <Gold.Chemscore.Internal_Hbond>
0.0000

> <Gold.Chemscore.DEClash>
1.3432

> <Gold.Chemscore.DEInternal>
4.0030

> <Gold.Chemscore.Rot>
2.4376

> <Gold.Chemscore.Internal.Correction>
   9.000000E+99

> <Gold.Chemscore.Hbonds>
donor molecule, donor type, donor heavy atom, donor atom, acceptor molecule, acceptor atom, score
      L1  H    18    43       P1  7957  0.90
      P1  H  7997  8008       L1    20  0.05

> <Gold.Chemscore.Hbond.Weighted>
-3.2450

> <Gold.Chemscore.Metal.Weighted>
-0.0000

> <Gold.Chemscore.Lipo.Weighted>
-7.1536

> <Gold.Chemscore.Internal_Hbond.Weighted>
0.0000

> <Gold.Chemscore.DEClash.Weighted>
1.3432

> <Gold.Chemscore.DEInternal.Weighted>
4.0030

> <Gold.Chemscore.Rot.Weighted>
6.2402

> <Gold.Chemscore.Internal.Correction.Weighted>
   9.000000E+99

> <Gold.Protein.RotatedTorsions>
[ 6907 6896 6895 6894 ] final   13.22 input  -60.11 | X-H torsion
[ 7974 7965 7964 7962 ] final  127.25 input  175.53 | X-H torsion
[ 8008 7997 7996 7995 ] final  -46.97 input   59.86 | X-H torsion
[ 10167 10162 10161 10158 ] final  -11.72 input  -65.29 | X-H torsion
[ 10718 10713 10712 10709 ] final -166.36 input   66.30 | X-H torsion
[ 10763 10752 10751 10750 ] final  -36.40 input  -60.55 | X-H torsion
[ 11005 11000 10999 10996 ] final  -24.99 input  -57.11 | X-H torsion

> <Gold.Protein.ActiveResidues>
 VAL166  LYS551  ARG553  GLY616  TRP617  ASP618  TYR619  PRO620  LYS621  CYS622 
 ASP623  PHE694  ASN695  SER759  ASP760  ASP761  ALA762  ILE779  LEU786  VAL792 
 PHE793  MET794  SER795  GLU796  ALA797  LYS798  CYS799  TRP800  GLU811  SER814 

> <Gold.Protein.RotatedAtoms>
  151.7829  135.0757  160.0376 H   0  0  0  0  0  0  0  0  0  0  0  0  # atno 6907 bound_to 6896
  152.3210  133.5850  159.5753 H   0  0  0  0  0  0  0  0  0  0  0  0  # atno 6908 bound_to 6896
  150.7370  133.9927  159.3654 H   0  0  0  0  0  0  0  0  0  0  0  0  # atno 6909 bound_to 6896
  145.0527  139.3869  143.5046 H   0  0  0  0  0  0  0  0  0  0  0  0  # atno 7974 bound_to 7965
  154.4012  140.1358  156.4099 H   0  0  0  0  0  0  0  0  0  0  0  0  # atno 8008 bound_to 7997
  155.7743  140.3483  155.5243 H   0  0  0  0  0  0  0  0  0  0  0  0  # atno 8009 bound_to 7997
  155.8736  140.0976  157.1524 H   0  0  0  0  0  0  0  0  0  0  0  0  # atno 8010 bound_to 7997
  140.7145  143.5610  150.9196 H   0  0  0  0  0  0  0  0  0  0  0  0  # atno 10167 bound_to 10162
  156.6668  130.9068  151.3038 H   0  0  0  0  0  0  0  0  0  0  0  0  # atno 10718 bound_to 10713
  153.8790  135.6823  153.4768 H   0  0  0  0  0  0  0  0  0  0  0  0  # atno 10763 bound_to 10752
  153.1244  135.4725  154.9246 H   0  0  0  0  0  0  0  0  0  0  0  0  # atno 10764 bound_to 10752
  154.7678  135.3229  154.8203 H   0  0  0  0  0  0  0  0  0  0  0  0  # atno 10765 bound_to 10752
  140.8896  133.7597  156.0405 H   0  0  0  0  0  0  0  0  0  0  0  0  # atno 11005 bound_to 11000
  146.3519  140.0185  142.8660 LP  0  0  0  0  0  0  0  0  0  0  0  0  # atno 17320 bound_to 7965
  145.1507  140.9621  143.4434 LP  0  0  0  0  0  0  0  0  0  0  0  0  # atno 17321 bound_to 7965
  139.9335  143.6465  152.3071 LP  0  0  0  0  0  0  0  0  0  0  0  0  # atno 17342 bound_to 10162
  139.6924  144.7645  151.1414 LP  0  0  0  0  0  0  0  0  0  0  0  0  # atno 17343 bound_to 10162
  157.7091  130.9419  150.1028 LP  0  0  0  0  0  0  0  0  0  0  0  0  # atno 17370 bound_to 10713
  156.1969  130.3658  149.8838 LP  0  0  0  0  0  0  0  0  0  0  0  0  # atno 17371 bound_to 10713
  140.8362  134.3120  157.5330 LP  0  0  0  0  0  0  0  0  0  0  0  0  # atno 17394 bound_to 11000
  139.8728  134.9391  156.3732 LP  0  0  0  0  0  0  0  0  0  0  0  0  # atno 17395 bound_to 11000

$$$$
