AV-unprocessed.smi:249|AV-procd|sdf|1929|dock4
  -GOLD-   2262021 43D 1   1.00000     0.00000
 Structure written by MMmdl.
 64 67  0  0  0  0  0  0  0  0  2 V2000
  144.3999  135.8718  151.3464 C   0  0  0  0  0  0  0  0  0  0  0  0
  145.9099  136.0565  151.1221 C   0  0  0  0  0  0  0  0  0  0  0  0
  146.5179  137.0924  152.0071 N   0  3  1  0  0  0  0  0  0  0  0  0
  146.4036  138.4567  151.4136 C   0  0  0  0  0  0  0  0  0  0  0  0
  147.1288  139.5179  152.2518 C   0  0  0  0  0  0  0  0  0  0  0  0
  146.5809  139.5317  153.6844 C   0  0  2  0  0  0  0  0  0  0  0  0
  147.2040  140.5681  154.5157 N   0  0  0  0  0  0  0  0  0  0  0  0
  146.3922  141.3362  155.4588 C   0  0  0  0  0  0  0  0  0  0  0  0
  148.4894  140.3244  154.8790 C   0  0  0  0  0  0  0  0  0  0  0  0
  149.2252  139.4191  154.1807 N   0  0  0  0  0  0  0  0  0  0  0  0
  150.4987  139.1874  154.5113 C   0  0  0  0  0  0  0  0  0  0  0  0
  151.2187  139.7366  155.4905 N   0  0  0  0  0  0  0  0  0  0  0  0
  150.4828  140.6329  156.2084 C   0  0  0  0  0  0  0  0  0  0  0  0
  149.1256  140.9887  155.9655 C   0  0  0  0  0  0  0  0  0  0  0  0
  148.7142  141.9436  156.8872 N   0  0  0  0  0  0  0  0  0  0  0  0
  149.7715  142.1504  157.6232 C   0  0  0  0  0  0  0  0  0  0  0  0
  150.8711  141.3836  157.3069 N   0  0  0  0  0  0  0  0  0  0  0  0
  152.1739  141.4306  157.9570 C   0  0  0  0  0  0  0  0  0  0  0  0
  152.2027  142.2082  159.3046 C   0  0  1  0  0  0  0  0  0  0  0  0
  152.9989  141.3852  160.3455 C   0  0  0  0  0  0  0  0  0  0  0  0
  154.3508  141.2484  159.9577 O   0  0  0  0  0  0  0  0  0  0  0  0
  152.7909  143.6497  159.2036 C   0  0  1  0  0  0  0  0  0  0  0  0
  152.3156  144.5037  158.0367 C   0  0  0  0  0  0  0  0  0  0  0  0
  150.9576  145.0103  158.5094 C   0  0  0  0  0  0  0  0  0  0  0  0
  151.0689  145.1042  159.9255 O   0  0  0  0  0  0  0  0  0  0  0  0
  152.3157  144.5590  160.3481 C   0  0  0  0  0  0  0  0  0  0  0  0
  146.7249  138.1255  154.2825 C   0  0  0  0  0  0  0  0  0  0  0  0
  146.0122  137.0603  153.4200 C   0  0  2  0  0  0  0  0  0  0  0  0
  146.1846  135.6853  154.0995 C   0  0  0  0  0  0  0  0  0  0  0  0
  143.9789  135.2244  150.5770 H   0  0  0  0  0  0  0  0  0  0  0  0
  143.8735  136.8254  151.2958 H   0  0  0  0  0  0  0  0  0  0  0  0
  144.1736  135.4066  152.3050 H   0  0  0  0  0  0  0  0  0  0  0  0
  146.4334  135.1072  151.2454 H   0  0  0  0  0  0  0  0  0  0  0  0
  146.0184  136.3354  150.0767 H   0  0  0  0  0  0  0  0  0  0  0  0
  146.8321  138.4791  150.4132 H   0  0  0  0  0  0  0  0  0  0  0  0
  145.3496  138.7202  151.3097 H   0  0  0  0  0  0  0  0  0  0  0  0
  148.1995  139.3104  152.2524 H   0  0  0  0  0  0  0  0  0  0  0  0
  147.0008  140.4980  151.7906 H   0  0  0  0  0  0  0  0  0  0  0  0
  145.5126  139.7350  153.6149 H   0  0  0  0  0  0  0  0  0  0  0  0
  146.9618  142.1729  155.8656 H   0  0  0  0  0  0  0  0  0  0  0  0
  146.0626  140.7127  156.2906 H   0  0  0  0  0  0  0  0  0  0  0  0
  145.5107  141.7541  154.9744 H   0  0  0  0  0  0  0  0  0  0  0  0
  151.0149  138.4585  153.9041 H   0  0  0  0  0  0  0  0  0  0  0  0
  149.7732  142.8641  158.4343 H   0  0  0  0  0  0  0  0  0  0  0  0
  152.4700  140.3919  158.1054 H   0  0  0  0  0  0  0  0  0  0  0  0
  152.9062  141.8490  157.2652 H   0  0  0  0  0  0  0  0  0  0  0  0
  151.1860  142.2980  159.6853 H   0  0  0  0  0  0  0  0  0  0  0  0
  152.9507  141.8566  161.3276 H   0  0  0  0  0  0  0  0  0  0  0  0
  152.5981  140.3800  160.4634 H   0  0  0  0  0  0  0  0  0  0  0  0
  154.5088  140.3452  159.7287 H   0  0  0  0  0  0  0  0  0  0  0  0
  153.8795  143.5825  159.1899 H   0  0  0  0  0  0  0  0  0  0  0  0
  152.9899  145.3535  157.9211 H   0  0  0  0  0  0  0  0  0  0  0  0
  152.2892  144.0061  157.0728 H   0  0  0  0  0  0  0  0  0  0  0  0
  150.6953  145.9702  158.0644 H   0  0  0  0  0  0  0  0  0  0  0  0
  150.1716  144.2951  158.2643 H   0  0  0  0  0  0  0  0  0  0  0  0
  152.2116  144.0609  161.3108 H   0  0  0  0  0  0  0  0  0  0  0  0
  153.0176  145.3832  160.4849 H   0  0  0  0  0  0  0  0  0  0  0  0
  147.7775  137.8573  154.3777 H   0  0  0  0  0  0  0  0  0  0  0  0
  146.3112  138.1224  155.2921 H   0  0  0  0  0  0  0  0  0  0  0  0
  144.9466  137.2954  153.4004 H   0  0  0  0  0  0  0  0  0  0  0  0
  145.9647  135.7484  155.1658 H   0  0  0  0  0  0  0  0  0  0  0  0
  147.2049  135.3144  153.9978 H   0  0  0  0  0  0  0  0  0  0  0  0
  145.5044  134.9344  153.6994 H   0  0  0  0  0  0  0  0  0  0  0  0
  147.5042  136.8802  152.0580 H   0  0  0  0  0  0  0  0  0  0  0  0
  1  2  1  0  0  0  0
  1 30  1  0  0  0  0
  1 31  1  0  0  0  0
  1 32  1  0  0  0  0
  2  3  1  0  0  0  0
  2 33  1  0  0  0  0
  2 34  1  0  0  0  0
  3 28  1  0  0  0  0
  3  4  1  0  0  0  0
  3 64  1  0  0  0  0
  4  5  1  0  0  0  0
  4 35  1  0  0  0  0
  4 36  1  0  0  0  0
  5  6  1  0  0  0  0
  5 37  1  0  0  0  0
  5 38  1  0  0  0  0
  6  7  1  0  0  0  0
  6 27  1  0  0  0  0
  6 39  1  0  0  0  0
  7  8  1  0  0  0  0
  7  9  1  0  0  0  0
  8 40  1  0  0  0  0
  8 41  1  0  0  0  0
  8 42  1  0  0  0  0
  9 14  1  0  0  0  0
  9 10  2  0  0  0  0
 10 11  1  0  0  0  0
 11 12  2  0  0  0  0
 11 43  1  0  0  0  0
 12 13  1  0  0  0  0
 13 17  1  0  0  0  0
 13 14  2  0  0  0  0
 14 15  1  0  0  0  0
 15 16  2  0  0  0  0
 16 17  1  0  0  0  0
 16 44  1  0  0  0  0
 17 18  1  0  0  0  0
 18 19  1  0  0  0  0
 18 45  1  0  0  0  0
 18 46  1  0  0  0  0
 19 20  1  0  0  0  0
 19 22  1  0  0  0  0
 19 47  1  0  0  0  0
 20 21  1  0  0  0  0
 20 48  1  0  0  0  0
 20 49  1  0  0  0  0
 21 50  1  0  0  0  0
 22 26  1  0  0  0  0
 22 23  1  0  0  0  0
 22 51  1  0  0  0  0
 23 24  1  0  0  0  0
 23 52  1  0  0  0  0
 23 53  1  0  0  0  0
 24 25  1  0  0  0  0
 24 54  1  0  0  0  0
 24 55  1  0  0  0  0
 25 26  1  0  0  0  0
 26 56  1  0  0  0  0
 26 57  1  0  0  0  0
 27 28  1  0  0  0  0
 27 58  1  0  0  0  0
 27 59  1  0  0  0  0
 28 29  1  0  0  0  0
 28 60  1  0  0  0  0
 29 61  1  0  0  0  0
 29 62  1  0  0  0  0
 29 63  1  0  0  0  0
M  CHG  1   3   1
M  END
> <s_m_source_file>
AV-unprocessed.smi

> <i_m_source_file_index>
249

> <i_lp_mmshare_version>
43012

> <i_f3d_flags>
0

> <s_epik_input>
W0NIM11bQ0gyXU4xW0NIMl1bQ0gyXVtDQEhdKFtDSDJdW0NASF0xW0NIM10pTihbQ0gzXSljKG5bY0hdbjIpYyhjMjMpbltjSF1uM1tDSDJdW0NASF0oW0NIMl1bT0hdKVtDQEBIXTRbQ0gyXVtDSDJdT1tDSDJdNA==

> <s_epik_cmdline>
J2VwaWtfcHl0aG9uJywgJy1waCcsICc3LjAnLCAnLXRuJywgJzgnLCAnLW1hJywgJzIwMCcsICctbWV0YWxfYmluZGluZycsICctaW1hZScsICc8aW5maWxlLm1hZT4nLCAnLW9tYWUnLCAnPG91dGZpbGUubWFlPic=

> <r_lp_tautomer_probability>
1

> <r_epik_Ionization_Penalty>
0.00294688

> <r_epik_Ionization_Penalty_Charging>
0.00169971

> <r_epik_Ionization_Penalty_Neutral>
0.00124717

> <r_epik_State_Penalty>
-0

> <r_epik_Charging_Adjusted_Penalty>
0.00169971

> <i_epik_Tot_Q>
1

> <i_epik_Tot_abs_Q>
1

> <r_epik_Metal_State_Penalty>
-0

> <b_epik_Metal_Only>
0

> <s_lp_Force_Field>
OPLS_2005

> <r_lp_Energy>
57.6505

> <b_lp_Chiralities_Consistent>
1

> <s_lp_Variant>
AV-unprocessed.smi:249-32

> <Gold.Version>
5.8.1

> <Gold.Id.Protein>
6NUR|6NUR_protein|mol2

> <Gold.PLP.Fitness>
52.5286

> <Gold.PLP.PLP>
-48.9810

> <Gold.PLP.part.hbond>
-1.4785

> <Gold.PLP.part.metal>
0.0000

> <Gold.PLP.part.buried>
-3.2701

> <Gold.PLP.part.nonpolar>
-45.4535

> <Gold.PLP.part.repulsive>
0.7481

> <Gold.PLP.ligand.clash>
0.0000

> <Gold.PLP.ligand.torsion>
1.8018

> <Gold.PLP.Chemscore.Hbond>
2.0000

> <Gold.PLP.Chemscore.CHOScore>
0.0000

> <Gold.PLP.Chemscore.Metal>
0.0000

> <Gold.Chemscore.Hbonds>
donor molecule, donor type, donor heavy atom, donor atom, acceptor molecule, acceptor atom, score
      L1  H     3    64       P1  7948  2.00

> <Gold.PLP.Chemscore.Internal.Correction>
1.1511

> <Gold.Rescore>
     Score         DG    S(hbond)    S(metal)    S(lipo)     H(rot)  DE(clash)    DE(int)     intcor
      9.89     -16.63       0.99        0.00     124.98       2.65       0.87       5.87       ----

> <Gold.Chemscore.Fitness>
9.8899

> <Gold.Chemscore.DG>
-16.6294

> <Gold.Chemscore.ZeroCoef>
-5.4800

> <Gold.Chemscore.Hbond>
0.9926

> <Gold.Chemscore.Metal>
0.0000

> <Gold.Chemscore.Lipo>
124.9764

> <Gold.Chemscore.Internal_Hbond>
0.0000

> <Gold.Chemscore.DEClash>
0.8714

> <Gold.Chemscore.DEInternal>
5.8680

> <Gold.Chemscore.Rot>
2.6515

> <Gold.Chemscore.Internal.Correction>
   9.000000E+99

> <Gold.Chemscore.Hbonds>
donor molecule, donor type, donor heavy atom, donor atom, acceptor molecule, acceptor atom, score
      L1  H     3    64       P1  7948  0.98

> <Gold.Chemscore.Hbond.Weighted>
-3.3151

> <Gold.Chemscore.Metal.Weighted>
-0.0000

> <Gold.Chemscore.Lipo.Weighted>
-14.6222

> <Gold.Chemscore.Internal_Hbond.Weighted>
0.0000

> <Gold.Chemscore.DEClash.Weighted>
0.8714

> <Gold.Chemscore.DEInternal.Weighted>
5.8680

> <Gold.Chemscore.Rot.Weighted>
6.7880

> <Gold.Chemscore.Internal.Correction.Weighted>
   9.000000E+99

> <Gold.Protein.RotatedTorsions>
[ 6907 6896 6895 6894 ] final  174.23 input  -60.11 | X-H torsion
[ 7974 7965 7964 7962 ] final   84.12 input  175.53 | X-H torsion
[ 8008 7997 7996 7995 ] final -115.78 input   59.86 | X-H torsion
[ 10167 10162 10161 10158 ] final  137.86 input  -65.29 | X-H torsion
[ 10718 10713 10712 10709 ] final   54.33 input   66.30 | X-H torsion
[ 10763 10752 10751 10750 ] final  -90.73 input  -60.55 | X-H torsion
[ 11005 11000 10999 10996 ] final -131.55 input  -57.11 | X-H torsion

> <Gold.Protein.ActiveResidues>
 VAL166  LYS551  ARG553  GLY616  TRP617  ASP618  TYR619  PRO620  LYS621  CYS622 
 ASP623  PHE694  ASN695  SER759  ASP760  ASP761  ALA762  ILE779  LEU786  VAL792 
 PHE793  MET794  SER795  GLU796  ALA797  LYS798  CYS799  TRP800  GLU811  SER814 

> <Gold.Protein.RotatedAtoms>
  151.7557  133.3330  159.3403 H   0  0  0  0  0  0  0  0  0  0  0  0  # atno 6907 bound_to 6896
  150.7517  134.6152  159.6116 H   0  0  0  0  0  0  0  0  0  0  0  0  # atno 6908 bound_to 6896
  152.3439  134.7099  160.0307 H   0  0  0  0  0  0  0  0  0  0  0  0  # atno 6909 bound_to 6896
  145.6029  139.2355  143.2235 H   0  0  0  0  0  0  0  0  0  0  0  0  # atno 7974 bound_to 7965
  155.0575  140.0393  157.2565 H   0  0  0  0  0  0  0  0  0  0  0  0  # atno 8008 bound_to 7997
  154.7087  140.2688  155.6626 H   0  0  0  0  0  0  0  0  0  0  0  0  # atno 8009 bound_to 7997
  156.2783  140.2726  156.1721 H   0  0  0  0  0  0  0  0  0  0  0  0  # atno 8010 bound_to 7997
  139.5130  144.6386  151.5629 H   0  0  0  0  0  0  0  0  0  0  0  0  # atno 10167 bound_to 10162
  157.5248  130.8589  149.8606 H   0  0  0  0  0  0  0  0  0  0  0  0  # atno 10718 bound_to 10713
  154.6688  135.5293  153.8112 H   0  0  0  0  0  0  0  0  0  0  0  0  # atno 10763 bound_to 10752
  153.0488  135.6524  154.0757 H   0  0  0  0  0  0  0  0  0  0  0  0  # atno 10764 bound_to 10752
  154.0658  135.2958  155.3297 H   0  0  0  0  0  0  0  0  0  0  0  0  # atno 10765 bound_to 10752
  140.9249  134.1396  157.4283 H   0  0  0  0  0  0  0  0  0  0  0  0  # atno 11005 bound_to 11000
  146.1562  140.6854  142.9298 LP  0  0  0  0  0  0  0  0  0  0  0  0  # atno 17320 bound_to 7965
  144.7302  140.4649  143.6943 LP  0  0  0  0  0  0  0  0  0  0  0  0  # atno 17321 bound_to 7965
  140.6145  143.9375  150.6478 LP  0  0  0  0  0  0  0  0  0  0  0  0  # atno 17342 bound_to 10162
  140.2628  143.3511  152.1307 LP  0  0  0  0  0  0  0  0  0  0  0  0  # atno 17343 bound_to 10162
  156.0379  130.3746  150.1512 LP  0  0  0  0  0  0  0  0  0  0  0  0  # atno 17370 bound_to 10713
  156.9699  130.9831  151.3461 LP  0  0  0  0  0  0  0  0  0  0  0  0  # atno 17371 bound_to 10713
  139.8783  134.9984  156.5901 LP  0  0  0  0  0  0  0  0  0  0  0  0  # atno 17394 bound_to 11000
  140.7939  133.8560  155.8669 LP  0  0  0  0  0  0  0  0  0  0  0  0  # atno 17395 bound_to 11000

$$$$
