AV-unprocessed.smi:526|AV-procd|sdf|2812|dock7
  -GOLD-   2262023293D 1   1.00000     0.00000
 Structure written by MMmdl.
 30 30  0  0  0  0  0  0  0  0  2 V2000
  151.7527  145.5258  160.1508 C   0  0  0  0  0  0  0  0  0  0  0  0
  152.0466  144.2612  160.4961 C   0  0  0  0  0  0  0  0  0  0  0  0
  152.4674  143.8912  161.9059 C   0  0  0  0  0  0  0  0  0  0  0  0
  151.9766  143.1170  159.5013 C   0  0  0  0  0  0  0  0  0  0  0  0
  150.9414  143.5177  158.0583 S   0  0  0  0  0  0  0  0  0  0  0  0
  151.0517  142.0358  156.9938 C   0  0  0  0  0  0  0  0  0  0  0  0
  150.0925  142.0236  155.9904 N   0  0  0  0  0  0  0  0  0  0  0  0
  150.0439  140.9525  155.1178 C   0  0  0  0  0  0  0  0  0  0  0  0
  148.9470  141.0411  154.0714 C   0  0  0  0  0  0  0  0  0  0  0  0
  150.9233  139.9270  155.2193 C   0  0  0  0  0  0  0  0  0  0  0  0
  150.9056  138.7197  154.2795 C   0  0  0  0  0  0  0  0  0  0  0  0
  150.8430  137.3558  154.9780 C   0  0  0  0  0  0  0  0  0  0  0  0
  151.9232  136.7346  155.0796 O   0  0  0  0  0  0  0  0  0  0  0  0
  149.7365  136.9508  155.3997 O   0  5  0  0  0  0  0  0  0  0  0  0
  151.9422  139.9832  156.2893 C   0  0  0  0  0  0  0  0  0  0  0  0
  152.7825  139.0955  156.4284 O   0  0  0  0  0  0  0  0  0  0  0  0
  151.9287  141.0894  157.1532 N   0  0  0  0  0  0  0  0  0  0  0  0
  149.4184  142.7642  155.8651 H   0  0  0  0  0  0  0  0  0  0  0  0
  151.8065  146.3302  160.8698 H   0  0  0  0  0  0  0  0  0  0  0  0
  151.4528  145.7771  159.1440 H   0  0  0  0  0  0  0  0  0  0  0  0
  153.4522  143.4236  161.8961 H   0  0  0  0  0  0  0  0  0  0  0  0
  151.7592  143.1897  162.3468 H   0  0  0  0  0  0  0  0  0  0  0  0
  152.5166  144.7699  162.5499 H   0  0  0  0  0  0  0  0  0  0  0  0
  152.9825  142.8734  159.1569 H   0  0  0  0  0  0  0  0  0  0  0  0
  151.5820  142.2349  160.0068 H   0  0  0  0  0  0  0  0  0  0  0  0
  149.3732  140.9977  153.0689 H   0  0  0  0  0  0  0  0  0  0  0  0
  148.3850  141.9720  154.1553 H   0  0  0  0  0  0  0  0  0  0  0  0
  148.2454  140.2145  154.1844 H   0  0  0  0  0  0  0  0  0  0  0  0
  151.8040  138.7395  153.6627 H   0  0  0  0  0  0  0  0  0  0  0  0
  150.0767  138.7904  153.5746 H   0  0  0  0  0  0  0  0  0  0  0  0
  1  2  2  0  0  0  0
  1 19  1  0  0  0  0
  1 20  1  0  0  0  0
  2  3  1  0  0  0  0
  2  4  1  0  0  0  0
  3 21  1  0  0  0  0
  3 22  1  0  0  0  0
  3 23  1  0  0  0  0
  4 24  1  0  0  0  0
  4 25  1  0  0  0  0
  4  5  1  0  0  0  0
  5  6  1  0  0  0  0
  6 17  2  0  0  0  0
  6  7  1  0  0  0  0
  7  8  1  0  0  0  0
  7 18  1  0  0  0  0
  8 10  2  0  0  0  0
  8  9  1  0  0  0  0
  9 26  1  0  0  0  0
  9 27  1  0  0  0  0
  9 28  1  0  0  0  0
 10 15  1  0  0  0  0
 10 11  1  0  0  0  0
 11 12  1  0  0  0  0
 11 29  1  0  0  0  0
 11 30  1  0  0  0  0
 12 13  2  0  0  0  0
 12 14  1  0  0  0  0
 15 17  1  0  0  0  0
 15 16  2  0  0  0  0
M  CHG  1  14  -1
M  END
> <s_m_source_file>
AV-unprocessed.smi

> <i_m_source_file_index>
526

> <i_lp_mmshare_version>
43012

> <i_f3d_flags>
0

> <s_epik_input>
W0NIMl09QyhbQ0gzXSlbQ0gyXVNjMW5jKFtDSDNdKWMoYyg9TylbbkhdMSlbQ0gyXUMoPU8pW09IXQ==

> <s_epik_cmdline>
J2VwaWtfcHl0aG9uJywgJy1waCcsICc3LjAnLCAnLXRuJywgJzgnLCAnLW1hJywgJzIwMCcsICctbWV0YWxfYmluZGluZycsICctaW1hZScsICc8aW5maWxlLm1hZT4nLCAnLW9tYWUnLCAnPG91dGZpbGUubWFlPic=

> <r_lp_tautomer_probability>
0.273662

> <r_epik_Ionization_Penalty>
0.012426

> <r_epik_Ionization_Penalty_Charging>
0.012254

> <r_epik_Ionization_Penalty_Neutral>
0.000171952

> <r_epik_State_Penalty>
0.787696

> <r_epik_Charging_Adjusted_Penalty>
0.79995

> <i_epik_Tot_Q>
-1

> <i_epik_Tot_abs_Q>
1

> <r_epik_Metal_State_Penalty>
0.901144

> <b_epik_Metal_Only>
0

> <s_lp_Force_Field>
OPLS_2005

> <r_lp_Energy>
7.99396

> <b_lp_Chiralities_Consistent>
1

> <s_lp_Variant>
AV-unprocessed.smi:526-2

> <Gold.Version>
5.8.1

> <Gold.Id.Protein>
6NUR|6NUR_protein|mol2

> <Gold.PLP.Fitness>
49.6693

> <Gold.PLP.PLP>
-39.1693

> <Gold.PLP.part.hbond>
-3.0000

> <Gold.PLP.part.metal>
0.0000

> <Gold.PLP.part.buried>
-1.4229

> <Gold.PLP.part.nonpolar>
-33.2033

> <Gold.PLP.part.repulsive>
0.3054

> <Gold.PLP.ligand.clash>
0.0000

> <Gold.PLP.ligand.torsion>
0.7560

> <Gold.PLP.Chemscore.Hbond>
4.0000

> <Gold.PLP.Chemscore.CHOScore>
0.0000

> <Gold.PLP.Chemscore.Metal>
0.0000

> <Gold.Chemscore.Hbonds>
donor molecule, donor type, donor heavy atom, donor atom, acceptor molecule, acceptor atom, score
      L1  H     7    18       P1  8028  0.99
      P1  H  7997  8010       L1    16  1.00
      P1  H 10752 10765       L1    13  2.00

> <Gold.PLP.Chemscore.Internal.Correction>
0.0121

> <Gold.Rescore>
     Score         DG    S(hbond)    S(metal)    S(lipo)     H(rot)  DE(clash)    DE(int)     intcor
     16.69     -18.27       2.51        0.00      88.84       2.34       0.08       1.49       ----

> <Gold.Chemscore.Fitness>
16.6948

> <Gold.Chemscore.DG>
-18.2672

> <Gold.Chemscore.ZeroCoef>
-5.4800

> <Gold.Chemscore.Hbond>
2.5114

> <Gold.Chemscore.Metal>
0.0000

> <Gold.Chemscore.Lipo>
88.8439

> <Gold.Chemscore.Internal_Hbond>
0.0000

> <Gold.Chemscore.DEClash>
0.0780

> <Gold.Chemscore.DEInternal>
1.4944

> <Gold.Chemscore.Rot>
2.3420

> <Gold.Chemscore.Internal.Correction>
   9.000000E+99

> <Gold.Chemscore.Hbonds>
donor molecule, donor type, donor heavy atom, donor atom, acceptor molecule, acceptor atom, score
      L1  H     7    18       P1  8028  0.90
      P1  H  7997  8010       L1    16  0.43
      P1  H 10752 10765       L1    13  0.95

> <Gold.Chemscore.Hbond.Weighted>
-8.3880

> <Gold.Chemscore.Metal.Weighted>
-0.0000

> <Gold.Chemscore.Lipo.Weighted>
-10.3947

> <Gold.Chemscore.Internal_Hbond.Weighted>
0.0000

> <Gold.Chemscore.DEClash.Weighted>
0.0780

> <Gold.Chemscore.DEInternal.Weighted>
1.4944

> <Gold.Chemscore.Rot.Weighted>
5.9955

> <Gold.Chemscore.Internal.Correction.Weighted>
   9.000000E+99

> <Gold.Protein.RotatedTorsions>
[ 6907 6896 6895 6894 ] final  -34.79 input  -60.11 | X-H torsion
[ 7974 7965 7964 7962 ] final -159.60 input  175.53 | X-H torsion
[ 8008 7997 7996 7995 ] final   52.38 input   59.86 | X-H torsion
[ 10167 10162 10161 10158 ] final   86.01 input  -65.29 | X-H torsion
[ 10718 10713 10712 10709 ] final  -73.76 input   66.30 | X-H torsion
[ 10763 10752 10751 10750 ] final  168.58 input  -60.55 | X-H torsion
[ 11005 11000 10999 10996 ] final -161.00 input  -57.11 | X-H torsion

> <Gold.Protein.ActiveResidues>
 VAL166  LYS551  ARG553  GLY616  TRP617  ASP618  TYR619  PRO620  LYS621  CYS622 
 ASP623  PHE694  ASN695  SER759  ASP760  ASP761  ALA762  ILE779  LEU786  VAL792 
 PHE793  MET794  SER795  GLU796  ALA797  LYS798  CYS799  TRP800  GLU811  SER814 

> <Gold.Protein.RotatedAtoms>
  151.0481  134.9654  159.8196 H   0  0  0  0  0  0  0  0  0  0  0  0  # atno 6907 bound_to 6896
  152.5376  134.2572  159.8931 H   0  0  0  0  0  0  0  0  0  0  0  0  # atno 6908 bound_to 6896
  151.2586  133.4270  159.2649 H   0  0  0  0  0  0  0  0  0  0  0  0  # atno 6909 bound_to 6896
  144.7459  140.3661  143.6086 H   0  0  0  0  0  0  0  0  0  0  0  0  # atno 7974 bound_to 7965
  155.4508  140.3458  155.4300 H   0  0  0  0  0  0  0  0  0  0  0  0  # atno 8008 bound_to 7997
  156.1222  140.1490  156.9218 H   0  0  0  0  0  0  0  0  0  0  0  0  # atno 8009 bound_to 7997
  154.4831  140.0863  156.7404 H   0  0  0  0  0  0  0  0  0  0  0  0  # atno 8010 bound_to 7997
  139.8919  144.6380  150.8730 H   0  0  0  0  0  0  0  0  0  0  0  0  # atno 10167 bound_to 10162
  156.0268  130.4401  150.2791 H   0  0  0  0  0  0  0  0  0  0  0  0  # atno 10718 bound_to 10713
  154.3707  135.2753  155.2268 H   0  0  0  0  0  0  0  0  0  0  0  0  # atno 10763 bound_to 10752
  154.4416  135.5953  153.6137 H   0  0  0  0  0  0  0  0  0  0  0  0  # atno 10764 bound_to 10752
  152.9838  135.6020  154.3938 H   0  0  0  0  0  0  0  0  0  0  0  0  # atno 10765 bound_to 10752
  140.6252  134.4709  157.5226 H   0  0  0  0  0  0  0  0  0  0  0  0  # atno 11005 bound_to 11000
  145.7127  139.1689  143.2530 LP  0  0  0  0  0  0  0  0  0  0  0  0  # atno 17320 bound_to 7965
  146.1335  140.7153  142.9401 LP  0  0  0  0  0  0  0  0  0  0  0  0  # atno 17321 bound_to 7965
  140.7725  143.3503  151.2027 LP  0  0  0  0  0  0  0  0  0  0  0  0  # atno 17342 bound_to 10162
  139.7102  143.9389  152.2944 LP  0  0  0  0  0  0  0  0  0  0  0  0  # atno 17343 bound_to 10162
  157.0894  131.0165  151.3127 LP  0  0  0  0  0  0  0  0  0  0  0  0  # atno 17370 bound_to 10713
  157.4866  130.7797  149.7466 LP  0  0  0  0  0  0  0  0  0  0  0  0  # atno 17371 bound_to 10713
  139.9137  134.8290  156.1438 LP  0  0  0  0  0  0  0  0  0  0  0  0  # atno 17394 bound_to 11000
  141.0714  133.6795  156.2148 LP  0  0  0  0  0  0  0  0  0  0  0  0  # atno 17395 bound_to 11000

$$$$
