AV-unprocessed.smi:2021|AV-procd|sdf|8178|dock4
  -GOLD-   2272010423D 1   1.00000     0.00000
 Structure written by MMmdl.
 42 43  0  0  0  0  0  0  0  0  2 V2000
  143.7946  132.5896  151.3176 C   0  0  0  0  0  0  0  0  0  0  0  0
  145.2974  132.2679  151.2566 C   0  0  0  0  0  0  0  0  0  0  0  0
  145.7793  132.2311  149.7984 C   0  0  0  0  0  0  0  0  0  0  0  0
  145.6296  130.9394  151.9691 C   0  0  0  0  0  0  0  0  0  0  0  0
  147.0551  130.8330  152.3728 N   0  3  2  0  0  0  0  0  0  0  0  0
  147.4523  129.4692  152.8016 C   0  0  0  0  0  0  0  0  0  0  0  0
  148.9431  129.4380  153.1743 C   0  0  0  0  0  0  0  0  0  0  0  0
  149.1980  130.4038  154.1849 O   0  0  0  0  0  0  0  0  0  0  0  0
  148.9241  131.7316  153.7493 C   0  0  2  0  0  0  0  0  0  0  0  0
  149.3185  132.7175  154.8635 C   0  0  0  0  0  0  0  0  0  0  0  0
  149.4416  134.0827  154.3623 N   0  0  0  0  0  0  0  0  0  0  0  0
  150.1450  135.0588  154.9545 C   0  0  0  0  0  0  0  0  0  0  0  0
  150.7725  134.9013  156.0020 O   0  0  0  0  0  0  0  0  0  0  0  0
  150.0712  136.2057  154.2566 N   0  0  0  0  0  0  0  0  0  0  0  0
  150.6731  137.4570  154.5552 C   0  0  0  0  0  0  0  0  0  0  0  0
  150.2854  138.6196  154.0074 N   0  0  0  0  0  0  0  0  0  0  0  0
  151.0407  139.6893  154.4700 N   0  0  0  0  0  0  0  0  0  0  0  0
  151.9666  139.2924  155.3475 C   0  0  0  0  0  0  0  0  0  0  0  0
  152.0049  137.5728  155.6967 S   0  0  0  0  0  0  0  0  0  0  0  0
  147.4244  131.8288  153.4071 C   0  0  0  0  0  0  0  0  0  0  0  0
  143.2020  131.8027  150.8499 H   0  0  0  0  0  0  0  0  0  0  0  0
  143.5715  133.5237  150.8013 H   0  0  0  0  0  0  0  0  0  0  0  0
  143.4507  132.6991  152.3463 H   0  0  0  0  0  0  0  0  0  0  0  0
  145.8347  133.0810  151.7439 H   0  0  0  0  0  0  0  0  0  0  0  0
  145.2816  131.4409  149.2351 H   0  0  0  0  0  0  0  0  0  0  0  0
  146.8535  132.0525  149.7435 H   0  0  0  0  0  0  0  0  0  0  0  0
  145.5791  133.1762  149.2928 H   0  0  0  0  0  0  0  0  0  0  0  0
  144.9966  130.8613  152.8545 H   0  0  0  0  0  0  0  0  0  0  0  0
  145.3714  130.0881  151.3372 H   0  0  0  0  0  0  0  0  0  0  0  0
  146.8500  129.1638  153.6586 H   0  0  0  0  0  0  0  0  0  0  0  0
  147.2668  128.7475  152.0069 H   0  0  0  0  0  0  0  0  0  0  0  0
  149.2164  128.4525  153.5515 H   0  0  0  0  0  0  0  0  0  0  0  0
  149.5695  129.6303  152.3018 H   0  0  0  0  0  0  0  0  0  0  0  0
  149.5157  131.9514  152.8585 H   0  0  0  0  0  0  0  0  0  0  0  0
  148.5488  132.7231  155.6356 H   0  0  0  0  0  0  0  0  0  0  0  0
  150.2402  132.3981  155.3533 H   0  0  0  0  0  0  0  0  0  0  0  0
  148.9550  134.2991  153.5045 H   0  0  0  0  0  0  0  0  0  0  0  0
  149.5158  136.1842  153.4142 H   0  0  0  0  0  0  0  0  0  0  0  0
  152.6313  140.0177  155.7927 H   0  0  0  0  0  0  0  0  0  0  0  0
  147.1962  132.8327  153.0462 H   0  0  0  0  0  0  0  0  0  0  0  0
  146.8210  131.6645  154.3018 H   0  0  0  0  0  0  0  0  0  0  0  0
  147.6037  131.0588  151.5552 H   0  0  0  0  0  0  0  0  0  0  0  0
  1  2  1  0  0  0  0
  1 21  1  0  0  0  0
  1 22  1  0  0  0  0
  1 23  1  0  0  0  0
  2  3  1  0  0  0  0
  2  4  1  0  0  0  0
  2 24  1  0  0  0  0
  3 25  1  0  0  0  0
  3 26  1  0  0  0  0
  3 27  1  0  0  0  0
  4  5  1  0  0  0  0
  4 28  1  0  0  0  0
  4 29  1  0  0  0  0
  5 20  1  0  0  0  0
  5  6  1  0  0  0  0
  5 42  1  0  0  0  0
  6  7  1  0  0  0  0
  6 30  1  0  0  0  0
  6 31  1  0  0  0  0
  7  8  1  0  0  0  0
  7 32  1  0  0  0  0
  7 33  1  0  0  0  0
  8  9  1  0  0  0  0
  9 10  1  0  0  0  0
  9 20  1  0  0  0  0
  9 34  1  0  0  0  0
 10 11  1  0  0  0  0
 10 35  1  0  0  0  0
 10 36  1  0  0  0  0
 11 12  1  0  0  0  0
 11 37  1  0  0  0  0
 12 13  2  0  0  0  0
 12 14  1  0  0  0  0
 14 15  1  0  0  0  0
 14 38  1  0  0  0  0
 15 19  1  0  0  0  0
 15 16  2  0  0  0  0
 16 17  1  0  0  0  0
 17 18  2  0  0  0  0
 18 19  1  0  0  0  0
 18 39  1  0  0  0  0
 20 40  1  0  0  0  0
 20 41  1  0  0  0  0
M  CHG  1   5   1
M  END
> <s_m_source_file>
AV-unprocessed.smi

> <i_m_source_file_index>
2021

> <i_lp_mmshare_version>
43012

> <i_f3d_flags>
0

> <s_epik_input>
W0NIM11bQ0hdKFtDSDNdKVtDSDJdTjFbQ0gyXVtDSDJdT1tDQEhdKFtDSDJdMSlbQ0gyXVtOSF1DKD1PKVtOSF1jMm5uW2NIXXMy

> <s_epik_cmdline>
J2VwaWtfcHl0aG9uJywgJy1waCcsICc3LjAnLCAnLXRuJywgJzgnLCAnLW1hJywgJzIwMCcsICctbWV0YWxfYmluZGluZycsICctaW1hZScsICc8aW5maWxlLm1hZT4nLCAnLW9tYWUnLCAnPG91dGZpbGUubWFlPic=

> <r_lp_tautomer_probability>
1

> <r_epik_Ionization_Penalty>
0.102019

> <r_epik_Ionization_Penalty_Charging>
0.098413

> <r_epik_Ionization_Penalty_Neutral>
0.00360555

> <r_epik_State_Penalty>
0.0884988

> <r_epik_Charging_Adjusted_Penalty>
0.186912

> <i_epik_Tot_Q>
1

> <i_epik_Tot_abs_Q>
1

> <r_epik_Metal_State_Penalty>
0.454709

> <b_epik_Metal_Only>
0

> <s_lp_Force_Field>
OPLS_2005

> <r_lp_Energy>
16.3226

> <b_lp_Chiralities_Consistent>
1

> <s_lp_Variant>
AV-unprocessed.smi:2021-4

> <Gold.Version>
5.8.1

> <Gold.Id.Protein>
6NUR|6NUR_protein|mol2

> <Gold.PLP.Fitness>
43.3322

> <Gold.PLP.PLP>
-35.4042

> <Gold.PLP.part.hbond>
-4.1631

> <Gold.PLP.part.metal>
0.0000

> <Gold.PLP.part.buried>
-4.2077

> <Gold.PLP.part.nonpolar>
-27.2259

> <Gold.PLP.part.repulsive>
0.5568

> <Gold.PLP.ligand.clash>
0.0000

> <Gold.PLP.ligand.torsion>
0.5858

> <Gold.PLP.Chemscore.Hbond>
3.0000

> <Gold.PLP.Chemscore.CHOScore>
0.0000

> <Gold.PLP.Chemscore.Metal>
0.0000

> <Gold.Chemscore.Hbonds>
donor molecule, donor type, donor heavy atom, donor atom, acceptor molecule, acceptor atom, score
      L1  H     5    42       P1 10747  1.00
      L1  H    14    38       P1  7948  1.00
      P1  H  7989  7998       L1    17  1.00

> <Gold.PLP.Chemscore.Internal.Correction>
0.0996

> <Gold.Rescore>
     Score         DG    S(hbond)    S(metal)    S(lipo)     H(rot)  DE(clash)    DE(int)     intcor
     16.31     -18.05       2.53        0.00      76.32       1.88       0.01       1.73       ----

> <Gold.Chemscore.Fitness>
16.3076

> <Gold.Chemscore.DG>
-18.0540

> <Gold.Chemscore.ZeroCoef>
-5.4800

> <Gold.Chemscore.Hbond>
2.5332

> <Gold.Chemscore.Metal>
0.0000

> <Gold.Chemscore.Lipo>
76.3179

> <Gold.Chemscore.Internal_Hbond>
0.0000

> <Gold.Chemscore.DEClash>
0.0130

> <Gold.Chemscore.DEInternal>
1.7334

> <Gold.Chemscore.Rot>
1.8812

> <Gold.Chemscore.Internal.Correction>
   9.000000E+99

> <Gold.Chemscore.Hbonds>
donor molecule, donor type, donor heavy atom, donor atom, acceptor molecule, acceptor atom, score
      L1  H     5    42       P1 10747  0.98
      L1  H    14    38       P1  7948  0.44
      P1  H  7989  7998       L1    17  0.78

> <Gold.Chemscore.Hbond.Weighted>
-8.4607

> <Gold.Chemscore.Metal.Weighted>
-0.0000

> <Gold.Chemscore.Lipo.Weighted>
-8.9292

> <Gold.Chemscore.Internal_Hbond.Weighted>
0.0000

> <Gold.Chemscore.DEClash.Weighted>
0.0130

> <Gold.Chemscore.DEInternal.Weighted>
1.7334

> <Gold.Chemscore.Rot.Weighted>
4.8159

> <Gold.Chemscore.Internal.Correction.Weighted>
   9.000000E+99

> <Gold.Protein.RotatedTorsions>
[ 6907 6896 6895 6894 ] final  123.34 input  -60.11 | X-H torsion
[ 7974 7965 7964 7962 ] final  -64.04 input  175.53 | X-H torsion
[ 8008 7997 7996 7995 ] final  -27.49 input   59.86 | X-H torsion
[ 10167 10162 10161 10158 ] final  140.64 input  -65.29 | X-H torsion
[ 10718 10713 10712 10709 ] final  -66.35 input   66.30 | X-H torsion
[ 10763 10752 10751 10750 ] final  137.35 input  -60.55 | X-H torsion
[ 11005 11000 10999 10996 ] final   30.03 input  -57.11 | X-H torsion

> <Gold.Protein.ActiveResidues>
 VAL166  LYS551  ARG553  GLY616  TRP617  ASP618  TYR619  PRO620  LYS621  CYS622 
 ASP623  PHE694  ASN695  SER759  ASP760  ASP761  ALA762  ILE779  LEU786  VAL792 
 PHE793  MET794  SER795  GLU796  ALA797  LYS798  CYS799  TRP800  GLU811  SER814 

> <Gold.Protein.RotatedAtoms>
  152.4170  133.7054  159.6447 H   0  0  0  0  0  0  0  0  0  0  0  0  # atno 6907 bound_to 6896
  150.8047  133.8522  159.3217 H   0  0  0  0  0  0  0  0  0  0  0  0  # atno 6908 bound_to 6896
  151.6249  135.1030  160.0161 H   0  0  0  0  0  0  0  0  0  0  0  0  # atno 6909 bound_to 6896
  145.7716  140.8809  143.0377 H   0  0  0  0  0  0  0  0  0  0  0  0  # atno 7974 bound_to 7965
  154.4375  140.1871  156.0941 H   0  0  0  0  0  0  0  0  0  0  0  0  # atno 8008 bound_to 7997
  156.0343  140.3327  155.7148 H   0  0  0  0  0  0  0  0  0  0  0  0  # atno 8009 bound_to 7997
  155.5793  140.0620  157.2778 H   0  0  0  0  0  0  0  0  0  0  0  0  # atno 8010 bound_to 7997
  139.5043  144.6221  151.6025 H   0  0  0  0  0  0  0  0  0  0  0  0  # atno 10167 bound_to 10162
  156.0617  130.4261  150.1696 H   0  0  0  0  0  0  0  0  0  0  0  0  # atno 10718 bound_to 10713
  153.8716  135.3055  155.3442 H   0  0  0  0  0  0  0  0  0  0  0  0  # atno 10763 bound_to 10752
  154.7803  135.4839  153.9834 H   0  0  0  0  0  0  0  0  0  0  0  0  # atno 10764 bound_to 10752
  153.1403  135.6822  153.9133 H   0  0  0  0  0  0  0  0  0  0  0  0  # atno 10765 bound_to 10752
  140.2987  134.2781  155.7759 H   0  0  0  0  0  0  0  0  0  0  0  0  # atno 11005 bound_to 11000
  144.6811  139.9864  143.7484 LP  0  0  0  0  0  0  0  0  0  0  0  0  # atno 17320 bound_to 7965
  146.0164  139.3213  143.0839 LP  0  0  0  0  0  0  0  0  0  0  0  0  # atno 17321 bound_to 7965
  140.5927  143.9751  150.6335 LP  0  0  0  0  0  0  0  0  0  0  0  0  # atno 17342 bound_to 10162
  140.2937  143.3307  152.1038 LP  0  0  0  0  0  0  0  0  0  0  0  0  # atno 17343 bound_to 10162
  156.9763  130.9850  151.3447 LP  0  0  0  0  0  0  0  0  0  0  0  0  # atno 17370 bound_to 10713
  157.5631  130.8259  149.8291 LP  0  0  0  0  0  0  0  0  0  0  0  0  # atno 17371 bound_to 10713
  141.2132  133.7632  156.9734 LP  0  0  0  0  0  0  0  0  0  0  0  0  # atno 17394 bound_to 11000
  140.1129  134.9466  157.2091 LP  0  0  0  0  0  0  0  0  0  0  0  0  # atno 17395 bound_to 11000

$$$$
