AV-unprocessed.smi:1769|AV-procd|sdf|7152|dock4
  -GOLD-   22720 8393D 1   1.00000     0.00000
 Structure written by MMmdl.
 41 42  0  0  0  0  0  0  0  0  1 V2000
  150.4250  144.5016  159.4745 C   0  0  0  0  0  0  0  0  0  0  0  0
  151.6642  143.9907  160.2131 C   0  0  0  0  0  0  0  0  0  0  0  0
  151.8432  144.3671  161.3718 O   0  0  0  0  0  0  0  0  0  0  0  0
  152.5173  143.1535  159.5752 N   0  0  0  0  0  0  0  0  0  0  0  0
  153.6958  142.5181  160.1786 C   0  0  0  0  0  0  0  0  0  0  0  0
  153.4087  141.0165  160.3591 C   0  0  0  0  0  0  0  0  0  0  0  0
  153.0145  140.3647  159.0192 C   0  0  0  0  0  0  0  0  0  0  0  0
  151.8882  141.1525  158.3087 C   0  0  2  0  0  0  0  0  0  0  0  0
  151.5962  140.5887  156.9128 C   0  0  0  0  0  0  0  0  0  0  0  0
  152.3765  139.7925  156.3898 O   0  0  0  0  0  0  0  0  0  0  0  0
  150.4806  141.0329  156.3114 N   0  0  0  0  0  0  0  0  0  0  0  0
  150.0616  140.7055  154.9506 C   0  0  0  0  0  0  0  0  0  0  0  0
  148.6418  140.1072  154.9088 C   0  0  0  0  0  0  0  0  0  0  0  0
  147.5400  141.1525  154.9309 C   0  0  0  0  0  0  0  0  0  0  0  0
  147.3180  141.9986  153.8244 C   0  0  0  0  0  0  0  0  0  0  0  0
  146.2618  142.9276  153.8816 C   0  0  0  0  0  0  0  0  0  0  0  0
  145.4737  142.9753  155.0487 C   0  0  0  0  0  0  0  0  0  0  0  0
  145.6809  142.1755  156.1168 N   0  0  0  0  0  0  0  0  0  0  0  0
  146.6936  141.2845  156.0521 C   0  0  0  0  0  0  0  0  0  0  0  0
  152.2654  142.6484  158.2203 C   0  0  0  0  0  0  0  0  0  0  0  0
  150.7081  145.0406  158.5697 H   0  0  0  0  0  0  0  0  0  0  0  0
  149.8567  145.1868  160.1044 H   0  0  0  0  0  0  0  0  0  0  0  0
  149.7679  143.6746  159.2047 H   0  0  0  0  0  0  0  0  0  0  0  0
  154.5529  142.6559  159.5181 H   0  0  0  0  0  0  0  0  0  0  0  0
  153.9906  142.9574  161.1305 H   0  0  0  0  0  0  0  0  0  0  0  0
  154.2829  140.5145  160.7744 H   0  0  0  0  0  0  0  0  0  0  0  0
  152.6025  140.8846  161.0818 H   0  0  0  0  0  0  0  0  0  0  0  0
  153.8984  140.3213  158.3808 H   0  0  0  0  0  0  0  0  0  0  0  0
  152.7065  139.3319  159.1871 H   0  0  0  0  0  0  0  0  0  0  0  0
  150.9820  141.0647  158.9115 H   0  0  0  0  0  0  0  0  0  0  0  0
  149.9012  141.6860  156.8189 H   0  0  0  0  0  0  0  0  0  0  0  0
  150.1153  141.5858  154.3077 H   0  0  0  0  0  0  0  0  0  0  0  0
  150.7719  139.9883  154.5388 H   0  0  0  0  0  0  0  0  0  0  0  0
  148.5281  139.4982  154.0112 H   0  0  0  0  0  0  0  0  0  0  0  0
  148.5045  139.4296  155.7523 H   0  0  0  0  0  0  0  0  0  0  0  0
  147.9350  141.9280  152.9406 H   0  0  0  0  0  0  0  0  0  0  0  0
  146.0576  143.5844  153.0488 H   0  0  0  0  0  0  0  0  0  0  0  0
  144.6545  143.6747  155.1261 H   0  0  0  0  0  0  0  0  0  0  0  0
  146.8274  140.6522  156.9174 H   0  0  0  0  0  0  0  0  0  0  0  0
  151.4815  143.2079  157.7076 H   0  0  0  0  0  0  0  0  0  0  0  0
  153.1640  142.7838  157.6158 H   0  0  0  0  0  0  0  0  0  0  0  0
  1  2  1  0  0  0  0
  1 21  1  0  0  0  0
  1 22  1  0  0  0  0
  1 23  1  0  0  0  0
  2  3  2  0  0  0  0
  2  4  1  0  0  0  0
  4 20  1  0  0  0  0
  4  5  1  0  0  0  0
  5  6  1  0  0  0  0
  5 24  1  0  0  0  0
  5 25  1  0  0  0  0
  6  7  1  0  0  0  0
  6 26  1  0  0  0  0
  6 27  1  0  0  0  0
  7  8  1  0  0  0  0
  7 28  1  0  0  0  0
  7 29  1  0  0  0  0
  8  9  1  0  0  0  0
  8 20  1  0  0  0  0
  8 30  1  0  0  0  0
  9 10  2  0  0  0  0
  9 11  1  0  0  0  0
 11 12  1  0  0  0  0
 11 31  1  0  0  0  0
 12 13  1  0  0  0  0
 12 32  1  0  0  0  0
 12 33  1  0  0  0  0
 13 14  1  0  0  0  0
 13 34  1  0  0  0  0
 13 35  1  0  0  0  0
 14 19  1  0  0  0  0
 14 15  2  0  0  0  0
 15 16  1  0  0  0  0
 15 36  1  0  0  0  0
 16 17  2  0  0  0  0
 16 37  1  0  0  0  0
 17 18  1  0  0  0  0
 17 38  1  0  0  0  0
 18 19  2  0  0  0  0
 19 39  1  0  0  0  0
 20 40  1  0  0  0  0
 20 41  1  0  0  0  0
M  END
> <s_m_source_file>
AV-unprocessed.smi

> <i_m_source_file_index>
1769

> <i_lp_mmshare_version>
43012

> <i_f3d_flags>
0

> <s_epik_input>
W0NIM11DKD1PKU4xW0NIMl1bQ0gyXVtDSDJdW0NASF0oW0NIMl0xKUMoPU8pW05IXVtDSDJdW0NIMl1jMltjSF1bY0hdW2NIXW5bY0hdMg==

> <s_epik_cmdline>
J2VwaWtfcHl0aG9uJywgJy1waCcsICc3LjAnLCAnLXRuJywgJzgnLCAnLW1hJywgJzIwMCcsICctbWV0YWxfYmluZGluZycsICctaW1hZScsICc8aW5maWxlLm1hZT4nLCAnLW9tYWUnLCAnPG91dGZpbGUubWFlPic=

> <r_epik_Ionization_Penalty>
0.0134099

> <r_epik_Ionization_Penalty_Charging>
0

> <r_epik_Ionization_Penalty_Neutral>
0.0134099

> <r_epik_State_Penalty>
0.010434

> <r_epik_Charging_Adjusted_Penalty>
0.010434

> <i_epik_Tot_Q>
0

> <i_epik_Tot_abs_Q>
0

> <r_epik_Metal_State_Penalty>
0.0102025

> <b_epik_Metal_Only>
0

> <s_lp_Force_Field>
OPLS_2005

> <r_lp_Energy>
22.8084

> <b_lp_Chiralities_Consistent>
1

> <s_lp_Variant>
AV-unprocessed.smi:1769-2

> <Gold.Version>
5.8.1

> <Gold.Id.Protein>
6NUR|6NUR_protein|mol2

> <Gold.PLP.Fitness>
41.8632

> <Gold.PLP.PLP>
-39.7199

> <Gold.PLP.part.hbond>
-1.0000

> <Gold.PLP.part.metal>
0.0000

> <Gold.PLP.part.buried>
-6.4985

> <Gold.PLP.part.nonpolar>
-31.8156

> <Gold.PLP.part.repulsive>
0.4139

> <Gold.PLP.ligand.clash>
0.0000

> <Gold.PLP.ligand.torsion>
0.4443

> <Gold.PLP.Chemscore.Hbond>
1.0000

> <Gold.PLP.Chemscore.CHOScore>
0.0000

> <Gold.PLP.Chemscore.Metal>
0.0000

> <Gold.Chemscore.Hbonds>
donor molecule, donor type, donor heavy atom, donor atom, acceptor molecule, acceptor atom, score
      P1  H  7997  8009       L1    10  1.00

> <Gold.PLP.Chemscore.Internal.Correction>
0.0318

> <Gold.Rescore>
     Score         DG    S(hbond)    S(metal)    S(lipo)     H(rot)  DE(clash)    DE(int)     intcor
     14.73     -15.36       0.96        0.00      90.33       1.52       0.25       0.38       ----

> <Gold.Chemscore.Fitness>
14.7284

> <Gold.Chemscore.DG>
-15.3647

> <Gold.Chemscore.ZeroCoef>
-5.4800

> <Gold.Chemscore.Hbond>
0.9605

> <Gold.Chemscore.Metal>
0.0000

> <Gold.Chemscore.Lipo>
90.3337

> <Gold.Chemscore.Internal_Hbond>
0.0000

> <Gold.Chemscore.DEClash>
0.2515

> <Gold.Chemscore.DEInternal>
0.3847

> <Gold.Chemscore.Rot>
1.5205

> <Gold.Chemscore.Internal.Correction>
   9.000000E+99

> <Gold.Chemscore.Hbonds>
donor molecule, donor type, donor heavy atom, donor atom, acceptor molecule, acceptor atom, score
      P1  H  7997  8009       L1    10  0.96

> <Gold.Chemscore.Hbond.Weighted>
-3.2082

> <Gold.Chemscore.Metal.Weighted>
-0.0000

> <Gold.Chemscore.Lipo.Weighted>
-10.5690

> <Gold.Chemscore.Internal_Hbond.Weighted>
0.0000

> <Gold.Chemscore.DEClash.Weighted>
0.2515

> <Gold.Chemscore.DEInternal.Weighted>
0.3847

> <Gold.Chemscore.Rot.Weighted>
3.8926

> <Gold.Chemscore.Internal.Correction.Weighted>
   9.000000E+99

> <Gold.Protein.RotatedTorsions>
[ 6907 6896 6895 6894 ] final -101.90 input  -60.11 | X-H torsion
[ 7974 7965 7964 7962 ] final   40.90 input  175.53 | X-H torsion
[ 8008 7997 7996 7995 ] final -163.67 input   59.86 | X-H torsion
[ 10167 10162 10161 10158 ] final  -70.38 input  -65.29 | X-H torsion
[ 10718 10713 10712 10709 ] final  151.49 input   66.30 | X-H torsion
[ 10763 10752 10751 10750 ] final  -89.27 input  -60.55 | X-H torsion
[ 11005 11000 10999 10996 ] final  142.55 input  -57.11 | X-H torsion

> <Gold.Protein.ActiveResidues>
 VAL166  LYS551  ARG553  GLY616  TRP617  ASP618  TYR619  PRO620  LYS621  CYS622 
 ASP623  PHE694  ASN695  SER759  ASP760  ASP761  ALA762  ILE779  LEU786  VAL792 
 PHE793  MET794  SER795  GLU796  ALA797  LYS798  CYS799  TRP800  GLU811  SER814 

> <Gold.Protein.RotatedAtoms>
  150.7174  134.0663  159.3848 H   0  0  0  0  0  0  0  0  0  0  0  0  # atno 6907 bound_to 6896
  151.8644  135.0510  160.0482 H   0  0  0  0  0  0  0  0  0  0  0  0  # atno 6908 bound_to 6896
  152.2692  133.5331  159.5465 H   0  0  0  0  0  0  0  0  0  0  0  0  # atno 6909 bound_to 6896
  146.0867  139.5478  142.9502 H   0  0  0  0  0  0  0  0  0  0  0  0  # atno 7974 bound_to 7965
  155.8246  140.0924  157.1829 H   0  0  0  0  0  0  0  0  0  0  0  0  # atno 8008 bound_to 7997
  154.3979  140.1430  156.3601 H   0  0  0  0  0  0  0  0  0  0  0  0  # atno 8009 bound_to 7997
  155.8231  140.3445  155.5528 H   0  0  0  0  0  0  0  0  0  0  0  0  # atno 8010 bound_to 7997
  140.5357  143.2318  151.7182 H   0  0  0  0  0  0  0  0  0  0  0  0  # atno 10167 bound_to 10162
  157.2700  131.0815  151.1606 H   0  0  0  0  0  0  0  0  0  0  0  0  # atno 10718 bound_to 10713
  154.6535  135.5347  153.7930 H   0  0  0  0  0  0  0  0  0  0  0  0  # atno 10763 bound_to 10752
  153.0400  135.6488  154.0980 H   0  0  0  0  0  0  0  0  0  0  0  0  # atno 10764 bound_to 10752
  154.0896  135.2941  155.3254 H   0  0  0  0  0  0  0  0  0  0  0  0  # atno 10765 bound_to 10752
  140.0485  134.9268  157.0974 H   0  0  0  0  0  0  0  0  0  0  0  0  # atno 11005 bound_to 11000
  145.6116  141.0338  143.1963 LP  0  0  0  0  0  0  0  0  0  0  0  0  # atno 17320 bound_to 7965
  144.7331  139.7667  143.7340 LP  0  0  0  0  0  0  0  0  0  0  0  0  # atno 17321 bound_to 7965
  139.4970  144.4047  152.0144 LP  0  0  0  0  0  0  0  0  0  0  0  0  # atno 17342 bound_to 10162
  140.3152  144.3492  150.6023 LP  0  0  0  0  0  0  0  0  0  0  0  0  # atno 17343 bound_to 10162
  157.3082  130.6876  149.6201 LP  0  0  0  0  0  0  0  0  0  0  0  0  # atno 17370 bound_to 10713
  155.9663  130.4371  150.5163 LP  0  0  0  0  0  0  0  0  0  0  0  0  # atno 17371 bound_to 10713
  140.3954  134.2139  155.7165 LP  0  0  0  0  0  0  0  0  0  0  0  0  # atno 17394 bound_to 11000
  141.1919  133.8185  157.0861 LP  0  0  0  0  0  0  0  0  0  0  0  0  # atno 17395 bound_to 11000

$$$$
