AV-unprocessed.smi:2886|AV-procd|sdf|11097|dock8
  -GOLD-   2272015563D 1   1.00000     0.00000
 Structure written by MMmdl.
 27 29  0  0  0  0  0  0  0  0  2 V2000
  150.8602  137.7190  154.4184 O   0  0  0  0  0  0  0  0  0  0  0  0
  150.4308  138.8467  154.6561 C   0  0  0  0  0  0  0  0  0  0  0  0
  149.3465  139.3654  154.0037 N   0  5  0  0  0  0  0  0  0  0  0  0
  148.8720  140.6928  154.3257 N   0  0  0  0  0  0  0  0  0  0  0  0
  149.4555  141.4029  155.2084 C   0  0  0  0  0  0  0  0  0  0  0  0
  150.6472  140.9255  155.9521 C   0  0  0  0  0  0  0  0  0  0  0  0
  151.2830  141.6989  156.9150 N   0  0  0  0  0  0  0  0  0  0  0  0
  150.9478  143.0409  157.3710 C   0  0  2  0  0  0  0  0  0  0  0  0
  152.0310  144.0717  157.0493 C   0  0  0  0  0  0  0  0  0  0  0  0
  152.2934  144.6860  158.4319 C   0  0  2  0  0  0  0  0  0  0  0  0
  153.1030  143.7371  159.3248 C   0  0  0  0  0  0  0  0  0  0  0  0
  152.0663  142.6668  159.6613 C   0  0  0  0  0  0  0  0  0  0  0  0
  150.8290  143.1707  158.8993 C   0  0  1  0  0  0  0  0  0  0  0  0
  151.0124  144.5707  159.0307 O   0  0  0  0  0  0  0  0  0  0  0  0
  151.0949  139.6758  155.6694 C   0  0  0  0  0  0  0  0  0  0  0  0
  152.4726  139.0234  156.4954 Cl  0  0  0  0  0  0  0  0  0  0  0  0
  149.0931  142.4022  155.4600 H   0  0  0  0  0  0  0  0  0  0  0  0
  152.1661  141.3471  157.2560 H   0  0  0  0  0  0  0  0  0  0  0  0
  150.0196  143.3737  156.9066 H   0  0  0  0  0  0  0  0  0  0  0  0
  152.9343  143.6398  156.6156 H   0  0  0  0  0  0  0  0  0  0  0  0
  151.6468  144.8199  156.3553 H   0  0  0  0  0  0  0  0  0  0  0  0
  152.6857  145.7026  158.3976 H   0  0  0  0  0  0  0  0  0  0  0  0
  153.9795  143.3337  158.8167 H   0  0  0  0  0  0  0  0  0  0  0  0
  153.4358  144.2445  160.2309 H   0  0  0  0  0  0  0  0  0  0  0  0
  152.3746  141.6648  159.3617 H   0  0  0  0  0  0  0  0  0  0  0  0
  151.8741  142.6511  160.7347 H   0  0  0  0  0  0  0  0  0  0  0  0
  149.8838  142.8028  159.2994 H   0  0  0  0  0  0  0  0  0  0  0  0
  1  2  2  0  0  0  0
  2 15  1  0  0  0  0
  2  3  1  0  0  0  0
  3  4  1  0  0  0  0
  4  5  2  0  0  0  0
  5  6  1  0  0  0  0
  5 17  1  0  0  0  0
  6  7  1  0  0  0  0
  6 15  2  0  0  0  0
  7  8  1  0  0  0  0
  7 18  1  0  0  0  0
  8 13  1  0  0  0  0
  8  9  1  0  0  0  0
  8 19  1  0  0  0  0
  9 10  1  0  0  0  0
  9 20  1  0  0  0  0
  9 21  1  0  0  0  0
 10 14  1  0  0  0  0
 10 11  1  0  0  0  0
 10 22  1  0  0  0  0
 11 12  1  0  0  0  0
 11 23  1  0  0  0  0
 11 24  1  0  0  0  0
 12 13  1  0  0  0  0
 12 25  1  0  0  0  0
 12 26  1  0  0  0  0
 13 14  1  0  0  0  0
 13 27  1  0  0  0  0
 15 16  1  0  0  0  0
M  CHG  1   3  -1
M  END
> <s_m_source_file>
AV-unprocessed.smi

> <i_m_source_file_index>
2886

> <i_lp_mmshare_version>
43012

> <i_f3d_flags>
0

> <s_epik_input>
Tz1jMVtuSF1uW2NIXWMoYzFDbClbTkhdW0NASF0oW0NIMl1bQ0BASF0yMylbQ0BASF0oTzMpW0NIMl1bQ0gyXTI=

> <s_epik_cmdline>
J2VwaWtfcHl0aG9uJywgJy1waCcsICc3LjAnLCAnLXRuJywgJzgnLCAnLW1hJywgJzIwMCcsICctbWV0YWxfYmluZGluZycsICctaW1hZScsICc8aW5maWxlLm1hZT4nLCAnLW9tYWUnLCAnPG91dGZpbGUubWFlPic=

> <r_lp_tautomer_probability>
0.986175

> <r_epik_Ionization_Penalty>
3.84253

> <r_epik_Ionization_Penalty_Charging>
0.0129711

> <r_epik_Ionization_Penalty_Neutral>
3.82956

> <r_epik_State_Penalty>
3.8249

> <r_epik_Charging_Adjusted_Penalty>
3.83787

> <i_epik_Tot_Q>
-1

> <i_epik_Tot_abs_Q>
1

> <r_epik_Metal_State_Penalty>
0.57612

> <b_epik_Metal_Only>
1

> <s_lp_Force_Field>
OPLS_2005

> <r_lp_Energy>
60.9826

> <b_lp_Chiralities_Consistent>
1

> <s_lp_Variant>
AV-unprocessed.smi:2886-11

> <Gold.Version>
5.8.1

> <Gold.Id.Protein>
6NUR|6NUR_protein|mol2

> <Gold.PLP.Fitness>
34.1420

> <Gold.PLP.PLP>
-31.2288

> <Gold.PLP.part.hbond>
0.0000

> <Gold.PLP.part.metal>
0.0000

> <Gold.PLP.part.buried>
-3.6865

> <Gold.PLP.part.nonpolar>
-29.0535

> <Gold.PLP.part.repulsive>
2.2662

> <Gold.PLP.ligand.clash>
0.0000

> <Gold.PLP.ligand.torsion>
0.0480

> <Gold.PLP.Chemscore.Hbond>
0.0000

> <Gold.PLP.Chemscore.CHOScore>
1.0000

> <Gold.PLP.Chemscore.Metal>
0.0000

> <Gold.Chemscore.Hbonds>
donor molecule, donor type, donor heavy atom, donor atom, acceptor molecule, acceptor atom, score
      L1  C     5    17       P1  8028  1.00

> <Gold.PLP.Chemscore.Internal.Correction>
0.0091

> <Gold.Rescore>
     Score         DG    S(hbond)    S(metal)    S(lipo)     H(rot)  DE(clash)    DE(int)     intcor
     14.04     -17.02       0.88        0.00      95.36       1.00       2.96       0.02       ----

> <Gold.Chemscore.Fitness>
14.0378

> <Gold.Chemscore.DG>
-17.0160

> <Gold.Chemscore.ZeroCoef>
-5.4800

> <Gold.Chemscore.Hbond>
0.8800

> <Gold.Chemscore.Metal>
0.0000

> <Gold.Chemscore.Lipo>
95.3568

> <Gold.Chemscore.Internal_Hbond>
0.0000

> <Gold.Chemscore.DEClash>
2.9627

> <Gold.Chemscore.DEInternal>
0.0155

> <Gold.Chemscore.Rot>
1.0000

> <Gold.Chemscore.Internal.Correction>
   9.000000E+99

> <Gold.Chemscore.Hbond.Weighted>
-2.9392

> <Gold.Chemscore.Metal.Weighted>
-0.0000

> <Gold.Chemscore.Lipo.Weighted>
-11.1567

> <Gold.Chemscore.Internal_Hbond.Weighted>
0.0000

> <Gold.Chemscore.DEClash.Weighted>
2.9627

> <Gold.Chemscore.DEInternal.Weighted>
0.0155

> <Gold.Chemscore.Rot.Weighted>
2.5600

> <Gold.Chemscore.Internal.Correction.Weighted>
   9.000000E+99

> <Gold.Protein.RotatedTorsions>
[ 6907 6896 6895 6894 ] final -164.20 input  -60.11 | X-H torsion
[ 7974 7965 7964 7962 ] final    3.45 input  175.53 | X-H torsion
[ 8008 7997 7996 7995 ] final  113.91 input   59.86 | X-H torsion
[ 10167 10162 10161 10158 ] final -121.73 input  -65.29 | X-H torsion
[ 10718 10713 10712 10709 ] final  -79.17 input   66.30 | X-H torsion
[ 10763 10752 10751 10750 ] final  143.50 input  -60.55 | X-H torsion
[ 11005 11000 10999 10996 ] final  118.09 input  -57.11 | X-H torsion

> <Gold.Protein.ActiveResidues>
 VAL166  LYS551  ARG553  GLY616  TRP617  ASP618  TYR619  PRO620  LYS621  CYS622 
 ASP623  PHE694  ASN695  SER759  ASP760  ASP761  ALA762  ILE779  LEU786  VAL792 
 PHE793  MET794  SER795  GLU796  ALA797  LYS798  CYS799  TRP800  GLU811  SER814 

> <Gold.Protein.RotatedAtoms>
  151.4081  133.3736  159.2740 H   0  0  0  0  0  0  0  0  0  0  0  0  # atno 6907 bound_to 6896
  150.9383  134.8795  159.7606 H   0  0  0  0  0  0  0  0  0  0  0  0  # atno 6908 bound_to 6896
  152.5060  134.4030  159.9475 H   0  0  0  0  0  0  0  0  0  0  0  0  # atno 6909 bound_to 6896
  146.2445  140.0683  142.8364 H   0  0  0  0  0  0  0  0  0  0  0  0  # atno 7974 bound_to 7965
  156.2288  140.2970  156.0136 H   0  0  0  0  0  0  0  0  0  0  0  0  # atno 8008 bound_to 7997
  155.2282  140.0418  157.2975 H   0  0  0  0  0  0  0  0  0  0  0  0  # atno 8009 bound_to 7997
  154.5961  140.2414  155.7863 H   0  0  0  0  0  0  0  0  0  0  0  0  # atno 8010 bound_to 7997
  140.0218  143.5336  152.2217 H   0  0  0  0  0  0  0  0  0  0  0  0  # atno 10167 bound_to 10162
  156.0099  130.4538  150.3607 H   0  0  0  0  0  0  0  0  0  0  0  0  # atno 10718 bound_to 10713
  153.9733  135.2948  155.3426 H   0  0  0  0  0  0  0  0  0  0  0  0  # atno 10763 bound_to 10752
  154.7310  135.5068  153.8967 H   0  0  0  0  0  0  0  0  0  0  0  0  # atno 10764 bound_to 10752
  153.0889  135.6702  154.0006 H   0  0  0  0  0  0  0  0  0  0  0  0  # atno 10765 bound_to 10752
  139.9097  134.9617  156.7450 H   0  0  0  0  0  0  0  0  0  0  0  0  # atno 11005 bound_to 11000
  145.0839  140.9239  143.4809 LP  0  0  0  0  0  0  0  0  0  0  0  0  # atno 17320 bound_to 7965
  145.0841  139.2938  143.5768 LP  0  0  0  0  0  0  0  0  0  0  0  0  # atno 17321 bound_to 7965
  139.6134  144.7614  151.2900 LP  0  0  0  0  0  0  0  0  0  0  0  0  # atno 17342 bound_to 10162
  140.7339  143.6781  150.8024 LP  0  0  0  0  0  0  0  0  0  0  0  0  # atno 17343 bound_to 10162
  157.1696  131.0365  151.2802 LP  0  0  0  0  0  0  0  0  0  0  0  0  # atno 17370 bound_to 10713
  157.4241  130.7453  149.6936 LP  0  0  0  0  0  0  0  0  0  0  0  0  # atno 17371 bound_to 10713
  140.6819  133.9467  155.7915 LP  0  0  0  0  0  0  0  0  0  0  0  0  # atno 17394 bound_to 11000
  141.0504  134.0493  157.3791 LP  0  0  0  0  0  0  0  0  0  0  0  0  # atno 17395 bound_to 11000

$$$$
