AV-unprocessed.smi:2330|AV-procd|sdf|9311|dock7
  -GOLD-   2272012533D 1   1.00000     0.00000
 Structure written by MMmdl.
 42 43  0  0  0  0  0  0  0  0  1 V2000
  153.1623  143.7275  162.9209 C   0  0  0  0  0  0  0  0  0  0  0  0
  152.4632  143.1167  161.6982 C   0  0  2  0  0  0  0  0  0  0  0  0
  153.2604  141.9278  161.1281 C   0  0  0  0  0  0  0  0  0  0  0  0
  152.5644  141.3138  159.9022 C   0  0  0  0  0  0  0  0  0  0  0  0
  152.3040  142.3695  158.8112 C   0  0  1  0  0  0  0  0  0  0  0  0
  151.5583  141.7741  157.7068 N   0  0  0  0  0  0  0  0  0  0  0  0
  151.9143  140.6768  157.0251 C   0  0  0  0  0  0  0  0  0  0  0  0
  152.9256  140.0132  157.2533 O   0  0  0  0  0  0  0  0  0  0  0  0
  151.0414  140.4008  156.0472 N   0  0  0  0  0  0  0  0  0  0  0  0
  151.1917  139.3310  155.0651 C   0  0  0  0  0  0  0  0  0  0  0  0
  149.8372  138.7428  154.6109 C   0  0  1  0  0  0  0  0  0  0  0  0
  149.3121  137.6513  155.5541 C   0  0  0  0  0  0  0  0  0  0  0  0
  148.8041  139.7918  154.3276 C   0  0  0  0  0  0  0  0  0  0  0  0
  149.0071  141.1015  154.5038 N   0  0  0  0  0  0  0  0  0  0  0  0
  147.8974  141.8689  154.1416 C   0  0  0  0  0  0  0  0  0  0  0  0
  146.8419  141.1226  153.6830 C   0  0  0  0  0  0  0  0  0  0  0  0
  147.2045  139.4188  153.6908 S   0  0  0  0  0  0  0  0  0  0  0  0
  151.5149  143.5628  159.3796 C   0  0  0  0  0  0  0  0  0  0  0  0
  152.2195  144.1717  160.6024 C   0  0  0  0  0  0  0  0  0  0  0  0
  154.1478  144.1155  162.6616 H   0  0  0  0  0  0  0  0  0  0  0  0
  153.2928  142.9857  163.7095 H   0  0  0  0  0  0  0  0  0  0  0  0
  152.5791  144.5498  163.3365 H   0  0  0  0  0  0  0  0  0  0  0  0
  151.4923  142.7441  162.0282 H   0  0  0  0  0  0  0  0  0  0  0  0
  154.2627  142.2557  160.8484 H   0  0  0  0  0  0  0  0  0  0  0  0
  153.3894  141.1629  161.8945 H   0  0  0  0  0  0  0  0  0  0  0  0
  153.1756  140.5044  159.5011 H   0  0  0  0  0  0  0  0  0  0  0  0
  151.6207  140.8631  160.2130 H   0  0  0  0  0  0  0  0  0  0  0  0
  153.2654  142.7436  158.4540 H   0  0  0  0  0  0  0  0  0  0  0  0
  150.7085  142.2441  157.4318 H   0  0  0  0  0  0  0  0  0  0  0  0
  150.2380  141.0030  155.9422 H   0  0  0  0  0  0  0  0  0  0  0  0
  151.7660  139.6835  154.2067 H   0  0  0  0  0  0  0  0  0  0  0  0
  151.7889  138.5481  155.5336 H   0  0  0  0  0  0  0  0  0  0  0  0
  150.0232  138.2452  153.6584 H   0  0  0  0  0  0  0  0  0  0  0  0
  148.4110  137.1867  155.1528 H   0  0  0  0  0  0  0  0  0  0  0  0
  149.0684  138.0589  156.5357 H   0  0  0  0  0  0  0  0  0  0  0  0
  150.0540  136.8651  155.6960 H   0  0  0  0  0  0  0  0  0  0  0  0
  147.9461  142.9431  154.2412 H   0  0  0  0  0  0  0  0  0  0  0  0
  145.8779  141.4700  153.3422 H   0  0  0  0  0  0  0  0  0  0  0  0
  151.3886  144.3264  158.6110 H   0  0  0  0  0  0  0  0  0  0  0  0
  150.5115  143.2428  159.6648 H   0  0  0  0  0  0  0  0  0  0  0  0
  151.6178  144.9904  160.9984 H   0  0  0  0  0  0  0  0  0  0  0  0
  153.1696  144.6094  160.2929 H   0  0  0  0  0  0  0  0  0  0  0  0
  1  2  1  0  0  0  0
  1 20  1  0  0  0  0
  1 21  1  0  0  0  0
  1 22  1  0  0  0  0
  2 19  1  0  0  0  0
  2  3  1  0  0  0  0
  2 23  1  0  0  0  0
  3  4  1  0  0  0  0
  3 24  1  0  0  0  0
  3 25  1  0  0  0  0
  4  5  1  0  0  0  0
  4 26  1  0  0  0  0
  4 27  1  0  0  0  0
  5  6  1  0  0  0  0
  5 18  1  0  0  0  0
  5 28  1  0  0  0  0
  6  7  1  0  0  0  0
  6 29  1  0  0  0  0
  7  8  2  0  0  0  0
  7  9  1  0  0  0  0
  9 10  1  0  0  0  0
  9 30  1  0  0  0  0
 10 11  1  0  0  0  0
 10 31  1  0  0  0  0
 10 32  1  0  0  0  0
 11 12  1  0  0  0  0
 11 13  1  0  0  0  0
 11 33  1  0  0  0  0
 12 34  1  0  0  0  0
 12 35  1  0  0  0  0
 12 36  1  0  0  0  0
 13 17  1  0  0  0  0
 13 14  2  0  0  0  0
 14 15  1  0  0  0  0
 15 16  2  0  0  0  0
 15 37  1  0  0  0  0
 16 17  1  0  0  0  0
 16 38  1  0  0  0  0
 18 19  1  0  0  0  0
 18 39  1  0  0  0  0
 18 40  1  0  0  0  0
 19 41  1  0  0  0  0
 19 42  1  0  0  0  0
M  END
> <s_m_source_file>
AV-unprocessed.smi

> <i_m_source_file_index>
2330

> <i_lp_mmshare_version>
43012

> <i_f3d_flags>
0

> <s_epik_input>
W0NIM11bQ0BASF0xW0NIMl1bQ0gyXVtDQEhdKFtDSDJdW0NIMl0xKVtOSF1DKD1PKVtOSF1bQ0gyXVtDQEhdKFtDSDNdKWMybltjSF1bY0hdczI=

> <s_epik_cmdline>
J2VwaWtfcHl0aG9uJywgJy1waCcsICc3LjAnLCAnLXRuJywgJzgnLCAnLW1hJywgJzIwMCcsICctbWV0YWxfYmluZGluZycsICctaW1hZScsICc8aW5maWxlLm1hZT4nLCAnLW9tYWUnLCAnPG91dGZpbGUubWFlPic=

> <r_lp_tautomer_probability>
1

> <r_epik_Ionization_Penalty>
0.000331107

> <r_epik_Ionization_Penalty_Charging>
0

> <r_epik_Ionization_Penalty_Neutral>
0.000331107

> <r_epik_State_Penalty>
-0

> <r_epik_Charging_Adjusted_Penalty>
0

> <i_epik_Tot_Q>
0

> <i_epik_Tot_abs_Q>
0

> <r_epik_Metal_State_Penalty>
-0

> <b_epik_Metal_Only>
0

> <s_lp_Force_Field>
OPLS_2005

> <r_lp_Energy>
-1.29202

> <b_lp_Chiralities_Consistent>
1

> <s_lp_Variant>
AV-unprocessed.smi:2330-2

> <Gold.Version>
5.8.1

> <Gold.Id.Protein>
6NUR|6NUR_protein|mol2

> <Gold.PLP.Fitness>
48.0025

> <Gold.PLP.PLP>
-40.2179

> <Gold.PLP.part.hbond>
-1.0000

> <Gold.PLP.part.metal>
0.0000

> <Gold.PLP.part.buried>
-4.9210

> <Gold.PLP.part.nonpolar>
-34.7907

> <Gold.PLP.part.repulsive>
0.3149

> <Gold.PLP.ligand.clash>
0.0000

> <Gold.PLP.ligand.torsion>
0.4540

> <Gold.PLP.Chemscore.Hbond>
1.0000

> <Gold.PLP.Chemscore.CHOScore>
1.8596

> <Gold.PLP.Chemscore.Metal>
0.0000

> <Gold.Chemscore.Hbonds>
donor molecule, donor type, donor heavy atom, donor atom, acceptor molecule, acceptor atom, score
      P1  H  7997  8009       L1     8  1.00
      L1  C    15    37       P1  8028  1.00
      L1  C    16    38       P1 10175  0.81

> <Gold.PLP.Chemscore.Internal.Correction>
0.1137

> <Gold.Rescore>
     Score         DG    S(hbond)    S(metal)    S(lipo)     H(rot)  DE(clash)    DE(int)     intcor
     16.71     -19.27       0.99        0.00     121.33       1.45       0.49       2.08       ----

> <Gold.Chemscore.Fitness>
16.7123

> <Gold.Chemscore.DG>
-19.2749

> <Gold.Chemscore.ZeroCoef>
-5.4800

> <Gold.Chemscore.Hbond>
0.9943

> <Gold.Chemscore.Metal>
0.0000

> <Gold.Chemscore.Lipo>
121.3262

> <Gold.Chemscore.Internal_Hbond>
0.0000

> <Gold.Chemscore.DEClash>
0.4875

> <Gold.Chemscore.DEInternal>
2.0751

> <Gold.Chemscore.Rot>
1.4536

> <Gold.Chemscore.Internal.Correction>
   9.000000E+99

> <Gold.Chemscore.Hbonds>
donor molecule, donor type, donor heavy atom, donor atom, acceptor molecule, acceptor atom, score
      P1  H  7997  8009       L1     8  0.96

> <Gold.Chemscore.Hbond.Weighted>
-3.3209

> <Gold.Chemscore.Metal.Weighted>
-0.0000

> <Gold.Chemscore.Lipo.Weighted>
-14.1952

> <Gold.Chemscore.Internal_Hbond.Weighted>
0.0000

> <Gold.Chemscore.DEClash.Weighted>
0.4875

> <Gold.Chemscore.DEInternal.Weighted>
2.0751

> <Gold.Chemscore.Rot.Weighted>
3.7212

> <Gold.Chemscore.Internal.Correction.Weighted>
   9.000000E+99

> <Gold.Protein.RotatedTorsions>
[ 6907 6896 6895 6894 ] final  156.08 input  -60.11 | X-H torsion
[ 7974 7965 7964 7962 ] final -129.08 input  175.53 | X-H torsion
[ 8008 7997 7996 7995 ] final  172.08 input   59.86 | X-H torsion
[ 10167 10162 10161 10158 ] final   94.29 input  -65.29 | X-H torsion
[ 10718 10713 10712 10709 ] final  127.38 input   66.30 | X-H torsion
[ 10763 10752 10751 10750 ] final  -33.07 input  -60.55 | X-H torsion
[ 11005 11000 10999 10996 ] final   23.37 input  -57.11 | X-H torsion

> <Gold.Protein.ActiveResidues>
 VAL166  LYS551  ARG553  GLY616  TRP617  ASP618  TYR619  PRO620  LYS621  CYS622 
 ASP623  PHE694  ASN695  SER759  ASP760  ASP761  ALA762  ILE779  LEU786  VAL792 
 PHE793  MET794  SER795  GLU796  ALA797  LYS798  CYS799  TRP800  GLU811  SER814 

> <Gold.Protein.RotatedAtoms>
  152.0348  133.3952  159.4311 H   0  0  0  0  0  0  0  0  0  0  0  0  # atno 6907 bound_to 6896
  150.6879  134.3480  159.4906 H   0  0  0  0  0  0  0  0  0  0  0  0  # atno 6908 bound_to 6896
  152.1271  134.9162  160.0611 H   0  0  0  0  0  0  0  0  0  0  0  0  # atno 6909 bound_to 6896
  144.9607  140.7443  143.4731 H   0  0  0  0  0  0  0  0  0  0  0  0  # atno 7974 bound_to 7965
  156.1209  140.1495  156.9206 H   0  0  0  0  0  0  0  0  0  0  0  0  # atno 8008 bound_to 7997
  154.4835  140.0872  156.7474 H   0  0  0  0  0  0  0  0  0  0  0  0  # atno 8009 bound_to 7997
  155.4430  140.3432  155.4294 H   0  0  0  0  0  0  0  0  0  0  0  0  # atno 8010 bound_to 7997
  139.8098  144.6778  150.9656 H   0  0  0  0  0  0  0  0  0  0  0  0  # atno 10167 bound_to 10162
  157.5338  131.1098  150.8967 H   0  0  0  0  0  0  0  0  0  0  0  0  # atno 10718 bound_to 10713
  153.8241  135.6872  153.4823 H   0  0  0  0  0  0  0  0  0  0  0  0  # atno 10763 bound_to 10752
  153.1551  135.4602  154.9690 H   0  0  0  0  0  0  0  0  0  0  0  0  # atno 10764 bound_to 10752
  154.7915  135.3303  154.7711 H   0  0  0  0  0  0  0  0  0  0  0  0  # atno 10765 bound_to 10752
  140.3704  134.2029  155.7667 H   0  0  0  0  0  0  0  0  0  0  0  0  # atno 11005 bound_to 11000
  145.2704  139.1957  143.4844 LP  0  0  0  0  0  0  0  0  0  0  0  0  # atno 17320 bound_to 7965
  146.3352  140.2650  142.8603 LP  0  0  0  0  0  0  0  0  0  0  0  0  # atno 17321 bound_to 7965
  140.7818  143.4197  151.0861 LP  0  0  0  0  0  0  0  0  0  0  0  0  # atno 17342 bound_to 10162
  139.7864  143.8281  152.3145 LP  0  0  0  0  0  0  0  0  0  0  0  0  # atno 17343 bound_to 10162
  156.9541  130.5430  149.5283 LP  0  0  0  0  0  0  0  0  0  0  0  0  # atno 17370 bound_to 10713
  156.0443  130.5521  150.8843 LP  0  0  0  0  0  0  0  0  0  0  0  0  # atno 17371 bound_to 10713
  141.1956  133.8101  157.0707 LP  0  0  0  0  0  0  0  0  0  0  0  0  # atno 17394 bound_to 11000
  140.0556  134.9782  157.1215 LP  0  0  0  0  0  0  0  0  0  0  0  0  # atno 17395 bound_to 11000

$$$$
