AV-unprocessed.smi:1809|AV-procd|sdf|7321|dock10
  -GOLD-   22720 8573D 1   1.00000     0.00000
 Structure written by MMmdl.
 39 41  0  0  0  0  0  0  0  0  3 V2000
  149.0739  141.2559  154.6664 C   0  0  0  0  0  0  0  0  0  0  0  0
  149.9613  140.0589  154.6440 C   0  0  0  0  0  0  0  0  0  0  0  0
  151.2827  140.1367  154.8186 N   0  0  0  0  0  0  0  0  0  0  0  0
  151.8920  138.8917  154.7595 N   0  0  0  0  0  0  0  0  0  0  0  0
  151.0248  137.8909  154.5523 C   0  0  0  0  0  0  0  0  0  0  0  0
  151.4156  136.6087  154.4604 N   0  5  0  0  0  0  0  0  0  0  0  0
  150.7255  135.6431  155.1074 C   0  0  0  0  0  0  0  0  0  0  0  0
  150.9761  135.1891  156.2263 O   0  0  0  0  0  0  0  0  0  0  0  0
  149.6750  135.1773  154.4174 N   0  0  0  0  0  0  0  0  0  0  0  0
  148.7465  134.1487  154.8734 C   0  0  0  0  0  0  0  0  0  0  0  0
  148.3440  133.2006  153.7312 C   0  0  2  0  0  0  0  0  0  0  0  0
  147.0703  133.6852  153.0007 C   0  0  0  0  0  0  0  0  0  0  0  0
  146.7022  132.6686  151.9987 N   0  3  2  0  0  0  0  0  0  0  0  0
  145.5253  132.9161  151.1489 C   0  0  0  0  0  0  0  0  0  0  0  0
  145.0719  131.5160  150.6886 C   0  0  0  0  0  0  0  0  0  0  0  0
  145.9382  130.5154  151.4762 C   0  0  0  0  0  0  0  0  0  0  0  0
  146.4873  131.3606  152.6213 C   0  0  1  0  0  0  0  0  0  0  0  0
  147.7873  130.9102  153.3000 C   0  0  0  0  0  0  0  0  0  0  0  0
  148.1231  131.8949  154.2787 O   0  0  0  0  0  0  0  0  0  0  0  0
  149.3536  138.4312  154.3918 S   0  0  0  0  0  0  0  0  0  0  0  0
  148.8754  141.5521  155.6964 H   0  0  0  0  0  0  0  0  0  0  0  0
  148.1261  141.0337  154.1758 H   0  0  0  0  0  0  0  0  0  0  0  0
  149.5483  142.0884  154.1461 H   0  0  0  0  0  0  0  0  0  0  0  0
  149.5070  135.5745  153.5044 H   0  0  0  0  0  0  0  0  0  0  0  0
  149.2220  133.5876  155.6783 H   0  0  0  0  0  0  0  0  0  0  0  0
  147.8630  134.6211  155.3061 H   0  0  0  0  0  0  0  0  0  0  0  0
  149.1590  133.1413  153.0075 H   0  0  0  0  0  0  0  0  0  0  0  0
  146.2505  133.8310  153.7058 H   0  0  0  0  0  0  0  0  0  0  0  0
  147.2510  134.6400  152.5059 H   0  0  0  0  0  0  0  0  0  0  0  0
  144.7369  133.3926  151.7336 H   0  0  0  0  0  0  0  0  0  0  0  0
  145.7753  133.5722  150.3148 H   0  0  0  0  0  0  0  0  0  0  0  0
  144.0134  131.3724  150.9091 H   0  0  0  0  0  0  0  0  0  0  0  0
  145.2042  131.3824  149.6143 H   0  0  0  0  0  0  0  0  0  0  0  0
  145.3747  129.6491  151.8243 H   0  0  0  0  0  0  0  0  0  0  0  0
  146.7546  130.1560  150.8477 H   0  0  0  0  0  0  0  0  0  0  0  0
  145.7069  131.4592  153.3796 H   0  0  0  0  0  0  0  0  0  0  0  0
  147.6499  129.9470  153.7914 H   0  0  0  0  0  0  0  0  0  0  0  0
  148.5988  130.7978  152.5792 H   0  0  0  0  0  0  0  0  0  0  0  0
  147.4902  132.5626  151.3753 H   0  0  0  0  0  0  0  0  0  0  0  0
  1  2  1  0  0  0  0
  1 21  1  0  0  0  0
  1 22  1  0  0  0  0
  1 23  1  0  0  0  0
  2 20  1  0  0  0  0
  2  3  2  0  0  0  0
  3  4  1  0  0  0  0
  4  5  2  0  0  0  0
  5  6  1  0  0  0  0
  5 20  1  0  0  0  0
  6  7  1  0  0  0  0
  7  8  2  0  0  0  0
  7  9  1  0  0  0  0
  9 10  1  0  0  0  0
  9 24  1  0  0  0  0
 10 11  1  0  0  0  0
 10 25  1  0  0  0  0
 10 26  1  0  0  0  0
 11 19  1  0  0  0  0
 11 12  1  0  0  0  0
 11 27  1  0  0  0  0
 12 13  1  0  0  0  0
 12 28  1  0  0  0  0
 12 29  1  0  0  0  0
 13 17  1  0  0  0  0
 13 14  1  0  0  0  0
 13 39  1  0  0  0  0
 14 15  1  0  0  0  0
 14 30  1  0  0  0  0
 14 31  1  0  0  0  0
 15 16  1  0  0  0  0
 15 32  1  0  0  0  0
 15 33  1  0  0  0  0
 16 17  1  0  0  0  0
 16 34  1  0  0  0  0
 16 35  1  0  0  0  0
 17 18  1  0  0  0  0
 17 36  1  0  0  0  0
 18 19  1  0  0  0  0
 18 37  1  0  0  0  0
 18 38  1  0  0  0  0
M  CHG  1   6  -1
M  CHG  1  13   1
M  END
> <s_m_source_file>
AV-unprocessed.smi

> <i_m_source_file_index>
1809

> <i_lp_mmshare_version>
43012

> <i_f3d_flags>
0

> <s_epik_input>
W0NIM11jMW5uYyhzMSlbTkhdQyg9TylbTkhdW0NIMl1bQ0BIXShbQ0gyXTIpT1tDSDJdW0NAQEhdKE4yMylbQ0gyXVtDSDJdW0NIMl0z

> <s_epik_cmdline>
J2VwaWtfcHl0aG9uJywgJy1waCcsICc3LjAnLCAnLXRuJywgJzgnLCAnLW1hJywgJzIwMCcsICctbWV0YWxfYmluZGluZycsICctaW1hZScsICc8aW5maWxlLm1hZT4nLCAnLW9tYWUnLCAnPG91dGZpbGUubWFlPic=

> <r_lp_tautomer_probability>
1

> <r_epik_Ionization_Penalty>
3.2601

> <r_epik_Ionization_Penalty_Charging>
3.1406

> <r_epik_Ionization_Penalty_Neutral>
0.119497

> <r_epik_State_Penalty>
3.08894

> <r_epik_Charging_Adjusted_Penalty>
6.22954

> <i_epik_Tot_Q>
0

> <i_epik_Tot_abs_Q>
2

> <r_epik_Metal_State_Penalty>
0.510807

> <b_epik_Metal_Only>
1

> <s_lp_Force_Field>
OPLS_2005

> <r_lp_Energy>
28.6606

> <b_lp_Chiralities_Consistent>
1

> <s_lp_Variant>
AV-unprocessed.smi:1809-13

> <Gold.Version>
5.8.1

> <Gold.Id.Protein>
6NUR|6NUR_protein|mol2

> <Gold.PLP.Fitness>
42.8598

> <Gold.PLP.PLP>
-34.3570

> <Gold.PLP.part.hbond>
-3.3133

> <Gold.PLP.part.metal>
0.0000

> <Gold.PLP.part.buried>
-5.0067

> <Gold.PLP.part.nonpolar>
-26.6967

> <Gold.PLP.part.repulsive>
0.8752

> <Gold.PLP.ligand.clash>
0.0000

> <Gold.PLP.ligand.torsion>
1.6787

> <Gold.PLP.Chemscore.Hbond>
3.9500

> <Gold.PLP.Chemscore.CHOScore>
0.0000

> <Gold.PLP.Chemscore.Metal>
0.0000

> <Gold.Chemscore.Hbonds>
donor molecule, donor type, donor heavy atom, donor atom, acceptor molecule, acceptor atom, score
      L1  H     9    24       P1  7948  0.90
      P1  H  7989  7998       L1     3  0.95
      P1  H 10752 10764       L1     6  2.00

> <Gold.PLP.Chemscore.Internal.Correction>
0.0103

> <Gold.Rescore>
     Score         DG    S(hbond)    S(metal)    S(lipo)     H(rot)  DE(clash)    DE(int)     intcor
     15.25     -17.11       1.89        0.00      74.59       1.32       0.23       1.63       ----

> <Gold.Chemscore.Fitness>
15.2521

> <Gold.Chemscore.DG>
-17.1131

> <Gold.Chemscore.ZeroCoef>
-5.4800

> <Gold.Chemscore.Hbond>
1.8853

> <Gold.Chemscore.Metal>
0.0000

> <Gold.Chemscore.Lipo>
74.5907

> <Gold.Chemscore.Internal_Hbond>
0.0000

> <Gold.Chemscore.DEClash>
0.2286

> <Gold.Chemscore.DEInternal>
1.6324

> <Gold.Chemscore.Rot>
1.3246

> <Gold.Chemscore.Internal.Correction>
   9.000000E+99

> <Gold.Chemscore.Hbonds>
donor molecule, donor type, donor heavy atom, donor atom, acceptor molecule, acceptor atom, score
      L1  H     9    24       P1  7948  0.18
      L1  H    13    39       P1 10747  0.01
      P1  H  7989  7998       L1     3  0.12
      P1  H 10752 10764       L1     6  0.25

> <Gold.Chemscore.Hbond.Weighted>
-6.2970

> <Gold.Chemscore.Metal.Weighted>
-0.0000

> <Gold.Chemscore.Lipo.Weighted>
-8.7271

> <Gold.Chemscore.Internal_Hbond.Weighted>
0.0000

> <Gold.Chemscore.DEClash.Weighted>
0.2286

> <Gold.Chemscore.DEInternal.Weighted>
1.6324

> <Gold.Chemscore.Rot.Weighted>
3.3910

> <Gold.Chemscore.Internal.Correction.Weighted>
   9.000000E+99

> <Gold.Protein.RotatedTorsions>
[ 6907 6896 6895 6894 ] final   74.19 input  -60.11 | X-H torsion
[ 7974 7965 7964 7962 ] final   -7.96 input  175.53 | X-H torsion
[ 8008 7997 7996 7995 ] final  -99.74 input   59.86 | X-H torsion
[ 10167 10162 10161 10158 ] final  -63.32 input  -65.29 | X-H torsion
[ 10718 10713 10712 10709 ] final -113.87 input   66.30 | X-H torsion
[ 10763 10752 10751 10750 ] final  -89.83 input  -60.55 | X-H torsion
[ 11005 11000 10999 10996 ] final  -87.35 input  -57.11 | X-H torsion

> <Gold.Protein.ActiveResidues>
 VAL166  LYS551  ARG553  GLY616  TRP617  ASP618  TYR619  PRO620  LYS621  CYS622 
 ASP623  PHE694  ASN695  SER759  ASP760  ASP761  ALA762  ILE779  LEU786  VAL792 
 PHE793  MET794  SER795  GLU796  ALA797  LYS798  CYS799  TRP800  GLU811  SER814 

> <Gold.Protein.RotatedAtoms>
  152.4963  134.4308  159.9511 H   0  0  0  0  0  0  0  0  0  0  0  0  # atno 6907 bound_to 6896
  151.4286  133.3671  159.2773 H   0  0  0  0  0  0  0  0  0  0  0  0  # atno 6908 bound_to 6896
  150.9171  134.8611  159.7524 H   0  0  0  0  0  0  0  0  0  0  0  0  # atno 6909 bound_to 6896
  146.2293  140.2398  142.8343 H   0  0  0  0  0  0  0  0  0  0  0  0  # atno 7974 bound_to 7965
  154.8190  140.0445  157.1397 H   0  0  0  0  0  0  0  0  0  0  0  0  # atno 8008 bound_to 7997
  154.9282  140.3036  155.5161 H   0  0  0  0  0  0  0  0  0  0  0  0  # atno 8009 bound_to 7997
  156.2978  140.2328  156.4339 H   0  0  0  0  0  0  0  0  0  0  0  0  # atno 8010 bound_to 7997
  140.5878  143.2336  151.6204 H   0  0  0  0  0  0  0  0  0  0  0  0  # atno 10167 bound_to 10162
  156.0794  130.5996  150.8700 H   0  0  0  0  0  0  0  0  0  0  0  0  # atno 10718 bound_to 10713
  154.6594  135.5326  153.7999 H   0  0  0  0  0  0  0  0  0  0  0  0  # atno 10763 bound_to 10752
  153.0433  135.6502  154.0895 H   0  0  0  0  0  0  0  0  0  0  0  0  # atno 10764 bound_to 10752
  154.0805  135.2947  155.3271 H   0  0  0  0  0  0  0  0  0  0  0  0  # atno 10765 bound_to 10752
  141.1618  133.7506  156.9294 H   0  0  0  0  0  0  0  0  0  0  0  0  # atno 11005 bound_to 11000
  144.9493  140.8162  143.5581 LP  0  0  0  0  0  0  0  0  0  0  0  0  # atno 17320 bound_to 7965
  145.2357  139.2095  143.5019 LP  0  0  0  0  0  0  0  0  0  0  0  0  # atno 17321 bound_to 7965
  139.5209  144.3210  152.0910 LP  0  0  0  0  0  0  0  0  0  0  0  0  # atno 17342 bound_to 10162
  140.2370  144.4309  150.6276 LP  0  0  0  0  0  0  0  0  0  0  0  0  # atno 17343 bound_to 10162
  157.5904  131.0944  150.9128 LP  0  0  0  0  0  0  0  0  0  0  0  0  # atno 17370 bound_to 10713
  156.9305  130.5348  149.5279 LP  0  0  0  0  0  0  0  0  0  0  0  0  # atno 17371 bound_to 10713
  140.1397  134.9302  157.2450 LP  0  0  0  0  0  0  0  0  0  0  0  0  # atno 17394 bound_to 11000
  140.2852  134.3304  155.7331 LP  0  0  0  0  0  0  0  0  0  0  0  0  # atno 17395 bound_to 11000

$$$$
