AV-unprocessed.smi:37|AV-procd|sdf|303|dock5
  -GOLD-   2262016113D 1   1.00000     0.00000
 Structure written by MMmdl.
 44 45  0  0  0  0  0  0  0  0  1 V2000
  145.8219  135.6897  160.8581 C   0  0  0  0  0  0  0  0  0  0  0  0
  147.2195  135.9207  161.4514 C   0  0  0  0  0  0  0  0  0  0  0  0
  148.3413  135.8770  160.4116 C   0  0  0  0  0  0  0  0  0  0  0  0
  148.5702  134.8783  159.7270 O   0  0  0  0  0  0  0  0  0  0  0  0
  149.0155  137.0351  160.3529 O   0  0  0  0  0  0  0  0  0  0  0  0
  150.2409  137.0977  159.6423 C   0  0  0  0  0  0  0  0  0  0  0  0
  150.3178  138.4237  158.8789 C   0  0  2  0  0  0  0  0  0  0  0  0
  149.4702  138.3834  157.7306 O   0  0  0  0  0  0  0  0  0  0  0  0
  150.1361  138.8974  156.6156 C   0  0  1  0  0  0  0  0  0  0  0  0
  149.2211  139.8218  155.8468 N   0  0  0  0  0  0  0  0  0  0  0  0
  148.1580  140.4826  156.4510 C   0  0  0  0  0  0  0  0  0  0  0  0
  147.3310  141.3145  155.7747 C   0  0  0  0  0  0  0  0  0  0  0  0
  146.3253  141.9234  156.4256 F   0  0  0  0  0  0  0  0  0  0  0  0
  147.5237  141.5602  154.3482 C   0  0  0  0  0  0  0  0  0  0  0  0
  146.8251  142.2925  153.6502 O   0  0  0  0  0  0  0  0  0  0  0  0
  148.6091  140.8807  153.7867 N   0  0  0  0  0  0  0  0  0  0  0  0
  149.4707  140.0232  154.4726 C   0  0  0  0  0  0  0  0  0  0  0  0
  150.4030  139.4800  153.8816 O   0  0  0  0  0  0  0  0  0  0  0  0
  151.3980  139.5987  157.1315 C   0  0  1  0  0  0  0  0  0  0  0  0
  151.0329  141.4747  157.7290 Br  0  0  0  0  0  0  0  0  0  0  0  0
  151.7150  138.7182  158.3282 C   0  0  1  0  0  0  0  0  0  0  0  0
  152.5374  139.3642  159.2910 O   0  0  0  0  0  0  0  0  0  0  0  0
  153.8724  139.3945  159.1297 C   0  0  0  0  0  0  0  0  0  0  0  0
  154.5083  138.7972  158.2612 O   0  0  0  0  0  0  0  0  0  0  0  0
  154.5696  140.2755  160.1634 C   0  0  0  0  0  0  0  0  0  0  0  0
  154.0195  141.7082  160.1654 C   0  0  0  0  0  0  0  0  0  0  0  0
  148.7849  141.0249  152.8030 H   0  0  0  0  0  0  0  0  0  0  0  0
  145.0634  135.7235  161.6401 H   0  0  0  0  0  0  0  0  0  0  0  0
  145.7512  134.7155  160.3730 H   0  0  0  0  0  0  0  0  0  0  0  0
  145.5706  136.4544  160.1221 H   0  0  0  0  0  0  0  0  0  0  0  0
  147.2499  136.8888  161.9520 H   0  0  0  0  0  0  0  0  0  0  0  0
  147.4236  135.1664  162.2117 H   0  0  0  0  0  0  0  0  0  0  0  0
  151.0644  137.0367  160.3552 H   0  0  0  0  0  0  0  0  0  0  0  0
  150.3346  136.2537  158.9576 H   0  0  0  0  0  0  0  0  0  0  0  0
  149.9924  139.2507  159.5125 H   0  0  0  0  0  0  0  0  0  0  0  0
  150.3549  138.0593  155.9504 H   0  0  0  0  0  0  0  0  0  0  0  0
  147.9719  140.3502  157.5067 H   0  0  0  0  0  0  0  0  0  0  0  0
  152.1836  139.6187  156.3758 H   0  0  0  0  0  0  0  0  0  0  0  0
  152.1642  137.7835  157.9871 H   0  0  0  0  0  0  0  0  0  0  0  0
  154.4478  139.8265  161.1494 H   0  0  0  0  0  0  0  0  0  0  0  0
  155.6391  140.2896  159.9521 H   0  0  0  0  0  0  0  0  0  0  0  0
  154.5560  142.3239  160.8874 H   0  0  0  0  0  0  0  0  0  0  0  0
  152.9627  141.7313  160.4340 H   0  0  0  0  0  0  0  0  0  0  0  0
  154.1282  142.1760  159.1863 H   0  0  0  0  0  0  0  0  0  0  0  0
  1  2  1  0  0  0  0
  1 28  1  0  0  0  0
  1 29  1  0  0  0  0
  1 30  1  0  0  0  0
  2  3  1  0  0  0  0
  2 31  1  0  0  0  0
  2 32  1  0  0  0  0
  3  4  2  0  0  0  0
  3  5  1  0  0  0  0
  5  6  1  0  0  0  0
  6  7  1  0  0  0  0
  6 33  1  0  0  0  0
  6 34  1  0  0  0  0
  7 21  1  0  0  0  0
  7  8  1  0  0  0  0
  7 35  1  0  0  0  0
  8  9  1  0  0  0  0
  9 10  1  0  0  0  0
  9 19  1  0  0  0  0
  9 36  1  0  0  0  0
 10 17  1  0  0  0  0
 10 11  1  0  0  0  0
 11 12  2  0  0  0  0
 11 37  1  0  0  0  0
 12 13  1  0  0  0  0
 12 14  1  0  0  0  0
 14 15  2  0  0  0  0
 14 16  1  0  0  0  0
 16 27  1  0  0  0  0
 16 17  1  0  0  0  0
 17 18  2  0  0  0  0
 19 20  1  0  0  0  0
 19 21  1  0  0  0  0
 19 38  1  0  0  0  0
 21 22  1  0  0  0  0
 21 39  1  0  0  0  0
 22 23  1  0  0  0  0
 23 24  2  0  0  0  0
 23 25  1  0  0  0  0
 25 26  1  0  0  0  0
 25 40  1  0  0  0  0
 25 41  1  0  0  0  0
 26 42  1  0  0  0  0
 26 43  1  0  0  0  0
 26 44  1  0  0  0  0
M  END
> <s_m_source_file>
AV-unprocessed.smi

> <i_m_source_file_index>
37

> <i_lp_mmshare_version>
43012

> <i_f3d_flags>
0

> <s_epik_input>
W0NIM11bQ0gyXUMoPU8pT1tDSDJdW0NAQEhdMU9bQ0BASF0objJbY0hdYyhGKWMoPU8pW25IXWMyPU8pW0NAQEhdKEJyKVtDQEhdMU9DKD1PKVtDSDJdW0NIM10=

> <s_epik_cmdline>
J2VwaWtfcHl0aG9uJywgJy1waCcsICc3LjAnLCAnLXRuJywgJzgnLCAnLW1hJywgJzIwMCcsICctbWV0YWxfYmluZGluZycsICctaW1hZScsICc8aW5maWxlLm1hZT4nLCAnLW9tYWUnLCAnPG91dGZpbGUubWFlPic=

> <r_lp_tautomer_probability>
0.999537

> <r_epik_Ionization_Penalty>
0.104106

> <r_epik_Ionization_Penalty_Charging>
0.104106

> <r_epik_Ionization_Penalty_Neutral>
3.94675e-16

> <r_epik_State_Penalty>
0.0940182

> <r_epik_Charging_Adjusted_Penalty>
0.198124

> <i_epik_Tot_Q>
0

> <i_epik_Tot_abs_Q>
0

> <r_epik_Metal_State_Penalty>
3.05314

> <b_epik_Metal_Only>
0

> <s_epik_Chemistry_Notes>
This compound has an ester and may undergo hydrolysis at high or low pH. This compound contains an acetal/aminal-like group ( X-CH(R)-Y where X, Y are N, S, or O) that may be acid/base labile, releasing an aldehyde.

> <s_lp_Force_Field>
OPLS_2005

> <r_lp_Energy>
25.209

> <b_lp_Chiralities_Consistent>
1

> <s_lp_Variant>
AV-unprocessed.smi:37-1

> <Gold.Version>
5.8.1

> <Gold.Id.Protein>
6NUR|6NUR_protein|mol2

> <Gold.PLP.Fitness>
38.4791

> <Gold.PLP.PLP>
-30.2294

> <Gold.PLP.part.hbond>
-5.0900

> <Gold.PLP.part.metal>
0.0000

> <Gold.PLP.part.buried>
-2.3199

> <Gold.PLP.part.nonpolar>
-25.1170

> <Gold.PLP.part.repulsive>
2.4038

> <Gold.PLP.ligand.clash>
0.0000

> <Gold.PLP.ligand.torsion>
1.4625

> <Gold.PLP.Chemscore.Hbond>
3.6724

> <Gold.PLP.Chemscore.CHOScore>
0.0000

> <Gold.PLP.Chemscore.Metal>
0.0000

> <Gold.Chemscore.Hbonds>
donor molecule, donor type, donor heavy atom, donor atom, acceptor molecule, acceptor atom, score
      L1  H    16    27       P1  7957  0.74
      P1  H  6896  6909       L1     4  0.76
      P1  H  7989  7998       L1    18  1.00
      P1  H  7997  8008       L1    24  1.00

> <Gold.PLP.Chemscore.Internal.Correction>
0.1575

> <Gold.Rescore>
     Score         DG    S(hbond)    S(metal)    S(lipo)     H(rot)  DE(clash)    DE(int)     intcor
     12.26     -14.87       3.47        0.00      54.15       3.33       1.11       1.50       ----

> <Gold.Chemscore.Fitness>
12.2576

> <Gold.Chemscore.DG>
-14.8677

> <Gold.Chemscore.ZeroCoef>
-5.4800

> <Gold.Chemscore.Hbond>
3.4664

> <Gold.Chemscore.Metal>
0.0000

> <Gold.Chemscore.Lipo>
54.1487

> <Gold.Chemscore.Internal_Hbond>
0.0000

> <Gold.Chemscore.DEClash>
1.1091

> <Gold.Chemscore.DEInternal>
1.5010

> <Gold.Chemscore.Rot>
3.3303

> <Gold.Chemscore.Internal.Correction>
   9.000000E+99

> <Gold.Chemscore.Hbonds>
donor molecule, donor type, donor heavy atom, donor atom, acceptor molecule, acceptor atom, score
      L1  H    16    27       P1  7957  0.70
      P1  H  6896  6909       L1     4  0.62
      P1  H  7989  7998       L1    18  0.53
      P1  H  7997  8008       L1    24  0.44

> <Gold.Chemscore.Hbond.Weighted>
-11.5779

> <Gold.Chemscore.Metal.Weighted>
-0.0000

> <Gold.Chemscore.Lipo.Weighted>
-6.3354

> <Gold.Chemscore.Internal_Hbond.Weighted>
0.0000

> <Gold.Chemscore.DEClash.Weighted>
1.1091

> <Gold.Chemscore.DEInternal.Weighted>
1.5010

> <Gold.Chemscore.Rot.Weighted>
8.5256

> <Gold.Chemscore.Internal.Correction.Weighted>
   9.000000E+99

> <Gold.Protein.RotatedTorsions>
[ 6907 6896 6895 6894 ] final   41.62 input  -60.11 | X-H torsion
[ 7974 7965 7964 7962 ] final  -75.26 input  175.53 | X-H torsion
[ 8008 7997 7996 7995 ] final -118.53 input   59.86 | X-H torsion
[ 10167 10162 10161 10158 ] final  113.27 input  -65.29 | X-H torsion
[ 10718 10713 10712 10709 ] final  -73.79 input   66.30 | X-H torsion
[ 10763 10752 10751 10750 ] final   44.30 input  -60.55 | X-H torsion
[ 11005 11000 10999 10996 ] final  132.17 input  -57.11 | X-H torsion

> <Gold.Protein.ActiveResidues>
 VAL166  LYS551  ARG553  GLY616  TRP617  ASP618  TYR619  PRO620  LYS621  CYS622 
 ASP623  PHE694  ASN695  SER759  ASP760  ASP761  ALA762  ILE779  LEU786  VAL792 
 PHE793  MET794  SER795  GLU796  ALA797  LYS798  CYS799  TRP800  GLU811  SER814 

> <Gold.Protein.RotatedAtoms>
  152.1975  134.8617  160.0511 H   0  0  0  0  0  0  0  0  0  0  0  0  # atno 6907 bound_to 6896
  151.9483  133.3653  159.3998 H   0  0  0  0  0  0  0  0  0  0  0  0  # atno 6908 bound_to 6896
  150.6948  134.4291  159.5284 H   0  0  0  0  0  0  0  0  0  0  0  0  # atno 6909 bound_to 6896
  145.6284  140.9344  143.1100 H   0  0  0  0  0  0  0  0  0  0  0  0  # atno 7974 bound_to 7965
  155.1011  140.0396  157.2697 H   0  0  0  0  0  0  0  0  0  0  0  0  # atno 8008 bound_to 7997
  154.6757  140.2622  155.6935 H   0  0  0  0  0  0  0  0  0  0  0  0  # atno 8009 bound_to 7997
  156.2676  140.2788  156.1283 H   0  0  0  0  0  0  0  0  0  0  0  0  # atno 8010 bound_to 7997
  139.6474  144.7127  151.2115 H   0  0  0  0  0  0  0  0  0  0  0  0  # atno 10167 bound_to 10162
  156.0267  130.4402  150.2796 H   0  0  0  0  0  0  0  0  0  0  0  0  # atno 10718 bound_to 10713
  152.9843  135.6075  154.3252 H   0  0  0  0  0  0  0  0  0  0  0  0  # atno 10763 bound_to 10752
  154.2959  135.2774  155.2635 H   0  0  0  0  0  0  0  0  0  0  0  0  # atno 10764 bound_to 10752
  154.4909  135.5892  153.6515 H   0  0  0  0  0  0  0  0  0  0  0  0  # atno 10765 bound_to 10752
  139.9774  134.9559  156.9543 H   0  0  0  0  0  0  0  0  0  0  0  0  # atno 11005 bound_to 11000
  144.7203  139.8052  143.7384 LP  0  0  0  0  0  0  0  0  0  0  0  0  # atno 17320 bound_to 7965
  146.1376  139.4425  143.0129 LP  0  0  0  0  0  0  0  0  0  0  0  0  # atno 17321 bound_to 7965
  140.7521  143.6208  150.8515 LP  0  0  0  0  0  0  0  0  0  0  0  0  # atno 17342 bound_to 10162
  139.9852  143.5907  152.2929 LP  0  0  0  0  0  0  0  0  0  0  0  0  # atno 17343 bound_to 10162
  157.0899  131.0167  151.3125 LP  0  0  0  0  0  0  0  0  0  0  0  0  # atno 17370 bound_to 10713
  157.4862  130.7795  149.7462 LP  0  0  0  0  0  0  0  0  0  0  0  0  # atno 17371 bound_to 10713
  140.5167  134.0948  155.7282 LP  0  0  0  0  0  0  0  0  0  0  0  0  # atno 17394 bound_to 11000
  141.1450  133.9072  157.2238 LP  0  0  0  0  0  0  0  0  0  0  0  0  # atno 17395 bound_to 11000

$$$$
