AV-unprocessed.smi:1251|AV-procd|sdf|5257|dock6
  -GOLD-   22720 4363D 1   1.00000     0.00000
 Structure written by MMmdl.
 39 40  0  0  0  0  0  0  0  0  1 V2000
  151.0500  143.0179  158.5856 C   0  0  0  0  0  0  0  0  0  0  0  0
  150.6193  141.7796  157.7920 C   0  0  0  0  0  0  0  0  0  0  0  0
  150.9926  141.8727  156.3060 C   0  0  0  0  0  0  0  0  0  0  0  0
  150.5733  140.6668  155.5329 C   0  0  0  0  0  0  0  0  0  0  0  0
  151.4462  139.8743  154.8986 N   0  0  0  0  0  0  0  0  0  0  0  0
  150.8204  138.8336  154.2271 N   0  0  0  0  0  0  0  0  0  0  0  0
  149.4880  138.8812  154.3613 C   0  0  0  0  0  0  0  0  0  0  0  0
  148.6013  137.9396  153.7748 N   0  0  0  0  0  0  0  0  0  0  0  0
  147.3682  137.5903  154.1815 C   0  0  0  0  0  0  0  0  0  0  0  0
  146.7899  138.0444  155.1692 O   0  0  0  0  0  0  0  0  0  0  0  0
  146.8336  136.6680  153.3670 N   0  0  0  0  0  0  0  0  0  0  0  0
  145.5157  136.0558  153.5237 C   0  0  1  0  0  0  0  0  0  0  0  0
  144.4451  137.1292  153.2742 C   0  0  0  0  0  0  0  0  0  0  0  0
  145.3766  134.8541  152.5652 C   0  0  2  0  0  0  0  0  0  0  0  0
  145.2264  135.2335  151.0894 C   0  0  0  0  0  0  0  0  0  0  0  0
  144.4707  134.0482  150.5357 C   0  0  0  0  0  0  0  0  0  0  0  0
  143.5079  133.7461  151.6770 C   0  0  0  0  0  0  0  0  0  0  0  0
  144.2043  134.0970  152.8687 O   0  0  0  0  0  0  0  0  0  0  0  0
  148.8843  140.2158  155.3286 S   0  0  0  0  0  0  0  0  0  0  0  0
  150.7700  142.9233  159.6351 H   0  0  0  0  0  0  0  0  0  0  0  0
  150.5782  143.9201  158.1952 H   0  0  0  0  0  0  0  0  0  0  0  0
  152.1305  143.1580  158.5413 H   0  0  0  0  0  0  0  0  0  0  0  0
  151.0825  140.8946  158.2301 H   0  0  0  0  0  0  0  0  0  0  0  0
  149.5415  141.6448  157.8911 H   0  0  0  0  0  0  0  0  0  0  0  0
  150.5320  142.7546  155.8583 H   0  0  0  0  0  0  0  0  0  0  0  0
  152.0707  141.9959  156.1971 H   0  0  0  0  0  0  0  0  0  0  0  0
  148.9459  137.4793  152.9456 H   0  0  0  0  0  0  0  0  0  0  0  0
  147.3855  136.3529  152.5829 H   0  0  0  0  0  0  0  0  0  0  0  0
  145.3939  135.7015  154.5490 H   0  0  0  0  0  0  0  0  0  0  0  0
  143.4418  136.7369  153.4408 H   0  0  0  0  0  0  0  0  0  0  0  0
  144.4897  137.5057  152.2516 H   0  0  0  0  0  0  0  0  0  0  0  0
  144.5765  137.9768  153.9475 H   0  0  0  0  0  0  0  0  0  0  0  0
  146.2325  134.1855  152.6737 H   0  0  0  0  0  0  0  0  0  0  0  0
  144.6254  136.1377  150.9823 H   0  0  0  0  0  0  0  0  0  0  0  0
  146.1830  135.3979  150.5927 H   0  0  0  0  0  0  0  0  0  0  0  0
  143.9638  134.2613  149.5940 H   0  0  0  0  0  0  0  0  0  0  0  0
  145.1490  133.2080  150.3803 H   0  0  0  0  0  0  0  0  0  0  0  0
  142.6182  134.3723  151.5998 H   0  0  0  0  0  0  0  0  0  0  0  0
  143.1895  132.7035  151.6911 H   0  0  0  0  0  0  0  0  0  0  0  0
  1  2  1  0  0  0  0
  1 20  1  0  0  0  0
  1 21  1  0  0  0  0
  1 22  1  0  0  0  0
  2  3  1  0  0  0  0
  2 23  1  0  0  0  0
  2 24  1  0  0  0  0
  3  4  1  0  0  0  0
  3 25  1  0  0  0  0
  3 26  1  0  0  0  0
  4 19  1  0  0  0  0
  4  5  2  0  0  0  0
  5  6  1  0  0  0  0
  6  7  2  0  0  0  0
  7  8  1  0  0  0  0
  7 19  1  0  0  0  0
  8  9  1  0  0  0  0
  8 27  1  0  0  0  0
  9 10  2  0  0  0  0
  9 11  1  0  0  0  0
 11 12  1  0  0  0  0
 11 28  1  0  0  0  0
 12 13  1  0  0  0  0
 12 14  1  0  0  0  0
 12 29  1  0  0  0  0
 13 30  1  0  0  0  0
 13 31  1  0  0  0  0
 13 32  1  0  0  0  0
 14 18  1  0  0  0  0
 14 15  1  0  0  0  0
 14 33  1  0  0  0  0
 15 16  1  0  0  0  0
 15 34  1  0  0  0  0
 15 35  1  0  0  0  0
 16 17  1  0  0  0  0
 16 36  1  0  0  0  0
 16 37  1  0  0  0  0
 17 18  1  0  0  0  0
 17 38  1  0  0  0  0
 17 39  1  0  0  0  0
M  END
> <s_m_source_file>
AV-unprocessed.smi

> <i_m_source_file_index>
1251

> <i_lp_mmshare_version>
43012

> <i_f3d_flags>
0

> <s_epik_input>
W0NIM11bQ0gyXVtDSDJdYzFubmMoczEpW05IXUMoPU8pW05IXVtDQEhdKFtDSDNdKVtDQEBIXTJbQ0gyXVtDSDJdW0NIMl1PMg==

> <s_epik_cmdline>
J2VwaWtfcHl0aG9uJywgJy1waCcsICc3LjAnLCAnLXRuJywgJzgnLCAnLW1hJywgJzIwMCcsICctbWV0YWxfYmluZGluZycsICctaW1hZScsICc8aW5maWxlLm1hZT4nLCAnLW9tYWUnLCAnPG91dGZpbGUubWFlPic=

> <r_lp_tautomer_probability>
1

> <r_epik_Ionization_Penalty>
0.000503621

> <r_epik_Ionization_Penalty_Charging>
0

> <r_epik_Ionization_Penalty_Neutral>
0.000503621

> <r_epik_State_Penalty>
-0

> <r_epik_Charging_Adjusted_Penalty>
0

> <i_epik_Tot_Q>
0

> <i_epik_Tot_abs_Q>
0

> <r_epik_Metal_State_Penalty>
0.219912

> <b_epik_Metal_Only>
0

> <s_lp_Force_Field>
OPLS_2005

> <r_lp_Energy>
12.879

> <b_lp_Chiralities_Consistent>
1

> <s_lp_Variant>
AV-unprocessed.smi:1251-2

> <Gold.Version>
5.8.1

> <Gold.Id.Protein>
6NUR|6NUR_protein|mol2

> <Gold.PLP.Fitness>
34.9108

> <Gold.PLP.PLP>
-27.2276

> <Gold.PLP.part.hbond>
-3.1926

> <Gold.PLP.part.metal>
0.0000

> <Gold.PLP.part.buried>
-5.2741

> <Gold.PLP.part.nonpolar>
-20.1460

> <Gold.PLP.part.repulsive>
0.4060

> <Gold.PLP.ligand.clash>
0.0000

> <Gold.PLP.ligand.torsion>
0.3572

> <Gold.PLP.Chemscore.Hbond>
2.7920

> <Gold.PLP.Chemscore.CHOScore>
0.0000

> <Gold.PLP.Chemscore.Metal>
0.0000

> <Gold.Chemscore.Hbonds>
donor molecule, donor type, donor heavy atom, donor atom, acceptor molecule, acceptor atom, score
      L1  H     8    27       P1  7948  1.00
      L1  H    11    28       P1  7948  0.96
      P1  H  7989  7998       L1     5  0.64

> <Gold.PLP.Chemscore.Internal.Correction>
0.0216

> <Gold.Rescore>
     Score         DG    S(hbond)    S(metal)    S(lipo)     H(rot)  DE(clash)    DE(int)     intcor
     14.85     -15.43       1.94        0.00      64.38       1.58       0.03       0.56       ----

> <Gold.Chemscore.Fitness>
14.8507

> <Gold.Chemscore.DG>
-15.4339

> <Gold.Chemscore.ZeroCoef>
-5.4800

> <Gold.Chemscore.Hbond>
1.9393

> <Gold.Chemscore.Metal>
0.0000

> <Gold.Chemscore.Lipo>
64.3799

> <Gold.Chemscore.Internal_Hbond>
0.0000

> <Gold.Chemscore.DEClash>
0.0262

> <Gold.Chemscore.DEInternal>
0.5570

> <Gold.Chemscore.Rot>
1.5843

> <Gold.Chemscore.Internal.Correction>
   9.000000E+99

> <Gold.Chemscore.Hbonds>
donor molecule, donor type, donor heavy atom, donor atom, acceptor molecule, acceptor atom, score
      L1  H     8    27       P1  7948  0.97
      L1  H    11    28       P1  7948  0.92
      P1  H  7989  7998       L1     5  0.01

> <Gold.Chemscore.Hbond.Weighted>
-6.4772

> <Gold.Chemscore.Metal.Weighted>
-0.0000

> <Gold.Chemscore.Lipo.Weighted>
-7.5324

> <Gold.Chemscore.Internal_Hbond.Weighted>
0.0000

> <Gold.Chemscore.DEClash.Weighted>
0.0262

> <Gold.Chemscore.DEInternal.Weighted>
0.5570

> <Gold.Chemscore.Rot.Weighted>
4.0558

> <Gold.Chemscore.Internal.Correction.Weighted>
   9.000000E+99

> <Gold.Protein.RotatedTorsions>
[ 6907 6896 6895 6894 ] final  104.94 input  -60.11 | X-H torsion
[ 7974 7965 7964 7962 ] final  125.16 input  175.53 | X-H torsion
[ 8008 7997 7996 7995 ] final  -95.41 input   59.86 | X-H torsion
[ 10167 10162 10161 10158 ] final   38.71 input  -65.29 | X-H torsion
[ 10718 10713 10712 10709 ] final   32.99 input   66.30 | X-H torsion
[ 10763 10752 10751 10750 ] final -162.03 input  -60.55 | X-H torsion
[ 11005 11000 10999 10996 ] final -148.42 input  -57.11 | X-H torsion

> <Gold.Protein.ActiveResidues>
 VAL166  LYS551  ARG553  GLY616  TRP617  ASP618  TYR619  PRO620  LYS621  CYS622 
 ASP623  PHE694  ASN695  SER759  ASP760  ASP761  ALA762  ILE779  LEU786  VAL792 
 PHE793  MET794  SER795  GLU796  ALA797  LYS798  CYS799  TRP800  GLU811  SER814 

> <Gold.Protein.RotatedAtoms>
  152.5247  133.9603  159.7713 H   0  0  0  0  0  0  0  0  0  0  0  0  # atno 6907 bound_to 6896
  150.9895  133.6156  159.2717 H   0  0  0  0  0  0  0  0  0  0  0  0  # atno 6908 bound_to 6896
  151.3304  135.0846  159.9390 H   0  0  0  0  0  0  0  0  0  0  0  0  # atno 6909 bound_to 6896
  145.0762  139.3692  143.4932 H   0  0  0  0  0  0  0  0  0  0  0  0  # atno 7974 bound_to 7965
  154.7610  140.0480  157.0973 H   0  0  0  0  0  0  0  0  0  0  0  0  # atno 8008 bound_to 7997
  154.9937  140.3116  155.4876 H   0  0  0  0  0  0  0  0  0  0  0  0  # atno 8009 bound_to 7997
  156.2904  140.2214  156.5044 H   0  0  0  0  0  0  0  0  0  0  0  0  # atno 8010 bound_to 7997
  140.3910  144.1853  150.6131 H   0  0  0  0  0  0  0  0  0  0  0  0  # atno 10167 bound_to 10162
  157.2922  130.7308  149.6617 H   0  0  0  0  0  0  0  0  0  0  0  0  # atno 10718 bound_to 10713
  154.7251  135.3034  154.8984 H   0  0  0  0  0  0  0  0  0  0  0  0  # atno 10763 bound_to 10752
  153.9844  135.6726  153.4755 H   0  0  0  0  0  0  0  0  0  0  0  0  # atno 10764 bound_to 10752
  153.0868  135.4980  154.8531 H   0  0  0  0  0  0  0  0  0  0  0  0  # atno 10765 bound_to 10752
  140.7614  134.3294  157.5100 H   0  0  0  0  0  0  0  0  0  0  0  0  # atno 11005 bound_to 11000
  146.3530  140.0530  142.8634 LP  0  0  0  0  0  0  0  0  0  0  0  0  # atno 17320 bound_to 7965
  145.1233  140.9475  143.4587 LP  0  0  0  0  0  0  0  0  0  0  0  0  # atno 17321 bound_to 7965
  140.4840  143.2369  151.8915 LP  0  0  0  0  0  0  0  0  0  0  0  0  # atno 17342 bound_to 10162
  139.4789  144.5239  151.8763 LP  0  0  0  0  0  0  0  0  0  0  0  0  # atno 17343 bound_to 10162
  155.9667  130.4305  150.4881 LP  0  0  0  0  0  0  0  0  0  0  0  0  # atno 17370 bound_to 10713
  157.2846  131.0614  151.2175 LP  0  0  0  0  0  0  0  0  0  0  0  0  # atno 17371 bound_to 10713
  139.8770  134.9204  156.3251 LP  0  0  0  0  0  0  0  0  0  0  0  0  # atno 17394 bound_to 11000
  140.9659  133.7358  156.0467 LP  0  0  0  0  0  0  0  0  0  0  0  0  # atno 17395 bound_to 11000

$$$$
