AV-unprocessed.smi:2807|AV-procd|sdf|10822|dock1
  -GOLD-   2272015263D 1   1.00000     0.00000
 Structure written by MMmdl.
 31 32  0  0  0  0  0  0  0  0  2 V2000
  148.9254  141.6662  158.5886 O   0  0  0  0  0  0  0  0  0  0  0  0
  149.3926  141.4028  157.4746 C   0  0  0  0  0  0  0  0  0  0  0  0
  148.7702  140.9274  156.3583 N   0  5  0  0  0  0  0  0  0  0  0  0
  148.2167  141.7705  155.2923 C   0  0  2  0  0  0  0  0  0  0  0  0
  146.6829  141.7592  155.3775 C   0  0  0  0  0  0  0  0  0  0  0  0
  146.1988  140.5622  154.5377 C   0  0  0  0  0  0  0  0  0  0  0  0
  147.4029  140.0862  153.7105 C   0  0  0  0  0  0  0  0  0  0  0  0
  148.4754  141.1667  153.8988 C   0  0  2  0  0  0  0  0  0  0  0  0
  149.7872  140.6725  153.7059 O   0  0  0  0  0  0  0  0  0  0  0  0
  150.9047  141.6100  157.2443 C   0  0  0  0  0  0  0  0  0  0  0  0
  151.4748  140.4469  156.9107 F   0  0  0  0  0  0  0  0  0  0  0  0
  151.0733  142.4449  156.2156 F   0  0  0  0  0  0  0  0  0  0  0  0
  151.5656  142.2148  158.4824 C   0  0  0  0  0  0  0  0  0  0  0  0
  151.1689  143.4847  158.9607 C   0  0  0  0  0  0  0  0  0  0  0  0
  151.7929  143.9988  160.1132 C   0  0  0  0  0  0  0  0  0  0  0  0
  152.7888  143.2307  160.7453 C   0  0  0  0  0  0  0  0  0  0  0  0
  153.1164  141.9764  160.1940 C   0  0  0  0  0  0  0  0  0  0  0  0
  152.5253  141.4751  159.0891 N   0  0  0  0  0  0  0  0  0  0  0  0
  148.5879  142.7958  155.3344 H   0  0  0  0  0  0  0  0  0  0  0  0
  146.3105  141.7266  156.4027 H   0  0  0  0  0  0  0  0  0  0  0  0
  146.2987  142.6784  154.9334 H   0  0  0  0  0  0  0  0  0  0  0  0
  145.8394  139.7553  155.1782 H   0  0  0  0  0  0  0  0  0  0  0  0
  145.3687  140.8572  153.8947 H   0  0  0  0  0  0  0  0  0  0  0  0
  147.7508  139.1247  154.0950 H   0  0  0  0  0  0  0  0  0  0  0  0
  147.1514  139.9396  152.6597 H   0  0  0  0  0  0  0  0  0  0  0  0
  148.3083  141.9502  153.1583 H   0  0  0  0  0  0  0  0  0  0  0  0
  149.8166  140.2465  152.8629 H   0  0  0  0  0  0  0  0  0  0  0  0
  150.3961  144.0478  158.4585 H   0  0  0  0  0  0  0  0  0  0  0  0
  151.5111  144.9644  160.5064 H   0  0  0  0  0  0  0  0  0  0  0  0
  153.2882  143.5921  161.6318 H   0  0  0  0  0  0  0  0  0  0  0  0
  153.8753  141.3595  160.6521 H   0  0  0  0  0  0  0  0  0  0  0  0
  1  2  2  0  0  0  0
  2  3  1  0  0  0  0
  2 10  1  0  0  0  0
  3  4  1  0  0  0  0
  4  8  1  0  0  0  0
  4  5  1  0  0  0  0
  4 19  1  0  0  0  0
  5  6  1  0  0  0  0
  5 20  1  0  0  0  0
  5 21  1  0  0  0  0
  6  7  1  0  0  0  0
  6 22  1  0  0  0  0
  6 23  1  0  0  0  0
  7  8  1  0  0  0  0
  7 24  1  0  0  0  0
  7 25  1  0  0  0  0
  8  9  1  0  0  0  0
  8 26  1  0  0  0  0
  9 27  1  0  0  0  0
 10 11  1  0  0  0  0
 10 12  1  0  0  0  0
 10 13  1  0  0  0  0
 13 18  1  0  0  0  0
 13 14  2  0  0  0  0
 14 15  1  0  0  0  0
 14 28  1  0  0  0  0
 15 16  2  0  0  0  0
 15 29  1  0  0  0  0
 16 17  1  0  0  0  0
 16 30  1  0  0  0  0
 17 18  2  0  0  0  0
 17 31  1  0  0  0  0
M  CHG  1   3  -1
M  END
> <s_m_source_file>
AV-unprocessed.smi

> <i_m_source_file_index>
2807

> <i_lp_mmshare_version>
43012

> <i_f3d_flags>
0

> <s_epik_input>
bjFbY0hdW2NIXVtjSF1bY0hdYzFDKEYpKEYpQyg9TylbTkhdW0NAQEhdMltDSDJdW0NIMl1bQ0gyXVtDQEhdMltPSF0=

> <s_epik_cmdline>
J2VwaWtfcHl0aG9uJywgJy1waCcsICc3LjAnLCAnLXRuJywgJzgnLCAnLW1hJywgJzIwMCcsICctbWV0YWxfYmluZGluZycsICctaW1hZScsICc8aW5maWxlLm1hZT4nLCAnLW9tYWUnLCAnPG91dGZpbGUubWFlPic=

> <r_lp_tautomer_probability>
1

> <r_epik_Ionization_Penalty>
5.72231

> <r_epik_Ionization_Penalty_Charging>
5.72231

> <r_epik_Ionization_Penalty_Neutral>
5.49816e-06

> <r_epik_State_Penalty>
5.72227

> <r_epik_Charging_Adjusted_Penalty>
11.4446

> <i_epik_Tot_Q>
-1

> <i_epik_Tot_abs_Q>
1

> <r_epik_Metal_State_Penalty>
1.70075

> <b_epik_Metal_Only>
1

> <s_lp_Force_Field>
OPLS_2005

> <r_lp_Energy>
37.6883

> <b_lp_Chiralities_Consistent>
1

> <s_lp_Variant>
AV-unprocessed.smi:2807-7

> <Gold.Version>
5.8.1

> <Gold.Id.Protein>
6NUR|6NUR_protein|mol2

> <Gold.PLP.Fitness>
35.2564

> <Gold.PLP.PLP>
-33.5332

> <Gold.PLP.part.hbond>
-2.9325

> <Gold.PLP.part.metal>
0.0000

> <Gold.PLP.part.buried>
-3.3085

> <Gold.PLP.part.nonpolar>
-27.0264

> <Gold.PLP.part.repulsive>
0.1310

> <Gold.PLP.ligand.clash>
0.0000

> <Gold.PLP.ligand.torsion>
1.0135

> <Gold.PLP.Chemscore.Hbond>
1.2224

> <Gold.PLP.Chemscore.CHOScore>
0.0000

> <Gold.PLP.Chemscore.Metal>
0.0000

> <Gold.Chemscore.Hbonds>
donor molecule, donor type, donor heavy atom, donor atom, acceptor molecule, acceptor atom, score
      L1  H     9    27       P1  7957  1.00
      P1  H  7989  7998       L1     9  0.10

> <Gold.PLP.Chemscore.Internal.Correction>
0.0831

> <Gold.Rescore>
     Score         DG    S(hbond)    S(metal)    S(lipo)     H(rot)  DE(clash)    DE(int)     intcor
     11.59     -13.75       1.00        0.00      85.85       2.00       0.02       2.14       ----

> <Gold.Chemscore.Fitness>
11.5939

> <Gold.Chemscore.DG>
-13.7512

> <Gold.Chemscore.ZeroCoef>
-5.4800

> <Gold.Chemscore.Hbond>
0.9994

> <Gold.Chemscore.Metal>
0.0000

> <Gold.Chemscore.Lipo>
85.8455

> <Gold.Chemscore.Internal_Hbond>
0.0000

> <Gold.Chemscore.DEClash>
0.0212

> <Gold.Chemscore.DEInternal>
2.1361

> <Gold.Chemscore.Rot>
1.9964

> <Gold.Chemscore.Internal.Correction>
   9.000000E+99

> <Gold.Chemscore.Hbonds>
donor molecule, donor type, donor heavy atom, donor atom, acceptor molecule, acceptor atom, score
      L1  H     9    27       P1  7957  0.99

> <Gold.Chemscore.Hbond.Weighted>
-3.3381

> <Gold.Chemscore.Metal.Weighted>
-0.0000

> <Gold.Chemscore.Lipo.Weighted>
-10.0439

> <Gold.Chemscore.Internal_Hbond.Weighted>
0.0000

> <Gold.Chemscore.DEClash.Weighted>
0.0212

> <Gold.Chemscore.DEInternal.Weighted>
2.1361

> <Gold.Chemscore.Rot.Weighted>
5.1108

> <Gold.Chemscore.Internal.Correction.Weighted>
   9.000000E+99

> <Gold.Protein.RotatedTorsions>
[ 6907 6896 6895 6894 ] final    7.79 input  -60.11 | X-H torsion
[ 7974 7965 7964 7962 ] final -179.24 input  175.53 | X-H torsion
[ 8008 7997 7996 7995 ] final   50.59 input   59.86 | X-H torsion
[ 10167 10162 10161 10158 ] final   37.57 input  -65.29 | X-H torsion
[ 10718 10713 10712 10709 ] final  141.59 input   66.30 | X-H torsion
[ 10763 10752 10751 10750 ] final  -55.48 input  -60.55 | X-H torsion
[ 11005 11000 10999 10996 ] final  146.22 input  -57.11 | X-H torsion

> <Gold.Protein.ActiveResidues>
 VAL166  LYS551  ARG553  GLY616  TRP617  ASP618  TYR619  PRO620  LYS621  CYS622 
 ASP623  PHE694  ASN695  SER759  ASP760  ASP761  ALA762  ILE779  LEU786  VAL792 
 PHE793  MET794  SER795  GLU796  ALA797  LYS798  CYS799  TRP800  GLU811  SER814 

> <Gold.Protein.RotatedAtoms>
  151.6955  135.0939  160.0241 H   0  0  0  0  0  0  0  0  0  0  0  0  # atno 6907 bound_to 6896
  152.3752  133.6468  159.6127 H   0  0  0  0  0  0  0  0  0  0  0  0  # atno 6908 bound_to 6896
  150.7704  133.9121  159.3414 H   0  0  0  0  0  0  0  0  0  0  0  0  # atno 6909 bound_to 6896
  144.7135  140.0747  143.6428 H   0  0  0  0  0  0  0  0  0  0  0  0  # atno 7974 bound_to 7965
  155.4212  140.3446  155.4271 H   0  0  0  0  0  0  0  0  0  0  0  0  # atno 8008 bound_to 7997
  156.1391  140.1537  156.8979 H   0  0  0  0  0  0  0  0  0  0  0  0  # atno 8009 bound_to 7997
  154.4956  140.0828  156.7670 H   0  0  0  0  0  0  0  0  0  0  0  0  # atno 8010 bound_to 7997
  140.4020  144.1711  150.6134 H   0  0  0  0  0  0  0  0  0  0  0  0  # atno 10167 bound_to 10162
  157.3903  131.1004  151.0653 H   0  0  0  0  0  0  0  0  0  0  0  0  # atno 10718 bound_to 10713
  154.1915  135.6426  153.5061 H   0  0  0  0  0  0  0  0  0  0  0  0  # atno 10763 bound_to 10752
  153.0034  135.5430  154.6410 H   0  0  0  0  0  0  0  0  0  0  0  0  # atno 10764 bound_to 10752
  154.5800  135.2924  155.0715 H   0  0  0  0  0  0  0  0  0  0  0  0  # atno 10765 bound_to 10752
  140.0776  134.9116  157.1448 H   0  0  0  0  0  0  0  0  0  0  0  0  # atno 11005 bound_to 11000
  145.9753  139.2900  143.1074 LP  0  0  0  0  0  0  0  0  0  0  0  0  # atno 17320 bound_to 7965
  145.9071  140.9205  143.0473 LP  0  0  0  0  0  0  0  0  0  0  0  0  # atno 17321 bound_to 7965
  140.4730  143.2406  151.9062 LP  0  0  0  0  0  0  0  0  0  0  0  0  # atno 17342 bound_to 10162
  139.4784  144.5350  151.8612 LP  0  0  0  0  0  0  0  0  0  0  0  0  # atno 17343 bound_to 10162
  157.1689  130.6258  149.5634 LP  0  0  0  0  0  0  0  0  0  0  0  0  # atno 17370 bound_to 10713
  155.9797  130.4792  150.6728 LP  0  0  0  0  0  0  0  0  0  0  0  0  # atno 17371 bound_to 10713
  140.3535  134.2572  155.7195 LP  0  0  0  0  0  0  0  0  0  0  0  0  # atno 17394 bound_to 11000
  141.2035  133.7910  157.0336 LP  0  0  0  0  0  0  0  0  0  0  0  0  # atno 17395 bound_to 11000

$$$$
