AV-unprocessed.smi:816|AV-procd|sdf|3826|dock6
  -GOLD-   22720 1263D 1   1.00000     0.00000
 Structure written by MMmdl.
 40 41  0  0  0  0  0  0  0  0  1 V2000
  150.6341  145.1629  159.7777 C   0  0  0  0  0  0  0  0  0  0  0  0
  151.2395  143.8726  159.2946 C   0  0  0  0  0  0  0  0  0  0  0  0
  150.9004  143.4806  158.1105 N   0  0  0  0  0  0  0  0  0  0  0  0
  151.3974  142.3108  157.5702 N   0  0  0  0  0  0  0  0  0  0  0  0
  150.8946  142.0139  156.2242 C   0  0  0  0  0  0  0  0  0  0  0  0
  150.2668  140.6037  156.1471 C   0  0  2  0  0  0  0  0  0  0  0  0
  150.4796  140.0748  154.8537 O   0  0  0  0  0  0  0  0  0  0  0  0
  148.7483  140.6273  156.3785 C   0  0  0  0  0  0  0  0  0  0  0  0
  148.1091  141.0166  155.1695 O   0  0  0  0  0  0  0  0  0  0  0  0
  147.0655  141.9138  155.2409 C   0  0  0  0  0  0  0  0  0  0  0  0
  146.5888  142.4383  154.0221 C   0  0  0  0  0  0  0  0  0  0  0  0
  145.5227  143.3583  153.9995 C   0  0  0  0  0  0  0  0  0  0  0  0
  144.9192  143.7668  155.2051 C   0  0  0  0  0  0  0  0  0  0  0  0
  143.8183  144.7155  155.1864 C   0  0  0  0  0  0  0  0  0  0  0  0
  142.9420  145.4709  155.1714 N   0  0  0  0  0  0  0  0  0  0  0  0
  145.3884  143.2521  156.4299 C   0  0  0  0  0  0  0  0  0  0  0  0
  146.4547  142.3320  156.4502 C   0  0  0  0  0  0  0  0  0  0  0  0
  152.2543  141.4635  158.2069 C   0  0  0  0  0  0  0  0  0  0  0  0
  152.6530  140.4161  157.6953 O   0  0  0  0  0  0  0  0  0  0  0  0
  152.6410  141.9168  159.5450 C   0  0  0  0  0  0  0  0  0  0  0  0
  153.5468  141.0633  160.2441 C   0  0  0  0  0  0  0  0  0  0  0  0
  154.2908  140.3872  160.8181 N   0  0  0  0  0  0  0  0  0  0  0  0
  152.1678  143.0687  160.0833 C   0  0  0  0  0  0  0  0  0  0  0  0
  152.5353  143.5818  161.4690 C   0  0  0  0  0  0  0  0  0  0  0  0
  151.4037  145.9223  159.9146 H   0  0  0  0  0  0  0  0  0  0  0  0
  150.1243  145.0207  160.7305 H   0  0  0  0  0  0  0  0  0  0  0  0
  149.9021  145.5580  159.0717 H   0  0  0  0  0  0  0  0  0  0  0  0
  150.1394  142.7629  155.9777 H   0  0  0  0  0  0  0  0  0  0  0  0
  151.6661  142.1493  155.4635 H   0  0  0  0  0  0  0  0  0  0  0  0
  150.7238  139.9326  156.8760 H   0  0  0  0  0  0  0  0  0  0  0  0
  150.6991  139.1588  154.9362 H   0  0  0  0  0  0  0  0  0  0  0  0
  148.4032  139.6440  156.7036 H   0  0  0  0  0  0  0  0  0  0  0  0
  148.5051  141.3489  157.1606 H   0  0  0  0  0  0  0  0  0  0  0  0
  147.0450  142.1304  153.0925 H   0  0  0  0  0  0  0  0  0  0  0  0
  145.1730  143.7458  153.0533 H   0  0  0  0  0  0  0  0  0  0  0  0
  144.9340  143.5590  157.3611 H   0  0  0  0  0  0  0  0  0  0  0  0
  146.7865  141.9622  157.4084 H   0  0  0  0  0  0  0  0  0  0  0  0
  153.2877  142.9600  161.9533 H   0  0  0  0  0  0  0  0  0  0  0  0
  151.6563  143.5977  162.1142 H   0  0  0  0  0  0  0  0  0  0  0  0
  152.9387  144.5932  161.4108 H   0  0  0  0  0  0  0  0  0  0  0  0
  1  2  1  0  0  0  0
  1 25  1  0  0  0  0
  1 26  1  0  0  0  0
  1 27  1  0  0  0  0
  2 23  1  0  0  0  0
  2  3  2  0  0  0  0
  3  4  1  0  0  0  0
  4  5  1  0  0  0  0
  4 18  1  0  0  0  0
  5  6  1  0  0  0  0
  5 28  1  0  0  0  0
  5 29  1  0  0  0  0
  6  7  1  0  0  0  0
  6  8  1  0  0  0  0
  6 30  1  0  0  0  0
  7 31  1  0  0  0  0
  8  9  1  0  0  0  0
  8 32  1  0  0  0  0
  8 33  1  0  0  0  0
  9 10  1  0  0  0  0
 10 17  1  0  0  0  0
 10 11  2  0  0  0  0
 11 12  1  0  0  0  0
 11 34  1  0  0  0  0
 12 13  2  0  0  0  0
 12 35  1  0  0  0  0
 13 14  1  0  0  0  0
 13 16  1  0  0  0  0
 14 15  3  0  0  0  0
 16 17  2  0  0  0  0
 16 36  1  0  0  0  0
 17 37  1  0  0  0  0
 18 19  2  0  0  0  0
 18 20  1  0  0  0  0
 20 21  1  0  0  0  0
 20 23  2  0  0  0  0
 21 22  3  0  0  0  0
 23 24  1  0  0  0  0
 24 38  1  0  0  0  0
 24 39  1  0  0  0  0
 24 40  1  0  0  0  0
M  END
> <s_m_source_file>
AV-unprocessed.smi

> <i_m_source_file_index>
816

> <i_lp_mmshare_version>
43012

> <i_f3d_flags>
0

> <s_epik_input>
TiNDYyhjMVtDSDNdKWMoPU8pbihuYzFbQ0gzXSlbQ0gyXVtDQEhdKFtPSF0pW0NIMl1PYzJbY0hdW2NIXWMoQyNOKVtjSF1bY0hdMg==

> <s_epik_cmdline>
J2VwaWtfcHl0aG9uJywgJy1waCcsICc3LjAnLCAnLXRuJywgJzgnLCAnLW1hJywgJzIwMCcsICctbWV0YWxfYmluZGluZycsICctaW1hZScsICc8aW5maWxlLm1hZT4nLCAnLW9tYWUnLCAnPG91dGZpbGUubWFlPic=

> <r_lp_tautomer_probability>
1

> <r_epik_Ionization_Penalty>
1.1732e-07

> <r_epik_Ionization_Penalty_Charging>
1.4567e-10

> <r_epik_Ionization_Penalty_Neutral>
1.17174e-07

> <r_epik_State_Penalty>
-0

> <r_epik_Charging_Adjusted_Penalty>
1.4567e-10

> <i_epik_Tot_Q>
0

> <i_epik_Tot_abs_Q>
0

> <r_epik_Metal_State_Penalty>
-0

> <b_epik_Metal_Only>
0

> <s_lp_Force_Field>
OPLS_2005

> <r_lp_Energy>
30.0039

> <b_lp_Chiralities_Consistent>
1

> <s_lp_Variant>
AV-unprocessed.smi:816-1

> <Gold.Version>
5.8.1

> <Gold.Id.Protein>
6NUR|6NUR_protein|mol2

> <Gold.PLP.Fitness>
51.8313

> <Gold.PLP.PLP>
-48.2220

> <Gold.PLP.part.hbond>
-2.0000

> <Gold.PLP.part.metal>
0.0000

> <Gold.PLP.part.buried>
-9.4476

> <Gold.PLP.part.nonpolar>
-35.9563

> <Gold.PLP.part.repulsive>
0.2732

> <Gold.PLP.ligand.clash>
0.0000

> <Gold.PLP.ligand.torsion>
1.0602

> <Gold.PLP.Chemscore.Hbond>
1.9040

> <Gold.PLP.Chemscore.CHOScore>
0.0000

> <Gold.PLP.Chemscore.Metal>
0.0000

> <Gold.Chemscore.Hbonds>
donor molecule, donor type, donor heavy atom, donor atom, acceptor molecule, acceptor atom, score
      P1  H  7989  7998       L1     7  1.00
      P1  H  7997  8009       L1    19  0.90

> <Gold.PLP.Chemscore.Internal.Correction>
0.0176

> <Gold.Rescore>
     Score         DG    S(hbond)    S(metal)    S(lipo)     H(rot)  DE(clash)    DE(int)     intcor
     14.41     -16.93       1.93        0.00     100.14       2.62       0.17       2.36       ----

> <Gold.Chemscore.Fitness>
14.4112

> <Gold.Chemscore.DG>
-16.9337

> <Gold.Chemscore.ZeroCoef>
-5.4800

> <Gold.Chemscore.Hbond>
1.9312

> <Gold.Chemscore.Metal>
0.0000

> <Gold.Chemscore.Lipo>
100.1391

> <Gold.Chemscore.Internal_Hbond>
0.0000

> <Gold.Chemscore.DEClash>
0.1661

> <Gold.Chemscore.DEInternal>
2.3563

> <Gold.Chemscore.Rot>
2.6222

> <Gold.Chemscore.Internal.Correction>
   9.000000E+99

> <Gold.Chemscore.Hbonds>
donor molecule, donor type, donor heavy atom, donor atom, acceptor molecule, acceptor atom, score
      P1  H  7989  7998       L1     7  0.69
      P1  H  7997  8009       L1    19  0.82

> <Gold.Chemscore.Hbond.Weighted>
-6.4501

> <Gold.Chemscore.Metal.Weighted>
-0.0000

> <Gold.Chemscore.Lipo.Weighted>
-11.7163

> <Gold.Chemscore.Internal_Hbond.Weighted>
0.0000

> <Gold.Chemscore.DEClash.Weighted>
0.1661

> <Gold.Chemscore.DEInternal.Weighted>
2.3563

> <Gold.Chemscore.Rot.Weighted>
6.7127

> <Gold.Chemscore.Internal.Correction.Weighted>
   9.000000E+99

> <Gold.Protein.RotatedTorsions>
[ 6907 6896 6895 6894 ] final  -19.29 input  -60.11 | X-H torsion
[ 7974 7965 7964 7962 ] final  -33.96 input  175.53 | X-H torsion
[ 8008 7997 7996 7995 ] final  167.49 input   59.86 | X-H torsion
[ 10167 10162 10161 10158 ] final  112.03 input  -65.29 | X-H torsion
[ 10718 10713 10712 10709 ] final   -2.09 input   66.30 | X-H torsion
[ 10763 10752 10751 10750 ] final  -13.34 input  -60.55 | X-H torsion
[ 11005 11000 10999 10996 ] final  158.06 input  -57.11 | X-H torsion

> <Gold.Protein.ActiveResidues>
 VAL166  LYS551  ARG553  GLY616  TRP617  ASP618  TYR619  PRO620  LYS621  CYS622 
 ASP623  PHE694  ASN695  SER759  ASP760  ASP761  ALA762  ILE779  LEU786  VAL792 
 PHE793  MET794  SER795  GLU796  ALA797  LYS798  CYS799  TRP800  GLU811  SER814 

> <Gold.Protein.RotatedAtoms>
  151.2654  135.0667  159.9113 H   0  0  0  0  0  0  0  0  0  0  0  0  # atno 6907 bound_to 6896
  152.5359  134.0187  159.7982 H   0  0  0  0  0  0  0  0  0  0  0  0  # atno 6908 bound_to 6896
  151.0417  133.5651  159.2681 H   0  0  0  0  0  0  0  0  0  0  0  0  # atno 6909 bound_to 6896
  146.0868  140.5981  142.8883 H   0  0  0  0  0  0  0  0  0  0  0  0  # atno 7974 bound_to 7965
  156.1629  140.1615  156.8582 H   0  0  0  0  0  0  0  0  0  0  0  0  # atno 8008 bound_to 7997
  154.5178  140.0785  156.8150 H   0  0  0  0  0  0  0  0  0  0  0  0  # atno 8009 bound_to 7997
  155.3671  140.3398  155.4244 H   0  0  0  0  0  0  0  0  0  0  0  0  # atno 8010 bound_to 7997
  139.6567  144.7129  151.1944 H   0  0  0  0  0  0  0  0  0  0  0  0  # atno 10167 bound_to 10162
  156.7959  130.5377  149.5728 H   0  0  0  0  0  0  0  0  0  0  0  0  # atno 10718 bound_to 10713
  153.5119  135.7016  153.5776 H   0  0  0  0  0  0  0  0  0  0  0  0  # atno 10763 bound_to 10752
  153.3863  135.3907  155.1892 H   0  0  0  0  0  0  0  0  0  0  0  0  # atno 10764 bound_to 10752
  154.8702  135.3847  154.4599 H   0  0  0  0  0  0  0  0  0  0  0  0  # atno 10765 bound_to 10752
  140.1829  134.8463  157.2823 H   0  0  0  0  0  0  0  0  0  0  0  0  # atno 11005 bound_to 11000
  144.7331  140.4731  143.6923 LP  0  0  0  0  0  0  0  0  0  0  0  0  # atno 17320 bound_to 7965
  145.6115  139.1514  143.3073 LP  0  0  0  0  0  0  0  0  0  0  0  0  # atno 17321 bound_to 7965
  140.7562  143.6061  150.8651 LP  0  0  0  0  0  0  0  0  0  0  0  0  # atno 17342 bound_to 10162
  139.9715  143.6052  152.2972 LP  0  0  0  0  0  0  0  0  0  0  0  0  # atno 17343 bound_to 10162
  156.1130  130.6054  151.0077 LP  0  0  0  0  0  0  0  0  0  0  0  0  # atno 17370 bound_to 10713
  157.6577  131.0886  150.7909 LP  0  0  0  0  0  0  0  0  0  0  0  0  # atno 17371 bound_to 10713
  140.2247  134.3981  155.7549 LP  0  0  0  0  0  0  0  0  0  0  0  0  # atno 17394 bound_to 11000
  141.2224  133.7184  156.8546 LP  0  0  0  0  0  0  0  0  0  0  0  0  # atno 17395 bound_to 11000

$$$$
