AV-unprocessed.smi:333|AV-procd|sdf|2361|dock2
  -GOLD-   2262022273D 1   1.00000     0.00000
 Structure written by MMmdl.
 26 26  0  0  0  0  0  0  0  0  1 V2000
  151.6938  138.2980  156.2983 N   0  0  0  0  0  0  0  0  0  0  0  0
  151.3243  139.4623  155.7501 C   0  0  0  0  0  0  0  0  0  0  0  0
  150.9514  139.4775  154.5772 O   0  0  0  0  0  0  0  0  0  0  0  0
  151.4204  140.6205  156.6641 C   0  0  0  0  0  0  0  0  0  0  0  0
  152.1303  140.6016  157.8212 C   0  0  0  0  0  0  0  0  0  0  0  0
  152.2076  141.7562  158.6989 C   0  0  0  0  0  0  0  0  0  0  0  0
  153.0191  141.6655  159.9851 C   0  0  0  0  0  0  0  0  0  0  0  0
  153.7236  140.3095  160.1585 C   0  0  0  0  0  0  0  0  0  0  0  0
  154.7707  140.1637  159.2228 O   0  0  0  0  0  0  0  0  0  0  0  0
  151.5202  142.8615  158.3284 C   0  0  0  0  0  0  0  0  0  0  0  0
  151.4507  144.1776  159.1007 C   0  0  0  0  0  0  0  0  0  0  0  0
  152.6290  144.7994  159.0646 F   0  0  0  0  0  0  0  0  0  0  0  0
  150.5305  144.9857  158.5758 F   0  0  0  0  0  0  0  0  0  0  0  0
  151.1343  143.9843  160.3832 F   0  0  0  0  0  0  0  0  0  0  0  0
  150.7921  142.8718  157.1301 N   0  0  0  0  0  0  0  0  0  0  0  0
  150.6862  141.8424  156.2611 C   0  0  0  0  0  0  0  0  0  0  0  0
  150.0139  141.9933  155.2408 O   0  0  0  0  0  0  0  0  0  0  0  0
  150.3102  143.7314  156.9084 H   0  0  0  0  0  0  0  0  0  0  0  0
  151.6629  137.4540  155.7449 H   0  0  0  0  0  0  0  0  0  0  0  0
  152.0041  138.2662  157.2582 H   0  0  0  0  0  0  0  0  0  0  0  0
  152.6662  139.7171  158.1320 H   0  0  0  0  0  0  0  0  0  0  0  0
  153.7489  142.4704  160.0549 H   0  0  0  0  0  0  0  0  0  0  0  0
  152.3337  141.8195  160.8191 H   0  0  0  0  0  0  0  0  0  0  0  0
  154.1427  140.2324  161.1620 H   0  0  0  0  0  0  0  0  0  0  0  0
  153.0202  139.4846  160.0421 H   0  0  0  0  0  0  0  0  0  0  0  0
  155.5886  140.1040  159.6925 H   0  0  0  0  0  0  0  0  0  0  0  0
  1  2  1  0  0  0  0
  1 19  1  0  0  0  0
  1 20  1  0  0  0  0
  2  3  2  0  0  0  0
  2  4  1  0  0  0  0
  4 16  1  0  0  0  0
  4  5  2  0  0  0  0
  5  6  1  0  0  0  0
  5 21  1  0  0  0  0
  6  7  1  0  0  0  0
  6 10  2  0  0  0  0
  7  8  1  0  0  0  0
  7 22  1  0  0  0  0
  7 23  1  0  0  0  0
  8  9  1  0  0  0  0
  8 24  1  0  0  0  0
  8 25  1  0  0  0  0
  9 26  1  0  0  0  0
 10 11  1  0  0  0  0
 10 15  1  0  0  0  0
 11 12  1  0  0  0  0
 11 13  1  0  0  0  0
 11 14  1  0  0  0  0
 15 18  1  0  0  0  0
 15 16  1  0  0  0  0
 16 17  2  0  0  0  0
M  END
> <s_m_source_file>
AV-unprocessed.smi

> <i_m_source_file_index>
333

> <i_lp_mmshare_version>
43012

> <i_f3d_flags>
0

> <s_epik_input>
W05IMl1DKD1PKWMxW2NIXWMoW0NIMl1bQ0gyXVtPSF0pYyhDKEYpKEYpRilbbkhdYzE9Tw==

> <s_epik_cmdline>
J2VwaWtfcHl0aG9uJywgJy1waCcsICc3LjAnLCAnLXRuJywgJzgnLCAnLW1hJywgJzIwMCcsICctbWV0YWxfYmluZGluZycsICctaW1hZScsICc8aW5maWxlLm1hZT4nLCAnLW9tYWUnLCAnPG91dGZpbGUubWFlPic=

> <r_lp_tautomer_probability>
0.999

> <r_epik_Ionization_Penalty>
1.33848

> <r_epik_Ionization_Penalty_Charging>
1.33848

> <r_epik_Ionization_Penalty_Neutral>
1.5599e-06

> <r_epik_State_Penalty>
1.41551

> <r_epik_Charging_Adjusted_Penalty>
2.75399

> <i_epik_Tot_Q>
0

> <i_epik_Tot_abs_Q>
0

> <r_epik_Metal_State_Penalty>
1.47649

> <b_epik_Metal_Only>
0

> <s_lp_Force_Field>
OPLS_2005

> <r_lp_Energy>
21.6261

> <b_lp_Chiralities_Consistent>
1

> <s_lp_Variant>
AV-unprocessed.smi:333-2

> <Gold.Version>
5.8.1

> <Gold.Id.Protein>
6NUR|6NUR_protein|mol2

> <Gold.PLP.Fitness>
38.8990

> <Gold.PLP.PLP>
-31.4979

> <Gold.PLP.part.hbond>
-3.3537

> <Gold.PLP.part.metal>
0.0000

> <Gold.PLP.part.buried>
-2.5882

> <Gold.PLP.part.nonpolar>
-28.0517

> <Gold.PLP.part.repulsive>
1.4704

> <Gold.PLP.ligand.clash>
0.0000

> <Gold.PLP.ligand.torsion>
0.4200

> <Gold.PLP.Chemscore.Hbond>
2.7404

> <Gold.PLP.Chemscore.CHOScore>
0.0000

> <Gold.PLP.Chemscore.Metal>
0.0000

> <Gold.Chemscore.Hbonds>
donor molecule, donor type, donor heavy atom, donor atom, acceptor molecule, acceptor atom, score
      L1  H    15    18       P1  8028  0.73
      P1  H  7989  7998       L1     3  1.00
      P1  H  7997  8010       L1     9  0.94

> <Gold.PLP.Chemscore.Internal.Correction>
0.0198

> <Gold.Rescore>
     Score         DG    S(hbond)    S(metal)    S(lipo)     H(rot)  DE(clash)    DE(int)     intcor
     12.75     -15.08       2.45        0.00      58.66       2.13       0.59       1.75       ----

> <Gold.Chemscore.Fitness>
12.7454

> <Gold.Chemscore.DG>
-15.0796

> <Gold.Chemscore.ZeroCoef>
-5.4800

> <Gold.Chemscore.Hbond>
2.4514

> <Gold.Chemscore.Metal>
0.0000

> <Gold.Chemscore.Lipo>
58.6593

> <Gold.Chemscore.Internal_Hbond>
0.0000

> <Gold.Chemscore.DEClash>
0.5856

> <Gold.Chemscore.DEInternal>
1.7487

> <Gold.Chemscore.Rot>
2.1294

> <Gold.Chemscore.Internal.Correction>
   9.000000E+99

> <Gold.Chemscore.Hbonds>
donor molecule, donor type, donor heavy atom, donor atom, acceptor molecule, acceptor atom, score
      L1  H    15    18       P1  8028  0.71
      P1  H  7989  7998       L1     3  0.94
      P1  H  7997  8010       L1     9  0.55

> <Gold.Chemscore.Hbond.Weighted>
-8.1877

> <Gold.Chemscore.Metal.Weighted>
-0.0000

> <Gold.Chemscore.Lipo.Weighted>
-6.8631

> <Gold.Chemscore.Internal_Hbond.Weighted>
0.0000

> <Gold.Chemscore.DEClash.Weighted>
0.5856

> <Gold.Chemscore.DEInternal.Weighted>
1.7487

> <Gold.Chemscore.Rot.Weighted>
5.4512

> <Gold.Chemscore.Internal.Correction.Weighted>
   9.000000E+99

> <Gold.Protein.RotatedTorsions>
[ 6907 6896 6895 6894 ] final  -51.79 input  -60.11 | X-H torsion
[ 7974 7965 7964 7962 ] final  -95.67 input  175.53 | X-H torsion
[ 8008 7997 7996 7995 ] final   -3.76 input   59.86 | X-H torsion
[ 10167 10162 10161 10158 ] final    7.33 input  -65.29 | X-H torsion
[ 10718 10713 10712 10709 ] final  -28.11 input   66.30 | X-H torsion
[ 10763 10752 10751 10750 ] final   97.10 input  -60.55 | X-H torsion
[ 11005 11000 10999 10996 ] final -126.99 input  -57.11 | X-H torsion

> <Gold.Protein.ActiveResidues>
 VAL166  LYS551  ARG553  GLY616  TRP617  ASP618  TYR619  PRO620  LYS621  CYS622 
 ASP623  PHE694  ASN695  SER759  ASP760  ASP761  ALA762  ILE779  LEU786  VAL792 
 PHE793  MET794  SER795  GLU796  ALA797  LYS798  CYS799  TRP800  GLU811  SER814 

> <Gold.Protein.RotatedAtoms>
  150.8578  134.7922  159.7059 H   0  0  0  0  0  0  0  0  0  0  0  0  # atno 6907 bound_to 6896
  152.4624  134.5149  159.9775 H   0  0  0  0  0  0  0  0  0  0  0  0  # atno 6908 bound_to 6896
  151.5259  133.3420  159.2945 H   0  0  0  0  0  0  0  0  0  0  0  0  # atno 6909 bound_to 6896
  145.3570  140.9486  143.2522 H   0  0  0  0  0  0  0  0  0  0  0  0  # atno 7974 bound_to 7965
  154.6215  140.2501  155.7544 H   0  0  0  0  0  0  0  0  0  0  0  0  # atno 8008 bound_to 7997
  156.2429  140.2925  156.0444 H   0  0  0  0  0  0  0  0  0  0  0  0  # atno 8009 bound_to 7997
  155.1889  140.0391  157.2887 H   0  0  0  0  0  0  0  0  0  0  0  0  # atno 8010 bound_to 7997
  140.6378  143.7846  150.7384 H   0  0  0  0  0  0  0  0  0  0  0  0  # atno 10167 bound_to 10162
  156.4295  130.4442  149.7127 H   0  0  0  0  0  0  0  0  0  0  0  0  # atno 10718 bound_to 10713
  153.2729  135.4195  155.1005 H   0  0  0  0  0  0  0  0  0  0  0  0  # atno 10763 bound_to 10752
  154.8462  135.3476  154.6219 H   0  0  0  0  0  0  0  0  0  0  0  0  # atno 10764 bound_to 10752
  153.6639  135.7047  153.5226 H   0  0  0  0  0  0  0  0  0  0  0  0  # atno 10765 bound_to 10752
  140.9636  134.0903  157.3943 H   0  0  0  0  0  0  0  0  0  0  0  0  # atno 11005 bound_to 11000
  144.8675  139.5087  143.6783 LP  0  0  0  0  0  0  0  0  0  0  0  0  # atno 17320 bound_to 7965
  146.2944  139.7233  142.9138 LP  0  0  0  0  0  0  0  0  0  0  0  0  # atno 17321 bound_to 7965
  140.1471  143.4390  152.2156 LP  0  0  0  0  0  0  0  0  0  0  0  0  # atno 17342 bound_to 10162
  139.5587  144.7391  151.4217 LP  0  0  0  0  0  0  0  0  0  0  0  0  # atno 17343 bound_to 10162
  156.4036  130.7687  151.2696 LP  0  0  0  0  0  0  0  0  0  0  0  0  # atno 17370 bound_to 10713
  157.7508  131.0232  150.3826 LP  0  0  0  0  0  0  0  0  0  0  0  0  # atno 17371 bound_to 10713
  139.8886  135.0099  156.6633 LP  0  0  0  0  0  0  0  0  0  0  0  0  # atno 17394 bound_to 11000
  140.7432  133.8960  155.8293 LP  0  0  0  0  0  0  0  0  0  0  0  0  # atno 17395 bound_to 11000

$$$$
