AV-unprocessed.smi:748|AV-procd|sdf|3583|dock9
  -GOLD-   22720 0583D 1   1.00000     0.00000
 Structure written by MMmdl.
 50 51  0  0  0  0  0  0  0  0  1 V2000
  143.6119  134.7383  151.7445 C   0  0  0  0  0  0  0  0  0  0  0  0
  144.6916  135.6628  151.1606 C   0  0  0  0  0  0  0  0  0  0  0  0
  145.9246  134.8744  150.6994 C   0  0  0  0  0  0  0  0  0  0  0  0
  145.0941  136.6606  152.1478 N   0  0  0  0  0  0  0  0  0  0  0  0
  145.9233  137.6916  151.9211 C   0  0  0  0  0  0  0  0  0  0  0  0
  146.4532  137.9054  150.8301 O   0  0  0  0  0  0  0  0  0  0  0  0
  146.1879  138.6146  153.1145 C   0  0  0  0  0  0  0  0  0  0  0  0
  147.0702  139.8282  152.7612 C   0  0  0  0  0  0  0  0  0  0  0  0
  148.3271  139.8056  153.4998 N   0  0  0  0  0  0  0  0  0  0  0  0
  148.6437  140.6344  154.5079 C   0  0  0  0  0  0  0  0  0  0  0  0
  147.8854  141.5061  154.9345 O   0  0  0  0  0  0  0  0  0  0  0  0
  149.9779  140.3907  155.1529 C   0  0  0  0  0  0  0  0  0  0  0  0
  150.8582  139.3949  154.6749 C   0  0  0  0  0  0  0  0  0  0  0  0
  152.0973  139.2300  155.3203 C   0  0  0  0  0  0  0  0  0  0  0  0
  152.4928  139.9818  156.3678 N   0  0  0  0  0  0  0  0  0  0  0  0
  151.6667  140.9543  156.8256 C   0  0  0  0  0  0  0  0  0  0  0  0
  152.0975  141.7423  157.9146 N   0  0  0  0  0  0  0  0  0  0  0  0
  152.2827  141.0273  159.1743 C   0  0  0  0  0  0  0  0  0  0  0  0
  153.0356  141.9099  160.1840 C   0  0  0  0  0  0  0  0  0  0  0  0
  152.3557  143.1512  160.3417 O   0  0  0  0  0  0  0  0  0  0  0  0
  152.2875  143.8845  159.1218 C   0  0  2  0  0  0  0  0  0  0  0  0
  151.6282  145.2376  159.4076 C   0  0  0  0  0  0  0  0  0  0  0  0
  151.4983  143.0644  158.0837 C   0  0  0  0  0  0  0  0  0  0  0  0
  150.3989  141.1856  156.2414 C   0  0  0  0  0  0  0  0  0  0  0  0
  143.2969  133.9943  151.0124 H   0  0  0  0  0  0  0  0  0  0  0  0
  142.7261  135.3011  152.0406 H   0  0  0  0  0  0  0  0  0  0  0  0
  143.9772  134.2061  152.6235 H   0  0  0  0  0  0  0  0  0  0  0  0
  144.2784  136.1705  150.2872 H   0  0  0  0  0  0  0  0  0  0  0  0
  145.6570  134.1384  149.9408 H   0  0  0  0  0  0  0  0  0  0  0  0
  146.3907  134.3420  151.5292 H   0  0  0  0  0  0  0  0  0  0  0  0
  146.6741  135.5363  150.2642 H   0  0  0  0  0  0  0  0  0  0  0  0
  144.7063  136.5621  153.0750 H   0  0  0  0  0  0  0  0  0  0  0  0
  145.2288  138.9581  153.5046 H   0  0  0  0  0  0  0  0  0  0  0  0
  146.6574  138.0305  153.9069 H   0  0  0  0  0  0  0  0  0  0  0  0
  147.3088  139.8234  151.6971 H   0  0  0  0  0  0  0  0  0  0  0  0
  146.5407  140.7628  152.9564 H   0  0  0  0  0  0  0  0  0  0  0  0
  149.0041  139.1057  153.2325 H   0  0  0  0  0  0  0  0  0  0  0  0
  150.6028  138.7668  153.8338 H   0  0  0  0  0  0  0  0  0  0  0  0
  152.7924  138.4750  154.9837 H   0  0  0  0  0  0  0  0  0  0  0  0
  151.3034  140.7585  159.5725 H   0  0  0  0  0  0  0  0  0  0  0  0
  152.8333  140.0980  159.0355 H   0  0  0  0  0  0  0  0  0  0  0  0
  153.0895  141.4099  161.1510 H   0  0  0  0  0  0  0  0  0  0  0  0
  154.0623  142.0838  159.8584 H   0  0  0  0  0  0  0  0  0  0  0  0
  153.3002  144.0633  158.7555 H   0  0  0  0  0  0  0  0  0  0  0  0
  151.5672  145.8424  158.5025 H   0  0  0  0  0  0  0  0  0  0  0  0
  152.1993  145.8012  160.1456 H   0  0  0  0  0  0  0  0  0  0  0  0
  150.6169  145.1104  159.7949 H   0  0  0  0  0  0  0  0  0  0  0  0
  151.4898  143.5969  157.1316 H   0  0  0  0  0  0  0  0  0  0  0  0
  150.4616  142.9503  158.4037 H   0  0  0  0  0  0  0  0  0  0  0  0
  149.7451  141.9520  156.6317 H   0  0  0  0  0  0  0  0  0  0  0  0
  1  2  1  0  0  0  0
  1 25  1  0  0  0  0
  1 26  1  0  0  0  0
  1 27  1  0  0  0  0
  2  3  1  0  0  0  0
  2  4  1  0  0  0  0
  2 28  1  0  0  0  0
  3 29  1  0  0  0  0
  3 30  1  0  0  0  0
  3 31  1  0  0  0  0
  4  5  1  0  0  0  0
  4 32  1  0  0  0  0
  5  6  2  0  0  0  0
  5  7  1  0  0  0  0
  7  8  1  0  0  0  0
  7 33  1  0  0  0  0
  7 34  1  0  0  0  0
  8  9  1  0  0  0  0
  8 35  1  0  0  0  0
  8 36  1  0  0  0  0
  9 10  1  0  0  0  0
  9 37  1  0  0  0  0
 10 11  2  0  0  0  0
 10 12  1  0  0  0  0
 12 24  1  0  0  0  0
 12 13  2  0  0  0  0
 13 14  1  0  0  0  0
 13 38  1  0  0  0  0
 14 15  2  0  0  0  0
 14 39  1  0  0  0  0
 15 16  1  0  0  0  0
 16 17  1  0  0  0  0
 16 24  2  0  0  0  0
 17 23  1  0  0  0  0
 17 18  1  0  0  0  0
 18 19  1  0  0  0  0
 18 40  1  0  0  0  0
 18 41  1  0  0  0  0
 19 20  1  0  0  0  0
 19 42  1  0  0  0  0
 19 43  1  0  0  0  0
 20 21  1  0  0  0  0
 21 22  1  0  0  0  0
 21 23  1  0  0  0  0
 21 44  1  0  0  0  0
 22 45  1  0  0  0  0
 22 46  1  0  0  0  0
 22 47  1  0  0  0  0
 23 48  1  0  0  0  0
 23 49  1  0  0  0  0
 24 50  1  0  0  0  0
M  END
> <s_m_source_file>
AV-unprocessed.smi

> <i_m_source_file_index>
748

> <i_lp_mmshare_version>
43012

> <i_f3d_flags>
0

> <s_epik_input>
W0NIM11bQ0hdKFtDSDNdKVtOSF1DKD1PKVtDSDJdW0NIMl1bTkhdQyg9TyljMVtjSF1bY0hdbmMoW2NIXTEpTjJbQ0gyXVtDSDJdT1tDQEBIXShbQ0gzXSlbQ0gyXTI=

> <s_epik_cmdline>
J2VwaWtfcHl0aG9uJywgJy1waCcsICc3LjAnLCAnLXRuJywgJzgnLCAnLW1hJywgJzIwMCcsICctbWV0YWxfYmluZGluZycsICctaW1hZScsICc8aW5maWxlLm1hZT4nLCAnLW9tYWUnLCAnPG91dGZpbGUubWFlPic=

> <r_lp_tautomer_probability>
1

> <r_epik_Ionization_Penalty>
1.38678e-05

> <r_epik_Ionization_Penalty_Charging>
0

> <r_epik_Ionization_Penalty_Neutral>
1.38678e-05

> <r_epik_State_Penalty>
-0

> <r_epik_Charging_Adjusted_Penalty>
0

> <i_epik_Tot_Q>
0

> <i_epik_Tot_abs_Q>
0

> <r_epik_Metal_State_Penalty>
-0

> <b_epik_Metal_Only>
0

> <s_lp_Force_Field>
OPLS_2005

> <r_lp_Energy>
15.3694

> <b_lp_Chiralities_Consistent>
1

> <s_lp_Variant>
AV-unprocessed.smi:748-2

> <Gold.Version>
5.8.1

> <Gold.Id.Protein>
6NUR|6NUR_protein|mol2

> <Gold.PLP.Fitness>
52.0380

> <Gold.PLP.PLP>
-47.3401

> <Gold.PLP.part.hbond>
-3.1549

> <Gold.PLP.part.metal>
0.0000

> <Gold.PLP.part.buried>
-2.2667

> <Gold.PLP.part.nonpolar>
-43.5915

> <Gold.PLP.part.repulsive>
2.4365

> <Gold.PLP.ligand.clash>
0.0000

> <Gold.PLP.ligand.torsion>
0.8298

> <Gold.PLP.Chemscore.Hbond>
2.0000

> <Gold.PLP.Chemscore.CHOScore>
0.0000

> <Gold.PLP.Chemscore.Metal>
0.0000

> <Gold.Chemscore.Hbonds>
donor molecule, donor type, donor heavy atom, donor atom, acceptor molecule, acceptor atom, score
      P1  H  7954  7966       L1     6  1.00
      P1  H  7997  8008       L1    15  1.00

> <Gold.PLP.Chemscore.Internal.Correction>
0.3575

> <Gold.Rescore>
     Score         DG    S(hbond)    S(metal)    S(lipo)     H(rot)  DE(clash)    DE(int)     intcor
     16.82     -19.23       1.78        0.00     107.64       1.87       1.68       0.74       ----

> <Gold.Chemscore.Fitness>
16.8165

> <Gold.Chemscore.DG>
-19.2331

> <Gold.Chemscore.ZeroCoef>
-5.4800

> <Gold.Chemscore.Hbond>
1.7797

> <Gold.Chemscore.Metal>
0.0000

> <Gold.Chemscore.Lipo>
107.6419

> <Gold.Chemscore.Internal_Hbond>
0.0000

> <Gold.Chemscore.DEClash>
1.6750

> <Gold.Chemscore.DEInternal>
0.7416

> <Gold.Chemscore.Rot>
1.8692

> <Gold.Chemscore.Internal.Correction>
   9.000000E+99

> <Gold.Chemscore.Hbonds>
donor molecule, donor type, donor heavy atom, donor atom, acceptor molecule, acceptor atom, score
      L1  H     9    37       P1  7957  0.01
      P1  H  7954  7966       L1     6  0.97
      P1  H  7997  8008       L1    15  0.85

> <Gold.Chemscore.Hbond.Weighted>
-5.9442

> <Gold.Chemscore.Metal.Weighted>
-0.0000

> <Gold.Chemscore.Lipo.Weighted>
-12.5941

> <Gold.Chemscore.Internal_Hbond.Weighted>
0.0000

> <Gold.Chemscore.DEClash.Weighted>
1.6750

> <Gold.Chemscore.DEInternal.Weighted>
0.7416

> <Gold.Chemscore.Rot.Weighted>
4.7852

> <Gold.Chemscore.Internal.Correction.Weighted>
   9.000000E+99

> <Gold.Protein.RotatedTorsions>
[ 6907 6896 6895 6894 ] final   -8.19 input  -60.11 | X-H torsion
[ 7974 7965 7964 7962 ] final  -65.32 input  175.53 | X-H torsion
[ 8008 7997 7996 7995 ] final  -57.42 input   59.86 | X-H torsion
[ 10167 10162 10161 10158 ] final  -58.97 input  -65.29 | X-H torsion
[ 10718 10713 10712 10709 ] final   82.91 input   66.30 | X-H torsion
[ 10763 10752 10751 10750 ] final  -25.54 input  -60.55 | X-H torsion
[ 11005 11000 10999 10996 ] final  117.57 input  -57.11 | X-H torsion

> <Gold.Protein.ActiveResidues>
 VAL166  LYS551  ARG553  GLY616  TRP617  ASP618  TYR619  PRO620  LYS621  CYS622 
 ASP623  PHE694  ASN695  SER759  ASP760  ASP761  ALA762  ILE779  LEU786  VAL792 
 PHE793  MET794  SER795  GLU796  ALA797  LYS798  CYS799  TRP800  GLU811  SER814 

> <Gold.Protein.RotatedAtoms>
  151.4376  135.1016  159.9660 H   0  0  0  0  0  0  0  0  0  0  0  0  # atno 6907 bound_to 6896
  152.4934  133.8559  159.7236 H   0  0  0  0  0  0  0  0  0  0  0  0  # atno 6908 bound_to 6896
  150.9111  133.6938  159.2882 H   0  0  0  0  0  0  0  0  0  0  0  0  # atno 6909 bound_to 6896
  145.7557  140.8886  143.0456 H   0  0  0  0  0  0  0  0  0  0  0  0  # atno 7974 bound_to 7965
  154.4267  140.1107  156.5794 H   0  0  0  0  0  0  0  0  0  0  0  0  # atno 8008 bound_to 7997
  155.6128  140.3494  155.4609 H   0  0  0  0  0  0  0  0  0  0  0  0  # atno 8009 bound_to 7997
  156.0086  140.1214  157.0466 H   0  0  0  0  0  0  0  0  0  0  0  0  # atno 8010 bound_to 7997
  140.6164  143.2404  151.5586 H   0  0  0  0  0  0  0  0  0  0  0  0  # atno 10167 bound_to 10162
  157.6868  131.0068  150.2445 H   0  0  0  0  0  0  0  0  0  0  0  0  # atno 10718 bound_to 10713
  153.7014  135.6956  153.5062 H   0  0  0  0  0  0  0  0  0  0  0  0  # atno 10763 bound_to 10752
  153.2339  135.4328  155.0624 H   0  0  0  0  0  0  0  0  0  0  0  0  # atno 10764 bound_to 10752
  154.8343  135.3491  154.6554 H   0  0  0  0  0  0  0  0  0  0  0  0  # atno 10765 bound_to 10752
  139.9079  134.9611  156.7371 H   0  0  0  0  0  0  0  0  0  0  0  0  # atno 11005 bound_to 11000
  144.6840  139.9653  143.7481 LP  0  0  0  0  0  0  0  0  0  0  0  0  # atno 17320 bound_to 7965
  146.0313  139.3337  143.0753 LP  0  0  0  0  0  0  0  0  0  0  0  0  # atno 17321 bound_to 7965
  139.5402  144.2668  152.1335 LP  0  0  0  0  0  0  0  0  0  0  0  0  # atno 17342 bound_to 10162
  140.1878  144.4781  150.6494 LP  0  0  0  0  0  0  0  0  0  0  0  0  # atno 17343 bound_to 10162
  156.3053  130.3764  149.7711 LP  0  0  0  0  0  0  0  0  0  0  0  0  # atno 17370 bound_to 10713
  156.5329  130.8265  151.3243 LP  0  0  0  0  0  0  0  0  0  0  0  0  # atno 17371 bound_to 10713
  140.6879  133.9416  155.7948 LP  0  0  0  0  0  0  0  0  0  0  0  0  # atno 17394 bound_to 11000
  141.0463  134.0549  157.3840 LP  0  0  0  0  0  0  0  0  0  0  0  0  # atno 17395 bound_to 11000

$$$$
