AV-unprocessed.smi:3348|AV-procd|sdf|12929|dock7
  -GOLD-   2272019353D 1   1.00000     0.00000
 Structure written by MMmdl.
 46 47  0  0  0  0  0  0  0  0  1 V2000
  152.1940  138.6627  154.9720 C   0  0  0  0  0  0  0  0  0  0  0  0
  151.2554  137.5548  155.4698 C   0  0  2  0  0  0  0  0  0  0  0  0
  149.9335  137.5841  154.6641 C   0  0  0  0  0  0  0  0  0  0  0  0
  149.0448  138.6778  155.0124 N   0  0  0  0  0  0  0  0  0  0  0  0
  147.6779  138.6434  155.1981 C   0  0  0  0  0  0  0  0  0  0  0  0
  147.2796  139.9107  155.5143 C   0  0  0  0  0  0  0  0  0  0  0  0
  148.4907  140.6579  155.5042 C   0  0  0  0  0  0  0  0  0  0  0  0
  149.5462  139.9170  155.2067 N   0  0  0  0  0  0  0  0  0  0  0  0
  151.0248  137.7358  156.9063 N   0  0  0  0  0  0  0  0  0  0  0  0
  152.1560  137.3924  157.7683 C   0  0  0  0  0  0  0  0  0  0  0  0
  152.3036  138.4041  158.9072 C   0  0  0  0  0  0  0  0  0  0  0  0
  152.3981  139.6962  158.3262 O   0  0  0  0  0  0  0  0  0  0  0  0
  152.1926  140.7756  159.2278 C   0  0  1  0  0  0  0  0  0  0  0  0
  153.5456  141.2241  159.8198 C   0  0  0  0  0  0  0  0  0  0  0  0
  153.3942  142.4835  160.6859 C   0  0  0  0  0  0  0  0  0  0  0  0
  152.7406  143.6229  159.8919 C   0  0  0  0  0  0  0  0  0  0  0  0
  151.3881  143.1840  159.3109 C   0  0  0  0  0  0  0  0  0  0  0  0
  151.5240  141.9222  158.4351 C   0  0  2  0  0  0  0  0  0  0  0  0
  150.1561  141.5030  157.8710 C   0  0  0  0  0  0  0  0  0  0  0  0
  152.4210  138.5378  153.9129 H   0  0  0  0  0  0  0  0  0  0  0  0
  153.1410  138.6482  155.5122 H   0  0  0  0  0  0  0  0  0  0  0  0
  151.7502  139.6505  155.1027 H   0  0  0  0  0  0  0  0  0  0  0  0
  151.7617  136.6041  155.2967 H   0  0  0  0  0  0  0  0  0  0  0  0
  150.1449  137.6372  153.5950 H   0  0  0  0  0  0  0  0  0  0  0  0
  149.3848  136.6541  154.8191 H   0  0  0  0  0  0  0  0  0  0  0  0
  147.1087  137.7327  155.0823 H   0  0  0  0  0  0  0  0  0  0  0  0
  146.2758  140.2513  155.7202 H   0  0  0  0  0  0  0  0  0  0  0  0
  148.6330  141.7099  155.7034 H   0  0  0  0  0  0  0  0  0  0  0  0
  150.7461  138.6944  157.0900 H   0  0  0  0  0  0  0  0  0  0  0  0
  152.0652  136.3932  158.1875 H   0  0  0  0  0  0  0  0  0  0  0  0
  153.0681  137.3876  157.1709 H   0  0  0  0  0  0  0  0  0  0  0  0
  151.4188  138.3592  159.5437 H   0  0  0  0  0  0  0  0  0  0  0  0
  153.1684  138.1704  159.5286 H   0  0  0  0  0  0  0  0  0  0  0  0
  151.5206  140.4719  160.0331 H   0  0  0  0  0  0  0  0  0  0  0  0
  153.9847  140.4285  160.4208 H   0  0  0  0  0  0  0  0  0  0  0  0
  154.2497  141.4233  159.0107 H   0  0  0  0  0  0  0  0  0  0  0  0
  152.7887  142.2536  161.5635 H   0  0  0  0  0  0  0  0  0  0  0  0
  154.3698  142.7997  161.0566 H   0  0  0  0  0  0  0  0  0  0  0  0
  152.6052  144.4936  160.5342 H   0  0  0  0  0  0  0  0  0  0  0  0
  153.4032  143.9345  159.0832 H   0  0  0  0  0  0  0  0  0  0  0  0
  150.6889  142.9927  160.1264 H   0  0  0  0  0  0  0  0  0  0  0  0
  150.9625  143.9999  158.7255 H   0  0  0  0  0  0  0  0  0  0  0  0
  152.1680  142.1700  157.5898 H   0  0  0  0  0  0  0  0  0  0  0  0
  149.4681  141.2210  158.6686 H   0  0  0  0  0  0  0  0  0  0  0  0
  150.2478  140.6519  157.1960 H   0  0  0  0  0  0  0  0  0  0  0  0
  149.6975  142.3162  157.3079 H   0  0  0  0  0  0  0  0  0  0  0  0
  1  2  1  0  0  0  0
  1 20  1  0  0  0  0
  1 21  1  0  0  0  0
  1 22  1  0  0  0  0
  2  3  1  0  0  0  0
  2  9  1  0  0  0  0
  2 23  1  0  0  0  0
  3  4  1  0  0  0  0
  3 24  1  0  0  0  0
  3 25  1  0  0  0  0
  4  8  1  0  0  0  0
  4  5  1  0  0  0  0
  5  6  2  0  0  0  0
  5 26  1  0  0  0  0
  6  7  1  0  0  0  0
  6 27  1  0  0  0  0
  7  8  2  0  0  0  0
  7 28  1  0  0  0  0
  9 10  1  0  0  0  0
  9 29  1  0  0  0  0
 10 11  1  0  0  0  0
 10 30  1  0  0  0  0
 10 31  1  0  0  0  0
 11 12  1  0  0  0  0
 11 32  1  0  0  0  0
 11 33  1  0  0  0  0
 12 13  1  0  0  0  0
 13 18  1  0  0  0  0
 13 14  1  0  0  0  0
 13 34  1  0  0  0  0
 14 15  1  0  0  0  0
 14 35  1  0  0  0  0
 14 36  1  0  0  0  0
 15 16  1  0  0  0  0
 15 37  1  0  0  0  0
 15 38  1  0  0  0  0
 16 17  1  0  0  0  0
 16 39  1  0  0  0  0
 16 40  1  0  0  0  0
 17 18  1  0  0  0  0
 17 41  1  0  0  0  0
 17 42  1  0  0  0  0
 18 19  1  0  0  0  0
 18 43  1  0  0  0  0
 19 44  1  0  0  0  0
 19 45  1  0  0  0  0
 19 46  1  0  0  0  0
M  END
> <s_m_source_file>
AV-unprocessed.smi

> <i_m_source_file_index>
3348

> <i_lp_mmshare_version>
43012

> <i_f3d_flags>
0

> <s_epik_input>
bjFbY0hdW2NIXVtjSF1uMVtDSDJdW0NAQEhdKFtDSDNdKVtOSF1bQ0gyXVtDSDJdT1tDQEBIXTJbQ0gyXVtDSDJdW0NIMl1bQ0gyXVtDQEhdMltDSDNd

> <s_epik_cmdline>
J2VwaWtfcHl0aG9uJywgJy1waCcsICc3LjAnLCAnLXRuJywgJzgnLCAnLW1hJywgJzIwMCcsICctbWV0YWxfYmluZGluZycsICctaW1hZScsICc8aW5maWxlLm1hZT4nLCAnLW9tYWUnLCAnPG91dGZpbGUubWFlPic=

> <r_lp_tautomer_probability>
1

> <r_epik_Ionization_Penalty>
2.46945

> <r_epik_Ionization_Penalty_Charging>
0

> <r_epik_Ionization_Penalty_Neutral>
2.46945

> <r_epik_State_Penalty>
2.6322

> <r_epik_Charging_Adjusted_Penalty>
2.6322

> <i_epik_Tot_Q>
0

> <i_epik_Tot_abs_Q>
0

> <r_epik_Metal_State_Penalty>
2.63217

> <b_epik_Metal_Only>
0

> <s_lp_Force_Field>
OPLS_2005

> <r_lp_Energy>
18.1963

> <b_lp_Chiralities_Consistent>
1

> <s_lp_Variant>
AV-unprocessed.smi:3348-15

> <Gold.Version>
5.8.1

> <Gold.Id.Protein>
6NUR|6NUR_protein|mol2

> <Gold.PLP.Fitness>
44.5919

> <Gold.PLP.PLP>
-40.8704

> <Gold.PLP.part.hbond>
-1.0000

> <Gold.PLP.part.metal>
0.0000

> <Gold.PLP.part.buried>
-4.1749

> <Gold.PLP.part.nonpolar>
-35.8512

> <Gold.PLP.part.repulsive>
0.0983

> <Gold.PLP.ligand.clash>
0.0000

> <Gold.PLP.ligand.torsion>
1.1763

> <Gold.PLP.Chemscore.Hbond>
0.9920

> <Gold.PLP.Chemscore.CHOScore>
1.0000

> <Gold.PLP.Chemscore.Metal>
0.0000

> <Gold.PLP.Chemscore.Internal.Correction>
0.0982

> <Gold.Rescore>
     Score         DG    S(hbond)    S(metal)    S(lipo)     H(rot)  DE(clash)    DE(int)     intcor
     16.70     -18.13       0.89        0.00     120.38       1.72       0.06       1.37       ----

> <Gold.Chemscore.Fitness>
16.6982

> <Gold.Chemscore.DG>
-18.1276

> <Gold.Chemscore.ZeroCoef>
-5.4800

> <Gold.Chemscore.Hbond>
0.8909

> <Gold.Chemscore.Metal>
0.0000

> <Gold.Chemscore.Lipo>
120.3815

> <Gold.Chemscore.Internal_Hbond>
0.0000

> <Gold.Chemscore.DEClash>
0.0631

> <Gold.Chemscore.DEInternal>
1.3662

> <Gold.Chemscore.Rot>
1.7237

> <Gold.Chemscore.Internal.Correction>
   9.000000E+99

> <Gold.Chemscore.Hbond.Weighted>
-2.9755

> <Gold.Chemscore.Metal.Weighted>
-0.0000

> <Gold.Chemscore.Lipo.Weighted>
-14.0846

> <Gold.Chemscore.Internal_Hbond.Weighted>
0.0000

> <Gold.Chemscore.DEClash.Weighted>
0.0631

> <Gold.Chemscore.DEInternal.Weighted>
1.3662

> <Gold.Chemscore.Rot.Weighted>
4.4126

> <Gold.Chemscore.Internal.Correction.Weighted>
   9.000000E+99

> <Gold.Protein.RotatedTorsions>
[ 6907 6896 6895 6894 ] final  107.84 input  -60.11 | X-H torsion
[ 7974 7965 7964 7962 ] final -119.83 input  175.53 | X-H torsion
[ 8008 7997 7996 7995 ] final  106.67 input   59.86 | X-H torsion
[ 10167 10162 10161 10158 ] final  121.83 input  -65.29 | X-H torsion
[ 10718 10713 10712 10709 ] final -153.72 input   66.30 | X-H torsion
[ 10763 10752 10751 10750 ] final  -77.22 input  -60.55 | X-H torsion
[ 11005 11000 10999 10996 ] final   66.34 input  -57.11 | X-H torsion

> <Gold.Protein.ActiveResidues>
 VAL166  LYS551  ARG553  GLY616  TRP617  ASP618  TYR619  PRO620  LYS621  CYS622 
 ASP623  PHE694  ASN695  SER759  ASP760  ASP761  ALA762  ILE779  LEU786  VAL792 
 PHE793  MET794  SER795  GLU796  ALA797  LYS798  CYS799  TRP800  GLU811  SER814 

> <Gold.Protein.RotatedAtoms>
  152.5137  133.9175  159.7517 H   0  0  0  0  0  0  0  0  0  0  0  0  # atno 6907 bound_to 6896
  150.9554  133.6494  159.2771 H   0  0  0  0  0  0  0  0  0  0  0  0  # atno 6908 bound_to 6896
  151.3758  135.0936  159.9533 H   0  0  0  0  0  0  0  0  0  0  0  0  # atno 6909 bound_to 6896
  145.0582  140.8270  143.4168 H   0  0  0  0  0  0  0  0  0  0  0  0  # atno 7974 bound_to 7965
  156.1762  140.3108  155.9064 H   0  0  0  0  0  0  0  0  0  0  0  0  # atno 8008 bound_to 7997
  155.3482  140.0469  157.3063 H   0  0  0  0  0  0  0  0  0  0  0  0  # atno 8009 bound_to 7997
  154.5293  140.2225  155.8843 H   0  0  0  0  0  0  0  0  0  0  0  0  # atno 8010 bound_to 7997
  139.5895  144.7020  151.3324 H   0  0  0  0  0  0  0  0  0  0  0  0  # atno 10167 bound_to 10162
  156.4897  130.8341  151.2565 H   0  0  0  0  0  0  0  0  0  0  0  0  # atno 10718 bound_to 10713
  154.5101  135.5771  153.6598 H   0  0  0  0  0  0  0  0  0  0  0  0  # atno 10763 bound_to 10752
  152.9895  135.6156  154.2890 H   0  0  0  0  0  0  0  0  0  0  0  0  # atno 10764 bound_to 10752
  154.2804  135.2851  155.2679 H   0  0  0  0  0  0  0  0  0  0  0  0  # atno 10765 bound_to 10752
  139.9838  134.6701  156.0214 H   0  0  0  0  0  0  0  0  0  0  0  0  # atno 11005 bound_to 11000
  145.1442  139.2553  143.5474 LP  0  0  0  0  0  0  0  0  0  0  0  0  # atno 17320 bound_to 7965
  146.3522  140.1127  142.8603 LP  0  0  0  0  0  0  0  0  0  0  0  0  # atno 17321 bound_to 7965
  140.7161  143.7262  150.7658 LP  0  0  0  0  0  0  0  0  0  0  0  0  # atno 17342 bound_to 10162
  140.0815  143.4964  152.2528 LP  0  0  0  0  0  0  0  0  0  0  0  0  # atno 17343 bound_to 10162
  157.7475  131.0017  150.2975 LP  0  0  0  0  0  0  0  0  0  0  0  0  # atno 17370 bound_to 10713
  156.3439  130.3820  149.7386 LP  0  0  0  0  0  0  0  0  0  0  0  0  # atno 17371 bound_to 10713
  141.1506  133.6549  156.4001 LP  0  0  0  0  0  0  0  0  0  0  0  0  # atno 17394 bound_to 11000
  140.5044  134.6455  157.5261 LP  0  0  0  0  0  0  0  0  0  0  0  0  # atno 17395 bound_to 11000

$$$$
