AV-unprocessed.smi:2499|AV-procd|sdf|9839|dock1
  -GOLD-   2272013463D 1   1.00000     0.00000
 Structure written by MMmdl.
 26 27  0  0  0  0  0  0  0  0  2 V2000
  152.9551  142.4878  160.4869 C   0  0  0  0  0  0  0  0  0  0  0  0
  151.9313  142.4412  159.3443 C   0  0  2  0  0  0  0  0  0  0  0  0
  152.4500  141.5736  158.2904 N   0  0  0  0  0  0  0  0  0  0  0  0
  151.7741  140.6069  157.6521 C   0  0  0  0  0  0  0  0  0  0  0  0
  150.5982  140.3793  157.9455 O   0  0  0  0  0  0  0  0  0  0  0  0
  152.5035  139.9636  156.7125 N   0  5  0  0  0  0  0  0  0  0  0  0
  151.8831  139.2905  155.7303 C   0  0  0  0  0  0  0  0  0  0  0  0
  152.1062  138.0236  155.3764 N   0  0  0  0  0  0  0  0  0  0  0  0
  151.2451  137.7677  154.3205 C   0  0  0  0  0  0  0  0  0  0  0  0
  150.5334  138.9095  154.0731 C   0  0  0  0  0  0  0  0  0  0  0  0
  150.9293  139.8781  154.9535 O   0  0  0  0  0  0  0  0  0  0  0  0
  151.5938  143.8430  158.8633 C   0  0  0  0  0  0  0  0  0  0  0  0
  152.6489  144.7256  158.2394 C   0  0  0  0  0  0  0  0  0  0  0  0
  152.0846  145.0682  159.5984 C   0  0  0  0  0  0  0  0  0  0  0  0
  152.5846  143.0809  161.3234 H   0  0  0  0  0  0  0  0  0  0  0  0
  153.8970  142.9285  160.1582 H   0  0  0  0  0  0  0  0  0  0  0  0
  153.1687  141.4871  160.8645 H   0  0  0  0  0  0  0  0  0  0  0  0
  151.0208  141.9924  159.7459 H   0  0  0  0  0  0  0  0  0  0  0  0
  153.4101  141.7200  158.0154 H   0  0  0  0  0  0  0  0  0  0  0  0
  151.2087  136.8045  153.8337 H   0  0  0  0  0  0  0  0  0  0  0  0
  149.7675  139.1806  153.3625 H   0  0  0  0  0  0  0  0  0  0  0  0
  150.6020  143.9211  158.4215 H   0  0  0  0  0  0  0  0  0  0  0  0
  153.6688  144.3483  158.2017 H   0  0  0  0  0  0  0  0  0  0  0  0
  152.3497  145.3477  157.3985 H   0  0  0  0  0  0  0  0  0  0  0  0
  151.4063  145.9162  159.6655 H   0  0  0  0  0  0  0  0  0  0  0  0
  152.7320  144.9202  160.4604 H   0  0  0  0  0  0  0  0  0  0  0  0
  1  2  1  0  0  0  0
  1 15  1  0  0  0  0
  1 16  1  0  0  0  0
  1 17  1  0  0  0  0
  2  3  1  0  0  0  0
  2 12  1  0  0  0  0
  2 18  1  0  0  0  0
  3 19  1  0  0  0  0
  3  4  1  0  0  0  0
  4  6  1  0  0  0  0
  4  5  2  0  0  0  0
  6  7  1  0  0  0  0
  7 11  1  0  0  0  0
  7  8  2  0  0  0  0
  8  9  1  0  0  0  0
  9 20  1  0  0  0  0
  9 10  2  0  0  0  0
 10 21  1  0  0  0  0
 10 11  1  0  0  0  0
 12 14  1  0  0  0  0
 12 13  1  0  0  0  0
 12 22  1  0  0  0  0
 13 14  1  0  0  0  0
 13 23  1  0  0  0  0
 13 24  1  0  0  0  0
 14 25  1  0  0  0  0
 14 26  1  0  0  0  0
M  CHG  1   6  -1
M  END
> <s_m_source_file>
AV-unprocessed.smi

> <i_m_source_file_index>
2499

> <i_lp_mmshare_version>
43012

> <i_f3d_flags>
0

> <s_epik_input>
W0NIMl0xW0NIMl1bQ0hdMVtDQEhdKFtDSDNdKVtOSF1DKD1PKVtOSF1jMm5bY0hdW2NIXW8y

> <s_epik_cmdline>
J2VwaWtfcHl0aG9uJywgJy1waCcsICc3LjAnLCAnLXRuJywgJzgnLCAnLW1hJywgJzIwMCcsICctbWV0YWxfYmluZGluZycsICctaW1hZScsICc8aW5maWxlLm1hZT4nLCAnLW9tYWUnLCAnPG91dGZpbGUubWFlPic=

> <r_lp_tautomer_probability>
0.107061

> <r_epik_Ionization_Penalty>
11.2144

> <r_epik_Ionization_Penalty_Charging>
7.87172

> <r_epik_Ionization_Penalty_Neutral>
3.3427

> <r_epik_State_Penalty>
5.96777

> <r_epik_Charging_Adjusted_Penalty>
13.8395

> <i_epik_Tot_Q>
-1

> <i_epik_Tot_abs_Q>
1

> <r_epik_Metal_State_Penalty>
1.88989

> <b_epik_Metal_Only>
1

> <s_lp_Force_Field>
OPLS_2005

> <r_lp_Energy>
7.95905

> <b_lp_Chiralities_Consistent>
1

> <s_lp_Variant>
AV-unprocessed.smi:2499-9

> <Gold.Version>
5.8.1

> <Gold.Id.Protein>
6NUR|6NUR_protein|mol2

> <Gold.PLP.Fitness>
45.5819

> <Gold.PLP.PLP>
-33.7426

> <Gold.PLP.part.hbond>
-2.0000

> <Gold.PLP.part.metal>
0.0000

> <Gold.PLP.part.buried>
-3.3974

> <Gold.PLP.part.nonpolar>
-28.2423

> <Gold.PLP.part.repulsive>
0.1605

> <Gold.PLP.ligand.clash>
0.0000

> <Gold.PLP.ligand.torsion>
1.4597

> <Gold.PLP.Chemscore.Hbond>
2.5500

> <Gold.PLP.Chemscore.CHOScore>
2.0000

> <Gold.PLP.Chemscore.Metal>
0.0000

> <Gold.Chemscore.Hbonds>
donor molecule, donor type, donor heavy atom, donor atom, acceptor molecule, acceptor atom, score
      P1  H  7989  7998       L1    11  0.45
      P1  H  7997  8009       L1     6  2.00
      L1  C     9    20       P1  7949  1.00
      L1  C    10    21       P1  7957  1.00

> <Gold.PLP.Chemscore.Internal.Correction>
1.1087

> <Gold.Rescore>
     Score         DG    S(hbond)    S(metal)    S(lipo)     H(rot)  DE(clash)    DE(int)     intcor
     15.19     -16.67       1.55        0.00      79.46       1.28       0.06       1.41       ----

> <Gold.Chemscore.Fitness>
15.1938

> <Gold.Chemscore.DG>
-16.6720

> <Gold.Chemscore.ZeroCoef>
-5.4800

> <Gold.Chemscore.Hbond>
1.5469

> <Gold.Chemscore.Metal>
0.0000

> <Gold.Chemscore.Lipo>
79.4576

> <Gold.Chemscore.Internal_Hbond>
0.0000

> <Gold.Chemscore.DEClash>
0.0638

> <Gold.Chemscore.DEInternal>
1.4144

> <Gold.Chemscore.Rot>
1.2778

> <Gold.Chemscore.Internal.Correction>
   9.000000E+99

> <Gold.Chemscore.Hbonds>
donor molecule, donor type, donor heavy atom, donor atom, acceptor molecule, acceptor atom, score
      P1  H  7989  7998       L1    11  0.01
      P1  H  7997  8009       L1     6  0.93

> <Gold.Chemscore.Hbond.Weighted>
-5.1665

> <Gold.Chemscore.Metal.Weighted>
-0.0000

> <Gold.Chemscore.Lipo.Weighted>
-9.2965

> <Gold.Chemscore.Internal_Hbond.Weighted>
0.0000

> <Gold.Chemscore.DEClash.Weighted>
0.0638

> <Gold.Chemscore.DEInternal.Weighted>
1.4144

> <Gold.Chemscore.Rot.Weighted>
3.2711

> <Gold.Chemscore.Internal.Correction.Weighted>
   9.000000E+99

> <Gold.Protein.RotatedTorsions>
[ 6907 6896 6895 6894 ] final  -60.51 input  -60.11 | X-H torsion
[ 7974 7965 7964 7962 ] final  -25.03 input  175.53 | X-H torsion
[ 8008 7997 7996 7995 ] final  178.36 input   59.86 | X-H torsion
[ 10167 10162 10161 10158 ] final -143.29 input  -65.29 | X-H torsion
[ 10718 10713 10712 10709 ] final  -10.04 input   66.30 | X-H torsion
[ 10763 10752 10751 10750 ] final   99.32 input  -60.55 | X-H torsion
[ 11005 11000 10999 10996 ] final  103.58 input  -57.11 | X-H torsion

> <Gold.Protein.ActiveResidues>
 VAL166  LYS551  ARG553  GLY616  TRP617  ASP618  TYR619  PRO620  LYS621  CYS622 
 ASP623  PHE694  ASN695  SER759  ASP760  ASP761  ALA762  ILE779  LEU786  VAL792 
 PHE793  MET794  SER795  GLU796  ALA797  LYS798  CYS799  TRP800  GLU811  SER814 

> <Gold.Protein.RotatedAtoms>
  150.7851  134.6827  159.6452 H   0  0  0  0  0  0  0  0  0  0  0  0  # atno 6907 bound_to 6896
  152.3945  134.6385  160.0103 H   0  0  0  0  0  0  0  0  0  0  0  0  # atno 6908 bound_to 6896
  151.6675  133.3278  159.3225 H   0  0  0  0  0  0  0  0  0  0  0  0  # atno 6909 bound_to 6896
  146.1517  140.4831  142.8608 H   0  0  0  0  0  0  0  0  0  0  0  0  # atno 7974 bound_to 7965
  156.0555  140.1335  157.0001 H   0  0  0  0  0  0  0  0  0  0  0  0  # atno 8008 bound_to 7997
  154.4456  140.1002  156.6510 H   0  0  0  0  0  0  0  0  0  0  0  0  # atno 8009 bound_to 7997
  155.5458  140.3462  155.4459 H   0  0  0  0  0  0  0  0  0  0  0  0  # atno 8010 bound_to 7997
  139.8007  143.7837  152.2658 H   0  0  0  0  0  0  0  0  0  0  0  0  # atno 10167 bound_to 10162
  156.6792  130.5032  149.5976 H   0  0  0  0  0  0  0  0  0  0  0  0  # atno 10718 bound_to 10713
  153.3000  135.4117  155.1244 H   0  0  0  0  0  0  0  0  0  0  0  0  # atno 10763 bound_to 10752
  154.8546  135.3539  154.5865 H   0  0  0  0  0  0  0  0  0  0  0  0  # atno 10764 bound_to 10752
  153.6290  135.7061  153.5340 H   0  0  0  0  0  0  0  0  0  0  0  0  # atno 10765 bound_to 10752
  139.8785  134.9268  156.5231 H   0  0  0  0  0  0  0  0  0  0  0  0  # atno 11005 bound_to 11000
  144.7913  140.6036  143.6540 LP  0  0  0  0  0  0  0  0  0  0  0  0  # atno 17320 bound_to 7965
  145.4806  139.1496  143.3764 LP  0  0  0  0  0  0  0  0  0  0  0  0  # atno 17321 bound_to 7965
  139.7956  144.7393  150.9894 LP  0  0  0  0  0  0  0  0  0  0  0  0  # atno 17342 bound_to 10162
  140.7820  143.4397  151.0570 LP  0  0  0  0  0  0  0  0  0  0  0  0  # atno 17343 bound_to 10162
  156.1880  130.6541  151.1029 LP  0  0  0  0  0  0  0  0  0  0  0  0  # atno 17370 bound_to 10713
  157.7049  131.0760  150.6698 LP  0  0  0  0  0  0  0  0  0  0  0  0  # atno 17371 bound_to 10713
  140.8436  133.8186  155.9099 LP  0  0  0  0  0  0  0  0  0  0  0  0  # atno 17394 bound_to 11000
  140.9214  134.2137  157.4924 LP  0  0  0  0  0  0  0  0  0  0  0  0  # atno 17395 bound_to 11000

$$$$
