AV-unprocessed.smi:2198|AV-procd|sdf|8916|dock4
  -GOLD-   2272012133D 1   1.00000     0.00000
 Structure written by MMmdl.
 43 44  0  0  0  0  0  0  0  0  1 V2000
  145.7017  137.4804  153.0689 C   0  0  0  0  0  0  0  0  0  0  0  0
  146.7700  138.4622  153.4985 C   0  0  0  0  0  0  0  0  0  0  0  0
  146.3682  139.7862  153.4338 N   0  0  0  0  0  0  0  0  0  0  0  0
  147.2812  140.7584  153.8021 C   0  0  0  0  0  0  0  0  0  0  0  0
  146.7634  142.1823  153.6986 C   0  0  0  0  0  0  0  0  0  0  0  0
  148.5290  140.4275  154.2213 C   0  0  0  0  0  0  0  0  0  0  0  0
  149.5655  141.4695  154.6410 C   0  0  0  0  0  0  0  0  0  0  0  0
  150.0701  141.3825  156.0840 C   0  0  0  0  0  0  0  0  0  0  0  0
  150.2495  140.2900  156.6231 O   0  0  0  0  0  0  0  0  0  0  0  0
  150.2874  142.5537  156.7010 N   0  0  0  0  0  0  0  0  0  0  0  0
  150.7429  142.7100  158.0791 C   0  0  1  0  0  0  0  0  0  0  0  0
  151.9850  141.8319  158.3154 C   0  0  0  0  0  0  0  0  0  0  0  0
  152.5380  142.0149  159.7371 C   0  0  0  0  0  0  0  0  0  0  0  0
  152.8451  143.4916  160.0308 C   0  0  0  0  0  0  0  0  0  0  0  0
  151.6066  144.3806  159.8082 C   0  0  1  0  0  0  0  0  0  0  0  0
  151.9145  145.8570  160.0963 C   0  0  0  0  0  0  0  0  0  0  0  0
  151.0550  144.1906  158.3819 C   0  0  0  0  0  0  0  0  0  0  0  0
  148.8966  138.9931  154.2815 C   0  0  0  0  0  0  0  0  0  0  0  0
  150.0058  138.6282  154.6694 O   0  0  0  0  0  0  0  0  0  0  0  0
  147.9373  138.0466  153.8863 N   0  0  0  0  0  0  0  0  0  0  0  0
  145.4492  140.0763  153.1326 H   0  0  0  0  0  0  0  0  0  0  0  0
  146.1125  136.4741  152.9764 H   0  0  0  0  0  0  0  0  0  0  0  0
  145.2843  137.7665  152.1031 H   0  0  0  0  0  0  0  0  0  0  0  0
  144.8952  137.4547  153.8022 H   0  0  0  0  0  0  0  0  0  0  0  0
  147.3482  142.7481  152.9735 H   0  0  0  0  0  0  0  0  0  0  0  0
  146.8312  142.6843  154.6639 H   0  0  0  0  0  0  0  0  0  0  0  0
  145.7203  142.2089  153.3811 H   0  0  0  0  0  0  0  0  0  0  0  0
  149.1332  142.4603  154.4996 H   0  0  0  0  0  0  0  0  0  0  0  0
  150.4254  141.4442  153.9707 H   0  0  0  0  0  0  0  0  0  0  0  0
  150.1159  143.4014  156.1800 H   0  0  0  0  0  0  0  0  0  0  0  0
  149.9545  142.3700  158.7538 H   0  0  0  0  0  0  0  0  0  0  0  0
  151.7382  140.7825  158.1498 H   0  0  0  0  0  0  0  0  0  0  0  0
  152.7614  142.0855  157.5918 H   0  0  0  0  0  0  0  0  0  0  0  0
  151.8143  141.6406  160.4622 H   0  0  0  0  0  0  0  0  0  0  0  0
  153.4400  141.4157  159.8638 H   0  0  0  0  0  0  0  0  0  0  0  0
  153.1984  143.5932  161.0576 H   0  0  0  0  0  0  0  0  0  0  0  0
  153.6610  143.8273  159.3891 H   0  0  0  0  0  0  0  0  0  0  0  0
  150.8346  144.0636  160.5109 H   0  0  0  0  0  0  0  0  0  0  0  0
  152.6836  146.2400  159.4246 H   0  0  0  0  0  0  0  0  0  0  0  0
  152.2670  145.9932  161.1190 H   0  0  0  0  0  0  0  0  0  0  0  0
  151.0249  146.4746  159.9703 H   0  0  0  0  0  0  0  0  0  0  0  0
  151.7791  144.5681  157.6580 H   0  0  0  0  0  0  0  0  0  0  0  0
  150.1539  144.7923  158.2565 H   0  0  0  0  0  0  0  0  0  0  0  0
  1 22  1  0  0  0  0
  1 23  1  0  0  0  0
  1 24  1  0  0  0  0
  1  2  1  0  0  0  0
  2  3  1  0  0  0  0
  2 20  2  0  0  0  0
  3  4  1  0  0  0  0
  3 21  1  0  0  0  0
  4  6  2  0  0  0  0
  4  5  1  0  0  0  0
  5 25  1  0  0  0  0
  5 26  1  0  0  0  0
  5 27  1  0  0  0  0
  6 18  1  0  0  0  0
  6  7  1  0  0  0  0
  7  8  1  0  0  0  0
  7 28  1  0  0  0  0
  7 29  1  0  0  0  0
  8  9  2  0  0  0  0
  8 10  1  0  0  0  0
 10 11  1  0  0  0  0
 10 30  1  0  0  0  0
 11 17  1  0  0  0  0
 11 12  1  0  0  0  0
 11 31  1  0  0  0  0
 12 13  1  0  0  0  0
 12 32  1  0  0  0  0
 12 33  1  0  0  0  0
 13 14  1  0  0  0  0
 13 34  1  0  0  0  0
 13 35  1  0  0  0  0
 14 15  1  0  0  0  0
 14 36  1  0  0  0  0
 14 37  1  0  0  0  0
 15 16  1  0  0  0  0
 15 17  1  0  0  0  0
 15 38  1  0  0  0  0
 16 39  1  0  0  0  0
 16 40  1  0  0  0  0
 16 41  1  0  0  0  0
 17 42  1  0  0  0  0
 17 43  1  0  0  0  0
 18 19  2  0  0  0  0
 18 20  1  0  0  0  0
M  END
> <s_m_source_file>
AV-unprocessed.smi

> <i_m_source_file_index>
2198

> <i_lp_mmshare_version>
43012

> <i_f3d_flags>
0

> <s_epik_input>
W0NIM11jMW5jKFtDSDNdKWMoYyg9TylbbkhdMSlbQ0gyXUMoPU8pW05IXVtDQEBIXTJbQ0gyXVtDSDJdW0NIMl1bQ0BASF0oW0NIM10pW0NIMl0y

> <s_epik_cmdline>
J2VwaWtfcHl0aG9uJywgJy1waCcsICc3LjAnLCAnLXRuJywgJzgnLCAnLW1hJywgJzIwMCcsICctbWV0YWxfYmluZGluZycsICctaW1hZScsICc8aW5maWxlLm1hZT4nLCAnLW9tYWUnLCAnPG91dGZpbGUubWFlPic=

> <r_lp_tautomer_probability>
0.156392

> <r_epik_Ionization_Penalty>
0.0136514

> <r_epik_Ionization_Penalty_Charging>
0.0135207

> <r_epik_Ionization_Penalty_Neutral>
0.000130657

> <r_epik_State_Penalty>
1.15342

> <r_epik_Charging_Adjusted_Penalty>
1.16694

> <i_epik_Tot_Q>
0

> <i_epik_Tot_abs_Q>
0

> <r_epik_Metal_State_Penalty>
1.31404

> <b_epik_Metal_Only>
0

> <s_lp_Force_Field>
OPLS_2005

> <r_lp_Energy>
13.5708

> <b_lp_Chiralities_Consistent>
1

> <s_lp_Variant>
AV-unprocessed.smi:2198-6

> <Gold.Version>
5.8.1

> <Gold.Id.Protein>
6NUR|6NUR_protein|mol2

> <Gold.PLP.Fitness>
46.5542

> <Gold.PLP.PLP>
-41.3321

> <Gold.PLP.part.hbond>
-2.0000

> <Gold.PLP.part.metal>
0.0000

> <Gold.PLP.part.buried>
-4.2810

> <Gold.PLP.part.nonpolar>
-35.4336

> <Gold.PLP.part.repulsive>
0.8206

> <Gold.PLP.ligand.clash>
0.0000

> <Gold.PLP.ligand.torsion>
0.3905

> <Gold.PLP.Chemscore.Hbond>
2.0000

> <Gold.PLP.Chemscore.CHOScore>
0.0000

> <Gold.PLP.Chemscore.Metal>
0.0000

> <Gold.Chemscore.Hbonds>
donor molecule, donor type, donor heavy atom, donor atom, acceptor molecule, acceptor atom, score
      L1  H     3    21       P1 10175  1.00
      L1  H    10    30       P1  8028  0.96

> <Gold.PLP.Chemscore.Internal.Correction>
0.0032

> <Gold.Rescore>
     Score         DG    S(hbond)    S(metal)    S(lipo)     H(rot)  DE(clash)    DE(int)     intcor
     17.28     -20.38       1.91        0.00     105.32       1.48       0.12       2.97       ----

> <Gold.Chemscore.Fitness>
17.2826

> <Gold.Chemscore.DG>
-20.3774

> <Gold.Chemscore.ZeroCoef>
-5.4800

> <Gold.Chemscore.Hbond>
1.9055

> <Gold.Chemscore.Metal>
0.0000

> <Gold.Chemscore.Lipo>
105.3180

> <Gold.Chemscore.Internal_Hbond>
0.0000

> <Gold.Chemscore.DEClash>
0.1210

> <Gold.Chemscore.DEInternal>
2.9739

> <Gold.Chemscore.Rot>
1.4801

> <Gold.Chemscore.Internal.Correction>
   9.000000E+99

> <Gold.Chemscore.Hbonds>
donor molecule, donor type, donor heavy atom, donor atom, acceptor molecule, acceptor atom, score
      L1  H     3    21       P1 10175  0.99
      L1  H    10    30       P1  8028  0.92

> <Gold.Chemscore.Hbond.Weighted>
-6.3644

> <Gold.Chemscore.Metal.Weighted>
-0.0000

> <Gold.Chemscore.Lipo.Weighted>
-12.3222

> <Gold.Chemscore.Internal_Hbond.Weighted>
0.0000

> <Gold.Chemscore.DEClash.Weighted>
0.1210

> <Gold.Chemscore.DEInternal.Weighted>
2.9739

> <Gold.Chemscore.Rot.Weighted>
3.7891

> <Gold.Chemscore.Internal.Correction.Weighted>
   9.000000E+99

> <Gold.Protein.RotatedTorsions>
[ 6907 6896 6895 6894 ] final   -3.73 input  -60.11 | X-H torsion
[ 7974 7965 7964 7962 ] final  135.11 input  175.53 | X-H torsion
[ 8008 7997 7996 7995 ] final -119.62 input   59.86 | X-H torsion
[ 10167 10162 10161 10158 ] final  134.62 input  -65.29 | X-H torsion
[ 10718 10713 10712 10709 ] final  143.98 input   66.30 | X-H torsion
[ 10763 10752 10751 10750 ] final  -78.03 input  -60.55 | X-H torsion
[ 11005 11000 10999 10996 ] final   16.53 input  -57.11 | X-H torsion

> <Gold.Protein.ActiveResidues>
 VAL166  LYS551  ARG553  GLY616  TRP617  ASP618  TYR619  PRO620  LYS621  CYS622 
 ASP623  PHE694  ASN695  SER759  ASP760  ASP761  ALA762  ILE779  LEU786  VAL792 
 PHE793  MET794  SER795  GLU796  ALA797  LYS798  CYS799  TRP800  GLU811  SER814 

> <Gold.Protein.RotatedAtoms>
  151.5091  135.1064  159.9848 H   0  0  0  0  0  0  0  0  0  0  0  0  # atno 6907 bound_to 6896
  152.4669  133.7939  159.6927 H   0  0  0  0  0  0  0  0  0  0  0  0  # atno 6908 bound_to 6896
  150.8658  133.7513  159.3003 H   0  0  0  0  0  0  0  0  0  0  0  0  # atno 6909 bound_to 6896
  144.9696  139.4620  143.5439 H   0  0  0  0  0  0  0  0  0  0  0  0  # atno 7974 bound_to 7965
  155.1187  140.0398  157.2744 H   0  0  0  0  0  0  0  0  0  0  0  0  # atno 8008 bound_to 7997
  154.6630  140.2595  155.7062 H   0  0  0  0  0  0  0  0  0  0  0  0  # atno 8009 bound_to 7997
  156.2627  140.2813  156.1110 H   0  0  0  0  0  0  0  0  0  0  0  0  # atno 8010 bound_to 7997
  139.5249  144.6558  151.5166 H   0  0  0  0  0  0  0  0  0  0  0  0  # atno 10167 bound_to 10162
  157.3626  131.0967  151.0901 H   0  0  0  0  0  0  0  0  0  0  0  0  # atno 10718 bound_to 10713
  154.5206  135.5744  153.6677 H   0  0  0  0  0  0  0  0  0  0  0  0  # atno 10763 bound_to 10752
  152.9916  135.6180  154.2760 H   0  0  0  0  0  0  0  0  0  0  0  0  # atno 10764 bound_to 10752
  154.2680  135.2854  155.2730 H   0  0  0  0  0  0  0  0  0  0  0  0  # atno 10765 bound_to 10752
  140.4460  134.1273  155.7696 H   0  0  0  0  0  0  0  0  0  0  0  0  # atno 11005 bound_to 11000
  146.3378  139.8900  142.8810 LP  0  0  0  0  0  0  0  0  0  0  0  0  # atno 17320 bound_to 7965
  145.2578  141.0067  143.3844 LP  0  0  0  0  0  0  0  0  0  0  0  0  # atno 17321 bound_to 7965
  140.6383  143.8940  150.6668 LP  0  0  0  0  0  0  0  0  0  0  0  0  # atno 17342 bound_to 10162
  140.2266  143.3768  152.1600 LP  0  0  0  0  0  0  0  0  0  0  0  0  # atno 17343 bound_to 10162
  157.2035  130.6405  149.5747 LP  0  0  0  0  0  0  0  0  0  0  0  0  # atno 17370 bound_to 10713
  155.9740  130.4683  150.6355 LP  0  0  0  0  0  0  0  0  0  0  0  0  # atno 17371 bound_to 10713
  141.1685  133.8656  157.1643 LP  0  0  0  0  0  0  0  0  0  0  0  0  # atno 17394 bound_to 11000
  140.0038  135.0017  157.0248 LP  0  0  0  0  0  0  0  0  0  0  0  0  # atno 17395 bound_to 11000

$$$$
