AV-unprocessed.smi:72|AV-procd|sdf|668|dock2
  -GOLD-   2262016573D 1   1.00000     0.00000
 Structure written by MMmdl.
 29 30  0  0  0  0  0  0  0  0  1 V2000
  145.2519  142.5368  154.9847 N   0  0  0  0  0  0  0  0  0  0  0  0
  146.3214  141.8552  154.7753 C   0  0  0  0  0  0  0  0  0  0  0  0
  147.5473  142.0489  155.4296 N   0  0  0  0  0  0  0  0  0  0  0  0
  148.5485  141.2852  155.1170 C   0  0  0  0  0  0  0  0  0  0  0  0
  148.4390  140.2332  154.1153 N   0  0  0  0  0  0  0  0  0  0  0  0
  149.6070  139.3364  153.7422 C   0  0  1  0  0  0  0  0  0  0  0  0
  150.7676  139.7617  154.3967 O   0  0  0  0  0  0  0  0  0  0  0  0
  151.1096  138.8466  155.4335 C   0  0  2  0  0  0  0  0  0  0  0  0
  152.5977  138.9595  155.8065 C   0  0  0  0  0  0  0  0  0  0  0  0
  152.7567  139.8540  156.8868 O   0  0  0  0  0  0  0  0  0  0  0  0
  150.6694  137.4968  154.8546 C   0  0  2  0  0  0  0  0  0  0  0  0
  151.6353  136.9879  153.9525 O   0  0  0  0  0  0  0  0  0  0  0  0
  149.3854  137.8487  154.1144 C   0  0  1  0  0  0  0  0  0  0  0  0
  148.2712  137.6264  154.9620 O   0  0  0  0  0  0  0  0  0  0  0  0
  147.2077  140.0260  153.4471 C   0  0  0  0  0  0  0  0  0  0  0  0
  147.0586  139.1456  152.6000 O   0  0  0  0  0  0  0  0  0  0  0  0
  146.2002  140.8503  153.8064 N   0  0  0  0  0  0  0  0  0  0  0  0
  149.7606  139.4908  152.6727 H   0  0  0  0  0  0  0  0  0  0  0  0
  150.4911  139.0504  156.3094 H   0  0  0  0  0  0  0  0  0  0  0  0
  150.5140  136.7506  155.6353 H   0  0  0  0  0  0  0  0  0  0  0  0
  149.2514  137.2565  153.2082 H   0  0  0  0  0  0  0  0  0  0  0  0
  145.4121  143.2393  155.6914 H   0  0  0  0  0  0  0  0  0  0  0  0
  149.5267  141.3890  155.5857 H   0  0  0  0  0  0  0  0  0  0  0  0
  152.9797  137.9899  156.1270 H   0  0  0  0  0  0  0  0  0  0  0  0
  153.1985  139.2834  154.9560 H   0  0  0  0  0  0  0  0  0  0  0  0
  151.9717  139.8339  157.4124 H   0  0  0  0  0  0  0  0  0  0  0  0
  151.2148  136.8238  153.1226 H   0  0  0  0  0  0  0  0  0  0  0  0
  147.5589  138.1727  154.6667 H   0  0  0  0  0  0  0  0  0  0  0  0
  145.3103  140.7247  153.3471 H   0  0  0  0  0  0  0  0  0  0  0  0
  1  2  2  0  0  0  0
  1 22  1  0  0  0  0
  2 17  1  0  0  0  0
  2  3  1  0  0  0  0
  3  4  2  0  0  0  0
  4  5  1  0  0  0  0
  4 23  1  0  0  0  0
  5  6  1  0  0  0  0
  5 15  1  0  0  0  0
  6 18  1  0  0  0  0
  6 13  1  0  0  0  0
  6  7  1  0  0  0  0
  7  8  1  0  0  0  0
  8 19  1  0  0  0  0
  8  9  1  0  0  0  0
  8 11  1  0  0  0  0
  9 10  1  0  0  0  0
  9 24  1  0  0  0  0
  9 25  1  0  0  0  0
 10 26  1  0  0  0  0
 11 20  1  0  0  0  0
 11 12  1  0  0  0  0
 11 13  1  0  0  0  0
 12 27  1  0  0  0  0
 13 21  1  0  0  0  0
 13 14  1  0  0  0  0
 14 28  1  0  0  0  0
 15 16  2  0  0  0  0
 15 17  1  0  0  0  0
 17 29  1  0  0  0  0
M  END
> <s_m_source_file>
AV-unprocessed.smi

> <i_m_source_file_index>
72

> <i_lp_mmshare_version>
43012

> <i_f3d_flags>
0

> <s_epik_input>
W05IMl1jMW5bY0hdbihjKD1PKW4xKVtDQEBIXTJPW0NASF0oW0NIMl1bT0hdKVtDQEBIXShbT0hdKVtDQEhdMltPSF0=

> <s_epik_cmdline>
J2VwaWtfcHl0aG9uJywgJy1waCcsICc3LjAnLCAnLXRuJywgJzgnLCAnLW1hJywgJzIwMCcsICctbWV0YWxfYmluZGluZycsICctaW1hZScsICc8aW5maWxlLm1hZT4nLCAnLW9tYWUnLCAnPG91dGZpbGUubWFlPic=

> <r_lp_tautomer_probability>
7.17554e-07

> <r_epik_Ionization_Penalty>
0.0066451

> <r_epik_Ionization_Penalty_Charging>
0.00663793

> <r_epik_Ionization_Penalty_Neutral>
7.17052e-06

> <r_epik_State_Penalty>
0.419231

> <r_epik_Charging_Adjusted_Penalty>
0.425868

> <i_epik_Tot_Q>
0

> <i_epik_Tot_abs_Q>
0

> <r_epik_Metal_State_Penalty>
1.44144

> <b_epik_Metal_Only>
0

> <s_epik_Chemistry_Notes>
This compound contains an acetal/aminal-like group ( X-CH(R)-Y where X, Y are N, S, or O) that may be acid/base labile, releasing an aldehyde.

> <s_lp_Force_Field>
OPLS_2005

> <r_lp_Energy>
43.5158

> <b_lp_Chiralities_Consistent>
1

> <s_lp_Variant>
AV-unprocessed.smi:72-6

> <Gold.Version>
5.8.1

> <Gold.Id.Protein>
6NUR|6NUR_protein|mol2

> <Gold.PLP.Fitness>
35.3614

> <Gold.PLP.PLP>
-21.2521

> <Gold.PLP.part.hbond>
-5.0000

> <Gold.PLP.part.metal>
0.0000

> <Gold.PLP.part.buried>
2.6952

> <Gold.PLP.part.nonpolar>
-19.9464

> <Gold.PLP.part.repulsive>
2.0959

> <Gold.PLP.ligand.clash>
0.0000

> <Gold.PLP.ligand.torsion>
0.4688

> <Gold.PLP.Chemscore.Hbond>
4.9920

> <Gold.PLP.Chemscore.CHOScore>
0.0000

> <Gold.PLP.Chemscore.Metal>
0.0000

> <Gold.Chemscore.Hbonds>
donor molecule, donor type, donor heavy atom, donor atom, acceptor molecule, acceptor atom, score
      L1  H    12    27       P1  7949  1.00
      L1  H    17    29       P1 10175  1.00
      P1  H  7989  7998       L1     7  1.00
      P1  H  7997  8008       L1    10  0.99
      P1  H 10752 10764       L1    12  1.00

> <Gold.PLP.Chemscore.Internal.Correction>
0.0709

> <Gold.Rescore>
     Score         DG    S(hbond)    S(metal)    S(lipo)     H(rot)  DE(clash)    DE(int)     intcor
      8.69     -11.98       4.15        0.00      26.08       4.06       2.66       0.63       ----

> <Gold.Chemscore.Fitness>
8.6910

> <Gold.Chemscore.DG>
-11.9844

> <Gold.Chemscore.ZeroCoef>
-5.4800

> <Gold.Chemscore.Hbond>
4.1456

> <Gold.Chemscore.Metal>
0.0000

> <Gold.Chemscore.Lipo>
26.0839

> <Gold.Chemscore.Internal_Hbond>
0.0000

> <Gold.Chemscore.DEClash>
2.6630

> <Gold.Chemscore.DEInternal>
0.6303

> <Gold.Chemscore.Rot>
4.0600

> <Gold.Chemscore.Internal.Correction>
   9.000000E+99

> <Gold.Chemscore.Hbonds>
donor molecule, donor type, donor heavy atom, donor atom, acceptor molecule, acceptor atom, score
      L1  H    12    27       P1  7949  0.58
      L1  H    17    29       P1 10175  0.85
      P1  H  7989  7998       L1     7  0.82
      P1  H  7997  8008       L1    10  0.24
      P1  H 10752 10764       L1    12  0.45

> <Gold.Chemscore.Hbond.Weighted>
-13.8461

> <Gold.Chemscore.Metal.Weighted>
-0.0000

> <Gold.Chemscore.Lipo.Weighted>
-3.0518

> <Gold.Chemscore.Internal_Hbond.Weighted>
0.0000

> <Gold.Chemscore.DEClash.Weighted>
2.6630

> <Gold.Chemscore.DEInternal.Weighted>
0.6303

> <Gold.Chemscore.Rot.Weighted>
10.3936

> <Gold.Chemscore.Internal.Correction.Weighted>
   9.000000E+99

> <Gold.Protein.RotatedTorsions>
[ 6907 6896 6895 6894 ] final -179.94 input  -60.11 | X-H torsion
[ 7974 7965 7964 7962 ] final   79.06 input  175.53 | X-H torsion
[ 8008 7997 7996 7995 ] final  -73.62 input   59.86 | X-H torsion
[ 10167 10162 10161 10158 ] final -111.19 input  -65.29 | X-H torsion
[ 10718 10713 10712 10709 ] final  -96.00 input   66.30 | X-H torsion
[ 10763 10752 10751 10750 ] final  -92.82 input  -60.55 | X-H torsion
[ 11005 11000 10999 10996 ] final  110.40 input  -57.11 | X-H torsion

> <Gold.Protein.ActiveResidues>
 VAL166  LYS551  ARG553  GLY616  TRP617  ASP618  TYR619  PRO620  LYS621  CYS622 
 ASP623  PHE694  ASN695  SER759  ASP760  ASP761  ALA762  ILE779  LEU786  VAL792 
 PHE793  MET794  SER795  GLU796  ALA797  LYS798  CYS799  TRP800  GLU811  SER814 

> <Gold.Protein.RotatedAtoms>
  151.6616  133.3317  159.3174 H   0  0  0  0  0  0  0  0  0  0  0  0  # atno 6907 bound_to 6896
  150.7911  134.6939  159.6521 H   0  0  0  0  0  0  0  0  0  0  0  0  # atno 6908 bound_to 6896
  152.3990  134.6321  160.0129 H   0  0  0  0  0  0  0  0  0  0  0  0  # atno 6909 bound_to 6896
  145.6691  139.2492  143.1878 H   0  0  0  0  0  0  0  0  0  0  0  0  # atno 7974 bound_to 7965
  154.5262  140.0776  156.8263 H   0  0  0  0  0  0  0  0  0  0  0  0  # atno 8008 bound_to 7997
  155.3470  140.3410  155.4221 H   0  0  0  0  0  0  0  0  0  0  0  0  # atno 8009 bound_to 7997
  156.1734  140.1627  156.8393 H   0  0  0  0  0  0  0  0  0  0  0  0  # atno 8010 bound_to 7997
  140.1362  143.4318  152.1593 H   0  0  0  0  0  0  0  0  0  0  0  0  # atno 10167 bound_to 10162
  156.0053  130.5133  150.6160 H   0  0  0  0  0  0  0  0  0  0  0  0  # atno 10718 bound_to 10713
  154.6898  135.5217  153.8377 H   0  0  0  0  0  0  0  0  0  0  0  0  # atno 10763 bound_to 10752
  153.0624  135.6573  154.0442 H   0  0  0  0  0  0  0  0  0  0  0  0  # atno 10764 bound_to 10752
  154.0317  135.2984  155.3347 H   0  0  0  0  0  0  0  0  0  0  0  0  # atno 10765 bound_to 10752
  139.8881  134.9483  156.6273 H   0  0  0  0  0  0  0  0  0  0  0  0  # atno 11005 bound_to 11000
  146.1060  140.7486  142.9526 LP  0  0  0  0  0  0  0  0  0  0  0  0  # atno 17320 bound_to 7965
  144.7063  140.3863  143.7116 LP  0  0  0  0  0  0  0  0  0  0  0  0  # atno 17321 bound_to 7965
  139.5494  144.7326  151.4481 LP  0  0  0  0  0  0  0  0  0  0  0  0  # atno 17342 bound_to 10162
  140.6787  143.8130  150.7093 LP  0  0  0  0  0  0  0  0  0  0  0  0  # atno 17343 bound_to 10162
  157.3984  131.0806  151.1331 LP  0  0  0  0  0  0  0  0  0  0  0  0  # atno 17370 bound_to 10713
  157.2000  130.6390  149.5735 LP  0  0  0  0  0  0  0  0  0  0  0  0  # atno 17371 bound_to 10713
  140.7693  133.8752  155.8479 LP  0  0  0  0  0  0  0  0  0  0  0  0  # atno 17394 bound_to 11000
  140.9855  134.1348  157.4455 LP  0  0  0  0  0  0  0  0  0  0  0  0  # atno 17395 bound_to 11000

$$$$
