AV-unprocessed.smi:1278|AV-procd|sdf|5351|dock7
  -GOLD-   22720 4483D 1   1.00000     0.00000
 Structure written by MMmdl.
 38 39  0  0  0  0  0  0  0  0  3 V2000
  153.5524  141.9691  161.4228 C   0  0  0  0  0  0  0  0  0  0  0  0
  153.1688  142.2601  159.9652 C   0  0  2  0  0  0  0  0  0  0  0  0
  152.8204  143.7442  159.7617 C   0  0  0  0  0  0  0  0  0  0  0  0
  152.4158  144.0000  158.3046 C   0  0  0  0  0  0  0  0  0  0  0  0
  151.2693  143.0681  157.8807 C   0  0  0  0  0  0  0  0  0  0  0  0
  151.6352  141.6426  158.0834 N   0  3  2  0  0  0  0  0  0  0  0  0
  150.5980  140.7195  157.5602 C   0  0  0  0  0  0  0  0  0  0  0  0
  150.8905  139.2488  157.9131 C   0  0  0  0  0  0  0  0  0  0  0  0
  149.6713  138.5447  158.2913 N   0  0  0  0  0  0  0  0  0  0  0  0
  149.6126  137.4298  159.0332 C   0  0  0  0  0  0  0  0  0  0  0  0
  150.6534  136.9088  159.4416 O   0  0  0  0  0  0  0  0  0  0  0  0
  148.3537  136.9928  159.2590 N   0  5  0  0  0  0  0  0  0  0  0  0
  148.0344  136.4488  160.4446 C   0  0  0  0  0  0  0  0  0  0  0  0
  147.8163  137.1770  161.5458 N   0  0  0  0  0  0  0  0  0  0  0  0
  147.4930  136.4077  162.6651 C   0  0  0  0  0  0  0  0  0  0  0  0
  147.4578  135.0626  162.4083 C   0  0  0  0  0  0  0  0  0  0  0  0
  147.8274  134.7205  160.7422 S   0  0  0  0  0  0  0  0  0  0  0  0
  151.9993  141.3687  159.5001 C   0  0  0  0  0  0  0  0  0  0  0  0
  152.7233  142.1761  162.1004 H   0  0  0  0  0  0  0  0  0  0  0  0
  154.3989  142.5810  161.7362 H   0  0  0  0  0  0  0  0  0  0  0  0
  153.8357  140.9243  161.5534 H   0  0  0  0  0  0  0  0  0  0  0  0
  154.0360  142.0280  159.3451 H   0  0  0  0  0  0  0  0  0  0  0  0
  152.0022  144.0295  160.4246 H   0  0  0  0  0  0  0  0  0  0  0  0
  153.6708  144.3736  160.0268 H   0  0  0  0  0  0  0  0  0  0  0  0
  152.1162  145.0406  158.1787 H   0  0  0  0  0  0  0  0  0  0  0  0
  153.2758  143.8444  157.6517 H   0  0  0  0  0  0  0  0  0  0  0  0
  150.3660  143.2976  158.4483 H   0  0  0  0  0  0  0  0  0  0  0  0
  151.0374  143.2449  156.8298 H   0  0  0  0  0  0  0  0  0  0  0  0
  149.6174  141.0282  157.9259 H   0  0  0  0  0  0  0  0  0  0  0  0
  150.5572  140.7996  156.4729 H   0  0  0  0  0  0  0  0  0  0  0  0
  151.3219  138.7386  157.0514 H   0  0  0  0  0  0  0  0  0  0  0  0
  151.6180  139.1624  158.7204 H   0  0  0  0  0  0  0  0  0  0  0  0
  148.7962  138.9359  157.9739 H   0  0  0  0  0  0  0  0  0  0  0  0
  147.3035  136.9016  163.6064 H   0  0  0  0  0  0  0  0  0  0  0  0
  147.2362  134.2570  163.0916 H   0  0  0  0  0  0  0  0  0  0  0  0
  152.2835  140.3235  159.6180 H   0  0  0  0  0  0  0  0  0  0  0  0
  151.1265  141.5283  160.1360 H   0  0  0  0  0  0  0  0  0  0  0  0
  152.4635  141.4827  157.5282 H   0  0  0  0  0  0  0  0  0  0  0  0
  1  2  1  0  0  0  0
  1 19  1  0  0  0  0
  1 20  1  0  0  0  0
  1 21  1  0  0  0  0
  2 18  1  0  0  0  0
  2  3  1  0  0  0  0
  2 22  1  0  0  0  0
  3  4  1  0  0  0  0
  3 23  1  0  0  0  0
  3 24  1  0  0  0  0
  4  5  1  0  0  0  0
  4 25  1  0  0  0  0
  4 26  1  0  0  0  0
  5  6  1  0  0  0  0
  5 27  1  0  0  0  0
  5 28  1  0  0  0  0
  6  7  1  0  0  0  0
  6 18  1  0  0  0  0
  6 38  1  0  0  0  0
  7  8  1  0  0  0  0
  7 29  1  0  0  0  0
  7 30  1  0  0  0  0
  8  9  1  0  0  0  0
  8 31  1  0  0  0  0
  8 32  1  0  0  0  0
  9 10  1  0  0  0  0
  9 33  1  0  0  0  0
 10 11  2  0  0  0  0
 10 12  1  0  0  0  0
 12 13  1  0  0  0  0
 13 17  1  0  0  0  0
 13 14  2  0  0  0  0
 14 15  1  0  0  0  0
 15 16  2  0  0  0  0
 15 34  1  0  0  0  0
 16 17  1  0  0  0  0
 16 35  1  0  0  0  0
 18 36  1  0  0  0  0
 18 37  1  0  0  0  0
M  CHG  1   6   1
M  CHG  1  12  -1
M  END
> <s_m_source_file>
AV-unprocessed.smi

> <i_m_source_file_index>
1278

> <i_lp_mmshare_version>
43012

> <i_f3d_flags>
0

> <s_epik_input>
W0NIM11bQ0BASF0xW0NIMl1bQ0gyXVtDSDJdTihbQ0gyXTEpW0NIMl1bQ0gyXVtOSF1DKD1PKVtOSF1jMm5bY0hdW2NIXXMy

> <s_epik_cmdline>
J2VwaWtfcHl0aG9uJywgJy1waCcsICc3LjAnLCAnLXRuJywgJzgnLCAnLW1hJywgJzIwMCcsICctbWV0YWxfYmluZGluZycsICctaW1hZScsICc8aW5maWxlLm1hZT4nLCAnLW9tYWUnLCAnPG91dGZpbGUubWFlPic=

> <r_lp_tautomer_probability>
0.999

> <r_epik_Ionization_Penalty>
6.22019

> <r_epik_Ionization_Penalty_Charging>
5.38911

> <r_epik_Ionization_Penalty_Neutral>
0.831074

> <r_epik_State_Penalty>
5.38904

> <r_epik_Charging_Adjusted_Penalty>
10.7782

> <i_epik_Tot_Q>
0

> <i_epik_Tot_abs_Q>
2

> <r_epik_Metal_State_Penalty>
1.41502

> <b_epik_Metal_Only>
1

> <s_lp_Force_Field>
OPLS_2005

> <r_lp_Energy>
5.98005

> <b_lp_Chiralities_Consistent>
1

> <s_lp_Variant>
AV-unprocessed.smi:1278-5

> <Gold.Version>
5.8.1

> <Gold.Id.Protein>
6NUR|6NUR_protein|mol2

> <Gold.PLP.Fitness>
47.6299

> <Gold.PLP.PLP>
-42.2972

> <Gold.PLP.part.hbond>
-3.0000

> <Gold.PLP.part.metal>
0.0000

> <Gold.PLP.part.buried>
-5.2136

> <Gold.PLP.part.nonpolar>
-34.1654

> <Gold.PLP.part.repulsive>
0.2208

> <Gold.PLP.ligand.clash>
0.0000

> <Gold.PLP.ligand.torsion>
1.4794

> <Gold.PLP.Chemscore.Hbond>
2.7520

> <Gold.PLP.Chemscore.CHOScore>
0.0000

> <Gold.PLP.Chemscore.Metal>
0.0000

> <Gold.Chemscore.Hbonds>
donor molecule, donor type, donor heavy atom, donor atom, acceptor molecule, acceptor atom, score
      P1  H  6896  6909       L1    11  1.00
      P1  H  6931  6943       L1    14  1.00
      P1  H  6934  6947       L1    14  0.69

> <Gold.PLP.Chemscore.Internal.Correction>
0.0354

> <Gold.Rescore>
     Score         DG    S(hbond)    S(metal)    S(lipo)     H(rot)  DE(clash)    DE(int)     intcor
     19.54     -21.00       2.41        0.00      98.23       1.57       0.05       1.41       ----

> <Gold.Chemscore.Fitness>
19.5375

> <Gold.Chemscore.DG>
-21.0007

> <Gold.Chemscore.ZeroCoef>
-5.4800

> <Gold.Chemscore.Hbond>
2.4075

> <Gold.Chemscore.Metal>
0.0000

> <Gold.Chemscore.Lipo>
98.2294

> <Gold.Chemscore.Internal_Hbond>
0.0000

> <Gold.Chemscore.DEClash>
0.0524

> <Gold.Chemscore.DEInternal>
1.4108

> <Gold.Chemscore.Rot>
1.5676

> <Gold.Chemscore.Internal.Correction>
   9.000000E+99

> <Gold.Chemscore.Hbonds>
donor molecule, donor type, donor heavy atom, donor atom, acceptor molecule, acceptor atom, score
      P1  H  6896  6909       L1    11  0.91
      P1  H  6931  6943       L1    14  0.65
      P1  H  6934  6947       L1    14  0.43

> <Gold.Chemscore.Hbond.Weighted>
-8.0409

> <Gold.Chemscore.Metal.Weighted>
-0.0000

> <Gold.Chemscore.Lipo.Weighted>
-11.4928

> <Gold.Chemscore.Internal_Hbond.Weighted>
0.0000

> <Gold.Chemscore.DEClash.Weighted>
0.0524

> <Gold.Chemscore.DEInternal.Weighted>
1.4108

> <Gold.Chemscore.Rot.Weighted>
4.0130

> <Gold.Chemscore.Internal.Correction.Weighted>
   9.000000E+99

> <Gold.Protein.RotatedTorsions>
[ 6907 6896 6895 6894 ] final   76.36 input  -60.11 | X-H torsion
[ 7974 7965 7964 7962 ] final -132.96 input  175.53 | X-H torsion
[ 8008 7997 7996 7995 ] final  177.67 input   59.86 | X-H torsion
[ 10167 10162 10161 10158 ] final -161.88 input  -65.29 | X-H torsion
[ 10718 10713 10712 10709 ] final  163.14 input   66.30 | X-H torsion
[ 10763 10752 10751 10750 ] final   13.84 input  -60.55 | X-H torsion
[ 11005 11000 10999 10996 ] final   74.21 input  -57.11 | X-H torsion

> <Gold.Protein.ActiveResidues>
 VAL166  LYS551  ARG553  GLY616  TRP617  ASP618  TYR619  PRO620  LYS621  CYS622 
 ASP623  PHE694  ASN695  SER759  ASP760  ASP761  ALA762  ILE779  LEU786  VAL792 
 PHE793  MET794  SER795  GLU796  ALA797  LYS798  CYS799  TRP800  GLU811  SER814 

> <Gold.Protein.RotatedAtoms>
  152.5069  134.3980  159.9406 H   0  0  0  0  0  0  0  0  0  0  0  0  # atno 6907 bound_to 6896
  151.3943  133.3772  159.2732 H   0  0  0  0  0  0  0  0  0  0  0  0  # atno 6908 bound_to 6896
  150.9409  134.8839  159.7670 H   0  0  0  0  0  0  0  0  0  0  0  0  # atno 6909 bound_to 6896
  144.9237  140.7045  143.4949 H   0  0  0  0  0  0  0  0  0  0  0  0  # atno 7974 bound_to 7965
  156.0631  140.1352  156.9918 H   0  0  0  0  0  0  0  0  0  0  0  0  # atno 8008 bound_to 7997
  154.4492  140.0987  156.6618 H   0  0  0  0  0  0  0  0  0  0  0  0  # atno 8009 bound_to 7997
  155.5346  140.3459  155.4436 H   0  0  0  0  0  0  0  0  0  0  0  0  # atno 8010 bound_to 7997
  139.6433  144.0220  152.2108 H   0  0  0  0  0  0  0  0  0  0  0  0  # atno 10167 bound_to 10162
  157.1126  131.0472  151.2450 H   0  0  0  0  0  0  0  0  0  0  0  0  # atno 10718 bound_to 10713
  153.1681  135.6807  153.8647 H   0  0  0  0  0  0  0  0  0  0  0  0  # atno 10763 bound_to 10752
  153.8020  135.3154  155.3392 H   0  0  0  0  0  0  0  0  0  0  0  0  # atno 10764 bound_to 10752
  154.7979  135.4796  154.0296 H   0  0  0  0  0  0  0  0  0  0  0  0  # atno 10765 bound_to 10752
  139.9402  134.7413  156.1120 H   0  0  0  0  0  0  0  0  0  0  0  0  # atno 11005 bound_to 11000
  145.3254  139.1775  143.4565 LP  0  0  0  0  0  0  0  0  0  0  0  0  # atno 17320 bound_to 7965
  146.3216  140.3277  142.8638 LP  0  0  0  0  0  0  0  0  0  0  0  0  # atno 17321 bound_to 7965
  139.9915  144.6358  150.7810 LP  0  0  0  0  0  0  0  0  0  0  0  0  # atno 17342 bound_to 10162
  140.7502  143.2951  151.3227 LP  0  0  0  0  0  0  0  0  0  0  0  0  # atno 17343 bound_to 10162
  157.4546  130.7618  149.7181 LP  0  0  0  0  0  0  0  0  0  0  0  0  # atno 17370 bound_to 10713
  155.9847  130.3989  150.3299 LP  0  0  0  0  0  0  0  0  0  0  0  0  # atno 17371 bound_to 10713
  141.1033  133.6669  156.2806 LP  0  0  0  0  0  0  0  0  0  0  0  0  # atno 17394 bound_to 11000
  140.5971  134.5592  157.5510 LP  0  0  0  0  0  0  0  0  0  0  0  0  # atno 17395 bound_to 11000

$$$$
