AV-unprocessed.smi:2795|AV-procd|sdf|10781|dock4
  -GOLD-   2272015213D 1   1.00000     0.00000
 Structure written by MMmdl.
 36 37  0  0  0  0  0  0  0  0  1 V2000
  153.1163  142.6349  160.7122 C   0  0  0  0  0  0  0  0  0  0  0  0
  152.4536  143.1507  159.5310 N   0  0  0  0  0  0  0  0  0  0  0  0
  152.5288  144.3984  159.0485 C   0  0  0  0  0  0  0  0  0  0  0  0
  151.8150  144.6070  157.9512 N   0  0  0  0  0  0  0  0  0  0  0  0
  151.2221  143.3722  157.7037 C   0  0  0  0  0  0  0  0  0  0  0  0
  151.6111  142.4605  158.6634 C   0  0  0  0  0  0  0  0  0  0  0  0
  151.2573  141.0134  158.8536 C   0  0  0  0  0  0  0  0  0  0  0  0
  151.4551  140.1149  157.6207 C   0  0  0  0  0  0  0  0  0  0  0  0
  150.4320  140.3569  156.6113 N   0  0  0  0  0  0  0  0  0  0  0  0
  150.6238  140.2424  155.2893 C   0  0  0  0  0  0  0  0  0  0  0  0
  151.7146  139.9561  154.7939 O   0  0  0  0  0  0  0  0  0  0  0  0
  149.3956  140.5005  154.4053 C   0  0  1  0  0  0  0  0  0  0  0  0
  148.4190  139.3028  154.3601 C   0  0  0  0  0  0  0  0  0  0  0  0
  147.1770  139.6505  153.5321 C   0  0  0  0  0  0  0  0  0  0  0  0
  146.5559  140.9505  154.0525 C   0  0  0  0  0  0  0  0  0  0  0  0
  147.6153  142.0621  154.1066 C   0  0  0  0  0  0  0  0  0  0  0  0
  148.7140  141.6484  154.9124 O   0  0  0  0  0  0  0  0  0  0  0  0
  153.6674  143.4304  161.2150 H   0  0  0  0  0  0  0  0  0  0  0  0
  153.8137  141.8467  160.4276 H   0  0  0  0  0  0  0  0  0  0  0  0
  152.3762  142.2278  161.4017 H   0  0  0  0  0  0  0  0  0  0  0  0
  153.1192  145.1743  159.5138 H   0  0  0  0  0  0  0  0  0  0  0  0
  150.5664  143.2354  156.8561 H   0  0  0  0  0  0  0  0  0  0  0  0
  151.8457  140.6081  159.6777 H   0  0  0  0  0  0  0  0  0  0  0  0
  150.2163  140.9453  159.1707 H   0  0  0  0  0  0  0  0  0  0  0  0
  152.4397  140.2981  157.1880 H   0  0  0  0  0  0  0  0  0  0  0  0
  151.4280  139.0649  157.9163 H   0  0  0  0  0  0  0  0  0  0  0  0
  149.5069  140.5955  156.9397 H   0  0  0  0  0  0  0  0  0  0  0  0
  149.7569  140.7166  153.3984 H   0  0  0  0  0  0  0  0  0  0  0  0
  148.9080  138.4256  153.9345 H   0  0  0  0  0  0  0  0  0  0  0  0
  148.1134  139.0318  155.3720 H   0  0  0  0  0  0  0  0  0  0  0  0
  147.4553  139.7696  152.4843 H   0  0  0  0  0  0  0  0  0  0  0  0
  146.4512  138.8379  153.5743 H   0  0  0  0  0  0  0  0  0  0  0  0
  145.7230  141.2523  153.4171 H   0  0  0  0  0  0  0  0  0  0  0  0
  146.1467  140.7882  155.0503 H   0  0  0  0  0  0  0  0  0  0  0  0
  147.9625  142.3186  153.1048 H   0  0  0  0  0  0  0  0  0  0  0  0
  147.1863  142.9676  154.5361 H   0  0  0  0  0  0  0  0  0  0  0  0
  1  2  1  0  0  0  0
  1 18  1  0  0  0  0
  1 19  1  0  0  0  0
  1 20  1  0  0  0  0
  2  6  1  0  0  0  0
  2  3  1  0  0  0  0
  3  4  2  0  0  0  0
  3 21  1  0  0  0  0
  4  5  1  0  0  0  0
  5  6  2  0  0  0  0
  5 22  1  0  0  0  0
  6  7  1  0  0  0  0
  7  8  1  0  0  0  0
  7 23  1  0  0  0  0
  7 24  1  0  0  0  0
  8  9  1  0  0  0  0
  8 25  1  0  0  0  0
  8 26  1  0  0  0  0
  9 10  1  0  0  0  0
  9 27  1  0  0  0  0
 10 11  2  0  0  0  0
 10 12  1  0  0  0  0
 12 17  1  0  0  0  0
 12 13  1  0  0  0  0
 12 28  1  0  0  0  0
 13 14  1  0  0  0  0
 13 29  1  0  0  0  0
 13 30  1  0  0  0  0
 14 15  1  0  0  0  0
 14 31  1  0  0  0  0
 14 32  1  0  0  0  0
 15 16  1  0  0  0  0
 15 33  1  0  0  0  0
 15 34  1  0  0  0  0
 16 17  1  0  0  0  0
 16 35  1  0  0  0  0
 16 36  1  0  0  0  0
M  END
> <s_m_source_file>
AV-unprocessed.smi

> <i_m_source_file_index>
2795

> <i_lp_mmshare_version>
43012

> <i_f3d_flags>
0

> <s_epik_input>
W0NIM11uMVtjSF1uW2NIXWMxW0NIMl1bQ0gyXVtOSF1DKD1PKVtDQEBIXTJbQ0gyXVtDSDJdW0NIMl1bQ0gyXU8y

> <s_epik_cmdline>
J2VwaWtfcHl0aG9uJywgJy1waCcsICc3LjAnLCAnLXRuJywgJzgnLCAnLW1hJywgJzIwMCcsICctbWV0YWxfYmluZGluZycsICctaW1hZScsICc8aW5maWxlLm1hZT4nLCAnLW9tYWUnLCAnPG91dGZpbGUubWFlPic=

> <r_lp_tautomer_probability>
1

> <r_epik_Ionization_Penalty>
0.870864

> <r_epik_Ionization_Penalty_Charging>
0.870864

> <r_epik_Ionization_Penalty_Neutral>
4.06047e-08

> <r_epik_State_Penalty>
0.90819

> <r_epik_Charging_Adjusted_Penalty>
1.77905

> <i_epik_Tot_Q>
0

> <i_epik_Tot_abs_Q>
0

> <r_epik_Metal_State_Penalty>
0.360563

> <b_epik_Metal_Only>
0

> <s_lp_Force_Field>
OPLS_2005

> <r_lp_Energy>
10.035

> <b_lp_Chiralities_Consistent>
1

> <s_lp_Variant>
AV-unprocessed.smi:2795-4

> <Gold.Version>
5.8.1

> <Gold.Id.Protein>
6NUR|6NUR_protein|mol2

> <Gold.PLP.Fitness>
41.1314

> <Gold.PLP.PLP>
-36.6965

> <Gold.PLP.part.hbond>
-0.9905

> <Gold.PLP.part.metal>
0.0000

> <Gold.PLP.part.buried>
-4.1781

> <Gold.PLP.part.nonpolar>
-32.2117

> <Gold.PLP.part.repulsive>
0.3555

> <Gold.PLP.ligand.clash>
0.0000

> <Gold.PLP.ligand.torsion>
0.7695

> <Gold.PLP.Chemscore.Hbond>
1.0000

> <Gold.PLP.Chemscore.CHOScore>
0.9836

> <Gold.PLP.Chemscore.Metal>
0.0000

> <Gold.Chemscore.Hbonds>
donor molecule, donor type, donor heavy atom, donor atom, acceptor molecule, acceptor atom, score
      P1  H  7989  7998       L1    11  1.00
      L1  C     5    22       P1  8028  0.99

> <Gold.PLP.Chemscore.Internal.Correction>
0.0232

> <Gold.Rescore>
     Score         DG    S(hbond)    S(metal)    S(lipo)     H(rot)  DE(clash)    DE(int)     intcor
     11.33     -11.90       0.88        0.00      68.25       1.76       0.12       0.45       ----

> <Gold.Chemscore.Fitness>
11.3315

> <Gold.Chemscore.DG>
-11.8996

> <Gold.Chemscore.ZeroCoef>
-5.4800

> <Gold.Chemscore.Hbond>
0.8791

> <Gold.Chemscore.Metal>
0.0000

> <Gold.Chemscore.Lipo>
68.2496

> <Gold.Chemscore.Internal_Hbond>
0.0000

> <Gold.Chemscore.DEClash>
0.1225

> <Gold.Chemscore.DEInternal>
0.4456

> <Gold.Chemscore.Rot>
1.7585

> <Gold.Chemscore.Internal.Correction>
   9.000000E+99

> <Gold.Chemscore.Hbonds>
donor molecule, donor type, donor heavy atom, donor atom, acceptor molecule, acceptor atom, score
      P1  H  7989  7998       L1    11  0.24

> <Gold.Chemscore.Hbond.Weighted>
-2.9362

> <Gold.Chemscore.Metal.Weighted>
-0.0000

> <Gold.Chemscore.Lipo.Weighted>
-7.9852

> <Gold.Chemscore.Internal_Hbond.Weighted>
0.0000

> <Gold.Chemscore.DEClash.Weighted>
0.1225

> <Gold.Chemscore.DEInternal.Weighted>
0.4456

> <Gold.Chemscore.Rot.Weighted>
4.5018

> <Gold.Chemscore.Internal.Correction.Weighted>
   9.000000E+99

> <Gold.Protein.RotatedTorsions>
[ 6907 6896 6895 6894 ] final    5.63 input  -60.11 | X-H torsion
[ 7974 7965 7964 7962 ] final   53.26 input  175.53 | X-H torsion
[ 8008 7997 7996 7995 ] final   59.50 input   59.86 | X-H torsion
[ 10167 10162 10161 10158 ] final  168.07 input  -65.29 | X-H torsion
[ 10718 10713 10712 10709 ] final   12.24 input   66.30 | X-H torsion
[ 10763 10752 10751 10750 ] final  123.63 input  -60.55 | X-H torsion
[ 11005 11000 10999 10996 ] final  -95.63 input  -57.11 | X-H torsion

> <Gold.Protein.ActiveResidues>
 VAL166  LYS551  ARG553  GLY616  TRP617  ASP618  TYR619  PRO620  LYS621  CYS622 
 ASP623  PHE694  ASN695  SER759  ASP760  ASP761  ALA762  ILE779  LEU786  VAL792 
 PHE793  MET794  SER795  GLU796  ALA797  LYS798  CYS799  TRP800  GLU811  SER814 

> <Gold.Protein.RotatedAtoms>
  151.6606  135.0990  160.0178 H   0  0  0  0  0  0  0  0  0  0  0  0  # atno 6907 bound_to 6896
  152.3949  133.6728  159.6276 H   0  0  0  0  0  0  0  0  0  0  0  0  # atno 6908 bound_to 6896
  150.7858  133.8808  159.3326 H   0  0  0  0  0  0  0  0  0  0  0  0  # atno 6909 bound_to 6896
  145.9729  139.4167  143.0179 H   0  0  0  0  0  0  0  0  0  0  0  0  # atno 7974 bound_to 7965
  155.5672  140.3489  155.4506 H   0  0  0  0  0  0  0  0  0  0  0  0  # atno 8008 bound_to 7997
  156.0471  140.1309  157.0117 H   0  0  0  0  0  0  0  0  0  0  0  0  # atno 8009 bound_to 7997
  154.4417  140.1012  156.6307 H   0  0  0  0  0  0  0  0  0  0  0  0  # atno 8010 bound_to 7997
  139.4959  144.3854  151.9576 H   0  0  0  0  0  0  0  0  0  0  0  0  # atno 10167 bound_to 10162
  157.0073  130.6103  149.5703 H   0  0  0  0  0  0  0  0  0  0  0  0  # atno 10718 bound_to 10713
  153.6485  135.3367  155.3093 H   0  0  0  0  0  0  0  0  0  0  0  0  # atno 10763 bound_to 10752
  154.8543  135.4335  154.1929 H   0  0  0  0  0  0  0  0  0  0  0  0  # atno 10764 bound_to 10752
  153.2866  135.7013  153.7408 H   0  0  0  0  0  0  0  0  0  0  0  0  # atno 10765 bound_to 10752
  141.1436  133.8040  157.0461 H   0  0  0  0  0  0  0  0  0  0  0  0  # atno 11005 bound_to 11000
  145.7880  140.9827  143.1064 LP  0  0  0  0  0  0  0  0  0  0  0  0  # atno 17320 bound_to 7965
  144.6841  139.9647  143.7481 LP  0  0  0  0  0  0  0  0  0  0  0  0  # atno 17321 bound_to 7965
  140.3291  144.3338  150.5991 LP  0  0  0  0  0  0  0  0  0  0  0  0  # atno 17342 bound_to 10162
  140.5660  143.2186  151.7683 LP  0  0  0  0  0  0  0  0  0  0  0  0  # atno 17343 bound_to 10162
  156.0149  130.5243  150.8104 LP  0  0  0  0  0  0  0  0  0  0  0  0  # atno 17370 bound_to 10713
  157.5347  131.0938  150.9909 LP  0  0  0  0  0  0  0  0  0  0  0  0  # atno 17371 bound_to 10713
  140.0661  134.9728  157.1389 LP  0  0  0  0  0  0  0  0  0  0  0  0  # atno 17394 bound_to 11000
  140.3777  134.2321  155.7173 LP  0  0  0  0  0  0  0  0  0  0  0  0  # atno 17395 bound_to 11000

$$$$
