AV-unprocessed.smi:156|AV-procd|sdf|1288|dock10
  -GOLD-   2262018563D 1   1.00000     0.00000
 Structure written by MMmdl.
 51 53  0  0  0  0  0  0  0  0  1 V2000
  144.6227  135.6673  157.6282 C   0  0  0  0  0  0  0  0  0  0  0  0
  144.6466  137.1894  157.3850 C   0  0  1  0  0  0  0  0  0  0  0  0
  145.6797  137.9334  158.2856 C   0  0  2  0  0  0  0  0  0  0  0  0
  147.0556  137.2413  158.3183 C   0  0  0  0  0  0  0  0  0  0  0  0
  145.0799  138.1803  160.0367 S   0  0  0  0  0  0  0  0  0  0  0  0
  143.6317  137.0466  160.1564 C   0  0  0  0  0  0  0  0  0  0  0  0
  146.1105  137.6698  160.9537 O   0  0  0  0  0  0  0  0  0  0  0  0
  144.5875  139.5559  160.2031 O   0  0  0  0  0  0  0  0  0  0  0  0
  144.8402  137.4486  155.9486 N   0  0  0  0  0  0  0  0  0  0  0  0
  146.0156  138.1866  155.4915 C   0  0  0  0  0  0  0  0  0  0  0  0
  144.1840  136.6646  155.0467 C   0  0  0  0  0  0  0  0  0  0  0  0
  142.9414  136.2206  155.3730 N   0  0  0  0  0  0  0  0  0  0  0  0
  142.2376  135.4665  154.5256 C   0  0  0  0  0  0  0  0  0  0  0  0
  142.5793  135.0399  153.3105 N   0  0  0  0  0  0  0  0  0  0  0  0
  143.8265  135.4715  152.9692 C   0  0  0  0  0  0  0  0  0  0  0  0
  144.6890  136.2817  153.7651 C   0  0  0  0  0  0  0  0  0  0  0  0
  145.8736  136.5091  153.0714 N   0  0  0  0  0  0  0  0  0  0  0  0
  145.7141  135.8876  151.9361 C   0  0  0  0  0  0  0  0  0  0  0  0
  144.5183  135.2220  151.7957 N   0  0  0  0  0  0  0  0  0  0  0  0
  144.0720  134.4524  150.6419 C   0  0  0  0  0  0  0  0  0  0  0  0
  144.8557  133.1413  150.3880 C   0  0  0  0  0  0  0  0  0  0  0  0
  144.2623  132.4647  149.1447 C   0  0  0  0  0  0  0  0  0  0  0  0
  142.9120  132.1028  149.3518 O   0  0  0  0  0  0  0  0  0  0  0  0
  146.3888  133.2645  150.3932 C   0  0  0  0  0  0  0  0  0  0  0  0
  146.4840  132.7086  151.7212 O   0  0  0  0  0  0  0  0  0  0  0  0
  145.1304  132.2249  151.5932 C   0  0  0  0  0  0  0  0  0  0  0  0
  144.2917  135.4235  158.6372 H   0  0  0  0  0  0  0  0  0  0  0  0
  145.6075  135.2225  157.4821 H   0  0  0  0  0  0  0  0  0  0  0  0
  143.9313  135.1735  156.9444 H   0  0  0  0  0  0  0  0  0  0  0  0
  143.6642  137.5435  157.6923 H   0  0  0  0  0  0  0  0  0  0  0  0
  145.8480  138.9335  157.8892 H   0  0  0  0  0  0  0  0  0  0  0  0
  147.5468  137.2829  157.3465 H   0  0  0  0  0  0  0  0  0  0  0  0
  146.9714  136.1926  158.6022 H   0  0  0  0  0  0  0  0  0  0  0  0
  147.7280  137.7258  159.0260 H   0  0  0  0  0  0  0  0  0  0  0  0
  143.1957  137.1320  161.1514 H   0  0  0  0  0  0  0  0  0  0  0  0
  143.9492  136.0170  159.9979 H   0  0  0  0  0  0  0  0  0  0  0  0
  142.8795  137.3157  159.4179 H   0  0  0  0  0  0  0  0  0  0  0  0
  145.8479  138.6068  154.4992 H   0  0  0  0  0  0  0  0  0  0  0  0
  146.8884  137.5345  155.4522 H   0  0  0  0  0  0  0  0  0  0  0  0
  146.2515  139.0196  156.1507 H   0  0  0  0  0  0  0  0  0  0  0  0
  141.2601  135.1634  154.8705 H   0  0  0  0  0  0  0  0  0  0  0  0
  146.4721  135.8992  151.1671 H   0  0  0  0  0  0  0  0  0  0  0  0
  143.0094  134.2495  150.7790 H   0  0  0  0  0  0  0  0  0  0  0  0
  144.1353  135.1021  149.7682 H   0  0  0  0  0  0  0  0  0  0  0  0
  144.3252  133.1177  148.2736 H   0  0  0  0  0  0  0  0  0  0  0  0
  144.8139  131.5581  148.8934 H   0  0  0  0  0  0  0  0  0  0  0  0
  142.3923  132.8908  149.4002 H   0  0  0  0  0  0  0  0  0  0  0  0
  146.8882  132.6313  149.6580 H   0  0  0  0  0  0  0  0  0  0  0  0
  146.7646  134.2846  150.3299 H   0  0  0  0  0  0  0  0  0  0  0  0
  144.5214  132.4261  152.4729 H   0  0  0  0  0  0  0  0  0  0  0  0
  145.1062  131.1612  151.3498 H   0  0  0  0  0  0  0  0  0  0  0  0
  1  2  1  0  0  0  0
  1 27  1  0  0  0  0
  1 28  1  0  0  0  0
  1 29  1  0  0  0  0
  2  3  1  0  0  0  0
  2  9  1  0  0  0  0
  2 30  1  0  0  0  0
  3  4  1  0  0  0  0
  3  5  1  0  0  0  0
  3 31  1  0  0  0  0
  4 32  1  0  0  0  0
  4 33  1  0  0  0  0
  4 34  1  0  0  0  0
  5  6  1  0  0  0  0
  5  7  2  0  0  0  0
  5  8  2  0  0  0  0
  6 35  1  0  0  0  0
  6 36  1  0  0  0  0
  6 37  1  0  0  0  0
  9 10  1  0  0  0  0
  9 11  1  0  0  0  0
 10 38  1  0  0  0  0
 10 39  1  0  0  0  0
 10 40  1  0  0  0  0
 11 16  1  0  0  0  0
 11 12  2  0  0  0  0
 12 13  1  0  0  0  0
 13 14  2  0  0  0  0
 13 41  1  0  0  0  0
 14 15  1  0  0  0  0
 15 19  1  0  0  0  0
 15 16  2  0  0  0  0
 16 17  1  0  0  0  0
 17 18  2  0  0  0  0
 18 19  1  0  0  0  0
 18 42  1  0  0  0  0
 19 20  1  0  0  0  0
 20 21  1  0  0  0  0
 20 43  1  0  0  0  0
 20 44  1  0  0  0  0
 21 26  1  0  0  0  0
 21 22  1  0  0  0  0
 21 24  1  0  0  0  0
 22 23  1  0  0  0  0
 22 45  1  0  0  0  0
 22 46  1  0  0  0  0
 23 47  1  0  0  0  0
 24 25  1  0  0  0  0
 24 48  1  0  0  0  0
 24 49  1  0  0  0  0
 25 26  1  0  0  0  0
 26 50  1  0  0  0  0
 26 51  1  0  0  0  0
M  END
> <s_m_source_file>
AV-unprocessed.smi

> <i_m_source_file_index>
156

> <i_lp_mmshare_version>
43012

> <i_f3d_flags>
0

> <s_epik_input>
W0NIM11TKD1PKSg9TylbQ0BASF0oW0NIM10pW0NAQEhdKFtDSDNdKU4oW0NIM10pYyhuW2NIXW4xKWMoYzEyKW5bY0hdbjJbQ0gyXUMzKFtDSDJdW09IXSlbQ0gyXU9bQ0gyXTM=

> <s_epik_cmdline>
J2VwaWtfcHl0aG9uJywgJy1waCcsICc3LjAnLCAnLXRuJywgJzgnLCAnLW1hJywgJzIwMCcsICctbWV0YWxfYmluZGluZycsICctaW1hZScsICc8aW5maWxlLm1hZT4nLCAnLW9tYWUnLCAnPG91dGZpbGUubWFlPic=

> <r_lp_tautomer_probability>
1

> <r_epik_Ionization_Penalty>
0.00107697

> <r_epik_Ionization_Penalty_Charging>
0

> <r_epik_Ionization_Penalty_Neutral>
0.00107697

> <r_epik_State_Penalty>
0.000614712

> <r_epik_Charging_Adjusted_Penalty>
0.000614712

> <i_epik_Tot_Q>
0

> <i_epik_Tot_abs_Q>
0

> <r_epik_Metal_State_Penalty>
-0

> <b_epik_Metal_Only>
0

> <s_lp_Force_Field>
OPLS_2005

> <r_lp_Energy>
29.1467

> <b_lp_Chiralities_Consistent>
1

> <s_lp_Variant>
AV-unprocessed.smi:156-2

> <Gold.Version>
5.8.1

> <Gold.Id.Protein>
6NUR|6NUR_protein|mol2

> <Gold.PLP.Fitness>
38.4015

> <Gold.PLP.PLP>
-26.7023

> <Gold.PLP.part.hbond>
-3.9448

> <Gold.PLP.part.metal>
0.0000

> <Gold.PLP.part.buried>
-6.3329

> <Gold.PLP.part.nonpolar>
-18.2943

> <Gold.PLP.part.repulsive>
0.4577

> <Gold.PLP.ligand.clash>
0.0000

> <Gold.PLP.ligand.torsion>
1.4160

> <Gold.PLP.Chemscore.Hbond>
2.5198

> <Gold.PLP.Chemscore.CHOScore>
1.8898

> <Gold.PLP.Chemscore.Metal>
0.0000

> <Gold.Chemscore.Hbonds>
donor molecule, donor type, donor heavy atom, donor atom, acceptor molecule, acceptor atom, score
      L1  H    23    47       P1 10186  0.93
      P1  H  6934  6947       L1     7  0.90
      P1  H 10785 10796       L1    23  0.63
      L1  C    13    41       P1 11000  1.00
      L1  C    18    42       P1  7948  0.76

> <Gold.PLP.Chemscore.Internal.Correction>
1.3026

> <Gold.Rescore>
     Score         DG    S(hbond)    S(metal)    S(lipo)     H(rot)  DE(clash)    DE(int)     intcor
      6.79      -9.33       1.96        0.00      47.36       3.21       0.17       2.37       ----

> <Gold.Chemscore.Fitness>
6.7879

> <Gold.Chemscore.DG>
-9.3299

> <Gold.Chemscore.ZeroCoef>
-5.4800

> <Gold.Chemscore.Hbond>
1.9553

> <Gold.Chemscore.Metal>
0.0000

> <Gold.Chemscore.Lipo>
47.3574

> <Gold.Chemscore.Internal_Hbond>
0.0000

> <Gold.Chemscore.DEClash>
0.1712

> <Gold.Chemscore.DEInternal>
2.3708

> <Gold.Chemscore.Rot>
3.2115

> <Gold.Chemscore.Internal.Correction>
   9.000000E+99

> <Gold.Chemscore.Hbonds>
donor molecule, donor type, donor heavy atom, donor atom, acceptor molecule, acceptor atom, score
      L1  H    23    47       P1 10186  0.89
      P1  H  6934  6947       L1     7  0.18
      P1  H 10785 10796       L1    23  0.06

> <Gold.Chemscore.Hbond.Weighted>
-6.5306

> <Gold.Chemscore.Metal.Weighted>
-0.0000

> <Gold.Chemscore.Lipo.Weighted>
-5.5408

> <Gold.Chemscore.Internal_Hbond.Weighted>
0.0000

> <Gold.Chemscore.DEClash.Weighted>
0.1712

> <Gold.Chemscore.DEInternal.Weighted>
2.3708

> <Gold.Chemscore.Rot.Weighted>
8.2215

> <Gold.Chemscore.Internal.Correction.Weighted>
   9.000000E+99

> <Gold.Protein.RotatedTorsions>
[ 6907 6896 6895 6894 ] final   29.98 input  -60.11 | X-H torsion
[ 7974 7965 7964 7962 ] final  -90.65 input  175.53 | X-H torsion
[ 8008 7997 7996 7995 ] final -119.82 input   59.86 | X-H torsion
[ 10167 10162 10161 10158 ] final   41.50 input  -65.29 | X-H torsion
[ 10718 10713 10712 10709 ] final -147.92 input   66.30 | X-H torsion
[ 10763 10752 10751 10750 ] final  170.72 input  -60.55 | X-H torsion
[ 11005 11000 10999 10996 ] final  176.73 input  -57.11 | X-H torsion

> <Gold.Protein.ActiveResidues>
 VAL166  LYS551  ARG553  GLY616  TRP617  ASP618  TYR619  PRO620  LYS621  CYS622 
 ASP623  PHE694  ASN695  SER759  ASP760  ASP761  ALA762  ILE779  LEU786  VAL792 
 PHE793  MET794  SER795  GLU796  ALA797  LYS798  CYS799  TRP800  GLU811  SER814 

> <Gold.Protein.RotatedAtoms>
  152.0394  134.9720  160.0573 H   0  0  0  0  0  0  0  0  0  0  0  0  # atno 6907 bound_to 6896
  152.1165  133.4324  159.4663 H   0  0  0  0  0  0  0  0  0  0  0  0  # atno 6908 bound_to 6896
  150.6846  134.2505  159.4552 H   0  0  0  0  0  0  0  0  0  0  0  0  # atno 6909 bound_to 6896
  145.4236  140.9552  143.2167 H   0  0  0  0  0  0  0  0  0  0  0  0  # atno 7974 bound_to 7965
  155.1218  140.0398  157.2752 H   0  0  0  0  0  0  0  0  0  0  0  0  # atno 8008 bound_to 7997
  154.6608  140.2590  155.7085 H   0  0  0  0  0  0  0  0  0  0  0  0  # atno 8009 bound_to 7997
  156.2618  140.2817  156.1079 H   0  0  0  0  0  0  0  0  0  0  0  0  # atno 8010 bound_to 7997
  140.3637  144.2195  150.6136 H   0  0  0  0  0  0  0  0  0  0  0  0  # atno 10167 bound_to 10162
  156.4136  130.7994  151.2213 H   0  0  0  0  0  0  0  0  0  0  0  0  # atno 10718 bound_to 10713
  154.4016  135.2755  155.2093 H   0  0  0  0  0  0  0  0  0  0  0  0  # atno 10763 bound_to 10752
  154.4116  135.6021  153.5960 H   0  0  0  0  0  0  0  0  0  0  0  0  # atno 10764 bound_to 10752
  152.9831  135.5951  154.4285 H   0  0  0  0  0  0  0  0  0  0  0  0  # atno 10765 bound_to 10752
  140.3763  134.6986  157.4423 H   0  0  0  0  0  0  0  0  0  0  0  0  # atno 11005 bound_to 11000
  144.8229  139.5760  143.6978 LP  0  0  0  0  0  0  0  0  0  0  0  0  # atno 17320 bound_to 7965
  146.2644  139.6485  142.9340 LP  0  0  0  0  0  0  0  0  0  0  0  0  # atno 17321 bound_to 7965
  140.5102  143.2293  151.8547 LP  0  0  0  0  0  0  0  0  0  0  0  0  # atno 17342 bound_to 10162
  139.4811  144.4959  151.9125 LP  0  0  0  0  0  0  0  0  0  0  0  0  # atno 17343 bound_to 10162
  157.7507  131.0250  150.3900 LP  0  0  0  0  0  0  0  0  0  0  0  0  # atno 17370 bound_to 10713
  156.4203  130.3951  149.6830 LP  0  0  0  0  0  0  0  0  0  0  0  0  # atno 17371 bound_to 10713
  140.0513  134.6127  155.8859 LP  0  0  0  0  0  0  0  0  0  0  0  0  # atno 17394 bound_to 11000
  141.1938  133.6580  156.5566 LP  0  0  0  0  0  0  0  0  0  0  0  0  # atno 17395 bound_to 11000

$$$$
