AV-unprocessed.smi:258|AV-procd|sdf|1972|dock9
  -GOLD-   2262021133D 1   1.00000     0.00000
 Structure written by MMmdl.
 57 60  0  0  0  0  0  0  0  0  1 V2000
  149.7455  144.6880  159.1166 O   0  0  0  0  0  0  0  0  0  0  0  0
  150.9559  145.2483  159.5798 C   0  0  0  0  0  0  0  0  0  0  0  0
  152.1523  144.4907  158.9900 C   0  0  0  0  0  0  0  0  0  0  0  0
  152.6089  143.5344  159.9362 O   0  0  0  0  0  0  0  0  0  0  0  0
  153.3161  142.4366  159.3732 C   0  0  1  0  0  0  0  0  0  0  0  0
  154.0726  141.6511  160.4637 C   0  0  0  0  0  0  0  0  0  0  0  0
  154.6953  140.3782  159.8710 C   0  0  0  0  0  0  0  0  0  0  0  0
  153.6323  139.5212  159.1661 C   0  0  0  0  0  0  0  0  0  0  0  0
  152.9062  140.3099  158.1694 N   0  0  0  0  0  0  0  0  0  0  0  0
  152.1575  139.6360  157.2599 C   0  0  0  0  0  0  0  0  0  0  0  0
  152.2844  138.2868  157.1397 N   0  0  0  0  0  0  0  0  0  0  0  0
  151.5413  137.6139  156.2559 C   0  0  0  0  0  0  0  0  0  0  0  0
  150.6278  138.0837  155.4044 N   0  0  0  0  0  0  0  0  0  0  0  0
  150.5036  139.4374  155.5129 C   0  0  0  0  0  0  0  0  0  0  0  0
  151.2206  140.2832  156.4054 C   0  0  0  0  0  0  0  0  0  0  0  0
  150.8301  141.6048  156.2192 N   0  0  0  0  0  0  0  0  0  0  0  0
  149.9281  141.5419  155.2775 C   0  0  0  0  0  0  0  0  0  0  0  0
  149.6716  140.2783  154.7970 N   0  0  0  0  0  0  0  0  0  0  0  0
  148.7223  139.9125  153.7629 C   0  0  0  0  0  0  0  0  0  0  0  0
  147.8175  138.7316  154.1983 C   0  0  1  0  0  0  0  0  0  0  0  0
  147.3723  138.8726  155.6730 C   0  0  0  0  0  0  0  0  0  0  0  0
  146.5120  139.9819  155.8268 O   0  0  0  0  0  0  0  0  0  0  0  0
  146.6430  138.5350  153.2056 C   0  0  1  0  0  0  0  0  0  0  0  0
  147.0254  138.4943  151.7255 C   0  0  0  0  0  0  0  0  0  0  0  0
  146.2319  137.3122  151.1648 C   0  0  0  0  0  0  0  0  0  0  0  0
  145.2084  137.0843  152.1207 O   0  0  0  0  0  0  0  0  0  0  0  0
  145.7960  137.2716  153.3968 C   0  0  0  0  0  0  0  0  0  0  0  0
  152.2821  141.5299  158.6811 C   0  0  0  0  0  0  0  0  0  0  0  0
  149.3901  145.2520  158.4468 H   0  0  0  0  0  0  0  0  0  0  0  0
  151.0019  146.3116  159.3419 H   0  0  0  0  0  0  0  0  0  0  0  0
  150.9636  145.1598  160.6664 H   0  0  0  0  0  0  0  0  0  0  0  0
  151.8277  143.9606  158.0936 H   0  0  0  0  0  0  0  0  0  0  0  0
  152.9390  145.1827  158.6881 H   0  0  0  0  0  0  0  0  0  0  0  0
  154.0186  142.7919  158.6166 H   0  0  0  0  0  0  0  0  0  0  0  0
  154.8548  142.2618  160.9137 H   0  0  0  0  0  0  0  0  0  0  0  0
  153.3854  141.3817  161.2667 H   0  0  0  0  0  0  0  0  0  0  0  0
  155.4739  140.6518  159.1578 H   0  0  0  0  0  0  0  0  0  0  0  0
  155.1823  139.7979  160.6553 H   0  0  0  0  0  0  0  0  0  0  0  0
  154.1138  138.6660  158.6896 H   0  0  0  0  0  0  0  0  0  0  0  0
  152.9265  139.1279  159.8993 H   0  0  0  0  0  0  0  0  0  0  0  0
  151.7020  136.5463  156.2269 H   0  0  0  0  0  0  0  0  0  0  0  0
  149.4207  142.4204  154.9064 H   0  0  0  0  0  0  0  0  0  0  0  0
  148.1320  140.7939  153.5087 H   0  0  0  0  0  0  0  0  0  0  0  0
  149.2883  139.6712  152.8623 H   0  0  0  0  0  0  0  0  0  0  0  0
  148.4023  137.8118  154.1327 H   0  0  0  0  0  0  0  0  0  0  0  0
  146.8526  137.9785  156.0178 H   0  0  0  0  0  0  0  0  0  0  0  0
  148.2241  139.0200  156.3355 H   0  0  0  0  0  0  0  0  0  0  0  0
  146.2063  140.2461  154.9723 H   0  0  0  0  0  0  0  0  0  0  0  0
  145.9705  139.3879  153.3159 H   0  0  0  0  0  0  0  0  0  0  0  0
  146.7266  139.4240  151.2395 H   0  0  0  0  0  0  0  0  0  0  0  0
  148.0935  138.3696  151.5492 H   0  0  0  0  0  0  0  0  0  0  0  0
  145.8192  137.5126  150.1758 H   0  0  0  0  0  0  0  0  0  0  0  0
  146.8627  136.4244  151.0981 H   0  0  0  0  0  0  0  0  0  0  0  0
  146.3997  136.3963  153.6361 H   0  0  0  0  0  0  0  0  0  0  0  0
  145.0378  137.3863  154.1718 H   0  0  0  0  0  0  0  0  0  0  0  0
  151.5022  141.2486  159.3902 H   0  0  0  0  0  0  0  0  0  0  0  0
  151.7906  142.0882  157.8847 H   0  0  0  0  0  0  0  0  0  0  0  0
  1  2  1  0  0  0  0
  1 29  1  0  0  0  0
  2  3  1  0  0  0  0
  2 30  1  0  0  0  0
  2 31  1  0  0  0  0
  3  4  1  0  0  0  0
  3 32  1  0  0  0  0
  3 33  1  0  0  0  0
  4  5  1  0  0  0  0
  5 28  1  0  0  0  0
  5  6  1  0  0  0  0
  5 34  1  0  0  0  0
  6  7  1  0  0  0  0
  6 35  1  0  0  0  0
  6 36  1  0  0  0  0
  7  8  1  0  0  0  0
  7 37  1  0  0  0  0
  7 38  1  0  0  0  0
  8  9  1  0  0  0  0
  8 39  1  0  0  0  0
  8 40  1  0  0  0  0
  9 10  1  0  0  0  0
  9 28  1  0  0  0  0
 10 15  1  0  0  0  0
 10 11  2  0  0  0  0
 11 12  1  0  0  0  0
 12 13  2  0  0  0  0
 12 41  1  0  0  0  0
 13 14  1  0  0  0  0
 14 18  1  0  0  0  0
 14 15  2  0  0  0  0
 15 16  1  0  0  0  0
 16 17  2  0  0  0  0
 17 18  1  0  0  0  0
 17 42  1  0  0  0  0
 18 19  1  0  0  0  0
 19 20  1  0  0  0  0
 19 43  1  0  0  0  0
 19 44  1  0  0  0  0
 20 21  1  0  0  0  0
 20 23  1  0  0  0  0
 20 45  1  0  0  0  0
 21 22  1  0  0  0  0
 21 46  1  0  0  0  0
 21 47  1  0  0  0  0
 22 48  1  0  0  0  0
 23 27  1  0  0  0  0
 23 24  1  0  0  0  0
 23 49  1  0  0  0  0
 24 25  1  0  0  0  0
 24 50  1  0  0  0  0
 24 51  1  0  0  0  0
 25 26  1  0  0  0  0
 25 52  1  0  0  0  0
 25 53  1  0  0  0  0
 26 27  1  0  0  0  0
 27 54  1  0  0  0  0
 27 55  1  0  0  0  0
 28 56  1  0  0  0  0
 28 57  1  0  0  0  0
M  END
> <s_m_source_file>
AV-unprocessed.smi

> <i_m_source_file_index>
258

> <i_lp_mmshare_version>
43012

> <i_f3d_flags>
0

> <s_epik_input>
W09IXVtDSDJdW0NIMl1PW0NAQEhdMVtDSDJdW0NIMl1bQ0gyXU4oW0NIMl0xKWMobltjSF1uMiljKGMyMyluW2NIXW4zW0NIMl1bQ0BIXShbQ0gyXVtPSF0pW0NAQEhdNFtDSDJdW0NIMl1PW0NIMl00

> <s_epik_cmdline>
J2VwaWtfcHl0aG9uJywgJy1waCcsICc3LjAnLCAnLXRuJywgJzgnLCAnLW1hJywgJzIwMCcsICctbWV0YWxfYmluZGluZycsICctaW1hZScsICc8aW5maWxlLm1hZT4nLCAnLW9tYWUnLCAnPG91dGZpbGUubWFlPic=

> <r_lp_tautomer_probability>
1

> <r_epik_Ionization_Penalty>
0.00349036

> <r_epik_Ionization_Penalty_Charging>
0

> <r_epik_Ionization_Penalty_Neutral>
0.00349036

> <r_epik_State_Penalty>
0.00229798

> <r_epik_Charging_Adjusted_Penalty>
0.00229798

> <i_epik_Tot_Q>
0

> <i_epik_Tot_abs_Q>
0

> <r_epik_Metal_State_Penalty>
-0

> <b_epik_Metal_Only>
0

> <s_lp_Force_Field>
OPLS_2005

> <r_lp_Energy>
51.0481

> <b_lp_Chiralities_Consistent>
1

> <s_lp_Variant>
AV-unprocessed.smi:258-8

> <Gold.Version>
5.8.1

> <Gold.Id.Protein>
6NUR|6NUR_protein|mol2

> <Gold.PLP.Fitness>
47.6932

> <Gold.PLP.PLP>
-43.2346

> <Gold.PLP.part.hbond>
-2.0000

> <Gold.PLP.part.metal>
0.0000

> <Gold.PLP.part.buried>
0.1762

> <Gold.PLP.part.nonpolar>
-43.1739

> <Gold.PLP.part.repulsive>
1.3508

> <Gold.PLP.ligand.clash>
0.0000

> <Gold.PLP.ligand.torsion>
1.2818

> <Gold.PLP.Chemscore.Hbond>
1.1411

> <Gold.PLP.Chemscore.CHOScore>
1.0000

> <Gold.PLP.Chemscore.Metal>
0.0000

> <Gold.Chemscore.Hbonds>
donor molecule, donor type, donor heavy atom, donor atom, acceptor molecule, acceptor atom, score
      L1  H     1    29       P1  8029  1.00
      P1  H  7997  8008       L1     9  0.14
      L1  C    17    42       P1  8028  1.00

> <Gold.PLP.Chemscore.Internal.Correction>
0.5989

> <Gold.Rescore>
     Score         DG    S(hbond)    S(metal)    S(lipo)     H(rot)  DE(clash)    DE(int)     intcor
      7.11     -10.39       0.98        0.00     106.41       4.22       1.01       2.27       ----

> <Gold.Chemscore.Fitness>
7.1061

> <Gold.Chemscore.DG>
-10.3929

> <Gold.Chemscore.ZeroCoef>
-5.4800

> <Gold.Chemscore.Hbond>
0.9815

> <Gold.Chemscore.Metal>
0.0000

> <Gold.Chemscore.Lipo>
106.4051

> <Gold.Chemscore.Internal_Hbond>
0.0000

> <Gold.Chemscore.DEClash>
1.0128

> <Gold.Chemscore.DEInternal>
2.2739

> <Gold.Chemscore.Rot>
4.2246

> <Gold.Chemscore.Internal.Correction>
   9.000000E+99

> <Gold.Chemscore.Hbonds>
donor molecule, donor type, donor heavy atom, donor atom, acceptor molecule, acceptor atom, score
      L1  H     1    29       P1  8029  0.73

> <Gold.Chemscore.Hbond.Weighted>
-3.2783

> <Gold.Chemscore.Metal.Weighted>
-0.0000

> <Gold.Chemscore.Lipo.Weighted>
-12.4494

> <Gold.Chemscore.Internal_Hbond.Weighted>
0.0000

> <Gold.Chemscore.DEClash.Weighted>
1.0128

> <Gold.Chemscore.DEInternal.Weighted>
2.2739

> <Gold.Chemscore.Rot.Weighted>
10.8149

> <Gold.Chemscore.Internal.Correction.Weighted>
   9.000000E+99

> <Gold.Protein.RotatedTorsions>
[ 6907 6896 6895 6894 ] final   78.53 input  -60.11 | X-H torsion
[ 7974 7965 7964 7962 ] final  161.25 input  175.53 | X-H torsion
[ 8008 7997 7996 7995 ] final  -78.93 input   59.86 | X-H torsion
[ 10167 10162 10161 10158 ] final -135.41 input  -65.29 | X-H torsion
[ 10718 10713 10712 10709 ] final    7.97 input   66.30 | X-H torsion
[ 10763 10752 10751 10750 ] final   98.83 input  -60.55 | X-H torsion
[ 11005 11000 10999 10996 ] final  -86.43 input  -57.11 | X-H torsion

> <Gold.Protein.ActiveResidues>
 VAL166  LYS551  ARG553  GLY616  TRP617  ASP618  TYR619  PRO620  LYS621  CYS622 
 ASP623  PHE694  ASN695  SER759  ASP760  ASP761  ALA762  ILE779  LEU786  VAL792 
 PHE793  MET794  SER795  GLU796  ALA797  LYS798  CYS799  TRP800  GLU811  SER814 

> <Gold.Protein.RotatedAtoms>
  152.5163  134.3651  159.9298 H   0  0  0  0  0  0  0  0  0  0  0  0  # atno 6907 bound_to 6896
  151.3604  133.3885  159.2697 H   0  0  0  0  0  0  0  0  0  0  0  0  # atno 6908 bound_to 6896
  150.9656  134.9057  159.7815 H   0  0  0  0  0  0  0  0  0  0  0  0  # atno 6909 bound_to 6896
  144.7695  139.7872  143.6302 H   0  0  0  0  0  0  0  0  0  0  0  0  # atno 7974 bound_to 7965
  154.5737  140.0686  156.9002 H   0  0  0  0  0  0  0  0  0  0  0  0  # atno 8008 bound_to 7997
  155.2588  140.3357  155.4257 H   0  0  0  0  0  0  0  0  0  0  0  0  # atno 8009 bound_to 7997
  156.2137  140.1770  156.7622 H   0  0  0  0  0  0  0  0  0  0  0  0  # atno 8010 bound_to 7997
  139.8782  143.6872  152.2631 H   0  0  0  0  0  0  0  0  0  0  0  0  # atno 10167 bound_to 10162
  156.9447  130.5874  149.5654 H   0  0  0  0  0  0  0  0  0  0  0  0  # atno 10718 bound_to 10713
  153.2939  135.4134  155.1192 H   0  0  0  0  0  0  0  0  0  0  0  0  # atno 10763 bound_to 10752
  154.8529  135.3525  154.5943 H   0  0  0  0  0  0  0  0  0  0  0  0  # atno 10764 bound_to 10752
  153.6366  135.7058  153.5314 H   0  0  0  0  0  0  0  0  0  0  0  0  # atno 10765 bound_to 10752
  141.1630  133.7454  156.9161 H   0  0  0  0  0  0  0  0  0  0  0  0  # atno 11005 bound_to 11000
  146.1830  139.5032  142.9854 LP  0  0  0  0  0  0  0  0  0  0  0  0  # atno 17320 bound_to 7965
  145.6367  141.0293  143.1834 LP  0  0  0  0  0  0  0  0  0  0  0  0  # atno 17321 bound_to 7965
  139.7221  144.7600  151.0939 LP  0  0  0  0  0  0  0  0  0  0  0  0  # atno 17342 bound_to 10162
  140.7749  143.5195  150.9554 LP  0  0  0  0  0  0  0  0  0  0  0  0  # atno 17343 bound_to 10162
  156.0389  130.5473  150.8722 LP  0  0  0  0  0  0  0  0  0  0  0  0  # atno 17370 bound_to 10713
  157.5762  131.0946  150.9343 LP  0  0  0  0  0  0  0  0  0  0  0  0  # atno 17371 bound_to 10713
  140.1484  134.9247  157.2560 LP  0  0  0  0  0  0  0  0  0  0  0  0  # atno 17394 bound_to 11000
  140.2753  134.3413  155.7360 LP  0  0  0  0  0  0  0  0  0  0  0  0  # atno 17395 bound_to 11000

$$$$
