AV-unprocessed.smi:2098|AV-procd|sdf|8566|dock5
  -GOLD-   2272011293D 1   1.00000     0.00000
 Structure written by MMmdl.
 36 38  0  0  0  0  0  0  0  0  1 V2000
  149.9110  138.1151  157.1802 O   0  0  0  0  0  0  0  0  0  0  0  0
  149.6594  138.3945  158.5437 C   0  0  1  0  0  0  0  0  0  0  0  0
  149.5075  137.0609  159.2923 C   0  0  0  0  0  0  0  0  0  0  0  0
  148.7819  137.2854  160.4940 O   0  0  0  0  0  0  0  0  0  0  0  0
  148.0099  136.2575  160.9918 C   0  0  0  0  0  0  0  0  0  0  0  0
  147.3016  136.5097  162.1852 C   0  0  0  0  0  0  0  0  0  0  0  0
  146.4857  135.5180  162.7631 C   0  0  0  0  0  0  0  0  0  0  0  0
  146.3698  134.2575  162.1492 C   0  0  0  0  0  0  0  0  0  0  0  0
  145.5837  133.3033  162.7018 F   0  0  0  0  0  0  0  0  0  0  0  0
  147.0723  133.9907  160.9597 C   0  0  0  0  0  0  0  0  0  0  0  0
  147.8892  134.9823  160.3823 C   0  0  0  0  0  0  0  0  0  0  0  0
  150.8206  139.2366  159.1070 C   0  0  0  0  0  0  0  0  0  0  0  0
  150.8115  140.6034  158.6153 N   0  0  0  0  0  0  0  0  0  0  0  0
  150.1091  141.0831  157.5710 C   0  0  0  0  0  0  0  0  0  0  0  0
  150.2406  142.3764  157.2898 N   0  0  0  0  0  0  0  0  0  0  0  0
  151.1328  142.7849  158.2664 C   0  0  0  0  0  0  0  0  0  0  0  0
  151.6875  144.0587  158.5265 C   0  0  0  0  0  0  0  0  0  0  0  0
  152.5911  144.2401  159.5941 C   0  0  0  0  0  0  0  0  0  0  0  0
  152.9540  143.1533  160.4161 C   0  0  0  0  0  0  0  0  0  0  0  0
  152.4138  141.8752  160.1770 C   0  0  0  0  0  0  0  0  0  0  0  0
  151.5111  141.6984  159.1118 C   0  0  0  0  0  0  0  0  0  0  0  0
  149.7542  137.1951  157.0304 H   0  0  0  0  0  0  0  0  0  0  0  0
  148.7347  138.9680  158.6226 H   0  0  0  0  0  0  0  0  0  0  0  0
  149.0210  136.3177  158.6578 H   0  0  0  0  0  0  0  0  0  0  0  0
  150.4952  136.6789  159.5564 H   0  0  0  0  0  0  0  0  0  0  0  0
  147.3843  137.4750  162.6630 H   0  0  0  0  0  0  0  0  0  0  0  0
  145.9487  135.7255  163.6768 H   0  0  0  0  0  0  0  0  0  0  0  0
  146.9849  133.0231  160.4878 H   0  0  0  0  0  0  0  0  0  0  0  0
  148.4126  134.7386  159.4704 H   0  0  0  0  0  0  0  0  0  0  0  0
  150.7678  139.2691  160.1960 H   0  0  0  0  0  0  0  0  0  0  0  0
  151.7794  138.7803  158.8571 H   0  0  0  0  0  0  0  0  0  0  0  0
  149.4638  140.4462  156.9839 H   0  0  0  0  0  0  0  0  0  0  0  0
  151.4166  144.8978  157.9032 H   0  0  0  0  0  0  0  0  0  0  0  0
  153.0083  145.2183  159.7835 H   0  0  0  0  0  0  0  0  0  0  0  0
  153.6474  143.3019  161.2309 H   0  0  0  0  0  0  0  0  0  0  0  0
  152.6915  141.0404  160.8032 H   0  0  0  0  0  0  0  0  0  0  0  0
  1  2  1  0  0  0  0
  1 22  1  0  0  0  0
  2  3  1  0  0  0  0
  2 12  1  0  0  0  0
  2 23  1  0  0  0  0
  3  4  1  0  0  0  0
  3 24  1  0  0  0  0
  3 25  1  0  0  0  0
  4  5  1  0  0  0  0
  5 11  1  0  0  0  0
  5  6  2  0  0  0  0
  6  7  1  0  0  0  0
  6 26  1  0  0  0  0
  7  8  2  0  0  0  0
  7 27  1  0  0  0  0
  8  9  1  0  0  0  0
  8 10  1  0  0  0  0
 10 11  2  0  0  0  0
 10 28  1  0  0  0  0
 11 29  1  0  0  0  0
 12 13  1  0  0  0  0
 12 30  1  0  0  0  0
 12 31  1  0  0  0  0
 13 21  1  0  0  0  0
 13 14  1  0  0  0  0
 14 15  2  0  0  0  0
 14 32  1  0  0  0  0
 15 16  1  0  0  0  0
 16 21  2  0  0  0  0
 16 17  1  0  0  0  0
 17 18  2  0  0  0  0
 17 33  1  0  0  0  0
 18 19  1  0  0  0  0
 18 34  1  0  0  0  0
 19 20  2  0  0  0  0
 19 35  1  0  0  0  0
 20 21  1  0  0  0  0
 20 36  1  0  0  0  0
M  END
> <s_m_source_file>
AV-unprocessed.smi

> <i_m_source_file_index>
2098

> <i_lp_mmshare_version>
43012

> <i_f3d_flags>
0

> <s_epik_input>
W2NIXTFbY0hdW2NIXVtjSF1jKGMxMiluKFtjSF1uMilbQ0gyXVtDQEhdKFtPSF0pW0NIMl1PYzNbY0hdW2NIXWMoRilbY0hdW2NIXTM=

> <s_epik_cmdline>
J2VwaWtfcHl0aG9uJywgJy1waCcsICc3LjAnLCAnLXRuJywgJzgnLCAnLW1hJywgJzIwMCcsICctbWV0YWxfYmluZGluZycsICctaW1hZScsICc8aW5maWxlLm1hZT4nLCAnLW9tYWUnLCAnPG91dGZpbGUubWFlPic=

> <r_lp_tautomer_probability>
1

> <r_epik_Ionization_Penalty>
0.0603575

> <r_epik_Ionization_Penalty_Charging>
0

> <r_epik_Ionization_Penalty_Neutral>
0.0603575

> <r_epik_State_Penalty>
0.0523204

> <r_epik_Charging_Adjusted_Penalty>
0.0523204

> <i_epik_Tot_Q>
0

> <i_epik_Tot_abs_Q>
0

> <r_epik_Metal_State_Penalty>
5.46976e-05

> <b_epik_Metal_Only>
0

> <s_lp_Force_Field>
OPLS_2005

> <r_lp_Energy>
15.3663

> <b_lp_Chiralities_Consistent>
1

> <s_lp_Variant>
AV-unprocessed.smi:2098-2

> <Gold.Version>
5.8.1

> <Gold.Id.Protein>
6NUR|6NUR_protein|mol2

> <Gold.PLP.Fitness>
46.9728

> <Gold.PLP.PLP>
-46.7401

> <Gold.PLP.part.hbond>
-1.4164

> <Gold.PLP.part.metal>
0.0000

> <Gold.PLP.part.buried>
-6.1283

> <Gold.PLP.part.nonpolar>
-40.4588

> <Gold.PLP.part.repulsive>
0.1100

> <Gold.PLP.ligand.clash>
0.0000

> <Gold.PLP.ligand.torsion>
0.6546

> <Gold.PLP.Chemscore.Hbond>
0.5040

> <Gold.PLP.Chemscore.CHOScore>
0.0000

> <Gold.PLP.Chemscore.Metal>
0.0000

> <Gold.Chemscore.Hbonds>
donor molecule, donor type, donor heavy atom, donor atom, acceptor molecule, acceptor atom, score
      P1  H  6931  6943       L1     4  0.62
      P1  H  6934  6947       L1     4  0.04

> <Gold.PLP.Chemscore.Internal.Correction>
0.0301

> <Gold.Rescore>
     Score         DG    S(hbond)    S(metal)    S(lipo)     H(rot)  DE(clash)    DE(int)     intcor
     14.85     -15.42       0.56        0.00     120.98       2.37       0.03       0.53       ----

> <Gold.Chemscore.Fitness>
14.8518

> <Gold.Chemscore.DG>
-15.4179

> <Gold.Chemscore.ZeroCoef>
-5.4800

> <Gold.Chemscore.Hbond>
0.5569

> <Gold.Chemscore.Metal>
0.0000

> <Gold.Chemscore.Lipo>
120.9764

> <Gold.Chemscore.Internal_Hbond>
0.0000

> <Gold.Chemscore.DEClash>
0.0346

> <Gold.Chemscore.DEInternal>
0.5315

> <Gold.Chemscore.Rot>
2.3735

> <Gold.Chemscore.Internal.Correction>
   9.000000E+99

> <Gold.Chemscore.Hbonds>
donor molecule, donor type, donor heavy atom, donor atom, acceptor molecule, acceptor atom, score
      P1  H  6931  6943       L1     4  0.25
      P1  H  6934  6947       L1     4  0.01

> <Gold.Chemscore.Hbond.Weighted>
-1.8599

> <Gold.Chemscore.Metal.Weighted>
-0.0000

> <Gold.Chemscore.Lipo.Weighted>
-14.1542

> <Gold.Chemscore.Internal_Hbond.Weighted>
0.0000

> <Gold.Chemscore.DEClash.Weighted>
0.0346

> <Gold.Chemscore.DEInternal.Weighted>
0.5315

> <Gold.Chemscore.Rot.Weighted>
6.0762

> <Gold.Chemscore.Internal.Correction.Weighted>
   9.000000E+99

> <Gold.Protein.RotatedTorsions>
[ 6907 6896 6895 6894 ] final  118.15 input  -60.11 | X-H torsion
[ 7974 7965 7964 7962 ] final   87.45 input  175.53 | X-H torsion
[ 8008 7997 7996 7995 ] final -111.51 input   59.86 | X-H torsion
[ 10167 10162 10161 10158 ] final  -60.12 input  -65.29 | X-H torsion
[ 10718 10713 10712 10709 ] final  -25.56 input   66.30 | X-H torsion
[ 10763 10752 10751 10750 ] final  -31.42 input  -60.55 | X-H torsion
[ 11005 11000 10999 10996 ] final   76.33 input  -57.11 | X-H torsion

> <Gold.Protein.ActiveResidues>
 VAL166  LYS551  ARG553  GLY616  TRP617  ASP618  TYR619  PRO620  LYS621  CYS622 
 ASP623  PHE694  ASN695  SER759  ASP760  ASP761  ALA762  ILE779  LEU786  VAL792 
 PHE793  MET794  SER795  GLU796  ALA797  LYS798  CYS799  TRP800  GLU811  SER814 

> <Gold.Protein.RotatedAtoms>
  152.4563  133.7729  159.6808 H   0  0  0  0  0  0  0  0  0  0  0  0  # atno 6907 bound_to 6896
  150.8490  133.7806  159.3038 H   0  0  0  0  0  0  0  0  0  0  0  0  # atno 6908 bound_to 6896
  151.5408  135.1071  159.9977 H   0  0  0  0  0  0  0  0  0  0  0  0  # atno 6909 bound_to 6896
  145.5589  139.2302  143.2471 H   0  0  0  0  0  0  0  0  0  0  0  0  # atno 7974 bound_to 7965
  154.9910  140.0395  157.2319 H   0  0  0  0  0  0  0  0  0  0  0  0  # atno 8008 bound_to 7997
  154.7629  140.2787  155.6177 H   0  0  0  0  0  0  0  0  0  0  0  0  # atno 8009 bound_to 7997
  156.2907  140.2625  156.2412 H   0  0  0  0  0  0  0  0  0  0  0  0  # atno 8010 bound_to 7997
  140.6091  143.2382  151.5751 H   0  0  0  0  0  0  0  0  0  0  0  0  # atno 10167 bound_to 10162
  156.4627  130.4507  149.6918 H   0  0  0  0  0  0  0  0  0  0  0  0  # atno 10718 bound_to 10713
  153.7970  135.6893  153.4862 H   0  0  0  0  0  0  0  0  0  0  0  0  # atno 10763 bound_to 10752
  153.1713  135.4541  154.9904 H   0  0  0  0  0  0  0  0  0  0  0  0  # atno 10764 bound_to 10752
  154.8022  135.3342  154.7462 H   0  0  0  0  0  0  0  0  0  0  0  0  # atno 10765 bound_to 10752
  139.9303  134.7591  156.1382 H   0  0  0  0  0  0  0  0  0  0  0  0  # atno 11005 bound_to 11000
  146.1865  140.6413  142.9165 LP  0  0  0  0  0  0  0  0  0  0  0  0  # atno 17320 bound_to 7965
  144.7493  140.5149  143.6813 LP  0  0  0  0  0  0  0  0  0  0  0  0  # atno 17321 bound_to 7965
  139.5347  144.2813  152.1226 LP  0  0  0  0  0  0  0  0  0  0  0  0  # atno 17342 bound_to 10162
  140.2009  144.4659  150.6432 LP  0  0  0  0  0  0  0  0  0  0  0  0  # atno 17343 bound_to 10162
  156.3699  130.7525  151.2507 LP  0  0  0  0  0  0  0  0  0  0  0  0  # atno 17370 bound_to 10713
  157.7497  131.0326  150.4233 LP  0  0  0  0  0  0  0  0  0  0  0  0  # atno 17371 bound_to 10713
  141.0888  133.6723  156.2494 LP  0  0  0  0  0  0  0  0  0  0  0  0  # atno 17394 bound_to 11000
  140.6220  134.5352  157.5549 LP  0  0  0  0  0  0  0  0  0  0  0  0  # atno 17395 bound_to 11000

$$$$
