AV-unprocessed.smi:3155|AV-procd|sdf|12028|dock2
  -GOLD-   2272017443D 1   1.00000     0.00000
 Structure written by MMmdl.
 37 38  0  0  0  0  0  0  0  0  1 V2000
  153.3002  138.7015  154.5389 C   0  0  0  0  0  0  0  0  0  0  0  0
  152.0761  139.5069  154.9978 C   0  0  1  0  0  0  0  0  0  0  0  0
  150.7690  138.7797  154.6030 C   0  0  0  0  0  0  0  0  0  0  0  0
  149.6354  139.6704  154.4256 N   0  0  0  0  0  0  0  0  0  0  0  0
  148.3303  139.3468  154.1172 C   0  0  0  0  0  0  0  0  0  0  0  0
  147.6226  140.5133  154.0672 C   0  0  0  0  0  0  0  0  0  0  0  0
  148.5899  141.5088  154.3786 C   0  0  0  0  0  0  0  0  0  0  0  0
  149.7907  141.0003  154.6020 N   0  0  0  0  0  0  0  0  0  0  0  0
  152.1884  139.6564  156.4467 N   0  0  0  0  0  0  0  0  0  0  0  0
  151.7526  140.9772  156.9185 C   0  0  0  0  0  0  0  0  0  0  0  0
  152.0873  141.1849  158.3994 C   0  0  0  0  0  0  0  0  0  0  0  0
  152.4378  140.2112  159.0664 O   0  0  0  0  0  0  0  0  0  0  0  0
  151.9914  142.4236  158.9280 N   0  0  0  0  0  0  0  0  0  0  0  0
  151.5611  143.6289  158.2207 C   0  0  0  0  0  0  0  0  0  0  0  0
  151.3737  144.6973  159.2973 C   0  0  0  0  0  0  0  0  0  0  0  0
  152.2980  144.2565  160.4234 C   0  0  0  0  0  0  0  0  0  0  0  0
  152.3092  142.7310  160.3212 C   0  0  0  0  0  0  0  0  0  0  0  0
  153.3000  138.5740  153.4560 H   0  0  0  0  0  0  0  0  0  0  0  0
  153.3172  137.7077  154.9884 H   0  0  0  0  0  0  0  0  0  0  0  0
  154.2297  139.2055  154.8063 H   0  0  0  0  0  0  0  0  0  0  0  0
  152.1308  140.4803  154.5077 H   0  0  0  0  0  0  0  0  0  0  0  0
  150.9115  138.2576  153.6561 H   0  0  0  0  0  0  0  0  0  0  0  0
  150.5199  138.0129  155.3392 H   0  0  0  0  0  0  0  0  0  0  0  0
  148.0194  138.3253  153.9546 H   0  0  0  0  0  0  0  0  0  0  0  0
  146.5730  140.6368  153.8454 H   0  0  0  0  0  0  0  0  0  0  0  0
  148.4561  142.5782  154.4512 H   0  0  0  0  0  0  0  0  0  0  0  0
  153.1492  139.4898  156.7108 H   0  0  0  0  0  0  0  0  0  0  0  0
  152.2548  141.7518  156.3371 H   0  0  0  0  0  0  0  0  0  0  0  0
  150.6850  141.1174  156.7619 H   0  0  0  0  0  0  0  0  0  0  0  0
  152.3412  143.9289  157.5196 H   0  0  0  0  0  0  0  0  0  0  0  0
  150.6374  143.4745  157.6620 H   0  0  0  0  0  0  0  0  0  0  0  0
  151.5919  145.7031  158.9371 H   0  0  0  0  0  0  0  0  0  0  0  0
  150.3406  144.6847  159.6476 H   0  0  0  0  0  0  0  0  0  0  0  0
  153.3017  144.6430  160.2423 H   0  0  0  0  0  0  0  0  0  0  0  0
  151.9737  144.6130  161.4015 H   0  0  0  0  0  0  0  0  0  0  0  0
  151.5416  142.2981  160.9641 H   0  0  0  0  0  0  0  0  0  0  0  0
  153.2748  142.3213  160.6220 H   0  0  0  0  0  0  0  0  0  0  0  0
  1  2  1  0  0  0  0
  1 18  1  0  0  0  0
  1 19  1  0  0  0  0
  1 20  1  0  0  0  0
  2  3  1  0  0  0  0
  2  9  1  0  0  0  0
  2 21  1  0  0  0  0
  3  4  1  0  0  0  0
  3 22  1  0  0  0  0
  3 23  1  0  0  0  0
  4  8  1  0  0  0  0
  4  5  1  0  0  0  0
  5  6  2  0  0  0  0
  5 24  1  0  0  0  0
  6  7  1  0  0  0  0
  6 25  1  0  0  0  0
  7  8  2  0  0  0  0
  7 26  1  0  0  0  0
  9 10  1  0  0  0  0
  9 27  1  0  0  0  0
 10 11  1  0  0  0  0
 10 28  1  0  0  0  0
 10 29  1  0  0  0  0
 11 12  2  0  0  0  0
 11 13  1  0  0  0  0
 13 17  1  0  0  0  0
 13 14  1  0  0  0  0
 14 15  1  0  0  0  0
 14 30  1  0  0  0  0
 14 31  1  0  0  0  0
 15 16  1  0  0  0  0
 15 32  1  0  0  0  0
 15 33  1  0  0  0  0
 16 17  1  0  0  0  0
 16 34  1  0  0  0  0
 16 35  1  0  0  0  0
 17 36  1  0  0  0  0
 17 37  1  0  0  0  0
M  END
> <s_m_source_file>
AV-unprocessed.smi

> <i_m_source_file_index>
3155

> <i_lp_mmshare_version>
43012

> <i_f3d_flags>
0

> <s_epik_input>
bjFbY0hdW2NIXVtjSF1uMVtDSDJdW0NAQEhdKFtDSDNdKVtOSF1bQ0gyXUMoPU8pTjJbQ0gyXVtDSDJdW0NIMl1bQ0gyXTI=

> <s_epik_cmdline>
J2VwaWtfcHl0aG9uJywgJy1waCcsICc3LjAnLCAnLXRuJywgJzgnLCAnLW1hJywgJzIwMCcsICctbWV0YWxfYmluZGluZycsICctaW1hZScsICc8aW5maWxlLm1hZT4nLCAnLW9tYWUnLCAnPG91dGZpbGUubWFlPic=

> <r_lp_tautomer_probability>
1

> <r_epik_Ionization_Penalty>
1.00455

> <r_epik_Ionization_Penalty_Charging>
0

> <r_epik_Ionization_Penalty_Neutral>
1.00455

> <r_epik_State_Penalty>
1.05336

> <r_epik_Charging_Adjusted_Penalty>
1.05336

> <i_epik_Tot_Q>
0

> <i_epik_Tot_abs_Q>
0

> <r_epik_Metal_State_Penalty>
1.05331

> <b_epik_Metal_Only>
0

> <s_lp_Force_Field>
OPLS_2005

> <r_lp_Energy>
30.9369

> <b_lp_Chiralities_Consistent>
1

> <s_lp_Variant>
AV-unprocessed.smi:3155-4

> <Gold.Version>
5.8.1

> <Gold.Id.Protein>
6NUR|6NUR_protein|mol2

> <Gold.PLP.Fitness>
42.6886

> <Gold.PLP.PLP>
-40.0854

> <Gold.PLP.part.hbond>
-1.2005

> <Gold.PLP.part.metal>
0.0000

> <Gold.PLP.part.buried>
-2.9716

> <Gold.PLP.part.nonpolar>
-35.4530

> <Gold.PLP.part.repulsive>
0.1281

> <Gold.PLP.ligand.clash>
0.0000

> <Gold.PLP.ligand.torsion>
1.0085

> <Gold.PLP.Chemscore.Hbond>
0.5120

> <Gold.PLP.Chemscore.CHOScore>
1.0000

> <Gold.PLP.Chemscore.Metal>
0.0000

> <Gold.Chemscore.Hbonds>
donor molecule, donor type, donor heavy atom, donor atom, acceptor molecule, acceptor atom, score
      P1  H  7989  7998       L1     8  0.20
      L1  C     7    26       P1  8028  1.00

> <Gold.PLP.Chemscore.Internal.Correction>
0.0842

> <Gold.Rescore>
     Score         DG    S(hbond)    S(metal)    S(lipo)     H(rot)  DE(clash)    DE(int)     intcor
     13.12     -14.42       0.59        0.00      98.30       1.77       0.28       1.03       ----

> <Gold.Chemscore.Fitness>
13.1211

> <Gold.Chemscore.DG>
-14.4240

> <Gold.Chemscore.ZeroCoef>
-5.4800

> <Gold.Chemscore.Hbond>
0.5906

> <Gold.Chemscore.Metal>
0.0000

> <Gold.Chemscore.Lipo>
98.2958

> <Gold.Chemscore.Internal_Hbond>
0.0000

> <Gold.Chemscore.DEClash>
0.2754

> <Gold.Chemscore.DEInternal>
1.0275

> <Gold.Chemscore.Rot>
1.7693

> <Gold.Chemscore.Internal.Correction>
   9.000000E+99

> <Gold.Chemscore.Hbonds>
donor molecule, donor type, donor heavy atom, donor atom, acceptor molecule, acceptor atom, score
      P1  H  7989  7998       L1     8  0.01

> <Gold.Chemscore.Hbond.Weighted>
-1.9727

> <Gold.Chemscore.Metal.Weighted>
-0.0000

> <Gold.Chemscore.Lipo.Weighted>
-11.5006

> <Gold.Chemscore.Internal_Hbond.Weighted>
0.0000

> <Gold.Chemscore.DEClash.Weighted>
0.2754

> <Gold.Chemscore.DEInternal.Weighted>
1.0275

> <Gold.Chemscore.Rot.Weighted>
4.5294

> <Gold.Chemscore.Internal.Correction.Weighted>
   9.000000E+99

> <Gold.Protein.RotatedTorsions>
[ 6907 6896 6895 6894 ] final  -59.20 input  -60.11 | X-H torsion
[ 7974 7965 7964 7962 ] final -122.11 input  175.53 | X-H torsion
[ 8008 7997 7996 7995 ] final  156.12 input   59.86 | X-H torsion
[ 10167 10162 10161 10158 ] final  -40.57 input  -65.29 | X-H torsion
[ 10718 10713 10712 10709 ] final   89.56 input   66.30 | X-H torsion
[ 10763 10752 10751 10750 ] final  -72.68 input  -60.55 | X-H torsion
[ 11005 11000 10999 10996 ] final  118.42 input  -57.11 | X-H torsion

> <Gold.Protein.ActiveResidues>
 VAL166  LYS551  ARG553  GLY616  TRP617  ASP618  TYR619  PRO620  LYS621  CYS622 
 ASP623  PHE694  ASN695  SER759  ASP760  ASP761  ALA762  ILE779  LEU786  VAL792 
 PHE793  MET794  SER795  GLU796  ALA797  LYS798  CYS799  TRP800  GLU811  SER814 

> <Gold.Protein.RotatedAtoms>
  150.7949  134.7000  159.6544 H   0  0  0  0  0  0  0  0  0  0  0  0  # atno 6907 bound_to 6896
  152.4059  134.6204  160.0059 H   0  0  0  0  0  0  0  0  0  0  0  0  # atno 6908 bound_to 6896
  151.6461  133.3286  159.3177 H   0  0  0  0  0  0  0  0  0  0  0  0  # atno 6909 bound_to 6896
  145.0330  140.8083  143.4312 H   0  0  0  0  0  0  0  0  0  0  0  0  # atno 7974 bound_to 7965
  156.2440  140.1921  156.6907 H   0  0  0  0  0  0  0  0  0  0  0  0  # atno 8008 bound_to 7997
  154.6254  140.0603  156.9693 H   0  0  0  0  0  0  0  0  0  0  0  0  # atno 8009 bound_to 7997
  155.1796  140.3275  155.4380 H   0  0  0  0  0  0  0  0  0  0  0  0  # atno 8010 bound_to 7997
  140.7030  143.3145  151.2943 H   0  0  0  0  0  0  0  0  0  0  0  0  # atno 10167 bound_to 10162
  157.6956  131.0338  150.3445 H   0  0  0  0  0  0  0  0  0  0  0  0  # atno 10718 bound_to 10713
  154.4490  135.5922  153.6179 H   0  0  0  0  0  0  0  0  0  0  0  0  # atno 10763 bound_to 10752
  152.9812  135.6016  154.3628 H   0  0  0  0  0  0  0  0  0  0  0  0  # atno 10764 bound_to 10752
  154.3487  135.2841  155.2363 H   0  0  0  0  0  0  0  0  0  0  0  0  # atno 10765 bound_to 10752
  139.9109  134.9620  156.7501 H   0  0  0  0  0  0  0  0  0  0  0  0  # atno 11005 bound_to 11000
  145.1745  139.2385  143.5324 LP  0  0  0  0  0  0  0  0  0  0  0  0  # atno 17320 bound_to 7965
  146.3501  140.1504  142.8592 LP  0  0  0  0  0  0  0  0  0  0  0  0  # atno 17321 bound_to 7965
  139.6579  144.0242  152.2672 LP  0  0  0  0  0  0  0  0  0  0  0  0  # atno 17342 bound_to 10162
  139.9800  144.6435  150.7910 LP  0  0  0  0  0  0  0  0  0  0  0  0  # atno 17343 bound_to 10162
  156.3901  130.3896  149.7036 LP  0  0  0  0  0  0  0  0  0  0  0  0  # atno 17370 bound_to 10713
  156.4389  130.7851  151.2872 LP  0  0  0  0  0  0  0  0  0  0  0  0  # atno 17371 bound_to 10713
  140.6780  133.9499  155.7894 LP  0  0  0  0  0  0  0  0  0  0  0  0  # atno 17394 bound_to 11000
  141.0530  134.0457  157.3759 LP  0  0  0  0  0  0  0  0  0  0  0  0  # atno 17395 bound_to 11000

$$$$
