AV-unprocessed.smi:86|AV-procd|sdf|814|dock4
  -GOLD-   2262017213D 1   1.00000     0.00000
 Structure written by MMmdl.
 51 55  0  0  0  0  0  0  0  0  1 V2000
  149.1441  134.7760  158.1705 O   0  0  0  0  0  0  0  0  0  0  0  0
  148.8933  133.8647  157.1194 C   0  0  0  0  0  0  0  0  0  0  0  0
  149.3132  134.4202  155.7433 C   0  0  0  0  0  0  0  0  0  0  0  0
  150.8181  134.7442  155.7821 C   0  0  0  0  0  0  0  0  0  0  0  0
  151.1201  136.0833  156.2650 N   0  0  0  0  0  0  0  0  0  0  0  0
  151.6708  136.4179  157.4808 C   0  0  0  0  0  0  0  0  0  0  0  0
  151.8385  137.6959  157.6815 N   0  0  0  0  0  0  0  0  0  0  0  0
  151.3656  138.2940  156.5182 C   0  0  0  0  0  0  0  0  0  0  0  0
  151.2447  139.6403  156.0630 C   0  0  0  0  0  0  0  0  0  0  0  0
  151.6314  140.7256  156.7804 N   0  0  0  0  0  0  0  0  0  0  0  0
  152.1828  140.6120  158.1293 C   0  0  0  0  0  0  0  0  0  0  0  0
  152.3277  142.0648  158.5747 C   0  0  2  0  0  0  0  0  0  0  0  0
  152.4037  142.3764  160.0732 C   0  0  0  0  0  0  0  0  0  0  0  0
  152.4513  143.9090  160.2669 C   0  0  0  0  0  0  0  0  0  0  0  0
  151.3062  144.6578  159.5372 C   0  0  2  0  0  0  0  0  0  0  0  0
  150.0912  144.4469  160.2287 O   0  0  0  0  0  0  0  0  0  0  0  0
  151.1481  144.2263  158.0583 C   0  0  0  0  0  0  0  0  0  0  0  0
  151.0875  142.6957  157.9592 C   0  0  1  0  0  0  0  0  0  0  0  0
  151.0426  142.0473  156.5743 C   0  0  0  0  0  0  0  0  0  0  0  0
  150.6877  139.8348  154.8383 N   0  0  0  0  0  0  0  0  0  0  0  0
  150.2922  138.7950  154.0992 C   0  0  0  0  0  0  0  0  0  0  0  0
  150.3538  137.4949  154.3893 N   0  0  0  0  0  0  0  0  0  0  0  0
  150.8991  137.2893  155.6221 C   0  0  0  0  0  0  0  0  0  0  0  0
  148.8584  133.6147  154.5177 C   0  0  0  0  0  0  0  0  0  0  0  0
  147.8443  134.5864  154.1794 O   0  0  0  0  0  0  0  0  0  0  0  0
  148.4027  135.5029  155.1468 C   0  0  0  0  0  0  0  0  0  0  0  0
  148.3207  135.1456  158.4507 H   0  0  0  0  0  0  0  0  0  0  0  0
  149.4326  132.9475  157.3558 H   0  0  0  0  0  0  0  0  0  0  0  0
  147.8308  133.6196  157.1304 H   0  0  0  0  0  0  0  0  0  0  0  0
  151.3477  134.0233  156.4060 H   0  0  0  0  0  0  0  0  0  0  0  0
  151.2556  134.6474  154.7876 H   0  0  0  0  0  0  0  0  0  0  0  0
  151.9441  135.6815  158.2221 H   0  0  0  0  0  0  0  0  0  0  0  0
  151.4865  140.0727  158.7733 H   0  0  0  0  0  0  0  0  0  0  0  0
  153.1398  140.0892  158.1322 H   0  0  0  0  0  0  0  0  0  0  0  0
  153.2151  142.4763  158.0886 H   0  0  0  0  0  0  0  0  0  0  0  0
  151.5390  141.9589  160.5906 H   0  0  0  0  0  0  0  0  0  0  0  0
  153.2876  141.9127  160.5121 H   0  0  0  0  0  0  0  0  0  0  0  0
  152.4464  144.1527  161.3300 H   0  0  0  0  0  0  0  0  0  0  0  0
  153.4037  144.2758  159.8820 H   0  0  0  0  0  0  0  0  0  0  0  0
  151.5038  145.7295  159.5744 H   0  0  0  0  0  0  0  0  0  0  0  0
  149.4805  145.1217  159.9743 H   0  0  0  0  0  0  0  0  0  0  0  0
  150.2572  144.6762  157.6184 H   0  0  0  0  0  0  0  0  0  0  0  0
  151.9973  144.5938  157.4809 H   0  0  0  0  0  0  0  0  0  0  0  0
  150.2105  142.3458  158.5076 H   0  0  0  0  0  0  0  0  0  0  0  0
  151.6479  142.6012  155.8558 H   0  0  0  0  0  0  0  0  0  0  0  0
  150.0187  141.9968  156.2032 H   0  0  0  0  0  0  0  0  0  0  0  0
  149.8647  139.0402  153.1381 H   0  0  0  0  0  0  0  0  0  0  0  0
  149.6150  133.5327  153.7358 H   0  0  0  0  0  0  0  0  0  0  0  0
  148.4403  132.6349  154.7505 H   0  0  0  0  0  0  0  0  0  0  0  0
  147.6550  135.8899  155.8397 H   0  0  0  0  0  0  0  0  0  0  0  0
  148.9383  136.3183  154.6601 H   0  0  0  0  0  0  0  0  0  0  0  0
  1  2  1  0  0  0  0
  1 27  1  0  0  0  0
  2  3  1  0  0  0  0
  2 28  1  0  0  0  0
  2 29  1  0  0  0  0
  3 26  1  0  0  0  0
  3  4  1  0  0  0  0
  3 24  1  0  0  0  0
  4  5  1  0  0  0  0
  4 30  1  0  0  0  0
  4 31  1  0  0  0  0
  5 23  1  0  0  0  0
  5  6  1  0  0  0  0
  6  7  2  0  0  0  0
  6 32  1  0  0  0  0
  7  8  1  0  0  0  0
  8 23  2  0  0  0  0
  8  9  1  0  0  0  0
  9 10  1  0  0  0  0
  9 20  2  0  0  0  0
 10 19  1  0  0  0  0
 10 11  1  0  0  0  0
 11 12  1  0  0  0  0
 11 33  1  0  0  0  0
 11 34  1  0  0  0  0
 12 18  1  0  0  0  0
 12 13  1  0  0  0  0
 12 35  1  0  0  0  0
 13 14  1  0  0  0  0
 13 36  1  0  0  0  0
 13 37  1  0  0  0  0
 14 15  1  0  0  0  0
 14 38  1  0  0  0  0
 14 39  1  0  0  0  0
 15 16  1  0  0  0  0
 15 17  1  0  0  0  0
 15 40  1  0  0  0  0
 16 41  1  0  0  0  0
 17 18  1  0  0  0  0
 17 42  1  0  0  0  0
 17 43  1  0  0  0  0
 18 19  1  0  0  0  0
 18 44  1  0  0  0  0
 19 45  1  0  0  0  0
 19 46  1  0  0  0  0
 20 21  1  0  0  0  0
 21 22  2  0  0  0  0
 21 47  1  0  0  0  0
 22 23  1  0  0  0  0
 24 25  1  0  0  0  0
 24 48  1  0  0  0  0
 24 49  1  0  0  0  0
 25 26  1  0  0  0  0
 26 50  1  0  0  0  0
 26 51  1  0  0  0  0
M  END
> <s_m_source_file>
AV-unprocessed.smi

> <i_m_source_file_index>
86

> <i_lp_mmshare_version>
43012

> <i_f3d_flags>
0

> <s_epik_input>
W0NIMl0xT1tDSDJdQzEoW0NIMl1bT0hdKVtDSDJdbihbY0hdbjIpYyhjMjMpbltjSF1uYzNOKFtDSDJdNClbQ0gyXVtDQEBIXShbQ0BIXTQ1KVtDSDJdW0NASF0oW09IXSlbQ0gyXVtDSDJdNQ==

> <s_epik_cmdline>
J2VwaWtfcHl0aG9uJywgJy1waCcsICc3LjAnLCAnLXRuJywgJzgnLCAnLW1hJywgJzIwMCcsICctbWV0YWxfYmluZGluZycsICctaW1hZScsICc8aW5maWxlLm1hZT4nLCAnLW9tYWUnLCAnPG91dGZpbGUubWFlPic=

> <r_lp_tautomer_probability>
1

> <r_epik_Ionization_Penalty>
0.00425795

> <r_epik_Ionization_Penalty_Charging>
0

> <r_epik_Ionization_Penalty_Neutral>
0.00425795

> <r_epik_State_Penalty>
0.00299946

> <r_epik_Charging_Adjusted_Penalty>
0.00299946

> <i_epik_Tot_Q>
0

> <i_epik_Tot_abs_Q>
0

> <r_epik_Metal_State_Penalty>
-0

> <b_epik_Metal_Only>
0

> <s_lp_Force_Field>
OPLS_2005

> <r_lp_Energy>
55.6071

> <b_lp_Chiralities_Consistent>
1

> <s_lp_Variant>
AV-unprocessed.smi:86-3

> <Gold.Version>
5.8.1

> <Gold.Id.Protein>
6NUR|6NUR_protein|mol2

> <Gold.PLP.Fitness>
49.9719

> <Gold.PLP.PLP>
-42.1628

> <Gold.PLP.part.hbond>
-2.2877

> <Gold.PLP.part.metal>
0.0000

> <Gold.PLP.part.buried>
-6.3792

> <Gold.PLP.part.nonpolar>
-34.2993

> <Gold.PLP.part.repulsive>
1.0637

> <Gold.PLP.ligand.clash>
0.0000

> <Gold.PLP.ligand.torsion>
0.8220

> <Gold.PLP.Chemscore.Hbond>
1.9920

> <Gold.PLP.Chemscore.CHOScore>
1.0000

> <Gold.PLP.Chemscore.Metal>
0.0000

> <Gold.Chemscore.Hbonds>
donor molecule, donor type, donor heavy atom, donor atom, acceptor molecule, acceptor atom, score
      P1  H  6896  6908       L1     1  0.84
      P1  H  7989  7998       L1    20  1.00
      L1  C    21    47       P1  7957  1.00

> <Gold.PLP.Chemscore.Internal.Correction>
0.4771

> <Gold.Rescore>
     Score         DG    S(hbond)    S(metal)    S(lipo)     H(rot)  DE(clash)    DE(int)     intcor
     12.22     -15.81       1.54        0.00     104.68       2.76       0.44       3.14       ----

> <Gold.Chemscore.Fitness>
12.2226

> <Gold.Chemscore.DG>
-15.8072

> <Gold.Chemscore.ZeroCoef>
-5.4800

> <Gold.Chemscore.Hbond>
1.5429

> <Gold.Chemscore.Metal>
0.0000

> <Gold.Chemscore.Lipo>
104.6789

> <Gold.Chemscore.Internal_Hbond>
0.0000

> <Gold.Chemscore.DEClash>
0.4405

> <Gold.Chemscore.DEInternal>
3.1441

> <Gold.Chemscore.Rot>
2.7630

> <Gold.Chemscore.Internal.Correction>
   9.000000E+99

> <Gold.Chemscore.Hbonds>
donor molecule, donor type, donor heavy atom, donor atom, acceptor molecule, acceptor atom, score
      P1  H  6896  6908       L1     1  0.47
      P1  H  7989  7998       L1    20  0.25

> <Gold.Chemscore.Hbond.Weighted>
-5.1532

> <Gold.Chemscore.Metal.Weighted>
-0.0000

> <Gold.Chemscore.Lipo.Weighted>
-12.2474

> <Gold.Chemscore.Internal_Hbond.Weighted>
0.0000

> <Gold.Chemscore.DEClash.Weighted>
0.4405

> <Gold.Chemscore.DEInternal.Weighted>
3.1441

> <Gold.Chemscore.Rot.Weighted>
7.0734

> <Gold.Chemscore.Internal.Correction.Weighted>
   9.000000E+99

> <Gold.Protein.RotatedTorsions>
[ 6907 6896 6895 6894 ] final  130.35 input  -60.11 | X-H torsion
[ 7974 7965 7964 7962 ] final   64.82 input  175.53 | X-H torsion
[ 8008 7997 7996 7995 ] final   28.18 input   59.86 | X-H torsion
[ 10167 10162 10161 10158 ] final  -54.15 input  -65.29 | X-H torsion
[ 10718 10713 10712 10709 ] final -116.54 input   66.30 | X-H torsion
[ 10763 10752 10751 10750 ] final   -9.47 input  -60.55 | X-H torsion
[ 11005 11000 10999 10996 ] final  -85.76 input  -57.11 | X-H torsion

> <Gold.Protein.ActiveResidues>
 VAL166  LYS551  ARG553  GLY616  TRP617  ASP618  TYR619  PRO620  LYS621  CYS622 
 ASP623  PHE694  ASN695  SER759  ASP760  ASP761  ALA762  ILE779  LEU786  VAL792 
 PHE793  MET794  SER795  GLU796  ALA797  LYS798  CYS799  TRP800  GLU811  SER814 

> <Gold.Protein.RotatedAtoms>
  152.3534  133.6207  159.5961 H   0  0  0  0  0  0  0  0  0  0  0  0  # atno 6907 bound_to 6896
  150.7553  133.9538  159.3503 H   0  0  0  0  0  0  0  0  0  0  0  0  # atno 6908 bound_to 6896
  151.7386  135.0860  160.0363 H   0  0  0  0  0  0  0  0  0  0  0  0  # atno 6909 bound_to 6896
  145.8457  139.3222  143.0905 H   0  0  0  0  0  0  0  0  0  0  0  0  # atno 7974 bound_to 7965
  155.0547  140.3183  155.4680 H   0  0  0  0  0  0  0  0  0  0  0  0  # atno 8008 bound_to 7997
  156.2826  140.2139  156.5617 H   0  0  0  0  0  0  0  0  0  0  0  0  # atno 8009 bound_to 7997
  154.7181  140.0492  157.0602 H   0  0  0  0  0  0  0  0  0  0  0  0  # atno 8010 bound_to 7997
  140.6446  143.2528  151.4894 H   0  0  0  0  0  0  0  0  0  0  0  0  # atno 10167 bound_to 10162
  156.0971  130.6141  150.9049 H   0  0  0  0  0  0  0  0  0  0  0  0  # atno 10718 bound_to 10713
  153.4553  135.7015  153.6084 H   0  0  0  0  0  0  0  0  0  0  0  0  # atno 10763 bound_to 10752
  153.4401  135.3782  155.2223 H   0  0  0  0  0  0  0  0  0  0  0  0  # atno 10764 bound_to 10752
  154.8728  135.3972  154.3971 H   0  0  0  0  0  0  0  0  0  0  0  0  # atno 10765 bound_to 10752
  141.1638  133.7417  156.9062 H   0  0  0  0  0  0  0  0  0  0  0  0  # atno 11005 bound_to 11000
  145.9415  140.8976  143.0305 LP  0  0  0  0  0  0  0  0  0  0  0  0  # atno 17320 bound_to 7965
  144.6731  140.1555  143.7426 LP  0  0  0  0  0  0  0  0  0  0  0  0  # atno 17321 bound_to 7965
  139.5656  144.2050  152.1760 LP  0  0  0  0  0  0  0  0  0  0  0  0  # atno 17342 bound_to 10162
  140.1331  144.5270  150.6790 LP  0  0  0  0  0  0  0  0  0  0  0  0  # atno 17343 bound_to 10162
  157.6134  131.0935  150.8755 LP  0  0  0  0  0  0  0  0  0  0  0  0  # atno 17370 bound_to 10713
  156.8890  130.5206  149.5287 LP  0  0  0  0  0  0  0  0  0  0  0  0  # atno 17371 bound_to 10713
  140.1548  134.9205  157.2640 LP  0  0  0  0  0  0  0  0  0  0  0  0  # atno 17394 bound_to 11000
  140.2680  134.3494  155.7383 LP  0  0  0  0  0  0  0  0  0  0  0  0  # atno 17395 bound_to 11000

$$$$
