AV-unprocessed.smi:1335|AV-procd|sdf|5494|dock2
  -GOLD-   22720 5 73D 1   1.00000     0.00000
 Structure written by MMmdl.
 47 49  0  0  0  0  0  0  0  0  1 V2000
  148.5793  132.5320  158.4942 C   0  0  0  0  0  0  0  0  0  0  0  0
  148.6450  133.9164  158.8053 O   0  0  0  0  0  0  0  0  0  0  0  0
  148.0253  134.3621  159.9555 C   0  0  0  0  0  0  0  0  0  0  0  0
  147.3465  133.5024  160.8574 C   0  0  0  0  0  0  0  0  0  0  0  0
  146.7431  134.0141  162.0217 C   0  0  0  0  0  0  0  0  0  0  0  0
  146.8133  135.3885  162.3054 C   0  0  0  0  0  0  0  0  0  0  0  0
  147.4827  136.2512  161.4200 C   0  0  0  0  0  0  0  0  0  0  0  0
  148.0775  135.7494  160.2415 C   0  0  0  0  0  0  0  0  0  0  0  0
  148.8038  136.7080  159.3090 C   0  0  0  0  0  0  0  0  0  0  0  0
  150.1880  136.7930  159.6064 O   0  0  0  0  0  0  0  0  0  0  0  0
  150.7832  138.0010  159.1621 C   0  0  0  0  0  0  0  0  0  0  0  0
  152.1584  137.6759  158.5602 C   0  0  2  0  0  0  0  0  0  0  0  0
  152.7899  136.7503  159.4210 O   0  0  0  0  0  0  0  0  0  0  0  0
  153.0531  138.9264  158.4317 C   0  0  0  0  0  0  0  0  0  0  0  0
  152.3218  140.0464  157.8452 N   0  0  0  0  0  0  0  0  0  0  0  0
  151.5724  140.0207  156.7182 C   0  0  0  0  0  0  0  0  0  0  0  0
  151.3992  139.0450  155.9880 O   0  0  0  0  0  0  0  0  0  0  0  0
  151.0406  141.2534  156.5418 N   0  0  0  0  0  0  0  0  0  0  0  0
  150.1579  141.6827  155.4640 C   0  0  0  0  0  0  0  0  0  0  0  0
  151.4472  142.0848  157.5933 C   0  0  0  0  0  0  0  0  0  0  0  0
  151.1577  143.4318  157.8708 C   0  0  0  0  0  0  0  0  0  0  0  0
  151.7290  143.9873  159.0399 C   0  0  0  0  0  0  0  0  0  0  0  0
  152.5555  143.2050  159.8882 C   0  0  0  0  0  0  0  0  0  0  0  0
  152.8294  141.8507  159.5846 C   0  0  0  0  0  0  0  0  0  0  0  0
  152.2521  141.3255  158.4154 C   0  0  0  0  0  0  0  0  0  0  0  0
  149.1061  132.3492  157.5575 H   0  0  0  0  0  0  0  0  0  0  0  0
  147.5485  132.2007  158.3615 H   0  0  0  0  0  0  0  0  0  0  0  0
  149.0587  131.9266  159.2646 H   0  0  0  0  0  0  0  0  0  0  0  0
  147.2753  132.4401  160.6813 H   0  0  0  0  0  0  0  0  0  0  0  0
  146.2300  133.3488  162.7005 H   0  0  0  0  0  0  0  0  0  0  0  0
  146.3566  135.7808  163.2022 H   0  0  0  0  0  0  0  0  0  0  0  0
  147.5376  137.3044  161.6528 H   0  0  0  0  0  0  0  0  0  0  0  0
  148.6620  136.3615  158.2842 H   0  0  0  0  0  0  0  0  0  0  0  0
  148.3700  137.7062  159.3802 H   0  0  0  0  0  0  0  0  0  0  0  0
  150.1459  138.4951  158.4267 H   0  0  0  0  0  0  0  0  0  0  0  0
  150.8963  138.6793  160.0097 H   0  0  0  0  0  0  0  0  0  0  0  0
  152.0107  137.2004  157.5895 H   0  0  0  0  0  0  0  0  0  0  0  0
  153.5523  137.1621  159.7982 H   0  0  0  0  0  0  0  0  0  0  0  0
  153.3946  139.2468  159.4165 H   0  0  0  0  0  0  0  0  0  0  0  0
  153.9628  138.7090  157.8689 H   0  0  0  0  0  0  0  0  0  0  0  0
  150.5330  142.5998  155.0092 H   0  0  0  0  0  0  0  0  0  0  0  0
  149.1586  141.8777  155.8536 H   0  0  0  0  0  0  0  0  0  0  0  0
  150.0746  140.9300  154.6791 H   0  0  0  0  0  0  0  0  0  0  0  0
  150.5250  144.0193  157.2220 H   0  0  0  0  0  0  0  0  0  0  0  0
  151.5321  145.0192  159.2908 H   0  0  0  0  0  0  0  0  0  0  0  0
  152.9803  143.6480  160.7767 H   0  0  0  0  0  0  0  0  0  0  0  0
  153.4538  141.2489  160.2276 H   0  0  0  0  0  0  0  0  0  0  0  0
  1  2  1  0  0  0  0
  1 26  1  0  0  0  0
  1 27  1  0  0  0  0
  1 28  1  0  0  0  0
  2  3  1  0  0  0  0
  3  8  1  0  0  0  0
  3  4  2  0  0  0  0
  4  5  1  0  0  0  0
  4 29  1  0  0  0  0
  5  6  2  0  0  0  0
  5 30  1  0  0  0  0
  6  7  1  0  0  0  0
  6 31  1  0  0  0  0
  7  8  2  0  0  0  0
  7 32  1  0  0  0  0
  8  9  1  0  0  0  0
  9 10  1  0  0  0  0
  9 33  1  0  0  0  0
  9 34  1  0  0  0  0
 10 11  1  0  0  0  0
 11 12  1  0  0  0  0
 11 35  1  0  0  0  0
 11 36  1  0  0  0  0
 12 13  1  0  0  0  0
 12 14  1  0  0  0  0
 12 37  1  0  0  0  0
 13 38  1  0  0  0  0
 14 15  1  0  0  0  0
 14 39  1  0  0  0  0
 14 40  1  0  0  0  0
 15 25  1  0  0  0  0
 15 16  1  0  0  0  0
 16 17  2  0  0  0  0
 16 18  1  0  0  0  0
 18 19  1  0  0  0  0
 18 20  1  0  0  0  0
 19 41  1  0  0  0  0
 19 42  1  0  0  0  0
 19 43  1  0  0  0  0
 20 25  2  0  0  0  0
 20 21  1  0  0  0  0
 21 22  2  0  0  0  0
 21 44  1  0  0  0  0
 22 23  1  0  0  0  0
 22 45  1  0  0  0  0
 23 24  2  0  0  0  0
 23 46  1  0  0  0  0
 24 25  1  0  0  0  0
 24 47  1  0  0  0  0
M  END
> <s_m_source_file>
AV-unprocessed.smi

> <i_m_source_file_index>
1335

> <i_lp_mmshare_version>
43012

> <i_f3d_flags>
0

> <s_epik_input>
W0NIM11PYzFbY0hdW2NIXVtjSF1bY0hdYzFbQ0gyXU9bQ0gyXVtDQEhdKFtPSF0pW0NIMl1uKGMoPU8pbjJbQ0gzXSljKGMyMylbY0hdW2NIXVtjSF1bY0hdMw==

> <s_epik_cmdline>
J2VwaWtfcHl0aG9uJywgJy1waCcsICc3LjAnLCAnLXRuJywgJzgnLCAnLW1hJywgJzIwMCcsICctbWV0YWxfYmluZGluZycsICctaW1hZScsICc8aW5maWxlLm1hZT4nLCAnLW9tYWUnLCAnPG91dGZpbGUubWFlPic=

> <r_lp_tautomer_probability>
1

> <r_epik_Ionization_Penalty>
1.07897e-06

> <r_epik_Ionization_Penalty_Charging>
2.2947e-09

> <r_epik_Ionization_Penalty_Neutral>
1.07667e-06

> <r_epik_State_Penalty>
-0

> <r_epik_Charging_Adjusted_Penalty>
2.2947e-09

> <i_epik_Tot_Q>
0

> <i_epik_Tot_abs_Q>
0

> <r_epik_Metal_State_Penalty>
-0

> <b_epik_Metal_Only>
0

> <s_lp_Force_Field>
OPLS_2005

> <r_lp_Energy>
50.1795

> <b_lp_Chiralities_Consistent>
1

> <s_lp_Variant>
AV-unprocessed.smi:1335-1

> <Gold.Version>
5.8.1

> <Gold.Id.Protein>
6NUR|6NUR_protein|mol2

> <Gold.PLP.Fitness>
56.0169

> <Gold.PLP.PLP>
-52.1320

> <Gold.PLP.part.hbond>
-3.3177

> <Gold.PLP.part.metal>
0.0000

> <Gold.PLP.part.buried>
-4.8199

> <Gold.PLP.part.nonpolar>
-45.9048

> <Gold.PLP.part.repulsive>
0.0000

> <Gold.PLP.ligand.clash>
0.0000

> <Gold.PLP.ligand.torsion>
1.0964

> <Gold.PLP.Chemscore.Hbond>
1.9750

> <Gold.PLP.Chemscore.CHOScore>
0.0000

> <Gold.PLP.Chemscore.Metal>
0.0000

> <Gold.Chemscore.Hbonds>
donor molecule, donor type, donor heavy atom, donor atom, acceptor molecule, acceptor atom, score
      P1  H  6896  6908       L1     2  0.78
      P1  H  6896  6909       L1    13  1.00

> <Gold.PLP.Chemscore.Internal.Correction>
0.1527

> <Gold.Rescore>
     Score         DG    S(hbond)    S(metal)    S(lipo)     H(rot)  DE(clash)    DE(int)     intcor
     18.79     -20.04       1.40        0.00     139.34       2.50       0.09       1.16       ----

> <Gold.Chemscore.Fitness>
18.7882

> <Gold.Chemscore.DG>
-20.0378

> <Gold.Chemscore.ZeroCoef>
-5.4800

> <Gold.Chemscore.Hbond>
1.3965

> <Gold.Chemscore.Metal>
0.0000

> <Gold.Chemscore.Lipo>
139.3432

> <Gold.Chemscore.Internal_Hbond>
0.0000

> <Gold.Chemscore.DEClash>
0.0907

> <Gold.Chemscore.DEInternal>
1.1589

> <Gold.Chemscore.Rot>
2.5038

> <Gold.Chemscore.Internal.Correction>
   9.000000E+99

> <Gold.Chemscore.Hbonds>
donor molecule, donor type, donor heavy atom, donor atom, acceptor molecule, acceptor atom, score
      P1  H  6896  6908       L1     2  0.06
      P1  H  6896  6909       L1    13  0.97

> <Gold.Chemscore.Hbond.Weighted>
-4.6644

> <Gold.Chemscore.Metal.Weighted>
-0.0000

> <Gold.Chemscore.Lipo.Weighted>
-16.3032

> <Gold.Chemscore.Internal_Hbond.Weighted>
0.0000

> <Gold.Chemscore.DEClash.Weighted>
0.0907

> <Gold.Chemscore.DEInternal.Weighted>
1.1589

> <Gold.Chemscore.Rot.Weighted>
6.4098

> <Gold.Chemscore.Internal.Correction.Weighted>
   9.000000E+99

> <Gold.Protein.RotatedTorsions>
[ 6907 6896 6895 6894 ] final  146.00 input  -60.11 | X-H torsion
[ 7974 7965 7964 7962 ] final  -51.64 input  175.53 | X-H torsion
[ 8008 7997 7996 7995 ] final   39.23 input   59.86 | X-H torsion
[ 10167 10162 10161 10158 ] final  131.27 input  -65.29 | X-H torsion
[ 10718 10713 10712 10709 ] final  -50.41 input   66.30 | X-H torsion
[ 10763 10752 10751 10750 ] final   81.39 input  -60.55 | X-H torsion
[ 11005 11000 10999 10996 ] final  -75.73 input  -57.11 | X-H torsion

> <Gold.Protein.ActiveResidues>
 VAL166  LYS551  ARG553  GLY616  TRP617  ASP618  TYR619  PRO620  LYS621  CYS622 
 ASP623  PHE694  ASN695  SER759  ASP760  ASP761  ALA762  ILE779  LEU786  VAL792 
 PHE793  MET794  SER795  GLU796  ALA797  LYS798  CYS799  TRP800  GLU811  SER814 

> <Gold.Protein.RotatedAtoms>
  152.1736  133.4660  159.4921 H   0  0  0  0  0  0  0  0  0  0  0  0  # atno 6907 bound_to 6896
  150.6923  134.1922  159.4299 H   0  0  0  0  0  0  0  0  0  0  0  0  # atno 6908 bound_to 6896
  151.9830  135.0018  160.0609 H   0  0  0  0  0  0  0  0  0  0  0  0  # atno 6909 bound_to 6896
  145.9167  140.7869  142.9668 H   0  0  0  0  0  0  0  0  0  0  0  0  # atno 7974 bound_to 7965
  155.2332  140.3340  155.4301 H   0  0  0  0  0  0  0  0  0  0  0  0  # atno 8008 bound_to 7997
  156.2286  140.1840  156.7345 H   0  0  0  0  0  0  0  0  0  0  0  0  # atno 8009 bound_to 7997
  154.5941  140.0633  156.9264 H   0  0  0  0  0  0  0  0  0  0  0  0  # atno 8010 bound_to 7997
  139.5392  144.6713  151.4683 H   0  0  0  0  0  0  0  0  0  0  0  0  # atno 10167 bound_to 10162
  156.1803  130.4150  149.9516 H   0  0  0  0  0  0  0  0  0  0  0  0  # atno 10718 bound_to 10713
  153.1113  135.4767  154.9040 H   0  0  0  0  0  0  0  0  0  0  0  0  # atno 10763 bound_to 10752
  154.7484  135.3099  154.8606 H   0  0  0  0  0  0  0  0  0  0  0  0  # atno 10764 bound_to 10752
  153.9194  135.6856  153.4802 H   0  0  0  0  0  0  0  0  0  0  0  0  # atno 10765 bound_to 10752
  141.1648  133.6957  156.7562 H   0  0  0  0  0  0  0  0  0  0  0  0  # atno 11005 bound_to 11000
  144.6748  140.1911  143.7396 LP  0  0  0  0  0  0  0  0  0  0  0  0  # atno 17320 bound_to 7965
  145.8602  139.2219  143.1721 LP  0  0  0  0  0  0  0  0  0  0  0  0  # atno 17321 bound_to 7965
  140.6613  143.8492  150.6891 LP  0  0  0  0  0  0  0  0  0  0  0  0  # atno 17342 bound_to 10162
  140.1887  143.4054  152.1879 LP  0  0  0  0  0  0  0  0  0  0  0  0  # atno 17343 bound_to 10162
  156.7288  130.9035  151.3624 LP  0  0  0  0  0  0  0  0  0  0  0  0  # atno 17370 bound_to 10713
  157.6864  130.9189  150.0397 LP  0  0  0  0  0  0  0  0  0  0  0  0  # atno 17371 bound_to 10713
  140.2568  134.8498  157.3720 LP  0  0  0  0  0  0  0  0  0  0  0  0  # atno 17394 bound_to 11000
  140.1650  134.4681  155.7869 LP  0  0  0  0  0  0  0  0  0  0  0  0  # atno 17395 bound_to 11000

$$$$
