AV-unprocessed.smi:2909|AV-procd|sdf|11173|dock4
  -GOLD-   2272016 63D 1   1.00000     0.00000
 Structure written by MMmdl.
 44 45  0  0  0  0  0  0  0  0  1 V2000
  144.0275  143.8069  155.6360 C   0  0  0  0  0  0  0  0  0  0  0  0
  145.3643  143.1537  155.4419 C   0  0  0  0  0  0  0  0  0  0  0  0
  146.0014  142.7978  154.2169 C   0  0  0  0  0  0  0  0  0  0  0  0
  147.1914  142.2464  154.6022 C   0  0  0  0  0  0  0  0  0  0  0  0
  148.3224  141.6801  153.8054 C   0  0  0  0  0  0  0  0  0  0  0  0
  149.4971  141.3223  154.7151 C   0  0  0  0  0  0  0  0  0  0  0  0
  150.0826  140.2495  154.5687 O   0  0  0  0  0  0  0  0  0  0  0  0
  149.8220  142.2233  155.6559 N   0  0  0  0  0  0  0  0  0  0  0  0
  150.8762  142.0584  156.6516 C   0  0  2  0  0  0  0  0  0  0  0  0
  150.5832  140.8440  157.5484 C   0  0  0  0  0  0  0  0  0  0  0  0
  151.6457  140.6853  158.6469 C   0  0  0  0  0  0  0  0  0  0  0  0
  151.7950  141.9546  159.5217 C   0  0  1  0  0  0  0  0  0  0  0  0
  152.8909  141.7901  160.6160 C   0  0  0  0  0  0  0  0  0  0  0  0
  152.8426  142.9057  161.6784 C   0  0  0  0  0  0  0  0  0  0  0  0
  154.3148  141.7252  160.0304 C   0  0  0  0  0  0  0  0  0  0  0  0
  152.0552  143.1749  158.6039 C   0  0  0  0  0  0  0  0  0  0  0  0
  150.9883  143.3281  157.5080 C   0  0  0  0  0  0  0  0  0  0  0  0
  147.2069  142.2929  155.9781 N   0  0  0  0  0  0  0  0  0  0  0  0
  146.0976  142.8463  156.5015 N   0  0  0  0  0  0  0  0  0  0  0  0
  147.9606  141.9612  156.5632 H   0  0  0  0  0  0  0  0  0  0  0  0
  143.4481  143.7998  154.7125 H   0  0  0  0  0  0  0  0  0  0  0  0
  144.1416  144.8449  155.9487 H   0  0  0  0  0  0  0  0  0  0  0  0
  143.4420  143.2912  156.3977 H   0  0  0  0  0  0  0  0  0  0  0  0
  145.6402  142.9311  153.2080 H   0  0  0  0  0  0  0  0  0  0  0  0
  148.6462  142.3964  153.0492 H   0  0  0  0  0  0  0  0  0  0  0  0
  147.9961  140.7882  153.2687 H   0  0  0  0  0  0  0  0  0  0  0  0
  149.2837  143.0766  155.7006 H   0  0  0  0  0  0  0  0  0  0  0  0
  151.8306  141.9051  156.1441 H   0  0  0  0  0  0  0  0  0  0  0  0
  149.6002  140.9523  158.0092 H   0  0  0  0  0  0  0  0  0  0  0  0
  150.5425  139.9344  156.9479 H   0  0  0  0  0  0  0  0  0  0  0  0
  151.3641  139.8277  159.2563 H   0  0  0  0  0  0  0  0  0  0  0  0
  152.6050  140.4393  158.1898 H   0  0  0  0  0  0  0  0  0  0  0  0
  150.8425  142.1210  160.0275 H   0  0  0  0  0  0  0  0  0  0  0  0
  152.7130  140.8460  161.1328 H   0  0  0  0  0  0  0  0  0  0  0  0
  152.9123  143.8931  161.2207 H   0  0  0  0  0  0  0  0  0  0  0  0
  153.6673  142.8116  162.3855 H   0  0  0  0  0  0  0  0  0  0  0  0
  151.9280  142.8699  162.2690 H   0  0  0  0  0  0  0  0  0  0  0  0
  154.5292  142.5954  159.4092 H   0  0  0  0  0  0  0  0  0  0  0  0
  154.4681  140.8313  159.4268 H   0  0  0  0  0  0  0  0  0  0  0  0
  155.0644  141.6923  160.8215 H   0  0  0  0  0  0  0  0  0  0  0  0
  152.0685  144.0973  159.1828 H   0  0  0  0  0  0  0  0  0  0  0  0
  153.0396  143.0847  158.1426 H   0  0  0  0  0  0  0  0  0  0  0  0
  151.2331  144.1832  156.8768 H   0  0  0  0  0  0  0  0  0  0  0  0
  150.0254  143.5508  157.9704 H   0  0  0  0  0  0  0  0  0  0  0  0
  1 21  1  0  0  0  0
  1 22  1  0  0  0  0
  1 23  1  0  0  0  0
  1  2  1  0  0  0  0
  2 19  2  0  0  0  0
  2  3  1  0  0  0  0
  3  4  2  0  0  0  0
  3 24  1  0  0  0  0
  4 18  1  0  0  0  0
  4  5  1  0  0  0  0
  5  6  1  0  0  0  0
  5 25  1  0  0  0  0
  5 26  1  0  0  0  0
  6  7  2  0  0  0  0
  6  8  1  0  0  0  0
  8  9  1  0  0  0  0
  8 27  1  0  0  0  0
  9 17  1  0  0  0  0
  9 10  1  0  0  0  0
  9 28  1  0  0  0  0
 10 11  1  0  0  0  0
 10 29  1  0  0  0  0
 10 30  1  0  0  0  0
 11 12  1  0  0  0  0
 11 31  1  0  0  0  0
 11 32  1  0  0  0  0
 12 13  1  0  0  0  0
 12 16  1  0  0  0  0
 12 33  1  0  0  0  0
 13 14  1  0  0  0  0
 13 15  1  0  0  0  0
 13 34  1  0  0  0  0
 14 35  1  0  0  0  0
 14 36  1  0  0  0  0
 14 37  1  0  0  0  0
 15 38  1  0  0  0  0
 15 39  1  0  0  0  0
 15 40  1  0  0  0  0
 16 17  1  0  0  0  0
 16 41  1  0  0  0  0
 16 42  1  0  0  0  0
 17 43  1  0  0  0  0
 17 44  1  0  0  0  0
 18 19  1  0  0  0  0
 18 20  1  0  0  0  0
M  END
> <s_m_source_file>
AV-unprocessed.smi

> <i_m_source_file_index>
2909

> <i_lp_mmshare_version>
43012

> <i_f3d_flags>
0

> <s_epik_input>
W0NIM11jMVtjSF1jKG5bbkhdMSlbQ0gyXUMoPU8pW05IXVtDQEBIXTJbQ0gyXVtDSDJdW0NAQEhdKFtDSF0oW0NIM10pW0NIM10pW0NIMl1bQ0gyXTI=

> <s_epik_cmdline>
J2VwaWtfcHl0aG9uJywgJy1waCcsICc3LjAnLCAnLXRuJywgJzgnLCAnLW1hJywgJzIwMCcsICctbWV0YWxfYmluZGluZycsICctaW1hZScsICc8aW5maWxlLm1hZT4nLCAnLW9tYWUnLCAnPG91dGZpbGUubWFlPic=

> <r_lp_tautomer_probability>
0.5

> <r_epik_Ionization_Penalty>
0.00013296

> <r_epik_Ionization_Penalty_Charging>
0

> <r_epik_Ionization_Penalty_Neutral>
0.00013296

> <r_epik_State_Penalty>
0.41068

> <r_epik_Charging_Adjusted_Penalty>
0.41068

> <i_epik_Tot_Q>
0

> <i_epik_Tot_abs_Q>
0

> <r_epik_Metal_State_Penalty>
0.41066

> <b_epik_Metal_Only>
0

> <s_lp_Force_Field>
OPLS_2005

> <r_lp_Energy>
10.7875

> <b_lp_Chiralities_Consistent>
1

> <s_lp_Variant>
AV-unprocessed.smi:2909-3

> <Gold.Version>
5.8.1

> <Gold.Id.Protein>
6NUR|6NUR_protein|mol2

> <Gold.PLP.Fitness>
48.0059

> <Gold.PLP.PLP>
-42.7862

> <Gold.PLP.part.hbond>
-3.0000

> <Gold.PLP.part.metal>
0.0000

> <Gold.PLP.part.buried>
-1.7200

> <Gold.PLP.part.nonpolar>
-37.8681

> <Gold.PLP.part.repulsive>
0.4401

> <Gold.PLP.ligand.clash>
0.0000

> <Gold.PLP.ligand.torsion>
0.3262

> <Gold.PLP.Chemscore.Hbond>
1.9500

> <Gold.PLP.Chemscore.CHOScore>
0.0000

> <Gold.PLP.Chemscore.Metal>
0.0000

> <Gold.Chemscore.Hbonds>
donor molecule, donor type, donor heavy atom, donor atom, acceptor molecule, acceptor atom, score
      L1  H     8    27       P1  8028  1.00
      P1  H  7989  7998       L1     7  0.95

> <Gold.PLP.Chemscore.Internal.Correction>
0.0222

> <Gold.Rescore>
     Score         DG    S(hbond)    S(metal)    S(lipo)     H(rot)  DE(clash)    DE(int)     intcor
     17.37     -18.94       1.59        0.00     102.40       1.50       0.08       1.49       ----

> <Gold.Chemscore.Fitness>
17.3727

> <Gold.Chemscore.DG>
-18.9408

> <Gold.Chemscore.ZeroCoef>
-5.4800

> <Gold.Chemscore.Hbond>
1.5935

> <Gold.Chemscore.Metal>
0.0000

> <Gold.Chemscore.Lipo>
102.4039

> <Gold.Chemscore.Internal_Hbond>
0.0000

> <Gold.Chemscore.DEClash>
0.0776

> <Gold.Chemscore.DEInternal>
1.4904

> <Gold.Chemscore.Rot>
1.5011

> <Gold.Chemscore.Internal.Correction>
   9.000000E+99

> <Gold.Chemscore.Hbonds>
donor molecule, donor type, donor heavy atom, donor atom, acceptor molecule, acceptor atom, score
      L1  H     8    27       P1  8028  1.00
      P1  H  7989  7998       L1     7  0.20

> <Gold.Chemscore.Hbond.Weighted>
-5.3224

> <Gold.Chemscore.Metal.Weighted>
-0.0000

> <Gold.Chemscore.Lipo.Weighted>
-11.9813

> <Gold.Chemscore.Internal_Hbond.Weighted>
0.0000

> <Gold.Chemscore.DEClash.Weighted>
0.0776

> <Gold.Chemscore.DEInternal.Weighted>
1.4904

> <Gold.Chemscore.Rot.Weighted>
3.8429

> <Gold.Chemscore.Internal.Correction.Weighted>
   9.000000E+99

> <Gold.Protein.RotatedTorsions>
[ 6907 6896 6895 6894 ] final  -52.53 input  -60.11 | X-H torsion
[ 7974 7965 7964 7962 ] final -161.54 input  175.53 | X-H torsion
[ 8008 7997 7996 7995 ] final  -49.20 input   59.86 | X-H torsion
[ 10167 10162 10161 10158 ] final  -46.31 input  -65.29 | X-H torsion
[ 10718 10713 10712 10709 ] final -165.05 input   66.30 | X-H torsion
[ 10763 10752 10751 10750 ] final   92.64 input  -60.55 | X-H torsion
[ 11005 11000 10999 10996 ] final  -14.65 input  -57.11 | X-H torsion

> <Gold.Protein.ActiveResidues>
 VAL166  LYS551  ARG553  GLY616  TRP617  ASP618  TYR619  PRO620  LYS621  CYS622 
 ASP623  PHE694  ASN695  SER759  ASP760  ASP761  ALA762  ILE779  LEU786  VAL792 
 PHE793  MET794  SER795  GLU796  ALA797  LYS798  CYS799  TRP800  GLU811  SER814 

> <Gold.Protein.RotatedAtoms>
  150.8509  134.7834  159.7007 H   0  0  0  0  0  0  0  0  0  0  0  0  # atno 6907 bound_to 6896
  152.4574  134.5258  159.9806 H   0  0  0  0  0  0  0  0  0  0  0  0  # atno 6908 bound_to 6896
  151.5379  133.3400  159.2965 H   0  0  0  0  0  0  0  0  0  0  0  0  # atno 6909 bound_to 6896
  144.7388  140.3383  143.6139 H   0  0  0  0  0  0  0  0  0  0  0  0  # atno 7974 bound_to 7965
  154.4040  140.1302  156.4464 H   0  0  0  0  0  0  0  0  0  0  0  0  # atno 8008 bound_to 7997
  155.7409  140.3490  155.5084 H   0  0  0  0  0  0  0  0  0  0  0  0  # atno 8009 bound_to 7997
  155.9040  140.1024  157.1319 H   0  0  0  0  0  0  0  0  0  0  0  0  # atno 8010 bound_to 7997
  140.6822  143.2837  151.3765 H   0  0  0  0  0  0  0  0  0  0  0  0  # atno 10167 bound_to 10162
  156.6478  130.8995  151.3008 H   0  0  0  0  0  0  0  0  0  0  0  0  # atno 10718 bound_to 10713
  153.2214  135.4354  155.0494 H   0  0  0  0  0  0  0  0  0  0  0  0  # atno 10763 bound_to 10752
  154.8252  135.3357  154.6921 H   0  0  0  0  0  0  0  0  0  0  0  0  # atno 10764 bound_to 10752
  153.7353  135.7008  153.5035 H   0  0  0  0  0  0  0  0  0  0  0  0  # atno 10765 bound_to 10752
  140.7886  133.8306  155.9358 H   0  0  0  0  0  0  0  0  0  0  0  0  # atno 11005 bound_to 11000
  145.7400  139.1761  143.2381 LP  0  0  0  0  0  0  0  0  0  0  0  0  # atno 17320 bound_to 7965
  146.1141  140.7392  142.9489 LP  0  0  0  0  0  0  0  0  0  0  0  0  # atno 17321 bound_to 7965
  139.6154  144.1014  152.2340 LP  0  0  0  0  0  0  0  0  0  0  0  0  # atno 17342 bound_to 10162
  140.0442  144.5984  150.7387 LP  0  0  0  0  0  0  0  0  0  0  0  0  # atno 17343 bound_to 10162
  157.7151  130.9487  150.1225 LP  0  0  0  0  0  0  0  0  0  0  0  0  # atno 17370 bound_to 10713
  156.2108  130.3666  149.8672 LP  0  0  0  0  0  0  0  0  0  0  0  0  # atno 17371 bound_to 10713
  140.9412  134.1899  157.4796 LP  0  0  0  0  0  0  0  0  0  0  0  0  # atno 17394 bound_to 11000
  139.8734  134.9872  156.5359 LP  0  0  0  0  0  0  0  0  0  0  0  0  # atno 17395 bound_to 11000

$$$$
