AV-unprocessed.smi:3204|AV-procd|sdf|12253|dock8
  -GOLD-   2272018 83D 1   1.00000     0.00000
 Structure written by MMmdl.
 30 31  0  0  0  0  0  0  0  0  1 V2000
  153.4171  142.5728  161.1985 C   0  0  0  0  0  0  0  0  0  0  0  0
  152.8256  143.2981  159.9844 C   0  0  0  0  0  0  0  0  0  0  0  0
  152.1001  142.3516  159.0462 C   0  0  0  0  0  0  0  0  0  0  0  0
  152.3971  141.0376  159.1598 N   0  0  0  0  0  0  0  0  0  0  0  0
  151.7498  140.2022  158.3440 C   0  0  0  0  0  0  0  0  0  0  0  0
  150.8349  140.5294  157.4277 N   0  0  0  0  0  0  0  0  0  0  0  0
  150.5229  141.8419  157.3044 C   0  0  0  0  0  0  0  0  0  0  0  0
  149.5616  142.2405  156.3645 N   0  0  0  0  0  0  0  0  0  0  0  0
  148.7250  141.2705  155.6667 C   0  0  1  0  0  0  0  0  0  0  0  0
  147.2428  141.6269  155.7909 C   0  0  0  0  0  0  0  0  0  0  0  0
  146.6662  141.0693  154.6244 O   0  0  0  0  0  0  0  0  0  0  0  0
  147.5466  141.3581  153.5494 C   0  0  0  0  0  0  0  0  0  0  0  0
  148.9535  141.2494  154.1516 C   0  0  2  0  0  0  0  0  0  0  0  0
  149.5376  140.0243  153.7576 O   0  0  0  0  0  0  0  0  0  0  0  0
  151.1465  142.8157  158.1139 C   0  0  0  0  0  0  0  0  0  0  0  0
  150.8387  144.1314  158.0050 F   0  0  0  0  0  0  0  0  0  0  0  0
  153.9341  143.2728  161.8551 H   0  0  0  0  0  0  0  0  0  0  0  0
  154.1349  141.8111  160.8925 H   0  0  0  0  0  0  0  0  0  0  0  0
  152.6363  142.0837  161.7816 H   0  0  0  0  0  0  0  0  0  0  0  0
  152.1414  144.0795  160.3165 H   0  0  0  0  0  0  0  0  0  0  0  0
  153.6210  143.8032  159.4350 H   0  0  0  0  0  0  0  0  0  0  0  0
  151.9904  139.1535  158.4346 H   0  0  0  0  0  0  0  0  0  0  0  0
  149.4711  143.2191  156.1316 H   0  0  0  0  0  0  0  0  0  0  0  0
  148.8742  140.2750  156.0884 H   0  0  0  0  0  0  0  0  0  0  0  0
  146.7891  141.2255  156.6974 H   0  0  0  0  0  0  0  0  0  0  0  0
  147.0860  142.7073  155.7794 H   0  0  0  0  0  0  0  0  0  0  0  0
  147.3772  140.6923  152.7021 H   0  0  0  0  0  0  0  0  0  0  0  0
  147.3599  142.3788  153.2126 H   0  0  0  0  0  0  0  0  0  0  0  0
  149.5808  142.0727  153.8066 H   0  0  0  0  0  0  0  0  0  0  0  0
  149.1657  139.7730  152.9256 H   0  0  0  0  0  0  0  0  0  0  0  0
  1  2  1  0  0  0  0
  1 17  1  0  0  0  0
  1 18  1  0  0  0  0
  1 19  1  0  0  0  0
  2  3  1  0  0  0  0
  2 20  1  0  0  0  0
  2 21  1  0  0  0  0
  3 15  1  0  0  0  0
  3  4  2  0  0  0  0
  4  5  1  0  0  0  0
  5  6  2  0  0  0  0
  5 22  1  0  0  0  0
  6  7  1  0  0  0  0
  7  8  1  0  0  0  0
  7 15  2  0  0  0  0
  8  9  1  0  0  0  0
  8 23  1  0  0  0  0
  9 13  1  0  0  0  0
  9 10  1  0  0  0  0
  9 24  1  0  0  0  0
 10 11  1  0  0  0  0
 10 25  1  0  0  0  0
 10 26  1  0  0  0  0
 11 12  1  0  0  0  0
 12 13  1  0  0  0  0
 12 27  1  0  0  0  0
 12 28  1  0  0  0  0
 13 14  1  0  0  0  0
 13 29  1  0  0  0  0
 14 30  1  0  0  0  0
 15 16  1  0  0  0  0
M  END
> <s_m_source_file>
AV-unprocessed.smi

> <i_m_source_file_index>
3204

> <i_lp_mmshare_version>
43012

> <i_f3d_flags>
0

> <s_epik_input>
W0NIM11bQ0gyXWMxbltjSF1uYyhjMUYpW05IXVtDQEBIXTJbQ0gyXU9bQ0gyXVtDQEhdMltPSF0=

> <s_epik_cmdline>
J2VwaWtfcHl0aG9uJywgJy1waCcsICc3LjAnLCAnLXRuJywgJzgnLCAnLW1hJywgJzIwMCcsICctbWV0YWxfYmluZGluZycsICctaW1hZScsICc8aW5maWxlLm1hZT4nLCAnLW9tYWUnLCAnPG91dGZpbGUubWFlPic=

> <r_lp_tautomer_probability>
1

> <r_epik_Ionization_Penalty>
0.000484964

> <r_epik_Ionization_Penalty_Charging>
0

> <r_epik_Ionization_Penalty_Neutral>
0.000484964

> <r_epik_State_Penalty>
-0

> <r_epik_Charging_Adjusted_Penalty>
0

> <i_epik_Tot_Q>
0

> <i_epik_Tot_abs_Q>
0

> <r_epik_Metal_State_Penalty>
-0

> <b_epik_Metal_Only>
0

> <s_lp_Force_Field>
OPLS_2005

> <r_lp_Energy>
13.9367

> <b_lp_Chiralities_Consistent>
1

> <s_lp_Variant>
AV-unprocessed.smi:3204-4

> <Gold.Version>
5.8.1

> <Gold.Id.Protein>
6NUR|6NUR_protein|mol2

> <Gold.PLP.Fitness>
40.4515

> <Gold.PLP.PLP>
-32.7995

> <Gold.PLP.part.hbond>
-3.0000

> <Gold.PLP.part.metal>
0.0000

> <Gold.PLP.part.buried>
-5.2469

> <Gold.PLP.part.nonpolar>
-24.2832

> <Gold.PLP.part.repulsive>
0.1363

> <Gold.PLP.ligand.clash>
0.0000

> <Gold.PLP.ligand.torsion>
0.3314

> <Gold.PLP.Chemscore.Hbond>
2.7680

> <Gold.PLP.Chemscore.CHOScore>
0.0000

> <Gold.PLP.Chemscore.Metal>
0.0000

> <Gold.Chemscore.Hbonds>
donor molecule, donor type, donor heavy atom, donor atom, acceptor molecule, acceptor atom, score
      L1  H     8    23       P1  8028  1.00
      L1  H    14    30       P1  7957  0.70
      P1  H  7989  7998       L1    14  0.23

> <Gold.PLP.Chemscore.Internal.Correction>
0.0108

> <Gold.Rescore>
     Score         DG    S(hbond)    S(metal)    S(lipo)     H(rot)  DE(clash)    DE(int)     intcor
     16.14     -16.32       2.39        0.00      64.68       1.83       0.02       0.16       ----

> <Gold.Chemscore.Fitness>
16.1401

> <Gold.Chemscore.DG>
-16.3192

> <Gold.Chemscore.ZeroCoef>
-5.4800

> <Gold.Chemscore.Hbond>
2.3851

> <Gold.Chemscore.Metal>
0.0000

> <Gold.Chemscore.Lipo>
64.6772

> <Gold.Chemscore.Internal_Hbond>
0.0000

> <Gold.Chemscore.DEClash>
0.0162

> <Gold.Chemscore.DEInternal>
0.1629

> <Gold.Chemscore.Rot>
1.8337

> <Gold.Chemscore.Internal.Correction>
   9.000000E+99

> <Gold.Chemscore.Hbonds>
donor molecule, donor type, donor heavy atom, donor atom, acceptor molecule, acceptor atom, score
      L1  H     8    23       P1  8028  1.00
      L1  H    14    30       P1  7957  0.72
      P1  H  7989  7998       L1    14  0.02

> <Gold.Chemscore.Hbond.Weighted>
-7.9662

> <Gold.Chemscore.Metal.Weighted>
-0.0000

> <Gold.Chemscore.Lipo.Weighted>
-7.5672

> <Gold.Chemscore.Internal_Hbond.Weighted>
0.0000

> <Gold.Chemscore.DEClash.Weighted>
0.0162

> <Gold.Chemscore.DEInternal.Weighted>
0.1629

> <Gold.Chemscore.Rot.Weighted>
4.6942

> <Gold.Chemscore.Internal.Correction.Weighted>
   9.000000E+99

> <Gold.Protein.RotatedTorsions>
[ 6907 6896 6895 6894 ] final  -56.86 input  -60.11 | X-H torsion
[ 7974 7965 7964 7962 ] final  133.02 input  175.53 | X-H torsion
[ 8008 7997 7996 7995 ] final   69.85 input   59.86 | X-H torsion
[ 10167 10162 10161 10158 ] final  125.21 input  -65.29 | X-H torsion
[ 10718 10713 10712 10709 ] final  -31.97 input   66.30 | X-H torsion
[ 10763 10752 10751 10750 ] final  -44.42 input  -60.55 | X-H torsion
[ 11005 11000 10999 10996 ] final   84.35 input  -57.11 | X-H torsion

> <Gold.Protein.ActiveResidues>
 VAL166  LYS551  ARG553  GLY616  TRP617  ASP618  TYR619  PRO620  LYS621  CYS622 
 ASP623  PHE694  ASN695  SER759  ASP760  ASP761  ALA762  ILE779  LEU786  VAL792 
 PHE793  MET794  SER795  GLU796  ALA797  LYS798  CYS799  TRP800  GLU811  SER814 

> <Gold.Protein.RotatedAtoms>
  150.8133  134.7300  159.6707 H   0  0  0  0  0  0  0  0  0  0  0  0  # atno 6907 bound_to 6896
  152.4252  134.5877  159.9975 H   0  0  0  0  0  0  0  0  0  0  0  0  # atno 6908 bound_to 6896
  151.6081  133.3312  159.3097 H   0  0  0  0  0  0  0  0  0  0  0  0  # atno 6909 bound_to 6896
  144.9908  139.4408  143.5340 H   0  0  0  0  0  0  0  0  0  0  0  0  # atno 7974 bound_to 7965
  155.7299  140.3492  155.5054 H   0  0  0  0  0  0  0  0  0  0  0  0  # atno 8008 bound_to 7997
  155.9192  140.1064  157.1241 H   0  0  0  0  0  0  0  0  0  0  0  0  # atno 8009 bound_to 7997
  154.4067  140.1253  156.4644 H   0  0  0  0  0  0  0  0  0  0  0  0  # atno 8010 bound_to 7997
  139.5698  144.6932  151.3809 H   0  0  0  0  0  0  0  0  0  0  0  0  # atno 10167 bound_to 10162
  156.3807  130.4355  149.7471 H   0  0  0  0  0  0  0  0  0  0  0  0  # atno 10718 bound_to 10713
  154.0118  135.6680  153.4766 H   0  0  0  0  0  0  0  0  0  0  0  0  # atno 10763 bound_to 10752
  153.0617  135.5024  154.8105 H   0  0  0  0  0  0  0  0  0  0  0  0  # atno 10764 bound_to 10752
  154.6991  135.3075  154.9332 H   0  0  0  0  0  0  0  0  0  0  0  0  # atno 10765 bound_to 10752
  139.9003  134.8210  156.2433 H   0  0  0  0  0  0  0  0  0  0  0  0  # atno 11005 bound_to 11000
  146.3431  139.9239  142.8763 LP  0  0  0  0  0  0  0  0  0  0  0  0  # atno 17320 bound_to 7965
  145.2288  140.9964  143.4003 LP  0  0  0  0  0  0  0  0  0  0  0  0  # atno 17321 bound_to 7965
  140.6982  143.7696  150.7361 LP  0  0  0  0  0  0  0  0  0  0  0  0  # atno 17342 bound_to 10162
  140.1199  143.4622  152.2319 LP  0  0  0  0  0  0  0  0  0  0  0  0  # atno 17343 bound_to 10162
  156.4563  130.7930  151.2951 LP  0  0  0  0  0  0  0  0  0  0  0  0  # atno 17370 bound_to 10713
  157.7492  131.0080  150.3210 LP  0  0  0  0  0  0  0  0  0  0  0  0  # atno 17371 bound_to 10713
  141.0271  133.7009  156.1366 LP  0  0  0  0  0  0  0  0  0  0  0  0  # atno 17394 bound_to 11000
  140.7151  134.4420  157.5579 LP  0  0  0  0  0  0  0  0  0  0  0  0  # atno 17395 bound_to 11000

$$$$
