AV-unprocessed.smi:1018|AV-procd|sdf|4442|dock3
  -GOLD-   22720 2403D 1   1.00000     0.00000
 Structure written by MMmdl.
 52 53  0  0  0  0  0  0  0  0  1 V2000
  152.9401  144.8552  157.8707 C   0  0  0  0  0  0  0  0  0  0  0  0
  151.8608  144.1766  158.7331 C   0  0  1  0  0  0  0  0  0  0  0  0
  150.9434  143.2298  157.9342 C   0  0  0  0  0  0  0  0  0  0  0  0
  151.6275  141.9795  157.6154 N   0  0  0  0  0  0  0  0  0  0  0  0
  150.9840  141.1661  156.6579 C   0  0  0  0  0  0  0  0  0  0  0  0
  151.6312  140.0127  156.1558 C   0  0  0  0  0  0  0  0  0  0  0  0
  150.9778  139.2176  155.1945 C   0  0  0  0  0  0  0  0  0  0  0  0
  149.6837  139.5906  154.7620 C   0  0  0  0  0  0  0  0  0  0  0  0
  148.9255  138.8914  153.7834 N   0  0  0  0  0  0  0  0  0  0  0  0
  147.6268  139.0267  153.4654 C   0  0  0  0  0  0  0  0  0  0  0  0
  146.8513  139.8423  153.9631 O   0  0  0  0  0  0  0  0  0  0  0  0
  147.2765  138.1618  152.5028 N   0  0  0  0  0  0  0  0  0  0  0  0
  145.9509  138.0478  151.8922 C   0  0  0  0  0  0  0  0  0  0  0  0
  145.2719  136.6705  152.1407 C   0  0  0  0  0  0  0  0  0  0  0  0
  145.7576  136.0974  153.4951 C   0  0  0  0  0  0  0  0  0  0  0  0
  143.7435  136.8654  152.2265 C   0  0  0  0  0  0  0  0  0  0  0  0
  145.5758  135.6707  150.9957 C   0  0  0  0  0  0  0  0  0  0  0  0
  145.2538  136.0379  149.7510 N   0  0  0  0  0  0  0  0  0  0  0  0
  146.0915  134.5769  151.2222 O   0  0  0  0  0  0  0  0  0  0  0  0
  149.1227  140.7576  155.3173 C   0  0  0  0  0  0  0  0  0  0  0  0
  149.7447  141.5213  156.2391 N   0  0  0  0  0  0  0  0  0  0  0  0
  152.2083  141.3290  158.7868 C   0  0  0  0  0  0  0  0  0  0  0  0
  153.1339  142.3017  159.5394 C   0  0  2  0  0  0  0  0  0  0  0  0
  153.6541  141.6966  160.8474 C   0  0  0  0  0  0  0  0  0  0  0  0
  152.4178  143.4940  159.8586 O   0  0  0  0  0  0  0  0  0  0  0  0
  152.4830  145.4767  157.1004 H   0  0  0  0  0  0  0  0  0  0  0  0
  153.5798  144.1332  157.3638 H   0  0  0  0  0  0  0  0  0  0  0  0
  153.5762  145.4987  158.4787 H   0  0  0  0  0  0  0  0  0  0  0  0
  151.2379  144.9735  159.1406 H   0  0  0  0  0  0  0  0  0  0  0  0
  150.0606  142.9905  158.5288 H   0  0  0  0  0  0  0  0  0  0  0  0
  150.5867  143.7408  157.0410 H   0  0  0  0  0  0  0  0  0  0  0  0
  152.6133  139.7257  156.5010 H   0  0  0  0  0  0  0  0  0  0  0  0
  151.4886  138.3511  154.8055 H   0  0  0  0  0  0  0  0  0  0  0  0
  149.4481  138.2295  153.2286 H   0  0  0  0  0  0  0  0  0  0  0  0
  147.9868  137.5362  152.1517 H   0  0  0  0  0  0  0  0  0  0  0  0
  145.3344  138.8380  152.3218 H   0  0  0  0  0  0  0  0  0  0  0  0
  145.9909  138.2690  150.8240 H   0  0  0  0  0  0  0  0  0  0  0  0
  145.5801  136.8029  154.3073 H   0  0  0  0  0  0  0  0  0  0  0  0
  146.8255  135.8749  153.4877 H   0  0  0  0  0  0  0  0  0  0  0  0
  145.2347  135.1751  153.7524 H   0  0  0  0  0  0  0  0  0  0  0  0
  143.4757  137.5149  153.0606 H   0  0  0  0  0  0  0  0  0  0  0  0
  143.2250  135.9170  152.3741 H   0  0  0  0  0  0  0  0  0  0  0  0
  143.3414  137.3224  151.3215 H   0  0  0  0  0  0  0  0  0  0  0  0
  145.4237  135.4095  148.9791 H   0  0  0  0  0  0  0  0  0  0  0  0
  144.8289  136.9394  149.5889 H   0  0  0  0  0  0  0  0  0  0  0  0
  148.1409  141.0919  155.0147 H   0  0  0  0  0  0  0  0  0  0  0  0
  151.4054  140.9885  159.4424 H   0  0  0  0  0  0  0  0  0  0  0  0
  152.7783  140.4493  158.4847 H   0  0  0  0  0  0  0  0  0  0  0  0
  153.9940  142.5450  158.9153 H   0  0  0  0  0  0  0  0  0  0  0  0
  154.2221  140.7851  160.6594 H   0  0  0  0  0  0  0  0  0  0  0  0
  152.8333  141.4469  161.5205 H   0  0  0  0  0  0  0  0  0  0  0  0
  154.3100  142.3957  161.3665 H   0  0  0  0  0  0  0  0  0  0  0  0
  1  2  1  0  0  0  0
  1 26  1  0  0  0  0
  1 27  1  0  0  0  0
  1 28  1  0  0  0  0
  2 25  1  0  0  0  0
  2  3  1  0  0  0  0
  2 29  1  0  0  0  0
  3  4  1  0  0  0  0
  3 30  1  0  0  0  0
  3 31  1  0  0  0  0
  4  5  1  0  0  0  0
  4 22  1  0  0  0  0
  5 21  1  0  0  0  0
  5  6  2  0  0  0  0
  6  7  1  0  0  0  0
  6 32  1  0  0  0  0
  7  8  2  0  0  0  0
  7 33  1  0  0  0  0
  8  9  1  0  0  0  0
  8 20  1  0  0  0  0
  9 10  1  0  0  0  0
  9 34  1  0  0  0  0
 10 11  2  0  0  0  0
 10 12  1  0  0  0  0
 12 13  1  0  0  0  0
 12 35  1  0  0  0  0
 13 14  1  0  0  0  0
 13 36  1  0  0  0  0
 13 37  1  0  0  0  0
 14 15  1  0  0  0  0
 14 16  1  0  0  0  0
 14 17  1  0  0  0  0
 15 38  1  0  0  0  0
 15 39  1  0  0  0  0
 15 40  1  0  0  0  0
 16 41  1  0  0  0  0
 16 42  1  0  0  0  0
 16 43  1  0  0  0  0
 17 18  1  0  0  0  0
 17 19  2  0  0  0  0
 18 44  1  0  0  0  0
 18 45  1  0  0  0  0
 20 21  2  0  0  0  0
 20 46  1  0  0  0  0
 22 23  1  0  0  0  0
 22 47  1  0  0  0  0
 22 48  1  0  0  0  0
 23 24  1  0  0  0  0
 23 25  1  0  0  0  0
 23 49  1  0  0  0  0
 24 50  1  0  0  0  0
 24 51  1  0  0  0  0
 24 52  1  0  0  0  0
M  END
> <s_m_source_file>
AV-unprocessed.smi

> <i_m_source_file_index>
1018

> <i_lp_mmshare_version>
43012

> <i_f3d_flags>
0

> <s_epik_input>
W0NIM11bQ0BASF0xW0NIMl1OKFtDSDJdW0NASF0oTzEpW0NIM10pYzJbY0hdW2NIXWMoW2NIXW4yKVtOSF1DKD1PKVtOSF1bQ0gyXUMoW0NIM10pKFtDSDNdKUMoPU8pW05IMl0=

> <s_epik_cmdline>
J2VwaWtfcHl0aG9uJywgJy1waCcsICc3LjAnLCAnLXRuJywgJzgnLCAnLW1hJywgJzIwMCcsICctbWV0YWxfYmluZGluZycsICctaW1hZScsICc8aW5maWxlLm1hZT4nLCAnLW9tYWUnLCAnPG91dGZpbGUubWFlPic=

> <r_lp_tautomer_probability>
1

> <r_epik_Ionization_Penalty>
0.002562

> <r_epik_Ionization_Penalty_Charging>
0

> <r_epik_Ionization_Penalty_Neutral>
0.002562

> <r_epik_State_Penalty>
0.00175377

> <r_epik_Charging_Adjusted_Penalty>
0.00175377

> <i_epik_Tot_Q>
0

> <i_epik_Tot_abs_Q>
0

> <r_epik_Metal_State_Penalty>
-0

> <b_epik_Metal_Only>
0

> <s_lp_Force_Field>
OPLS_2005

> <r_lp_Energy>
25.8871

> <b_lp_Chiralities_Consistent>
1

> <s_lp_Variant>
AV-unprocessed.smi:1018-3

> <Gold.Version>
5.8.1

> <Gold.Id.Protein>
6NUR|6NUR_protein|mol2

> <Gold.PLP.Fitness>
56.7599

> <Gold.PLP.PLP>
-49.1683

> <Gold.PLP.part.hbond>
-4.4779

> <Gold.PLP.part.metal>
0.0000

> <Gold.PLP.part.buried>
-5.4515

> <Gold.PLP.part.nonpolar>
-40.5420

> <Gold.PLP.part.repulsive>
0.7221

> <Gold.PLP.ligand.clash>
0.0591

> <Gold.PLP.ligand.torsion>
0.8436

> <Gold.PLP.Chemscore.Hbond>
3.0000

> <Gold.PLP.Chemscore.CHOScore>
0.0000

> <Gold.PLP.Chemscore.Metal>
0.0000

> <Gold.Chemscore.Hbonds>
donor molecule, donor type, donor heavy atom, donor atom, acceptor molecule, acceptor atom, score
      L1  H    12    35       P1  7948  1.00
      L1  H    18    44       P1  7921  1.00
      L1  H    18    45       P1 10171  1.00

> <Gold.PLP.Chemscore.Internal.Correction>
0.3379

> <Gold.Rescore>
     Score         DG    S(hbond)    S(metal)    S(lipo)     H(rot)  DE(clash)    DE(int)     intcor
     21.15     -23.66       3.04        0.00     114.36       2.09       0.22       2.29       ----

> <Gold.Chemscore.Fitness>
21.1493

> <Gold.Chemscore.DG>
-23.6594

> <Gold.Chemscore.ZeroCoef>
-5.4800

> <Gold.Chemscore.Hbond>
3.0423

> <Gold.Chemscore.Metal>
0.0000

> <Gold.Chemscore.Lipo>
114.3627

> <Gold.Chemscore.Internal_Hbond>
0.0000

> <Gold.Chemscore.DEClash>
0.2165

> <Gold.Chemscore.DEInternal>
2.2937

> <Gold.Chemscore.Rot>
2.0947

> <Gold.Chemscore.Internal.Correction>
   9.000000E+99

> <Gold.Chemscore.Hbonds>
donor molecule, donor type, donor heavy atom, donor atom, acceptor molecule, acceptor atom, score
      L1  H     9    34       P1  7948  0.05
      L1  H    12    35       P1  7948  0.99
      L1  H    18    44       P1  7921  0.98
      L1  H    18    45       P1 10171  1.00

> <Gold.Chemscore.Hbond.Weighted>
-10.1614

> <Gold.Chemscore.Metal.Weighted>
-0.0000

> <Gold.Chemscore.Lipo.Weighted>
-13.3804

> <Gold.Chemscore.Internal_Hbond.Weighted>
0.0000

> <Gold.Chemscore.DEClash.Weighted>
0.2165

> <Gold.Chemscore.DEInternal.Weighted>
2.2937

> <Gold.Chemscore.Rot.Weighted>
5.3624

> <Gold.Chemscore.Internal.Correction.Weighted>
   9.000000E+99

> <Gold.Protein.RotatedTorsions>
[ 6907 6896 6895 6894 ] final  105.07 input  -60.11 | X-H torsion
[ 7974 7965 7964 7962 ] final  148.21 input  175.53 | X-H torsion
[ 8008 7997 7996 7995 ] final  173.24 input   59.86 | X-H torsion
[ 10167 10162 10161 10158 ] final   10.76 input  -65.29 | X-H torsion
[ 10718 10713 10712 10709 ] final    5.85 input   66.30 | X-H torsion
[ 10763 10752 10751 10750 ] final -177.88 input  -60.55 | X-H torsion
[ 11005 11000 10999 10996 ] final   72.62 input  -57.11 | X-H torsion

> <Gold.Protein.ActiveResidues>
 VAL166  LYS551  ARG553  GLY616  TRP617  ASP618  TYR619  PRO620  LYS621  CYS622 
 ASP623  PHE694  ASN695  SER759  ASP760  ASP761  ALA762  ILE779  LEU786  VAL792 
 PHE793  MET794  SER795  GLU796  ALA797  LYS798  CYS799  TRP800  GLU811  SER814 

> <Gold.Protein.RotatedAtoms>
  152.5243  133.9583  159.7704 H   0  0  0  0  0  0  0  0  0  0  0  0  # atno 6907 bound_to 6896
  150.9879  133.6171  159.2720 H   0  0  0  0  0  0  0  0  0  0  0  0  # atno 6908 bound_to 6896
  151.3325  135.0851  159.9396 H   0  0  0  0  0  0  0  0  0  0  0  0  # atno 6909 bound_to 6896
  144.8532  139.6125  143.5964 H   0  0  0  0  0  0  0  0  0  0  0  0  # atno 7974 bound_to 7965
  156.1095  140.1465  156.9359 H   0  0  0  0  0  0  0  0  0  0  0  0  # atno 8008 bound_to 7997
  154.4757  140.0895  156.7298 H   0  0  0  0  0  0  0  0  0  0  0  0  # atno 8009 bound_to 7997
  155.4622  140.3438  155.4316 H   0  0  0  0  0  0  0  0  0  0  0  0  # atno 8010 bound_to 7997
  140.6174  143.8279  150.7134 H   0  0  0  0  0  0  0  0  0  0  0  0  # atno 10167 bound_to 10162
  156.9135  130.5765  149.5647 H   0  0  0  0  0  0  0  0  0  0  0  0  # atno 10718 bound_to 10713
  154.5546  135.2815  155.0976 H   0  0  0  0  0  0  0  0  0  0  0  0  # atno 10763 bound_to 10752
  154.2409  135.6357  153.5210 H   0  0  0  0  0  0  0  0  0  0  0  0  # atno 10764 bound_to 10752
  153.0012  135.5559  154.6122 H   0  0  0  0  0  0  0  0  0  0  0  0  # atno 10765 bound_to 10752
  139.9481  134.7276  156.0929 H   0  0  0  0  0  0  0  0  0  0  0  0  # atno 11005 bound_to 11000
  146.2801  139.6856  142.9235 LP  0  0  0  0  0  0  0  0  0  0  0  0  # atno 17320 bound_to 7965
  145.4459  141.0425  143.2831 LP  0  0  0  0  0  0  0  0  0  0  0  0  # atno 17321 bound_to 7965
  140.1861  143.4075  152.1897 LP  0  0  0  0  0  0  0  0  0  0  0  0  # atno 17342 bound_to 10162
  139.5410  144.7256  151.4735 LP  0  0  0  0  0  0  0  0  0  0  0  0  # atno 17343 bound_to 10162
  156.0524  130.5591  150.9019 LP  0  0  0  0  0  0  0  0  0  0  0  0  # atno 17370 bound_to 10713
  157.5952  131.0943  150.9052 LP  0  0  0  0  0  0  0  0  0  0  0  0  # atno 17371 bound_to 10713
  141.1137  133.6634  156.3042 LP  0  0  0  0  0  0  0  0  0  0  0  0  # atno 17394 bound_to 11000
  140.5785  134.5770  157.5474 LP  0  0  0  0  0  0  0  0  0  0  0  0  # atno 17395 bound_to 11000

$$$$
