AV-unprocessed.smi:1538|AV-procd|sdf|6193|dock9
  -GOLD-   22720 6363D 1   1.00000     0.00000
 Structure written by MMmdl.
 37 38  0  0  0  0  0  0  0  0  2 V2000
  151.9345  145.4633  160.6580 C   0  0  0  0  0  0  0  0  0  0  0  0
  151.9341  144.2737  159.8051 N   0  0  0  0  0  0  0  0  0  0  0  0
  151.5159  144.5088  158.4160 C   0  0  0  0  0  0  0  0  0  0  0  0
  151.1203  143.2287  157.6687 C   0  0  0  0  0  0  0  0  0  0  0  0
  152.1854  142.1457  157.8814 C   0  0  2  0  0  0  0  0  0  0  0  0
  151.8382  140.8807  157.0840 C   0  0  0  0  0  0  0  0  0  0  0  0
  152.7048  140.0416  156.8365 O   0  0  0  0  0  0  0  0  0  0  0  0
  150.5629  140.7511  156.6907 N   0  0  0  0  0  0  0  0  0  0  0  0
  150.0498  139.6156  155.9377 C   0  0  0  0  0  0  0  0  0  0  0  0
  149.3654  140.0850  154.6472 C   0  0  0  0  0  0  0  0  0  0  0  0
  147.9625  140.4358  154.8770 N   0  0  0  0  0  0  0  0  0  0  0  0
  147.4684  141.3205  155.8010 C   0  0  0  0  0  0  0  0  0  0  0  0
  146.1060  141.3273  155.6454 C   0  0  0  0  0  0  0  0  0  0  0  0
  145.8267  140.4471  154.6344 N   0  3  0  0  0  0  0  0  0  0  0  0
  146.9572  139.9067  154.1675 C   0  0  0  0  0  0  0  0  0  0  0  0
  152.3146  141.8363  159.3866 C   0  0  0  0  0  0  0  0  0  0  0  0
  152.3608  143.0816  160.2882 C   0  0  0  0  0  0  0  0  0  0  0  0
  152.7624  142.9431  161.4441 O   0  0  0  0  0  0  0  0  0  0  0  0
  152.9066  145.6051  161.1328 H   0  0  0  0  0  0  0  0  0  0  0  0
  151.1820  145.3672  161.4417 H   0  0  0  0  0  0  0  0  0  0  0  0
  151.7155  146.3721  160.0961 H   0  0  0  0  0  0  0  0  0  0  0  0
  150.6784  145.2075  158.3900 H   0  0  0  0  0  0  0  0  0  0  0  0
  152.3426  144.9934  157.8950 H   0  0  0  0  0  0  0  0  0  0  0  0
  150.1520  142.8817  158.0337 H   0  0  0  0  0  0  0  0  0  0  0  0
  150.9930  143.4460  156.6073 H   0  0  0  0  0  0  0  0  0  0  0  0
  153.1430  142.5295  157.5238 H   0  0  0  0  0  0  0  0  0  0  0  0
  149.9099  141.4826  156.9321 H   0  0  0  0  0  0  0  0  0  0  0  0
  150.8715  138.9374  155.7013 H   0  0  0  0  0  0  0  0  0  0  0  0
  149.3423  139.0623  156.5577 H   0  0  0  0  0  0  0  0  0  0  0  0
  149.8745  140.9559  154.2308 H   0  0  0  0  0  0  0  0  0  0  0  0
  149.3927  139.3019  153.8883 H   0  0  0  0  0  0  0  0  0  0  0  0
  148.1061  141.8665  156.4813 H   0  0  0  0  0  0  0  0  0  0  0  0
  145.3352  141.8786  156.1644 H   0  0  0  0  0  0  0  0  0  0  0  0
  147.0405  139.1859  153.3735 H   0  0  0  0  0  0  0  0  0  0  0  0
  151.4722  141.2313  159.7259 H   0  0  0  0  0  0  0  0  0  0  0  0
  153.2117  141.2415  159.5641 H   0  0  0  0  0  0  0  0  0  0  0  0
  144.8995  140.2350  154.2875 H   0  0  0  0  0  0  0  0  0  0  0  0
  1  2  1  0  0  0  0
  1 19  1  0  0  0  0
  1 20  1  0  0  0  0
  1 21  1  0  0  0  0
  2 17  1  0  0  0  0
  2  3  1  0  0  0  0
  3  4  1  0  0  0  0
  3 22  1  0  0  0  0
  3 23  1  0  0  0  0
  4  5  1  0  0  0  0
  4 24  1  0  0  0  0
  4 25  1  0  0  0  0
  5  6  1  0  0  0  0
  5 16  1  0  0  0  0
  5 26  1  0  0  0  0
  6  7  2  0  0  0  0
  6  8  1  0  0  0  0
  8  9  1  0  0  0  0
  8 27  1  0  0  0  0
  9 10  1  0  0  0  0
  9 28  1  0  0  0  0
  9 29  1  0  0  0  0
 10 11  1  0  0  0  0
 10 30  1  0  0  0  0
 10 31  1  0  0  0  0
 11 15  1  0  0  0  0
 11 12  1  0  0  0  0
 12 13  2  0  0  0  0
 12 32  1  0  0  0  0
 13 14  1  0  0  0  0
 13 33  1  0  0  0  0
 14 15  2  0  0  0  0
 14 37  1  0  0  0  0
 15 34  1  0  0  0  0
 16 17  1  0  0  0  0
 16 35  1  0  0  0  0
 16 36  1  0  0  0  0
 17 18  2  0  0  0  0
M  CHG  1  14   1
M  END
> <s_m_source_file>
AV-unprocessed.smi

> <i_m_source_file_index>
1538

> <i_lp_mmshare_version>
43012

> <i_f3d_flags>
0

> <s_epik_input>
W0NIM11OMVtDSDJdW0NIMl1bQ0BIXShbQ0gyXUMxPU8pQyg9TylbTkhdW0NIMl1bQ0gyXW4yW2NIXVtjSF1uW2NIXTI=

> <s_epik_cmdline>
J2VwaWtfcHl0aG9uJywgJy1waCcsICc3LjAnLCAnLXRuJywgJzgnLCAnLW1hJywgJzIwMCcsICctbWV0YWxfYmluZGluZycsICctaW1hZScsICc8aW5maWxlLm1hZT4nLCAnLW9tYWUnLCAnPG91dGZpbGUubWFlPic=

> <r_lp_tautomer_probability>
1

> <r_epik_Ionization_Penalty>
0.272873

> <r_epik_Ionization_Penalty_Charging>
0

> <r_epik_Ionization_Penalty_Neutral>
0.272873

> <r_epik_State_Penalty>
0.265096

> <r_epik_Charging_Adjusted_Penalty>
0.265096

> <i_epik_Tot_Q>
1

> <i_epik_Tot_abs_Q>
1

> <r_epik_Metal_State_Penalty>
0.549113

> <b_epik_Metal_Only>
0

> <s_lp_Force_Field>
OPLS_2005

> <r_lp_Energy>
17.9959

> <b_lp_Chiralities_Consistent>
1

> <s_lp_Variant>
AV-unprocessed.smi:1538-2

> <Gold.Version>
5.8.1

> <Gold.Id.Protein>
6NUR|6NUR_protein|mol2

> <Gold.PLP.Fitness>
50.2040

> <Gold.PLP.PLP>
-39.4837

> <Gold.PLP.part.hbond>
-2.0000

> <Gold.PLP.part.metal>
0.0000

> <Gold.PLP.part.buried>
-2.0808

> <Gold.PLP.part.nonpolar>
-33.8334

> <Gold.PLP.part.repulsive>
0.2256

> <Gold.PLP.ligand.clash>
1.0373

> <Gold.PLP.ligand.torsion>
0.6846

> <Gold.PLP.Chemscore.Hbond>
3.0000

> <Gold.PLP.Chemscore.CHOScore>
1.3694

> <Gold.PLP.Chemscore.Metal>
0.0000

> <Gold.Chemscore.Hbonds>
donor molecule, donor type, donor heavy atom, donor atom, acceptor molecule, acceptor atom, score
      L1  H    14    37       P1 10175  0.98
      P1  H  7997  8010       L1     7  1.00

> <Gold.PLP.Chemscore.Internal.Correction>
0.0186

> <Gold.Rescore>
     Score         DG    S(hbond)    S(metal)    S(lipo)     H(rot)  DE(clash)    DE(int)     intcor
     14.68     -15.23       1.90        0.00      73.78       2.05       0.26       0.28       ----

> <Gold.Chemscore.Fitness>
14.6813

> <Gold.Chemscore.DG>
-15.2260

> <Gold.Chemscore.ZeroCoef>
-5.4800

> <Gold.Chemscore.Hbond>
1.9029

> <Gold.Chemscore.Metal>
0.0000

> <Gold.Chemscore.Lipo>
73.7846

> <Gold.Chemscore.Internal_Hbond>
0.0000

> <Gold.Chemscore.DEClash>
0.2632

> <Gold.Chemscore.DEInternal>
0.2815

> <Gold.Chemscore.Rot>
2.0478

> <Gold.Chemscore.Internal.Correction>
   9.000000E+99

> <Gold.Chemscore.Hbonds>
donor molecule, donor type, donor heavy atom, donor atom, acceptor molecule, acceptor atom, score
      L1  H    14    37       P1 10175  0.49
      P1  H  7997  8010       L1     7  0.98

> <Gold.Chemscore.Hbond.Weighted>
-6.3556

> <Gold.Chemscore.Metal.Weighted>
-0.0000

> <Gold.Chemscore.Lipo.Weighted>
-8.6328

> <Gold.Chemscore.Internal_Hbond.Weighted>
0.0000

> <Gold.Chemscore.DEClash.Weighted>
0.2632

> <Gold.Chemscore.DEInternal.Weighted>
0.2815

> <Gold.Chemscore.Rot.Weighted>
5.2423

> <Gold.Chemscore.Internal.Correction.Weighted>
   9.000000E+99

> <Gold.Protein.RotatedTorsions>
[ 6907 6896 6895 6894 ] final -133.09 input  -60.11 | X-H torsion
[ 7974 7965 7964 7962 ] final   30.74 input  175.53 | X-H torsion
[ 8008 7997 7996 7995 ] final   58.12 input   59.86 | X-H torsion
[ 10167 10162 10161 10158 ] final   27.57 input  -65.29 | X-H torsion
[ 10718 10713 10712 10709 ] final   -2.97 input   66.30 | X-H torsion
[ 10763 10752 10751 10750 ] final  -38.42 input  -60.55 | X-H torsion
[ 11005 11000 10999 10996 ] final   49.63 input  -57.11 | X-H torsion

> <Gold.Protein.ActiveResidues>
 VAL166  LYS551  ARG553  GLY616  TRP617  ASP618  TYR619  PRO620  LYS621  CYS622 
 ASP623  PHE694  ASN695  SER759  ASP760  ASP761  ALA762  ILE779  LEU786  VAL792 
 PHE793  MET794  SER795  GLU796  ALA797  LYS798  CYS799  TRP800  GLU811  SER814 

> <Gold.Protein.RotatedAtoms>
  150.9699  133.6354  159.2739 H   0  0  0  0  0  0  0  0  0  0  0  0  # atno 6907 bound_to 6896
  151.3647  135.0910  159.9455 H   0  0  0  0  0  0  0  0  0  0  0  0  # atno 6908 bound_to 6896
  152.5179  133.9266  159.7615 H   0  0  0  0  0  0  0  0  0  0  0  0  # atno 6909 bound_to 6896
  146.1593  139.6748  142.9044 H   0  0  0  0  0  0  0  0  0  0  0  0  # atno 7974 bound_to 7965
  155.5449  140.3485  155.4455 H   0  0  0  0  0  0  0  0  0  0  0  0  # atno 8008 bound_to 7997
  156.0625  140.1343  156.9951 H   0  0  0  0  0  0  0  0  0  0  0  0  # atno 8009 bound_to 7997
  154.4487  140.0982  156.6523 H   0  0  0  0  0  0  0  0  0  0  0  0  # atno 8010 bound_to 7997
  140.4927  144.0442  150.6303 H   0  0  0  0  0  0  0  0  0  0  0  0  # atno 10167 bound_to 10162
  156.7830  130.5337  149.5748 H   0  0  0  0  0  0  0  0  0  0  0  0  # atno 10718 bound_to 10713
  153.9126  135.6791  153.4750 H   0  0  0  0  0  0  0  0  0  0  0  0  # atno 10763 bound_to 10752
  153.1070  135.4800  154.8967 H   0  0  0  0  0  0  0  0  0  0  0  0  # atno 10764 bound_to 10752
  154.7519  135.3187  154.8497 H   0  0  0  0  0  0  0  0  0  0  0  0  # atno 10765 bound_to 10752
  140.1087  134.4983  155.8697 H   0  0  0  0  0  0  0  0  0  0  0  0  # atno 11005 bound_to 11000
  145.4628  141.0433  143.2742 LP  0  0  0  0  0  0  0  0  0  0  0  0  # atno 17320 bound_to 7965
  144.8005  139.6149  143.7073 LP  0  0  0  0  0  0  0  0  0  0  0  0  # atno 17321 bound_to 7965
  140.3715  143.2852  152.0273 LP  0  0  0  0  0  0  0  0  0  0  0  0  # atno 17342 bound_to 10162
  139.4854  144.6226  151.7226 LP  0  0  0  0  0  0  0  0  0  0  0  0  # atno 17343 bound_to 10162
  156.1206  130.6107  151.0188 LP  0  0  0  0  0  0  0  0  0  0  0  0  # atno 17370 bound_to 10713
  157.6637  131.0876  150.7778 LP  0  0  0  0  0  0  0  0  0  0  0  0  # atno 17371 bound_to 10713
  141.2125  133.6720  156.6662 LP  0  0  0  0  0  0  0  0  0  0  0  0  # atno 17394 bound_to 11000
  140.3120  134.8078  157.4184 LP  0  0  0  0  0  0  0  0  0  0  0  0  # atno 17395 bound_to 11000

$$$$
