AV-unprocessed.smi:993|AV-procd|sdf|4338|dock3
  -GOLD-   22720 2233D 1   1.00000     0.00000
 Structure written by MMmdl.
 30 31  0  0  0  0  0  0  0  0  3 V2000
  152.5924  138.1380  158.9403 C   0  0  0  0  0  0  0  0  0  0  0  0
  152.1216  139.4190  158.2741 C   0  0  0  0  0  0  0  0  0  0  0  0
  152.2031  140.5814  159.0554 N   0  0  0  0  0  0  0  0  0  0  0  0
  151.8113  141.7205  158.5714 C   0  0  0  0  0  0  0  0  0  0  0  0
  151.8797  142.8929  159.3252 N   0  0  0  0  0  0  0  0  0  0  0  0
  151.3631  144.1844  158.8886 C   0  0  0  0  0  0  0  0  0  0  0  0
  151.9035  145.2198  159.8748 C   0  0  0  0  0  0  0  0  0  0  0  0
  152.0601  144.4198  161.1609 C   0  0  0  0  0  0  0  0  0  0  0  0
  152.4556  143.0301  160.6599 C   0  0  0  0  0  0  0  0  0  0  0  0
  151.3022  141.8509  157.2889 N   0  5  0  0  0  0  0  0  0  0  0  0
  151.2067  140.7653  156.4688 C   0  0  0  0  0  0  0  0  0  0  0  0
  150.7741  140.8564  155.3203 O   0  0  0  0  0  0  0  0  0  0  0  0
  151.6392  139.4598  156.9997 C   0  0  0  0  0  0  0  0  0  0  0  0
  151.5134  138.2165  156.1137 C   0  0  0  0  0  0  0  0  0  0  0  0
  152.3422  138.2450  154.8231 C   0  0  0  0  0  0  0  0  0  0  0  0
  153.1439  139.1969  154.7006 O   0  0  0  0  0  0  0  0  0  0  0  0
  152.1726  137.3360  153.9801 O   0  5  0  0  0  0  0  0  0  0  0  0
  151.7607  137.4444  159.0630 H   0  0  0  0  0  0  0  0  0  0  0  0
  153.0125  138.3371  159.9267 H   0  0  0  0  0  0  0  0  0  0  0  0
  153.3639  137.6547  158.3408 H   0  0  0  0  0  0  0  0  0  0  0  0
  151.6641  144.4156  157.8660 H   0  0  0  0  0  0  0  0  0  0  0  0
  150.2735  144.1541  158.9228 H   0  0  0  0  0  0  0  0  0  0  0  0
  152.8803  145.5724  159.5407 H   0  0  0  0  0  0  0  0  0  0  0  0
  151.2494  146.0851  159.9841 H   0  0  0  0  0  0  0  0  0  0  0  0
  152.7918  144.8479  161.8464 H   0  0  0  0  0  0  0  0  0  0  0  0
  151.1013  144.3657  161.6781 H   0  0  0  0  0  0  0  0  0  0  0  0
  152.1009  142.2514  161.3360 H   0  0  0  0  0  0  0  0  0  0  0  0
  153.5402  142.9441  160.5835 H   0  0  0  0  0  0  0  0  0  0  0  0
  151.8210  137.3435  156.6892 H   0  0  0  0  0  0  0  0  0  0  0  0
  150.4713  138.0281  155.8546 H   0  0  0  0  0  0  0  0  0  0  0  0
  1  2  1  0  0  0  0
  1 18  1  0  0  0  0
  1 19  1  0  0  0  0
  1 20  1  0  0  0  0
  2 13  2  0  0  0  0
  2  3  1  0  0  0  0
  3  4  2  0  0  0  0
  4  5  1  0  0  0  0
  4 10  1  0  0  0  0
  5  9  1  0  0  0  0
  5  6  1  0  0  0  0
  6  7  1  0  0  0  0
  6 21  1  0  0  0  0
  6 22  1  0  0  0  0
  7  8  1  0  0  0  0
  7 23  1  0  0  0  0
  7 24  1  0  0  0  0
  8  9  1  0  0  0  0
  8 25  1  0  0  0  0
  8 26  1  0  0  0  0
  9 27  1  0  0  0  0
  9 28  1  0  0  0  0
 10 11  1  0  0  0  0
 11 12  2  0  0  0  0
 11 13  1  0  0  0  0
 13 14  1  0  0  0  0
 14 15  1  0  0  0  0
 14 29  1  0  0  0  0
 14 30  1  0  0  0  0
 15 16  2  0  0  0  0
 15 17  1  0  0  0  0
M  CHG  1  10  -1
M  CHG  1  17  -1
M  END
> <s_m_source_file>
AV-unprocessed.smi

> <i_m_source_file_index>
993

> <i_lp_mmshare_version>
43012

> <i_f3d_flags>
0

> <s_epik_input>
W0NIMl0xW0NIMl1bQ0gyXVtDSDJdTjFjKG5jMltDSDNdKVtuSF1jKD1PKWMyW0NIMl1DKD1PKVtPSF0=

> <s_epik_cmdline>
J2VwaWtfcHl0aG9uJywgJy1waCcsICc3LjAnLCAnLXRuJywgJzgnLCAnLW1hJywgJzIwMCcsICctbWV0YWxfYmluZGluZycsICctaW1hZScsICc8aW5maWxlLm1hZT4nLCAnLW9tYWUnLCAnPG91dGZpbGUubWFlPic=

> <r_lp_tautomer_probability>
0.878553

> <r_epik_Ionization_Penalty>
9.99622

> <r_epik_Ionization_Penalty_Charging>
0.001774

> <r_epik_Ionization_Penalty_Neutral>
9.99445

> <r_epik_State_Penalty>
6.17728

> <r_epik_Charging_Adjusted_Penalty>
6.17906

> <i_epik_Tot_Q>
-2

> <i_epik_Tot_abs_Q>
2

> <r_epik_Metal_State_Penalty>
2.31379

> <b_epik_Metal_Only>
1

> <s_lp_Force_Field>
OPLS_2005

> <r_lp_Energy>
32.9743

> <b_lp_Chiralities_Consistent>
1

> <s_lp_Variant>
AV-unprocessed.smi:993-4

> <Gold.Version>
5.8.1

> <Gold.Id.Protein>
6NUR|6NUR_protein|mol2

> <Gold.PLP.Fitness>
48.8966

> <Gold.PLP.PLP>
-35.1706

> <Gold.PLP.part.hbond>
-3.6337

> <Gold.PLP.part.metal>
0.0000

> <Gold.PLP.part.buried>
-6.3610

> <Gold.PLP.part.nonpolar>
-27.9284

> <Gold.PLP.part.repulsive>
1.1199

> <Gold.PLP.ligand.clash>
0.0000

> <Gold.PLP.ligand.torsion>
0.0732

> <Gold.PLP.Chemscore.Hbond>
4.6240

> <Gold.PLP.Chemscore.CHOScore>
0.0000

> <Gold.PLP.Chemscore.Metal>
0.0000

> <Gold.Chemscore.Hbonds>
donor molecule, donor type, donor heavy atom, donor atom, acceptor molecule, acceptor atom, score
      P1  H  7989  7998       L1    12  0.78
      P1  H  7997  8010       L1    16  2.00
      P1  H 10752 10764       L1    17  1.82

> <Gold.PLP.Chemscore.Internal.Correction>
0.0005

> <Gold.Rescore>
     Score         DG    S(hbond)    S(metal)    S(lipo)     H(rot)  DE(clash)    DE(int)     intcor
     18.12     -18.25       2.60        0.00      67.54       1.49       0.01       0.11       ----

> <Gold.Chemscore.Fitness>
18.1249

> <Gold.Chemscore.DG>
-18.2520

> <Gold.Chemscore.ZeroCoef>
-5.4800

> <Gold.Chemscore.Hbond>
2.6022

> <Gold.Chemscore.Metal>
0.0000

> <Gold.Chemscore.Lipo>
67.5449

> <Gold.Chemscore.Internal_Hbond>
0.0000

> <Gold.Chemscore.DEClash>
0.0127

> <Gold.Chemscore.DEInternal>
0.1144

> <Gold.Chemscore.Rot>
1.4931

> <Gold.Chemscore.Internal.Correction>
   9.000000E+99

> <Gold.Chemscore.Hbonds>
donor molecule, donor type, donor heavy atom, donor atom, acceptor molecule, acceptor atom, score
      P1  H  7989  7998       L1    12  0.76
      P1  H  7997  8010       L1    16  0.94
      P1  H 10752 10764       L1    17  0.88

> <Gold.Chemscore.Hbond.Weighted>
-8.6914

> <Gold.Chemscore.Metal.Weighted>
-0.0000

> <Gold.Chemscore.Lipo.Weighted>
-7.9028

> <Gold.Chemscore.Internal_Hbond.Weighted>
0.0000

> <Gold.Chemscore.DEClash.Weighted>
0.0127

> <Gold.Chemscore.DEInternal.Weighted>
0.1144

> <Gold.Chemscore.Rot.Weighted>
3.8222

> <Gold.Chemscore.Internal.Correction.Weighted>
   9.000000E+99

> <Gold.Protein.RotatedTorsions>
[ 6907 6896 6895 6894 ] final   67.90 input  -60.11 | X-H torsion
[ 7974 7965 7964 7962 ] final -166.87 input  175.53 | X-H torsion
[ 8008 7997 7996 7995 ] final  109.35 input   59.86 | X-H torsion
[ 10167 10162 10161 10158 ] final  139.78 input  -65.29 | X-H torsion
[ 10718 10713 10712 10709 ] final  163.66 input   66.30 | X-H torsion
[ 10763 10752 10751 10750 ] final  -95.32 input  -60.55 | X-H torsion
[ 11005 11000 10999 10996 ] final   87.08 input  -57.11 | X-H torsion

> <Gold.Protein.ActiveResidues>
 VAL166  LYS551  ARG553  GLY616  TRP617  ASP618  TYR619  PRO620  LYS621  CYS622 
 ASP623  PHE694  ASN695  SER759  ASP760  ASP761  ALA762  ILE779  LEU786  VAL792 
 PHE793  MET794  SER795  GLU796  ALA797  LYS798  CYS799  TRP800  GLU811  SER814 

> <Gold.Protein.RotatedAtoms>
  152.4583  134.5241  159.9791 H   0  0  0  0  0  0  0  0  0  0  0  0  # atno 6907 bound_to 6896
  151.5296  133.3445  159.2923 H   0  0  0  0  0  0  0  0  0  0  0  0  # atno 6908 bound_to 6896
  150.8536  134.7899  159.7091 H   0  0  0  0  0  0  0  0  0  0  0  0  # atno 6909 bound_to 6896
  144.7235  140.2603  143.6266 H   0  0  0  0  0  0  0  0  0  0  0  0  # atno 7974 bound_to 7965
  156.1972  140.3059  155.9452 H   0  0  0  0  0  0  0  0  0  0  0  0  # atno 8008 bound_to 7997
  155.3038  140.0448  157.3048 H   0  0  0  0  0  0  0  0  0  0  0  0  # atno 8009 bound_to 7997
  154.5525  140.2295  155.8472 H   0  0  0  0  0  0  0  0  0  0  0  0  # atno 8010 bound_to 7997
  139.5068  144.6274  151.5903 H   0  0  0  0  0  0  0  0  0  0  0  0  # atno 10167 bound_to 10162
  157.1054  131.0454  151.2480 H   0  0  0  0  0  0  0  0  0  0  0  0  # atno 10718 bound_to 10713
  154.7138  135.5125  153.8706 H   0  0  0  0  0  0  0  0  0  0  0  0  # atno 10763 bound_to 10752
  153.0803  135.6629  154.0069 H   0  0  0  0  0  0  0  0  0  0  0  0  # atno 10764 bound_to 10752
  153.9905  135.3020  155.3392 H   0  0  0  0  0  0  0  0  0  0  0  0  # atno 10765 bound_to 10752
  139.8928  134.8398  156.2810 H   0  0  0  0  0  0  0  0  0  0  0  0  # atno 11005 bound_to 11000
  145.8142  139.2016  143.1975 LP  0  0  0  0  0  0  0  0  0  0  0  0  # atno 17320 bound_to 7965
  146.0570  140.8011  142.9753 LP  0  0  0  0  0  0  0  0  0  0  0  0  # atno 17321 bound_to 7965
  140.5996  143.9634  150.6377 LP  0  0  0  0  0  0  0  0  0  0  0  0  # atno 17342 bound_to 10162
  140.2841  143.3369  152.1123 LP  0  0  0  0  0  0  0  0  0  0  0  0  # atno 17343 bound_to 10162
  157.4605  130.7650  149.7232 LP  0  0  0  0  0  0  0  0  0  0  0  0  # atno 17370 bound_to 10713
  155.9863  130.3976  150.3218 LP  0  0  0  0  0  0  0  0  0  0  0  0  # atno 17371 bound_to 10713
  141.0039  133.7135  156.1003 LP  0  0  0  0  0  0  0  0  0  0  0  0  # atno 17394 bound_to 11000
  140.7461  134.4097  157.5548 LP  0  0  0  0  0  0  0  0  0  0  0  0  # atno 17395 bound_to 11000

$$$$
