AV-unprocessed.smi:1225|AV-procd|sdf|5136|dock5
  -GOLD-   22720 4203D 1   1.00000     0.00000
 Structure written by MMmdl.
 48 50  0  0  0  0  0  0  0  0  1 V2000
  143.6203  145.7700  153.4175 C   0  0  0  0  0  0  0  0  0  0  0  0
  144.6239  144.7253  153.7677 C   0  0  0  0  0  0  0  0  0  0  0  0
  144.6493  144.0897  154.9415 N   0  0  0  0  0  0  0  0  0  0  0  0
  145.6847  143.1556  155.0188 C   0  0  0  0  0  0  0  0  0  0  0  0
  146.4538  143.0840  153.8833 C   0  0  0  0  0  0  0  0  0  0  0  0
  147.6321  142.1979  153.6371 C   0  0  0  0  0  0  0  0  0  0  0  0
  147.7898  141.1470  154.6474 N   0  0  0  0  0  0  0  0  0  0  0  0
  146.7870  140.1037  154.4501 C   0  0  0  0  0  0  0  0  0  0  0  0
  149.1397  140.5715  154.6394 C   0  0  0  0  0  0  0  0  0  0  0  0
  150.2140  141.3495  155.4348 C   0  0  2  0  0  0  0  0  0  0  0  0
  151.4548  140.6836  155.3009 O   0  0  0  0  0  0  0  0  0  0  0  0
  149.9043  141.6171  156.9211 C   0  0  0  0  0  0  0  0  0  0  0  0
  150.9779  142.3281  157.5911 N   0  0  0  0  0  0  0  0  0  0  0  0
  151.3207  143.6211  157.4319 C   0  0  0  0  0  0  0  0  0  0  0  0
  152.3462  144.0713  158.1492 N   0  0  0  0  0  0  0  0  0  0  0  0
  152.7147  142.9367  158.8517 C   0  0  0  0  0  0  0  0  0  0  0  0
  153.7471  142.7365  159.7939 C   0  0  0  0  0  0  0  0  0  0  0  0
  153.9462  141.4723  160.3933 C   0  0  0  0  0  0  0  0  0  0  0  0
  155.0721  141.3009  161.3979 C   0  0  0  0  0  0  0  0  0  0  0  0
  153.1028  140.3838  160.0535 C   0  0  0  0  0  0  0  0  0  0  0  0
  153.2989  139.0164  160.6836 C   0  0  0  0  0  0  0  0  0  0  0  0
  152.0653  140.5672  159.1156 C   0  0  0  0  0  0  0  0  0  0  0  0
  151.8789  141.8291  158.5247 C   0  0  0  0  0  0  0  0  0  0  0  0
  145.8936  144.2028  152.6677 S   0  0  0  0  0  0  0  0  0  0  0  0
  143.1431  146.1604  154.3169 H   0  0  0  0  0  0  0  0  0  0  0  0
  142.8534  145.3458  152.7694 H   0  0  0  0  0  0  0  0  0  0  0  0
  144.1055  146.5945  152.8948 H   0  0  0  0  0  0  0  0  0  0  0  0
  145.8033  142.5783  155.9239 H   0  0  0  0  0  0  0  0  0  0  0  0
  147.5544  141.7466  152.6469 H   0  0  0  0  0  0  0  0  0  0  0  0
  148.5174  142.8269  153.5930 H   0  0  0  0  0  0  0  0  0  0  0  0
  146.8677  139.3393  155.2238 H   0  0  0  0  0  0  0  0  0  0  0  0
  146.9069  139.6191  153.4803 H   0  0  0  0  0  0  0  0  0  0  0  0
  145.7767  140.5099  154.5050 H   0  0  0  0  0  0  0  0  0  0  0  0
  149.1109  139.5643  155.0590 H   0  0  0  0  0  0  0  0  0  0  0  0
  149.4725  140.4348  153.6093 H   0  0  0  0  0  0  0  0  0  0  0  0
  150.3359  142.3138  154.9400 H   0  0  0  0  0  0  0  0  0  0  0  0
  152.0106  140.9387  156.0213 H   0  0  0  0  0  0  0  0  0  0  0  0
  148.9951  142.2112  157.0175 H   0  0  0  0  0  0  0  0  0  0  0  0
  149.7364  140.6798  157.4535 H   0  0  0  0  0  0  0  0  0  0  0  0
  150.7849  144.2687  156.7533 H   0  0  0  0  0  0  0  0  0  0  0  0
  154.3891  143.5660  160.0522 H   0  0  0  0  0  0  0  0  0  0  0  0
  155.7890  140.5595  161.0440 H   0  0  0  0  0  0  0  0  0  0  0  0
  154.6801  140.9725  162.3607 H   0  0  0  0  0  0  0  0  0  0  0  0
  155.6095  142.2362  161.5572 H   0  0  0  0  0  0  0  0  0  0  0  0
  152.5706  138.2969  160.3079 H   0  0  0  0  0  0  0  0  0  0  0  0
  153.1840  139.0746  161.7661 H   0  0  0  0  0  0  0  0  0  0  0  0
  154.2944  138.6325  160.4601 H   0  0  0  0  0  0  0  0  0  0  0  0
  151.4149  139.7477  158.8476 H   0  0  0  0  0  0  0  0  0  0  0  0
  1  2  1  0  0  0  0
  1 25  1  0  0  0  0
  1 26  1  0  0  0  0
  1 27  1  0  0  0  0
  2 24  1  0  0  0  0
  2  3  2  0  0  0  0
  3  4  1  0  0  0  0
  4  5  2  0  0  0  0
  4 28  1  0  0  0  0
  5  6  1  0  0  0  0
  5 24  1  0  0  0  0
  6  7  1  0  0  0  0
  6 29  1  0  0  0  0
  6 30  1  0  0  0  0
  7  8  1  0  0  0  0
  7  9  1  0  0  0  0
  8 31  1  0  0  0  0
  8 32  1  0  0  0  0
  8 33  1  0  0  0  0
  9 10  1  0  0  0  0
  9 34  1  0  0  0  0
  9 35  1  0  0  0  0
 10 11  1  0  0  0  0
 10 12  1  0  0  0  0
 10 36  1  0  0  0  0
 11 37  1  0  0  0  0
 12 13  1  0  0  0  0
 12 38  1  0  0  0  0
 12 39  1  0  0  0  0
 13 23  1  0  0  0  0
 13 14  1  0  0  0  0
 14 15  2  0  0  0  0
 14 40  1  0  0  0  0
 15 16  1  0  0  0  0
 16 23  2  0  0  0  0
 16 17  1  0  0  0  0
 17 18  2  0  0  0  0
 17 41  1  0  0  0  0
 18 19  1  0  0  0  0
 18 20  1  0  0  0  0
 19 42  1  0  0  0  0
 19 43  1  0  0  0  0
 19 44  1  0  0  0  0
 20 21  1  0  0  0  0
 20 22  2  0  0  0  0
 21 45  1  0  0  0  0
 21 46  1  0  0  0  0
 21 47  1  0  0  0  0
 22 23  1  0  0  0  0
 22 48  1  0  0  0  0
M  END
> <s_m_source_file>
AV-unprocessed.smi

> <i_m_source_file_index>
1225

> <i_lp_mmshare_version>
43012

> <i_f3d_flags>
0

> <s_epik_input>
W0NIM11jMW5bY0hdYyhzMSlbQ0gyXU4oW0NIM10pW0NIMl1bQ0BIXShbT0hdKVtDSDJdbihbY0hdbjIpYyhjMjMpW2NIXWMoW0NIM10pYyhbY0hdMylbQ0gzXQ==

> <s_epik_cmdline>
J2VwaWtfcHl0aG9uJywgJy1waCcsICc3LjAnLCAnLXRuJywgJzgnLCAnLW1hJywgJzIwMCcsICctbWV0YWxfYmluZGluZycsICctaW1hZScsICc8aW5maWxlLm1hZT4nLCAnLW9tYWUnLCAnPG91dGZpbGUubWFlPic=

> <r_epik_Ionization_Penalty>
0.12717

> <r_epik_Ionization_Penalty_Charging>
0

> <r_epik_Ionization_Penalty_Neutral>
0.12717

> <r_epik_State_Penalty>
0.11216

> <r_epik_Charging_Adjusted_Penalty>
0.11216

> <i_epik_Tot_Q>
0

> <i_epik_Tot_abs_Q>
0

> <r_epik_Metal_State_Penalty>
0.099641

> <b_epik_Metal_Only>
0

> <s_lp_Force_Field>
OPLS_2005

> <r_lp_Energy>
23.0021

> <b_lp_Chiralities_Consistent>
1

> <s_lp_Variant>
AV-unprocessed.smi:1225-1

> <Gold.Version>
5.8.1

> <Gold.Id.Protein>
6NUR|6NUR_protein|mol2

> <Gold.PLP.Fitness>
54.5671

> <Gold.PLP.PLP>
-49.9160

> <Gold.PLP.part.hbond>
-1.0000

> <Gold.PLP.part.metal>
0.0000

> <Gold.PLP.part.buried>
-6.3468

> <Gold.PLP.part.nonpolar>
-41.4439

> <Gold.PLP.part.repulsive>
0.2699

> <Gold.PLP.ligand.clash>
0.0000

> <Gold.PLP.ligand.torsion>
0.6774

> <Gold.PLP.Chemscore.Hbond>
0.9280

> <Gold.PLP.Chemscore.CHOScore>
1.0000

> <Gold.PLP.Chemscore.Metal>
0.0000

> <Gold.Chemscore.Hbonds>
donor molecule, donor type, donor heavy atom, donor atom, acceptor molecule, acceptor atom, score
      P1  H  7989  7998       L1    11  0.69
      L1  C    14    40       P1  8028  1.00

> <Gold.PLP.Chemscore.Internal.Correction>
0.2220

> <Gold.Rescore>
     Score         DG    S(hbond)    S(metal)    S(lipo)     H(rot)  DE(clash)    DE(int)     intcor
     16.33     -17.07       0.91        0.00     123.11       2.28       0.13       0.62       ----

> <Gold.Chemscore.Fitness>
16.3272

> <Gold.Chemscore.DG>
-17.0707

> <Gold.Chemscore.ZeroCoef>
-5.4800

> <Gold.Chemscore.Hbond>
0.9086

> <Gold.Chemscore.Metal>
0.0000

> <Gold.Chemscore.Lipo>
123.1100

> <Gold.Chemscore.Internal_Hbond>
0.0000

> <Gold.Chemscore.DEClash>
0.1268

> <Gold.Chemscore.DEInternal>
0.6167

> <Gold.Chemscore.Rot>
2.2844

> <Gold.Chemscore.Internal.Correction>
   9.000000E+99

> <Gold.Chemscore.Hbonds>
donor molecule, donor type, donor heavy atom, donor atom, acceptor molecule, acceptor atom, score
      P1  H  7989  7998       L1    11  0.14

> <Gold.Chemscore.Hbond.Weighted>
-3.0349

> <Gold.Chemscore.Metal.Weighted>
-0.0000

> <Gold.Chemscore.Lipo.Weighted>
-14.4039

> <Gold.Chemscore.Internal_Hbond.Weighted>
0.0000

> <Gold.Chemscore.DEClash.Weighted>
0.1268

> <Gold.Chemscore.DEInternal.Weighted>
0.6167

> <Gold.Chemscore.Rot.Weighted>
5.8480

> <Gold.Chemscore.Internal.Correction.Weighted>
   9.000000E+99

> <Gold.Protein.RotatedTorsions>
[ 6907 6896 6895 6894 ] final   25.00 input  -60.11 | X-H torsion
[ 7974 7965 7964 7962 ] final   76.83 input  175.53 | X-H torsion
[ 8008 7997 7996 7995 ] final   65.93 input   59.86 | X-H torsion
[ 10167 10162 10161 10158 ] final  -80.51 input  -65.29 | X-H torsion
[ 10718 10713 10712 10709 ] final   76.39 input   66.30 | X-H torsion
[ 10763 10752 10751 10750 ] final -102.29 input  -60.55 | X-H torsion
[ 11005 11000 10999 10996 ] final -135.32 input  -57.11 | X-H torsion

> <Gold.Protein.ActiveResidues>
 VAL166  LYS551  ARG553  GLY616  TRP617  ASP618  TYR619  PRO620  LYS621  CYS622 
 ASP623  PHE694  ASN695  SER759  ASP760  ASP761  ALA762  ILE779  LEU786  VAL792 
 PHE793  MET794  SER795  GLU796  ALA797  LYS798  CYS799  TRP800  GLU811  SER814 

> <Gold.Protein.RotatedAtoms>
  151.9660  135.0100  160.0550 H   0  0  0  0  0  0  0  0  0  0  0  0  # atno 6907 bound_to 6896
  152.1826  133.4713  159.4974 H   0  0  0  0  0  0  0  0  0  0  0  0  # atno 6908 bound_to 6896
  150.6920  134.1732  159.4263 H   0  0  0  0  0  0  0  0  0  0  0  0  # atno 6909 bound_to 6896
  145.6979  139.2573  143.1722 H   0  0  0  0  0  0  0  0  0  0  0  0  # atno 7974 bound_to 7965
  155.6695  140.3497  155.4813 H   0  0  0  0  0  0  0  0  0  0  0  0  # atno 8008 bound_to 7997
  155.9700  140.1154  157.0843 H   0  0  0  0  0  0  0  0  0  0  0  0  # atno 8009 bound_to 7997
  154.4164  140.1159  156.5280 H   0  0  0  0  0  0  0  0  0  0  0  0  # atno 8010 bound_to 7997
  140.4497  143.2487  151.8507 H   0  0  0  0  0  0  0  0  0  0  0  0  # atno 10167 bound_to 10162
  157.6672  130.9772  150.1490 H   0  0  0  0  0  0  0  0  0  0  0  0  # atno 10718 bound_to 10713
  154.7722  135.4866  153.9672 H   0  0  0  0  0  0  0  0  0  0  0  0  # atno 10763 bound_to 10752
  153.1383  135.6767  153.9075 H   0  0  0  0  0  0  0  0  0  0  0  0  # atno 10764 bound_to 10752
  153.8758  135.3138  155.3422 H   0  0  0  0  0  0  0  0  0  0  0  0  # atno 10765 bound_to 10752
  140.8909  134.1813  157.4528 H   0  0  0  0  0  0  0  0  0  0  0  0  # atno 11005 bound_to 11000
  146.0824  140.7749  142.9635 LP  0  0  0  0  0  0  0  0  0  0  0  0  # atno 17320 bound_to 7965
  144.6977  140.3510  143.7182 LP  0  0  0  0  0  0  0  0  0  0  0  0  # atno 17321 bound_to 7965
  139.4795  144.5135  151.8900 LP  0  0  0  0  0  0  0  0  0  0  0  0  # atno 17342 bound_to 10162
  140.4222  144.2228  150.5887 LP  0  0  0  0  0  0  0  0  0  0  0  0  # atno 17343 bound_to 10162
  156.2294  130.3681  149.8462 LP  0  0  0  0  0  0  0  0  0  0  0  0  # atno 17370 bound_to 10713
  156.6293  130.8659  151.3492 LP  0  0  0  0  0  0  0  0  0  0  0  0  # atno 17371 bound_to 10713
  139.8729  134.9858  156.5297 LP  0  0  0  0  0  0  0  0  0  0  0  0  # atno 17394 bound_to 11000
  140.8348  133.8251  155.9018 LP  0  0  0  0  0  0  0  0  0  0  0  0  # atno 17395 bound_to 11000

$$$$
