AV-unprocessed.smi:1209|AV-procd|sdf|5069|dock5
  -GOLD-   22720 4113D 1   1.00000     0.00000
 Structure written by MMmdl.
 48 50  0  0  0  0  0  0  0  0  1 V2000
  146.5561  145.2436  160.2169 C   0  0  0  0  0  0  0  0  0  0  0  0
  146.4097  143.9838  159.4346 C   0  0  0  0  0  0  0  0  0  0  0  0
  145.5420  143.5915  158.4558 C   0  0  0  0  0  0  0  0  0  0  0  0
  145.9603  142.2674  158.1463 C   0  0  0  0  0  0  0  0  0  0  0  0
  145.3803  141.3141  157.1346 C   0  0  0  0  0  0  0  0  0  0  0  0
  145.9508  141.4654  155.7945 N   0  0  0  0  0  0  0  0  0  0  0  0
  145.8016  142.8395  155.3141 C   0  0  0  0  0  0  0  0  0  0  0  0
  147.3527  141.0369  155.7859 C   0  0  0  0  0  0  0  0  0  0  0  0
  148.1198  141.2718  154.4680 C   0  0  2  0  0  0  0  0  0  0  0  0
  148.1564  140.0549  153.7473 O   0  0  0  0  0  0  0  0  0  0  0  0
  149.5617  141.7456  154.7339 C   0  0  0  0  0  0  0  0  0  0  0  0
  150.1494  141.1165  155.9040 N   0  0  0  0  0  0  0  0  0  0  0  0
  150.1406  139.8047  156.2089 C   0  0  0  0  0  0  0  0  0  0  0  0
  150.7413  139.4378  157.3373 N   0  0  0  0  0  0  0  0  0  0  0  0
  151.1932  140.6536  157.8212 C   0  0  0  0  0  0  0  0  0  0  0  0
  151.9147  140.9628  158.9952 C   0  0  0  0  0  0  0  0  0  0  0  0
  152.2727  142.2966  159.2957 C   0  0  0  0  0  0  0  0  0  0  0  0
  153.0473  142.5846  160.5697 C   0  0  0  0  0  0  0  0  0  0  0  0
  151.9086  143.3459  158.4140 C   0  0  0  0  0  0  0  0  0  0  0  0
  152.2802  144.7865  158.7167 C   0  0  0  0  0  0  0  0  0  0  0  0
  151.1898  143.0542  157.2359 C   0  0  0  0  0  0  0  0  0  0  0  0
  150.8393  141.7235  156.9480 C   0  0  0  0  0  0  0  0  0  0  0  0
  146.9942  141.8954  158.8832 N   0  0  0  0  0  0  0  0  0  0  0  0
  147.2888  142.9859  159.7092 O   0  0  0  0  0  0  0  0  0  0  0  0
  146.0908  146.0805  159.6961 H   0  0  0  0  0  0  0  0  0  0  0  0
  147.6076  145.4858  160.3720 H   0  0  0  0  0  0  0  0  0  0  0  0
  146.0823  145.1473  161.1939 H   0  0  0  0  0  0  0  0  0  0  0  0
  144.7332  144.1619  158.0240 H   0  0  0  0  0  0  0  0  0  0  0  0
  145.4996  140.2826  157.4706 H   0  0  0  0  0  0  0  0  0  0  0  0
  144.3044  141.4877  157.0894 H   0  0  0  0  0  0  0  0  0  0  0  0
  146.1460  142.9450  154.2868 H   0  0  0  0  0  0  0  0  0  0  0  0
  146.3640  143.5373  155.9357 H   0  0  0  0  0  0  0  0  0  0  0  0
  144.7565  143.1496  155.3222 H   0  0  0  0  0  0  0  0  0  0  0  0
  147.8787  141.5371  156.6008 H   0  0  0  0  0  0  0  0  0  0  0  0
  147.4083  139.9712  156.0140 H   0  0  0  0  0  0  0  0  0  0  0  0
  147.6236  142.0216  153.8537 H   0  0  0  0  0  0  0  0  0  0  0  0
  148.7761  140.1443  153.0394 H   0  0  0  0  0  0  0  0  0  0  0  0
  150.1946  141.5213  153.8741 H   0  0  0  0  0  0  0  0  0  0  0  0
  149.5924  142.8280  154.8665 H   0  0  0  0  0  0  0  0  0  0  0  0
  149.6652  139.0781  155.5662 H   0  0  0  0  0  0  0  0  0  0  0  0
  152.1910  140.1634  159.6670 H   0  0  0  0  0  0  0  0  0  0  0  0
  154.0023  143.0563  160.3375 H   0  0  0  0  0  0  0  0  0  0  0  0
  153.2527  141.6700  161.1262 H   0  0  0  0  0  0  0  0  0  0  0  0
  152.4797  143.2510  161.2194 H   0  0  0  0  0  0  0  0  0  0  0  0
  151.9043  145.4636  157.9491 H   0  0  0  0  0  0  0  0  0  0  0  0
  153.3635  144.9003  158.7621 H   0  0  0  0  0  0  0  0  0  0  0  0
  151.8579  145.0983  159.6721 H   0  0  0  0  0  0  0  0  0  0  0  0
  150.9043  143.8441  156.5568 H   0  0  0  0  0  0  0  0  0  0  0  0
  1  2  1  0  0  0  0
  1 25  1  0  0  0  0
  1 26  1  0  0  0  0
  1 27  1  0  0  0  0
  2 24  1  0  0  0  0
  2  3  2  0  0  0  0
  3  4  1  0  0  0  0
  3 28  1  0  0  0  0
  4  5  1  0  0  0  0
  4 23  2  0  0  0  0
  5  6  1  0  0  0  0
  5 29  1  0  0  0  0
  5 30  1  0  0  0  0
  6  7  1  0  0  0  0
  6  8  1  0  0  0  0
  7 31  1  0  0  0  0
  7 32  1  0  0  0  0
  7 33  1  0  0  0  0
  8  9  1  0  0  0  0
  8 34  1  0  0  0  0
  8 35  1  0  0  0  0
  9 10  1  0  0  0  0
  9 11  1  0  0  0  0
  9 36  1  0  0  0  0
 10 37  1  0  0  0  0
 11 12  1  0  0  0  0
 11 38  1  0  0  0  0
 11 39  1  0  0  0  0
 12 22  1  0  0  0  0
 12 13  1  0  0  0  0
 13 14  2  0  0  0  0
 13 40  1  0  0  0  0
 14 15  1  0  0  0  0
 15 22  2  0  0  0  0
 15 16  1  0  0  0  0
 16 17  2  0  0  0  0
 16 41  1  0  0  0  0
 17 18  1  0  0  0  0
 17 19  1  0  0  0  0
 18 42  1  0  0  0  0
 18 43  1  0  0  0  0
 18 44  1  0  0  0  0
 19 20  1  0  0  0  0
 19 21  2  0  0  0  0
 20 45  1  0  0  0  0
 20 46  1  0  0  0  0
 20 47  1  0  0  0  0
 21 22  1  0  0  0  0
 21 48  1  0  0  0  0
 23 24  1  0  0  0  0
M  END
> <s_m_source_file>
AV-unprocessed.smi

> <i_m_source_file_index>
1209

> <i_lp_mmshare_version>
43012

> <i_f3d_flags>
0

> <s_epik_input>
W0NIM11jMVtjSF1jKG5vMSlbQ0gyXU4oW0NIM10pW0NIMl1bQ0BIXShbT0hdKVtDSDJdbihbY0hdbjIpYyhjMjMpW2NIXWMoW0NIM10pYyhbY0hdMylbQ0gzXQ==

> <s_epik_cmdline>
J2VwaWtfcHl0aG9uJywgJy1waCcsICc3LjAnLCAnLXRuJywgJzgnLCAnLW1hJywgJzIwMCcsICctbWV0YWxfYmluZGluZycsICctaW1hZScsICc8aW5maWxlLm1hZT4nLCAnLW9tYWUnLCAnPG91dGZpbGUubWFlPic=

> <r_epik_Ionization_Penalty>
0.103258

> <r_epik_Ionization_Penalty_Charging>
0

> <r_epik_Ionization_Penalty_Neutral>
0.103258

> <r_epik_State_Penalty>
0.0919675

> <r_epik_Charging_Adjusted_Penalty>
0.0919675

> <i_epik_Tot_Q>
0

> <i_epik_Tot_abs_Q>
0

> <r_epik_Metal_State_Penalty>
0.0812522

> <b_epik_Metal_Only>
0

> <s_lp_Force_Field>
OPLS_2005

> <r_lp_Energy>
18.8485

> <b_lp_Chiralities_Consistent>
1

> <s_lp_Variant>
AV-unprocessed.smi:1209-1

> <Gold.Version>
5.8.1

> <Gold.Id.Protein>
6NUR|6NUR_protein|mol2

> <Gold.PLP.Fitness>
46.1809

> <Gold.PLP.PLP>
-43.4165

> <Gold.PLP.part.hbond>
-3.8319

> <Gold.PLP.part.metal>
0.0000

> <Gold.PLP.part.buried>
-3.6840

> <Gold.PLP.part.nonpolar>
-35.9781

> <Gold.PLP.part.repulsive>
0.1798

> <Gold.PLP.ligand.clash>
0.0000

> <Gold.PLP.ligand.torsion>
1.3699

> <Gold.PLP.Chemscore.Hbond>
1.7675

> <Gold.PLP.Chemscore.CHOScore>
0.0000

> <Gold.PLP.Chemscore.Metal>
0.0000

> <Gold.Chemscore.Hbonds>
donor molecule, donor type, donor heavy atom, donor atom, acceptor molecule, acceptor atom, score
      L1  H    10    37       P1  7957  0.94
      P1  H  6933  6944       L1    24  0.49
      P1  H  6934  6946       L1    23  0.10

> <Gold.PLP.Chemscore.Internal.Correction>
0.2017

> <Gold.Rescore>
     Score         DG    S(hbond)    S(metal)    S(lipo)     H(rot)  DE(clash)    DE(int)     intcor
     15.86     -17.42       1.65        0.00     108.59       2.45       0.37       1.18       ----

> <Gold.Chemscore.Fitness>
15.8628

> <Gold.Chemscore.DG>
-17.4186

> <Gold.Chemscore.ZeroCoef>
-5.4800

> <Gold.Chemscore.Hbond>
1.6454

> <Gold.Chemscore.Metal>
0.0000

> <Gold.Chemscore.Lipo>
108.5931

> <Gold.Chemscore.Internal_Hbond>
0.0000

> <Gold.Chemscore.DEClash>
0.3735

> <Gold.Chemscore.DEInternal>
1.1822

> <Gold.Chemscore.Rot>
2.4462

> <Gold.Chemscore.Internal.Correction>
   9.000000E+99

> <Gold.Chemscore.Hbonds>
donor molecule, donor type, donor heavy atom, donor atom, acceptor molecule, acceptor atom, score
      L1  H    10    37       P1  7957  0.90
      P1  H  6933  6944       L1    24  0.35

> <Gold.Chemscore.Hbond.Weighted>
-5.4955

> <Gold.Chemscore.Metal.Weighted>
-0.0000

> <Gold.Chemscore.Lipo.Weighted>
-12.7054

> <Gold.Chemscore.Internal_Hbond.Weighted>
0.0000

> <Gold.Chemscore.DEClash.Weighted>
0.3735

> <Gold.Chemscore.DEInternal.Weighted>
1.1822

> <Gold.Chemscore.Rot.Weighted>
6.2623

> <Gold.Chemscore.Internal.Correction.Weighted>
   9.000000E+99

> <Gold.Protein.RotatedTorsions>
[ 6907 6896 6895 6894 ] final    6.45 input  -60.11 | X-H torsion
[ 7974 7965 7964 7962 ] final   91.71 input  175.53 | X-H torsion
[ 8008 7997 7996 7995 ] final   21.07 input   59.86 | X-H torsion
[ 10167 10162 10161 10158 ] final  145.26 input  -65.29 | X-H torsion
[ 10718 10713 10712 10709 ] final -134.00 input   66.30 | X-H torsion
[ 10763 10752 10751 10750 ] final  -44.68 input  -60.55 | X-H torsion
[ 11005 11000 10999 10996 ] final  134.89 input  -57.11 | X-H torsion

> <Gold.Protein.ActiveResidues>
 VAL166  LYS551  ARG553  GLY616  TRP617  ASP618  TYR619  PRO620  LYS621  CYS622 
 ASP623  PHE694  ASN695  SER759  ASP760  ASP761  ALA762  ILE779  LEU786  VAL792 
 PHE793  MET794  SER795  GLU796  ALA797  LYS798  CYS799  TRP800  GLU811  SER814 

> <Gold.Protein.RotatedAtoms>
  151.6740  135.0972  160.0203 H   0  0  0  0  0  0  0  0  0  0  0  0  # atno 6907 bound_to 6896
  152.3875  133.6627  159.6219 H   0  0  0  0  0  0  0  0  0  0  0  0  # atno 6908 bound_to 6896
  150.7797  133.8927  159.3359 H   0  0  0  0  0  0  0  0  0  0  0  0  # atno 6909 bound_to 6896
  145.5020  139.2276  143.2772 H   0  0  0  0  0  0  0  0  0  0  0  0  # atno 7974 bound_to 7965
  154.9451  140.3058  155.5102 H   0  0  0  0  0  0  0  0  0  0  0  0  # atno 8008 bound_to 7997
  156.2992  140.2329  156.4461 H   0  0  0  0  0  0  0  0  0  0  0  0  # atno 8009 bound_to 7997
  154.8108  140.0428  157.1330 H   0  0  0  0  0  0  0  0  0  0  0  0  # atno 8010 bound_to 7997
  139.4930  144.5914  151.6673 H   0  0  0  0  0  0  0  0  0  0  0  0  # atno 10167 bound_to 10162
  156.2508  130.7152  151.1050 H   0  0  0  0  0  0  0  0  0  0  0  0  # atno 10718 bound_to 10713
  154.0161  135.6675  153.4769 H   0  0  0  0  0  0  0  0  0  0  0  0  # atno 10763 bound_to 10752
  153.0600  135.5033  154.8067 H   0  0  0  0  0  0  0  0  0  0  0  0  # atno 10764 bound_to 10752
  154.6966  135.3071  154.9367 H   0  0  0  0  0  0  0  0  0  0  0  0  # atno 10765 bound_to 10752
  139.9944  134.9503  156.9930 H   0  0  0  0  0  0  0  0  0  0  0  0  # atno 11005 bound_to 11000
  146.2220  140.5821  142.9013 LP  0  0  0  0  0  0  0  0  0  0  0  0  # atno 17320 bound_to 7965
  144.7775  140.5770  143.6628 LP  0  0  0  0  0  0  0  0  0  0  0  0  # atno 17321 bound_to 7965
  140.5542  144.0376  150.6140 LP  0  0  0  0  0  0  0  0  0  0  0  0  # atno 17342 bound_to 10162
  140.3440  143.3002  152.0558 LP  0  0  0  0  0  0  0  0  0  0  0  0  # atno 17343 bound_to 10162
  157.7213  131.0679  150.6121 LP  0  0  0  0  0  0  0  0  0  0  0  0  # atno 17370 bound_to 10713
  156.6201  130.4403  149.5825 LP  0  0  0  0  0  0  0  0  0  0  0  0  # atno 17371 bound_to 10713
  140.4847  134.1254  155.7222 LP  0  0  0  0  0  0  0  0  0  0  0  0  # atno 17394 bound_to 11000
  141.1592  133.8825  157.1894 LP  0  0  0  0  0  0  0  0  0  0  0  0  # atno 17395 bound_to 11000

$$$$
