AV-unprocessed.smi:2831|AV-procd|sdf|10909|dock10
  -GOLD-   2272015353D 1   1.00000     0.00000
 Structure written by MMmdl.
 30 31  0  0  0  0  0  0  0  0  1 V2000
  139.8189  139.0348  153.7919 C   0  0  0  0  0  0  0  0  0  0  0  0
  140.3390  137.6380  153.7722 C   0  0  0  0  0  0  0  0  0  0  0  0
  139.5874  136.5839  154.1121 N   0  0  0  0  0  0  0  0  0  0  0  0
  140.2834  135.3872  154.0120 N   0  0  0  0  0  0  0  0  0  0  0  0
  141.5436  135.5751  153.5965 C   0  0  0  0  0  0  0  0  0  0  0  0
  142.4769  134.5221  153.4051 N   0  0  0  0  0  0  0  0  0  0  0  0
  143.5579  134.5020  152.6058 C   0  0  0  0  0  0  0  0  0  0  0  0
  143.9186  135.4257  151.8762 O   0  0  0  0  0  0  0  0  0  0  0  0
  144.2081  133.3305  152.7025 N   0  0  0  0  0  0  0  0  0  0  0  0
  145.4431  132.9385  152.0138 C   0  0  2  0  0  0  0  0  0  0  0  0
  146.6698  133.6058  152.6733 C   0  0  0  0  0  0  0  0  0  0  0  0
  145.3886  133.2103  150.4993 C   0  0  0  0  0  0  0  0  0  0  0  0
  145.5237  131.8357  149.8462 C   0  0  0  0  0  0  0  0  0  0  0  0
  146.1749  131.0572  150.8330 O   0  0  0  0  0  0  0  0  0  0  0  0
  145.5792  131.4070  152.0699 C   0  0  0  0  0  0  0  0  0  0  0  0
  141.9867  137.2464  153.2940 S   0  0  0  0  0  0  0  0  0  0  0  0
  139.2033  139.1962  154.6772 H   0  0  0  0  0  0  0  0  0  0  0  0
  139.2135  139.2195  152.9044 H   0  0  0  0  0  0  0  0  0  0  0  0
  140.6444  139.7467  153.8073 H   0  0  0  0  0  0  0  0  0  0  0  0
  142.3072  133.6897  153.9503 H   0  0  0  0  0  0  0  0  0  0  0  0
  143.8191  132.6402  153.3280 H   0  0  0  0  0  0  0  0  0  0  0  0
  147.5987  133.2447  152.2302 H   0  0  0  0  0  0  0  0  0  0  0  0
  146.7119  133.3894  153.7415 H   0  0  0  0  0  0  0  0  0  0  0  0
  146.6566  134.6894  152.5567 H   0  0  0  0  0  0  0  0  0  0  0  0
  144.4725  133.7015  150.1697 H   0  0  0  0  0  0  0  0  0  0  0  0
  146.2189  133.8480  150.1931 H   0  0  0  0  0  0  0  0  0  0  0  0
  144.5419  131.4080  149.6362 H   0  0  0  0  0  0  0  0  0  0  0  0
  146.0913  131.8646  148.9158 H   0  0  0  0  0  0  0  0  0  0  0  0
  146.1779  131.0579  152.9121 H   0  0  0  0  0  0  0  0  0  0  0  0
  144.6045  130.9186  152.1328 H   0  0  0  0  0  0  0  0  0  0  0  0
  1  2  1  0  0  0  0
  1 17  1  0  0  0  0
  1 18  1  0  0  0  0
  1 19  1  0  0  0  0
  2 16  1  0  0  0  0
  2  3  2  0  0  0  0
  3  4  1  0  0  0  0
  4  5  2  0  0  0  0
  5  6  1  0  0  0  0
  5 16  1  0  0  0  0
  6  7  1  0  0  0  0
  6 20  1  0  0  0  0
  7  8  2  0  0  0  0
  7  9  1  0  0  0  0
  9 10  1  0  0  0  0
  9 21  1  0  0  0  0
 10 15  1  0  0  0  0
 10 11  1  0  0  0  0
 10 12  1  0  0  0  0
 11 22  1  0  0  0  0
 11 23  1  0  0  0  0
 11 24  1  0  0  0  0
 12 13  1  0  0  0  0
 12 25  1  0  0  0  0
 12 26  1  0  0  0  0
 13 14  1  0  0  0  0
 13 27  1  0  0  0  0
 13 28  1  0  0  0  0
 14 15  1  0  0  0  0
 15 29  1  0  0  0  0
 15 30  1  0  0  0  0
M  END
> <s_m_source_file>
AV-unprocessed.smi

> <i_m_source_file_index>
2831

> <i_lp_mmshare_version>
43012

> <i_f3d_flags>
0

> <s_epik_input>
W0NIM11jMW5uYyhzMSlbTkhdQyg9TylbTkhdW0NAQF0yKFtDSDNdKVtDSDJdW0NIMl1PW0NIMl0y

> <s_epik_cmdline>
J2VwaWtfcHl0aG9uJywgJy1waCcsICc3LjAnLCAnLXRuJywgJzgnLCAnLW1hJywgJzIwMCcsICctbWV0YWxfYmluZGluZycsICctaW1hZScsICc8aW5maWxlLm1hZT4nLCAnLW9tYWUnLCAnPG91dGZpbGUubWFlPic=

> <r_lp_tautomer_probability>
1

> <r_epik_Ionization_Penalty>
0.00277018

> <r_epik_Ionization_Penalty_Charging>
0

> <r_epik_Ionization_Penalty_Neutral>
0.00277018

> <r_epik_State_Penalty>
-0

> <r_epik_Charging_Adjusted_Penalty>
0

> <i_epik_Tot_Q>
0

> <i_epik_Tot_abs_Q>
0

> <r_epik_Metal_State_Penalty>
0.356997

> <b_epik_Metal_Only>
0

> <s_lp_Force_Field>
OPLS_2005

> <r_lp_Energy>
14.9894

> <b_lp_Chiralities_Consistent>
1

> <s_lp_Variant>
AV-unprocessed.smi:2831-2

> <Gold.Version>
5.8.1

> <Gold.Id.Protein>
6NUR|6NUR_protein|mol2

> <Gold.PLP.Fitness>
34.8216

> <Gold.PLP.PLP>
-27.2083

> <Gold.PLP.part.hbond>
-3.8439

> <Gold.PLP.part.metal>
0.0000

> <Gold.PLP.part.buried>
-7.6004

> <Gold.PLP.part.nonpolar>
-18.2051

> <Gold.PLP.part.repulsive>
2.3724

> <Gold.PLP.ligand.clash>
0.0000

> <Gold.PLP.ligand.torsion>
0.4027

> <Gold.PLP.Chemscore.Hbond>
2.7963

> <Gold.PLP.Chemscore.CHOScore>
0.0000

> <Gold.PLP.Chemscore.Metal>
0.0000

> <Gold.Chemscore.Hbonds>
donor molecule, donor type, donor heavy atom, donor atom, acceptor molecule, acceptor atom, score
      L1  H     6    20       P1 10957  0.78
      L1  H     9    21       P1 10957  0.98
      P1  H 11000 11005       L1     4  1.00

> <Gold.PLP.Chemscore.Internal.Correction>
0.0300

> <Gold.Rescore>
     Score         DG    S(hbond)    S(metal)    S(lipo)     H(rot)  DE(clash)    DE(int)     intcor
     14.87     -16.42       2.28        0.00      50.13       1.00       0.01       1.54       ----

> <Gold.Chemscore.Fitness>
14.8676

> <Gold.Chemscore.DG>
-16.4150

> <Gold.Chemscore.ZeroCoef>
-5.4800

> <Gold.Chemscore.Hbond>
2.2844

> <Gold.Chemscore.Metal>
0.0000

> <Gold.Chemscore.Lipo>
50.1301

> <Gold.Chemscore.Internal_Hbond>
0.0000

> <Gold.Chemscore.DEClash>
0.0111

> <Gold.Chemscore.DEInternal>
1.5363

> <Gold.Chemscore.Rot>
1.0000

> <Gold.Chemscore.Internal.Correction>
   9.000000E+99

> <Gold.Chemscore.Hbonds>
donor molecule, donor type, donor heavy atom, donor atom, acceptor molecule, acceptor atom, score
      L1  H     6    20       P1 10957  0.78
      L1  H     9    21       P1 10957  0.32
      P1  H 11000 11005       L1     4  0.59

> <Gold.Chemscore.Hbond.Weighted>
-7.6298

> <Gold.Chemscore.Metal.Weighted>
-0.0000

> <Gold.Chemscore.Lipo.Weighted>
-5.8652

> <Gold.Chemscore.Internal_Hbond.Weighted>
0.0000

> <Gold.Chemscore.DEClash.Weighted>
0.0111

> <Gold.Chemscore.DEInternal.Weighted>
1.5363

> <Gold.Chemscore.Rot.Weighted>
2.5600

> <Gold.Chemscore.Internal.Correction.Weighted>
   9.000000E+99

> <Gold.Protein.RotatedTorsions>
[ 6907 6896 6895 6894 ] final  -50.22 input  -60.11 | X-H torsion
[ 7974 7965 7964 7962 ] final -113.72 input  175.53 | X-H torsion
[ 8008 7997 7996 7995 ] final -121.33 input   59.86 | X-H torsion
[ 10167 10162 10161 10158 ] final -174.85 input  -65.29 | X-H torsion
[ 10718 10713 10712 10709 ] final  173.54 input   66.30 | X-H torsion
[ 10763 10752 10751 10750 ] final   39.36 input  -60.55 | X-H torsion
[ 11005 11000 10999 10996 ] final   36.14 input  -57.11 | X-H torsion

> <Gold.Protein.ActiveResidues>
 VAL166  LYS551  ARG553  GLY616  TRP617  ASP618  TYR619  PRO620  LYS621  CYS622 
 ASP623  PHE694  ASN695  SER759  ASP760  ASP761  ALA762  ILE779  LEU786  VAL792 
 PHE793  MET794  SER795  GLU796  ALA797  LYS798  CYS799  TRP800  GLU811  SER814 

> <Gold.Protein.RotatedAtoms>
  150.8729  134.8106  159.7167 H   0  0  0  0  0  0  0  0  0  0  0  0  # atno 6907 bound_to 6896
  152.4726  134.4918  159.9707 H   0  0  0  0  0  0  0  0  0  0  0  0  # atno 6908 bound_to 6896
  151.5004  133.3467  159.2903 H   0  0  0  0  0  0  0  0  0  0  0  0  # atno 6909 bound_to 6896
  145.1286  140.8711  143.3771 H   0  0  0  0  0  0  0  0  0  0  0  0  # atno 7974 bound_to 7965
  155.1463  140.0403  157.2810 H   0  0  0  0  0  0  0  0  0  0  0  0  # atno 8008 bound_to 7997
  154.6436  140.2553  155.7267 H   0  0  0  0  0  0  0  0  0  0  0  0  # atno 8009 bound_to 7997
  156.2544  140.2850  156.0840 H   0  0  0  0  0  0  0  0  0  0  0  0  # atno 8010 bound_to 7997
  139.5612  144.1866  152.1241 H   0  0  0  0  0  0  0  0  0  0  0  0  # atno 10167 bound_to 10162
  156.9627  131.0066  151.2923 H   0  0  0  0  0  0  0  0  0  0  0  0  # atno 10718 bound_to 10713
  152.9970  135.6223  154.2453 H   0  0  0  0  0  0  0  0  0  0  0  0  # atno 10763 bound_to 10752
  154.2193  135.2796  155.2932 H   0  0  0  0  0  0  0  0  0  0  0  0  # atno 10764 bound_to 10752
  154.5542  135.5724  153.7008 H   0  0  0  0  0  0  0  0  0  0  0  0  # atno 10765 bound_to 10752
  140.2355  134.3476  155.7946 H   0  0  0  0  0  0  0  0  0  0  0  0  # atno 11005 bound_to 11000
  145.0660  139.3068  143.5856 LP  0  0  0  0  0  0  0  0  0  0  0  0  # atno 17320 bound_to 7965
  146.3515  140.0119  142.8666 LP  0  0  0  0  0  0  0  0  0  0  0  0  # atno 17321 bound_to 7965
  140.1380  144.5228  150.6761 LP  0  0  0  0  0  0  0  0  0  0  0  0  # atno 17342 bound_to 10162
  140.6891  143.2366  151.5179 LP  0  0  0  0  0  0  0  0  0  0  0  0  # atno 17343 bound_to 10162
  157.5646  130.8269  149.8311 LP  0  0  0  0  0  0  0  0  0  0  0  0  # atno 17370 bound_to 10713
  156.0315  130.3763  150.1674 LP  0  0  0  0  0  0  0  0  0  0  0  0  # atno 17371 bound_to 10713
  141.2214  133.7269  156.8801 LP  0  0  0  0  0  0  0  0  0  0  0  0  # atno 17394 bound_to 11000
  140.1706  134.9102  157.2829 LP  0  0  0  0  0  0  0  0  0  0  0  0  # atno 17395 bound_to 11000

$$$$
