AV-unprocessed.smi:1830|AV-procd|sdf|7450|dock5
  -GOLD-   22720 9143D 1   1.00000     0.00000
 Structure written by MMmdl.
 54 57  0  0  0  0  0  0  0  0  3 V2000
  150.2019  133.9346  155.7386 O   0  0  0  0  0  0  0  0  0  0  0  0
  149.6577  134.5568  154.8269 C   0  0  0  0  0  0  0  0  0  0  0  0
  149.7882  135.8794  154.6542 N   0  0  0  0  0  0  0  0  0  0  0  0
  150.5774  136.7580  155.5113 C   0  0  0  0  0  0  0  0  0  0  0  0
  151.3086  137.8523  154.7012 C   0  0  2  0  0  0  0  0  0  0  0  0
  152.1251  138.8193  155.5929 C   0  0  0  0  0  0  0  0  0  0  0  0
  151.2019  139.7468  156.2723 N   0  3  1  0  0  0  0  0  0  0  0  0
  151.7746  140.7575  157.1781 C   0  0  0  0  0  0  0  0  0  0  0  0
  150.7252  141.8859  157.2258 C   0  0  0  0  0  0  0  0  0  0  0  0
  149.6625  141.5133  156.1765 C   0  0  0  0  0  0  0  0  0  0  0  0
  150.3783  140.4817  155.3100 C   0  0  2  0  0  0  0  0  0  0  0  0
  149.5214  139.4860  154.5197 C   0  0  0  0  0  0  0  0  0  0  0  0
  150.4025  138.5768  153.8540 O   0  0  0  0  0  0  0  0  0  0  0  0
  148.8521  134.0182  153.8964 N   0  0  0  0  0  0  0  0  0  0  0  0
  148.4398  132.6604  153.7775 C   0  0  0  0  0  0  0  0  0  0  0  0
  149.1044  131.6260  154.4857 C   0  0  0  0  0  0  0  0  0  0  0  0
  148.6605  130.2957  154.3681 C   0  0  0  0  0  0  0  0  0  0  0  0
  147.5601  130.0170  153.5397 C   0  0  0  0  0  0  0  0  0  0  0  0
  146.9623  131.0189  152.8625 N   0  3  0  0  0  0  0  0  0  0  0  0
  147.3525  132.3168  152.9221 C   0  0  0  0  0  0  0  0  0  0  0  0
  146.6387  133.2567  152.1443 N   0  0  0  0  0  0  0  0  0  0  0  0
  146.0132  134.4138  152.7741 C   0  0  0  0  0  0  0  0  0  0  0  0
  145.0751  134.9811  151.7129 C   0  0  0  0  0  0  0  0  0  0  0  0
  144.5837  133.7229  151.0029 C   0  0  0  0  0  0  0  0  0  0  0  0
  145.7885  132.7769  151.0592 C   0  0  0  0  0  0  0  0  0  0  0  0
  149.3058  136.3110  153.8794 H   0  0  0  0  0  0  0  0  0  0  0  0
  149.9127  137.1972  156.2545 H   0  0  0  0  0  0  0  0  0  0  0  0
  151.2999  136.1637  156.0734 H   0  0  0  0  0  0  0  0  0  0  0  0
  152.0163  137.3535  154.0384 H   0  0  0  0  0  0  0  0  0  0  0  0
  152.7156  138.2700  156.3270 H   0  0  0  0  0  0  0  0  0  0  0  0
  152.8259  139.3897  154.9811 H   0  0  0  0  0  0  0  0  0  0  0  0
  151.9782  140.3313  158.1608 H   0  0  0  0  0  0  0  0  0  0  0  0
  152.7134  141.1354  156.7699 H   0  0  0  0  0  0  0  0  0  0  0  0
  150.2783  141.9795  158.2160 H   0  0  0  0  0  0  0  0  0  0  0  0
  151.1910  142.8421  156.9844 H   0  0  0  0  0  0  0  0  0  0  0  0
  148.8002  141.0602  156.6679 H   0  0  0  0  0  0  0  0  0  0  0  0
  149.3109  142.3729  155.6051 H   0  0  0  0  0  0  0  0  0  0  0  0
  151.0370  141.0118  154.6185 H   0  0  0  0  0  0  0  0  0  0  0  0
  148.8263  138.9519  155.1679 H   0  0  0  0  0  0  0  0  0  0  0  0
  148.9232  140.0086  153.7733 H   0  0  0  0  0  0  0  0  0  0  0  0
  148.3979  134.6679  153.2716 H   0  0  0  0  0  0  0  0  0  0  0  0
  149.9554  131.8327  155.1167 H   0  0  0  0  0  0  0  0  0  0  0  0
  149.1568  129.5021  154.9077 H   0  0  0  0  0  0  0  0  0  0  0  0
  147.1478  129.0293  153.3915 H   0  0  0  0  0  0  0  0  0  0  0  0
  145.4350  134.1081  153.6471 H   0  0  0  0  0  0  0  0  0  0  0  0
  146.7563  135.1463  153.0906 H   0  0  0  0  0  0  0  0  0  0  0  0
  144.2670  135.5796  152.1349 H   0  0  0  0  0  0  0  0  0  0  0  0
  145.6343  135.6074  151.0162 H   0  0  0  0  0  0  0  0  0  0  0  0
  143.7512  133.2909  151.5599 H   0  0  0  0  0  0  0  0  0  0  0  0
  144.2424  133.9138  149.9851 H   0  0  0  0  0  0  0  0  0  0  0  0
  146.3469  132.8314  150.1243 H   0  0  0  0  0  0  0  0  0  0  0  0
  145.4737  131.7432  151.2098 H   0  0  0  0  0  0  0  0  0  0  0  0
  150.5678  139.1916  156.8288 H   0  0  0  0  0  0  0  0  0  0  0  0
  146.1727  130.7827  152.2614 H   0  0  0  0  0  0  0  0  0  0  0  0
  1  2  2  0  0  0  0
  2  3  1  0  0  0  0
  2 14  1  0  0  0  0
  3  4  1  0  0  0  0
  3 26  1  0  0  0  0
  4  5  1  0  0  0  0
  4 27  1  0  0  0  0
  4 28  1  0  0  0  0
  5 13  1  0  0  0  0
  5  6  1  0  0  0  0
  5 29  1  0  0  0  0
  6  7  1  0  0  0  0
  6 30  1  0  0  0  0
  6 31  1  0  0  0  0
  7 11  1  0  0  0  0
  7  8  1  0  0  0  0
  7 53  1  0  0  0  0
  8  9  1  0  0  0  0
  8 32  1  0  0  0  0
  8 33  1  0  0  0  0
  9 10  1  0  0  0  0
  9 34  1  0  0  0  0
  9 35  1  0  0  0  0
 10 11  1  0  0  0  0
 10 36  1  0  0  0  0
 10 37  1  0  0  0  0
 11 12  1  0  0  0  0
 11 38  1  0  0  0  0
 12 13  1  0  0  0  0
 12 39  1  0  0  0  0
 12 40  1  0  0  0  0
 14 15  1  0  0  0  0
 14 41  1  0  0  0  0
 15 20  1  0  0  0  0
 15 16  2  0  0  0  0
 16 17  1  0  0  0  0
 16 42  1  0  0  0  0
 17 18  2  0  0  0  0
 17 43  1  0  0  0  0
 18 19  1  0  0  0  0
 18 44  1  0  0  0  0
 19 20  2  0  0  0  0
 19 54  1  0  0  0  0
 20 21  1  0  0  0  0
 21 25  1  0  0  0  0
 21 22  1  0  0  0  0
 22 23  1  0  0  0  0
 22 45  1  0  0  0  0
 22 46  1  0  0  0  0
 23 24  1  0  0  0  0
 23 47  1  0  0  0  0
 23 48  1  0  0  0  0
 24 25  1  0  0  0  0
 24 49  1  0  0  0  0
 24 50  1  0  0  0  0
 25 51  1  0  0  0  0
 25 52  1  0  0  0  0
M  CHG  1   7   1
M  CHG  1  19   1
M  END
> <s_m_source_file>
AV-unprocessed.smi

> <i_m_source_file_index>
1830

> <i_lp_mmshare_version>
43012

> <i_f3d_flags>
0

> <s_epik_input>
W0NIMl0xW0NIMl1bQ0gyXVtDQEhdKE4xMilbQ0gyXU9bQ0BASF0oW0NIMl0yKVtDSDJdW05IXUMoPU8pW05IXWMzW2NIXVtjSF1bY0hdbmMzTjRbQ0gyXVtDSDJdW0NIMl1bQ0gyXTQ=

> <s_epik_cmdline>
J2VwaWtfcHl0aG9uJywgJy1waCcsICc3LjAnLCAnLXRuJywgJzgnLCAnLW1hJywgJzIwMCcsICctbWV0YWxfYmluZGluZycsICctaW1hZScsICc8aW5maWxlLm1hZT4nLCAnLW9tYWUnLCAnPG91dGZpbGUubWFlPic=

> <r_lp_tautomer_probability>
0.999994

> <r_epik_Ionization_Penalty>
1.29113

> <r_epik_Ionization_Penalty_Charging>
1.29111

> <r_epik_Ionization_Penalty_Neutral>
1.88144e-05

> <r_epik_State_Penalty>
1.32676

> <r_epik_Charging_Adjusted_Penalty>
2.61787

> <i_epik_Tot_Q>
2

> <i_epik_Tot_abs_Q>
2

> <r_epik_Metal_State_Penalty>
1.40425

> <b_epik_Metal_Only>
0

> <s_lp_Force_Field>
OPLS_2005

> <r_lp_Energy>
76.6475

> <b_lp_Chiralities_Consistent>
1

> <s_lp_Variant>
AV-unprocessed.smi:1830-19

> <Gold.Version>
5.8.1

> <Gold.Id.Protein>
6NUR|6NUR_protein|mol2

> <Gold.PLP.Fitness>
48.2769

> <Gold.PLP.PLP>
-43.0532

> <Gold.PLP.part.hbond>
-3.1986

> <Gold.PLP.part.metal>
0.0000

> <Gold.PLP.part.buried>
-2.5697

> <Gold.PLP.part.nonpolar>
-37.7000

> <Gold.PLP.part.repulsive>
0.6302

> <Gold.PLP.ligand.clash>
0.0000

> <Gold.PLP.ligand.torsion>
0.4429

> <Gold.PLP.Chemscore.Hbond>
1.9040

> <Gold.PLP.Chemscore.CHOScore>
0.0000

> <Gold.PLP.Chemscore.Metal>
0.0000

> <Gold.Chemscore.Hbonds>
donor molecule, donor type, donor heavy atom, donor atom, acceptor molecule, acceptor atom, score
      L1  H     3    26       P1  7948  0.88
      L1  H    14    41       P1  7948  0.54

> <Gold.PLP.Chemscore.Internal.Correction>
0.3974

> <Gold.Rescore>
     Score         DG    S(hbond)    S(metal)    S(lipo)     H(rot)  DE(clash)    DE(int)     intcor
     14.95     -16.78       1.26        0.00      91.86       1.43       0.02       1.82       ----

> <Gold.Chemscore.Fitness>
14.9461

> <Gold.Chemscore.DG>
-16.7824

> <Gold.Chemscore.ZeroCoef>
-5.4800

> <Gold.Chemscore.Hbond>
1.2606

> <Gold.Chemscore.Metal>
0.0000

> <Gold.Chemscore.Lipo>
91.8561

> <Gold.Chemscore.Internal_Hbond>
0.0000

> <Gold.Chemscore.DEClash>
0.0164

> <Gold.Chemscore.DEInternal>
1.8199

> <Gold.Chemscore.Rot>
1.4278

> <Gold.Chemscore.Internal.Correction>
   9.000000E+99

> <Gold.Chemscore.Hbonds>
donor molecule, donor type, donor heavy atom, donor atom, acceptor molecule, acceptor atom, score
      L1  H     3    26       P1  7948  0.71
      L1  H    14    41       P1  7948  0.32

> <Gold.Chemscore.Hbond.Weighted>
-4.2103

> <Gold.Chemscore.Metal.Weighted>
-0.0000

> <Gold.Chemscore.Lipo.Weighted>
-10.7472

> <Gold.Chemscore.Internal_Hbond.Weighted>
0.0000

> <Gold.Chemscore.DEClash.Weighted>
0.0164

> <Gold.Chemscore.DEInternal.Weighted>
1.8199

> <Gold.Chemscore.Rot.Weighted>
3.6551

> <Gold.Chemscore.Internal.Correction.Weighted>
   9.000000E+99

> <Gold.Protein.RotatedTorsions>
[ 6907 6896 6895 6894 ] final  165.82 input  -60.11 | X-H torsion
[ 7974 7965 7964 7962 ] final  -10.96 input  175.53 | X-H torsion
[ 8008 7997 7996 7995 ] final   83.22 input   59.86 | X-H torsion
[ 10167 10162 10161 10158 ] final   63.46 input  -65.29 | X-H torsion
[ 10718 10713 10712 10709 ] final   71.81 input   66.30 | X-H torsion
[ 10763 10752 10751 10750 ] final -169.17 input  -60.55 | X-H torsion
[ 11005 11000 10999 10996 ] final   46.60 input  -57.11 | X-H torsion

> <Gold.Protein.ActiveResidues>
 VAL166  LYS551  ARG553  GLY616  TRP617  ASP618  TYR619  PRO620  LYS621  CYS622 
 ASP623  PHE694  ASN695  SER759  ASP760  ASP761  ALA762  ILE779  LEU786  VAL792 
 PHE793  MET794  SER795  GLU796  ALA797  LYS798  CYS799  TRP800  GLU811  SER814 

> <Gold.Protein.RotatedAtoms>
  151.8886  133.3511  159.3790 H   0  0  0  0  0  0  0  0  0  0  0  0  # atno 6907 bound_to 6896
  150.7109  134.4947  159.5542 H   0  0  0  0  0  0  0  0  0  0  0  0  # atno 6908 bound_to 6896
  152.2512  134.8130  160.0496 H   0  0  0  0  0  0  0  0  0  0  0  0  # atno 6909 bound_to 6896
  146.2203  140.2841  142.8364 H   0  0  0  0  0  0  0  0  0  0  0  0  # atno 7974 bound_to 7965
  155.9210  140.3421  155.6172 H   0  0  0  0  0  0  0  0  0  0  0  0  # atno 8008 bound_to 7997
  155.7274  140.0791  157.2323 H   0  0  0  0  0  0  0  0  0  0  0  0  # atno 8009 bound_to 7997
  154.4069  140.1594  156.2457 H   0  0  0  0  0  0  0  0  0  0  0  0  # atno 8010 bound_to 7997
  140.1327  144.4627  150.6855 H   0  0  0  0  0  0  0  0  0  0  0  0  # atno 10167 bound_to 10162
  157.6470  130.9547  150.0841 H   0  0  0  0  0  0  0  0  0  0  0  0  # atno 10718 bound_to 10713
  154.6552  135.2917  154.9937 H   0  0  0  0  0  0  0  0  0  0  0  0  # atno 10763 bound_to 10752
  154.1016  135.6576  153.4873 H   0  0  0  0  0  0  0  0  0  0  0  0  # atno 10764 bound_to 10752
  153.0398  135.5244  154.7477 H   0  0  0  0  0  0  0  0  0  0  0  0  # atno 10765 bound_to 10752
  140.1354  134.4651  155.8489 H   0  0  0  0  0  0  0  0  0  0  0  0  # atno 11005 bound_to 11000
  144.9175  140.7830  143.5769 LP  0  0  0  0  0  0  0  0  0  0  0  0  # atno 17320 bound_to 7965
  145.2775  139.1931  143.4808 LP  0  0  0  0  0  0  0  0  0  0  0  0  # atno 17321 bound_to 7965
  140.6807  143.2325  151.5391 LP  0  0  0  0  0  0  0  0  0  0  0  0  # atno 17342 bound_to 10162
  139.5511  144.2393  152.1532 LP  0  0  0  0  0  0  0  0  0  0  0  0  # atno 17343 bound_to 10162
  156.1808  130.3650  149.9037 LP  0  0  0  0  0  0  0  0  0  0  0  0  # atno 17370 bound_to 10713
  156.6990  130.8925  151.3597 LP  0  0  0  0  0  0  0  0  0  0  0  0  # atno 17371 bound_to 10713
  141.2177  133.6812  156.7148 LP  0  0  0  0  0  0  0  0  0  0  0  0  # atno 17394 bound_to 11000
  140.2789  134.8333  157.3915 LP  0  0  0  0  0  0  0  0  0  0  0  0  # atno 17395 bound_to 11000

$$$$
