AV-unprocessed.smi:3030|AV-procd|sdf|11535|dock7
  -GOLD-   2272016483D 1   1.00000     0.00000
 Structure written by MMmdl.
 52 53  0  0  0  0  0  0  0  0  1 V2000
  151.6808  145.6063  160.1419 C   0  0  0  0  0  0  0  0  0  0  0  0
  151.7965  144.4096  161.0926 C   0  0  0  0  0  0  0  0  0  0  0  0
  152.1219  143.1837  160.3784 N   0  0  0  0  0  0  0  0  0  0  0  0
  151.5398  142.8860  159.1504 C   0  0  0  0  0  0  0  0  0  0  0  0
  151.8255  141.7867  158.4261 C   0  0  0  0  0  0  0  0  0  0  0  0
  152.8182  140.8203  158.9387 C   0  0  0  0  0  0  0  0  0  0  0  0
  153.0942  139.7986  158.3101 O   0  0  0  0  0  0  0  0  0  0  0  0
  153.4557  141.1498  160.2405 C   0  0  0  0  0  0  0  0  0  0  0  0
  154.3923  140.2266  160.7310 N   0  0  0  0  0  0  0  0  0  0  0  0
  154.3199  138.8837  160.7564 C   0  0  0  0  0  0  0  0  0  0  0  0
  153.3559  138.2096  160.3939 O   0  0  0  0  0  0  0  0  0  0  0  0
  155.4516  138.3569  161.2466 N   0  0  0  0  0  0  0  0  0  0  0  0
  155.7283  136.9344  161.4476 C   0  0  2  0  0  0  0  0  0  0  0  0
  155.6667  136.2407  160.0716 C   0  0  0  0  0  0  0  0  0  0  0  0
  155.8777  134.7203  160.1705 C   0  0  2  0  0  0  0  0  0  0  0  0
  155.8118  134.0518  158.7900 C   0  0  0  0  0  0  0  0  0  0  0  0
  154.8520  134.1103  161.1387 C   0  0  0  0  0  0  0  0  0  0  0  0
  154.9333  134.7697  162.5226 C   0  0  0  0  0  0  0  0  0  0  0  0
  154.7216  136.3013  162.4507 C   0  0  1  0  0  0  0  0  0  0  0  0
  154.7082  136.9800  163.8538 C   0  0  0  0  0  0  0  0  0  0  0  0
  156.0329  136.8490  164.6286 C   0  0  0  0  0  0  0  0  0  0  0  0
  153.5258  136.5129  164.7199 C   0  0  0  0  0  0  0  0  0  0  0  0
  153.0703  142.2889  160.8697 C   0  0  0  0  0  0  0  0  0  0  0  0
  151.4346  146.5150  160.6913 H   0  0  0  0  0  0  0  0  0  0  0  0
  150.9001  145.4443  159.3979 H   0  0  0  0  0  0  0  0  0  0  0  0
  152.6180  145.7810  159.6126 H   0  0  0  0  0  0  0  0  0  0  0  0
  152.5615  144.6071  161.8442 H   0  0  0  0  0  0  0  0  0  0  0  0
  150.8607  144.2764  161.6367 H   0  0  0  0  0  0  0  0  0  0  0  0
  150.8177  143.6148  158.8116 H   0  0  0  0  0  0  0  0  0  0  0  0
  151.3451  141.5952  157.4779 H   0  0  0  0  0  0  0  0  0  0  0  0
  155.2184  140.6418  161.1365 H   0  0  0  0  0  0  0  0  0  0  0  0
  156.1857  138.9960  161.5144 H   0  0  0  0  0  0  0  0  0  0  0  0
  156.7401  136.7982  161.8318 H   0  0  0  0  0  0  0  0  0  0  0  0
  154.7015  136.4411  159.6034 H   0  0  0  0  0  0  0  0  0  0  0  0
  156.4217  136.6713  159.4121 H   0  0  0  0  0  0  0  0  0  0  0  0
  156.8748  134.5419  160.5759 H   0  0  0  0  0  0  0  0  0  0  0  0
  154.8374  134.2003  158.3236 H   0  0  0  0  0  0  0  0  0  0  0  0
  155.9848  132.9777  158.8646 H   0  0  0  0  0  0  0  0  0  0  0  0
  156.5678  134.4603  158.1191 H   0  0  0  0  0  0  0  0  0  0  0  0
  153.8449  134.2262  160.7360 H   0  0  0  0  0  0  0  0  0  0  0  0
  155.0236  133.0378  161.2359 H   0  0  0  0  0  0  0  0  0  0  0  0
  154.1889  134.3089  163.1707 H   0  0  0  0  0  0  0  0  0  0  0  0
  155.9058  134.5443  162.9607 H   0  0  0  0  0  0  0  0  0  0  0  0
  153.7285  136.4579  162.0256 H   0  0  0  0  0  0  0  0  0  0  0  0
  154.5408  138.0460  163.7029 H   0  0  0  0  0  0  0  0  0  0  0  0
  156.2503  135.8134  164.8887 H   0  0  0  0  0  0  0  0  0  0  0  0
  155.9926  137.4139  165.5603 H   0  0  0  0  0  0  0  0  0  0  0  0
  156.8768  137.2352  164.0587 H   0  0  0  0  0  0  0  0  0  0  0  0
  153.6255  135.4694  165.0181 H   0  0  0  0  0  0  0  0  0  0  0  0
  152.5796  136.6227  164.1896 H   0  0  0  0  0  0  0  0  0  0  0  0
  153.4567  137.1049  165.6330 H   0  0  0  0  0  0  0  0  0  0  0  0
  153.4584  142.5845  161.8319 H   0  0  0  0  0  0  0  0  0  0  0  0
  1  2  1  0  0  0  0
  1 24  1  0  0  0  0
  1 25  1  0  0  0  0
  1 26  1  0  0  0  0
  2  3  1  0  0  0  0
  2 27  1  0  0  0  0
  2 28  1  0  0  0  0
  3 23  1  0  0  0  0
  3  4  1  0  0  0  0
  4  5  2  0  0  0  0
  4 29  1  0  0  0  0
  5  6  1  0  0  0  0
  5 30  1  0  0  0  0
  6  7  2  0  0  0  0
  6  8  1  0  0  0  0
  8  9  1  0  0  0  0
  8 23  2  0  0  0  0
  9 10  1  0  0  0  0
  9 31  1  0  0  0  0
 10 11  2  0  0  0  0
 10 12  1  0  0  0  0
 12 13  1  0  0  0  0
 12 32  1  0  0  0  0
 13 19  1  0  0  0  0
 13 14  1  0  0  0  0
 13 33  1  0  0  0  0
 14 15  1  0  0  0  0
 14 34  1  0  0  0  0
 14 35  1  0  0  0  0
 15 16  1  0  0  0  0
 15 17  1  0  0  0  0
 15 36  1  0  0  0  0
 16 37  1  0  0  0  0
 16 38  1  0  0  0  0
 16 39  1  0  0  0  0
 17 18  1  0  0  0  0
 17 40  1  0  0  0  0
 17 41  1  0  0  0  0
 18 19  1  0  0  0  0
 18 42  1  0  0  0  0
 18 43  1  0  0  0  0
 19 20  1  0  0  0  0
 19 44  1  0  0  0  0
 20 21  1  0  0  0  0
 20 22  1  0  0  0  0
 20 45  1  0  0  0  0
 21 46  1  0  0  0  0
 21 47  1  0  0  0  0
 21 48  1  0  0  0  0
 22 49  1  0  0  0  0
 22 50  1  0  0  0  0
 22 51  1  0  0  0  0
 23 52  1  0  0  0  0
M  END
> <s_m_source_file>
AV-unprocessed.smi

> <i_m_source_file_index>
3030

> <i_lp_mmshare_version>
43012

> <i_f3d_flags>
0

> <s_epik_input>
W0NIM11bQ0gyXW4xW2NIXVtjSF1jKD1PKWMoW2NIXTEpW05IXUMoPU8pW05IXVtDQEBIXTJbQ0gyXVtDQEBIXShbQ0gzXSlbQ0gyXVtDSDJdW0NASF0yW0NIXShbQ0gzXSlbQ0gzXQ==

> <s_epik_cmdline>
J2VwaWtfcHl0aG9uJywgJy1waCcsICc3LjAnLCAnLXRuJywgJzgnLCAnLW1hJywgJzIwMCcsICctbWV0YWxfYmluZGluZycsICctaW1hZScsICc8aW5maWxlLm1hZT4nLCAnLW9tYWUnLCAnPG91dGZpbGUubWFlPic=

> <r_lp_tautomer_probability>
1

> <r_epik_Ionization_Penalty>
0.00147933

> <r_epik_Ionization_Penalty_Charging>
0.00145753

> <r_epik_Ionization_Penalty_Neutral>
2.17987e-05

> <r_epik_State_Penalty>
0.00097457

> <r_epik_Charging_Adjusted_Penalty>
0.0024321

> <i_epik_Tot_Q>
0

> <i_epik_Tot_abs_Q>
0

> <r_epik_Metal_State_Penalty>
-0

> <b_epik_Metal_Only>
0

> <s_lp_Force_Field>
OPLS_2005

> <r_lp_Energy>
10.2365

> <b_lp_Chiralities_Consistent>
1

> <s_lp_Variant>
AV-unprocessed.smi:3030-3

> <Gold.Version>
5.8.1

> <Gold.Id.Protein>
6NUR|6NUR_protein|mol2

> <Gold.PLP.Fitness>
43.4836

> <Gold.PLP.PLP>
-41.7075

> <Gold.PLP.part.hbond>
-1.0000

> <Gold.PLP.part.metal>
0.0000

> <Gold.PLP.part.buried>
-4.6551

> <Gold.PLP.part.nonpolar>
-36.2784

> <Gold.PLP.part.repulsive>
0.0372

> <Gold.PLP.ligand.clash>
0.0000

> <Gold.PLP.ligand.torsion>
0.6556

> <Gold.PLP.Chemscore.Hbond>
1.0000

> <Gold.PLP.Chemscore.CHOScore>
0.0000

> <Gold.PLP.Chemscore.Metal>
0.0000

> <Gold.Chemscore.Hbonds>
donor molecule, donor type, donor heavy atom, donor atom, acceptor molecule, acceptor atom, score
      P1  H  7997  8010       L1     7  1.00

> <Gold.PLP.Chemscore.Internal.Correction>
0.0872

> <Gold.Rescore>
     Score         DG    S(hbond)    S(metal)    S(lipo)     H(rot)  DE(clash)    DE(int)     intcor
     14.59     -18.83       0.96        0.00     114.39       1.27       0.11       4.13       ----

> <Gold.Chemscore.Fitness>
14.5947

> <Gold.Chemscore.DG>
-18.8299

> <Gold.Chemscore.ZeroCoef>
-5.4800

> <Gold.Chemscore.Hbond>
0.9623

> <Gold.Chemscore.Metal>
0.0000

> <Gold.Chemscore.Lipo>
114.3874

> <Gold.Chemscore.Internal_Hbond>
0.0000

> <Gold.Chemscore.DEClash>
0.1076

> <Gold.Chemscore.DEInternal>
4.1277

> <Gold.Chemscore.Rot>
1.2685

> <Gold.Chemscore.Internal.Correction>
   9.000000E+99

> <Gold.Chemscore.Hbonds>
donor molecule, donor type, donor heavy atom, donor atom, acceptor molecule, acceptor atom, score
      P1  H  7997  8010       L1     7  0.82

> <Gold.Chemscore.Hbond.Weighted>
-3.2140

> <Gold.Chemscore.Metal.Weighted>
-0.0000

> <Gold.Chemscore.Lipo.Weighted>
-13.3833

> <Gold.Chemscore.Internal_Hbond.Weighted>
0.0000

> <Gold.Chemscore.DEClash.Weighted>
0.1076

> <Gold.Chemscore.DEInternal.Weighted>
4.1277

> <Gold.Chemscore.Rot.Weighted>
3.2474

> <Gold.Chemscore.Internal.Correction.Weighted>
   9.000000E+99

> <Gold.Protein.RotatedTorsions>
[ 6907 6896 6895 6894 ] final   54.51 input  -60.11 | X-H torsion
[ 7974 7965 7964 7962 ] final  -13.05 input  175.53 | X-H torsion
[ 8008 7997 7996 7995 ] final   30.01 input   59.86 | X-H torsion
[ 10167 10162 10161 10158 ] final  179.46 input  -65.29 | X-H torsion
[ 10718 10713 10712 10709 ] final  -99.36 input   66.30 | X-H torsion
[ 10763 10752 10751 10750 ] final  -17.96 input  -60.55 | X-H torsion
[ 11005 11000 10999 10996 ] final  167.45 input  -57.11 | X-H torsion

> <Gold.Protein.ActiveResidues>
 VAL166  LYS551  ARG553  GLY616  TRP617  ASP618  TYR619  PRO620  LYS621  CYS622 
 ASP623  PHE694  ASN695  SER759  ASP760  ASP761  ALA762  ILE779  LEU786  VAL792 
 PHE793  MET794  SER795  GLU796  ALA797  LYS798  CYS799  TRP800  GLU811  SER814 

> <Gold.Protein.RotatedAtoms>
  152.3446  134.7088  160.0253 H   0  0  0  0  0  0  0  0  0  0  0  0  # atno 6907 bound_to 6896
  151.7462  133.3319  159.3387 H   0  0  0  0  0  0  0  0  0  0  0  0  # atno 6908 bound_to 6896
  150.7501  134.6166  159.6158 H   0  0  0  0  0  0  0  0  0  0  0  0  # atno 6909 bound_to 6896
  146.2129  140.3147  142.8385 H   0  0  0  0  0  0  0  0  0  0  0  0  # atno 7974 bound_to 7965
  155.0836  140.3213  155.4594 H   0  0  0  0  0  0  0  0  0  0  0  0  # atno 8008 bound_to 7997
  156.2761  140.2090  156.5910 H   0  0  0  0  0  0  0  0  0  0  0  0  # atno 8009 bound_to 7997
  154.6959  140.0512  157.0397 H   0  0  0  0  0  0  0  0  0  0  0  0  # atno 8010 bound_to 7997
  139.5337  144.2558  152.0747 H   0  0  0  0  0  0  0  0  0  0  0  0  # atno 10167 bound_to 10162
  156.0132  130.5279  150.6658 H   0  0  0  0  0  0  0  0  0  0  0  0  # atno 10718 bound_to 10713
  153.5819  135.7005  153.5460 H   0  0  0  0  0  0  0  0  0  0  0  0  # atno 10763 bound_to 10752
  153.3254  135.4062  155.1451 H   0  0  0  0  0  0  0  0  0  0  0  0  # atno 10764 bound_to 10752
  154.8616  135.3705  154.5347 H   0  0  0  0  0  0  0  0  0  0  0  0  # atno 10765 bound_to 10752
  140.2769  134.7781  157.3724 H   0  0  0  0  0  0  0  0  0  0  0  0  # atno 11005 bound_to 11000
  144.8963  140.7587  143.5895 LP  0  0  0  0  0  0  0  0  0  0  0  0  # atno 17320 bound_to 7965
  145.3071  139.1831  143.4658 LP  0  0  0  0  0  0  0  0  0  0  0  0  # atno 17321 bound_to 7965
  140.2025  144.4643  150.6424 LP  0  0  0  0  0  0  0  0  0  0  0  0  # atno 17342 bound_to 10162
  140.6532  143.2230  151.6030 LP  0  0  0  0  0  0  0  0  0  0  0  0  # atno 17343 bound_to 10162
  157.4391  131.0859  151.0962 LP  0  0  0  0  0  0  0  0  0  0  0  0  # atno 17370 bound_to 10713
  157.1511  130.6184  149.5582 LP  0  0  0  0  0  0  0  0  0  0  0  0  # atno 17371 bound_to 10713
  140.1320  134.5083  155.8098 LP  0  0  0  0  0  0  0  0  0  0  0  0  # atno 17394 bound_to 11000
  141.2169  133.6793  156.7056 LP  0  0  0  0  0  0  0  0  0  0  0  0  # atno 17395 bound_to 11000

$$$$
