AV-unprocessed.smi:35|AV-procd|sdf|267|dock9
  -GOLD-   2262016 33D 1   1.00000     0.00000
 Structure written by MMmdl.
 28 29  0  0  0  0  0  0  0  0  2 V2000
  151.7804  140.2646  158.9727 O   0  0  0  0  0  0  0  0  0  0  0  0
  151.2186  140.3513  157.8823 C   0  0  0  0  0  0  0  0  0  0  0  0
  151.2066  139.3354  156.9722 N   0  5  0  0  0  0  0  0  0  0  0  0
  150.5712  139.4326  155.7677 C   0  0  0  0  0  0  0  0  0  0  0  0
  150.5762  138.5284  154.9317 O   0  0  0  0  0  0  0  0  0  0  0  0
  149.8685  140.6290  155.4501 N   0  0  0  0  0  0  0  0  0  0  0  0
  149.1778  140.7306  154.1001 C   0  0  2  0  0  0  0  0  0  0  0  0
  148.5613  141.9770  153.9704 O   0  0  0  0  0  0  0  0  0  0  0  0
  147.1992  141.8776  154.3666 C   0  0  1  0  0  0  0  0  0  0  0  0
  146.3989  143.0551  153.7904 C   0  0  0  0  0  0  0  0  0  0  0  0
  145.0227  142.8795  154.0527 O   0  0  0  0  0  0  0  0  0  0  0  0
  146.7995  140.5203  153.7860 C   0  0  2  0  0  0  0  0  0  0  0  0
  145.7206  139.9702  154.5153 O   0  0  0  0  0  0  0  0  0  0  0  0
  148.0583  139.6745  153.9627 C   0  0  1  0  0  0  0  0  0  0  0  0
  148.2569  138.8504  152.8325 O   0  0  0  0  0  0  0  0  0  0  0  0
  149.8957  141.6903  156.3422 C   0  0  0  0  0  0  0  0  0  0  0  0
  150.5326  141.5899  157.5262 C   0  0  0  0  0  0  0  0  0  0  0  0
  150.4847  143.1852  158.7009 Br  0  0  0  0  0  0  0  0  0  0  0  0
  149.9828  140.6391  153.3684 H   0  0  0  0  0  0  0  0  0  0  0  0
  147.1259  141.8483  155.4557 H   0  0  0  0  0  0  0  0  0  0  0  0
  146.7454  144.0069  154.1941 H   0  0  0  0  0  0  0  0  0  0  0  0
  146.5223  143.0978  152.7079 H   0  0  0  0  0  0  0  0  0  0  0  0
  144.7587  142.0353  153.7208 H   0  0  0  0  0  0  0  0  0  0  0  0
  146.5389  140.6223  152.7309 H   0  0  0  0  0  0  0  0  0  0  0  0
  144.9333  140.0730  154.0024 H   0  0  0  0  0  0  0  0  0  0  0  0
  148.0043  139.0639  154.8656 H   0  0  0  0  0  0  0  0  0  0  0  0
  148.9323  139.2431  152.2991 H   0  0  0  0  0  0  0  0  0  0  0  0
  149.4101  142.6240  156.1036 H   0  0  0  0  0  0  0  0  0  0  0  0
  1  2  2  0  0  0  0
  2 17  1  0  0  0  0
  2  3  1  0  0  0  0
  3  4  1  0  0  0  0
  4  5  2  0  0  0  0
  4  6  1  0  0  0  0
  6  7  1  0  0  0  0
  6 16  1  0  0  0  0
  7 14  1  0  0  0  0
  7  8  1  0  0  0  0
  7 19  1  0  0  0  0
  8  9  1  0  0  0  0
  9 10  1  0  0  0  0
  9 12  1  0  0  0  0
  9 20  1  0  0  0  0
 10 11  1  0  0  0  0
 10 21  1  0  0  0  0
 10 22  1  0  0  0  0
 11 23  1  0  0  0  0
 12 13  1  0  0  0  0
 12 14  1  0  0  0  0
 12 24  1  0  0  0  0
 13 25  1  0  0  0  0
 14 15  1  0  0  0  0
 14 26  1  0  0  0  0
 15 27  1  0  0  0  0
 16 17  2  0  0  0  0
 16 28  1  0  0  0  0
 17 18  1  0  0  0  0
M  CHG  1   3  -1
M  END
> <s_m_source_file>
AV-unprocessed.smi

> <i_m_source_file_index>
35

> <i_lp_mmshare_version>
43012

> <i_f3d_flags>
0

> <s_epik_input>
Tz1jMVtuSF1jKD1PKW4oW2NIXWMxQnIpW0NAQEhdMk9bQ0BASF0oW0NIMl1bT0hdKVtDQEBIXShbT0hdKVtDQEhdMltPSF0=

> <s_epik_cmdline>
J2VwaWtfcHl0aG9uJywgJy1waCcsICc3LjAnLCAnLXRuJywgJzgnLCAnLW1hJywgJzIwMCcsICctbWV0YWxfYmluZGluZycsICctaW1hZScsICc8aW5maWxlLm1hZT4nLCAnLW9tYWUnLCAnPG91dGZpbGUubWFlPic=

> <r_epik_Ionization_Penalty>
1.06112

> <r_epik_Ionization_Penalty_Charging>
2.1796e-09

> <r_epik_Ionization_Penalty_Neutral>
1.06112

> <r_epik_State_Penalty>
1.11484

> <r_epik_Charging_Adjusted_Penalty>
1.11484

> <i_epik_Tot_Q>
-1

> <i_epik_Tot_abs_Q>
1

> <r_epik_Metal_State_Penalty>
0.0032876

> <b_epik_Metal_Only>
0

> <s_epik_Chemistry_Notes>
This compound contains an acetal/aminal-like group ( X-CH(R)-Y where X, Y are N, S, or O) that may be acid/base labile, releasing an aldehyde.

> <s_lp_Force_Field>
OPLS_2005

> <r_lp_Energy>
34.7757

> <b_lp_Chiralities_Consistent>
1

> <s_lp_Variant>
AV-unprocessed.smi:35-21

> <Gold.Version>
5.8.1

> <Gold.Id.Protein>
6NUR|6NUR_protein|mol2

> <Gold.PLP.Fitness>
39.4792

> <Gold.PLP.PLP>
-29.4533

> <Gold.PLP.part.hbond>
-5.2470

> <Gold.PLP.part.metal>
0.0000

> <Gold.PLP.part.buried>
-2.5229

> <Gold.PLP.part.nonpolar>
-21.6808

> <Gold.PLP.part.repulsive>
0.3155

> <Gold.PLP.ligand.clash>
0.0000

> <Gold.PLP.ligand.torsion>
0.0212

> <Gold.PLP.Chemscore.Hbond>
2.3460

> <Gold.PLP.Chemscore.CHOScore>
1.0000

> <Gold.PLP.Chemscore.Metal>
0.0000

> <Gold.Chemscore.Hbonds>
donor molecule, donor type, donor heavy atom, donor atom, acceptor molecule, acceptor atom, score
      L1  H    11    23       P1 10175  0.13
      L1  H    13    25       P1 10175  1.00
      L1  H    15    27       P1  7957  1.00
      P1  H  8011  8017       L1     8  0.20
      L1  C    16    28       P1  8028  1.00

> <Gold.PLP.Chemscore.Internal.Correction>
0.0303

> <Gold.Rescore>
     Score         DG    S(hbond)    S(metal)    S(lipo)     H(rot)  DE(clash)    DE(int)     intcor
      6.86      -8.16       2.00        0.00      45.08       3.63       0.10       1.21       ----

> <Gold.Chemscore.Fitness>
6.8565

> <Gold.Chemscore.DG>
-8.1593

> <Gold.Chemscore.ZeroCoef>
-5.4800

> <Gold.Chemscore.Hbond>
2.0023

> <Gold.Chemscore.Metal>
0.0000

> <Gold.Chemscore.Lipo>
45.0786

> <Gold.Chemscore.Internal_Hbond>
0.0000

> <Gold.Chemscore.DEClash>
0.0971

> <Gold.Chemscore.DEInternal>
1.2056

> <Gold.Chemscore.Rot>
3.6261

> <Gold.Chemscore.Internal.Correction>
   9.000000E+99

> <Gold.Chemscore.Hbonds>
donor molecule, donor type, donor heavy atom, donor atom, acceptor molecule, acceptor atom, score
      L1  H    13    25       P1 10175  0.95
      L1  H    15    27       P1  7957  0.93
      P1  H  8011  8017       L1     8  0.01

> <Gold.Chemscore.Hbond.Weighted>
-6.6878

> <Gold.Chemscore.Metal.Weighted>
-0.0000

> <Gold.Chemscore.Lipo.Weighted>
-5.2742

> <Gold.Chemscore.Internal_Hbond.Weighted>
0.0000

> <Gold.Chemscore.DEClash.Weighted>
0.0971

> <Gold.Chemscore.DEInternal.Weighted>
1.2056

> <Gold.Chemscore.Rot.Weighted>
9.2828

> <Gold.Chemscore.Internal.Correction.Weighted>
   9.000000E+99

> <Gold.Protein.RotatedTorsions>
[ 6907 6896 6895 6894 ] final   11.68 input  -60.11 | X-H torsion
[ 7974 7965 7964 7962 ] final   39.56 input  175.53 | X-H torsion
[ 8008 7997 7996 7995 ] final   94.65 input   59.86 | X-H torsion
[ 10167 10162 10161 10158 ] final  167.11 input  -65.29 | X-H torsion
[ 10718 10713 10712 10709 ] final -157.91 input   66.30 | X-H torsion
[ 10763 10752 10751 10750 ] final   11.80 input  -60.55 | X-H torsion
[ 11005 11000 10999 10996 ] final -171.39 input  -57.11 | X-H torsion

> <Gold.Protein.ActiveResidues>
 VAL166  LYS551  ARG553  GLY616  TRP617  ASP618  TYR619  PRO620  LYS621  CYS622 
 ASP623  PHE694  ASN695  SER759  ASP760  ASP761  ALA762  ILE779  LEU786  VAL792 
 PHE793  MET794  SER795  GLU796  ALA797  LYS798  CYS799  TRP800  GLU811  SER814 

> <Gold.Protein.RotatedAtoms>
  151.7582  135.0816  160.0341 H   0  0  0  0  0  0  0  0  0  0  0  0  # atno 6907 bound_to 6896
  152.3371  133.6020  159.5858 H   0  0  0  0  0  0  0  0  0  0  0  0  # atno 6908 bound_to 6896
  150.7457  133.9695  159.3583 H   0  0  0  0  0  0  0  0  0  0  0  0  # atno 6909 bound_to 6896
  146.0974  139.5637  142.9436 H   0  0  0  0  0  0  0  0  0  0  0  0  # atno 7974 bound_to 7965
  156.0602  140.3297  155.7453 H   0  0  0  0  0  0  0  0  0  0  0  0  # atno 8008 bound_to 7997
  155.5466  140.0606  157.2876 H   0  0  0  0  0  0  0  0  0  0  0  0  # atno 8009 bound_to 7997
  154.4478  140.1901  156.0632 H   0  0  0  0  0  0  0  0  0  0  0  0  # atno 8010 bound_to 7997
  139.4938  144.3956  151.9468 H   0  0  0  0  0  0  0  0  0  0  0  0  # atno 10167 bound_to 10162
  156.5468  130.8587  151.2767 H   0  0  0  0  0  0  0  0  0  0  0  0  # atno 10718 bound_to 10713
  153.1889  135.6839  153.8379 H   0  0  0  0  0  0  0  0  0  0  0  0  # atno 10763 bound_to 10752
  153.7685  135.3199  155.3349 H   0  0  0  0  0  0  0  0  0  0  0  0  # atno 10764 bound_to 10752
  154.8105  135.4720  154.0602 H   0  0  0  0  0  0  0  0  0  0  0  0  # atno 10765 bound_to 10752
  140.5088  134.5822  157.5012 H   0  0  0  0  0  0  0  0  0  0  0  0  # atno 11005 bound_to 11000
  145.5921  141.0368  143.2064 LP  0  0  0  0  0  0  0  0  0  0  0  0  # atno 17320 bound_to 7965
  144.7406  139.7460  143.7312 LP  0  0  0  0  0  0  0  0  0  0  0  0  # atno 17321 bound_to 7965
  140.3394  144.3221  150.5970 LP  0  0  0  0  0  0  0  0  0  0  0  0  # atno 17342 bound_to 10162
  140.5578  143.2196  151.7817 LP  0  0  0  0  0  0  0  0  0  0  0  0  # atno 17343 bound_to 10162
  157.7395  130.9833  150.2318 LP  0  0  0  0  0  0  0  0  0  0  0  0  # atno 17370 bound_to 10713
  156.2921  130.3747  149.7831 LP  0  0  0  0  0  0  0  0  0  0  0  0  # atno 17371 bound_to 10713
  139.9671  134.7355  156.0117 LP  0  0  0  0  0  0  0  0  0  0  0  0  # atno 17394 bound_to 11000
  141.1397  133.6567  156.3693 LP  0  0  0  0  0  0  0  0  0  0  0  0  # atno 17395 bound_to 11000

$$$$
