AV-unprocessed.smi:610|AV-procd|sdf|3054|dock7
  -GOLD-   2262023573D 1   1.00000     0.00000
 Structure written by MMmdl.
 39 40  0  0  0  0  0  0  0  0  3 V2000
  144.4882  137.4005  153.7621 C   0  0  0  0  0  0  0  0  0  0  0  0
  145.7641  136.8048  153.1520 C   0  0  1  0  0  0  0  0  0  0  0  0
  145.5046  136.2838  151.7220 C   0  0  0  0  0  0  0  0  0  0  0  0
  144.7601  135.0198  151.6961 N   0  0  0  0  0  0  0  0  0  0  0  0
  144.4358  134.2694  150.5949 C   0  0  0  0  0  0  0  0  0  0  0  0
  143.7385  133.1820  151.0544 C   0  0  0  0  0  0  0  0  0  0  0  0
  143.6737  133.3098  152.4160 N   0  3  0  0  0  0  0  0  0  0  0  0
  144.3019  134.4241  152.8049 C   0  0  0  0  0  0  0  0  0  0  0  0
  146.8096  137.8276  153.1588 N   0  0  0  0  0  0  0  0  0  0  0  0
  147.3864  138.3647  154.2482 C   0  0  0  0  0  0  0  0  0  0  0  0
  147.0702  138.0338  155.3914 O   0  0  0  0  0  0  0  0  0  0  0  0
  148.4736  139.4470  154.0461 C   0  0  0  0  0  0  0  0  0  0  0  0
  149.5528  138.8372  153.2473 N   0  3  0  0  0  0  0  0  0  0  0  0
  147.8937  140.6898  153.3444 C   0  0  0  0  0  0  0  0  0  0  0  0
  147.2939  141.5557  154.4626 C   0  0  0  0  0  0  0  0  0  0  0  0
  147.9889  141.1206  155.7624 C   0  0  0  0  0  0  0  0  0  0  0  0
  149.0216  140.0638  155.3498 C   0  0  0  0  0  0  0  0  0  0  0  0
  143.6909  136.6579  153.8068 H   0  0  0  0  0  0  0  0  0  0  0  0
  144.1228  138.2441  153.1751 H   0  0  0  0  0  0  0  0  0  0  0  0
  144.6646  137.7531  154.7789 H   0  0  0  0  0  0  0  0  0  0  0  0
  146.0620  135.9673  153.7858 H   0  0  0  0  0  0  0  0  0  0  0  0
  144.9166  137.0085  151.1576 H   0  0  0  0  0  0  0  0  0  0  0  0
  146.4429  136.1504  151.1806 H   0  0  0  0  0  0  0  0  0  0  0  0
  144.7124  134.5606  149.5918 H   0  0  0  0  0  0  0  0  0  0  0  0
  143.2968  132.3481  150.5282 H   0  0  0  0  0  0  0  0  0  0  0  0
  144.4103  134.7759  153.8154 H   0  0  0  0  0  0  0  0  0  0  0  0
  147.1193  138.1560  152.2553 H   0  0  0  0  0  0  0  0  0  0  0  0
  149.2463  137.9452  152.8861 H   0  0  0  0  0  0  0  0  0  0  0  0
  150.3647  138.7031  153.8333 H   0  0  0  0  0  0  0  0  0  0  0  0
  148.6958  141.2465  152.8570 H   0  0  0  0  0  0  0  0  0  0  0  0
  147.1590  140.4606  152.5713 H   0  0  0  0  0  0  0  0  0  0  0  0
  147.4418  142.6170  154.2597 H   0  0  0  0  0  0  0  0  0  0  0  0
  146.2196  141.3877  154.5401 H   0  0  0  0  0  0  0  0  0  0  0  0
  148.4579  141.9586  156.2791 H   0  0  0  0  0  0  0  0  0  0  0  0
  147.2564  140.6863  156.4443 H   0  0  0  0  0  0  0  0  0  0  0  0
  149.2246  139.3432  156.1431 H   0  0  0  0  0  0  0  0  0  0  0  0
  149.9692  140.5646  155.1437 H   0  0  0  0  0  0  0  0  0  0  0  0
  149.7922  139.4487  152.4801 H   0  0  0  0  0  0  0  0  0  0  0  0
  143.2219  132.6533  153.0405 H   0  0  0  0  0  0  0  0  0  0  0  0
  1  2  1  0  0  0  0
  1 18  1  0  0  0  0
  1 19  1  0  0  0  0
  1 20  1  0  0  0  0
  2  3  1  0  0  0  0
  2  9  1  0  0  0  0
  2 21  1  0  0  0  0
  3  4  1  0  0  0  0
  3 22  1  0  0  0  0
  3 23  1  0  0  0  0
  4  8  1  0  0  0  0
  4  5  1  0  0  0  0
  5  6  2  0  0  0  0
  5 24  1  0  0  0  0
  6  7  1  0  0  0  0
  6 25  1  0  0  0  0
  7  8  2  0  0  0  0
  7 39  1  0  0  0  0
  8 26  1  0  0  0  0
  9 10  1  0  0  0  0
  9 27  1  0  0  0  0
 10 11  2  0  0  0  0
 10 12  1  0  0  0  0
 12 17  1  0  0  0  0
 12 13  1  0  0  0  0
 12 14  1  0  0  0  0
 13 28  1  0  0  0  0
 13 29  1  0  0  0  0
 13 38  1  0  0  0  0
 14 15  1  0  0  0  0
 14 30  1  0  0  0  0
 14 31  1  0  0  0  0
 15 16  1  0  0  0  0
 15 32  1  0  0  0  0
 15 33  1  0  0  0  0
 16 17  1  0  0  0  0
 16 34  1  0  0  0  0
 16 35  1  0  0  0  0
 17 36  1  0  0  0  0
 17 37  1  0  0  0  0
M  CHG  1   7   1
M  CHG  1  13   1
M  END
> <s_m_source_file>
AV-unprocessed.smi

> <i_m_source_file_index>
610

> <i_lp_mmshare_version>
43012

> <i_f3d_flags>
0

> <s_epik_input>
W2NIXTFuW2NIXVtjSF1uMVtDSDJdW0NAQEhdKFtDSDNdKVtOSF1DKD1PKUMyKFtOSDJdKVtDSDJdW0NIMl1bQ0gyXVtDSDJdMg==

> <s_epik_cmdline>
J2VwaWtfcHl0aG9uJywgJy1waCcsICc3LjAnLCAnLXRuJywgJzgnLCAnLW1hJywgJzIwMCcsICctbWV0YWxfYmluZGluZycsICctaW1hZScsICc8aW5maWxlLm1hZT4nLCAnLW9tYWUnLCAnPG91dGZpbGUubWFlPic=

> <r_lp_tautomer_probability>
1

> <r_epik_Ionization_Penalty>
0.349719

> <r_epik_Ionization_Penalty_Charging>
0.0753376

> <r_epik_Ionization_Penalty_Neutral>
0.274381

> <r_epik_State_Penalty>
0.326418

> <r_epik_Charging_Adjusted_Penalty>
0.401755

> <i_epik_Tot_Q>
2

> <i_epik_Tot_abs_Q>
2

> <r_epik_Metal_State_Penalty>
0.608513

> <b_epik_Metal_Only>
0

> <s_lp_Force_Field>
OPLS_2005

> <r_lp_Energy>
30.9651

> <b_lp_Chiralities_Consistent>
1

> <s_lp_Variant>
AV-unprocessed.smi:610-2

> <Gold.Version>
5.8.1

> <Gold.Id.Protein>
6NUR|6NUR_protein|mol2

> <Gold.PLP.Fitness>
42.7979

> <Gold.PLP.PLP>
-25.1495

> <Gold.PLP.part.hbond>
-4.0000

> <Gold.PLP.part.metal>
0.0000

> <Gold.PLP.part.buried>
-1.1483

> <Gold.PLP.part.nonpolar>
-21.2437

> <Gold.PLP.part.repulsive>
0.1536

> <Gold.PLP.ligand.clash>
0.0000

> <Gold.PLP.ligand.torsion>
0.2051

> <Gold.PLP.Chemscore.Hbond>
5.0000

> <Gold.PLP.Chemscore.CHOScore>
1.0000

> <Gold.PLP.Chemscore.Metal>
0.0000

> <Gold.Chemscore.Hbonds>
donor molecule, donor type, donor heavy atom, donor atom, acceptor molecule, acceptor atom, score
      L1  H     7    39       P1 10957  1.90
      L1  H    13    28       P1  7948  2.00
      L1  H    13    38       P1  7957  0.80
      L1  C     5    24       P1  7921  1.00

> <Gold.PLP.Chemscore.Internal.Correction>
0.0587

> <Gold.Rescore>
     Score         DG    S(hbond)    S(metal)    S(lipo)     H(rot)  DE(clash)    DE(int)     intcor
     14.49     -15.51       2.81        0.00      50.71       2.06       0.60       0.42       ----

> <Gold.Chemscore.Fitness>
14.4900

> <Gold.Chemscore.DG>
-15.5125

> <Gold.Chemscore.ZeroCoef>
-5.4800

> <Gold.Chemscore.Hbond>
2.8098

> <Gold.Chemscore.Metal>
0.0000

> <Gold.Chemscore.Lipo>
50.7068

> <Gold.Chemscore.Internal_Hbond>
0.0000

> <Gold.Chemscore.DEClash>
0.6021

> <Gold.Chemscore.DEInternal>
0.4204

> <Gold.Chemscore.Rot>
2.0644

> <Gold.Chemscore.Internal.Correction>
   9.000000E+99

> <Gold.Chemscore.Hbonds>
donor molecule, donor type, donor heavy atom, donor atom, acceptor molecule, acceptor atom, score
      L1  H     7    39       P1 10957  0.20
      L1  H    13    28       P1  7948  0.94
      L1  H    13    38       P1  7957  0.75

> <Gold.Chemscore.Hbond.Weighted>
-9.3846

> <Gold.Chemscore.Metal.Weighted>
-0.0000

> <Gold.Chemscore.Lipo.Weighted>
-5.9327

> <Gold.Chemscore.Internal_Hbond.Weighted>
0.0000

> <Gold.Chemscore.DEClash.Weighted>
0.6021

> <Gold.Chemscore.DEInternal.Weighted>
0.4204

> <Gold.Chemscore.Rot.Weighted>
5.2848

> <Gold.Chemscore.Internal.Correction.Weighted>
   9.000000E+99

> <Gold.Protein.RotatedTorsions>
[ 6907 6896 6895 6894 ] final   34.89 input  -60.11 | X-H torsion
[ 7974 7965 7964 7962 ] final   -3.65 input  175.53 | X-H torsion
[ 8008 7997 7996 7995 ] final  -47.68 input   59.86 | X-H torsion
[ 10167 10162 10161 10158 ] final  121.79 input  -65.29 | X-H torsion
[ 10718 10713 10712 10709 ] final  -66.27 input   66.30 | X-H torsion
[ 10763 10752 10751 10750 ] final  135.51 input  -60.55 | X-H torsion
[ 11005 11000 10999 10996 ] final -119.70 input  -57.11 | X-H torsion

> <Gold.Protein.ActiveResidues>
 VAL166  LYS551  ARG553  GLY616  TRP617  ASP618  TYR619  PRO620  LYS621  CYS622 
 ASP623  PHE694  ASN695  SER759  ASP760  ASP761  ALA762  ILE779  LEU786  VAL792 
 PHE793  MET794  SER795  GLU796  ALA797  LYS798  CYS799  TRP800  GLU811  SER814 

> <Gold.Protein.RotatedAtoms>
  152.1086  134.9291  160.0567 H   0  0  0  0  0  0  0  0  0  0  0  0  # atno 6907 bound_to 6896
  152.0477  133.4000  159.4372 H   0  0  0  0  0  0  0  0  0  0  0  0  # atno 6908 bound_to 6896
  150.6842  134.3263  159.4852 H   0  0  0  0  0  0  0  0  0  0  0  0  # atno 6909 bound_to 6896
  146.2386  140.1754  142.8332 H   0  0  0  0  0  0  0  0  0  0  0  0  # atno 7974 bound_to 7965
  154.4019  140.1340  156.4214 H   0  0  0  0  0  0  0  0  0  0  0  0  # atno 8008 bound_to 7997
  155.7639  140.3485  155.5192 H   0  0  0  0  0  0  0  0  0  0  0  0  # atno 8009 bound_to 7997
  155.8833  140.0991  157.1460 H   0  0  0  0  0  0  0  0  0  0  0  0  # atno 8010 bound_to 7997
  139.5898  144.7021  151.3318 H   0  0  0  0  0  0  0  0  0  0  0  0  # atno 10167 bound_to 10162
  156.0622  130.4259  150.1685 H   0  0  0  0  0  0  0  0  0  0  0  0  # atno 10718 bound_to 10713
  153.8412  135.3091  155.3426 H   0  0  0  0  0  0  0  0  0  0  0  0  # atno 10763 bound_to 10752
  154.7932  135.4771  154.0103 H   0  0  0  0  0  0  0  0  0  0  0  0  # atno 10764 bound_to 10752
  153.1574  135.6854  153.8883 H   0  0  0  0  0  0  0  0  0  0  0  0  # atno 10765 bound_to 10752
  141.0197  134.0143  157.3300 H   0  0  0  0  0  0  0  0  0  0  0  0  # atno 11005 bound_to 11000
  144.9978  140.8604  143.5300 LP  0  0  0  0  0  0  0  0  0  0  0  0  # atno 17320 bound_to 7965
  145.1769  139.2373  143.5313 LP  0  0  0  0  0  0  0  0  0  0  0  0  # atno 17321 bound_to 7965
  140.7163  143.7257  150.7662 LP  0  0  0  0  0  0  0  0  0  0  0  0  # atno 17342 bound_to 10162
  140.0810  143.4969  152.2530 LP  0  0  0  0  0  0  0  0  0  0  0  0  # atno 17343 bound_to 10162
  156.9751  130.9847  151.3450 LP  0  0  0  0  0  0  0  0  0  0  0  0  # atno 17370 bound_to 10713
  157.5638  130.8264  149.8301 LP  0  0  0  0  0  0  0  0  0  0  0  0  # atno 17371 bound_to 10713
  139.9138  135.0194  156.7800 LP  0  0  0  0  0  0  0  0  0  0  0  0  # atno 17394 bound_to 11000
  140.6594  133.9658  155.7797 LP  0  0  0  0  0  0  0  0  0  0  0  0  # atno 17395 bound_to 11000

$$$$
