AV-unprocessed.smi:1363|AV-procd|sdf|5565|dock4
  -GOLD-   22720 5153D 1   1.00000     0.00000
 Structure written by MMmdl.
 44 45  0  0  0  0  0  0  0  0  1 V2000
  155.2099  144.6383  167.9586 C   0  0  0  0  0  0  0  0  0  0  0  0
  155.9807  143.8362  166.9327 C   0  0  0  0  0  0  0  0  0  0  0  0
  155.8226  142.4665  167.0638 N   0  0  0  0  0  0  0  0  0  0  0  0
  156.4805  141.6493  166.1617 C   0  0  0  0  0  0  0  0  0  0  0  0
  156.2493  140.1629  166.3716 C   0  0  0  0  0  0  0  0  0  0  0  0
  157.2621  142.1705  165.1821 C   0  0  0  0  0  0  0  0  0  0  0  0
  158.0023  141.3013  164.1664 C   0  0  0  0  0  0  0  0  0  0  0  0
  157.1228  140.5227  163.1848 C   0  0  0  0  0  0  0  0  0  0  0  0
  157.6172  139.6754  162.4409 O   0  0  0  0  0  0  0  0  0  0  0  0
  155.8142  140.8170  163.2000 N   0  0  0  0  0  0  0  0  0  0  0  0
  154.8007  140.1770  162.3703 C   0  0  0  0  0  0  0  0  0  0  0  0
  154.7457  140.8084  160.9649 C   0  0  0  0  0  0  0  0  0  0  0  0
  153.7228  141.9245  160.7779 C   0  0  0  0  0  0  0  0  0  0  0  0
  153.3596  142.4317  159.5802 C   0  0  0  0  0  0  0  0  0  0  0  0
  152.3183  143.5215  159.3941 C   0  0  0  0  0  0  0  0  0  0  0  0
  151.4638  143.7388  160.6529 C   0  0  0  0  0  0  0  0  0  0  0  0
  152.3365  143.7522  161.9125 C   0  0  0  0  0  0  0  0  0  0  0  0
  153.1030  142.4275  162.0767 C   0  0  0  0  0  0  0  0  0  0  0  0
  157.4034  143.6437  165.1005 C   0  0  0  0  0  0  0  0  0  0  0  0
  158.1117  144.1768  164.2475 O   0  0  0  0  0  0  0  0  0  0  0  0
  156.7056  144.4284  166.0330 N   0  0  0  0  0  0  0  0  0  0  0  0
  155.2514  142.0373  167.7775 H   0  0  0  0  0  0  0  0  0  0  0  0
  155.4552  145.6988  167.8891 H   0  0  0  0  0  0  0  0  0  0  0  0
  155.4496  144.2996  168.9670 H   0  0  0  0  0  0  0  0  0  0  0  0
  154.1372  144.5245  167.8000 H   0  0  0  0  0  0  0  0  0  0  0  0
  155.7777  139.7219  165.4933 H   0  0  0  0  0  0  0  0  0  0  0  0
  155.6012  139.9745  167.2285 H   0  0  0  0  0  0  0  0  0  0  0  0
  157.1951  139.6507  166.5501 H   0  0  0  0  0  0  0  0  0  0  0  0
  158.6606  140.5928  164.6698 H   0  0  0  0  0  0  0  0  0  0  0  0
  158.6734  141.9442  163.5958 H   0  0  0  0  0  0  0  0  0  0  0  0
  155.4952  141.5282  163.8417 H   0  0  0  0  0  0  0  0  0  0  0  0
  155.0569  139.1196  162.2981 H   0  0  0  0  0  0  0  0  0  0  0  0
  153.8275  140.2358  162.8613 H   0  0  0  0  0  0  0  0  0  0  0  0
  155.7262  141.2124  160.7092 H   0  0  0  0  0  0  0  0  0  0  0  0
  154.5319  140.0302  160.2310 H   0  0  0  0  0  0  0  0  0  0  0  0
  153.8137  142.0774  158.6677 H   0  0  0  0  0  0  0  0  0  0  0  0
  152.8386  144.4421  159.1281 H   0  0  0  0  0  0  0  0  0  0  0  0
  151.6764  143.2643  158.5511 H   0  0  0  0  0  0  0  0  0  0  0  0
  150.9024  144.6697  160.5678 H   0  0  0  0  0  0  0  0  0  0  0  0
  150.7264  142.9392  160.7366 H   0  0  0  0  0  0  0  0  0  0  0  0
  153.0467  144.5777  161.8467 H   0  0  0  0  0  0  0  0  0  0  0  0
  151.7260  143.9407  162.7962 H   0  0  0  0  0  0  0  0  0  0  0  0
  152.4307  141.6536  162.4486 H   0  0  0  0  0  0  0  0  0  0  0  0
  153.8821  142.5537  162.8291 H   0  0  0  0  0  0  0  0  0  0  0  0
  1 23  1  0  0  0  0
  1 24  1  0  0  0  0
  1 25  1  0  0  0  0
  1  2  1  0  0  0  0
  2  3  1  0  0  0  0
  2 21  2  0  0  0  0
  3  4  1  0  0  0  0
  3 22  1  0  0  0  0
  4  6  2  0  0  0  0
  4  5  1  0  0  0  0
  5 26  1  0  0  0  0
  5 27  1  0  0  0  0
  5 28  1  0  0  0  0
  6 19  1  0  0  0  0
  6  7  1  0  0  0  0
  7  8  1  0  0  0  0
  7 29  1  0  0  0  0
  7 30  1  0  0  0  0
  8  9  2  0  0  0  0
  8 10  1  0  0  0  0
 10 11  1  0  0  0  0
 10 31  1  0  0  0  0
 11 12  1  0  0  0  0
 11 32  1  0  0  0  0
 11 33  1  0  0  0  0
 12 13  1  0  0  0  0
 12 34  1  0  0  0  0
 12 35  1  0  0  0  0
 13 18  1  0  0  0  0
 13 14  2  0  0  0  0
 14 15  1  0  0  0  0
 14 36  1  0  0  0  0
 15 16  1  0  0  0  0
 15 37  1  0  0  0  0
 15 38  1  0  0  0  0
 16 17  1  0  0  0  0
 16 39  1  0  0  0  0
 16 40  1  0  0  0  0
 17 18  1  0  0  0  0
 17 41  1  0  0  0  0
 17 42  1  0  0  0  0
 18 43  1  0  0  0  0
 18 44  1  0  0  0  0
 19 20  2  0  0  0  0
 19 21  1  0  0  0  0
M  END
> <s_m_source_file>
AV-unprocessed.smi

> <i_m_source_file_index>
1363

> <i_lp_mmshare_version>
43012

> <i_f3d_flags>
0

> <s_epik_input>
W0NIM11jMW5jKFtDSDNdKWMoYyg9TylbbkhdMSlbQ0gyXUMoPU8pW05IXVtDSDJdW0NIMl1DMj1bQ0hdW0NIMl1bQ0gyXVtDSDJdW0NIMl0y

> <s_epik_cmdline>
J2VwaWtfcHl0aG9uJywgJy1waCcsICc3LjAnLCAnLXRuJywgJzgnLCAnLW1hJywgJzIwMCcsICctbWV0YWxfYmluZGluZycsICctaW1hZScsICc8aW5maWxlLm1hZT4nLCAnLW9tYWUnLCAnPG91dGZpbGUubWFlPic=

> <r_lp_tautomer_probability>
0.156392

> <r_epik_Ionization_Penalty>
0.0140998

> <r_epik_Ionization_Penalty_Charging>
0.0139776

> <r_epik_Ionization_Penalty_Neutral>
0.000122158

> <r_epik_State_Penalty>
1.53009

> <r_epik_Charging_Adjusted_Penalty>
1.54407

> <i_epik_Tot_Q>
0

> <i_epik_Tot_abs_Q>
0

> <r_epik_Metal_State_Penalty>
1.7066

> <b_epik_Metal_Only>
0

> <s_lp_Force_Field>
OPLS_2005

> <r_lp_Energy>
12.7953

> <b_lp_Chiralities_Consistent>
1

> <s_lp_Variant>
AV-unprocessed.smi:1363-2

> <Gold.Version>
5.8.1

> <Gold.Id.Protein>
6NUR|6NUR_protein|mol2

> <Gold.PLP.Fitness>
42.2689

> <Gold.PLP.PLP>
-43.4902

> <Gold.PLP.part.hbond>
-3.6127

> <Gold.PLP.part.metal>
0.0000

> <Gold.PLP.part.buried>
-3.4300

> <Gold.PLP.part.nonpolar>
-34.9732

> <Gold.PLP.part.repulsive>
0.0786

> <Gold.PLP.ligand.clash>
0.0000

> <Gold.PLP.ligand.torsion>
0.6299

> <Gold.PLP.Chemscore.Hbond>
0.0000

> <Gold.PLP.Chemscore.CHOScore>
0.0000

> <Gold.PLP.Chemscore.Metal>
0.0000

> <Gold.PLP.Chemscore.Internal.Correction>
0.0385

> <Gold.Rescore>
     Score         DG    S(hbond)    S(metal)    S(lipo)     H(rot)  DE(clash)    DE(int)     intcor
     12.78     -13.79       0.00        0.00     111.83       1.86       0.19       0.82       ----

> <Gold.Chemscore.Fitness>
12.7779

> <Gold.Chemscore.DG>
-13.7942

> <Gold.Chemscore.ZeroCoef>
-5.4800

> <Gold.Chemscore.Hbond>
0.0000

> <Gold.Chemscore.Metal>
0.0000

> <Gold.Chemscore.Lipo>
111.8281

> <Gold.Chemscore.Internal_Hbond>
0.0000

> <Gold.Chemscore.DEClash>
0.1918

> <Gold.Chemscore.DEInternal>
0.8245

> <Gold.Chemscore.Rot>
1.8631

> <Gold.Chemscore.Internal.Correction>
   9.000000E+99

> <Gold.Chemscore.Hbond.Weighted>
-0.0000

> <Gold.Chemscore.Metal.Weighted>
-0.0000

> <Gold.Chemscore.Lipo.Weighted>
-13.0839

> <Gold.Chemscore.Internal_Hbond.Weighted>
0.0000

> <Gold.Chemscore.DEClash.Weighted>
0.1918

> <Gold.Chemscore.DEInternal.Weighted>
0.8245

> <Gold.Chemscore.Rot.Weighted>
4.7697

> <Gold.Chemscore.Internal.Correction.Weighted>
   9.000000E+99

> <Gold.Protein.RotatedTorsions>
[ 6907 6896 6895 6894 ] final   12.09 input  -60.11 | X-H torsion
[ 7974 7965 7964 7962 ] final   41.41 input  175.53 | X-H torsion
[ 8008 7997 7996 7995 ] final  -45.86 input   59.86 | X-H torsion
[ 10167 10162 10161 10158 ] final -163.27 input  -65.29 | X-H torsion
[ 10718 10713 10712 10709 ] final  -31.87 input   66.30 | X-H torsion
[ 10763 10752 10751 10750 ] final  -42.41 input  -60.55 | X-H torsion
[ 11005 11000 10999 10996 ] final  137.79 input  -57.11 | X-H torsion

> <Gold.Protein.ActiveResidues>
 VAL166  LYS551  ARG553  GLY616  TRP617  ASP618  TYR619  PRO620  LYS621  CYS622 
 ASP623  PHE694  ASN695  SER759  ASP760  ASP761  ALA762  ILE779  LEU786  VAL792 
 PHE793  MET794  SER795  GLU796  ALA797  LYS798  CYS799  TRP800  GLU811  SER814 

> <Gold.Protein.RotatedAtoms>
  151.7647  135.0801  160.0350 H   0  0  0  0  0  0  0  0  0  0  0  0  # atno 6907 bound_to 6896
  152.3329  133.5974  159.5831 H   0  0  0  0  0  0  0  0  0  0  0  0  # atno 6908 bound_to 6896
  150.7433  133.9756  159.3601 H   0  0  0  0  0  0  0  0  0  0  0  0  # atno 6909 bound_to 6896
  146.0826  139.5419  142.9527 H   0  0  0  0  0  0  0  0  0  0  0  0  # atno 7974 bound_to 7965
  154.4003  140.1386  156.3916 H   0  0  0  0  0  0  0  0  0  0  0  0  # atno 8008 bound_to 7997
  155.7909  140.3479  155.5328 H   0  0  0  0  0  0  0  0  0  0  0  0  # atno 8009 bound_to 7997
  155.8580  140.0952  157.1622 H   0  0  0  0  0  0  0  0  0  0  0  0  # atno 8010 bound_to 7997
  139.6332  144.0399  152.2033 H   0  0  0  0  0  0  0  0  0  0  0  0  # atno 10167 bound_to 10162
  156.3819  130.4357  149.7462 H   0  0  0  0  0  0  0  0  0  0  0  0  # atno 10718 bound_to 10713
  153.9786  135.6719  153.4749 H   0  0  0  0  0  0  0  0  0  0  0  0  # atno 10763 bound_to 10752
  153.0759  135.4949  154.8399 H   0  0  0  0  0  0  0  0  0  0  0  0  # atno 10764 bound_to 10752
  154.7177  135.3110  154.9058 H   0  0  0  0  0  0  0  0  0  0  0  0  # atno 10765 bound_to 10752
  140.0138  134.9427  157.0333 H   0  0  0  0  0  0  0  0  0  0  0  0  # atno 11005 bound_to 11000
  145.6190  141.0326  143.1925 LP  0  0  0  0  0  0  0  0  0  0  0  0  # atno 17320 bound_to 7965
  144.7303  139.7745  143.7349 LP  0  0  0  0  0  0  0  0  0  0  0  0  # atno 17321 bound_to 7965
  140.0070  144.6252  150.7680 LP  0  0  0  0  0  0  0  0  0  0  0  0  # atno 17342 bound_to 10162
  140.7451  143.2870  151.3435 LP  0  0  0  0  0  0  0  0  0  0  0  0  # atno 17343 bound_to 10162
  156.4549  130.7924  151.2945 LP  0  0  0  0  0  0  0  0  0  0  0  0  # atno 17370 bound_to 10713
  157.7493  131.0084  150.3226 LP  0  0  0  0  0  0  0  0  0  0  0  0  # atno 17371 bound_to 10713
  140.4507  134.1585  155.7181 LP  0  0  0  0  0  0  0  0  0  0  0  0  # atno 17394 bound_to 11000
  141.1729  133.8572  157.1514 LP  0  0  0  0  0  0  0  0  0  0  0  0  # atno 17395 bound_to 11000

$$$$
