AV-unprocessed.smi:1406|AV-procd|sdf|5713|dock3
  -GOLD-   22720 5343D 1   1.00000     0.00000
 Structure written by MMmdl.
 41 43  0  0  0  0  0  0  0  0  2 V2000
  147.7018  134.0064  152.7108 C   0  0  0  0  0  0  0  0  0  0  0  0
  146.7272  134.3479  151.5652 C   0  0  2  0  0  0  0  0  0  0  0  0
  145.9521  135.6527  151.8090 C   0  0  0  0  0  0  0  0  0  0  0  0
  144.7252  135.6852  151.7099 O   0  0  0  0  0  0  0  0  0  0  0  0
  146.6872  136.7291  152.1310 N   0  0  0  0  0  0  0  0  0  0  0  0
  146.1585  138.0676  152.3745 C   0  0  2  0  0  0  0  0  0  0  0  0
  146.8508  139.1471  151.5238 C   0  0  0  0  0  0  0  0  0  0  0  0
  146.9598  140.3820  152.4398 C   0  0  0  0  0  0  0  0  0  0  0  0
  146.2654  140.0067  153.6864 N   0  3  2  0  0  0  0  0  0  0  0  0
  146.6537  140.7285  154.9177 C   0  0  0  0  0  0  0  0  0  0  0  0
  145.7613  140.2593  156.0842 C   0  0  0  0  0  0  0  0  0  0  0  0
  145.7805  138.7248  156.2370 C   0  0  0  0  0  0  0  0  0  0  0  0
  145.4614  138.0278  154.9003 C   0  0  0  0  0  0  0  0  0  0  0  0
  146.4100  138.5480  153.8066 C   0  0  1  0  0  0  0  0  0  0  0  0
  145.8033  133.2547  151.2892 N   0  0  0  0  0  0  0  0  0  0  0  0
  145.5840  132.5813  150.1576 C   0  0  0  0  0  0  0  0  0  0  0  0
  144.6282  131.6676  150.2510 N   0  0  0  0  0  0  0  0  0  0  0  0
  144.2688  131.8461  151.5569 C   0  0  0  0  0  0  0  0  0  0  0  0
  144.9337  132.7911  152.2213 N   0  0  0  0  0  0  0  0  0  0  0  0
  148.4212  134.8107  152.8686 H   0  0  0  0  0  0  0  0  0  0  0  0
  148.2683  133.1035  152.4813 H   0  0  0  0  0  0  0  0  0  0  0  0
  147.1823  133.8383  153.6551 H   0  0  0  0  0  0  0  0  0  0  0  0
  147.3280  134.4943  150.6656 H   0  0  0  0  0  0  0  0  0  0  0  0
  147.6888  136.6158  152.1914 H   0  0  0  0  0  0  0  0  0  0  0  0
  145.0875  138.1004  152.1619 H   0  0  0  0  0  0  0  0  0  0  0  0
  147.8479  138.8315  151.2129 H   0  0  0  0  0  0  0  0  0  0  0  0
  146.2790  139.3608  150.6199 H   0  0  0  0  0  0  0  0  0  0  0  0
  148.0085  140.6031  152.6453 H   0  0  0  0  0  0  0  0  0  0  0  0
  146.5068  141.2696  151.9974 H   0  0  0  0  0  0  0  0  0  0  0  0
  147.7054  140.5435  155.1422 H   0  0  0  0  0  0  0  0  0  0  0  0
  146.5392  141.8021  154.7643 H   0  0  0  0  0  0  0  0  0  0  0  0
  146.0814  140.7315  157.0134 H   0  0  0  0  0  0  0  0  0  0  0  0
  144.7364  140.5895  155.9090 H   0  0  0  0  0  0  0  0  0  0  0  0
  146.7645  138.4081  156.5847 H   0  0  0  0  0  0  0  0  0  0  0  0
  145.0683  138.4146  157.0020 H   0  0  0  0  0  0  0  0  0  0  0  0
  145.5648  136.9485  155.0130 H   0  0  0  0  0  0  0  0  0  0  0  0
  144.4242  138.2167  154.6200 H   0  0  0  0  0  0  0  0  0  0  0  0
  147.4424  138.3226  154.0842 H   0  0  0  0  0  0  0  0  0  0  0  0
  146.1314  132.7662  149.2449 H   0  0  0  0  0  0  0  0  0  0  0  0
  143.4894  131.2674  152.0302 H   0  0  0  0  0  0  0  0  0  0  0  0
  145.2829  140.1832  153.5317 H   0  0  0  0  0  0  0  0  0  0  0  0
  1  2  1  0  0  0  0
  1 20  1  0  0  0  0
  1 21  1  0  0  0  0
  1 22  1  0  0  0  0
  2  3  1  0  0  0  0
  2 15  1  0  0  0  0
  2 23  1  0  0  0  0
  3  4  2  0  0  0  0
  3  5  1  0  0  0  0
  5  6  1  0  0  0  0
  5 24  1  0  0  0  0
  6 14  1  0  0  0  0
  6  7  1  0  0  0  0
  6 25  1  0  0  0  0
  7  8  1  0  0  0  0
  7 26  1  0  0  0  0
  7 27  1  0  0  0  0
  8  9  1  0  0  0  0
  8 28  1  0  0  0  0
  8 29  1  0  0  0  0
  9 14  1  0  0  0  0
  9 10  1  0  0  0  0
  9 41  1  0  0  0  0
 10 11  1  0  0  0  0
 10 30  1  0  0  0  0
 10 31  1  0  0  0  0
 11 12  1  0  0  0  0
 11 32  1  0  0  0  0
 11 33  1  0  0  0  0
 12 13  1  0  0  0  0
 12 34  1  0  0  0  0
 12 35  1  0  0  0  0
 13 14  1  0  0  0  0
 13 36  1  0  0  0  0
 13 37  1  0  0  0  0
 14 38  1  0  0  0  0
 15 19  1  0  0  0  0
 15 16  1  0  0  0  0
 16 17  2  0  0  0  0
 16 39  1  0  0  0  0
 17 18  1  0  0  0  0
 18 19  2  0  0  0  0
 18 40  1  0  0  0  0
M  CHG  1   9   1
M  END
> <s_m_source_file>
AV-unprocessed.smi

> <i_m_source_file_index>
1406

> <i_lp_mmshare_version>
43012

> <i_f3d_flags>
0

> <s_epik_input>
bjFbY0hdbltjSF1uMVtDQEhdKFtDSDNdKUMoPU8pW05IXVtDQEhdKFtDSDJdW0NIMl0yKVtDQEBIXShOMjMpW0NIMl1bQ0gyXVtDSDJdW0NIMl0z

> <s_epik_cmdline>
J2VwaWtfcHl0aG9uJywgJy1waCcsICc3LjAnLCAnLXRuJywgJzgnLCAnLW1hJywgJzIwMCcsICctbWV0YWxfYmluZGluZycsICctaW1hZScsICc8aW5maWxlLm1hZT4nLCAnLW9tYWUnLCAnPG91dGZpbGUubWFlPic=

> <r_lp_tautomer_probability>
1

> <r_epik_Ionization_Penalty>
0.00197066

> <r_epik_Ionization_Penalty_Charging>
0.00196223

> <r_epik_Ionization_Penalty_Neutral>
8.43107e-06

> <r_epik_State_Penalty>
0.00133866

> <r_epik_Charging_Adjusted_Penalty>
0.00330089

> <i_epik_Tot_Q>
1

> <i_epik_Tot_abs_Q>
1

> <r_epik_Metal_State_Penalty>
-0

> <b_epik_Metal_Only>
0

> <s_lp_Force_Field>
OPLS_2005

> <r_lp_Energy>
39.8757

> <b_lp_Chiralities_Consistent>
1

> <s_lp_Variant>
AV-unprocessed.smi:1406-5

> <Gold.Version>
5.8.1

> <Gold.Id.Protein>
6NUR|6NUR_protein|mol2

> <Gold.PLP.Fitness>
43.3514

> <Gold.PLP.PLP>
-27.5889

> <Gold.PLP.part.hbond>
-3.0000

> <Gold.PLP.part.metal>
0.0000

> <Gold.PLP.part.buried>
-0.1427

> <Gold.PLP.part.nonpolar>
-25.2730

> <Gold.PLP.part.repulsive>
0.6900

> <Gold.PLP.ligand.clash>
0.0000

> <Gold.PLP.ligand.torsion>
0.1683

> <Gold.PLP.Chemscore.Hbond>
3.8320

> <Gold.PLP.Chemscore.CHOScore>
1.4972

> <Gold.PLP.Chemscore.Metal>
0.0000

> <Gold.Chemscore.Hbonds>
donor molecule, donor type, donor heavy atom, donor atom, acceptor molecule, acceptor atom, score
      L1  H     5    24       P1  7948  0.55
      L1  H     9    41       P1 10175  2.00
      L1  C    16    39       P1  7921  0.06

> <Gold.PLP.Chemscore.Internal.Correction>
0.1115

> <Gold.Rescore>
     Score         DG    S(hbond)    S(metal)    S(lipo)     H(rot)  DE(clash)    DE(int)     intcor
     12.33     -16.03       2.81        0.00      51.16       1.89       1.97       1.73       ----

> <Gold.Chemscore.Fitness>
12.3270

> <Gold.Chemscore.DG>
-16.0304

> <Gold.Chemscore.ZeroCoef>
-5.4800

> <Gold.Chemscore.Hbond>
2.8125

> <Gold.Chemscore.Metal>
0.0000

> <Gold.Chemscore.Lipo>
51.1633

> <Gold.Chemscore.Internal_Hbond>
0.0000

> <Gold.Chemscore.DEClash>
1.9685

> <Gold.Chemscore.DEInternal>
1.7350

> <Gold.Chemscore.Rot>
1.8865

> <Gold.Chemscore.Internal.Correction>
   9.000000E+99

> <Gold.Chemscore.Hbonds>
donor molecule, donor type, donor heavy atom, donor atom, acceptor molecule, acceptor atom, score
      L1  H     5    24       P1  7948  0.54
      L1  H     9    41       P1 10175  0.98

> <Gold.Chemscore.Hbond.Weighted>
-9.3938

> <Gold.Chemscore.Metal.Weighted>
-0.0000

> <Gold.Chemscore.Lipo.Weighted>
-5.9861

> <Gold.Chemscore.Internal_Hbond.Weighted>
0.0000

> <Gold.Chemscore.DEClash.Weighted>
1.9685

> <Gold.Chemscore.DEInternal.Weighted>
1.7350

> <Gold.Chemscore.Rot.Weighted>
4.8295

> <Gold.Chemscore.Internal.Correction.Weighted>
   9.000000E+99

> <Gold.Protein.RotatedTorsions>
[ 6907 6896 6895 6894 ] final   62.44 input  -60.11 | X-H torsion
[ 7974 7965 7964 7962 ] final  152.75 input  175.53 | X-H torsion
[ 8008 7997 7996 7995 ] final   43.84 input   59.86 | X-H torsion
[ 10167 10162 10161 10158 ] final  -21.33 input  -65.29 | X-H torsion
[ 10718 10713 10712 10709 ] final  172.35 input   66.30 | X-H torsion
[ 10763 10752 10751 10750 ] final  -76.13 input  -60.55 | X-H torsion
[ 11005 11000 10999 10996 ] final   96.52 input  -57.11 | X-H torsion

> <Gold.Protein.ActiveResidues>
 VAL166  LYS551  ARG553  GLY616  TRP617  ASP618  TYR619  PRO620  LYS621  CYS622 
 ASP623  PHE694  ASN695  SER759  ASP760  ASP761  ALA762  ILE779  LEU786  VAL792 
 PHE793  MET794  SER795  GLU796  ALA797  LYS798  CYS799  TRP800  GLU811  SER814 

> <Gold.Protein.RotatedAtoms>
  152.4172  134.6020  160.0002 H   0  0  0  0  0  0  0  0  0  0  0  0  # atno 6907 bound_to 6896
  151.6180  133.3336  159.3090 H   0  0  0  0  0  0  0  0  0  0  0  0  # atno 6908 bound_to 6896
  150.8060  134.7225  159.6711 H   0  0  0  0  0  0  0  0  0  0  0  0  # atno 6909 bound_to 6896
  144.8201  139.6709  143.6104 H   0  0  0  0  0  0  0  0  0  0  0  0  # atno 7974 bound_to 7965
  155.3094  140.3390  155.4244 H   0  0  0  0  0  0  0  0  0  0  0  0  # atno 8008 bound_to 7997
  156.1963  140.1716  156.8030 H   0  0  0  0  0  0  0  0  0  0  0  0  # atno 8009 bound_to 7997
  154.5502  140.0707  156.8640 H   0  0  0  0  0  0  0  0  0  0  0  0  # atno 8010 bound_to 7997
  140.7281  143.4638  151.0342 H   0  0  0  0  0  0  0  0  0  0  0  0  # atno 10167 bound_to 10162
  156.9802  131.0117  151.2883 H   0  0  0  0  0  0  0  0  0  0  0  0  # atno 10718 bound_to 10713
  154.4957  135.5808  153.6493 H   0  0  0  0  0  0  0  0  0  0  0  0  # atno 10763 bound_to 10752
  152.9870  135.6123  154.3067 H   0  0  0  0  0  0  0  0  0  0  0  0  # atno 10764 bound_to 10752
  154.2970  135.2847  155.2608 H   0  0  0  0  0  0  0  0  0  0  0  0  # atno 10765 bound_to 10752
  139.8781  134.8955  156.4171 H   0  0  0  0  0  0  0  0  0  0  0  0  # atno 11005 bound_to 11000
  146.2506  139.6191  142.9430 LP  0  0  0  0  0  0  0  0  0  0  0  0  # atno 17320 bound_to 7965
  145.5125  141.0435  143.2480 LP  0  0  0  0  0  0  0  0  0  0  0  0  # atno 17321 bound_to 7965
  139.8324  143.7673  152.3180 LP  0  0  0  0  0  0  0  0  0  0  0  0  # atno 17342 bound_to 10162
  139.7793  144.7450  151.0111 LP  0  0  0  0  0  0  0  0  0  0  0  0  # atno 17343 bound_to 10162
  157.5531  130.8195  149.8170 LP  0  0  0  0  0  0  0  0  0  0  0  0  # atno 17370 bound_to 10713
  156.0247  130.3783  150.1857 LP  0  0  0  0  0  0  0  0  0  0  0  0  # atno 17371 bound_to 10713
  140.9160  133.7678  155.9849 LP  0  0  0  0  0  0  0  0  0  0  0  0  # atno 17394 bound_to 11000
  140.8493  134.2973  157.5282 LP  0  0  0  0  0  0  0  0  0  0  0  0  # atno 17395 bound_to 11000

$$$$
