AV-unprocessed.smi:3014|AV-procd|sdf|11466|dock3
  -GOLD-   2272016403D 1   1.00000     0.00000
 Structure written by MMmdl.
 45 46  0  0  0  0  0  0  0  0  1 V2000
  151.4644  145.4653  159.5690 C   0  0  0  0  0  0  0  0  0  0  0  0
  151.8413  144.0586  160.0548 C   0  0  2  0  0  0  0  0  0  0  0  0
  152.2701  144.0720  161.5347 C   0  0  0  0  0  0  0  0  0  0  0  0
  152.6601  142.6686  162.0246 C   0  0  0  0  0  0  0  0  0  0  0  0
  153.7558  142.0516  161.1397 C   0  0  0  0  0  0  0  0  0  0  0  0
  153.3431  142.0238  159.6576 C   0  0  1  0  0  0  0  0  0  0  0  0
  152.2548  141.1171  159.5321 O   0  0  0  0  0  0  0  0  0  0  0  0
  152.6216  139.7440  159.4700 C   0  0  0  0  0  0  0  0  0  0  0  0
  151.8733  139.0597  158.3231 C   0  0  0  0  0  0  0  0  0  0  0  0
  151.8767  137.8305  158.2596 O   0  0  0  0  0  0  0  0  0  0  0  0
  151.2384  139.8672  157.4516 N   0  0  0  0  0  0  0  0  0  0  0  0
  150.5051  139.5071  156.2920 C   0  0  0  0  0  0  0  0  0  0  0  0
  150.9805  138.3793  155.5892 C   0  0  0  0  0  0  0  0  0  0  0  0
  150.2685  137.9953  154.4367 C   0  0  0  0  0  0  0  0  0  0  0  0
  149.1782  138.6694  154.0178 N   0  0  0  0  0  0  0  0  0  0  0  0
  148.7929  139.7266  154.7427 C   0  0  0  0  0  0  0  0  0  0  0  0
  147.6603  140.4253  154.3155 N   0  0  0  0  0  0  0  0  0  0  0  0
  146.7279  139.8373  153.3577 C   0  0  0  0  0  0  0  0  0  0  0  0
  147.3834  141.7784  154.7885 C   0  0  0  0  0  0  0  0  0  0  0  0
  149.4070  140.1662  155.8486 N   0  0  0  0  0  0  0  0  0  0  0  0
  152.9474  143.4371  159.1781 C   0  0  0  0  0  0  0  0  0  0  0  0
  152.3140  146.1462  159.6280 H   0  0  0  0  0  0  0  0  0  0  0  0
  150.6586  145.8854  160.1715 H   0  0  0  0  0  0  0  0  0  0  0  0
  151.1244  145.4453  158.5333 H   0  0  0  0  0  0  0  0  0  0  0  0
  150.9507  143.4342  159.9676 H   0  0  0  0  0  0  0  0  0  0  0  0
  153.1149  144.7492  161.6673 H   0  0  0  0  0  0  0  0  0  0  0  0
  151.4618  144.4623  162.1541 H   0  0  0  0  0  0  0  0  0  0  0  0
  153.0031  142.7190  163.0583 H   0  0  0  0  0  0  0  0  0  0  0  0
  151.7805  142.0237  162.0243 H   0  0  0  0  0  0  0  0  0  0  0  0
  154.6738  142.6304  161.2487 H   0  0  0  0  0  0  0  0  0  0  0  0
  153.9876  141.0426  161.4824 H   0  0  0  0  0  0  0  0  0  0  0  0
  154.1898  141.6584  159.0739 H   0  0  0  0  0  0  0  0  0  0  0  0
  153.6929  139.6304  159.3045 H   0  0  0  0  0  0  0  0  0  0  0  0
  152.3728  139.2431  160.4063 H   0  0  0  0  0  0  0  0  0  0  0  0
  151.3062  140.8574  157.6368 H   0  0  0  0  0  0  0  0  0  0  0  0
  151.8512  137.8291  155.9148 H   0  0  0  0  0  0  0  0  0  0  0  0
  150.5753  137.1426  153.8495 H   0  0  0  0  0  0  0  0  0  0  0  0
  146.3386  138.8911  153.7355 H   0  0  0  0  0  0  0  0  0  0  0  0
  147.2296  139.6476  152.4084 H   0  0  0  0  0  0  0  0  0  0  0  0
  145.8776  140.4907  153.1619 H   0  0  0  0  0  0  0  0  0  0  0  0
  148.2142  142.4428  154.5482 H   0  0  0  0  0  0  0  0  0  0  0  0
  147.2423  141.7814  155.8698 H   0  0  0  0  0  0  0  0  0  0  0  0
  146.4843  142.1938  154.3333 H   0  0  0  0  0  0  0  0  0  0  0  0
  152.6307  143.4156  158.1357 H   0  0  0  0  0  0  0  0  0  0  0  0
  153.8295  144.0783  159.2055 H   0  0  0  0  0  0  0  0  0  0  0  0
  1  2  1  0  0  0  0
  1 22  1  0  0  0  0
  1 23  1  0  0  0  0
  1 24  1  0  0  0  0
  2 21  1  0  0  0  0
  2  3  1  0  0  0  0
  2 25  1  0  0  0  0
  3  4  1  0  0  0  0
  3 26  1  0  0  0  0
  3 27  1  0  0  0  0
  4  5  1  0  0  0  0
  4 28  1  0  0  0  0
  4 29  1  0  0  0  0
  5  6  1  0  0  0  0
  5 30  1  0  0  0  0
  5 31  1  0  0  0  0
  6  7  1  0  0  0  0
  6 21  1  0  0  0  0
  6 32  1  0  0  0  0
  7  8  1  0  0  0  0
  8  9  1  0  0  0  0
  8 33  1  0  0  0  0
  8 34  1  0  0  0  0
  9 10  2  0  0  0  0
  9 11  1  0  0  0  0
 11 12  1  0  0  0  0
 11 35  1  0  0  0  0
 12 20  1  0  0  0  0
 12 13  2  0  0  0  0
 13 14  1  0  0  0  0
 13 36  1  0  0  0  0
 14 15  2  0  0  0  0
 14 37  1  0  0  0  0
 15 16  1  0  0  0  0
 16 17  1  0  0  0  0
 16 20  2  0  0  0  0
 17 18  1  0  0  0  0
 17 19  1  0  0  0  0
 18 38  1  0  0  0  0
 18 39  1  0  0  0  0
 18 40  1  0  0  0  0
 19 41  1  0  0  0  0
 19 42  1  0  0  0  0
 19 43  1  0  0  0  0
 21 44  1  0  0  0  0
 21 45  1  0  0  0  0
M  END
> <s_m_source_file>
AV-unprocessed.smi

> <i_m_source_file_index>
3014

> <i_lp_mmshare_version>
43012

> <i_f3d_flags>
0

> <s_epik_input>
W0NIM11bQ0BASF0xW0NIMl1bQ0gyXVtDSDJdW0NASF0oW0NIMl0xKU9bQ0gyXUMoPU8pW05IXWMyW2NIXVtjSF1uYyhuMilOKFtDSDNdKVtDSDNd

> <s_epik_cmdline>
J2VwaWtfcHl0aG9uJywgJy1waCcsICc3LjAnLCAnLXRuJywgJzgnLCAnLW1hJywgJzIwMCcsICctbWV0YWxfYmluZGluZycsICctaW1hZScsICc8aW5maWxlLm1hZT4nLCAnLW9tYWUnLCAnPG91dGZpbGUubWFlPic=

> <r_lp_tautomer_probability>
1

> <r_epik_Ionization_Penalty>
0.000308195

> <r_epik_Ionization_Penalty_Charging>
0

> <r_epik_Ionization_Penalty_Neutral>
0.000308195

> <r_epik_State_Penalty>
-0

> <r_epik_Charging_Adjusted_Penalty>
0

> <i_epik_Tot_Q>
0

> <i_epik_Tot_abs_Q>
0

> <r_epik_Metal_State_Penalty>
-0

> <b_epik_Metal_Only>
0

> <s_lp_Force_Field>
OPLS_2005

> <r_lp_Energy>
6.70314

> <b_lp_Chiralities_Consistent>
1

> <s_lp_Variant>
AV-unprocessed.smi:3014-1

> <Gold.Version>
5.8.1

> <Gold.Id.Protein>
6NUR|6NUR_protein|mol2

> <Gold.PLP.Fitness>
48.2778

> <Gold.PLP.PLP>
-47.1060

> <Gold.PLP.part.hbond>
0.0000

> <Gold.PLP.part.metal>
0.0000

> <Gold.PLP.part.buried>
-5.2838

> <Gold.PLP.part.nonpolar>
-44.7011

> <Gold.PLP.part.repulsive>
2.6343

> <Gold.PLP.ligand.clash>
0.0000

> <Gold.PLP.ligand.torsion>
1.0477

> <Gold.PLP.Chemscore.Hbond>
0.0000

> <Gold.PLP.Chemscore.CHOScore>
1.0798

> <Gold.PLP.Chemscore.Metal>
0.0000

> <Gold.Chemscore.Hbonds>
donor molecule, donor type, donor heavy atom, donor atom, acceptor molecule, acceptor atom, score
      L1  C    14    37       P1  7948  0.36
      L1  C    14    37       P1  7949  0.38

> <Gold.PLP.Chemscore.Internal.Correction>
0.0276

> <Gold.Rescore>
     Score         DG    S(hbond)    S(metal)    S(lipo)     H(rot)  DE(clash)    DE(int)     intcor
     13.15     -15.70       0.00        0.00     118.64       1.43       0.27       2.27       ----

> <Gold.Chemscore.Fitness>
13.1535

> <Gold.Chemscore.DG>
-15.6981

> <Gold.Chemscore.ZeroCoef>
-5.4800

> <Gold.Chemscore.Hbond>
0.0000

> <Gold.Chemscore.Metal>
0.0000

> <Gold.Chemscore.Lipo>
118.6442

> <Gold.Chemscore.Internal_Hbond>
0.0000

> <Gold.Chemscore.DEClash>
0.2731

> <Gold.Chemscore.DEInternal>
2.2715

> <Gold.Chemscore.Rot>
1.4310

> <Gold.Chemscore.Internal.Correction>
   9.000000E+99

> <Gold.Chemscore.Hbond.Weighted>
-0.0000

> <Gold.Chemscore.Metal.Weighted>
-0.0000

> <Gold.Chemscore.Lipo.Weighted>
-13.8814

> <Gold.Chemscore.Internal_Hbond.Weighted>
0.0000

> <Gold.Chemscore.DEClash.Weighted>
0.2731

> <Gold.Chemscore.DEInternal.Weighted>
2.2715

> <Gold.Chemscore.Rot.Weighted>
3.6632

> <Gold.Chemscore.Internal.Correction.Weighted>
   9.000000E+99

> <Gold.Protein.RotatedTorsions>
[ 6907 6896 6895 6894 ] final  146.11 input  -60.11 | X-H torsion
[ 7974 7965 7964 7962 ] final  174.88 input  175.53 | X-H torsion
[ 8008 7997 7996 7995 ] final   33.67 input   59.86 | X-H torsion
[ 10167 10162 10161 10158 ] final -174.40 input  -65.29 | X-H torsion
[ 10718 10713 10712 10709 ] final   81.41 input   66.30 | X-H torsion
[ 10763 10752 10751 10750 ] final  143.58 input  -60.55 | X-H torsion
[ 11005 11000 10999 10996 ] final -178.28 input  -57.11 | X-H torsion

> <Gold.Protein.ActiveResidues>
 VAL166  LYS551  ARG553  GLY616  TRP617  ASP618  TYR619  PRO620  LYS621  CYS622 
 ASP623  PHE694  ASN695  SER759  ASP760  ASP761  ALA762  ILE779  LEU786  VAL792 
 PHE793  MET794  SER795  GLU796  ALA797  LYS798  CYS799  TRP800  GLU811  SER814 

> <Gold.Protein.RotatedAtoms>
  152.1722  133.4651  159.4914 H   0  0  0  0  0  0  0  0  0  0  0  0  # atno 6907 bound_to 6896
  150.6921  134.1939  159.4305 H   0  0  0  0  0  0  0  0  0  0  0  0  # atno 6908 bound_to 6896
  151.9846  135.0010  160.0609 H   0  0  0  0  0  0  0  0  0  0  0  0  # atno 6909 bound_to 6896
  144.7212  139.9864  143.6439 H   0  0  0  0  0  0  0  0  0  0  0  0  # atno 7974 bound_to 7965
  155.1424  140.3267  155.4449 H   0  0  0  0  0  0  0  0  0  0  0  0  # atno 8008 bound_to 7997
  156.2600  140.1991  156.6488 H   0  0  0  0  0  0  0  0  0  0  0  0  # atno 8009 bound_to 7997
  154.6533  140.0556  156.9966 H   0  0  0  0  0  0  0  0  0  0  0  0  # atno 8010 bound_to 7997
  139.5636  144.1810  152.1277 H   0  0  0  0  0  0  0  0  0  0  0  0  # atno 10167 bound_to 10162
  157.6832  131.0002  150.2222 H   0  0  0  0  0  0  0  0  0  0  0  0  # atno 10718 bound_to 10713
  153.9746  135.2947  155.3425 H   0  0  0  0  0  0  0  0  0  0  0  0  # atno 10763 bound_to 10752
  154.7303  135.5070  153.8956 H   0  0  0  0  0  0  0  0  0  0  0  0  # atno 10764 bound_to 10752
  153.0883  135.6700  154.0017 H   0  0  0  0  0  0  0  0  0  0  0  0  # atno 10765 bound_to 10752
  140.4316  134.6514  157.4714 H   0  0  0  0  0  0  0  0  0  0  0  0  # atno 11005 bound_to 11000
  146.0447  139.3454  143.0676 LP  0  0  0  0  0  0  0  0  0  0  0  0  # atno 17320 bound_to 7965
  145.8291  140.9640  143.0858 LP  0  0  0  0  0  0  0  0  0  0  0  0  # atno 17321 bound_to 7965
  140.1328  144.5272  150.6791 LP  0  0  0  0  0  0  0  0  0  0  0  0  # atno 17342 bound_to 10162
  140.6918  143.2380  151.5111 LP  0  0  0  0  0  0  0  0  0  0  0  0  # atno 17343 bound_to 10162
  156.2871  130.3741  149.7877 LP  0  0  0  0  0  0  0  0  0  0  0  0  # atno 17370 bound_to 10713
  156.5548  130.8358  151.3311 LP  0  0  0  0  0  0  0  0  0  0  0  0  # atno 17371 bound_to 10713
  140.0130  134.6661  155.9351 LP  0  0  0  0  0  0  0  0  0  0  0  0  # atno 17394 bound_to 11000
  141.1743  133.6539  156.4769 LP  0  0  0  0  0  0  0  0  0  0  0  0  # atno 17395 bound_to 11000

$$$$
