AV-unprocessed.smi:2340|AV-procd|sdf|9344|dock5
  -GOLD-   2272012563D 1   1.00000     0.00000
 Structure written by MMmdl.
 40 41  0  0  0  0  0  0  0  0  1 V2000
  147.1105  140.5475  153.2570 C   0  0  0  0  0  0  0  0  0  0  0  0
  148.3231  140.6538  154.1271 C   0  0  0  0  0  0  0  0  0  0  0  0
  148.8121  141.7867  154.7276 C   0  0  0  0  0  0  0  0  0  0  0  0
  150.2560  141.4630  155.6464 S   0  0  0  0  0  0  0  0  0  0  0  0
  150.1353  139.7674  155.1830 C   0  0  0  0  0  0  0  0  0  0  0  0
  151.1288  138.7224  155.5955 C   0  0  2  0  0  0  0  0  0  0  0  0
  152.2721  139.3176  156.4298 C   0  0  0  0  0  0  0  0  0  0  0  0
  151.6441  137.8939  154.4028 C   0  0  0  0  0  0  0  0  0  0  0  0
  150.7548  136.7763  154.1086 N   0  0  0  0  0  0  0  0  0  0  0  0
  150.6690  135.6571  154.8369 C   0  0  0  0  0  0  0  0  0  0  0  0
  151.3187  135.4488  155.8616 O   0  0  0  0  0  0  0  0  0  0  0  0
  149.7910  134.7932  154.3111 N   0  0  0  0  0  0  0  0  0  0  0  0
  149.4627  133.4856  154.8691 C   0  0  2  0  0  0  0  0  0  0  0  0
  150.6860  132.8047  155.4478 C   0  0  0  0  0  0  0  0  0  0  0  0
  150.2803  131.3362  155.4014 C   0  0  0  0  0  0  0  0  0  0  0  0
  149.4345  131.2017  154.2643 O   0  0  0  0  0  0  0  0  0  0  0  0
  149.0345  132.4843  153.7876 C   0  0  1  0  0  0  0  0  0  0  0  0
  147.5319  132.4875  153.4809 C   0  0  0  0  0  0  0  0  0  0  0  0
  149.0860  139.5138  154.3953 N   0  0  0  0  0  0  0  0  0  0  0  0
  146.6613  141.5247  153.0779 H   0  0  0  0  0  0  0  0  0  0  0  0
  146.3510  139.9147  153.7167 H   0  0  0  0  0  0  0  0  0  0  0  0
  147.3583  140.1170  152.2867 H   0  0  0  0  0  0  0  0  0  0  0  0
  148.4143  142.7898  154.6830 H   0  0  0  0  0  0  0  0  0  0  0  0
  150.5989  138.0294  156.2513 H   0  0  0  0  0  0  0  0  0  0  0  0
  151.8869  139.8330  157.3103 H   0  0  0  0  0  0  0  0  0  0  0  0
  152.8555  140.0352  155.8522 H   0  0  0  0  0  0  0  0  0  0  0  0
  152.9523  138.5382  156.7741 H   0  0  0  0  0  0  0  0  0  0  0  0
  151.7254  138.5334  153.5218 H   0  0  0  0  0  0  0  0  0  0  0  0
  152.6440  137.5106  154.6102 H   0  0  0  0  0  0  0  0  0  0  0  0
  150.1801  136.8556  153.2821 H   0  0  0  0  0  0  0  0  0  0  0  0
  149.3102  135.0597  153.4646 H   0  0  0  0  0  0  0  0  0  0  0  0
  148.6993  133.5612  155.6465 H   0  0  0  0  0  0  0  0  0  0  0  0
  151.5556  132.9661  154.8084 H   0  0  0  0  0  0  0  0  0  0  0  0
  150.9332  133.1464  156.4533 H   0  0  0  0  0  0  0  0  0  0  0  0
  151.1388  130.6666  155.3433 H   0  0  0  0  0  0  0  0  0  0  0  0
  149.7060  131.0750  156.2910 H   0  0  0  0  0  0  0  0  0  0  0  0
  149.5958  132.6698  152.8702 H   0  0  0  0  0  0  0  0  0  0  0  0
  147.2118  133.4534  153.0901 H   0  0  0  0  0  0  0  0  0  0  0  0
  146.9458  132.2767  154.3757 H   0  0  0  0  0  0  0  0  0  0  0  0
  147.2861  131.7318  152.7349 H   0  0  0  0  0  0  0  0  0  0  0  0
  1  2  1  0  0  0  0
  1 20  1  0  0  0  0
  1 21  1  0  0  0  0
  1 22  1  0  0  0  0
  2 19  1  0  0  0  0
  2  3  2  0  0  0  0
  3  4  1  0  0  0  0
  3 23  1  0  0  0  0
  4  5  1  0  0  0  0
  5  6  1  0  0  0  0
  5 19  2  0  0  0  0
  6  7  1  0  0  0  0
  6  8  1  0  0  0  0
  6 24  1  0  0  0  0
  7 25  1  0  0  0  0
  7 26  1  0  0  0  0
  7 27  1  0  0  0  0
  8  9  1  0  0  0  0
  8 28  1  0  0  0  0
  8 29  1  0  0  0  0
  9 10  1  0  0  0  0
  9 30  1  0  0  0  0
 10 11  2  0  0  0  0
 10 12  1  0  0  0  0
 12 13  1  0  0  0  0
 12 31  1  0  0  0  0
 13 17  1  0  0  0  0
 13 14  1  0  0  0  0
 13 32  1  0  0  0  0
 14 15  1  0  0  0  0
 14 33  1  0  0  0  0
 14 34  1  0  0  0  0
 15 16  1  0  0  0  0
 15 35  1  0  0  0  0
 15 36  1  0  0  0  0
 16 17  1  0  0  0  0
 17 18  1  0  0  0  0
 17 37  1  0  0  0  0
 18 38  1  0  0  0  0
 18 39  1  0  0  0  0
 18 40  1  0  0  0  0
M  END
> <s_m_source_file>
AV-unprocessed.smi

> <i_m_source_file_index>
2340

> <i_lp_mmshare_version>
43012

> <i_f3d_flags>
0

> <s_epik_input>
W0NIM11jMVtjSF1zYyhuMSlbQ0BIXShbQ0gzXSlbQ0gyXVtOSF1DKD1PKVtOSF1bQ0BASF0yW0NIMl1bQ0gyXU9bQ0BIXTJbQ0gzXQ==

> <s_epik_cmdline>
J2VwaWtfcHl0aG9uJywgJy1waCcsICc3LjAnLCAnLXRuJywgJzgnLCAnLW1hJywgJzIwMCcsICctbWV0YWxfYmluZGluZycsICctaW1hZScsICc8aW5maWxlLm1hZT4nLCAnLW9tYWUnLCAnPG91dGZpbGUubWFlPic=

> <r_epik_Ionization_Penalty>
0.00156622

> <r_epik_Ionization_Penalty_Charging>
0

> <r_epik_Ionization_Penalty_Neutral>
0.00156622

> <r_epik_State_Penalty>
0.00101902

> <r_epik_Charging_Adjusted_Penalty>
0.00101902

> <i_epik_Tot_Q>
0

> <i_epik_Tot_abs_Q>
0

> <r_epik_Metal_State_Penalty>
-0

> <b_epik_Metal_Only>
0

> <s_lp_Force_Field>
OPLS_2005

> <r_lp_Energy>
4.8577

> <b_lp_Chiralities_Consistent>
1

> <s_lp_Variant>
AV-unprocessed.smi:2340-1

> <Gold.Version>
5.8.1

> <Gold.Id.Protein>
6NUR|6NUR_protein|mol2

> <Gold.PLP.Fitness>
44.3706

> <Gold.PLP.PLP>
-35.7047

> <Gold.PLP.part.hbond>
-4.0025

> <Gold.PLP.part.metal>
0.0000

> <Gold.PLP.part.buried>
-1.0540

> <Gold.PLP.part.nonpolar>
-30.9882

> <Gold.PLP.part.repulsive>
0.3607

> <Gold.PLP.ligand.clash>
0.0005

> <Gold.PLP.ligand.torsion>
0.8978

> <Gold.PLP.Chemscore.Hbond>
2.4500

> <Gold.PLP.Chemscore.CHOScore>
1.0000

> <Gold.PLP.Chemscore.Metal>
0.0000

> <Gold.Chemscore.Hbonds>
donor molecule, donor type, donor heavy atom, donor atom, acceptor molecule, acceptor atom, score
      L1  H     9    30       P1  7948  0.60
      L1  H    12    31       P1  7948  0.75
      P1  H 10752 10765       L1    11  1.00
      L1  C     3    23       P1  8028  1.00

> <Gold.PLP.Chemscore.Internal.Correction>
0.1121

> <Gold.Rescore>
     Score         DG    S(hbond)    S(metal)    S(lipo)     H(rot)  DE(clash)    DE(int)     intcor
     13.91     -17.46       2.04        0.00      77.75       1.53       1.14       2.41       ----

> <Gold.Chemscore.Fitness>
13.9051

> <Gold.Chemscore.DG>
-17.4572

> <Gold.Chemscore.ZeroCoef>
-5.4800

> <Gold.Chemscore.Hbond>
2.0371

> <Gold.Chemscore.Metal>
0.0000

> <Gold.Chemscore.Lipo>
77.7494

> <Gold.Chemscore.Internal_Hbond>
0.0000

> <Gold.Chemscore.DEClash>
1.1403

> <Gold.Chemscore.DEInternal>
2.4119

> <Gold.Chemscore.Rot>
1.5325

> <Gold.Chemscore.Internal.Correction>
   9.000000E+99

> <Gold.Chemscore.Hbonds>
donor molecule, donor type, donor heavy atom, donor atom, acceptor molecule, acceptor atom, score
      L1  H     9    30       P1  7948  0.04
      L1  H    12    31       P1  7948  0.09
      P1  H 10752 10765       L1    11  0.23

> <Gold.Chemscore.Hbond.Weighted>
-6.8038

> <Gold.Chemscore.Metal.Weighted>
-0.0000

> <Gold.Chemscore.Lipo.Weighted>
-9.0967

> <Gold.Chemscore.Internal_Hbond.Weighted>
0.0000

> <Gold.Chemscore.DEClash.Weighted>
1.1403

> <Gold.Chemscore.DEInternal.Weighted>
2.4119

> <Gold.Chemscore.Rot.Weighted>
3.9233

> <Gold.Chemscore.Internal.Correction.Weighted>
   9.000000E+99

> <Gold.Protein.RotatedTorsions>
[ 6907 6896 6895 6894 ] final   61.41 input  -60.11 | X-H torsion
[ 7974 7965 7964 7962 ] final -114.90 input  175.53 | X-H torsion
[ 8008 7997 7996 7995 ] final -149.51 input   59.86 | X-H torsion
[ 10167 10162 10161 10158 ] final  -18.52 input  -65.29 | X-H torsion
[ 10718 10713 10712 10709 ] final -161.14 input   66.30 | X-H torsion
[ 10763 10752 10751 10750 ] final -145.27 input  -60.55 | X-H torsion
[ 11005 11000 10999 10996 ] final  -91.99 input  -57.11 | X-H torsion

> <Gold.Protein.ActiveResidues>
 VAL166  LYS551  ARG553  GLY616  TRP617  ASP618  TYR619  PRO620  LYS621  CYS622 
 ASP623  PHE694  ASN695  SER759  ASP760  ASP761  ALA762  ILE779  LEU786  VAL792 
 PHE793  MET794  SER795  GLU796  ALA797  LYS798  CYS799  TRP800  GLU811  SER814 

> <Gold.Protein.RotatedAtoms>
  152.4086  134.6163  160.0038 H   0  0  0  0  0  0  0  0  0  0  0  0  # atno 6907 bound_to 6896
  151.6347  133.3324  159.3124 H   0  0  0  0  0  0  0  0  0  0  0  0  # atno 6908 bound_to 6896
  150.7979  134.7093  159.6639 H   0  0  0  0  0  0  0  0  0  0  0  0  # atno 6909 bound_to 6896
  145.1148  140.8633  143.3849 H   0  0  0  0  0  0  0  0  0  0  0  0  # atno 7974 bound_to 7965
  155.6087  140.0669  157.2712 H   0  0  0  0  0  0  0  0  0  0  0  0  # atno 8008 bound_to 7997
  154.4259  140.1805  156.1297 H   0  0  0  0  0  0  0  0  0  0  0  0  # atno 8009 bound_to 7997
  156.0102  140.3327  155.6936 H   0  0  0  0  0  0  0  0  0  0  0  0  # atno 8010 bound_to 7997
  140.7259  143.4908  150.9994 H   0  0  0  0  0  0  0  0  0  0  0  0  # atno 10167 bound_to 10162
  156.5920  130.8774  151.2892 H   0  0  0  0  0  0  0  0  0  0  0  0  # atno 10718 bound_to 10713
  154.8391  135.3417  154.6478 H   0  0  0  0  0  0  0  0  0  0  0  0  # atno 10763 bound_to 10752
  153.7090  135.6965  153.5047 H   0  0  0  0  0  0  0  0  0  0  0  0  # atno 10764 bound_to 10752
  153.2465  135.4367  155.0707 H   0  0  0  0  0  0  0  0  0  0  0  0  # atno 10765 bound_to 10752
  141.1532  133.7791  156.9957 H   0  0  0  0  0  0  0  0  0  0  0  0  # atno 11005 bound_to 11000
  145.0807  139.2962  143.5785 LP  0  0  0  0  0  0  0  0  0  0  0  0  # atno 17320 bound_to 7965
  146.3524  140.0312  142.8650 LP  0  0  0  0  0  0  0  0  0  0  0  0  # atno 17321 bound_to 7965
  139.8612  143.7312  152.3173 LP  0  0  0  0  0  0  0  0  0  0  0  0  # atno 17342 bound_to 10162
  139.7528  144.7529  151.0481 LP  0  0  0  0  0  0  0  0  0  0  0  0  # atno 17343 bound_to 10162
  157.7301  130.9681  150.1818 LP  0  0  0  0  0  0  0  0  0  0  0  0  # atno 17370 bound_to 10713
  156.2542  130.3704  149.8200 LP  0  0  0  0  0  0  0  0  0  0  0  0  # atno 17371 bound_to 10713
  140.0973  134.9556  157.1869 LP  0  0  0  0  0  0  0  0  0  0  0  0  # atno 17394 bound_to 11000
  140.3365  134.2751  155.7219 LP  0  0  0  0  0  0  0  0  0  0  0  0  # atno 17395 bound_to 11000

$$$$
