AV-unprocessed.smi:1749|AV-procd|sdf|7050|dock1
  -GOLD-   22720 8263D 1   1.00000     0.00000
 Structure written by MMmdl.
 31 32  0  0  0  0  0  0  0  0  2 V2000
  152.6520  143.4964  162.3011 C   0  0  0  0  0  0  0  0  0  0  0  0
  152.8021  143.4827  160.7732 C   0  0  2  0  0  0  0  0  0  0  0  0
  152.1265  144.7079  160.1286 C   0  0  0  0  0  0  0  0  0  0  0  0
  152.2807  144.6951  158.5997 C   0  0  0  0  0  0  0  0  0  0  0  0
  151.7348  143.3921  157.9965 C   0  0  0  0  0  0  0  0  0  0  0  0
  152.4049  142.1582  158.6274 C   0  0  2  0  0  0  0  0  0  0  0  0
  151.8170  140.9476  158.0614 N   0  0  0  0  0  0  0  0  0  0  0  0
  152.3767  139.7219  158.0338 C   0  0  0  0  0  0  0  0  0  0  0  0
  153.4838  139.5608  158.5456 O   0  0  0  0  0  0  0  0  0  0  0  0
  151.6802  138.7193  157.4362 N   0  5  0  0  0  0  0  0  0  0  0  0
  151.1379  138.8428  156.2105 C   0  0  0  0  0  0  0  0  0  0  0  0
  150.9745  140.0330  155.6106 N   0  0  0  0  0  0  0  0  0  0  0  0
  150.4016  139.9348  154.3499 N   0  0  0  0  0  0  0  0  0  0  0  0
  150.1365  138.6675  154.0340 C   0  0  0  0  0  0  0  0  0  0  0  0
  150.5625  137.4795  155.2476 S   0  0  0  0  0  0  0  0  0  0  0  0
  152.2507  142.1790  160.1629 C   0  0  0  0  0  0  0  0  0  0  0  0
  151.6038  143.4505  162.5977 H   0  0  0  0  0  0  0  0  0  0  0  0
  153.0806  144.4031  162.7293 H   0  0  0  0  0  0  0  0  0  0  0  0
  153.1635  142.6460  162.7528 H   0  0  0  0  0  0  0  0  0  0  0  0
  153.8687  143.5310  160.5494 H   0  0  0  0  0  0  0  0  0  0  0  0
  151.0667  144.7235  160.3864 H   0  0  0  0  0  0  0  0  0  0  0  0
  152.5557  145.6263  160.5308 H   0  0  0  0  0  0  0  0  0  0  0  0
  151.7616  145.5504  158.1665 H   0  0  0  0  0  0  0  0  0  0  0  0
  153.3334  144.8062  158.3371 H   0  0  0  0  0  0  0  0  0  0  0  0
  150.6557  143.3464  158.1514 H   0  0  0  0  0  0  0  0  0  0  0  0
  151.8922  143.3925  156.9172 H   0  0  0  0  0  0  0  0  0  0  0  0
  153.4672  142.1847  158.3770 H   0  0  0  0  0  0  0  0  0  0  0  0
  150.9035  141.0453  157.6433 H   0  0  0  0  0  0  0  0  0  0  0  0
  149.6865  138.4306  153.0816 H   0  0  0  0  0  0  0  0  0  0  0  0
  152.7689  141.3241  160.5992 H   0  0  0  0  0  0  0  0  0  0  0  0
  151.1981  142.0670  160.4272 H   0  0  0  0  0  0  0  0  0  0  0  0
  1  2  1  0  0  0  0
  1 17  1  0  0  0  0
  1 18  1  0  0  0  0
  1 19  1  0  0  0  0
  2 16  1  0  0  0  0
  2  3  1  0  0  0  0
  2 20  1  0  0  0  0
  3  4  1  0  0  0  0
  3 21  1  0  0  0  0
  3 22  1  0  0  0  0
  4  5  1  0  0  0  0
  4 23  1  0  0  0  0
  4 24  1  0  0  0  0
  5  6  1  0  0  0  0
  5 25  1  0  0  0  0
  5 26  1  0  0  0  0
  6  7  1  0  0  0  0
  6 16  1  0  0  0  0
  6 27  1  0  0  0  0
  7  8  1  0  0  0  0
  7 28  1  0  0  0  0
  8  9  2  0  0  0  0
  8 10  1  0  0  0  0
 10 11  1  0  0  0  0
 11 15  1  0  0  0  0
 11 12  2  0  0  0  0
 12 13  1  0  0  0  0
 13 14  2  0  0  0  0
 14 15  1  0  0  0  0
 14 29  1  0  0  0  0
 16 30  1  0  0  0  0
 16 31  1  0  0  0  0
M  CHG  1  10  -1
M  END
> <s_m_source_file>
AV-unprocessed.smi

> <i_m_source_file_index>
1749

> <i_lp_mmshare_version>
43012

> <i_f3d_flags>
0

> <s_epik_input>
W0NIM11bQ0BASF0xW0NIMl1bQ0gyXVtDSDJdW0NASF0oW0NIMl0xKVtOSF1DKD1PKVtOSF1jMm5uW2NIXXMy

> <s_epik_cmdline>
J2VwaWtfcHl0aG9uJywgJy1waCcsICc3LjAnLCAnLXRuJywgJzgnLCAnLW1hJywgJzIwMCcsICctbWV0YWxfYmluZGluZycsICctaW1hZScsICc8aW5maWxlLm1hZT4nLCAnLW9tYWUnLCAnPG91dGZpbGUubWFlPic=

> <r_lp_tautomer_probability>
1

> <r_epik_Ionization_Penalty>
4.55442

> <r_epik_Ionization_Penalty_Charging>
4.5081

> <r_epik_Ionization_Penalty_Neutral>
0.0463156

> <r_epik_State_Penalty>
4.50781

> <r_epik_Charging_Adjusted_Penalty>
9.01591

> <i_epik_Tot_Q>
-1

> <i_epik_Tot_abs_Q>
1

> <r_epik_Metal_State_Penalty>
0.823335

> <b_epik_Metal_Only>
1

> <s_lp_Force_Field>
OPLS_2005

> <r_lp_Energy>
8.86182

> <b_lp_Chiralities_Consistent>
1

> <s_lp_Variant>
AV-unprocessed.smi:1749-7

> <Gold.Version>
5.8.1

> <Gold.Id.Protein>
6NUR|6NUR_protein|mol2

> <Gold.PLP.Fitness>
44.4404

> <Gold.PLP.PLP>
-34.6500

> <Gold.PLP.part.hbond>
-2.2537

> <Gold.PLP.part.metal>
0.0000

> <Gold.PLP.part.buried>
-4.8106

> <Gold.PLP.part.nonpolar>
-28.2780

> <Gold.PLP.part.repulsive>
0.2245

> <Gold.PLP.ligand.clash>
0.0000

> <Gold.PLP.ligand.torsion>
0.7759

> <Gold.PLP.Chemscore.Hbond>
2.0000

> <Gold.PLP.Chemscore.CHOScore>
1.7767

> <Gold.PLP.Chemscore.Metal>
0.0000

> <Gold.Chemscore.Hbonds>
donor molecule, donor type, donor heavy atom, donor atom, acceptor molecule, acceptor atom, score
      P1  H  7989  7998       L1    13  0.85
      P1  H  7997  8009       L1     9  1.00
      L1  C    14    29       P1  7948  0.89
      L1  C    14    29       P1  7957  0.88

> <Gold.PLP.Chemscore.Internal.Correction>
0.0120

> <Gold.Rescore>
     Score         DG    S(hbond)    S(metal)    S(lipo)     H(rot)  DE(clash)    DE(int)     intcor
     16.02     -18.28       1.17        0.00      97.78       1.00       0.03       2.23       ----

> <Gold.Chemscore.Fitness>
16.0187

> <Gold.Chemscore.DG>
-18.2816

> <Gold.Chemscore.ZeroCoef>
-5.4800

> <Gold.Chemscore.Hbond>
1.1741

> <Gold.Chemscore.Metal>
0.0000

> <Gold.Chemscore.Lipo>
97.7784

> <Gold.Chemscore.Internal_Hbond>
0.0000

> <Gold.Chemscore.DEClash>
0.0320

> <Gold.Chemscore.DEInternal>
2.2309

> <Gold.Chemscore.Rot>
1.0000

> <Gold.Chemscore.Internal.Correction>
   9.000000E+99

> <Gold.Chemscore.Hbonds>
donor molecule, donor type, donor heavy atom, donor atom, acceptor molecule, acceptor atom, score
      P1  H  7989  7998       L1    13  0.14
      P1  H  7997  8009       L1     9  0.71

> <Gold.Chemscore.Hbond.Weighted>
-3.9215

> <Gold.Chemscore.Metal.Weighted>
-0.0000

> <Gold.Chemscore.Lipo.Weighted>
-11.4401

> <Gold.Chemscore.Internal_Hbond.Weighted>
0.0000

> <Gold.Chemscore.DEClash.Weighted>
0.0320

> <Gold.Chemscore.DEInternal.Weighted>
2.2309

> <Gold.Chemscore.Rot.Weighted>
2.5600

> <Gold.Chemscore.Internal.Correction.Weighted>
   9.000000E+99

> <Gold.Protein.RotatedTorsions>
[ 6907 6896 6895 6894 ] final -159.94 input  -60.11 | X-H torsion
[ 7974 7965 7964 7962 ] final -146.93 input  175.53 | X-H torsion
[ 8008 7997 7996 7995 ] final  131.15 input   59.86 | X-H torsion
[ 10167 10162 10161 10158 ] final  128.21 input  -65.29 | X-H torsion
[ 10718 10713 10712 10709 ] final  -79.07 input   66.30 | X-H torsion
[ 10763 10752 10751 10750 ] final   43.06 input  -60.55 | X-H torsion
[ 11005 11000 10999 10996 ] final -162.31 input  -57.11 | X-H torsion

> <Gold.Protein.ActiveResidues>
 VAL166  LYS551  ARG553  GLY616  TRP617  ASP618  TYR619  PRO620  LYS621  CYS622 
 ASP623  PHE694  ASN695  SER759  ASP760  ASP761  ALA762  ILE779  LEU786  VAL792 
 PHE793  MET794  SER795  GLU796  ALA797  LYS798  CYS799  TRP800  GLU811  SER814 

> <Gold.Protein.RotatedAtoms>
  151.3414  133.3961  159.2671 H   0  0  0  0  0  0  0  0  0  0  0  0  # atno 6907 bound_to 6896
  150.9875  134.9218  159.7890 H   0  0  0  0  0  0  0  0  0  0  0  0  # atno 6908 bound_to 6896
  152.5237  134.3378  159.9258 H   0  0  0  0  0  0  0  0  0  0  0  0  # atno 6909 bound_to 6896
  144.8126  140.5392  143.5632 H   0  0  0  0  0  0  0  0  0  0  0  0  # atno 7974 bound_to 7965
  156.2966  140.2578  156.2879 H   0  0  0  0  0  0  0  0  0  0  0  0  # atno 8008 bound_to 7997
  154.9538  140.0394  157.2176 H   0  0  0  0  0  0  0  0  0  0  0  0  # atno 8009 bound_to 7997
  154.8011  140.2828  155.5925 H   0  0  0  0  0  0  0  0  0  0  0  0  # atno 8010 bound_to 7997
  139.5538  144.6834  151.4242 H   0  0  0  0  0  0  0  0  0  0  0  0  # atno 10167 bound_to 10162
  156.0101  130.4535  150.3592 H   0  0  0  0  0  0  0  0  0  0  0  0  # atno 10718 bound_to 10713
  152.9869  135.6113  154.3051 H   0  0  0  0  0  0  0  0  0  0  0  0  # atno 10763 bound_to 10752
  154.2769  135.2778  155.2716 H   0  0  0  0  0  0  0  0  0  0  0  0  # atno 10764 bound_to 10752
  154.5072  135.5851  153.6633 H   0  0  0  0  0  0  0  0  0  0  0  0  # atno 10765 bound_to 10752
  140.6107  134.4852  157.5215 H   0  0  0  0  0  0  0  0  0  0  0  0  # atno 11005 bound_to 11000
  145.5288  139.1475  143.3511 LP  0  0  0  0  0  0  0  0  0  0  0  0  # atno 17320 bound_to 7965
  146.2427  140.5428  142.8927 LP  0  0  0  0  0  0  0  0  0  0  0  0  # atno 17321 bound_to 7965
  140.6807  143.8088  150.7118 LP  0  0  0  0  0  0  0  0  0  0  0  0  # atno 17342 bound_to 10162
  140.1540  143.4332  152.2112 LP  0  0  0  0  0  0  0  0  0  0  0  0  # atno 17343 bound_to 10162
  157.1681  131.0362  151.2808 LP  0  0  0  0  0  0  0  0  0  0  0  0  # atno 17370 bound_to 10713
  157.4253  130.7460  149.6946 LP  0  0  0  0  0  0  0  0  0  0  0  0  # atno 17371 bound_to 10713
  139.9193  134.8181  156.1262 LP  0  0  0  0  0  0  0  0  0  0  0  0  # atno 17394 bound_to 11000
  141.0810  133.6754  156.2336 LP  0  0  0  0  0  0  0  0  0  0  0  0  # atno 17395 bound_to 11000

$$$$
