AV-unprocessed.smi:1|AV-procd|sdf|11|dock1
  -GOLD-   2262015103D 1   1.00000     0.00000
 Structure written by MMmdl.
 57 62  0  0  0  0  0  0  0  0  1 V2000
  153.8521  140.5413  159.8740 O   0  0  0  0  0  0  0  0  0  0  0  0
  152.8238  141.0360  159.4041 C   0  0  0  0  0  0  0  0  0  0  0  0
  151.7944  140.4110  158.7117 N   0  0  0  0  0  0  0  0  0  0  0  0
  151.9964  139.2607  158.1436 C   0  0  0  0  0  0  0  0  0  0  0  0
  153.1217  138.4291  158.0648 N   0  0  0  0  0  0  0  0  0  0  0  0
  153.1921  137.1994  157.3919 C   0  0  0  0  0  0  0  0  0  0  0  0
  152.2055  136.6494  156.7357 N   0  0  0  0  0  0  0  0  0  0  0  0
  151.0626  137.4344  156.7865 C   0  0  0  0  0  0  0  0  0  0  0  0
  150.8669  138.6464  157.4121 C   0  0  0  0  0  0  0  0  0  0  0  0
  149.5629  139.0938  157.2246 N   0  0  0  0  0  0  0  0  0  0  0  0
  149.0263  138.1261  156.4849 C   0  0  0  0  0  0  0  0  0  0  0  0
  149.8547  137.1080  156.1813 N   0  0  0  0  0  0  0  0  0  0  0  0
  149.5547  135.8867  155.3743 C   0  0  2  0  0  0  0  0  0  0  0  0
  148.2536  135.9790  154.8872 O   0  0  0  0  0  0  0  0  0  0  0  0
  147.7912  134.6575  154.6583 C   0  0  2  0  0  0  0  0  0  0  0  0
  146.2730  134.6216  154.4404 C   0  0  0  0  0  0  0  0  0  0  0  0
  146.0125  134.5159  153.0507 O   0  0  0  0  0  0  0  0  0  0  0  0
  146.4437  133.4439  152.3603 C   0  0  0  0  0  0  0  0  0  0  0  0
  147.4576  132.8063  152.6517 O   0  0  0  0  0  0  0  0  0  0  0  0
  145.5619  133.1078  151.2053 C   0  0  0  0  0  0  0  0  0  0  0  0
  144.2258  133.5723  151.1947 C   0  0  0  0  0  0  0  0  0  0  0  0
  143.3704  133.2716  150.1170 C   0  0  0  0  0  0  0  0  0  0  0  0
  143.8399  132.5011  149.0373 C   0  0  0  0  0  0  0  0  0  0  0  0
  145.1664  132.0318  149.0364 C   0  0  0  0  0  0  0  0  0  0  0  0
  146.0240  132.3327  150.1126 C   0  0  0  0  0  0  0  0  0  0  0  0
  148.2998  133.8991  155.8874 C   0  0  2  0  0  0  0  0  0  0  0  0
  147.4109  134.0741  156.9782 O   0  0  0  0  0  0  0  0  0  0  0  0
  148.2814  134.5187  158.3305 S   0  0  0  0  0  0  0  0  0  0  0  0
  147.7336  135.7867  158.8350 O   0  0  0  0  0  0  0  0  0  0  0  0
  148.4413  133.3313  159.1835 O   0  0  0  0  0  0  0  0  0  0  0  0
  149.7490  134.8328  157.5984 O   0  0  0  0  0  0  0  0  0  0  0  0
  149.6373  134.5901  156.2043 C   0  0  2  0  0  0  0  0  0  0  0  0
  152.6003  142.4997  159.6020 C   0  0  0  0  0  0  0  0  0  0  0  0
  152.5659  143.3671  158.4896 C   0  0  0  0  0  0  0  0  0  0  0  0
  152.3570  144.7476  158.6773 C   0  0  0  0  0  0  0  0  0  0  0  0
  152.1853  145.2644  159.9762 C   0  0  0  0  0  0  0  0  0  0  0  0
  152.2236  144.4013  161.0885 C   0  0  0  0  0  0  0  0  0  0  0  0
  152.4313  143.0206  160.9024 C   0  0  0  0  0  0  0  0  0  0  0  0
  154.1670  136.7141  157.4564 H   0  0  0  0  0  0  0  0  0  0  0  0
  147.9973  138.1580  156.1578 H   0  0  0  0  0  0  0  0  0  0  0  0
  150.2650  135.9092  154.5465 H   0  0  0  0  0  0  0  0  0  0  0  0
  148.2945  134.2798  153.7660 H   0  0  0  0  0  0  0  0  0  0  0  0
  145.8238  133.7851  154.9772 H   0  0  0  0  0  0  0  0  0  0  0  0
  145.8217  135.5368  154.8258 H   0  0  0  0  0  0  0  0  0  0  0  0
  143.8424  134.1656  152.0124 H   0  0  0  0  0  0  0  0  0  0  0  0
  142.3527  133.6331  150.1194 H   0  0  0  0  0  0  0  0  0  0  0  0
  143.1838  132.2701  148.2112 H   0  0  0  0  0  0  0  0  0  0  0  0
  145.5275  131.4397  148.2086 H   0  0  0  0  0  0  0  0  0  0  0  0
  147.0359  131.9561  150.0797 H   0  0  0  0  0  0  0  0  0  0  0  0
  148.4182  132.8326  155.6943 H   0  0  0  0  0  0  0  0  0  0  0  0
  150.4877  134.0043  155.8547 H   0  0  0  0  0  0  0  0  0  0  0  0
  152.6981  142.9782  157.4903 H   0  0  0  0  0  0  0  0  0  0  0  0
  152.3289  145.4098  157.8247 H   0  0  0  0  0  0  0  0  0  0  0  0
  152.0258  146.3230  160.1193 H   0  0  0  0  0  0  0  0  0  0  0  0
  152.0941  144.7982  162.0847 H   0  0  0  0  0  0  0  0  0  0  0  0
  152.4604  142.3645  161.7606 H   0  0  0  0  0  0  0  0  0  0  0  0
  153.9584  138.7464  158.5331 H   0  0  0  0  0  0  0  0  0  0  0  0
  1  2  2  0  0  0  0
  2  3  1  0  0  0  0
  2 33  1  0  0  0  0
  3  4  2  0  0  0  0
  4  9  1  0  0  0  0
  4  5  1  0  0  0  0
  5  6  1  0  0  0  0
  5 57  1  0  0  0  0
  6  7  2  0  0  0  0
  6 39  1  0  0  0  0
  7  8  1  0  0  0  0
  8 12  1  0  0  0  0
  8  9  2  0  0  0  0
  9 10  1  0  0  0  0
 10 11  2  0  0  0  0
 11 12  1  0  0  0  0
 11 40  1  0  0  0  0
 12 13  1  0  0  0  0
 13 32  1  0  0  0  0
 13 14  1  0  0  0  0
 13 41  1  0  0  0  0
 14 15  1  0  0  0  0
 15 16  1  0  0  0  0
 15 26  1  0  0  0  0
 15 42  1  0  0  0  0
 16 17  1  0  0  0  0
 16 43  1  0  0  0  0
 16 44  1  0  0  0  0
 17 18  1  0  0  0  0
 18 19  2  0  0  0  0
 18 20  1  0  0  0  0
 20 25  1  0  0  0  0
 20 21  2  0  0  0  0
 21 22  1  0  0  0  0
 21 45  1  0  0  0  0
 22 23  2  0  0  0  0
 22 46  1  0  0  0  0
 23 24  1  0  0  0  0
 23 47  1  0  0  0  0
 24 25  2  0  0  0  0
 24 48  1  0  0  0  0
 25 49  1  0  0  0  0
 26 32  1  0  0  0  0
 26 27  1  0  0  0  0
 26 50  1  0  0  0  0
 27 28  1  0  0  0  0
 28 29  2  0  0  0  0
 28 30  2  0  0  0  0
 28 31  1  0  0  0  0
 31 32  1  0  0  0  0
 32 51  1  0  0  0  0
 33 38  1  0  0  0  0
 33 34  2  0  0  0  0
 34 35  1  0  0  0  0
 34 52  1  0  0  0  0
 35 36  2  0  0  0  0
 35 53  1  0  0  0  0
 36 37  1  0  0  0  0
 36 54  1  0  0  0  0
 37 38  2  0  0  0  0
 37 55  1  0  0  0  0
 38 56  1  0  0  0  0
M  END
> <s_m_source_file>
AV-unprocessed.smi

> <i_m_source_file_index>
1

> <i_lp_mmshare_version>
43012

> <i_f3d_flags>
0

> <s_epik_input>
W2NIXTFbY0hdW2NIXVtjSF1bY0hdYzFDKD1PKVtOSF1jKG5bY0hdbjIpYyhjMjMpbltjSF1uM1tDQEBIXShbQ0BIXShbQ0BIXTQ1KU9TKE81KSg9Tyk9TylPW0NASF00W0NIMl1PQyg9TyljNltjSF1bY0hdW2NIXVtjSF1bY0hdNg==

> <s_epik_cmdline>
J2VwaWtfcHl0aG9uJywgJy1waCcsICc3LjAnLCAnLXRuJywgJzgnLCAnLW1hJywgJzIwMCcsICctbWV0YWxfYmluZGluZycsICctaW1hZScsICc8aW5maWxlLm1hZT4nLCAnLW9tYWUnLCAnPG91dGZpbGUubWFlPic=

> <r_epik_Ionization_Penalty>
0.122545

> <r_epik_Ionization_Penalty_Charging>
0.122545

> <r_epik_Ionization_Penalty_Neutral>
7.8935e-16

> <r_epik_State_Penalty>
2.69178

> <r_epik_Charging_Adjusted_Penalty>
2.81433

> <i_epik_Tot_Q>
0

> <i_epik_Tot_abs_Q>
0

> <r_epik_Metal_State_Penalty>
3.02665

> <b_epik_Metal_Only>
0

> <s_epik_Chemistry_Notes>
This compound has an ester and may undergo hydrolysis at high or low pH. This compound contains an acetal/aminal-like group ( X-CH(R)-Y where X, Y are N, S, or O) that may be acid/base labile, releasing an aldehyde.

> <s_lp_Force_Field>
OPLS_2005

> <r_lp_Energy>
59.7171

> <b_lp_Chiralities_Consistent>
1

> <s_lp_Variant>
AV-unprocessed.smi:1-11

> <Gold.Version>
5.8.1

> <Gold.Id.Protein>
6NUR|6NUR_protein|mol2

> <Gold.PLP.Fitness>
54.7805

> <Gold.PLP.PLP>
-55.0411

> <Gold.PLP.part.hbond>
-3.0000

> <Gold.PLP.part.metal>
0.0000

> <Gold.PLP.part.buried>
-3.7366

> <Gold.PLP.part.nonpolar>
-49.1511

> <Gold.PLP.part.repulsive>
0.7663

> <Gold.PLP.ligand.clash>
0.0000

> <Gold.PLP.ligand.torsion>
2.4678

> <Gold.PLP.Chemscore.Hbond>
1.4160

> <Gold.PLP.Chemscore.CHOScore>
0.0000

> <Gold.PLP.Chemscore.Metal>
0.0000

> <Gold.Chemscore.Hbonds>
donor molecule, donor type, donor heavy atom, donor atom, acceptor molecule, acceptor atom, score
      P1  H 10752 10765       L1     7  0.47

> <Gold.PLP.Chemscore.Internal.Correction>
0.4271

> <Gold.Rescore>
     Score         DG    S(hbond)    S(metal)    S(lipo)     H(rot)  DE(clash)    DE(int)     intcor
     13.40     -20.10       0.76        0.00     150.01       2.13       2.05       4.65       ----

> <Gold.Chemscore.Fitness>
13.3970

> <Gold.Chemscore.DG>
-20.0974

> <Gold.Chemscore.ZeroCoef>
-5.4800

> <Gold.Chemscore.Hbond>
0.7569

> <Gold.Chemscore.Metal>
0.0000

> <Gold.Chemscore.Lipo>
150.0054

> <Gold.Chemscore.Internal_Hbond>
0.0000

> <Gold.Chemscore.DEClash>
2.0476

> <Gold.Chemscore.DEInternal>
4.6528

> <Gold.Chemscore.Rot>
2.1333

> <Gold.Chemscore.Internal.Correction>
   9.000000E+99

> <Gold.Chemscore.Hbonds>
donor molecule, donor type, donor heavy atom, donor atom, acceptor molecule, acceptor atom, score
      P1  H 10752 10765       L1     7  0.24

> <Gold.Chemscore.Hbond.Weighted>
-2.5281

> <Gold.Chemscore.Metal.Weighted>
-0.0000

> <Gold.Chemscore.Lipo.Weighted>
-17.5506

> <Gold.Chemscore.Internal_Hbond.Weighted>
0.0000

> <Gold.Chemscore.DEClash.Weighted>
2.0476

> <Gold.Chemscore.DEInternal.Weighted>
4.6528

> <Gold.Chemscore.Rot.Weighted>
5.4614

> <Gold.Chemscore.Internal.Correction.Weighted>
   9.000000E+99

> <Gold.Protein.RotatedTorsions>
[ 6907 6896 6895 6894 ] final  104.37 input  -60.11 | X-H torsion
[ 7974 7965 7964 7962 ] final  104.70 input  175.53 | X-H torsion
[ 8008 7997 7996 7995 ] final    7.45 input   59.86 | X-H torsion
[ 10167 10162 10161 10158 ] final  140.90 input  -65.29 | X-H torsion
[ 10718 10713 10712 10709 ] final   63.72 input   66.30 | X-H torsion
[ 10763 10752 10751 10750 ] final -147.42 input  -60.55 | X-H torsion
[ 11005 11000 10999 10996 ] final  166.65 input  -57.11 | X-H torsion

> <Gold.Protein.ActiveResidues>
 VAL166  LYS551  ARG553  GLY616  TRP617  ASP618  TYR619  PRO620  LYS621  CYS622 
 ASP623  PHE694  ASN695  SER759  ASP760  ASP761  ALA762  ILE779  LEU786  VAL792 
 PHE793  MET794  SER795  GLU796  ALA797  LYS798  CYS799  TRP800  GLU811  SER814 

> <Gold.Protein.RotatedAtoms>
  152.5266  133.9687  159.7751 H   0  0  0  0  0  0  0  0  0  0  0  0  # atno 6907 bound_to 6896
  150.9963  133.6091  159.2708 H   0  0  0  0  0  0  0  0  0  0  0  0  # atno 6908 bound_to 6896
  151.3216  135.0826  159.9361 H   0  0  0  0  0  0  0  0  0  0  0  0  # atno 6909 bound_to 6896
  145.3293  139.2491  143.3669 H   0  0  0  0  0  0  0  0  0  0  0  0  # atno 7974 bound_to 7965
  154.7541  140.2772  155.6268 H   0  0  0  0  0  0  0  0  0  0  0  0  # atno 8008 bound_to 7997
  156.2902  140.2673  156.2228 H   0  0  0  0  0  0  0  0  0  0  0  0  # atno 8009 bound_to 7997
  155.0100  140.0372  157.2385 H   0  0  0  0  0  0  0  0  0  0  0  0  # atno 8010 bound_to 7997
  139.5035  144.6205  151.6062 H   0  0  0  0  0  0  0  0  0  0  0  0  # atno 10167 bound_to 10162
  157.5991  130.9121  149.9752 H   0  0  0  0  0  0  0  0  0  0  0  0  # atno 10718 bound_to 10713
  154.8286  135.3360  154.6816 H   0  0  0  0  0  0  0  0  0  0  0  0  # atno 10763 bound_to 10752
  153.7438  135.6944  153.4965 H   0  0  0  0  0  0  0  0  0  0  0  0  # atno 10764 bound_to 10752
  153.2225  135.4444  155.0456 H   0  0  0  0  0  0  0  0  0  0  0  0  # atno 10765 bound_to 10752
  140.2686  134.7845  157.3655 H   0  0  0  0  0  0  0  0  0  0  0  0  # atno 11005 bound_to 11000
  146.3052  140.3867  142.8690 LP  0  0  0  0  0  0  0  0  0  0  0  0  # atno 17320 bound_to 7965
  144.8877  140.7483  143.5946 LP  0  0  0  0  0  0  0  0  0  0  0  0  # atno 17321 bound_to 7965
  140.5906  143.9786  150.6322 LP  0  0  0  0  0  0  0  0  0  0  0  0  # atno 17342 bound_to 10162
  140.2966  143.3289  152.1012 LP  0  0  0  0  0  0  0  0  0  0  0  0  # atno 17343 bound_to 10162
  156.1059  130.3652  150.0134 LP  0  0  0  0  0  0  0  0  0  0  0  0  # atno 17370 bound_to 10713
  156.8241  130.9369  151.3640 LP  0  0  0  0  0  0  0  0  0  0  0  0  # atno 17371 bound_to 10713
  140.1395  134.4990  155.8042 LP  0  0  0  0  0  0  0  0  0  0  0  0  # atno 17394 bound_to 11000
  141.2180  133.6820  156.7185 LP  0  0  0  0  0  0  0  0  0  0  0  0  # atno 17395 bound_to 11000

$$$$
