AV-unprocessed.smi:3047|AV-procd|sdf|11621|dock3
  -GOLD-   2272017 03D 1   1.00000     0.00000
 Structure written by MMmdl.
 38 39  0  0  0  0  0  0  0  0  2 V2000
  149.1671  138.8664  156.5843 C   0  0  0  0  0  0  0  0  0  0  0  0
  150.6945  137.8435  156.6261 S   0  0  0  0  0  0  0  0  0  0  0  0
  150.3387  136.4681  156.2446 O   0  0  0  0  0  0  0  0  0  0  0  0
  151.7686  138.5485  155.9101 O   0  0  0  0  0  0  0  0  0  0  0  0
  151.1015  137.8281  158.3078 N   0  0  0  0  0  0  0  0  0  0  0  0
  150.8078  136.6237  159.0965 C   0  0  0  0  0  0  0  0  0  0  0  0
  150.6903  137.0969  160.5431 C   0  0  0  0  0  0  0  0  0  0  0  0
  150.1671  138.5192  160.3976 C   0  0  0  0  0  0  0  0  0  0  0  0
  150.8321  139.0335  159.1086 C   0  0  1  0  0  0  0  0  0  0  0  0
  152.0968  139.8658  159.3640 C   0  0  0  0  0  0  0  0  0  0  0  0
  153.1837  139.5185  158.9004 O   0  0  0  0  0  0  0  0  0  0  0  0
  151.9362  140.9785  160.0967 N   0  0  0  0  0  0  0  0  0  0  0  0
  152.9946  141.9261  160.4231 C   0  0  0  0  0  0  0  0  0  0  0  0
  153.2276  142.9344  159.2856 C   0  0  0  0  0  0  0  0  0  0  0  0
  152.2687  144.0389  159.3395 N   0  0  0  0  0  0  0  0  0  0  0  0
  152.3300  145.1501  160.1406 C   0  0  0  0  0  0  0  0  0  0  0  0
  151.2249  145.9062  159.8447 C   0  0  0  0  0  0  0  0  0  0  0  0
  150.5368  145.2248  158.8763 N   0  3  0  0  0  0  0  0  0  0  0  0
  151.1736  144.0896  158.5699 C   0  0  0  0  0  0  0  0  0  0  0  0
  148.7896  138.9100  155.5631 H   0  0  0  0  0  0  0  0  0  0  0  0
  149.3908  139.8758  156.9282 H   0  0  0  0  0  0  0  0  0  0  0  0
  148.4117  138.4203  157.2307 H   0  0  0  0  0  0  0  0  0  0  0  0
  149.8614  136.1944  158.7657 H   0  0  0  0  0  0  0  0  0  0  0  0
  151.5882  135.8737  158.9658 H   0  0  0  0  0  0  0  0  0  0  0  0
  150.0360  136.4641  161.1432 H   0  0  0  0  0  0  0  0  0  0  0  0
  151.6744  137.1065  161.0133 H   0  0  0  0  0  0  0  0  0  0  0  0
  149.0840  138.5016  160.2679 H   0  0  0  0  0  0  0  0  0  0  0  0
  150.3767  139.1295  161.2774 H   0  0  0  0  0  0  0  0  0  0  0  0
  150.1111  139.6616  158.5821 H   0  0  0  0  0  0  0  0  0  0  0  0
  151.0064  141.1981  160.4251 H   0  0  0  0  0  0  0  0  0  0  0  0
  152.7524  142.4441  161.3527 H   0  0  0  0  0  0  0  0  0  0  0  0
  153.9075  141.3605  160.6123 H   0  0  0  0  0  0  0  0  0  0  0  0
  154.2362  143.3483  159.3324 H   0  0  0  0  0  0  0  0  0  0  0  0
  153.1218  142.4561  158.3107 H   0  0  0  0  0  0  0  0  0  0  0  0
  153.1352  145.3160  160.8423 H   0  0  0  0  0  0  0  0  0  0  0  0
  150.8860  146.8528  160.2401 H   0  0  0  0  0  0  0  0  0  0  0  0
  150.8635  143.3594  157.8435 H   0  0  0  0  0  0  0  0  0  0  0  0
  149.6714  145.5338  158.4511 H   0  0  0  0  0  0  0  0  0  0  0  0
  1  2  1  0  0  0  0
  1 20  1  0  0  0  0
  1 21  1  0  0  0  0
  1 22  1  0  0  0  0
  2  3  2  0  0  0  0
  2  4  2  0  0  0  0
  2  5  1  0  0  0  0
  5  9  1  0  0  0  0
  5  6  1  0  0  0  0
  6  7  1  0  0  0  0
  6 23  1  0  0  0  0
  6 24  1  0  0  0  0
  7  8  1  0  0  0  0
  7 25  1  0  0  0  0
  7 26  1  0  0  0  0
  8  9  1  0  0  0  0
  8 27  1  0  0  0  0
  8 28  1  0  0  0  0
  9 10  1  0  0  0  0
  9 29  1  0  0  0  0
 10 11  2  0  0  0  0
 10 12  1  0  0  0  0
 12 13  1  0  0  0  0
 12 30  1  0  0  0  0
 13 14  1  0  0  0  0
 13 31  1  0  0  0  0
 13 32  1  0  0  0  0
 14 15  1  0  0  0  0
 14 33  1  0  0  0  0
 14 34  1  0  0  0  0
 15 19  1  0  0  0  0
 15 16  1  0  0  0  0
 16 17  2  0  0  0  0
 16 35  1  0  0  0  0
 17 18  1  0  0  0  0
 17 36  1  0  0  0  0
 18 19  2  0  0  0  0
 18 38  1  0  0  0  0
 19 37  1  0  0  0  0
M  CHG  1  18   1
M  END
> <s_m_source_file>
AV-unprocessed.smi

> <i_m_source_file_index>
3047

> <i_lp_mmshare_version>
43012

> <i_f3d_flags>
0

> <s_epik_input>
W0NIM11TKD1PKSg9TylOMVtDSDJdW0NIMl1bQ0gyXVtDQEhdMUMoPU8pW05IXVtDSDJdW0NIMl1uMltjSF1bY0hdbltjSF0y

> <s_epik_cmdline>
J2VwaWtfcHl0aG9uJywgJy1waCcsICc3LjAnLCAnLXRuJywgJzgnLCAnLW1hJywgJzIwMCcsICctbWV0YWxfYmluZGluZycsICctaW1hZScsICc8aW5maWxlLm1hZT4nLCAnLW9tYWUnLCAnPG91dGZpbGUubWFlPic=

> <r_lp_tautomer_probability>
1

> <r_epik_Ionization_Penalty>
0.281738

> <r_epik_Ionization_Penalty_Charging>
0

> <r_epik_Ionization_Penalty_Neutral>
0.281738

> <r_epik_State_Penalty>
0.274352

> <r_epik_Charging_Adjusted_Penalty>
0.274352

> <i_epik_Tot_Q>
1

> <i_epik_Tot_abs_Q>
1

> <r_epik_Metal_State_Penalty>
0.555562

> <b_epik_Metal_Only>
0

> <s_lp_Force_Field>
OPLS_2005

> <r_lp_Energy>
11.1573

> <b_lp_Chiralities_Consistent>
1

> <s_lp_Variant>
AV-unprocessed.smi:3047-1

> <Gold.Version>
5.8.1

> <Gold.Id.Protein>
6NUR|6NUR_protein|mol2

> <Gold.PLP.Fitness>
49.7876

> <Gold.PLP.PLP>
-37.2412

> <Gold.PLP.part.hbond>
-4.8818

> <Gold.PLP.part.metal>
0.0000

> <Gold.PLP.part.buried>
-1.8363

> <Gold.PLP.part.nonpolar>
-31.4383

> <Gold.PLP.part.repulsive>
0.9542

> <Gold.PLP.ligand.clash>
0.0000

> <Gold.PLP.ligand.torsion>
1.3980

> <Gold.PLP.Chemscore.Hbond>
4.9209

> <Gold.PLP.Chemscore.CHOScore>
0.0000

> <Gold.PLP.Chemscore.Metal>
0.0000

> <Gold.Chemscore.Hbonds>
donor molecule, donor type, donor heavy atom, donor atom, acceptor molecule, acceptor atom, score
      L1  H    18    38       P1  8029  1.40
      P1  H  7997  8009       L1    11  0.03

> <Gold.PLP.Chemscore.Internal.Correction>
0.5797

> <Gold.Rescore>
     Score         DG    S(hbond)    S(metal)    S(lipo)     H(rot)  DE(clash)    DE(int)     intcor
     17.35     -19.26       3.70        0.00      66.06       2.47       0.68       1.23       ----

> <Gold.Chemscore.Fitness>
17.3529

> <Gold.Chemscore.DG>
-19.2602

> <Gold.Chemscore.ZeroCoef>
-5.4800

> <Gold.Chemscore.Hbond>
3.7041

> <Gold.Chemscore.Metal>
0.0000

> <Gold.Chemscore.Lipo>
66.0606

> <Gold.Chemscore.Internal_Hbond>
0.0000

> <Gold.Chemscore.DEClash>
0.6812

> <Gold.Chemscore.DEInternal>
1.2261

> <Gold.Chemscore.Rot>
2.4689

> <Gold.Chemscore.Internal.Correction>
   9.000000E+99

> <Gold.Chemscore.Hbonds>
donor molecule, donor type, donor heavy atom, donor atom, acceptor molecule, acceptor atom, score
      L1  H    18    38       P1  8029  0.54
      P1  H  7997  8009       L1    11  0.09

> <Gold.Chemscore.Hbond.Weighted>
-12.3715

> <Gold.Chemscore.Metal.Weighted>
-0.0000

> <Gold.Chemscore.Lipo.Weighted>
-7.7291

> <Gold.Chemscore.Internal_Hbond.Weighted>
0.0000

> <Gold.Chemscore.DEClash.Weighted>
0.6812

> <Gold.Chemscore.DEInternal.Weighted>
1.2261

> <Gold.Chemscore.Rot.Weighted>
6.3204

> <Gold.Chemscore.Internal.Correction.Weighted>
   9.000000E+99

> <Gold.Protein.RotatedTorsions>
[ 6907 6896 6895 6894 ] final  167.59 input  -60.11 | X-H torsion
[ 7974 7965 7964 7962 ] final  -43.87 input  175.53 | X-H torsion
[ 8008 7997 7996 7995 ] final  132.77 input   59.86 | X-H torsion
[ 10167 10162 10161 10158 ] final -126.98 input  -65.29 | X-H torsion
[ 10718 10713 10712 10709 ] final -167.04 input   66.30 | X-H torsion
[ 10763 10752 10751 10750 ] final  159.60 input  -60.55 | X-H torsion
[ 11005 11000 10999 10996 ] final  -25.60 input  -57.11 | X-H torsion

> <Gold.Protein.ActiveResidues>
 VAL166  LYS551  ARG553  GLY616  TRP617  ASP618  TYR619  PRO620  LYS621  CYS622 
 ASP623  PHE694  ASN695  SER759  ASP760  ASP761  ALA762  ILE779  LEU786  VAL792 
 PHE793  MET794  SER795  GLU796  ALA797  LYS798  CYS799  TRP800  GLU811  SER814 

> <Gold.Protein.RotatedAtoms>
  151.8609  133.3457  159.3703 H   0  0  0  0  0  0  0  0  0  0  0  0  # atno 6907 bound_to 6896
  150.7179  134.5207  159.5661 H   0  0  0  0  0  0  0  0  0  0  0  0  # atno 6908 bound_to 6896
  152.2720  134.7923  160.0463 H   0  0  0  0  0  0  0  0  0  0  0  0  # atno 6909 bound_to 6896
  145.9976  140.7110  142.9286 H   0  0  0  0  0  0  0  0  0  0  0  0  # atno 7974 bound_to 7965
  156.2986  140.2538  156.3144 H   0  0  0  0  0  0  0  0  0  0  0  0  # atno 8008 bound_to 7997
  154.9295  140.0398  157.2059 H   0  0  0  0  0  0  0  0  0  0  0  0  # atno 8009 bound_to 7997
  154.8232  140.2863  155.5777 H   0  0  0  0  0  0  0  0  0  0  0  0  # atno 8010 bound_to 7997
  139.9657  143.5900  152.2430 H   0  0  0  0  0  0  0  0  0  0  0  0  # atno 10167 bound_to 10162
  156.6766  130.9105  151.3051 H   0  0  0  0  0  0  0  0  0  0  0  0  # atno 10718 bound_to 10713
  154.2343  135.2777  155.2878 H   0  0  0  0  0  0  0  0  0  0  0  0  # atno 10763 bound_to 10752
  154.5598  135.5650  153.7000 H   0  0  0  0  0  0  0  0  0  0  0  0  # atno 10764 bound_to 10752
  153.0013  135.6295  154.2485 H   0  0  0  0  0  0  0  0  0  0  0  0  # atno 10765 bound_to 10752
  140.8953  133.7561  156.0473 H   0  0  0  0  0  0  0  0  0  0  0  0  # atno 11005 bound_to 11000
  144.6909  140.3178  143.7237 LP  0  0  0  0  0  0  0  0  0  0  0  0  # atno 17320 bound_to 7965
  145.7536  139.1801  143.2307 LP  0  0  0  0  0  0  0  0  0  0  0  0  # atno 17321 bound_to 7965
  139.6519  144.7661  151.2131 LP  0  0  0  0  0  0  0  0  0  0  0  0  # atno 17342 bound_to 10162
  140.7538  143.6147  150.8571 LP  0  0  0  0  0  0  0  0  0  0  0  0  # atno 17343 bound_to 10162
  157.7058  130.9384  150.0928 LP  0  0  0  0  0  0  0  0  0  0  0  0  # atno 17370 bound_to 10713
  156.1899  130.3654  149.8924 LP  0  0  0  0  0  0  0  0  0  0  0  0  # atno 17371 bound_to 10713
  140.8297  134.3192  157.5353 LP  0  0  0  0  0  0  0  0  0  0  0  0  # atno 17394 bound_to 11000
  139.8735  134.9356  156.3639 LP  0  0  0  0  0  0  0  0  0  0  0  0  # atno 17395 bound_to 11000

$$$$
