AV-unprocessed.smi:589|AV-procd|sdf|3006|dock3
  -GOLD-   2262023513D 1   1.00000     0.00000
 Structure written by MMmdl.
 40 41  0  0  0  0  0  0  0  0  1 V2000
  155.3675  140.5294  160.5894 C   0  0  0  0  0  0  0  0  0  0  0  0
  154.1773  141.0843  159.8357 C   0  0  0  0  0  0  0  0  0  0  0  0
  153.8219  142.4412  159.9379 C   0  0  0  0  0  0  0  0  0  0  0  0
  152.7047  142.9090  159.2165 C   0  0  0  0  0  0  0  0  0  0  0  0
  152.3065  144.3698  159.3717 C   0  0  0  0  0  0  0  0  0  0  0  0
  151.9856  141.9938  158.3958 C   0  0  0  0  0  0  0  0  0  0  0  0
  150.7800  142.4279  157.5991 C   0  0  0  0  0  0  0  0  0  0  0  0
  150.9410  143.5148  156.8390 N   0  0  0  0  0  0  0  0  0  0  0  0
  149.7282  141.7918  157.6283 O   0  0  0  0  0  0  0  0  0  0  0  0
  152.4216  140.6369  158.3781 C   0  0  0  0  0  0  0  0  0  0  0  0
  151.7637  139.6746  157.5929 N   0  0  0  0  0  0  0  0  0  0  0  0
  151.2701  138.5182  158.3261 C   0  0  0  0  0  0  0  0  0  0  0  0
  150.3651  137.6740  157.4115 C   0  0  2  0  0  0  0  0  0  0  0  0
  149.8986  136.3860  158.0973 C   0  0  0  0  0  0  0  0  0  0  0  0
  151.0860  137.3154  156.2312 O   0  0  0  0  0  0  0  0  0  0  0  0
  151.6015  138.4197  155.4806 C   0  0  1  0  0  0  0  0  0  0  0  0
  150.4882  139.1971  154.7563 C   0  0  0  0  0  0  0  0  0  0  0  0
  152.4822  139.3090  156.3808 C   0  0  0  0  0  0  0  0  0  0  0  0
  153.4956  140.2029  159.0794 N   0  0  0  0  0  0  0  0  0  0  0  0
  155.8282  141.2910  161.2190 H   0  0  0  0  0  0  0  0  0  0  0  0
  156.1206  140.1640  159.8907 H   0  0  0  0  0  0  0  0  0  0  0  0
  155.0596  139.7013  161.2282 H   0  0  0  0  0  0  0  0  0  0  0  0
  154.3921  143.1095  160.5666 H   0  0  0  0  0  0  0  0  0  0  0  0
  151.2343  144.4674  159.5443 H   0  0  0  0  0  0  0  0  0  0  0  0
  152.5714  144.9363  158.4788 H   0  0  0  0  0  0  0  0  0  0  0  0
  152.8153  144.8282  160.2203 H   0  0  0  0  0  0  0  0  0  0  0  0
  150.1722  143.8601  156.2833 H   0  0  0  0  0  0  0  0  0  0  0  0
  151.8327  143.9887  156.8266 H   0  0  0  0  0  0  0  0  0  0  0  0
  152.1110  137.9193  158.6787 H   0  0  0  0  0  0  0  0  0  0  0  0
  150.7152  138.8494  159.2048 H   0  0  0  0  0  0  0  0  0  0  0  0
  149.4806  138.2509  157.1401 H   0  0  0  0  0  0  0  0  0  0  0  0
  149.3294  136.6073  159.0005 H   0  0  0  0  0  0  0  0  0  0  0  0
  150.7453  135.7595  158.3792 H   0  0  0  0  0  0  0  0  0  0  0  0
  149.2578  135.8028  157.4355 H   0  0  0  0  0  0  0  0  0  0  0  0
  152.2412  137.9914  154.7086 H   0  0  0  0  0  0  0  0  0  0  0  0
  150.9134  139.9527  154.0956 H   0  0  0  0  0  0  0  0  0  0  0  0
  149.8248  139.7133  155.4499 H   0  0  0  0  0  0  0  0  0  0  0  0
  149.8808  138.5286  154.1458 H   0  0  0  0  0  0  0  0  0  0  0  0
  152.7950  140.2050  155.8430 H   0  0  0  0  0  0  0  0  0  0  0  0
  153.3891  138.7682  156.6550 H   0  0  0  0  0  0  0  0  0  0  0  0
  1  2  1  0  0  0  0
  1 20  1  0  0  0  0
  1 21  1  0  0  0  0
  1 22  1  0  0  0  0
  2 19  1  0  0  0  0
  2  3  2  0  0  0  0
  3  4  1  0  0  0  0
  3 23  1  0  0  0  0
  4  5  1  0  0  0  0
  4  6  2  0  0  0  0
  5 24  1  0  0  0  0
  5 25  1  0  0  0  0
  5 26  1  0  0  0  0
  6  7  1  0  0  0  0
  6 10  1  0  0  0  0
  7  8  1  0  0  0  0
  7  9  2  0  0  0  0
  8 27  1  0  0  0  0
  8 28  1  0  0  0  0
 10 11  1  0  0  0  0
 10 19  2  0  0  0  0
 11 18  1  0  0  0  0
 11 12  1  0  0  0  0
 12 13  1  0  0  0  0
 12 29  1  0  0  0  0
 12 30  1  0  0  0  0
 13 14  1  0  0  0  0
 13 15  1  0  0  0  0
 13 31  1  0  0  0  0
 14 32  1  0  0  0  0
 14 33  1  0  0  0  0
 14 34  1  0  0  0  0
 15 16  1  0  0  0  0
 16 17  1  0  0  0  0
 16 18  1  0  0  0  0
 16 35  1  0  0  0  0
 17 36  1  0  0  0  0
 17 37  1  0  0  0  0
 17 38  1  0  0  0  0
 18 39  1  0  0  0  0
 18 40  1  0  0  0  0
M  END
> <s_m_source_file>
AV-unprocessed.smi

> <i_m_source_file_index>
589

> <i_lp_mmshare_version>
43012

> <i_f3d_flags>
0

> <s_epik_input>
W0NIM11jMVtjSF1jKFtDSDNdKWMoQyg9TylbTkgyXSljKG4xKU4yW0NIMl1bQ0BASF0oW0NIM10pT1tDQEBIXShbQ0gzXSlbQ0gyXTI=

> <s_epik_cmdline>
J2VwaWtfcHl0aG9uJywgJy1waCcsICc3LjAnLCAnLXRuJywgJzgnLCAnLW1hJywgJzIwMCcsICctbWV0YWxfYmluZGluZycsICctaW1hZScsICc8aW5maWxlLm1hZT4nLCAnLW9tYWUnLCAnPG91dGZpbGUubWFlPic=

> <r_lp_tautomer_probability>
1

> <r_epik_Ionization_Penalty>
0.000626871

> <r_epik_Ionization_Penalty_Charging>
0

> <r_epik_Ionization_Penalty_Neutral>
0.000626871

> <r_epik_State_Penalty>
0.000395665

> <r_epik_Charging_Adjusted_Penalty>
0.000395665

> <i_epik_Tot_Q>
0

> <i_epik_Tot_abs_Q>
0

> <r_epik_Metal_State_Penalty>
-0

> <b_epik_Metal_Only>
0

> <s_lp_Force_Field>
OPLS_2005

> <r_lp_Energy>
27.5489

> <b_lp_Chiralities_Consistent>
1

> <s_lp_Variant>
AV-unprocessed.smi:589-2

> <Gold.Version>
5.8.1

> <Gold.Id.Protein>
6NUR|6NUR_protein|mol2

> <Gold.PLP.Fitness>
36.0326

> <Gold.PLP.PLP>
-34.0225

> <Gold.PLP.part.hbond>
-1.8565

> <Gold.PLP.part.metal>
0.0000

> <Gold.PLP.part.buried>
-3.2408

> <Gold.PLP.part.nonpolar>
-28.8556

> <Gold.PLP.part.repulsive>
0.2015

> <Gold.PLP.ligand.clash>
0.0000

> <Gold.PLP.ligand.torsion>
1.0534

> <Gold.PLP.Chemscore.Hbond>
1.2580

> <Gold.PLP.Chemscore.CHOScore>
0.0000

> <Gold.PLP.Chemscore.Metal>
0.0000

> <Gold.Chemscore.Hbonds>
donor molecule, donor type, donor heavy atom, donor atom, acceptor molecule, acceptor atom, score
      L1  H     8    27       P1  8028  1.00
      P1  H  7997  8009       L1    19  0.02

> <Gold.PLP.Chemscore.Internal.Correction>
0.3429

> <Gold.Rescore>
     Score         DG    S(hbond)    S(metal)    S(lipo)     H(rot)  DE(clash)    DE(int)     intcor
     15.62     -17.02       0.98        0.00      92.50       1.00       0.02       1.38       ----

> <Gold.Chemscore.Fitness>
15.6246

> <Gold.Chemscore.DG>
-17.0189

> <Gold.Chemscore.ZeroCoef>
-5.4800

> <Gold.Chemscore.Hbond>
0.9811

> <Gold.Chemscore.Metal>
0.0000

> <Gold.Chemscore.Lipo>
92.4953

> <Gold.Chemscore.Internal_Hbond>
0.0000

> <Gold.Chemscore.DEClash>
0.0174

> <Gold.Chemscore.DEInternal>
1.3769

> <Gold.Chemscore.Rot>
1.0000

> <Gold.Chemscore.Internal.Correction>
   9.000000E+99

> <Gold.Chemscore.Hbonds>
donor molecule, donor type, donor heavy atom, donor atom, acceptor molecule, acceptor atom, score
      L1  H     8    27       P1  8028  1.00

> <Gold.Chemscore.Hbond.Weighted>
-3.2770

> <Gold.Chemscore.Metal.Weighted>
-0.0000

> <Gold.Chemscore.Lipo.Weighted>
-10.8219

> <Gold.Chemscore.Internal_Hbond.Weighted>
0.0000

> <Gold.Chemscore.DEClash.Weighted>
0.0174

> <Gold.Chemscore.DEInternal.Weighted>
1.3769

> <Gold.Chemscore.Rot.Weighted>
2.5600

> <Gold.Chemscore.Internal.Correction.Weighted>
   9.000000E+99

> <Gold.Protein.RotatedTorsions>
[ 6907 6896 6895 6894 ] final   18.29 input  -60.11 | X-H torsion
[ 7974 7965 7964 7962 ] final  129.13 input  175.53 | X-H torsion
[ 8008 7997 7996 7995 ] final  162.03 input   59.86 | X-H torsion
[ 10167 10162 10161 10158 ] final -110.11 input  -65.29 | X-H torsion
[ 10718 10713 10712 10709 ] final    3.22 input   66.30 | X-H torsion
[ 10763 10752 10751 10750 ] final  118.91 input  -60.55 | X-H torsion
[ 11005 11000 10999 10996 ] final  170.15 input  -57.11 | X-H torsion

> <Gold.Protein.ActiveResidues>
 VAL166  LYS551  ARG553  GLY616  TRP617  ASP618  TYR619  PRO620  LYS621  CYS622 
 ASP623  PHE694  ASN695  SER759  ASP760  ASP761  ALA762  ILE779  LEU786  VAL792 
 PHE793  MET794  SER795  GLU796  ALA797  LYS798  CYS799  TRP800  GLU811  SER814 

> <Gold.Protein.RotatedAtoms>
  151.8630  135.0517  160.0471 H   0  0  0  0  0  0  0  0  0  0  0  0  # atno 6907 bound_to 6896
  152.2648  133.5325  159.5412 H   0  0  0  0  0  0  0  0  0  0  0  0  # atno 6908 bound_to 6896
  150.7129  134.0696  159.3902 H   0  0  0  0  0  0  0  0  0  0  0  0  # atno 6909 bound_to 6896
  145.0320  139.4038  143.5145 H   0  0  0  0  0  0  0  0  0  0  0  0  # atno 7974 bound_to 7965
  156.2061  140.1761  156.7797 H   0  0  0  0  0  0  0  0  0  0  0  0  # atno 8008 bound_to 7997
  154.5657  140.0691  156.8918 H   0  0  0  0  0  0  0  0  0  0  0  0  # atno 8009 bound_to 7997
  155.2766  140.3346  155.4263 H   0  0  0  0  0  0  0  0  0  0  0  0  # atno 8010 bound_to 7997
  140.1480  143.4223  152.1515 H   0  0  0  0  0  0  0  0  0  0  0  0  # atno 10167 bound_to 10162
  156.8746  130.5632  149.5655 H   0  0  0  0  0  0  0  0  0  0  0  0  # atno 10718 bound_to 10713
  153.5749  135.3495  155.2852 H   0  0  0  0  0  0  0  0  0  0  0  0  # atno 10763 bound_to 10752
  154.8676  135.4168  154.2685 H   0  0  0  0  0  0  0  0  0  0  0  0  # atno 10764 bound_to 10752
  153.3458  135.7052  153.6899 H   0  0  0  0  0  0  0  0  0  0  0  0  # atno 10765 bound_to 10752
  140.3053  134.7561  157.3949 H   0  0  0  0  0  0  0  0  0  0  0  0  # atno 11005 bound_to 11000
  146.3499  139.9874  142.8689 LP  0  0  0  0  0  0  0  0  0  0  0  0  # atno 17320 bound_to 7965
  145.1759  140.9743  143.4295 LP  0  0  0  0  0  0  0  0  0  0  0  0  # atno 17321 bound_to 7965
  139.5439  144.7281  151.4644 LP  0  0  0  0  0  0  0  0  0  0  0  0  # atno 17342 bound_to 10162
  140.6720  143.8274  150.7011 LP  0  0  0  0  0  0  0  0  0  0  0  0  # atno 17343 bound_to 10162
  156.0708  130.5742  150.9380 LP  0  0  0  0  0  0  0  0  0  0  0  0  # atno 17370 bound_to 10713
  157.6176  131.0932  150.8682 LP  0  0  0  0  0  0  0  0  0  0  0  0  # atno 17371 bound_to 10713
  140.1073  134.5393  155.8298 LP  0  0  0  0  0  0  0  0  0  0  0  0  # atno 17394 bound_to 11000
  141.2119  133.6713  156.6622 LP  0  0  0  0  0  0  0  0  0  0  0  0  # atno 17395 bound_to 11000

$$$$
