AV-unprocessed.smi:240|AV-procd|sdf|1830|dock3
  -GOLD-   2262020433D 1   1.00000     0.00000
 Structure written by MMmdl.
 55 59  0  0  0  0  0  0  0  0  1 V2000
  151.5702  144.2058  157.1488 O   0  0  0  0  0  0  0  0  0  0  0  0
  150.6415  143.7017  158.0914 C   0  0  2  0  0  0  0  0  0  0  0  0
  150.2967  144.8202  159.0802 C   0  0  0  0  0  0  0  0  0  0  0  0
  151.3228  144.7143  160.2143 C   0  0  0  0  0  0  0  0  0  0  0  0
  152.1006  143.4159  159.9676 C   0  0  0  0  0  0  0  0  0  0  0  0
  151.2699  142.5929  158.9649 C   0  0  2  0  0  0  0  0  0  0  0  0
  152.0505  141.4451  158.2379 C   0  0  1  0  0  0  0  0  0  0  0  0
  153.0552  140.7719  159.2109 C   0  0  0  0  0  0  0  0  0  0  0  0
  153.7451  139.6980  158.5841 O   0  0  0  0  0  0  0  0  0  0  0  0
  152.8564  138.6693  158.1782 C   0  0  0  0  0  0  0  0  0  0  0  0
  151.8932  139.2475  157.1374 C   0  0  0  0  0  0  0  0  0  0  0  0
  151.1759  140.3945  157.6871 N   0  0  0  0  0  0  0  0  0  0  0  0
  150.2018  140.7813  156.8358 C   0  0  0  0  0  0  0  0  0  0  0  0
  150.4378  140.6154  155.5113 N   0  0  0  0  0  0  0  0  0  0  0  0
  149.5080  140.9695  154.6191 C   0  0  0  0  0  0  0  0  0  0  0  0
  148.3017  141.4988  154.8351 N   0  0  0  0  0  0  0  0  0  0  0  0
  148.0693  141.6816  156.1668 C   0  0  0  0  0  0  0  0  0  0  0  0
  148.9604  141.3577  157.2278 C   0  0  0  0  0  0  0  0  0  0  0  0
  148.3832  141.6822  158.4493 N   0  0  0  0  0  0  0  0  0  0  0  0
  147.2143  142.1660  158.1286 C   0  0  0  0  0  0  0  0  0  0  0  0
  146.9437  142.2046  156.7790 N   0  0  0  0  0  0  0  0  0  0  0  0
  145.7217  142.6852  156.1522 C   0  0  0  0  0  0  0  0  0  0  0  0
  144.6221  141.6048  156.0337 C   0  0  1  0  0  0  0  0  0  0  0  0
  143.7196  141.9750  155.0051 O   0  0  0  0  0  0  0  0  0  0  0  0
  145.1508  140.2044  155.7367 C   0  0  0  0  0  0  0  0  0  0  0  0
  144.1431  139.3047  156.4383 C   0  0  0  0  0  0  0  0  0  0  0  0
  143.8761  140.0145  157.6354 O   0  0  0  0  0  0  0  0  0  0  0  0
  143.8197  141.4054  157.3353 C   0  0  0  0  0  0  0  0  0  0  0  0
  151.4055  145.1288  157.0275 H   0  0  0  0  0  0  0  0  0  0  0  0
  149.7447  143.3775  157.5668 H   0  0  0  0  0  0  0  0  0  0  0  0
  150.2836  145.8077  158.6168 H   0  0  0  0  0  0  0  0  0  0  0  0
  149.2992  144.6455  159.4857 H   0  0  0  0  0  0  0  0  0  0  0  0
  151.9976  145.5708  160.2218 H   0  0  0  0  0  0  0  0  0  0  0  0
  150.8171  144.6882  161.1802 H   0  0  0  0  0  0  0  0  0  0  0  0
  153.0708  143.6600  159.5325 H   0  0  0  0  0  0  0  0  0  0  0  0
  152.2845  142.8774  160.8981 H   0  0  0  0  0  0  0  0  0  0  0  0
  150.4638  142.1308  159.5379 H   0  0  0  0  0  0  0  0  0  0  0  0
  152.6321  141.8696  157.4193 H   0  0  0  0  0  0  0  0  0  0  0  0
  153.8134  141.4811  159.5414 H   0  0  0  0  0  0  0  0  0  0  0  0
  152.5472  140.4106  160.1070 H   0  0  0  0  0  0  0  0  0  0  0  0
  153.4315  137.8501  157.7467 H   0  0  0  0  0  0  0  0  0  0  0  0
  152.3163  138.2671  159.0369 H   0  0  0  0  0  0  0  0  0  0  0  0
  152.4541  139.5484  156.2518 H   0  0  0  0  0  0  0  0  0  0  0  0
  151.1863  138.4774  156.8246 H   0  0  0  0  0  0  0  0  0  0  0  0
  149.7669  140.8031  153.5838 H   0  0  0  0  0  0  0  0  0  0  0  0
  146.5119  142.5125  158.8730 H   0  0  0  0  0  0  0  0  0  0  0  0
  145.3530  143.5348  156.7286 H   0  0  0  0  0  0  0  0  0  0  0  0
  145.9748  143.0741  155.1649 H   0  0  0  0  0  0  0  0  0  0  0  0
  143.8770  141.4214  154.2554 H   0  0  0  0  0  0  0  0  0  0  0  0
  145.2576  139.9879  154.6728 H   0  0  0  0  0  0  0  0  0  0  0  0
  146.1257  140.0622  156.2042 H   0  0  0  0  0  0  0  0  0  0  0  0
  143.2273  139.2069  155.8534 H   0  0  0  0  0  0  0  0  0  0  0  0
  144.5350  138.3077  156.6407 H   0  0  0  0  0  0  0  0  0  0  0  0
  144.2405  141.9649  158.1715 H   0  0  0  0  0  0  0  0  0  0  0  0
  142.7787  141.7146  157.2284 H   0  0  0  0  0  0  0  0  0  0  0  0
  1  2  1  0  0  0  0
  1 29  1  0  0  0  0
  2  6  1  0  0  0  0
  2  3  1  0  0  0  0
  2 30  1  0  0  0  0
  3  4  1  0  0  0  0
  3 31  1  0  0  0  0
  3 32  1  0  0  0  0
  4  5  1  0  0  0  0
  4 33  1  0  0  0  0
  4 34  1  0  0  0  0
  5  6  1  0  0  0  0
  5 35  1  0  0  0  0
  5 36  1  0  0  0  0
  6  7  1  0  0  0  0
  6 37  1  0  0  0  0
  7 12  1  0  0  0  0
  7  8  1  0  0  0  0
  7 38  1  0  0  0  0
  8  9  1  0  0  0  0
  8 39  1  0  0  0  0
  8 40  1  0  0  0  0
  9 10  1  0  0  0  0
 10 11  1  0  0  0  0
 10 41  1  0  0  0  0
 10 42  1  0  0  0  0
 11 12  1  0  0  0  0
 11 43  1  0  0  0  0
 11 44  1  0  0  0  0
 12 13  1  0  0  0  0
 13 18  1  0  0  0  0
 13 14  2  0  0  0  0
 14 15  1  0  0  0  0
 15 16  2  0  0  0  0
 15 45  1  0  0  0  0
 16 17  1  0  0  0  0
 17 21  1  0  0  0  0
 17 18  2  0  0  0  0
 18 19  1  0  0  0  0
 19 20  2  0  0  0  0
 20 21  1  0  0  0  0
 20 46  1  0  0  0  0
 21 22  1  0  0  0  0
 22 23  1  0  0  0  0
 22 47  1  0  0  0  0
 22 48  1  0  0  0  0
 23 28  1  0  0  0  0
 23 24  1  0  0  0  0
 23 25  1  0  0  0  0
 24 49  1  0  0  0  0
 25 26  1  0  0  0  0
 25 50  1  0  0  0  0
 25 51  1  0  0  0  0
 26 27  1  0  0  0  0
 26 52  1  0  0  0  0
 26 53  1  0  0  0  0
 27 28  1  0  0  0  0
 28 54  1  0  0  0  0
 28 55  1  0  0  0  0
M  END
> <s_m_source_file>
AV-unprocessed.smi

> <i_m_source_file_index>
240

> <i_lp_mmshare_version>
43012

> <i_f3d_flags>
0

> <s_epik_input>
W09IXVtDQEBIXTFbQ0gyXVtDSDJdW0NIMl1bQ0BIXTFbQ0BASF0yW0NIMl1PW0NIMl1bQ0gyXU4yYyhuW2NIXW4zKWMoYzM0KW5bY0hdbjRbQ0gyXVtDQEBdNShbT0hdKVtDSDJdW0NIMl1PW0NIMl01

> <s_epik_cmdline>
J2VwaWtfcHl0aG9uJywgJy1waCcsICc3LjAnLCAnLXRuJywgJzgnLCAnLW1hJywgJzIwMCcsICctbWV0YWxfYmluZGluZycsICctaW1hZScsICc8aW5maWxlLm1hZT4nLCAnLW9tYWUnLCAnPG91dGZpbGUubWFlPic=

> <r_lp_tautomer_probability>
1

> <r_epik_Ionization_Penalty>
0.000130618

> <r_epik_Ionization_Penalty_Charging>
0

> <r_epik_Ionization_Penalty_Neutral>
0.000130618

> <r_epik_State_Penalty>
-0

> <r_epik_Charging_Adjusted_Penalty>
0

> <i_epik_Tot_Q>
0

> <i_epik_Tot_abs_Q>
0

> <r_epik_Metal_State_Penalty>
-0

> <b_epik_Metal_Only>
0

> <s_lp_Force_Field>
OPLS_2005

> <r_lp_Energy>
63.9037

> <b_lp_Chiralities_Consistent>
1

> <s_lp_Variant>
AV-unprocessed.smi:240-7

> <Gold.Version>
5.8.1

> <Gold.Id.Protein>
6NUR|6NUR_protein|mol2

> <Gold.PLP.Fitness>
40.9957

> <Gold.PLP.PLP>
-35.1488

> <Gold.PLP.part.hbond>
-4.4818

> <Gold.PLP.part.metal>
0.0000

> <Gold.PLP.part.buried>
-3.5189

> <Gold.PLP.part.nonpolar>
-26.9475

> <Gold.PLP.part.repulsive>
0.2631

> <Gold.PLP.ligand.clash>
0.0000

> <Gold.PLP.ligand.torsion>
1.7842

> <Gold.PLP.Chemscore.Hbond>
2.0000

> <Gold.PLP.Chemscore.CHOScore>
1.0000

> <Gold.PLP.Chemscore.Metal>
0.0000

> <Gold.Chemscore.Hbonds>
donor molecule, donor type, donor heavy atom, donor atom, acceptor molecule, acceptor atom, score
      L1  H    24    49       P1 10175  1.00
      P1  H  7997  8008       L1     9  1.00
      L1  C    15    45       P1  7957  0.98

> <Gold.PLP.Chemscore.Internal.Correction>
0.4153

> <Gold.Rescore>
     Score         DG    S(hbond)    S(metal)    S(lipo)     H(rot)  DE(clash)    DE(int)     intcor
     10.04     -12.56       1.39        0.00      86.68       3.00       0.47       2.05       ----

> <Gold.Chemscore.Fitness>
10.0421

> <Gold.Chemscore.DG>
-12.5640

> <Gold.Chemscore.ZeroCoef>
-5.4800

> <Gold.Chemscore.Hbond>
1.3869

> <Gold.Chemscore.Metal>
0.0000

> <Gold.Chemscore.Lipo>
86.6807

> <Gold.Chemscore.Internal_Hbond>
0.0000

> <Gold.Chemscore.DEClash>
0.4701

> <Gold.Chemscore.DEInternal>
2.0518

> <Gold.Chemscore.Rot>
3.0039

> <Gold.Chemscore.Internal.Correction>
   9.000000E+99

> <Gold.Chemscore.Hbonds>
donor molecule, donor type, donor heavy atom, donor atom, acceptor molecule, acceptor atom, score
      L1  H    24    49       P1 10175  0.29
      P1  H  7997  8008       L1     9  0.68

> <Gold.Chemscore.Hbond.Weighted>
-4.6322

> <Gold.Chemscore.Metal.Weighted>
-0.0000

> <Gold.Chemscore.Lipo.Weighted>
-10.1416

> <Gold.Chemscore.Internal_Hbond.Weighted>
0.0000

> <Gold.Chemscore.DEClash.Weighted>
0.4701

> <Gold.Chemscore.DEInternal.Weighted>
2.0518

> <Gold.Chemscore.Rot.Weighted>
7.6899

> <Gold.Chemscore.Internal.Correction.Weighted>
   9.000000E+99

> <Gold.Protein.RotatedTorsions>
[ 6907 6896 6895 6894 ] final   54.70 input  -60.11 | X-H torsion
[ 7974 7965 7964 7962 ] final  -36.32 input  175.53 | X-H torsion
[ 8008 7997 7996 7995 ] final -107.01 input   59.86 | X-H torsion
[ 10167 10162 10161 10158 ] final  -45.46 input  -65.29 | X-H torsion
[ 10718 10713 10712 10709 ] final   86.06 input   66.30 | X-H torsion
[ 10763 10752 10751 10750 ] final  108.60 input  -60.55 | X-H torsion
[ 11005 11000 10999 10996 ] final  -53.67 input  -57.11 | X-H torsion

> <Gold.Protein.ActiveResidues>
 VAL166  LYS551  ARG553  GLY616  TRP617  ASP618  TYR619  PRO620  LYS621  CYS622 
 ASP623  PHE694  ASN695  SER759  ASP760  ASP761  ALA762  ILE779  LEU786  VAL792 
 PHE793  MET794  SER795  GLU796  ALA797  LYS798  CYS799  TRP800  GLU811  SER814 

> <Gold.Protein.RotatedAtoms>
  152.3465  134.7064  160.0248 H   0  0  0  0  0  0  0  0  0  0  0  0  # atno 6907 bound_to 6896
  151.7432  133.3318  159.3379 H   0  0  0  0  0  0  0  0  0  0  0  0  # atno 6908 bound_to 6896
  150.7512  134.6192  159.6171 H   0  0  0  0  0  0  0  0  0  0  0  0  # atno 6909 bound_to 6896
  146.0672  140.6264  142.8969 H   0  0  0  0  0  0  0  0  0  0  0  0  # atno 7974 bound_to 7965
  154.9230  140.0407  157.2008 H   0  0  0  0  0  0  0  0  0  0  0  0  # atno 8008 bound_to 7997
  154.8235  140.2887  155.5749 H   0  0  0  0  0  0  0  0  0  0  0  0  # atno 8009 bound_to 7997
  156.2982  140.2514  156.3146 H   0  0  0  0  0  0  0  0  0  0  0  0  # atno 8010 bound_to 7997
  140.6857  143.2878  151.3642 H   0  0  0  0  0  0  0  0  0  0  0  0  # atno 10167 bound_to 10162
  157.6923  131.0200  150.2916 H   0  0  0  0  0  0  0  0  0  0  0  0  # atno 10718 bound_to 10713
  153.4229  135.3807  155.2122 H   0  0  0  0  0  0  0  0  0  0  0  0  # atno 10763 bound_to 10752
  154.8745  135.3821  154.4362 H   0  0  0  0  0  0  0  0  0  0  0  0  # atno 10764 bound_to 10752
  153.4884  135.7088  153.5960 H   0  0  0  0  0  0  0  0  0  0  0  0  # atno 10765 bound_to 10752
  141.0987  133.6621  156.4206 H   0  0  0  0  0  0  0  0  0  0  0  0  # atno 11005 bound_to 11000
  144.7209  140.4370  143.7009 LP  0  0  0  0  0  0  0  0  0  0  0  0  # atno 17320 bound_to 7965
  145.6457  139.1557  143.2890 LP  0  0  0  0  0  0  0  0  0  0  0  0  # atno 17321 bound_to 7965
  139.6214  144.0900  152.2394 LP  0  0  0  0  0  0  0  0  0  0  0  0  # atno 17342 bound_to 10162
  140.0346  144.6055  150.7460 LP  0  0  0  0  0  0  0  0  0  0  0  0  # atno 17343 bound_to 10162
  156.3446  130.3821  149.7380 LP  0  0  0  0  0  0  0  0  0  0  0  0  # atno 17370 bound_to 10713
  156.4877  130.8070  151.3082 LP  0  0  0  0  0  0  0  0  0  0  0  0  # atno 17371 bound_to 10713
  140.5075  134.6426  157.5272 LP  0  0  0  0  0  0  0  0  0  0  0  0  # atno 17394 bound_to 11000
  139.9832  134.7104  155.9822 LP  0  0  0  0  0  0  0  0  0  0  0  0  # atno 17395 bound_to 11000

$$$$
