AV-unprocessed.smi:671|AV-procd|sdf|3288|dock1
  -GOLD-   22720 0243D 1   1.00000     0.00000
 Structure written by MMmdl.
 50 51  0  0  0  0  0  0  0  0  2 V2000
  150.3847  138.3790  154.3301 C   0  0  0  0  0  0  0  0  0  0  0  0
  149.0327  138.0954  154.8936 C   0  0  0  0  0  0  0  0  0  0  0  0
  148.2940  136.9931  154.5950 N   0  3  0  0  0  0  0  0  0  0  0  0
  147.1259  137.0251  155.2519 N   0  0  0  0  0  0  0  0  0  0  0  0
  146.1828  135.9227  155.0646 C   0  0  0  0  0  0  0  0  0  0  0  0
  147.0466  138.1510  156.0171 C   0  0  0  0  0  0  0  0  0  0  0  0
  145.8802  138.5097  156.8794 C   0  0  0  0  0  0  0  0  0  0  0  0
  148.2525  138.8290  155.7956 C   0  0  0  0  0  0  0  0  0  0  0  0
  148.6415  140.1385  156.4226 C   0  0  0  0  0  0  0  0  0  0  0  0
  149.0947  141.1968  155.3914 C   0  0  1  0  0  0  0  0  0  0  0  0
  147.9365  141.7029  154.5175 C   0  0  0  0  0  0  0  0  0  0  0  0
  149.7056  142.3404  156.0738 N   0  0  0  0  0  0  0  0  0  0  0  0
  150.7265  142.3391  156.9512 C   0  0  0  0  0  0  0  0  0  0  0  0
  151.2886  141.2997  157.2891 O   0  0  0  0  0  0  0  0  0  0  0  0
  151.0669  143.5547  157.4110 N   0  0  0  0  0  0  0  0  0  0  0  0
  152.1546  143.8543  158.3372 C   0  0  1  0  0  0  0  0  0  0  0  0
  152.0626  145.3151  158.8198 C   0  0  0  0  0  0  0  0  0  0  0  0
  151.7157  145.2535  160.3082 C   0  0  0  0  0  0  0  0  0  0  0  0
  152.3031  143.9260  160.7751 C   0  0  0  0  0  0  0  0  0  0  0  0
  152.0520  142.9746  159.6017 C   0  0  2  0  0  0  0  0  0  0  0  0
  152.9883  141.7585  159.5864 C   0  0  0  0  0  0  0  0  0  0  0  0
  150.3949  139.3572  153.8489 H   0  0  0  0  0  0  0  0  0  0  0  0
  150.6588  137.6265  153.5901 H   0  0  0  0  0  0  0  0  0  0  0  0
  151.1324  138.3727  155.1230 H   0  0  0  0  0  0  0  0  0  0  0  0
  145.1806  136.2444  155.3484 H   0  0  0  0  0  0  0  0  0  0  0  0
  146.4873  135.0832  155.6901 H   0  0  0  0  0  0  0  0  0  0  0  0
  146.1777  135.6182  154.0171 H   0  0  0  0  0  0  0  0  0  0  0  0
  146.0932  139.3965  157.4745 H   0  0  0  0  0  0  0  0  0  0  0  0
  145.6460  137.6897  157.5585 H   0  0  0  0  0  0  0  0  0  0  0  0
  145.0053  138.7132  156.2620 H   0  0  0  0  0  0  0  0  0  0  0  0
  147.8155  140.5382  157.0118 H   0  0  0  0  0  0  0  0  0  0  0  0
  149.4401  139.9582  157.1432 H   0  0  0  0  0  0  0  0  0  0  0  0
  149.8315  140.7530  154.7200 H   0  0  0  0  0  0  0  0  0  0  0  0
  147.4940  140.8951  153.9346 H   0  0  0  0  0  0  0  0  0  0  0  0
  148.2811  142.4585  153.8107 H   0  0  0  0  0  0  0  0  0  0  0  0
  147.1472  142.1503  155.1229 H   0  0  0  0  0  0  0  0  0  0  0  0
  149.2921  143.2400  155.8738 H   0  0  0  0  0  0  0  0  0  0  0  0
  150.5331  144.3443  157.0797 H   0  0  0  0  0  0  0  0  0  0  0  0
  153.1260  143.7091  157.8607 H   0  0  0  0  0  0  0  0  0  0  0  0
  153.0335  145.7963  158.6943 H   0  0  0  0  0  0  0  0  0  0  0  0
  151.3385  145.9107  158.2615 H   0  0  0  0  0  0  0  0  0  0  0  0
  152.1058  146.1055  160.8658 H   0  0  0  0  0  0  0  0  0  0  0  0
  150.6328  145.2400  160.4347 H   0  0  0  0  0  0  0  0  0  0  0  0
  153.3748  144.0416  160.9446 H   0  0  0  0  0  0  0  0  0  0  0  0
  151.8552  143.5734  161.7047 H   0  0  0  0  0  0  0  0  0  0  0  0
  151.0263  142.6134  159.7001 H   0  0  0  0  0  0  0  0  0  0  0  0
  154.0329  142.0620  159.5103 H   0  0  0  0  0  0  0  0  0  0  0  0
  152.7677  141.1077  158.7398 H   0  0  0  0  0  0  0  0  0  0  0  0
  152.8784  141.1688  160.4969 H   0  0  0  0  0  0  0  0  0  0  0  0
  148.5261  136.2257  153.9771 H   0  0  0  0  0  0  0  0  0  0  0  0
  1  2  1  0  0  0  0
  1 22  1  0  0  0  0
  1 23  1  0  0  0  0
  1 24  1  0  0  0  0
  2  8  1  0  0  0  0
  2  3  2  0  0  0  0
  3  4  1  0  0  0  0
  3 50  1  0  0  0  0
  4  5  1  0  0  0  0
  4  6  1  0  0  0  0
  5 25  1  0  0  0  0
  5 26  1  0  0  0  0
  5 27  1  0  0  0  0
  6  7  1  0  0  0  0
  6  8  2  0  0  0  0
  7 28  1  0  0  0  0
  7 29  1  0  0  0  0
  7 30  1  0  0  0  0
  8  9  1  0  0  0  0
  9 10  1  0  0  0  0
  9 31  1  0  0  0  0
  9 32  1  0  0  0  0
 10 11  1  0  0  0  0
 10 12  1  0  0  0  0
 10 33  1  0  0  0  0
 11 34  1  0  0  0  0
 11 35  1  0  0  0  0
 11 36  1  0  0  0  0
 12 13  1  0  0  0  0
 12 37  1  0  0  0  0
 13 14  2  0  0  0  0
 13 15  1  0  0  0  0
 15 16  1  0  0  0  0
 15 38  1  0  0  0  0
 16 20  1  0  0  0  0
 16 17  1  0  0  0  0
 16 39  1  0  0  0  0
 17 18  1  0  0  0  0
 17 40  1  0  0  0  0
 17 41  1  0  0  0  0
 18 19  1  0  0  0  0
 18 42  1  0  0  0  0
 18 43  1  0  0  0  0
 19 20  1  0  0  0  0
 19 44  1  0  0  0  0
 19 45  1  0  0  0  0
 20 21  1  0  0  0  0
 20 46  1  0  0  0  0
 21 47  1  0  0  0  0
 21 48  1  0  0  0  0
 21 49  1  0  0  0  0
M  CHG  1   3   1
M  END
> <s_m_source_file>
AV-unprocessed.smi

> <i_m_source_file_index>
671

> <i_lp_mmshare_version>
43012

> <i_f3d_flags>
0

> <s_epik_input>
W0NIM11jMW5uKFtDSDNdKWMoW0NIM10pYzFbQ0gyXVtDQEhdKFtDSDNdKVtOSF1DKD1PKVtOSF1bQ0BASF0yW0NIMl1bQ0gyXVtDSDJdW0NASF0yW0NIM10=

> <s_epik_cmdline>
J2VwaWtfcHl0aG9uJywgJy1waCcsICc3LjAnLCAnLXRuJywgJzgnLCAnLW1hJywgJzIwMCcsICctbWV0YWxfYmluZGluZycsICctaW1hZScsICc8aW5maWxlLm1hZT4nLCAnLW9tYWUnLCAnPG91dGZpbGUubWFlPic=

> <r_lp_tautomer_probability>
1

> <r_epik_Ionization_Penalty>
2.28705

> <r_epik_Ionization_Penalty_Charging>
2.28698

> <r_epik_Ionization_Penalty_Neutral>
6.23157e-05

> <r_epik_State_Penalty>
2.43671

> <r_epik_Charging_Adjusted_Penalty>
4.72369

> <i_epik_Tot_Q>
1

> <i_epik_Tot_abs_Q>
1

> <r_epik_Metal_State_Penalty>
2.44911

> <b_epik_Metal_Only>
0

> <s_lp_Force_Field>
OPLS_2005

> <r_lp_Energy>
34.8229

> <b_lp_Chiralities_Consistent>
1

> <s_lp_Variant>
AV-unprocessed.smi:671-16

> <Gold.Version>
5.8.1

> <Gold.Id.Protein>
6NUR|6NUR_protein|mol2

> <Gold.PLP.Fitness>
49.2130

> <Gold.PLP.PLP>
-40.9258

> <Gold.PLP.part.hbond>
-3.0000

> <Gold.PLP.part.metal>
0.0000

> <Gold.PLP.part.buried>
-6.8944

> <Gold.PLP.part.nonpolar>
-33.5662

> <Gold.PLP.part.repulsive>
0.1478

> <Gold.PLP.ligand.clash>
0.0000

> <Gold.PLP.ligand.torsion>
0.2114

> <Gold.PLP.Chemscore.Hbond>
2.8601

> <Gold.PLP.Chemscore.CHOScore>
0.0000

> <Gold.PLP.Chemscore.Metal>
0.0000

> <Gold.Chemscore.Hbonds>
donor molecule, donor type, donor heavy atom, donor atom, acceptor molecule, acceptor atom, score
      L1  H     3    50       P1  7948  0.85
      L1  H    12    37       P1  8028  1.00
      L1  H    15    38       P1  8028  0.50

> <Gold.PLP.Chemscore.Internal.Correction>
0.1296

> <Gold.Rescore>
     Score         DG    S(hbond)    S(metal)    S(lipo)     H(rot)  DE(clash)    DE(int)     intcor
     19.63     -22.07       2.41        0.00     105.99       1.51       0.07       2.37       ----

> <Gold.Chemscore.Fitness>
19.6327

> <Gold.Chemscore.DG>
-22.0738

> <Gold.Chemscore.ZeroCoef>
-5.4800

> <Gold.Chemscore.Hbond>
2.4096

> <Gold.Chemscore.Metal>
0.0000

> <Gold.Chemscore.Lipo>
105.9870

> <Gold.Chemscore.Internal_Hbond>
0.0000

> <Gold.Chemscore.DEClash>
0.0709

> <Gold.Chemscore.DEInternal>
2.3702

> <Gold.Chemscore.Rot>
1.5057

> <Gold.Chemscore.Internal.Correction>
   9.000000E+99

> <Gold.Chemscore.Hbonds>
donor molecule, donor type, donor heavy atom, donor atom, acceptor molecule, acceptor atom, score
      L1  H     3    50       P1  7948  0.42
      L1  H    12    37       P1  8028  0.95
      L1  H    15    38       P1  8028  0.44

> <Gold.Chemscore.Hbond.Weighted>
-8.0480

> <Gold.Chemscore.Metal.Weighted>
-0.0000

> <Gold.Chemscore.Lipo.Weighted>
-12.4005

> <Gold.Chemscore.Internal_Hbond.Weighted>
0.0000

> <Gold.Chemscore.DEClash.Weighted>
0.0709

> <Gold.Chemscore.DEInternal.Weighted>
2.3702

> <Gold.Chemscore.Rot.Weighted>
3.8547

> <Gold.Chemscore.Internal.Correction.Weighted>
   9.000000E+99

> <Gold.Protein.RotatedTorsions>
[ 6907 6896 6895 6894 ] final  -13.07 input  -60.11 | X-H torsion
[ 7974 7965 7964 7962 ] final  -33.76 input  175.53 | X-H torsion
[ 8008 7997 7996 7995 ] final   52.17 input   59.86 | X-H torsion
[ 10167 10162 10161 10158 ] final -104.63 input  -65.29 | X-H torsion
[ 10718 10713 10712 10709 ] final   56.94 input   66.30 | X-H torsion
[ 10763 10752 10751 10750 ] final   74.06 input  -60.55 | X-H torsion
[ 11005 11000 10999 10996 ] final  160.70 input  -57.11 | X-H torsion

> <Gold.Protein.ActiveResidues>
 VAL166  LYS551  ARG553  GLY616  TRP617  ASP618  TYR619  PRO620  LYS621  CYS622 
 ASP623  PHE694  ASN695  SER759  ASP760  ASP761  ALA762  ILE779  LEU786  VAL792 
 PHE793  MET794  SER795  GLU796  ALA797  LYS798  CYS799  TRP800  GLU811  SER814 

> <Gold.Protein.RotatedAtoms>
  151.3606  135.0903  159.9432 H   0  0  0  0  0  0  0  0  0  0  0  0  # atno 6907 bound_to 6896
  152.5163  133.9262  159.7569 H   0  0  0  0  0  0  0  0  0  0  0  0  # atno 6908 bound_to 6896
  150.9655  133.6345  159.2776 H   0  0  0  0  0  0  0  0  0  0  0  0  # atno 6909 bound_to 6896
  146.0885  140.5955  142.8875 H   0  0  0  0  0  0  0  0  0  0  0  0  # atno 7974 bound_to 7965
  155.4474  140.3457  155.4297 H   0  0  0  0  0  0  0  0  0  0  0  0  # atno 8008 bound_to 7997
  156.1241  140.1495  156.9191 H   0  0  0  0  0  0  0  0  0  0  0  0  # atno 8009 bound_to 7997
  154.4845  140.0859  156.7434 H   0  0  0  0  0  0  0  0  0  0  0  0  # atno 8010 bound_to 7997
  140.2072  143.3773  152.1080 H   0  0  0  0  0  0  0  0  0  0  0  0  # atno 10167 bound_to 10162
  157.5473  130.8740  149.8910 H   0  0  0  0  0  0  0  0  0  0  0  0  # atno 10718 bound_to 10713
  153.0562  135.5040  154.7986 H   0  0  0  0  0  0  0  0  0  0  0  0  # atno 10763 bound_to 10752
  154.6810  135.2968  154.9615 H   0  0  0  0  0  0  0  0  0  0  0  0  # atno 10764 bound_to 10752
  154.0401  135.6718  153.4842 H   0  0  0  0  0  0  0  0  0  0  0  0  # atno 10765 bound_to 10752
  140.2085  134.8285  157.3095 H   0  0  0  0  0  0  0  0  0  0  0  0  # atno 11005 bound_to 11000
  144.7343  140.4762  143.6915 LP  0  0  0  0  0  0  0  0  0  0  0  0  # atno 17320 bound_to 7965
  145.6084  139.1511  143.3089 LP  0  0  0  0  0  0  0  0  0  0  0  0  # atno 17321 bound_to 7965
  139.5194  144.7019  151.5469 LP  0  0  0  0  0  0  0  0  0  0  0  0  # atno 17342 bound_to 10162
  140.6349  143.9004  150.6638 LP  0  0  0  0  0  0  0  0  0  0  0  0  # atno 17343 bound_to 10162
  156.0546  130.3711  150.1120 LP  0  0  0  0  0  0  0  0  0  0  0  0  # atno 17370 bound_to 10713
  156.9296  130.9709  151.3535 LP  0  0  0  0  0  0  0  0  0  0  0  0  # atno 17371 bound_to 10713
  140.1976  134.4294  155.7680 LP  0  0  0  0  0  0  0  0  0  0  0  0  # atno 17394 bound_to 11000
  141.2226  133.7057  156.8131 LP  0  0  0  0  0  0  0  0  0  0  0  0  # atno 17395 bound_to 11000

$$$$
