AV-unprocessed.smi:34|AV-procd|sdf|239|dock3
  -GOLD-   2262015583D 1   1.00000     0.00000
 Structure written by MMmdl.
 54 58  0  0  0  0  0  0  0  0  2 V2000
  144.2980  143.3437  158.7108 O   0  0  0  0  0  0  0  0  0  0  0  0
  144.3909  142.9590  157.5433 C   0  0  0  0  0  0  0  0  0  0  0  0
  144.7665  141.7334  157.0973 N   0  5  0  0  0  0  0  0  0  0  0  0
  146.0630  141.4757  156.8679 C   0  0  0  0  0  0  0  0  0  0  0  0
  146.9904  142.4598  156.9909 N   0  0  0  0  0  0  0  0  0  0  0  0
  148.2841  142.2034  156.7631 C   0  0  0  0  0  0  0  0  0  0  0  0
  148.8629  141.0528  156.4043 N   0  0  0  0  0  0  0  0  0  0  0  0
  147.9374  140.0597  156.2668 C   0  0  0  0  0  0  0  0  0  0  0  0
  146.5345  140.1930  156.4748 C   0  0  0  0  0  0  0  0  0  0  0  0
  145.8888  138.9871  156.2450 N   0  0  0  0  0  0  0  0  0  0  0  0
  146.9076  138.1932  155.9199 C   0  0  0  0  0  0  0  0  0  0  0  0
  148.1434  138.7373  155.9179 N   0  0  0  0  0  0  0  0  0  0  0  0
  149.4659  138.1058  155.5955 C   0  0  2  0  0  0  0  0  0  0  0  0
  150.3826  138.4604  156.5876 O   0  0  0  0  0  0  0  0  0  0  0  0
  151.1729  139.5457  156.1203 C   0  0  1  0  0  0  0  0  0  0  0  0
  152.4524  139.6940  156.9507 C   0  0  0  0  0  0  0  0  0  0  0  0
  152.2017  140.6025  158.0102 O   0  0  0  0  0  0  0  0  0  0  0  0
  153.1350  140.8120  158.9574 C   0  0  0  0  0  0  0  0  0  0  0  0
  154.1434  140.1152  159.0878 O   0  0  0  0  0  0  0  0  0  0  0  0
  152.8198  141.9781  159.8324 C   0  0  0  0  0  0  0  0  0  0  0  0
  153.1482  141.9219  161.2071 C   0  0  0  0  0  0  0  0  0  0  0  0
  152.8621  143.0071  162.0581 C   0  0  0  0  0  0  0  0  0  0  0  0
  152.2436  144.1620  161.5449 C   0  0  0  0  0  0  0  0  0  0  0  0
  151.9117  144.2303  160.1793 C   0  0  0  0  0  0  0  0  0  0  0  0
  152.1969  143.1460  159.3266 C   0  0  0  0  0  0  0  0  0  0  0  0
  151.3987  139.1703  154.6570 C   0  0  1  0  0  0  0  0  0  0  0  0
  152.3328  138.2223  154.5562 F   0  0  0  0  0  0  0  0  0  0  0  0
  150.0492  138.5973  154.2461 C   0  0  2  0  0  0  0  0  0  0  0  0
  149.2810  139.5905  153.5894 O   0  0  0  0  0  0  0  0  0  0  0  0
  144.1313  143.9419  156.4334 C   0  0  0  0  0  0  0  0  0  0  0  0
  144.5221  143.6251  155.1124 C   0  0  0  0  0  0  0  0  0  0  0  0
  144.3115  144.5415  154.0637 C   0  0  0  0  0  0  0  0  0  0  0  0
  143.7163  145.7895  154.3268 C   0  0  0  0  0  0  0  0  0  0  0  0
  143.3354  146.1217  155.6403 C   0  0  0  0  0  0  0  0  0  0  0  0
  143.5454  145.2056  156.6896 C   0  0  0  0  0  0  0  0  0  0  0  0
  148.9527  143.0421  156.8878 H   0  0  0  0  0  0  0  0  0  0  0  0
  146.7388  137.1567  155.6682 H   0  0  0  0  0  0  0  0  0  0  0  0
  149.2688  137.0335  155.6256 H   0  0  0  0  0  0  0  0  0  0  0  0
  150.5930  140.4692  156.1627 H   0  0  0  0  0  0  0  0  0  0  0  0
  152.7752  138.7271  157.3391 H   0  0  0  0  0  0  0  0  0  0  0  0
  153.2572  140.0874  156.3280 H   0  0  0  0  0  0  0  0  0  0  0  0
  153.6238  141.0458  161.6241 H   0  0  0  0  0  0  0  0  0  0  0  0
  153.1177  142.9525  163.1059 H   0  0  0  0  0  0  0  0  0  0  0  0
  152.0241  144.9940  162.1975 H   0  0  0  0  0  0  0  0  0  0  0  0
  151.4373  145.1163  159.7838 H   0  0  0  0  0  0  0  0  0  0  0  0
  151.9274  143.2316  158.2839 H   0  0  0  0  0  0  0  0  0  0  0  0
  151.7269  140.0104  154.0436 H   0  0  0  0  0  0  0  0  0  0  0  0
  150.1659  137.7489  153.5707 H   0  0  0  0  0  0  0  0  0  0  0  0
  149.6330  139.7154  152.7207 H   0  0  0  0  0  0  0  0  0  0  0  0
  144.9816  142.6718  154.8946 H   0  0  0  0  0  0  0  0  0  0  0  0
  144.6088  144.2863  153.0574 H   0  0  0  0  0  0  0  0  0  0  0  0
  143.5559  146.4925  153.5230 H   0  0  0  0  0  0  0  0  0  0  0  0
  142.8847  147.0815  155.8450 H   0  0  0  0  0  0  0  0  0  0  0  0
  143.2564  145.4844  157.6928 H   0  0  0  0  0  0  0  0  0  0  0  0
  1  2  2  0  0  0  0
  2  3  1  0  0  0  0
  2 30  1  0  0  0  0
  3  4  1  0  0  0  0
  4  9  1  0  0  0  0
  4  5  2  0  0  0  0
  5  6  1  0  0  0  0
  6  7  2  0  0  0  0
  6 36  1  0  0  0  0
  7  8  1  0  0  0  0
  8 12  1  0  0  0  0
  8  9  2  0  0  0  0
  9 10  1  0  0  0  0
 10 11  2  0  0  0  0
 11 12  1  0  0  0  0
 11 37  1  0  0  0  0
 12 13  1  0  0  0  0
 13 28  1  0  0  0  0
 13 14  1  0  0  0  0
 13 38  1  0  0  0  0
 14 15  1  0  0  0  0
 15 16  1  0  0  0  0
 15 26  1  0  0  0  0
 15 39  1  0  0  0  0
 16 17  1  0  0  0  0
 16 40  1  0  0  0  0
 16 41  1  0  0  0  0
 17 18  1  0  0  0  0
 18 19  2  0  0  0  0
 18 20  1  0  0  0  0
 20 25  1  0  0  0  0
 20 21  2  0  0  0  0
 21 22  1  0  0  0  0
 21 42  1  0  0  0  0
 22 23  2  0  0  0  0
 22 43  1  0  0  0  0
 23 24  1  0  0  0  0
 23 44  1  0  0  0  0
 24 25  2  0  0  0  0
 24 45  1  0  0  0  0
 25 46  1  0  0  0  0
 26 27  1  0  0  0  0
 26 28  1  0  0  0  0
 26 47  1  0  0  0  0
 28 29  1  0  0  0  0
 28 48  1  0  0  0  0
 29 49  1  0  0  0  0
 30 35  1  0  0  0  0
 30 31  2  0  0  0  0
 31 32  1  0  0  0  0
 31 50  1  0  0  0  0
 32 33  2  0  0  0  0
 32 51  1  0  0  0  0
 33 34  1  0  0  0  0
 33 52  1  0  0  0  0
 34 35  2  0  0  0  0
 34 53  1  0  0  0  0
 35 54  1  0  0  0  0
M  CHG  1   3  -1
M  END
> <s_m_source_file>
AV-unprocessed.smi

> <i_m_source_file_index>
34

> <i_lp_mmshare_version>
43012

> <i_f3d_flags>
0

> <s_epik_input>
W2NIXTFbY0hdW2NIXVtjSF1bY0hdYzFDKD1PKVtOSF1jKG5bY0hdbjIpYyhjMjMpbltjSF1uM1tDQEBIXTRPW0NASF0oW0NAQEhdKEYpW0NASF00W09IXSlbQ0gyXU9DKD1PKWM1W2NIXVtjSF1bY0hdW2NIXVtjSF01

> <s_epik_cmdline>
J2VwaWtfcHl0aG9uJywgJy1waCcsICc3LjAnLCAnLXRuJywgJzgnLCAnLW1hJywgJzIwMCcsICctbWV0YWxfYmluZGluZycsICctaW1hZScsICc8aW5maWxlLm1hZT4nLCAnLW9tYWUnLCAnPG91dGZpbGUubWFlPic=

> <r_lp_tautomer_probability>
1

> <r_epik_Ionization_Penalty>
4.33227

> <r_epik_Ionization_Penalty_Charging>
3.41027

> <r_epik_Ionization_Penalty_Neutral>
0.922001

> <r_epik_State_Penalty>
3.41358

> <r_epik_Charging_Adjusted_Penalty>
6.82385

> <i_epik_Tot_Q>
-1

> <i_epik_Tot_abs_Q>
1

> <r_epik_Metal_State_Penalty>
0.496292

> <b_epik_Metal_Only>
1

> <s_epik_Chemistry_Notes>
This compound has an ester and may undergo hydrolysis at high or low pH. This compound contains an acetal/aminal-like group ( X-CH(R)-Y where X, Y are N, S, or O) that may be acid/base labile, releasing an aldehyde.

> <s_lp_Force_Field>
OPLS_2005

> <r_lp_Energy>
47.457

> <b_lp_Chiralities_Consistent>
1

> <s_lp_Variant>
AV-unprocessed.smi:34-25

> <Gold.Version>
5.8.1

> <Gold.Id.Protein>
6NUR|6NUR_protein|mol2

> <Gold.PLP.Fitness>
56.8797

> <Gold.PLP.PLP>
-51.6000

> <Gold.PLP.part.hbond>
-1.6858

> <Gold.PLP.part.metal>
0.0000

> <Gold.PLP.part.buried>
-1.5553

> <Gold.PLP.part.nonpolar>
-47.9923

> <Gold.PLP.part.repulsive>
0.2950

> <Gold.PLP.ligand.clash>
0.0000

> <Gold.PLP.ligand.torsion>
2.0779

> <Gold.PLP.Chemscore.Hbond>
2.0000

> <Gold.PLP.Chemscore.CHOScore>
0.8171

> <Gold.PLP.Chemscore.Metal>
0.0000

> <Gold.Chemscore.Hbonds>
donor molecule, donor type, donor heavy atom, donor atom, acceptor molecule, acceptor atom, score
      L1  H    29    49       P1  7957  1.00
      P1  H  7997  8010       L1    19  0.98
      L1  C     6    36       P1  8028  0.85

> <Gold.PLP.Chemscore.Internal.Correction>
0.9843

> <Gold.Rescore>
     Score         DG    S(hbond)    S(metal)    S(lipo)     H(rot)  DE(clash)    DE(int)     intcor
     12.43     -19.24       1.69        0.00     128.28       2.69       1.60       5.22       ----

> <Gold.Chemscore.Fitness>
12.4276

> <Gold.Chemscore.DG>
-19.2434

> <Gold.Chemscore.ZeroCoef>
-5.4800

> <Gold.Chemscore.Hbond>
1.6922

> <Gold.Chemscore.Metal>
0.0000

> <Gold.Chemscore.Lipo>
128.2802

> <Gold.Chemscore.Internal_Hbond>
0.0000

> <Gold.Chemscore.DEClash>
1.6002

> <Gold.Chemscore.DEInternal>
5.2155

> <Gold.Chemscore.Rot>
2.6944

> <Gold.Chemscore.Internal.Correction>
   9.000000E+99

> <Gold.Chemscore.Hbonds>
donor molecule, donor type, donor heavy atom, donor atom, acceptor molecule, acceptor atom, score
      L1  H    29    49       P1  7957  0.97
      P1  H  7997  8010       L1    19  0.46

> <Gold.Chemscore.Hbond.Weighted>
-5.6521

> <Gold.Chemscore.Metal.Weighted>
-0.0000

> <Gold.Chemscore.Lipo.Weighted>
-15.0088

> <Gold.Chemscore.Internal_Hbond.Weighted>
0.0000

> <Gold.Chemscore.DEClash.Weighted>
1.6002

> <Gold.Chemscore.DEInternal.Weighted>
5.2155

> <Gold.Chemscore.Rot.Weighted>
6.8975

> <Gold.Chemscore.Internal.Correction.Weighted>
   9.000000E+99

> <Gold.Protein.RotatedTorsions>
[ 6907 6896 6895 6894 ] final   58.88 input  -60.11 | X-H torsion
[ 7974 7965 7964 7962 ] final  -62.77 input  175.53 | X-H torsion
[ 8008 7997 7996 7995 ] final    9.96 input   59.86 | X-H torsion
[ 10167 10162 10161 10158 ] final   50.39 input  -65.29 | X-H torsion
[ 10718 10713 10712 10709 ] final   19.35 input   66.30 | X-H torsion
[ 10763 10752 10751 10750 ] final  134.85 input  -60.55 | X-H torsion
[ 11005 11000 10999 10996 ] final  178.52 input  -57.11 | X-H torsion

> <Gold.Protein.ActiveResidues>
 VAL166  LYS551  ARG553  GLY616  TRP617  ASP618  TYR619  PRO620  LYS621  CYS622 
 ASP623  PHE694  ASN695  SER759  ASP760  ASP761  ALA762  ILE779  LEU786  VAL792 
 PHE793  MET794  SER795  GLU796  ALA797  LYS798  CYS799  TRP800  GLU811  SER814 

> <Gold.Protein.RotatedAtoms>
  152.3864  134.6510  160.0123 H   0  0  0  0  0  0  0  0  0  0  0  0  # atno 6907 bound_to 6896
  151.6758  133.3307  159.3215 H   0  0  0  0  0  0  0  0  0  0  0  0  # atno 6908 bound_to 6896
  150.7789  134.6760  159.6462 H   0  0  0  0  0  0  0  0  0  0  0  0  # atno 6909 bound_to 6896
  145.7873  140.8729  143.0299 H   0  0  0  0  0  0  0  0  0  0  0  0  # atno 7974 bound_to 7965
  154.7870  140.2829  155.6020 H   0  0  0  0  0  0  0  0  0  0  0  0  # atno 8008 bound_to 7997
  156.2959  140.2612  156.2638 H   0  0  0  0  0  0  0  0  0  0  0  0  # atno 8009 bound_to 7997
  154.9715  140.0376  157.2226 H   0  0  0  0  0  0  0  0  0  0  0  0  # atno 8010 bound_to 7997
  140.2730  144.3244  150.6285 H   0  0  0  0  0  0  0  0  0  0  0  0  # atno 10167 bound_to 10162
  157.1092  130.6501  149.5893 H   0  0  0  0  0  0  0  0  0  0  0  0  # atno 10718 bound_to 10713
  153.8303  135.3104  155.3418 H   0  0  0  0  0  0  0  0  0  0  0  0  # atno 10763 bound_to 10752
  154.7976  135.4746  154.0200 H   0  0  0  0  0  0  0  0  0  0  0  0  # atno 10764 bound_to 10752
  153.1638  135.6866  153.8795 H   0  0  0  0  0  0  0  0  0  0  0  0  # atno 10765 bound_to 10752
  140.3960  134.6819  157.4535 H   0  0  0  0  0  0  0  0  0  0  0  0  # atno 11005 bound_to 11000
  144.6787  140.0073  143.7484 LP  0  0  0  0  0  0  0  0  0  0  0  0  # atno 17320 bound_to 7965
  146.0013  139.3093  143.0926 LP  0  0  0  0  0  0  0  0  0  0  0  0  # atno 17321 bound_to 7965
  140.5874  143.2169  151.7316 LP  0  0  0  0  0  0  0  0  0  0  0  0  # atno 17342 bound_to 10162
  139.4983  144.3990  152.0201 LP  0  0  0  0  0  0  0  0  0  0  0  0  # atno 17343 bound_to 10162
  155.9854  130.4884  150.7032 LP  0  0  0  0  0  0  0  0  0  0  0  0  # atno 17370 bound_to 10713
  157.4574  131.0879  151.0782 LP  0  0  0  0  0  0  0  0  0  0  0  0  # atno 17371 bound_to 10713
  140.0371  134.6321  155.9029 LP  0  0  0  0  0  0  0  0  0  0  0  0  # atno 17394 bound_to 11000
  141.1874  133.6559  156.5279 LP  0  0  0  0  0  0  0  0  0  0  0  0  # atno 17395 bound_to 11000

$$$$
