AV-unprocessed.smi:3068|AV-procd|sdf|11706|dock7
  -GOLD-   2272017113D 1   1.00000     0.00000
 Structure written by MMmdl.
 39 41  0  0  0  0  0  0  0  0  1 V2000
  147.7261  141.5811  158.6425 N   0  0  0  0  0  0  0  0  0  0  0  0
  147.7258  141.4040  157.4988 C   0  0  0  0  0  0  0  0  0  0  0  0
  147.7250  141.1806  156.0586 C   0  0  0  0  0  0  0  0  0  0  0  0
  146.6031  140.6407  155.5286 N   0  0  0  0  0  0  0  0  0  0  0  0
  146.5881  140.4312  154.1950 C   0  0  0  0  0  0  0  0  0  0  0  0
  147.6926  140.7573  153.3846 C   0  0  0  0  0  0  0  0  0  0  0  0
  148.8162  141.2943  153.9051 N   0  0  0  0  0  0  0  0  0  0  0  0
  148.8438  141.5143  155.2438 C   0  0  0  0  0  0  0  0  0  0  0  0
  150.0079  142.0747  155.8021 N   0  0  0  0  0  0  0  0  0  0  0  0
  151.2012  141.2744  156.0514 C   0  0  0  0  0  0  0  0  0  0  0  0
  151.4525  141.0441  157.5508 C   0  0  2  0  0  0  0  0  0  0  0  0
  151.6709  142.3716  158.2991 C   0  0  0  0  0  0  0  0  0  0  0  0
  151.9829  142.1566  159.7062 N   0  0  0  0  0  0  0  0  0  0  0  0
  152.1919  143.4236  160.4045 C   0  0  0  0  0  0  0  0  0  0  0  0
  152.4893  143.2266  161.8995 C   0  0  0  0  0  0  0  0  0  0  0  0
  153.7073  142.3102  162.0835 C   0  0  0  0  0  0  0  0  0  0  0  0
  153.5048  141.0014  161.3044 C   0  0  0  0  0  0  0  0  0  0  0  0
  153.1564  141.2864  159.8287 C   0  0  1  0  0  0  0  0  0  0  0  0
  152.9474  139.9692  159.0541 C   0  0  0  0  0  0  0  0  0  0  0  0
  152.6280  140.2507  157.6952 O   0  0  0  0  0  0  0  0  0  0  0  0
  145.6916  140.0018  153.7724 H   0  0  0  0  0  0  0  0  0  0  0  0
  147.6746  140.5870  152.3181 H   0  0  0  0  0  0  0  0  0  0  0  0
  150.0986  143.0802  155.8360 H   0  0  0  0  0  0  0  0  0  0  0  0
  151.0845  140.3157  155.5458 H   0  0  0  0  0  0  0  0  0  0  0  0
  152.0651  141.7551  155.5910 H   0  0  0  0  0  0  0  0  0  0  0  0
  150.6040  140.5204  157.9947 H   0  0  0  0  0  0  0  0  0  0  0  0
  152.4794  142.9282  157.8223 H   0  0  0  0  0  0  0  0  0  0  0  0
  150.7749  142.9873  158.2123 H   0  0  0  0  0  0  0  0  0  0  0  0
  153.0143  143.9704  159.9406 H   0  0  0  0  0  0  0  0  0  0  0  0
  151.3056  144.0501  160.2982 H   0  0  0  0  0  0  0  0  0  0  0  0
  152.6669  144.1898  162.3782 H   0  0  0  0  0  0  0  0  0  0  0  0
  151.6202  142.7879  162.3918 H   0  0  0  0  0  0  0  0  0  0  0  0
  154.6037  142.8161  161.7224 H   0  0  0  0  0  0  0  0  0  0  0  0
  153.8698  142.1014  163.1413 H   0  0  0  0  0  0  0  0  0  0  0  0
  154.4064  140.3915  161.3689 H   0  0  0  0  0  0  0  0  0  0  0  0
  152.7046  140.4225  161.7676 H   0  0  0  0  0  0  0  0  0  0  0  0
  154.0111  141.7957  159.3797 H   0  0  0  0  0  0  0  0  0  0  0  0
  153.8529  139.3628  159.0819 H   0  0  0  0  0  0  0  0  0  0  0  0
  152.1505  139.3740  159.5029 H   0  0  0  0  0  0  0  0  0  0  0  0
  1  2  3  0  0  0  0
  2  3  1  0  0  0  0
  3  8  1  0  0  0  0
  3  4  2  0  0  0  0
  4  5  1  0  0  0  0
  5  6  2  0  0  0  0
  5 21  1  0  0  0  0
  6  7  1  0  0  0  0
  6 22  1  0  0  0  0
  7  8  2  0  0  0  0
  8  9  1  0  0  0  0
  9 10  1  0  0  0  0
  9 23  1  0  0  0  0
 10 11  1  0  0  0  0
 10 24  1  0  0  0  0
 10 25  1  0  0  0  0
 11 20  1  0  0  0  0
 11 12  1  0  0  0  0
 11 26  1  0  0  0  0
 12 13  1  0  0  0  0
 12 27  1  0  0  0  0
 12 28  1  0  0  0  0
 13 18  1  0  0  0  0
 13 14  1  0  0  0  0
 14 15  1  0  0  0  0
 14 29  1  0  0  0  0
 14 30  1  0  0  0  0
 15 16  1  0  0  0  0
 15 31  1  0  0  0  0
 15 32  1  0  0  0  0
 16 17  1  0  0  0  0
 16 33  1  0  0  0  0
 16 34  1  0  0  0  0
 17 18  1  0  0  0  0
 17 35  1  0  0  0  0
 17 36  1  0  0  0  0
 18 19  1  0  0  0  0
 18 37  1  0  0  0  0
 19 20  1  0  0  0  0
 19 38  1  0  0  0  0
 19 39  1  0  0  0  0
M  END
> <s_m_source_file>
AV-unprocessed.smi

> <i_m_source_file_index>
3068

> <i_lp_mmshare_version>
43012

> <i_f3d_flags>
0

> <s_epik_input>
TiNDYzFuW2NIXVtjSF1uYzFbTkhdW0NIMl1bQ0BIXShbQ0gyXTIpT1tDSDJdW0NAQEhdKE4yMylbQ0gyXVtDSDJdW0NIMl1bQ0gyXTM=

> <s_epik_cmdline>
J2VwaWtfcHl0aG9uJywgJy1waCcsICc3LjAnLCAnLXRuJywgJzgnLCAnLW1hJywgJzIwMCcsICctbWV0YWxfYmluZGluZycsICctaW1hZScsICc8aW5maWxlLm1hZT4nLCAnLW9tYWUnLCAnPG91dGZpbGUubWFlPic=

> <r_epik_Ionization_Penalty>
1.22359

> <r_epik_Ionization_Penalty_Charging>
0

> <r_epik_Ionization_Penalty_Neutral>
1.22359

> <r_epik_State_Penalty>
1.29103

> <r_epik_Charging_Adjusted_Penalty>
1.29103

> <i_epik_Tot_Q>
0

> <i_epik_Tot_abs_Q>
0

> <r_epik_Metal_State_Penalty>
1.29103

> <b_epik_Metal_Only>
0

> <s_lp_Force_Field>
OPLS_2005

> <r_lp_Energy>
45.8422

> <b_lp_Chiralities_Consistent>
1

> <s_lp_Variant>
AV-unprocessed.smi:3068-9

> <Gold.Version>
5.8.1

> <Gold.Id.Protein>
6NUR|6NUR_protein|mol2

> <Gold.PLP.Fitness>
47.3286

> <Gold.PLP.PLP>
-36.0664

> <Gold.PLP.part.hbond>
-4.0658

> <Gold.PLP.part.metal>
0.0000

> <Gold.PLP.part.buried>
-2.3438

> <Gold.PLP.part.nonpolar>
-28.0666

> <Gold.PLP.part.repulsive>
0.6316

> <Gold.PLP.ligand.clash>
0.0000

> <Gold.PLP.ligand.torsion>
0.7716

> <Gold.PLP.Chemscore.Hbond>
2.4257

> <Gold.PLP.Chemscore.CHOScore>
1.8415

> <Gold.PLP.Chemscore.Metal>
0.0000

> <Gold.Chemscore.Hbonds>
donor molecule, donor type, donor heavy atom, donor atom, acceptor molecule, acceptor atom, score
      L1  H     9    23       P1  8028  0.74
      P1  H  6934  6946       L1     1  0.06
      P1  H  7997  8010       L1    20  0.98
      P1  H  8011  8017       L1     7  0.52
      L1  C     5    21       P1 10175  1.00
      L1  C     6    22       P1  7957  0.85

> <Gold.PLP.Chemscore.Internal.Correction>
0.0038

> <Gold.Rescore>
     Score         DG    S(hbond)    S(metal)    S(lipo)     H(rot)  DE(clash)    DE(int)     intcor
     17.32     -19.32       1.59        0.00     101.29       1.30       1.20       0.80       ----

> <Gold.Chemscore.Fitness>
17.3204

> <Gold.Chemscore.DG>
-19.3192

> <Gold.Chemscore.ZeroCoef>
-5.4800

> <Gold.Chemscore.Hbond>
1.5930

> <Gold.Chemscore.Metal>
0.0000

> <Gold.Chemscore.Lipo>
101.2938

> <Gold.Chemscore.Internal_Hbond>
0.0000

> <Gold.Chemscore.DEClash>
1.2008

> <Gold.Chemscore.DEInternal>
0.7981

> <Gold.Chemscore.Rot>
1.3019

> <Gold.Chemscore.Internal.Correction>
   9.000000E+99

> <Gold.Chemscore.Hbonds>
donor molecule, donor type, donor heavy atom, donor atom, acceptor molecule, acceptor atom, score
      L1  H     9    23       P1  8028  0.69
      P1  H  6934  6946       L1     1  0.06
      P1  H  7997  8010       L1    20  0.26
      P1  H  8011  8017       L1     7  0.34

> <Gold.Chemscore.Hbond.Weighted>
-5.3206

> <Gold.Chemscore.Metal.Weighted>
-0.0000

> <Gold.Chemscore.Lipo.Weighted>
-11.8514

> <Gold.Chemscore.Internal_Hbond.Weighted>
0.0000

> <Gold.Chemscore.DEClash.Weighted>
1.2008

> <Gold.Chemscore.DEInternal.Weighted>
0.7981

> <Gold.Chemscore.Rot.Weighted>
3.3327

> <Gold.Chemscore.Internal.Correction.Weighted>
   9.000000E+99

> <Gold.Protein.RotatedTorsions>
[ 6907 6896 6895 6894 ] final  -51.70 input  -60.11 | X-H torsion
[ 7974 7965 7964 7962 ] final  140.73 input  175.53 | X-H torsion
[ 8008 7997 7996 7995 ] final   48.26 input   59.86 | X-H torsion
[ 10167 10162 10161 10158 ] final   42.06 input  -65.29 | X-H torsion
[ 10718 10713 10712 10709 ] final  -48.30 input   66.30 | X-H torsion
[ 10763 10752 10751 10750 ] final   66.76 input  -60.55 | X-H torsion
[ 11005 11000 10999 10996 ] final  -52.08 input  -57.11 | X-H torsion

> <Gold.Protein.ActiveResidues>
 VAL166  LYS551  ARG553  GLY616  TRP617  ASP618  TYR619  PRO620  LYS621  CYS622 
 ASP623  PHE694  ASN695  SER759  ASP760  ASP761  ALA762  ILE779  LEU786  VAL792 
 PHE793  MET794  SER795  GLU796  ALA797  LYS798  CYS799  TRP800  GLU811  SER814 

> <Gold.Protein.RotatedAtoms>
  150.8587  134.7932  159.7065 H   0  0  0  0  0  0  0  0  0  0  0  0  # atno 6907 bound_to 6896
  152.4630  134.5136  159.9771 H   0  0  0  0  0  0  0  0  0  0  0  0  # atno 6908 bound_to 6896
  151.5244  133.3422  159.2942 H   0  0  0  0  0  0  0  0  0  0  0  0  # atno 6909 bound_to 6896
  144.9160  139.5230  143.5686 H   0  0  0  0  0  0  0  0  0  0  0  0  # atno 7974 bound_to 7965
  155.3827  140.3429  155.4247 H   0  0  0  0  0  0  0  0  0  0  0  0  # atno 8008 bound_to 7997
  156.1601  140.1598  156.8659 H   0  0  0  0  0  0  0  0  0  0  0  0  # atno 8009 bound_to 7997
  154.5132  140.0785  156.8012 H   0  0  0  0  0  0  0  0  0  0  0  0  # atno 8010 bound_to 7997
  140.3582  144.2263  150.6140 H   0  0  0  0  0  0  0  0  0  0  0  0  # atno 10167 bound_to 10162
  156.2001  130.4156  149.9252 H   0  0  0  0  0  0  0  0  0  0  0  0  # atno 10718 bound_to 10713
  153.0154  135.5309  154.6873 H   0  0  0  0  0  0  0  0  0  0  0  0  # atno 10763 bound_to 10752
  154.6017  135.2869  155.0530 H   0  0  0  0  0  0  0  0  0  0  0  0  # atno 10764 bound_to 10752
  154.1585  135.6551  153.5032 H   0  0  0  0  0  0  0  0  0  0  0  0  # atno 10765 bound_to 10752
  141.0905  133.6633  156.3971 H   0  0  0  0  0  0  0  0  0  0  0  0  # atno 11005 bound_to 11000
  146.3182  139.8002  142.8967 LP  0  0  0  0  0  0  0  0  0  0  0  0  # atno 17320 bound_to 7965
  145.3375  141.0280  143.3411 LP  0  0  0  0  0  0  0  0  0  0  0  0  # atno 17321 bound_to 7965
  140.5153  143.2280  151.8473 LP  0  0  0  0  0  0  0  0  0  0  0  0  # atno 17342 bound_to 10162
  139.4817  144.4901  151.9196 LP  0  0  0  0  0  0  0  0  0  0  0  0  # atno 17343 bound_to 10162
  156.6964  130.8916  151.3594 LP  0  0  0  0  0  0  0  0  0  0  0  0  # atno 17370 bound_to 10713
  157.6981  130.9303  150.0703 LP  0  0  0  0  0  0  0  0  0  0  0  0  # atno 17371 bound_to 10713
  140.5263  134.6256  157.5335 LP  0  0  0  0  0  0  0  0  0  0  0  0  # atno 17394 bound_to 11000
  139.9730  134.7261  156.0004 LP  0  0  0  0  0  0  0  0  0  0  0  0  # atno 17395 bound_to 11000

$$$$
