AV-unprocessed.smi:157|AV-procd|sdf|1304|dock6
  -GOLD-   2262018593D 1   1.00000     0.00000
 Structure written by MMmdl.
 35 37  0  0  0  0  0  0  0  0  1 V2000
  147.7225  138.4891  153.1449 O   0  0  0  0  0  0  0  0  0  0  0  0
  148.0588  138.3725  154.5110 C   0  0  0  0  0  0  0  0  0  0  0  0
  149.2973  139.2224  154.8366 C   0  0  2  0  0  0  0  0  0  0  0  0
  149.5852  139.1224  156.2329 O   0  0  0  0  0  0  0  0  0  0  0  0
  149.6790  140.3963  156.7914 C   0  0  1  0  0  0  0  0  0  0  0  0
  150.7958  140.4078  157.7869 N   0  0  0  0  0  0  0  0  0  0  0  0
  151.5280  139.3521  158.1658 C   0  0  0  0  0  0  0  0  0  0  0  0
  152.4650  139.6252  159.0575 N   0  0  0  0  0  0  0  0  0  0  0  0
  152.3345  140.9959  159.2729 C   0  0  0  0  0  0  0  0  0  0  0  0
  151.3083  141.5031  158.4885 C   0  0  0  0  0  0  0  0  0  0  0  0
  150.7334  142.7422  158.2797 N   0  0  0  0  0  0  0  0  0  0  0  0
  151.3958  143.7929  158.6492 C   0  0  0  0  0  0  0  0  0  0  0  0
  152.6018  143.9005  159.3269 N   0  0  0  0  0  0  0  0  0  0  0  0
  152.9122  143.1510  160.5321 C   0  0  0  0  0  0  0  0  0  0  0  0
  153.2309  141.6745  160.2682 C   0  0  2  0  0  0  0  0  0  0  0  0
  154.5518  141.5619  159.7788 O   0  0  0  0  0  0  0  0  0  0  0  0
  149.9772  141.3482  155.6424 C   0  0  0  0  0  0  0  0  0  0  0  0
  149.1317  140.7251  154.5538 C   0  0  1  0  0  0  0  0  0  0  0  0
  149.6095  141.0941  153.2766 O   0  0  0  0  0  0  0  0  0  0  0  0
  150.1724  138.8316  154.3144 H   0  0  0  0  0  0  0  0  0  0  0  0
  148.7652  140.6335  157.3373 H   0  0  0  0  0  0  0  0  0  0  0  0
  153.2003  141.1405  161.2183 H   0  0  0  0  0  0  0  0  0  0  0  0
  148.0919  141.0339  154.6707 H   0  0  0  0  0  0  0  0  0  0  0  0
  148.2911  137.9227  152.6461 H   0  0  0  0  0  0  0  0  0  0  0  0
  147.2080  138.6660  155.1269 H   0  0  0  0  0  0  0  0  0  0  0  0
  148.2616  137.3222  154.7217 H   0  0  0  0  0  0  0  0  0  0  0  0
  151.3690  138.3568  157.7774 H   0  0  0  0  0  0  0  0  0  0  0  0
  150.9777  144.7743  158.4205 H   0  0  0  0  0  0  0  0  0  0  0  0
  153.0824  144.7885  159.3151 H   0  0  0  0  0  0  0  0  0  0  0  0
  153.7290  143.6342  161.0692 H   0  0  0  0  0  0  0  0  0  0  0  0
  152.0399  143.2117  161.1850 H   0  0  0  0  0  0  0  0  0  0  0  0
  154.5573  140.9133  159.0913 H   0  0  0  0  0  0  0  0  0  0  0  0
  149.7035  142.3739  155.8913 H   0  0  0  0  0  0  0  0  0  0  0  0
  151.0395  141.3025  155.3946 H   0  0  0  0  0  0  0  0  0  0  0  0
  149.3897  140.4088  152.6643 H   0  0  0  0  0  0  0  0  0  0  0  0
  1  2  1  0  0  0  0
  1 24  1  0  0  0  0
  2  3  1  0  0  0  0
  2 25  1  0  0  0  0
  2 26  1  0  0  0  0
  3 20  1  0  0  0  0
  3 18  1  0  0  0  0
  3  4  1  0  0  0  0
  4  5  1  0  0  0  0
  5 21  1  0  0  0  0
  5  6  1  0  0  0  0
  5 17  1  0  0  0  0
  6 10  1  0  0  0  0
  6  7  1  0  0  0  0
  7  8  2  0  0  0  0
  7 27  1  0  0  0  0
  8  9  1  0  0  0  0
  9 15  1  0  0  0  0
  9 10  2  0  0  0  0
 10 11  1  0  0  0  0
 11 12  2  0  0  0  0
 12 13  1  0  0  0  0
 12 28  1  0  0  0  0
 13 14  1  0  0  0  0
 13 29  1  0  0  0  0
 14 15  1  0  0  0  0
 14 30  1  0  0  0  0
 14 31  1  0  0  0  0
 15 22  1  0  0  0  0
 15 16  1  0  0  0  0
 16 32  1  0  0  0  0
 17 18  1  0  0  0  0
 17 33  1  0  0  0  0
 17 34  1  0  0  0  0
 18 23  1  0  0  0  0
 18 19  1  0  0  0  0
 19 35  1  0  0  0  0
M  END
> <s_m_source_file>
AV-unprocessed.smi

> <i_m_source_file_index>
157

> <i_lp_mmshare_version>
43012

> <i_f3d_flags>
0

> <s_epik_input>
W09IXVtDSDJdW0NASF0xT1tDQEhdKFtDSDJdW0NAQEhdMVtPSF0pbihbY0hdbjIpYyhjMjMpTj1bQ0hdW05IXVtDSDJdW0NASF0zW09IXQ==

> <s_epik_cmdline>
J2VwaWtfcHl0aG9uJywgJy1waCcsICc3LjAnLCAnLXRuJywgJzgnLCAnLW1hJywgJzIwMCcsICctbWV0YWxfYmluZGluZycsICctaW1hZScsICc8aW5maWxlLm1hZT4nLCAnLW9tYWUnLCAnPG91dGZpbGUubWFlPic=

> <r_lp_tautomer_probability>
1

> <r_epik_Ionization_Penalty>
0.0357149

> <r_epik_Ionization_Penalty_Charging>
0.0355056

> <r_epik_Ionization_Penalty_Neutral>
0.000209255

> <r_epik_State_Penalty>
0.0296046

> <r_epik_Charging_Adjusted_Penalty>
0.0651102

> <i_epik_Tot_Q>
0

> <i_epik_Tot_abs_Q>
0

> <r_epik_Metal_State_Penalty>
3.03559e-05

> <b_epik_Metal_Only>
0

> <s_epik_Chemistry_Notes>
This compound has an imine and may undergo hydrolysis. This compound contains an acetal/aminal-like group ( X-CH(R)-Y where X, Y are N, S, or O) that may be acid/base labile, releasing an aldehyde.

> <s_lp_Force_Field>
OPLS_2005

> <r_lp_Energy>
43.9106

> <b_lp_Chiralities_Consistent>
1

> <s_lp_Variant>
AV-unprocessed.smi:157-14

> <Gold.Version>
5.8.1

> <Gold.Id.Protein>
6NUR|6NUR_protein|mol2

> <Gold.PLP.Fitness>
41.2891

> <Gold.PLP.PLP>
-32.3202

> <Gold.PLP.part.hbond>
-4.3294

> <Gold.PLP.part.metal>
0.0000

> <Gold.PLP.part.buried>
-5.0557

> <Gold.PLP.part.nonpolar>
-23.4327

> <Gold.PLP.part.repulsive>
0.1094

> <Gold.PLP.ligand.clash>
0.0000

> <Gold.PLP.ligand.torsion>
0.0349

> <Gold.PLP.Chemscore.Hbond>
3.0080

> <Gold.PLP.Chemscore.CHOScore>
0.0000

> <Gold.PLP.Chemscore.Metal>
0.0000

> <Gold.Chemscore.Hbonds>
donor molecule, donor type, donor heavy atom, donor atom, acceptor molecule, acceptor atom, score
      L1  H     1    24       P1  7948  1.00
      L1  H    19    35       P1  7957  0.78
      P1  H  7989  7998       L1    19  0.14
      P1  H  8011  8017       L1    19  1.00

> <Gold.PLP.Chemscore.Internal.Correction>
0.0148

> <Gold.Rescore>
     Score         DG    S(hbond)    S(metal)    S(lipo)     H(rot)  DE(clash)    DE(int)     intcor
     10.35     -10.37       2.41        0.00      52.58       3.64       0.00       0.02       ----

> <Gold.Chemscore.Fitness>
10.3458

> <Gold.Chemscore.DG>
-10.3677

> <Gold.Chemscore.ZeroCoef>
-5.4800

> <Gold.Chemscore.Hbond>
2.4085

> <Gold.Chemscore.Metal>
0.0000

> <Gold.Chemscore.Lipo>
52.5813

> <Gold.Chemscore.Internal_Hbond>
0.0000

> <Gold.Chemscore.DEClash>
0.0038

> <Gold.Chemscore.DEInternal>
0.0181

> <Gold.Chemscore.Rot>
3.6362

> <Gold.Chemscore.Internal.Correction>
   9.000000E+99

> <Gold.Chemscore.Hbonds>
donor molecule, donor type, donor heavy atom, donor atom, acceptor molecule, acceptor atom, score
      L1  H     1    24       P1  7948  0.98
      L1  H    19    35       P1  7957  0.75
      P1  H  7989  7998       L1    19  0.03
      P1  H  8011  8017       L1    19  0.39

> <Gold.Chemscore.Hbond.Weighted>
-8.0444

> <Gold.Chemscore.Metal.Weighted>
-0.0000

> <Gold.Chemscore.Lipo.Weighted>
-6.1520

> <Gold.Chemscore.Internal_Hbond.Weighted>
0.0000

> <Gold.Chemscore.DEClash.Weighted>
0.0038

> <Gold.Chemscore.DEInternal.Weighted>
0.0181

> <Gold.Chemscore.Rot.Weighted>
9.3087

> <Gold.Chemscore.Internal.Correction.Weighted>
   9.000000E+99

> <Gold.Protein.RotatedTorsions>
[ 6907 6896 6895 6894 ] final   67.66 input  -60.11 | X-H torsion
[ 7974 7965 7964 7962 ] final  153.98 input  175.53 | X-H torsion
[ 8008 7997 7996 7995 ] final  -79.67 input   59.86 | X-H torsion
[ 10167 10162 10161 10158 ] final -121.30 input  -65.29 | X-H torsion
[ 10718 10713 10712 10709 ] final   84.05 input   66.30 | X-H torsion
[ 10763 10752 10751 10750 ] final -138.25 input  -60.55 | X-H torsion
[ 11005 11000 10999 10996 ] final   41.50 input  -57.11 | X-H torsion

> <Gold.Protein.ActiveResidues>
 VAL166  LYS551  ARG553  GLY616  TRP617  ASP618  TYR619  PRO620  LYS621  CYS622 
 ASP623  PHE694  ASN695  SER759  ASP760  ASP761  ALA762  ILE779  LEU786  VAL792 
 PHE793  MET794  SER795  GLU796  ALA797  LYS798  CYS799  TRP800  GLU811  SER814 

> <Gold.Protein.RotatedAtoms>
  152.4567  134.5276  159.9801 H   0  0  0  0  0  0  0  0  0  0  0  0  # atno 6907 bound_to 6896
  151.5335  133.3439  159.2930 H   0  0  0  0  0  0  0  0  0  0  0  0  # atno 6908 bound_to 6896
  150.8514  134.7870  159.7074 H   0  0  0  0  0  0  0  0  0  0  0  0  # atno 6909 bound_to 6896
  144.8119  139.6872  143.6138 H   0  0  0  0  0  0  0  0  0  0  0  0  # atno 7974 bound_to 7965
  154.5808  140.0675  156.9101 H   0  0  0  0  0  0  0  0  0  0  0  0  # atno 8008 bound_to 7997
  155.2467  140.3348  155.4268 H   0  0  0  0  0  0  0  0  0  0  0  0  # atno 8009 bound_to 7997
  156.2187  140.1789  156.7512 H   0  0  0  0  0  0  0  0  0  0  0  0  # atno 8010 bound_to 7997
  140.0266  143.5291  152.2196 H   0  0  0  0  0  0  0  0  0  0  0  0  # atno 10167 bound_to 10162
  157.6891  131.0117  150.2615 H   0  0  0  0  0  0  0  0  0  0  0  0  # atno 10718 bound_to 10713
  154.8641  135.3617  154.5355 H   0  0  0  0  0  0  0  0  0  0  0  0  # atno 10763 bound_to 10752
  153.5979  135.7013  153.5401 H   0  0  0  0  0  0  0  0  0  0  0  0  # atno 10764 bound_to 10752
  153.3316  135.4123  155.1462 H   0  0  0  0  0  0  0  0  0  0  0  0  # atno 10765 bound_to 10752
  140.1828  134.4082  155.8190 H   0  0  0  0  0  0  0  0  0  0  0  0  # atno 11005 bound_to 11000
  146.2418  139.6017  142.9486 LP  0  0  0  0  0  0  0  0  0  0  0  0  # atno 17320 bound_to 7965
  145.5304  141.0427  143.2386 LP  0  0  0  0  0  0  0  0  0  0  0  0  # atno 17321 bound_to 7965
  139.6104  144.7607  151.2965 LP  0  0  0  0  0  0  0  0  0  0  0  0  # atno 17342 bound_to 10162
  140.7320  143.6835  150.7981 LP  0  0  0  0  0  0  0  0  0  0  0  0  # atno 17343 bound_to 10162
  156.3193  130.3783  149.7589 LP  0  0  0  0  0  0  0  0  0  0  0  0  # atno 17370 bound_to 10713
  156.5164  130.8195  151.3188 LP  0  0  0  0  0  0  0  0  0  0  0  0  # atno 17371 bound_to 10713
  141.2223  133.7009  156.7961 LP  0  0  0  0  0  0  0  0  0  0  0  0  # atno 17394 bound_to 11000
  140.2247  134.8730  157.3414 LP  0  0  0  0  0  0  0  0  0  0  0  0  # atno 17395 bound_to 11000

$$$$
