AV-unprocessed.smi:3334|AV-procd|sdf|12835|dock6
  -GOLD-   2272019213D 1   1.00000     0.00000
 Structure written by MMmdl.
 41 42  0  0  0  0  0  0  0  0  1 V2000
  144.6606  144.0884  154.7041 C   0  0  0  0  0  0  0  0  0  0  0  0
  145.4886  143.2876  155.7190 C   0  0  0  0  0  0  0  0  0  0  0  0
  145.8604  144.0986  156.9687 C   0  0  0  0  0  0  0  0  0  0  0  0
  146.6832  142.6475  155.0852 C   0  0  0  0  0  0  0  0  0  0  0  0
  147.5846  141.9295  155.7613 N   0  0  0  0  0  0  0  0  0  0  0  0
  148.6229  141.4586  154.9508 C   0  0  0  0  0  0  0  0  0  0  0  0
  149.7363  140.6434  155.5453 C   0  0  0  0  0  0  0  0  0  0  0  0
  150.9578  141.4825  155.9599 C   0  0  0  0  0  0  0  0  0  0  0  0
  151.2260  141.3686  157.3882 N   0  0  0  0  0  0  0  0  0  0  0  0
  152.1374  140.5551  157.9379 C   0  0  0  0  0  0  0  0  0  0  0  0
  152.8328  139.7781  157.2838 O   0  0  0  0  0  0  0  0  0  0  0  0
  152.2849  140.6346  159.4606 C   0  0  0  0  0  0  0  0  0  0  0  0
  153.0712  141.8757  159.9293 C   0  0  2  0  0  0  0  0  0  0  0  0
  153.0383  142.0388  161.4269 C   0  0  0  0  0  0  0  0  0  0  0  0
  152.6713  143.2616  161.8042 C   0  0  0  0  0  0  0  0  0  0  0  0
  152.3855  144.1621  160.6349 C   0  0  0  0  0  0  0  0  0  0  0  0
  152.5091  143.2269  159.4114 C   0  0  0  0  0  0  0  0  0  0  0  0
  148.4883  141.8273  153.6356 C   0  0  0  0  0  0  0  0  0  0  0  0
  147.0563  142.7833  153.3705 S   0  0  0  0  0  0  0  0  0  0  0  0
  144.3327  143.4508  153.8826 H   0  0  0  0  0  0  0  0  0  0  0  0
  145.2366  144.9110  154.2791 H   0  0  0  0  0  0  0  0  0  0  0  0
  143.7695  144.5115  155.1688 H   0  0  0  0  0  0  0  0  0  0  0  0
  144.8501  142.4726  156.0621 H   0  0  0  0  0  0  0  0  0  0  0  0
  146.3775  143.4772  157.7003 H   0  0  0  0  0  0  0  0  0  0  0  0
  144.9717  144.5065  157.4506 H   0  0  0  0  0  0  0  0  0  0  0  0
  146.5150  144.9342  156.7184 H   0  0  0  0  0  0  0  0  0  0  0  0
  149.3691  140.0924  156.4120 H   0  0  0  0  0  0  0  0  0  0  0  0
  150.0579  139.8837  154.8322 H   0  0  0  0  0  0  0  0  0  0  0  0
  151.8395  141.1554  155.4076 H   0  0  0  0  0  0  0  0  0  0  0  0
  150.7869  142.5280  155.6976 H   0  0  0  0  0  0  0  0  0  0  0  0
  150.7034  141.9793  158.0000 H   0  0  0  0  0  0  0  0  0  0  0  0
  151.2985  140.6245  159.9282 H   0  0  0  0  0  0  0  0  0  0  0  0
  152.7925  139.7291  159.7945 H   0  0  0  0  0  0  0  0  0  0  0  0
  154.1201  141.7798  159.6447 H   0  0  0  0  0  0  0  0  0  0  0  0
  153.3058  141.2362  162.0983 H   0  0  0  0  0  0  0  0  0  0  0  0
  152.5955  143.6019  162.8265 H   0  0  0  0  0  0  0  0  0  0  0  0
  151.3908  144.6008  160.7162 H   0  0  0  0  0  0  0  0  0  0  0  0
  153.1207  144.9666  160.6024 H   0  0  0  0  0  0  0  0  0  0  0  0
  153.1498  143.6566  158.6406 H   0  0  0  0  0  0  0  0  0  0  0  0
  151.5241  143.0881  158.9641 H   0  0  0  0  0  0  0  0  0  0  0  0
  149.1448  141.5981  152.8094 H   0  0  0  0  0  0  0  0  0  0  0  0
  1  2  1  0  0  0  0
  1 20  1  0  0  0  0
  1 21  1  0  0  0  0
  1 22  1  0  0  0  0
  2  3  1  0  0  0  0
  2  4  1  0  0  0  0
  2 23  1  0  0  0  0
  3 24  1  0  0  0  0
  3 25  1  0  0  0  0
  3 26  1  0  0  0  0
  4 19  1  0  0  0  0
  4  5  2  0  0  0  0
  5  6  1  0  0  0  0
  6  7  1  0  0  0  0
  6 18  2  0  0  0  0
  7  8  1  0  0  0  0
  7 27  1  0  0  0  0
  7 28  1  0  0  0  0
  8  9  1  0  0  0  0
  8 29  1  0  0  0  0
  8 30  1  0  0  0  0
  9 10  1  0  0  0  0
  9 31  1  0  0  0  0
 10 11  2  0  0  0  0
 10 12  1  0  0  0  0
 12 13  1  0  0  0  0
 12 32  1  0  0  0  0
 12 33  1  0  0  0  0
 13 17  1  0  0  0  0
 13 14  1  0  0  0  0
 13 34  1  0  0  0  0
 14 15  2  0  0  0  0
 14 35  1  0  0  0  0
 15 16  1  0  0  0  0
 15 36  1  0  0  0  0
 16 17  1  0  0  0  0
 16 37  1  0  0  0  0
 16 38  1  0  0  0  0
 17 39  1  0  0  0  0
 17 40  1  0  0  0  0
 18 19  1  0  0  0  0
 18 41  1  0  0  0  0
M  END
> <s_m_source_file>
AV-unprocessed.smi

> <i_m_source_file_index>
3334

> <i_lp_mmshare_version>
43012

> <i_f3d_flags>
0

> <s_epik_input>
W0NIM11bQ0hdKFtDSDNdKWMxbmMoW2NIXXMxKVtDSDJdW0NIMl1bTkhdQyg9TylbQ0gyXVtDQEBIXTJbQ0hdPVtDSF1bQ0gyXVtDSDJdMg==

> <s_epik_cmdline>
J2VwaWtfcHl0aG9uJywgJy1waCcsICc3LjAnLCAnLXRuJywgJzgnLCAnLW1hJywgJzIwMCcsICctbWV0YWxfYmluZGluZycsICctaW1hZScsICc8aW5maWxlLm1hZT4nLCAnLW9tYWUnLCAnPG91dGZpbGUubWFlPic=

> <r_epik_Ionization_Penalty>
0.000771592

> <r_epik_Ionization_Penalty_Charging>
0

> <r_epik_Ionization_Penalty_Neutral>
0.000771592

> <r_epik_State_Penalty>
0.000494253

> <r_epik_Charging_Adjusted_Penalty>
0.000494253

> <i_epik_Tot_Q>
0

> <i_epik_Tot_abs_Q>
0

> <r_epik_Metal_State_Penalty>
-0

> <b_epik_Metal_Only>
0

> <s_lp_Force_Field>
OPLS_2005

> <r_lp_Energy>
4.8696

> <b_lp_Chiralities_Consistent>
1

> <s_lp_Variant>
AV-unprocessed.smi:3334-1

> <Gold.Version>
5.8.1

> <Gold.Id.Protein>
6NUR|6NUR_protein|mol2

> <Gold.PLP.Fitness>
46.7552

> <Gold.PLP.PLP>
-43.1012

> <Gold.PLP.part.hbond>
-1.0000

> <Gold.PLP.part.metal>
0.0000

> <Gold.PLP.part.buried>
-4.8793

> <Gold.PLP.part.nonpolar>
-36.6555

> <Gold.PLP.part.repulsive>
0.1584

> <Gold.PLP.ligand.clash>
0.0000

> <Gold.PLP.ligand.torsion>
1.2337

> <Gold.PLP.Chemscore.Hbond>
1.0000

> <Gold.PLP.Chemscore.CHOScore>
1.0000

> <Gold.PLP.Chemscore.Metal>
0.0000

> <Gold.Chemscore.Hbonds>
donor molecule, donor type, donor heavy atom, donor atom, acceptor molecule, acceptor atom, score
      P1  H  7997  8010       L1    11  1.00
      L1  C    18    41       P1  7957  1.00

> <Gold.PLP.Chemscore.Internal.Correction>
0.1215

> <Gold.Rescore>
     Score         DG    S(hbond)    S(metal)    S(lipo)     H(rot)  DE(clash)    DE(int)     intcor
     16.54     -17.78       1.00        0.00     109.86       1.52       0.06       1.18       ----

> <Gold.Chemscore.Fitness>
16.5435

> <Gold.Chemscore.DG>
-17.7824

> <Gold.Chemscore.ZeroCoef>
-5.4800

> <Gold.Chemscore.Hbond>
0.9971

> <Gold.Chemscore.Metal>
0.0000

> <Gold.Chemscore.Lipo>
109.8611

> <Gold.Chemscore.Internal_Hbond>
0.0000

> <Gold.Chemscore.DEClash>
0.0611

> <Gold.Chemscore.DEInternal>
1.1778

> <Gold.Chemscore.Rot>
1.5162

> <Gold.Chemscore.Internal.Correction>
   9.000000E+99

> <Gold.Chemscore.Hbonds>
donor molecule, donor type, donor heavy atom, donor atom, acceptor molecule, acceptor atom, score
      P1  H  7997  8010       L1    11  0.98

> <Gold.Chemscore.Hbond.Weighted>
-3.3302

> <Gold.Chemscore.Metal.Weighted>
-0.0000

> <Gold.Chemscore.Lipo.Weighted>
-12.8537

> <Gold.Chemscore.Internal_Hbond.Weighted>
0.0000

> <Gold.Chemscore.DEClash.Weighted>
0.0611

> <Gold.Chemscore.DEInternal.Weighted>
1.1778

> <Gold.Chemscore.Rot.Weighted>
3.8815

> <Gold.Chemscore.Internal.Correction.Weighted>
   9.000000E+99

> <Gold.Protein.RotatedTorsions>
[ 6907 6896 6895 6894 ] final  135.63 input  -60.11 | X-H torsion
[ 7974 7965 7964 7962 ] final  101.78 input  175.53 | X-H torsion
[ 8008 7997 7996 7995 ] final   67.62 input   59.86 | X-H torsion
[ 10167 10162 10161 10158 ] final  118.85 input  -65.29 | X-H torsion
[ 10718 10713 10712 10709 ] final  -94.40 input   66.30 | X-H torsion
[ 10763 10752 10751 10750 ] final  -47.46 input  -60.55 | X-H torsion
[ 11005 11000 10999 10996 ] final   21.48 input  -57.11 | X-H torsion

> <Gold.Protein.ActiveResidues>
 VAL166  LYS551  ARG553  GLY616  TRP617  ASP618  TYR619  PRO620  LYS621  CYS622 
 ASP623  PHE694  ASN695  SER759  ASP760  ASP761  ALA762  ILE779  LEU786  VAL792 
 PHE793  MET794  SER795  GLU796  ALA797  LYS798  CYS799  TRP800  GLU811  SER814 

> <Gold.Protein.RotatedAtoms>
  152.2983  133.5630  159.5601 H   0  0  0  0  0  0  0  0  0  0  0  0  # atno 6907 bound_to 6896
  150.7266  134.0328  159.3748 H   0  0  0  0  0  0  0  0  0  0  0  0  # atno 6908 bound_to 6896
  151.8229  135.0646  160.0478 H   0  0  0  0  0  0  0  0  0  0  0  0  # atno 6909 bound_to 6896
  145.3678  139.2404  143.3472 H   0  0  0  0  0  0  0  0  0  0  0  0  # atno 7974 bound_to 7965
  155.6958  140.3495  155.4912 H   0  0  0  0  0  0  0  0  0  0  0  0  # atno 8008 bound_to 7997
  155.9484  140.1114  157.1019 H   0  0  0  0  0  0  0  0  0  0  0  0  # atno 8009 bound_to 7997
  154.4117  140.1199  156.5007 H   0  0  0  0  0  0  0  0  0  0  0  0  # atno 8010 bound_to 7997
  139.6084  144.7076  151.2900 H   0  0  0  0  0  0  0  0  0  0  0  0  # atno 10167 bound_to 10162
  156.0026  130.5066  150.5921 H   0  0  0  0  0  0  0  0  0  0  0  0  # atno 10718 bound_to 10713
  154.0618  135.6617  153.4813 H   0  0  0  0  0  0  0  0  0  0  0  0  # atno 10763 bound_to 10752
  153.0424  135.5136  154.7652 H   0  0  0  0  0  0  0  0  0  0  0  0  # atno 10764 bound_to 10752
  154.6690  135.3026  154.9734 H   0  0  0  0  0  0  0  0  0  0  0  0  # atno 10765 bound_to 10752
  140.3911  134.1818  155.7662 H   0  0  0  0  0  0  0  0  0  0  0  0  # atno 11005 bound_to 11000
  146.2899  140.4323  142.8743 LP  0  0  0  0  0  0  0  0  0  0  0  0  # atno 17320 bound_to 7965
  144.8599  140.7124  143.6114 LP  0  0  0  0  0  0  0  0  0  0  0  0  # atno 17321 bound_to 7965
  140.7301  143.6888  150.7939 LP  0  0  0  0  0  0  0  0  0  0  0  0  # atno 17342 bound_to 10162
  140.0478  143.5281  152.2688 LP  0  0  0  0  0  0  0  0  0  0  0  0  # atno 17343 bound_to 10162
  157.3784  131.0777  151.1498 LP  0  0  0  0  0  0  0  0  0  0  0  0  # atno 17370 bound_to 10713
  157.2229  130.6489  149.5818 LP  0  0  0  0  0  0  0  0  0  0  0  0  # atno 17371 bound_to 10713
  141.1890  133.8247  157.0972 LP  0  0  0  0  0  0  0  0  0  0  0  0  # atno 17394 bound_to 11000
  140.0406  134.9856  157.0954 LP  0  0  0  0  0  0  0  0  0  0  0  0  # atno 17395 bound_to 11000

$$$$
