AV-unprocessed.smi:1973|AV-procd|sdf|7977|dock7
  -GOLD-   2272010153D 1   1.00000     0.00000
 Structure written by MMmdl.
 48 50  0  0  0  0  0  0  0  0  2 V2000
  145.4787  143.5014  154.0634 C   0  0  0  0  0  0  0  0  0  0  0  0
  146.7550  142.9587  153.7741 O   0  0  0  0  0  0  0  0  0  0  0  0
  146.9075  141.6390  154.2680 C   0  0  0  0  0  0  0  0  0  0  0  0
  147.9632  140.9103  153.4235 C   0  0  0  0  0  0  0  0  0  0  0  0
  148.3786  139.6547  154.0562 N   0  0  0  0  0  0  0  0  0  0  0  0
  147.3974  138.6777  154.0650 N   0  0  0  0  0  0  0  0  0  0  0  0
  147.6293  137.5282  154.6119 C   0  0  0  0  0  0  0  0  0  0  0  0
  146.5948  136.4579  154.6567 C   0  0  0  0  0  0  0  0  0  0  0  0
  146.8036  135.3722  155.2004 O   0  0  0  0  0  0  0  0  0  0  0  0
  145.4218  136.7655  154.0744 N   0  0  0  0  0  0  0  0  0  0  0  0
  144.2548  135.8921  154.0239 C   0  0  0  0  0  0  0  0  0  0  0  0
  143.7681  135.6701  152.5793 C   0  0  1  0  0  0  0  0  0  0  0  0
  144.8383  135.8675  151.5054 C   0  0  0  0  0  0  0  0  0  0  0  0
  144.3234  135.0634  150.3050 C   0  0  0  0  0  0  0  0  0  0  0  0
  143.2985  134.1274  150.8242 N   0  3  1  0  0  0  0  0  0  0  0  0
  143.4377  132.7394  150.3349 C   0  0  0  0  0  0  0  0  0  0  0  0
  144.8410  132.3921  149.8987 C   0  0  0  0  0  0  0  0  0  0  0  0
  143.7666  132.6478  148.8640 C   0  0  0  0  0  0  0  0  0  0  0  0
  143.2876  134.2481  152.2961 C   0  0  0  0  0  0  0  0  0  0  0  0
  148.9183  137.2385  155.2172 C   0  0  0  0  0  0  0  0  0  0  0  0
  149.8632  138.2041  155.2066 C   0  0  0  0  0  0  0  0  0  0  0  0
  149.6226  139.5176  154.6069 C   0  0  0  0  0  0  0  0  0  0  0  0
  150.4596  140.4196  154.6033 O   0  0  0  0  0  0  0  0  0  0  0  0
  145.4130  144.5146  153.6676 H   0  0  0  0  0  0  0  0  0  0  0  0
  145.3040  143.5478  155.1391 H   0  0  0  0  0  0  0  0  0  0  0  0
  144.6858  142.9090  153.6049 H   0  0  0  0  0  0  0  0  0  0  0  0
  147.2114  141.6660  155.3157 H   0  0  0  0  0  0  0  0  0  0  0  0
  145.9545  141.1099  154.2145 H   0  0  0  0  0  0  0  0  0  0  0  0
  147.5563  140.7061  152.4314 H   0  0  0  0  0  0  0  0  0  0  0  0
  148.8230  141.5611  153.2553 H   0  0  0  0  0  0  0  0  0  0  0  0
  145.3324  137.6758  153.6453 H   0  0  0  0  0  0  0  0  0  0  0  0
  144.5254  134.9397  154.4808 H   0  0  0  0  0  0  0  0  0  0  0  0
  143.4523  136.3090  154.6350 H   0  0  0  0  0  0  0  0  0  0  0  0
  142.9414  136.3512  152.3690 H   0  0  0  0  0  0  0  0  0  0  0  0
  145.0057  136.9182  151.2655 H   0  0  0  0  0  0  0  0  0  0  0  0
  145.7874  135.4490  151.8434 H   0  0  0  0  0  0  0  0  0  0  0  0
  143.8521  135.7181  149.5715 H   0  0  0  0  0  0  0  0  0  0  0  0
  145.1431  134.5443  149.8057 H   0  0  0  0  0  0  0  0  0  0  0  0
  142.8039  131.9911  150.8078 H   0  0  0  0  0  0  0  0  0  0  0  0
  145.6182  133.1457  150.0138 H   0  0  0  0  0  0  0  0  0  0  0  0
  145.1683  131.3629  150.0327 H   0  0  0  0  0  0  0  0  0  0  0  0
  143.3873  131.7868  148.3170 H   0  0  0  0  0  0  0  0  0  0  0  0
  143.8299  133.5712  148.2910 H   0  0  0  0  0  0  0  0  0  0  0  0
  143.9822  133.5260  152.7294 H   0  0  0  0  0  0  0  0  0  0  0  0
  142.2964  134.0504  152.7054 H   0  0  0  0  0  0  0  0  0  0  0  0
  149.1239  136.2779  155.6664 H   0  0  0  0  0  0  0  0  0  0  0  0
  150.8260  138.0028  155.6531 H   0  0  0  0  0  0  0  0  0  0  0  0
  142.4075  134.4770  150.5012 H   0  0  0  0  0  0  0  0  0  0  0  0
  1  2  1  0  0  0  0
  1 24  1  0  0  0  0
  1 25  1  0  0  0  0
  1 26  1  0  0  0  0
  2  3  1  0  0  0  0
  3  4  1  0  0  0  0
  3 27  1  0  0  0  0
  3 28  1  0  0  0  0
  4  5  1  0  0  0  0
  4 29  1  0  0  0  0
  4 30  1  0  0  0  0
  5 22  1  0  0  0  0
  5  6  1  0  0  0  0
  6  7  2  0  0  0  0
  7  8  1  0  0  0  0
  7 20  1  0  0  0  0
  8  9  2  0  0  0  0
  8 10  1  0  0  0  0
 10 11  1  0  0  0  0
 10 31  1  0  0  0  0
 11 12  1  0  0  0  0
 11 32  1  0  0  0  0
 11 33  1  0  0  0  0
 12 19  1  0  0  0  0
 12 13  1  0  0  0  0
 12 34  1  0  0  0  0
 13 14  1  0  0  0  0
 13 35  1  0  0  0  0
 13 36  1  0  0  0  0
 14 15  1  0  0  0  0
 14 37  1  0  0  0  0
 14 38  1  0  0  0  0
 15 16  1  0  0  0  0
 15 19  1  0  0  0  0
 15 48  1  0  0  0  0
 16 18  1  0  0  0  0
 16 17  1  0  0  0  0
 16 39  1  0  0  0  0
 17 18  1  0  0  0  0
 17 40  1  0  0  0  0
 17 41  1  0  0  0  0
 18 42  1  0  0  0  0
 18 43  1  0  0  0  0
 19 44  1  0  0  0  0
 19 45  1  0  0  0  0
 20 21  2  0  0  0  0
 20 46  1  0  0  0  0
 21 22  1  0  0  0  0
 21 47  1  0  0  0  0
 22 23  2  0  0  0  0
M  CHG  1  15   1
M  END
> <s_m_source_file>
AV-unprocessed.smi

> <i_m_source_file_index>
1973

> <i_lp_mmshare_version>
43012

> <i_f3d_flags>
0

> <s_epik_input>
W0NIM11PW0NIMl1bQ0gyXW4xbmMoW2NIXVtjSF1jMT1PKUMoPU8pW05IXVtDSDJdW0NAQEhdMltDSDJdW0NIMl1OKFtDSDJdMilbQ0hdM1tDSDJdW0NIMl0z

> <s_epik_cmdline>
J2VwaWtfcHl0aG9uJywgJy1waCcsICc3LjAnLCAnLXRuJywgJzgnLCAnLW1hJywgJzIwMCcsICctbWV0YWxfYmluZGluZycsICctaW1hZScsICc8aW5maWxlLm1hZT4nLCAnLW9tYWUnLCAnPG91dGZpbGUubWFlPic=

> <r_lp_tautomer_probability>
1

> <r_epik_Ionization_Penalty>
0.000225706

> <r_epik_Ionization_Penalty_Charging>
0.000223776

> <r_epik_Ionization_Penalty_Neutral>
1.93004e-06

> <r_epik_State_Penalty>
-0

> <r_epik_Charging_Adjusted_Penalty>
0.000223776

> <i_epik_Tot_Q>
1

> <i_epik_Tot_abs_Q>
1

> <r_epik_Metal_State_Penalty>
-0

> <b_epik_Metal_Only>
0

> <s_lp_Force_Field>
OPLS_2005

> <r_lp_Energy>
57.2407

> <b_lp_Chiralities_Consistent>
1

> <s_lp_Variant>
AV-unprocessed.smi:1973-2

> <Gold.Version>
5.8.1

> <Gold.Id.Protein>
6NUR|6NUR_protein|mol2

> <Gold.PLP.Fitness>
44.6628

> <Gold.PLP.PLP>
-37.2979

> <Gold.PLP.part.hbond>
-2.0000

> <Gold.PLP.part.metal>
0.0000

> <Gold.PLP.part.buried>
-3.1451

> <Gold.PLP.part.nonpolar>
-32.2614

> <Gold.PLP.part.repulsive>
0.5086

> <Gold.PLP.ligand.clash>
0.0000

> <Gold.PLP.ligand.torsion>
1.4496

> <Gold.PLP.Chemscore.Hbond>
3.0000

> <Gold.PLP.Chemscore.CHOScore>
0.0000

> <Gold.PLP.Chemscore.Metal>
0.0000

> <Gold.Chemscore.Hbonds>
donor molecule, donor type, donor heavy atom, donor atom, acceptor molecule, acceptor atom, score
      L1  H    15    48       P1 10186  2.00
      P1  H  7989  7998       L1    23  1.00

> <Gold.PLP.Chemscore.Internal.Correction>
1.2641

> <Gold.Rescore>
     Score         DG    S(hbond)    S(metal)    S(lipo)     H(rot)  DE(clash)    DE(int)     intcor
     14.97     -16.27       1.81        0.00      83.56       1.97       0.05       1.25       ----

> <Gold.Chemscore.Fitness>
14.9676

> <Gold.Chemscore.DG>
-16.2656

> <Gold.Chemscore.ZeroCoef>
-5.4800

> <Gold.Chemscore.Hbond>
1.8129

> <Gold.Chemscore.Metal>
0.0000

> <Gold.Chemscore.Lipo>
83.5602

> <Gold.Chemscore.Internal_Hbond>
0.0000

> <Gold.Chemscore.DEClash>
0.0479

> <Gold.Chemscore.DEInternal>
1.2502

> <Gold.Chemscore.Rot>
1.9711

> <Gold.Chemscore.Internal.Correction>
   9.000000E+99

> <Gold.Chemscore.Hbonds>
donor molecule, donor type, donor heavy atom, donor atom, acceptor molecule, acceptor atom, score
      L1  H    15    48       P1 10186  0.29
      P1  H  7989  7998       L1    23  0.96

> <Gold.Chemscore.Hbond.Weighted>
-6.0551

> <Gold.Chemscore.Metal.Weighted>
-0.0000

> <Gold.Chemscore.Lipo.Weighted>
-9.7765

> <Gold.Chemscore.Internal_Hbond.Weighted>
0.0000

> <Gold.Chemscore.DEClash.Weighted>
0.0479

> <Gold.Chemscore.DEInternal.Weighted>
1.2502

> <Gold.Chemscore.Rot.Weighted>
5.0460

> <Gold.Chemscore.Internal.Correction.Weighted>
   9.000000E+99

> <Gold.Protein.RotatedTorsions>
[ 6907 6896 6895 6894 ] final -135.46 input  -60.11 | X-H torsion
[ 7974 7965 7964 7962 ] final  -47.33 input  175.53 | X-H torsion
[ 8008 7997 7996 7995 ] final   87.57 input   59.86 | X-H torsion
[ 10167 10162 10161 10158 ] final  130.42 input  -65.29 | X-H torsion
[ 10718 10713 10712 10709 ] final   42.26 input   66.30 | X-H torsion
[ 10763 10752 10751 10750 ] final -175.04 input  -60.55 | X-H torsion
[ 11005 11000 10999 10996 ] final  -49.05 input  -57.11 | X-H torsion

> <Gold.Protein.ActiveResidues>
 VAL166  LYS551  ARG553  GLY616  TRP617  ASP618  TYR619  PRO620  LYS621  CYS622 
 ASP623  PHE694  ASN695  SER759  ASP760  ASP761  ALA762  ILE779  LEU786  VAL792 
 PHE793  MET794  SER795  GLU796  ALA797  LYS798  CYS799  TRP800  GLU811  SER814 

> <Gold.Protein.RotatedAtoms>
  150.9982  133.6082  159.2698 H   0  0  0  0  0  0  0  0  0  0  0  0  # atno 6907 bound_to 6896
  151.3279  135.0833  159.9338 H   0  0  0  0  0  0  0  0  0  0  0  0  # atno 6908 bound_to 6896
  152.5266  133.9617  159.7774 H   0  0  0  0  0  0  0  0  0  0  0  0  # atno 6909 bound_to 6896
  145.9627  140.7463  142.9449 H   0  0  0  0  0  0  0  0  0  0  0  0  # atno 7974 bound_to 7965
  155.9770  140.3380  155.6628 H   0  0  0  0  0  0  0  0  0  0  0  0  # atno 8008 bound_to 7997
  155.6599  140.0715  157.2576 H   0  0  0  0  0  0  0  0  0  0  0  0  # atno 8009 bound_to 7997
  154.4181  140.1710  156.1753 H   0  0  0  0  0  0  0  0  0  0  0  0  # atno 8010 bound_to 7997
  139.5431  144.6748  151.4561 H   0  0  0  0  0  0  0  0  0  0  0  0  # atno 10167 bound_to 10162
  157.4029  130.7870  149.7364 H   0  0  0  0  0  0  0  0  0  0  0  0  # atno 10718 bound_to 10713
  154.5891  135.2843  155.0654 H   0  0  0  0  0  0  0  0  0  0  0  0  # atno 10763 bound_to 10752
  154.1961  135.6432  153.5077 H   0  0  0  0  0  0  0  0  0  0  0  0  # atno 10764 bound_to 10752
  153.0115  135.5458  154.6570 H   0  0  0  0  0  0  0  0  0  0  0  0  # atno 10765 bound_to 10752
  141.0737  133.6672  156.3530 H   0  0  0  0  0  0  0  0  0  0  0  0  # atno 11005 bound_to 11000
  144.6818  140.2618  143.7318 LP  0  0  0  0  0  0  0  0  0  0  0  0  # atno 17320 bound_to 7965
  145.8017  139.1967  143.2044 LP  0  0  0  0  0  0  0  0  0  0  0  0  # atno 17321 bound_to 7965
  140.6668  143.8380  150.6952 LP  0  0  0  0  0  0  0  0  0  0  0  0  # atno 17342 bound_to 10162
  140.1791  143.4129  152.1946 LP  0  0  0  0  0  0  0  0  0  0  0  0  # atno 17343 bound_to 10162
  155.9828  130.4006  150.3396 LP  0  0  0  0  0  0  0  0  0  0  0  0  # atno 17370 bound_to 10713
  157.1526  131.0325  151.2878 LP  0  0  0  0  0  0  0  0  0  0  0  0  # atno 17371 bound_to 10713
  140.5620  134.5925  157.5436 LP  0  0  0  0  0  0  0  0  0  0  0  0  # atno 17394 bound_to 11000
  139.9549  134.7552  156.0364 LP  0  0  0  0  0  0  0  0  0  0  0  0  # atno 17395 bound_to 11000

$$$$
