AV-unprocessed.smi:2547|AV-procd|sdf|10004|dock3
  -GOLD-   2272014 53D 1   1.00000     0.00000
 Structure written by MMmdl.
 45 46  0  0  0  0  0  0  0  0  3 V2000
  149.6335  134.8688  155.0202 C   0  0  0  0  0  0  0  0  0  0  0  0
  149.6531  136.2629  154.5276 N   0  3  2  0  0  0  0  0  0  0  0  0
  151.0121  136.8575  154.5678 C   0  0  0  0  0  0  0  0  0  0  0  0
  151.0229  138.2549  153.9232 C   0  0  0  0  0  0  0  0  0  0  0  0
  149.9892  139.1989  154.5705 C   0  0  2  0  0  0  0  0  0  0  0  0
  150.3849  139.5967  155.9217 N   0  0  0  0  0  0  0  0  0  0  0  0
  150.7305  140.8388  156.2915 C   0  0  0  0  0  0  0  0  0  0  0  0
  150.7723  141.7907  155.5126 O   0  0  0  0  0  0  0  0  0  0  0  0
  151.0389  140.8922  157.5991 N   0  0  0  0  0  0  0  0  0  0  0  0
  151.4402  142.0219  158.3612 C   0  0  0  0  0  0  0  0  0  0  0  0
  151.0575  143.3543  158.0737 C   0  0  0  0  0  0  0  0  0  0  0  0
  151.5021  144.3963  158.9099 C   0  0  0  0  0  0  0  0  0  0  0  0
  152.3128  144.0962  160.0221 C   0  0  0  0  0  0  0  0  0  0  0  0
  152.6664  142.7513  160.2890 C   0  0  0  0  0  0  0  0  0  0  0  0
  153.4696  142.3666  161.3846 N   0  0  0  0  0  0  0  0  0  0  0  0
  153.4776  143.1779  162.5951 C   0  0  0  0  0  0  0  0  0  0  0  0
  154.4098  141.2609  161.2378 C   0  0  0  0  0  0  0  0  0  0  0  0
  152.2076  141.7889  159.4500 N   0  3  0  0  0  0  0  0  0  0  0  0
  148.6049  138.5256  154.5876 C   0  0  0  0  0  0  0  0  0  0  0  0
  148.6512  137.1181  155.2109 C   0  0  0  0  0  0  0  0  0  0  0  0
  149.9114  134.8219  156.0739 H   0  0  0  0  0  0  0  0  0  0  0  0
  150.3312  134.2506  154.4544 H   0  0  0  0  0  0  0  0  0  0  0  0
  148.6395  134.4347  154.9079 H   0  0  0  0  0  0  0  0  0  0  0  0
  151.3583  136.9135  155.6011 H   0  0  0  0  0  0  0  0  0  0  0  0
  151.7096  136.2091  154.0360 H   0  0  0  0  0  0  0  0  0  0  0  0
  152.0244  138.6836  153.9759 H   0  0  0  0  0  0  0  0  0  0  0  0
  150.7965  138.1555  152.8607 H   0  0  0  0  0  0  0  0  0  0  0  0
  149.9135  140.1036  153.9640 H   0  0  0  0  0  0  0  0  0  0  0  0
  150.3785  138.8765  156.6291 H   0  0  0  0  0  0  0  0  0  0  0  0
  151.0400  140.0117  158.0925 H   0  0  0  0  0  0  0  0  0  0  0  0
  150.4218  143.5962  157.2356 H   0  0  0  0  0  0  0  0  0  0  0  0
  151.2195  145.4177  158.7018 H   0  0  0  0  0  0  0  0  0  0  0  0
  152.6461  144.9055  160.6544 H   0  0  0  0  0  0  0  0  0  0  0  0
  152.4760  143.2458  163.0209 H   0  0  0  0  0  0  0  0  0  0  0  0
  153.8342  144.1852  162.3775 H   0  0  0  0  0  0  0  0  0  0  0  0
  154.1311  142.7490  163.3550 H   0  0  0  0  0  0  0  0  0  0  0  0
  153.8774  140.3296  161.0420 H   0  0  0  0  0  0  0  0  0  0  0  0
  155.0032  141.1216  162.1416 H   0  0  0  0  0  0  0  0  0  0  0  0
  155.0986  141.4483  160.4132 H   0  0  0  0  0  0  0  0  0  0  0  0
  147.8861  139.1492  155.1206 H   0  0  0  0  0  0  0  0  0  0  0  0
  148.2349  138.4470  153.5644 H   0  0  0  0  0  0  0  0  0  0  0  0
  147.6659  136.6567  155.1353 H   0  0  0  0  0  0  0  0  0  0  0  0
  148.8884  137.1818  156.2742 H   0  0  0  0  0  0  0  0  0  0  0  0
  149.3846  136.2256  153.5545 H   0  0  0  0  0  0  0  0  0  0  0  0
  152.4660  140.8234  159.6527 H   0  0  0  0  0  0  0  0  0  0  0  0
  1  2  1  0  0  0  0
  1 21  1  0  0  0  0
  1 22  1  0  0  0  0
  1 23  1  0  0  0  0
  2 20  1  0  0  0  0
  2  3  1  0  0  0  0
  2 44  1  0  0  0  0
  3  4  1  0  0  0  0
  3 24  1  0  0  0  0
  3 25  1  0  0  0  0
  4  5  1  0  0  0  0
  4 26  1  0  0  0  0
  4 27  1  0  0  0  0
  5  6  1  0  0  0  0
  5 19  1  0  0  0  0
  5 28  1  0  0  0  0
  6  7  1  0  0  0  0
  6 29  1  0  0  0  0
  7  8  2  0  0  0  0
  7  9  1  0  0  0  0
  9 10  1  0  0  0  0
  9 30  1  0  0  0  0
 10 18  1  0  0  0  0
 10 11  2  0  0  0  0
 11 12  1  0  0  0  0
 11 31  1  0  0  0  0
 12 13  2  0  0  0  0
 12 32  1  0  0  0  0
 13 14  1  0  0  0  0
 13 33  1  0  0  0  0
 14 15  1  0  0  0  0
 14 18  2  0  0  0  0
 15 16  1  0  0  0  0
 15 17  1  0  0  0  0
 16 34  1  0  0  0  0
 16 35  1  0  0  0  0
 16 36  1  0  0  0  0
 17 37  1  0  0  0  0
 17 38  1  0  0  0  0
 17 39  1  0  0  0  0
 18 45  1  0  0  0  0
 19 20  1  0  0  0  0
 19 40  1  0  0  0  0
 19 41  1  0  0  0  0
 20 42  1  0  0  0  0
 20 43  1  0  0  0  0
M  CHG  1   2   1
M  CHG  1  18   1
M  END
> <s_m_source_file>
AV-unprocessed.smi

> <i_m_source_file_index>
2547

> <i_lp_mmshare_version>
43012

> <i_f3d_flags>
0

> <s_epik_input>
W0NIM11OMVtDSDJdW0NIMl1bQ0hdKFtDSDJdW0NIMl0xKVtOSF1DKD1PKVtOSF1jMltjSF1bY0hdW2NIXWMobjIpTihbQ0gzXSlbQ0gzXQ==

> <s_epik_cmdline>
J2VwaWtfcHl0aG9uJywgJy1waCcsICc3LjAnLCAnLXRuJywgJzgnLCAnLW1hJywgJzIwMCcsICctbWV0YWxfYmluZGluZycsICctaW1hZScsICc8aW5maWxlLm1hZT4nLCAnLW9tYWUnLCAnPG91dGZpbGUubWFlPic=

> <r_lp_tautomer_probability>
0.999994

> <r_epik_Ionization_Penalty>
2.17028

> <r_epik_Ionization_Penalty_Charging>
2.10368

> <r_epik_Ionization_Penalty_Neutral>
0.0666017

> <r_epik_State_Penalty>
2.2357

> <r_epik_Charging_Adjusted_Penalty>
4.33938

> <i_epik_Tot_Q>
2

> <i_epik_Tot_abs_Q>
2

> <r_epik_Metal_State_Penalty>
2.25749

> <b_epik_Metal_Only>
0

> <s_lp_Force_Field>
OPLS_2005

> <r_lp_Energy>
27.0899

> <b_lp_Chiralities_Consistent>
1

> <s_lp_Variant>
AV-unprocessed.smi:2547-4

> <Gold.Version>
5.8.1

> <Gold.Id.Protein>
6NUR|6NUR_protein|mol2

> <Gold.PLP.Fitness>
47.0596

> <Gold.PLP.PLP>
-41.7228

> <Gold.PLP.part.hbond>
-2.0000

> <Gold.PLP.part.metal>
0.0000

> <Gold.PLP.part.buried>
-2.8796

> <Gold.PLP.part.nonpolar>
-37.1985

> <Gold.PLP.part.repulsive>
0.3486

> <Gold.PLP.ligand.clash>
0.0000

> <Gold.PLP.ligand.torsion>
0.6138

> <Gold.PLP.Chemscore.Hbond>
2.1802

> <Gold.PLP.Chemscore.CHOScore>
0.0000

> <Gold.PLP.Chemscore.Metal>
0.0000

> <Gold.Chemscore.Hbonds>
donor molecule, donor type, donor heavy atom, donor atom, acceptor molecule, acceptor atom, score
      L1  H     2    44       P1  7948  2.00
      P1  H  7989  7998       L1     8  0.07

> <Gold.PLP.Chemscore.Internal.Correction>
0.0240

> <Gold.Rescore>
     Score         DG    S(hbond)    S(metal)    S(lipo)     H(rot)  DE(clash)    DE(int)     intcor
     14.95     -16.06       1.02        0.00      83.13       1.00       0.25       0.86       ----

> <Gold.Chemscore.Fitness>
14.9494

> <Gold.Chemscore.DG>
-16.0606

> <Gold.Chemscore.ZeroCoef>
-5.4800

> <Gold.Chemscore.Hbond>
1.0222

> <Gold.Chemscore.Metal>
0.0000

> <Gold.Chemscore.Lipo>
83.1336

> <Gold.Chemscore.Internal_Hbond>
0.0000

> <Gold.Chemscore.DEClash>
0.2521

> <Gold.Chemscore.DEInternal>
0.8591

> <Gold.Chemscore.Rot>
1.0000

> <Gold.Chemscore.Internal.Correction>
   9.000000E+99

> <Gold.Chemscore.Hbonds>
donor molecule, donor type, donor heavy atom, donor atom, acceptor molecule, acceptor atom, score
      L1  H     2    44       P1  7948  0.74
      P1  H  7989  7998       L1     8  0.04

> <Gold.Chemscore.Hbond.Weighted>
-3.4140

> <Gold.Chemscore.Metal.Weighted>
-0.0000

> <Gold.Chemscore.Lipo.Weighted>
-9.7266

> <Gold.Chemscore.Internal_Hbond.Weighted>
0.0000

> <Gold.Chemscore.DEClash.Weighted>
0.2521

> <Gold.Chemscore.DEInternal.Weighted>
0.8591

> <Gold.Chemscore.Rot.Weighted>
2.5600

> <Gold.Chemscore.Internal.Correction.Weighted>
   9.000000E+99

> <Gold.Protein.RotatedTorsions>
[ 6907 6896 6895 6894 ] final  -38.90 input  -60.11 | X-H torsion
[ 7974 7965 7964 7962 ] final   -8.32 input  175.53 | X-H torsion
[ 8008 7997 7996 7995 ] final  155.32 input   59.86 | X-H torsion
[ 10167 10162 10161 10158 ] final -141.03 input  -65.29 | X-H torsion
[ 10718 10713 10712 10709 ] final   94.74 input   66.30 | X-H torsion
[ 10763 10752 10751 10750 ] final   53.88 input  -60.55 | X-H torsion
[ 11005 11000 10999 10996 ] final   23.76 input  -57.11 | X-H torsion

> <Gold.Protein.ActiveResidues>
 VAL166  LYS551  ARG553  GLY616  TRP617  ASP618  TYR619  PRO620  LYS621  CYS622 
 ASP623  PHE694  ASN695  SER759  ASP760  ASP761  ALA762  ILE779  LEU786  VAL792 
 PHE793  MET794  SER795  GLU796  ALA797  LYS798  CYS799  TRP800  GLU811  SER814 

> <Gold.Protein.RotatedAtoms>
  150.9968  134.9290  159.7930 H   0  0  0  0  0  0  0  0  0  0  0  0  # atno 6907 bound_to 6896
  152.5267  134.3207  159.9157 H   0  0  0  0  0  0  0  0  0  0  0  0  # atno 6908 bound_to 6896
  151.3213  133.3997  159.2689 H   0  0  0  0  0  0  0  0  0  0  0  0  # atno 6909 bound_to 6896
  146.2283  140.2450  142.8345 H   0  0  0  0  0  0  0  0  0  0  0  0  # atno 7974 bound_to 7965
  156.2484  140.1943  156.6783 H   0  0  0  0  0  0  0  0  0  0  0  0  # atno 8008 bound_to 7997
  154.6341  140.0592  156.9793 H   0  0  0  0  0  0  0  0  0  0  0  0  # atno 8009 bound_to 7997
  155.1664  140.3264  155.4404 H   0  0  0  0  0  0  0  0  0  0  0  0  # atno 8010 bound_to 7997
  139.8224  143.7556  152.2666 H   0  0  0  0  0  0  0  0  0  0  0  0  # atno 10167 bound_to 10162
  157.6945  131.0522  150.4233 H   0  0  0  0  0  0  0  0  0  0  0  0  # atno 10718 bound_to 10713
  152.9799  135.5764  154.4814 H   0  0  0  0  0  0  0  0  0  0  0  0  # atno 10763 bound_to 10752
  154.4362  135.2774  155.1881 H   0  0  0  0  0  0  0  0  0  0  0  0  # atno 10764 bound_to 10752
  154.3568  135.6197  153.5724 H   0  0  0  0  0  0  0  0  0  0  0  0  # atno 10765 bound_to 10752
  140.3661  134.2073  155.7669 H   0  0  0  0  0  0  0  0  0  0  0  0  # atno 11005 bound_to 11000
  144.9455  140.8123  143.5604 LP  0  0  0  0  0  0  0  0  0  0  0  0  # atno 17320 bound_to 7965
  145.2406  139.2074  143.4994 LP  0  0  0  0  0  0  0  0  0  0  0  0  # atno 17321 bound_to 7965
  139.7738  144.7468  151.0186 LP  0  0  0  0  0  0  0  0  0  0  0  0  # atno 17342 bound_to 10162
  140.7812  143.4616  151.0270 LP  0  0  0  0  0  0  0  0  0  0  0  0  # atno 17343 bound_to 10162
  156.4606  130.4031  149.6579 LP  0  0  0  0  0  0  0  0  0  0  0  0  # atno 17370 bound_to 10713
  156.3695  130.7523  151.2505 LP  0  0  0  0  0  0  0  0  0  0  0  0  # atno 17371 bound_to 10713
  141.1969  133.8071  157.0651 LP  0  0  0  0  0  0  0  0  0  0  0  0  # atno 17394 bound_to 11000
  140.0588  134.9766  157.1269 LP  0  0  0  0  0  0  0  0  0  0  0  0  # atno 17395 bound_to 11000

$$$$
