AV-unprocessed.smi:288|AV-procd|sdf|2209|dock2
  -GOLD-   2262022 43D 1   1.00000     0.00000
 Structure written by MMmdl.
 33 34  0  0  0  0  0  0  0  0  1 V2000
  151.0217  139.8310  153.9725 O   0  0  0  0  0  0  0  0  0  0  0  0
  151.2000  140.1355  155.1532 C   0  0  0  0  0  0  0  0  0  0  0  0
  152.2861  139.6004  155.9658 C   0  0  0  0  0  0  0  0  0  0  0  0
  153.1460  138.7193  155.4267 F   0  0  0  0  0  0  0  0  0  0  0  0
  152.4502  139.9793  157.2518 C   0  0  0  0  0  0  0  0  0  0  0  0
  151.6199  140.8921  157.8858 N   0  0  0  0  0  0  0  0  0  0  0  0
  151.7925  141.2998  159.3361 C   0  0  2  0  0  0  0  0  0  0  0  0
  152.0917  142.7828  159.5750 C   0  0  0  0  0  0  0  0  0  0  0  0
  152.7162  142.7040  160.9483 C   0  0  0  0  0  0  0  0  0  0  0  0
  153.5554  141.4328  160.8255 C   0  0  0  0  0  0  0  0  0  0  0  0
  152.8949  140.6181  159.8576 O   0  0  0  0  0  0  0  0  0  0  0  0
  150.5509  141.4726  157.1658 C   0  0  0  0  0  0  0  0  0  0  0  0
  149.8210  142.3162  157.6920 O   0  0  0  0  0  0  0  0  0  0  0  0
  150.3629  141.0576  155.8268 N   0  0  0  0  0  0  0  0  0  0  0  0
  149.2606  141.6412  155.0794 C   0  0  0  0  0  0  0  0  0  0  0  0
  148.1753  140.6133  154.6879 C   0  0  2  0  0  0  0  0  0  0  0  0
  148.0028  140.6538  153.2844 O   0  0  0  0  0  0  0  0  0  0  0  0
  146.8134  140.9186  155.3422 C   0  0  0  0  0  0  0  0  0  0  0  0
  146.9819  141.2631  156.6191 F   0  0  0  0  0  0  0  0  0  0  0  0
  146.2400  141.9455  154.7145 F   0  0  0  0  0  0  0  0  0  0  0  0
  145.9993  139.8647  155.2665 F   0  0  0  0  0  0  0  0  0  0  0  0
  153.2881  139.5468  157.7734 H   0  0  0  0  0  0  0  0  0  0  0  0
  150.8762  140.9842  159.8394 H   0  0  0  0  0  0  0  0  0  0  0  0
  152.8436  143.1509  158.8769 H   0  0  0  0  0  0  0  0  0  0  0  0
  151.1906  143.3941  159.5216 H   0  0  0  0  0  0  0  0  0  0  0  0
  153.3085  143.5829  161.2039 H   0  0  0  0  0  0  0  0  0  0  0  0
  151.9425  142.5770  161.7071 H   0  0  0  0  0  0  0  0  0  0  0  0
  154.5554  141.6658  160.4575 H   0  0  0  0  0  0  0  0  0  0  0  0
  153.6578  140.9133  161.7785 H   0  0  0  0  0  0  0  0  0  0  0  0
  148.8481  142.4318  155.7082 H   0  0  0  0  0  0  0  0  0  0  0  0
  149.6624  142.1770  154.2175 H   0  0  0  0  0  0  0  0  0  0  0  0
  148.4807  139.6054  154.9720 H   0  0  0  0  0  0  0  0  0  0  0  0
  148.8540  140.6117  152.8760 H   0  0  0  0  0  0  0  0  0  0  0  0
  1  2  2  0  0  0  0
  2 14  1  0  0  0  0
  2  3  1  0  0  0  0
  3  4  1  0  0  0  0
  3  5  2  0  0  0  0
  5  6  1  0  0  0  0
  5 22  1  0  0  0  0
  6  7  1  0  0  0  0
  6 12  1  0  0  0  0
  7 11  1  0  0  0  0
  7  8  1  0  0  0  0
  7 23  1  0  0  0  0
  8  9  1  0  0  0  0
  8 24  1  0  0  0  0
  8 25  1  0  0  0  0
  9 10  1  0  0  0  0
  9 26  1  0  0  0  0
  9 27  1  0  0  0  0
 10 11  1  0  0  0  0
 10 28  1  0  0  0  0
 10 29  1  0  0  0  0
 12 13  2  0  0  0  0
 12 14  1  0  0  0  0
 14 15  1  0  0  0  0
 15 16  1  0  0  0  0
 15 30  1  0  0  0  0
 15 31  1  0  0  0  0
 16 17  1  0  0  0  0
 16 18  1  0  0  0  0
 16 32  1  0  0  0  0
 17 33  1  0  0  0  0
 18 19  1  0  0  0  0
 18 20  1  0  0  0  0
 18 21  1  0  0  0  0
M  END
> <s_m_source_file>
AV-unprocessed.smi

> <i_m_source_file_index>
288

> <i_lp_mmshare_version>
43012

> <i_f3d_flags>
0

> <s_epik_input>
TzFbQ0gyXVtDSDJdW0NIMl1bQ0BIXTFuKFtjSF1jKEYpYzI9TyljKD1PKW4yW0NIMl1bQ0BIXShbT0hdKUMoRikoRilG

> <s_epik_cmdline>
J2VwaWtfcHl0aG9uJywgJy1waCcsICc3LjAnLCAnLXRuJywgJzgnLCAnLW1hJywgJzIwMCcsICctbWV0YWxfYmluZGluZycsICctaW1hZScsICc8aW5maWxlLm1hZT4nLCAnLW9tYWUnLCAnPG91dGZpbGUubWFlPic=

> <r_lp_tautomer_probability>
1

> <r_epik_Ionization_Penalty>
0.000551119

> <r_epik_Ionization_Penalty_Charging>
2.51184e-08

> <r_epik_Ionization_Penalty_Neutral>
0.000551094

> <r_epik_State_Penalty>
0.000345115

> <r_epik_Charging_Adjusted_Penalty>
0.00034514

> <i_epik_Tot_Q>
0

> <i_epik_Tot_abs_Q>
0

> <r_epik_Metal_State_Penalty>
-0

> <b_epik_Metal_Only>
0

> <s_epik_Chemistry_Notes>
This compound contains an acetal/aminal-like group ( X-CH(R)-Y where X, Y are N, S, or O) that may be acid/base labile, releasing an aldehyde.

> <s_lp_Force_Field>
OPLS_2005

> <r_lp_Energy>
36.863

> <b_lp_Chiralities_Consistent>
1

> <s_lp_Variant>
AV-unprocessed.smi:288-1

> <Gold.Version>
5.8.1

> <Gold.Id.Protein>
6NUR|6NUR_protein|mol2

> <Gold.PLP.Fitness>
42.4777

> <Gold.PLP.PLP>
-41.3273

> <Gold.PLP.part.hbond>
-2.0000

> <Gold.PLP.part.metal>
0.0000

> <Gold.PLP.part.buried>
-2.7092

> <Gold.PLP.part.nonpolar>
-37.9449

> <Gold.PLP.part.repulsive>
2.0553

> <Gold.PLP.ligand.clash>
0.0000

> <Gold.PLP.ligand.torsion>
1.1586

> <Gold.PLP.Chemscore.Hbond>
1.1520

> <Gold.PLP.Chemscore.CHOScore>
0.0000

> <Gold.PLP.Chemscore.Metal>
0.0000

> <Gold.Chemscore.Hbonds>
donor molecule, donor type, donor heavy atom, donor atom, acceptor molecule, acceptor atom, score
      L1  H    17    33       P1  7957  0.75
      P1  H  7989  7998       L1     1  0.31

> <Gold.PLP.Chemscore.Internal.Correction>
0.0116

> <Gold.Rescore>
     Score         DG    S(hbond)    S(metal)    S(lipo)     H(rot)  DE(clash)    DE(int)     intcor
      7.07      -9.80       0.97        0.00      65.45       2.57       1.71       1.02       ----

> <Gold.Chemscore.Fitness>
7.0680

> <Gold.Chemscore.DG>
-9.8005

> <Gold.Chemscore.ZeroCoef>
-5.4800

> <Gold.Chemscore.Hbond>
0.9673

> <Gold.Chemscore.Metal>
0.0000

> <Gold.Chemscore.Lipo>
65.4504

> <Gold.Chemscore.Internal_Hbond>
0.0000

> <Gold.Chemscore.DEClash>
1.7148

> <Gold.Chemscore.DEInternal>
1.0176

> <Gold.Chemscore.Rot>
2.5656

> <Gold.Chemscore.Internal.Correction>
   9.000000E+99

> <Gold.Chemscore.Hbonds>
donor molecule, donor type, donor heavy atom, donor atom, acceptor molecule, acceptor atom, score
      L1  H    17    33       P1  7957  0.73
      P1  H  7989  7998       L1     1  0.05

> <Gold.Chemscore.Hbond.Weighted>
-3.2307

> <Gold.Chemscore.Metal.Weighted>
-0.0000

> <Gold.Chemscore.Lipo.Weighted>
-7.6577

> <Gold.Chemscore.Internal_Hbond.Weighted>
0.0000

> <Gold.Chemscore.DEClash.Weighted>
1.7148

> <Gold.Chemscore.DEInternal.Weighted>
1.0176

> <Gold.Chemscore.Rot.Weighted>
6.5679

> <Gold.Chemscore.Internal.Correction.Weighted>
   9.000000E+99

> <Gold.Protein.RotatedTorsions>
[ 6907 6896 6895 6894 ] final  -86.77 input  -60.11 | X-H torsion
[ 7974 7965 7964 7962 ] final   70.58 input  175.53 | X-H torsion
[ 8008 7997 7996 7995 ] final -170.12 input   59.86 | X-H torsion
[ 10167 10162 10161 10158 ] final    1.83 input  -65.29 | X-H torsion
[ 10718 10713 10712 10709 ] final  -89.00 input   66.30 | X-H torsion
[ 10763 10752 10751 10750 ] final  -77.96 input  -60.55 | X-H torsion
[ 11005 11000 10999 10996 ] final    6.14 input  -57.11 | X-H torsion

> <Gold.Protein.ActiveResidues>
 VAL166  LYS551  ARG553  GLY616  TRP617  ASP618  TYR619  PRO620  LYS621  CYS622 
 ASP623  PHE694  ASN695  SER759  ASP760  ASP761  ALA762  ILE779  LEU786  VAL792 
 PHE793  MET794  SER795  GLU796  ALA797  LYS798  CYS799  TRP800  GLU811  SER814 

> <Gold.Protein.RotatedAtoms>
  150.6866  134.2999  159.4701 H   0  0  0  0  0  0  0  0  0  0  0  0  # atno 6907 bound_to 6896
  152.0895  134.9414  160.0581 H   0  0  0  0  0  0  0  0  0  0  0  0  # atno 6908 bound_to 6896
  152.0735  133.4083  159.4506 H   0  0  0  0  0  0  0  0  0  0  0  0  # atno 6909 bound_to 6896
  145.7764  139.2867  143.1291 H   0  0  0  0  0  0  0  0  0  0  0  0  # atno 7974 bound_to 7965
  155.9141  140.1062  157.1257 H   0  0  0  0  0  0  0  0  0  0  0  0  # atno 8008 bound_to 7997
  154.4044  140.1268  156.4660 H   0  0  0  0  0  0  0  0  0  0  0  0  # atno 8009 bound_to 7997
  155.7274  140.3469  155.5046 H   0  0  0  0  0  0  0  0  0  0  0  0  # atno 8010 bound_to 7997
  140.6664  143.7167  150.7836 H   0  0  0  0  0  0  0  0  0  0  0  0  # atno 10167 bound_to 10162
  155.9984  130.4856  150.5105 H   0  0  0  0  0  0  0  0  0  0  0  0  # atno 10718 bound_to 10713
  154.5197  135.5746  153.6671 H   0  0  0  0  0  0  0  0  0  0  0  0  # atno 10763 bound_to 10752
  152.9914  135.6178  154.2771 H   0  0  0  0  0  0  0  0  0  0  0  0  # atno 10764 bound_to 10752
  154.2691  135.2854  155.2725 H   0  0  0  0  0  0  0  0  0  0  0  0  # atno 10765 bound_to 10752
  140.5628  134.0176  155.7978 H   0  0  0  0  0  0  0  0  0  0  0  0  # atno 11005 bound_to 11000
  146.0118  140.8428  142.9967 LP  0  0  0  0  0  0  0  0  0  0  0  0  # atno 17320 bound_to 7965
  144.6804  140.2501  143.7332 LP  0  0  0  0  0  0  0  0  0  0  0  0  # atno 17321 bound_to 7965
  140.0845  143.4937  152.2512 LP  0  0  0  0  0  0  0  0  0  0  0  0  # atno 17342 bound_to 10162
  139.5915  144.7551  151.3390 LP  0  0  0  0  0  0  0  0  0  0  0  0  # atno 17343 bound_to 10162
  157.3078  131.0658  151.2022 LP  0  0  0  0  0  0  0  0  0  0  0  0  # atno 17370 bound_to 10713
  157.2979  130.6828  149.6148 LP  0  0  0  0  0  0  0  0  0  0  0  0  # atno 17371 bound_to 10713
  141.1104  133.9626  157.2920 LP  0  0  0  0  0  0  0  0  0  0  0  0  # atno 17394 bound_to 11000
  139.9399  135.0192  156.8676 LP  0  0  0  0  0  0  0  0  0  0  0  0  # atno 17395 bound_to 11000

$$$$
