AV-unprocessed.smi:3217|AV-procd|sdf|12289|dock5
  -GOLD-   2272018133D 1   1.00000     0.00000
 Structure written by MMmdl.
 34 35  0  0  0  0  0  0  0  0  1 V2000
  148.2700  141.1446  153.7732 C   0  0  0  0  0  0  0  0  0  0  0  0
  148.8594  140.7334  155.1313 C   0  0  2  0  0  0  0  0  0  0  0  0
  149.3341  141.9322  155.8192 N   0  0  0  0  0  0  0  0  0  0  0  0
  149.9382  141.9665  157.0157 C   0  0  0  0  0  0  0  0  0  0  0  0
  150.1555  140.9675  157.7004 O   0  0  0  0  0  0  0  0  0  0  0  0
  150.2480  143.2282  157.3607 N   0  0  0  0  0  0  0  0  0  0  0  0
  150.8894  143.6955  158.5400 C   0  0  0  0  0  0  0  0  0  0  0  0
  151.8089  142.8351  159.1744 C   0  0  0  0  0  0  0  0  0  0  0  0
  152.4494  143.2623  160.3530 C   0  0  0  0  0  0  0  0  0  0  0  0
  152.1364  144.5383  160.8597 C   0  0  0  0  0  0  0  0  0  0  0  0
  151.2480  145.3688  160.2746 N   0  0  0  0  0  0  0  0  0  0  0  0
  150.6387  144.9533  159.1431 C   0  0  0  0  0  0  0  0  0  0  0  0
  150.0229  139.7331  154.9890 C   0  0  2  0  0  0  0  0  0  0  0  0
  150.0989  138.6763  156.0932 C   0  0  0  0  0  0  0  0  0  0  0  0
  151.5762  138.3165  156.1570 C   0  0  0  0  0  0  0  0  0  0  0  0
  152.2604  139.3918  155.3102 C   0  0  0  0  0  0  0  0  0  0  0  0
  151.2718  140.3939  155.1285 O   0  0  0  0  0  0  0  0  0  0  0  0
  147.8657  140.2850  153.2382 H   0  0  0  0  0  0  0  0  0  0  0  0
  149.0241  141.6088  153.1368 H   0  0  0  0  0  0  0  0  0  0  0  0
  147.4559  141.8589  153.9003 H   0  0  0  0  0  0  0  0  0  0  0  0
  148.0659  140.2548  155.7078 H   0  0  0  0  0  0  0  0  0  0  0  0
  149.1992  142.8083  155.3364 H   0  0  0  0  0  0  0  0  0  0  0  0
  149.9389  143.9477  156.7239 H   0  0  0  0  0  0  0  0  0  0  0  0
  152.0260  141.8599  158.7632 H   0  0  0  0  0  0  0  0  0  0  0  0
  153.1625  142.6271  160.8572 H   0  0  0  0  0  0  0  0  0  0  0  0
  152.6080  144.8988  161.7620 H   0  0  0  0  0  0  0  0  0  0  0  0
  149.9225  145.6511  158.7386 H   0  0  0  0  0  0  0  0  0  0  0  0
  149.9909  139.2457  154.0122 H   0  0  0  0  0  0  0  0  0  0  0  0
  149.7895  139.1033  157.0482 H   0  0  0  0  0  0  0  0  0  0  0  0
  149.4635  137.8137  155.8903 H   0  0  0  0  0  0  0  0  0  0  0  0
  151.9312  138.3357  157.1879 H   0  0  0  0  0  0  0  0  0  0  0  0
  151.7705  137.3224  155.7531 H   0  0  0  0  0  0  0  0  0  0  0  0
  153.1534  139.7974  155.7861 H   0  0  0  0  0  0  0  0  0  0  0  0
  152.5452  138.9902  154.3366 H   0  0  0  0  0  0  0  0  0  0  0  0
  1  2  1  0  0  0  0
  1 18  1  0  0  0  0
  1 19  1  0  0  0  0
  1 20  1  0  0  0  0
  2  3  1  0  0  0  0
  2 13  1  0  0  0  0
  2 21  1  0  0  0  0
  3  4  1  0  0  0  0
  3 22  1  0  0  0  0
  4  5  2  0  0  0  0
  4  6  1  0  0  0  0
  6  7  1  0  0  0  0
  6 23  1  0  0  0  0
  7 12  1  0  0  0  0
  7  8  2  0  0  0  0
  8  9  1  0  0  0  0
  8 24  1  0  0  0  0
  9 10  2  0  0  0  0
  9 25  1  0  0  0  0
 10 11  1  0  0  0  0
 10 26  1  0  0  0  0
 11 12  2  0  0  0  0
 12 27  1  0  0  0  0
 13 17  1  0  0  0  0
 13 14  1  0  0  0  0
 13 28  1  0  0  0  0
 14 15  1  0  0  0  0
 14 29  1  0  0  0  0
 14 30  1  0  0  0  0
 15 16  1  0  0  0  0
 15 31  1  0  0  0  0
 15 32  1  0  0  0  0
 16 17  1  0  0  0  0
 16 33  1  0  0  0  0
 16 34  1  0  0  0  0
M  END
> <s_m_source_file>
AV-unprocessed.smi

> <i_m_source_file_index>
3217

> <i_lp_mmshare_version>
43012

> <i_f3d_flags>
0

> <s_epik_input>
TzFbQ0gyXVtDSDJdW0NIMl1bQ0BIXTFbQ0BIXShbQ0gzXSlbTkhdQyg9TylbTkhdYzJbY0hdW2NIXVtjSF1uW2NIXTI=

> <s_epik_cmdline>
J2VwaWtfcHl0aG9uJywgJy1waCcsICc3LjAnLCAnLXRuJywgJzgnLCAnLW1hJywgJzIwMCcsICctbWV0YWxfYmluZGluZycsICctaW1hZScsICc8aW5maWxlLm1hZT4nLCAnLW9tYWUnLCAnPG91dGZpbGUubWFlPic=

> <r_epik_Ionization_Penalty>
0.00475451

> <r_epik_Ionization_Penalty_Charging>
0

> <r_epik_Ionization_Penalty_Neutral>
0.00475451

> <r_epik_State_Penalty>
0.00341814

> <r_epik_Charging_Adjusted_Penalty>
0.00341814

> <i_epik_Tot_Q>
0

> <i_epik_Tot_abs_Q>
0

> <r_epik_Metal_State_Penalty>
-0

> <b_epik_Metal_Only>
0

> <s_lp_Force_Field>
OPLS_2005

> <r_lp_Energy>
20.3997

> <b_lp_Chiralities_Consistent>
1

> <s_lp_Variant>
AV-unprocessed.smi:3217-1

> <Gold.Version>
5.8.1

> <Gold.Id.Protein>
6NUR|6NUR_protein|mol2

> <Gold.PLP.Fitness>
41.4871

> <Gold.PLP.PLP>
-32.4432

> <Gold.PLP.part.hbond>
-3.0000

> <Gold.PLP.part.metal>
0.0000

> <Gold.PLP.part.buried>
-4.4518

> <Gold.PLP.part.nonpolar>
-25.3470

> <Gold.PLP.part.repulsive>
0.3872

> <Gold.PLP.ligand.clash>
0.0000

> <Gold.PLP.ligand.torsion>
1.2529

> <Gold.PLP.Chemscore.Hbond>
2.8480

> <Gold.PLP.Chemscore.CHOScore>
0.9950

> <Gold.PLP.Chemscore.Metal>
0.0000

> <Gold.Chemscore.Hbonds>
donor molecule, donor type, donor heavy atom, donor atom, acceptor molecule, acceptor atom, score
      L1  H     3    22       P1  8028  0.85
      L1  H     6    23       P1  8028  1.00
      P1  H  7989  7998       L1    17  1.00
      L1  C    12    27       P1  8029  1.00

> <Gold.PLP.Chemscore.Internal.Correction>
0.0208

> <Gold.Rescore>
     Score         DG    S(hbond)    S(metal)    S(lipo)     H(rot)  DE(clash)    DE(int)     intcor
     13.72     -18.68       1.83        0.00      87.19       1.22       0.00       4.95       ----

> <Gold.Chemscore.Fitness>
13.7188

> <Gold.Chemscore.DG>
-18.6770

> <Gold.Chemscore.ZeroCoef>
-5.4800

> <Gold.Chemscore.Hbond>
1.8347

> <Gold.Chemscore.Metal>
0.0000

> <Gold.Chemscore.Lipo>
87.1949

> <Gold.Chemscore.Internal_Hbond>
0.0000

> <Gold.Chemscore.DEClash>
0.0038

> <Gold.Chemscore.DEInternal>
4.9545

> <Gold.Chemscore.Rot>
1.2236

> <Gold.Chemscore.Internal.Correction>
   9.000000E+99

> <Gold.Chemscore.Hbonds>
donor molecule, donor type, donor heavy atom, donor atom, acceptor molecule, acceptor atom, score
      L1  H     3    22       P1  8028  0.84
      L1  H     6    23       P1  8028  0.98
      P1  H  7989  7998       L1    17  0.10

> <Gold.Chemscore.Hbond.Weighted>
-6.1278

> <Gold.Chemscore.Metal.Weighted>
-0.0000

> <Gold.Chemscore.Lipo.Weighted>
-10.2018

> <Gold.Chemscore.Internal_Hbond.Weighted>
0.0000

> <Gold.Chemscore.DEClash.Weighted>
0.0038

> <Gold.Chemscore.DEInternal.Weighted>
4.9545

> <Gold.Chemscore.Rot.Weighted>
3.1325

> <Gold.Chemscore.Internal.Correction.Weighted>
   9.000000E+99

> <Gold.Protein.RotatedTorsions>
[ 6907 6896 6895 6894 ] final -162.19 input  -60.11 | X-H torsion
[ 7974 7965 7964 7962 ] final -157.26 input  175.53 | X-H torsion
[ 8008 7997 7996 7995 ] final   -4.50 input   59.86 | X-H torsion
[ 10167 10162 10161 10158 ] final -145.64 input  -65.29 | X-H torsion
[ 10718 10713 10712 10709 ] final   25.44 input   66.30 | X-H torsion
[ 10763 10752 10751 10750 ] final  -65.37 input  -60.55 | X-H torsion
[ 11005 11000 10999 10996 ] final   74.87 input  -57.11 | X-H torsion

> <Gold.Protein.ActiveResidues>
 VAL166  LYS551  ARG553  GLY616  TRP617  ASP618  TYR619  PRO620  LYS621  CYS622 
 ASP623  PHE694  ASN695  SER759  ASP760  ASP761  ALA762  ILE779  LEU786  VAL792 
 PHE793  MET794  SER795  GLU796  ALA797  LYS798  CYS799  TRP800  GLU811  SER814 

> <Gold.Protein.RotatedAtoms>
  151.3765  133.3836  159.2705 H   0  0  0  0  0  0  0  0  0  0  0  0  # atno 6907 bound_to 6896
  150.9610  134.8999  159.7741 H   0  0  0  0  0  0  0  0  0  0  0  0  # atno 6908 bound_to 6896
  152.5149  134.3724  159.9375 H   0  0  0  0  0  0  0  0  0  0  0  0  # atno 6909 bound_to 6896
  144.7556  140.3993  143.6015 H   0  0  0  0  0  0  0  0  0  0  0  0  # atno 7974 bound_to 7965
  154.6137  140.2482  155.7636 H   0  0  0  0  0  0  0  0  0  0  0  0  # atno 8008 bound_to 7997
  156.2386  140.2941  156.0330 H   0  0  0  0  0  0  0  0  0  0  0  0  # atno 8009 bound_to 7997
  155.2010  140.0394  157.2908 H   0  0  0  0  0  0  0  0  0  0  0  0  # atno 8010 bound_to 7997
  139.7786  143.8133  152.2635 H   0  0  0  0  0  0  0  0  0  0  0  0  # atno 10167 bound_to 10162
  157.1933  130.6856  149.6159 H   0  0  0  0  0  0  0  0  0  0  0  0  # atno 10718 bound_to 10713
  154.3440  135.6150  153.5610 H   0  0  0  0  0  0  0  0  0  0  0  0  # atno 10763 bound_to 10752
  152.9802  135.5776  154.4820 H   0  0  0  0  0  0  0  0  0  0  0  0  # atno 10764 bound_to 10752
  154.4529  135.2853  155.1745 H   0  0  0  0  0  0  0  0  0  0  0  0  # atno 10765 bound_to 10752
  139.9370  134.7469  156.1200 H   0  0  0  0  0  0  0  0  0  0  0  0  # atno 11005 bound_to 11000
  145.6791  139.1615  143.2711 LP  0  0  0  0  0  0  0  0  0  0  0  0  # atno 17320 bound_to 7965
  146.1561  140.6855  142.9299 LP  0  0  0  0  0  0  0  0  0  0  0  0  # atno 17321 bound_to 7965
  139.8189  144.7304  150.9598 LP  0  0  0  0  0  0  0  0  0  0  0  0  # atno 17342 bound_to 10162
  140.7817  143.4178  151.0889 LP  0  0  0  0  0  0  0  0  0  0  0  0  # atno 17343 bound_to 10162
  155.9709  130.4607  150.6083 LP  0  0  0  0  0  0  0  0  0  0  0  0  # atno 17370 bound_to 10713
  157.3839  131.0785  151.1453 LP  0  0  0  0  0  0  0  0  0  0  0  0  # atno 17371 bound_to 10713
  141.0989  133.6685  156.2708 LP  0  0  0  0  0  0  0  0  0  0  0  0  # atno 17394 bound_to 11000
  140.6049  134.5518  157.5524 LP  0  0  0  0  0  0  0  0  0  0  0  0  # atno 17395 bound_to 11000

$$$$
