AV-unprocessed.smi:1040|AV-procd|sdf|4527|dock7
  -GOLD-   22720 2543D 1   1.00000     0.00000
 Structure written by MMmdl.
 55 56  0  0  0  0  0  0  0  0  2 V2000
  151.4733  137.8084  155.2604 C   0  0  0  0  0  0  0  0  0  0  0  0
  150.4093  138.2822  154.2567 C   0  0  1  0  0  0  0  0  0  0  0  0
  149.3675  137.2702  154.0954 N   0  0  0  0  0  0  0  0  0  0  0  0
  148.6519  136.7123  155.0814 C   0  0  0  0  0  0  0  0  0  0  0  0
  148.7583  137.0246  156.2672 O   0  0  0  0  0  0  0  0  0  0  0  0
  147.8328  135.7628  154.6017 N   0  0  0  0  0  0  0  0  0  0  0  0
  146.9632  134.9024  155.3292 C   0  0  0  0  0  0  0  0  0  0  0  0
  147.0803  134.7192  156.7304 C   0  0  0  0  0  0  0  0  0  0  0  0
  146.1896  133.8565  157.3986 C   0  0  0  0  0  0  0  0  0  0  0  0
  145.1932  133.1949  156.6580 C   0  0  0  0  0  0  0  0  0  0  0  0
  145.0996  133.4010  155.3278 N   0  3  0  0  0  0  0  0  0  0  0  0
  145.9262  134.2230  154.6353 C   0  0  0  0  0  0  0  0  0  0  0  0
  145.7253  134.3708  153.2491 N   0  0  0  0  0  0  0  0  0  0  0  0
  146.0199  133.2098  152.4101 C   0  0  0  0  0  0  0  0  0  0  0  0
  146.0924  133.6160  150.9281 C   0  0  0  0  0  0  0  0  0  0  0  0
  144.8123  134.3489  150.4944 C   0  0  0  0  0  0  0  0  0  0  0  0
  144.5335  135.5371  151.4296 C   0  0  0  0  0  0  0  0  0  0  0  0
  144.4995  135.0859  152.8998 C   0  0  0  0  0  0  0  0  0  0  0  0
  149.7942  139.6394  154.6185 C   0  0  0  0  0  0  0  0  0  0  0  0
  150.5203  140.6115  154.8319 O   0  0  0  0  0  0  0  0  0  0  0  0
  148.4507  139.6849  154.6667 N   0  0  0  0  0  0  0  0  0  0  0  0
  147.5876  140.8301  154.9808 C   0  0  0  0  0  0  0  0  0  0  0  0
  147.9178  141.2568  156.4220 C   0  0  0  0  0  0  0  0  0  0  0  0
  146.0996  140.4271  154.9058 C   0  0  0  0  0  0  0  0  0  0  0  0
  147.8813  142.0101  154.0301 C   0  0  0  0  0  0  0  0  0  0  0  0
  152.2657  138.5493  155.3739 H   0  0  0  0  0  0  0  0  0  0  0  0
  151.9410  136.8796  154.9329 H   0  0  0  0  0  0  0  0  0  0  0  0
  151.0396  137.6334  156.2458 H   0  0  0  0  0  0  0  0  0  0  0  0
  150.8998  138.4125  153.2896 H   0  0  0  0  0  0  0  0  0  0  0  0
  149.2096  136.9464  153.1521 H   0  0  0  0  0  0  0  0  0  0  0  0
  147.9265  135.5556  153.6182 H   0  0  0  0  0  0  0  0  0  0  0  0
  147.8340  135.2356  157.3054 H   0  0  0  0  0  0  0  0  0  0  0  0
  146.2690  133.7072  158.4656 H   0  0  0  0  0  0  0  0  0  0  0  0
  144.4684  132.5179  157.0869 H   0  0  0  0  0  0  0  0  0  0  0  0
  146.9664  132.7615  152.7150 H   0  0  0  0  0  0  0  0  0  0  0  0
  145.2445  132.4549  152.5490 H   0  0  0  0  0  0  0  0  0  0  0  0
  146.9554  134.2644  150.7697 H   0  0  0  0  0  0  0  0  0  0  0  0
  146.2491  132.7342  150.3063 H   0  0  0  0  0  0  0  0  0  0  0  0
  144.9057  134.6939  149.4642 H   0  0  0  0  0  0  0  0  0  0  0  0
  143.9684  133.6584  150.5171 H   0  0  0  0  0  0  0  0  0  0  0  0
  145.3073  136.2949  151.2988 H   0  0  0  0  0  0  0  0  0  0  0  0
  143.5883  136.0099  151.1618 H   0  0  0  0  0  0  0  0  0  0  0  0
  143.6480  134.4248  153.0655 H   0  0  0  0  0  0  0  0  0  0  0  0
  144.3538  135.9513  153.5467 H   0  0  0  0  0  0  0  0  0  0  0  0
  147.9659  138.8230  154.4625 H   0  0  0  0  0  0  0  0  0  0  0  0
  147.3130  142.1098  156.7319 H   0  0  0  0  0  0  0  0  0  0  0  0
  148.9650  141.5450  156.5224 H   0  0  0  0  0  0  0  0  0  0  0  0
  147.7298  140.4487  157.1302 H   0  0  0  0  0  0  0  0  0  0  0  0
  145.8873  139.5701  155.5461 H   0  0  0  0  0  0  0  0  0  0  0  0
  145.7949  140.1649  153.8927 H   0  0  0  0  0  0  0  0  0  0  0  0
  145.4548  141.2446  155.2300 H   0  0  0  0  0  0  0  0  0  0  0  0
  147.3118  142.8948  154.3166 H   0  0  0  0  0  0  0  0  0  0  0  0
  147.6168  141.7830  152.9974 H   0  0  0  0  0  0  0  0  0  0  0  0
  148.9377  142.2809  154.0478 H   0  0  0  0  0  0  0  0  0  0  0  0
  144.3623  132.9156  154.8166 H   0  0  0  0  0  0  0  0  0  0  0  0
  1  2  1  0  0  0  0
  1 26  1  0  0  0  0
  1 27  1  0  0  0  0
  1 28  1  0  0  0  0
  2  3  1  0  0  0  0
  2 19  1  0  0  0  0
  2 29  1  0  0  0  0
  3  4  1  0  0  0  0
  3 30  1  0  0  0  0
  4  5  2  0  0  0  0
  4  6  1  0  0  0  0
  6  7  1  0  0  0  0
  6 31  1  0  0  0  0
  7 12  1  0  0  0  0
  7  8  2  0  0  0  0
  8  9  1  0  0  0  0
  8 32  1  0  0  0  0
  9 10  2  0  0  0  0
  9 33  1  0  0  0  0
 10 11  1  0  0  0  0
 10 34  1  0  0  0  0
 11 12  2  0  0  0  0
 11 55  1  0  0  0  0
 12 13  1  0  0  0  0
 13 18  1  0  0  0  0
 13 14  1  0  0  0  0
 14 15  1  0  0  0  0
 14 35  1  0  0  0  0
 14 36  1  0  0  0  0
 15 16  1  0  0  0  0
 15 37  1  0  0  0  0
 15 38  1  0  0  0  0
 16 17  1  0  0  0  0
 16 39  1  0  0  0  0
 16 40  1  0  0  0  0
 17 18  1  0  0  0  0
 17 41  1  0  0  0  0
 17 42  1  0  0  0  0
 18 43  1  0  0  0  0
 18 44  1  0  0  0  0
 19 20  2  0  0  0  0
 19 21  1  0  0  0  0
 21 22  1  0  0  0  0
 21 45  1  0  0  0  0
 22 23  1  0  0  0  0
 22 24  1  0  0  0  0
 22 25  1  0  0  0  0
 23 46  1  0  0  0  0
 23 47  1  0  0  0  0
 23 48  1  0  0  0  0
 24 49  1  0  0  0  0
 24 50  1  0  0  0  0
 24 51  1  0  0  0  0
 25 52  1  0  0  0  0
 25 53  1  0  0  0  0
 25 54  1  0  0  0  0
M  CHG  1  11   1
M  END
> <s_m_source_file>
AV-unprocessed.smi

> <i_m_source_file_index>
1040

> <i_lp_mmshare_version>
43012

> <i_f3d_flags>
0

> <s_epik_input>
W0NIM11DKFtDSDNdKShbQ0gzXSlbTkhdQyg9TylbQ0BIXShbQ0gzXSlbTkhdQyg9TylbTkhdYzFbY0hdW2NIXVtjSF1uYzFOMltDSDJdW0NIMl1bQ0gyXVtDSDJdW0NIMl0y

> <s_epik_cmdline>
J2VwaWtfcHl0aG9uJywgJy1waCcsICc3LjAnLCAnLXRuJywgJzgnLCAnLW1hJywgJzIwMCcsICctbWV0YWxfYmluZGluZycsICctaW1hZScsICc8aW5maWxlLm1hZT4nLCAnLW9tYWUnLCAnPG91dGZpbGUubWFlPic=

> <r_lp_tautomer_probability>
0.999994

> <r_epik_Ionization_Penalty>
1.20468

> <r_epik_Ionization_Penalty_Charging>
1.20466

> <r_epik_Ionization_Penalty_Neutral>
1.88859e-05

> <r_epik_State_Penalty>
1.27057

> <r_epik_Charging_Adjusted_Penalty>
2.47523

> <i_epik_Tot_Q>
1

> <i_epik_Tot_abs_Q>
1

> <r_epik_Metal_State_Penalty>
1.34448

> <b_epik_Metal_Only>
0

> <s_lp_Force_Field>
OPLS_2005

> <r_lp_Energy>
27.4215

> <b_lp_Chiralities_Consistent>
1

> <s_lp_Variant>
AV-unprocessed.smi:1040-4

> <Gold.Version>
5.8.1

> <Gold.Id.Protein>
6NUR|6NUR_protein|mol2

> <Gold.PLP.Fitness>
41.0017

> <Gold.PLP.PLP>
-28.0103

> <Gold.PLP.part.hbond>
-3.7921

> <Gold.PLP.part.metal>
0.0000

> <Gold.PLP.part.buried>
-3.5666

> <Gold.PLP.part.nonpolar>
-20.8412

> <Gold.PLP.part.repulsive>
0.2381

> <Gold.PLP.ligand.clash>
0.0000

> <Gold.PLP.ligand.torsion>
0.3666

> <Gold.PLP.Chemscore.Hbond>
4.4494

> <Gold.PLP.Chemscore.CHOScore>
0.0000

> <Gold.PLP.Chemscore.Metal>
0.0000

> <Gold.Chemscore.Hbonds>
donor molecule, donor type, donor heavy atom, donor atom, acceptor molecule, acceptor atom, score
      L1  H     3    30       P1  7948  0.86
      L1  H     6    31       P1  7948  0.62
      L1  H    11    55       P1 10957  1.95
      P1  H  7989  7998       L1    20  0.94

> <Gold.PLP.Chemscore.Internal.Correction>
0.3764

> <Gold.Rescore>
     Score         DG    S(hbond)    S(metal)    S(lipo)     H(rot)  DE(clash)    DE(int)     intcor
     14.77     -18.50       3.07        0.00      59.63       1.64       0.01       3.72       ----

> <Gold.Chemscore.Fitness>
14.7705

> <Gold.Chemscore.DG>
-18.5047

> <Gold.Chemscore.ZeroCoef>
-5.4800

> <Gold.Chemscore.Hbond>
3.0699

> <Gold.Chemscore.Metal>
0.0000

> <Gold.Chemscore.Lipo>
59.6301

> <Gold.Chemscore.Internal_Hbond>
0.0000

> <Gold.Chemscore.DEClash>
0.0126

> <Gold.Chemscore.DEInternal>
3.7216

> <Gold.Chemscore.Rot>
1.6428

> <Gold.Chemscore.Internal.Correction>
   9.000000E+99

> <Gold.Chemscore.Hbonds>
donor molecule, donor type, donor heavy atom, donor atom, acceptor molecule, acceptor atom, score
      L1  H     3    30       P1  7948  0.83
      L1  H     6    31       P1  7948  0.61
      L1  H    11    55       P1 10957  0.86
      P1  H  7989  7998       L1    20  0.72

> <Gold.Chemscore.Hbond.Weighted>
-10.2535

> <Gold.Chemscore.Metal.Weighted>
-0.0000

> <Gold.Chemscore.Lipo.Weighted>
-6.9767

> <Gold.Chemscore.Internal_Hbond.Weighted>
0.0000

> <Gold.Chemscore.DEClash.Weighted>
0.0126

> <Gold.Chemscore.DEInternal.Weighted>
3.7216

> <Gold.Chemscore.Rot.Weighted>
4.2055

> <Gold.Chemscore.Internal.Correction.Weighted>
   9.000000E+99

> <Gold.Protein.RotatedTorsions>
[ 6907 6896 6895 6894 ] final  -86.54 input  -60.11 | X-H torsion
[ 7974 7965 7964 7962 ] final  108.47 input  175.53 | X-H torsion
[ 8008 7997 7996 7995 ] final  -13.70 input   59.86 | X-H torsion
[ 10167 10162 10161 10158 ] final   57.25 input  -65.29 | X-H torsion
[ 10718 10713 10712 10709 ] final  -76.38 input   66.30 | X-H torsion
[ 10763 10752 10751 10750 ] final  -35.47 input  -60.55 | X-H torsion
[ 11005 11000 10999 10996 ] final   50.27 input  -57.11 | X-H torsion

> <Gold.Protein.ActiveResidues>
 VAL166  LYS551  ARG553  GLY616  TRP617  ASP618  TYR619  PRO620  LYS621  CYS622 
 ASP623  PHE694  ASN695  SER759  ASP760  ASP761  ALA762  ILE779  LEU786  VAL792 
 PHE793  MET794  SER795  GLU796  ALA797  LYS798  CYS799  TRP800  GLU811  SER814 

> <Gold.Protein.RotatedAtoms>
  150.6867  134.3035  159.4715 H   0  0  0  0  0  0  0  0  0  0  0  0  # atno 6907 bound_to 6896
  152.0928  134.9393  160.0580 H   0  0  0  0  0  0  0  0  0  0  0  0  # atno 6908 bound_to 6896
  152.0702  133.4068  159.4493 H   0  0  0  0  0  0  0  0  0  0  0  0  # atno 6909 bound_to 6896
  145.2802  139.2635  143.3919 H   0  0  0  0  0  0  0  0  0  0  0  0  # atno 7974 bound_to 7965
  154.5271  140.2242  155.8871 H   0  0  0  0  0  0  0  0  0  0  0  0  # atno 8008 bound_to 7997
  156.1724  140.3119  155.8962 H   0  0  0  0  0  0  0  0  0  0  0  0  # atno 8009 bound_to 7997
  155.3530  140.0457  157.3037 H   0  0  0  0  0  0  0  0  0  0  0  0  # atno 8010 bound_to 7997
  140.2000  144.3997  150.6533 H   0  0  0  0  0  0  0  0  0  0  0  0  # atno 10167 bound_to 10162
  156.0177  130.4464  150.3185 H   0  0  0  0  0  0  0  0  0  0  0  0  # atno 10718 bound_to 10713
  153.8637  135.6837  153.4780 H   0  0  0  0  0  0  0  0  0  0  0  0  # atno 10763 bound_to 10752
  153.1327  135.4691  154.9372 H   0  0  0  0  0  0  0  0  0  0  0  0  # atno 10764 bound_to 10752
  154.7747  135.3249  154.8067 H   0  0  0  0  0  0  0  0  0  0  0  0  # atno 10765 bound_to 10752
  140.1031  134.5054  155.8744 H   0  0  0  0  0  0  0  0  0  0  0  0  # atno 11005 bound_to 11000
  146.3218  140.3268  142.8637 LP  0  0  0  0  0  0  0  0  0  0  0  0  # atno 17320 bound_to 7965
  144.9259  140.7921  143.5719 LP  0  0  0  0  0  0  0  0  0  0  0  0  # atno 17321 bound_to 7965
  140.6397  143.2201  151.6318 LP  0  0  0  0  0  0  0  0  0  0  0  0  # atno 17342 bound_to 10162
  139.5221  144.3173  152.0941 LP  0  0  0  0  0  0  0  0  0  0  0  0  # atno 17343 bound_to 10162
  157.1286  131.0265  151.2979 LP  0  0  0  0  0  0  0  0  0  0  0  0  # atno 17370 bound_to 10713
  157.4569  130.7631  149.7201 LP  0  0  0  0  0  0  0  0  0  0  0  0  # atno 17371 bound_to 10713
  141.2111  133.6702  156.6558 LP  0  0  0  0  0  0  0  0  0  0  0  0  # atno 17394 bound_to 11000
  140.3192  134.8022  157.4239 LP  0  0  0  0  0  0  0  0  0  0  0  0  # atno 17395 bound_to 11000

$$$$
