AV-unprocessed.smi:997|AV-procd|sdf|4348|dock9
  -GOLD-   22720 2243D 1   1.00000     0.00000
 Structure written by MMmdl.
 33 35  0  0  0  0  0  0  0  0  2 V2000
  151.0893  137.1526  154.2935 C   0  0  0  0  0  0  0  0  0  0  0  0
  150.6913  138.5225  154.7546 C   0  0  0  0  0  0  0  0  0  0  0  0
  149.7538  139.1696  154.1002 N   0  0  0  0  0  0  0  0  0  0  0  0
  149.5678  140.3466  154.7443 N   0  0  0  0  0  0  0  0  0  0  0  0
  148.5775  141.2762  154.2323 C   0  0  0  0  0  0  0  0  0  0  0  0
  147.4177  140.5387  153.5504 C   0  0  0  0  0  0  0  0  0  0  0  0
  146.3942  141.4536  153.2235 O   0  0  0  0  0  0  0  0  0  0  0  0
  150.3973  140.4910  155.8409 C   0  0  0  0  0  0  0  0  0  0  0  0
  150.4492  141.5506  156.6975 N   0  0  0  0  0  0  0  0  0  0  0  0
  151.3452  141.4238  157.6973 C   0  0  0  0  0  0  0  0  0  0  0  0
  151.4030  142.5861  158.6394 C   0  0  0  0  0  0  0  0  0  0  0  0
  152.5750  143.5429  158.6366 C   0  0  0  0  0  0  0  0  0  0  0  0
  152.3764  142.5990  159.7962 C   0  0  0  0  0  0  0  0  0  0  0  0
  152.1922  140.3077  157.8538 C   0  0  0  0  0  0  0  0  0  0  0  0
  152.1290  139.2303  156.9373 C   0  0  0  0  0  0  0  0  0  0  0  0
  153.0701  138.0688  157.1201 C   0  0  0  0  0  0  0  0  0  0  0  0
  152.8799  137.0108  156.4847 O   0  0  0  0  0  0  0  0  0  0  0  0
  154.0459  138.2077  157.8913 O   0  5  0  0  0  0  0  0  0  0  0  0
  151.1777  139.3002  155.8752 C   0  0  0  0  0  0  0  0  0  0  0  0
  151.0856  136.4407  155.1190 H   0  0  0  0  0  0  0  0  0  0  0  0
  152.0853  137.1588  153.8512 H   0  0  0  0  0  0  0  0  0  0  0  0
  150.4049  136.7660  153.5375 H   0  0  0  0  0  0  0  0  0  0  0  0
  148.2090  141.8927  155.0537 H   0  0  0  0  0  0  0  0  0  0  0  0
  149.0672  141.9507  153.5286 H   0  0  0  0  0  0  0  0  0  0  0  0
  147.7579  140.0462  152.6388 H   0  0  0  0  0  0  0  0  0  0  0  0
  147.0112  139.7688  154.2069 H   0  0  0  0  0  0  0  0  0  0  0  0
  145.6127  140.9664  153.0115 H   0  0  0  0  0  0  0  0  0  0  0  0
  150.4117  143.0029  158.8066 H   0  0  0  0  0  0  0  0  0  0  0  0
  153.4074  143.3368  157.9664 H   0  0  0  0  0  0  0  0  0  0  0  0
  152.3712  144.5956  158.8202 H   0  0  0  0  0  0  0  0  0  0  0  0
  152.0436  143.0364  160.7350 H   0  0  0  0  0  0  0  0  0  0  0  0
  153.0708  141.7660  159.8866 H   0  0  0  0  0  0  0  0  0  0  0  0
  152.8991  140.2911  158.6710 H   0  0  0  0  0  0  0  0  0  0  0  0
  1  2  1  0  0  0  0
  1 20  1  0  0  0  0
  1 21  1  0  0  0  0
  1 22  1  0  0  0  0
  2 19  1  0  0  0  0
  2  3  2  0  0  0  0
  3  4  1  0  0  0  0
  4  5  1  0  0  0  0
  4  8  1  0  0  0  0
  5  6  1  0  0  0  0
  5 23  1  0  0  0  0
  5 24  1  0  0  0  0
  6  7  1  0  0  0  0
  6 25  1  0  0  0  0
  6 26  1  0  0  0  0
  7 27  1  0  0  0  0
  8 19  1  0  0  0  0
  8  9  2  0  0  0  0
  9 10  1  0  0  0  0
 10 11  1  0  0  0  0
 10 14  2  0  0  0  0
 11 13  1  0  0  0  0
 11 12  1  0  0  0  0
 11 28  1  0  0  0  0
 12 13  1  0  0  0  0
 12 29  1  0  0  0  0
 12 30  1  0  0  0  0
 13 31  1  0  0  0  0
 13 32  1  0  0  0  0
 14 15  1  0  0  0  0
 14 33  1  0  0  0  0
 15 16  1  0  0  0  0
 15 19  2  0  0  0  0
 16 17  2  0  0  0  0
 16 18  1  0  0  0  0
M  CHG  1  18  -1
M  END
> <s_m_source_file>
AV-unprocessed.smi

> <i_m_source_file_index>
997

> <i_lp_mmshare_version>
43012

> <i_f3d_flags>
0

> <s_epik_input>
W09IXVtDSDJdW0NIMl1uMW5jKFtDSDNdKWMoYzEyKWMoQyg9TylbT0hdKVtjSF1jKG4yKVtDSF0zW0NIMl1bQ0gyXTM=

> <s_epik_cmdline>
J2VwaWtfcHl0aG9uJywgJy1waCcsICc3LjAnLCAnLXRuJywgJzgnLCAnLW1hJywgJzIwMCcsICctbWV0YWxfYmluZGluZycsICctaW1hZScsICc8aW5maWxlLm1hZT4nLCAnLW9tYWUnLCAnPG91dGZpbGUubWFlPic=

> <r_epik_Ionization_Penalty>
0.00209497

> <r_epik_Ionization_Penalty_Charging>
0.0019185

> <r_epik_Ionization_Penalty_Neutral>
0.000176473

> <r_epik_State_Penalty>
0.00130684

> <r_epik_Charging_Adjusted_Penalty>
0.00322534

> <i_epik_Tot_Q>
-1

> <i_epik_Tot_abs_Q>
1

> <r_epik_Metal_State_Penalty>
-0

> <b_epik_Metal_Only>
0

> <s_lp_Force_Field>
OPLS_2005

> <r_lp_Energy>
10.3232

> <b_lp_Chiralities_Consistent>
1

> <s_lp_Variant>
AV-unprocessed.smi:997-1

> <Gold.Version>
5.8.1

> <Gold.Id.Protein>
6NUR|6NUR_protein|mol2

> <Gold.PLP.Fitness>
46.6910

> <Gold.PLP.PLP>
-34.3444

> <Gold.PLP.part.hbond>
-3.0000

> <Gold.PLP.part.metal>
0.0000

> <Gold.PLP.part.buried>
-2.9702

> <Gold.PLP.part.nonpolar>
-31.5168

> <Gold.PLP.part.repulsive>
0.7274

> <Gold.PLP.ligand.clash>
0.0000

> <Gold.PLP.ligand.torsion>
0.5990

> <Gold.PLP.Chemscore.Hbond>
4.4697

> <Gold.PLP.Chemscore.CHOScore>
0.0000

> <Gold.PLP.Chemscore.Metal>
0.0000

> <Gold.Chemscore.Hbonds>
donor molecule, donor type, donor heavy atom, donor atom, acceptor molecule, acceptor atom, score
      L1  H     7    27       P1 10175  0.96
      P1  H  7997  8009       L1    18  1.78
      P1  H 10752 10765       L1    17  1.60

> <Gold.PLP.Chemscore.Internal.Correction>
0.1358

> <Gold.Rescore>
     Score         DG    S(hbond)    S(metal)    S(lipo)     H(rot)  DE(clash)    DE(int)     intcor
     15.49     -17.65       2.21        0.00      85.61       2.04       0.14       2.02       ----

> <Gold.Chemscore.Fitness>
15.4914

> <Gold.Chemscore.DG>
-17.6476

> <Gold.Chemscore.ZeroCoef>
-5.4800

> <Gold.Chemscore.Hbond>
2.2056

> <Gold.Chemscore.Metal>
0.0000

> <Gold.Chemscore.Lipo>
85.6066

> <Gold.Chemscore.Internal_Hbond>
0.0000

> <Gold.Chemscore.DEClash>
0.1401

> <Gold.Chemscore.DEInternal>
2.0161

> <Gold.Chemscore.Rot>
2.0372

> <Gold.Chemscore.Internal.Correction>
   9.000000E+99

> <Gold.Chemscore.Hbonds>
donor molecule, donor type, donor heavy atom, donor atom, acceptor molecule, acceptor atom, score
      L1  H     7    27       P1 10175  0.31
      P1  H  7997  8009       L1    18  0.21
      P1  H 10752 10765       L1    17  0.75

> <Gold.Chemscore.Hbond.Weighted>
-7.3668

> <Gold.Chemscore.Metal.Weighted>
-0.0000

> <Gold.Chemscore.Lipo.Weighted>
-10.0160

> <Gold.Chemscore.Internal_Hbond.Weighted>
0.0000

> <Gold.Chemscore.DEClash.Weighted>
0.1401

> <Gold.Chemscore.DEInternal.Weighted>
2.0161

> <Gold.Chemscore.Rot.Weighted>
5.2152

> <Gold.Chemscore.Internal.Correction.Weighted>
   9.000000E+99

> <Gold.Protein.RotatedTorsions>
[ 6907 6896 6895 6894 ] final   61.36 input  -60.11 | X-H torsion
[ 7974 7965 7964 7962 ] final   15.13 input  175.53 | X-H torsion
[ 8008 7997 7996 7995 ] final  139.06 input   59.86 | X-H torsion
[ 10167 10162 10161 10158 ] final   61.32 input  -65.29 | X-H torsion
[ 10718 10713 10712 10709 ] final  172.07 input   66.30 | X-H torsion
[ 10763 10752 10751 10750 ] final -133.43 input  -60.55 | X-H torsion
[ 11005 11000 10999 10996 ] final  175.25 input  -57.11 | X-H torsion

> <Gold.Protein.ActiveResidues>
 VAL166  LYS551  ARG553  GLY616  TRP617  ASP618  TYR619  PRO620  LYS621  CYS622 
 ASP623  PHE694  ASN695  SER759  ASP760  ASP761  ALA762  ILE779  LEU786  VAL792 
 PHE793  MET794  SER795  GLU796  ALA797  LYS798  CYS799  TRP800  GLU811  SER814 

> <Gold.Protein.RotatedAtoms>
  152.4082  134.6171  160.0040 H   0  0  0  0  0  0  0  0  0  0  0  0  # atno 6907 bound_to 6896
  151.6356  133.3323  159.3126 H   0  0  0  0  0  0  0  0  0  0  0  0  # atno 6908 bound_to 6896
  150.7975  134.7086  159.6635 H   0  0  0  0  0  0  0  0  0  0  0  0  # atno 6909 bound_to 6896
  146.2287  139.8939  142.8550 H   0  0  0  0  0  0  0  0  0  0  0  0  # atno 7974 bound_to 7965
  156.2993  140.2377  156.4176 H   0  0  0  0  0  0  0  0  0  0  0  0  # atno 8008 bound_to 7997
  154.8384  140.0429  157.1545 H   0  0  0  0  0  0  0  0  0  0  0  0  # atno 8009 bound_to 7997
  154.9130  140.2993  155.5260 H   0  0  0  0  0  0  0  0  0  0  0  0  # atno 8010 bound_to 7997
  140.1561  144.4416  150.6734 H   0  0  0  0  0  0  0  0  0  0  0  0  # atno 10167 bound_to 10162
  156.9844  131.0128  151.2873 H   0  0  0  0  0  0  0  0  0  0  0  0  # atno 10718 bound_to 10713
  154.8732  135.3766  154.4571 H   0  0  0  0  0  0  0  0  0  0  0  0  # atno 10763 bound_to 10752
  153.5242  135.7028  153.5721 H   0  0  0  0  0  0  0  0  0  0  0  0  # atno 10764 bound_to 10752
  153.3954  135.3961  155.1917 H   0  0  0  0  0  0  0  0  0  0  0  0  # atno 10765 bound_to 10752
  140.3601  134.7120  157.4325 H   0  0  0  0  0  0  0  0  0  0  0  0  # atno 11005 bound_to 11000
  145.2390  141.0002  143.3947 LP  0  0  0  0  0  0  0  0  0  0  0  0  # atno 17320 bound_to 7965
  144.9468  139.4127  143.6422 LP  0  0  0  0  0  0  0  0  0  0  0  0  # atno 17321 bound_to 7965
  140.6672  143.2272  151.5713 LP  0  0  0  0  0  0  0  0  0  0  0  0  # atno 17342 bound_to 10162
  139.5403  144.2666  152.1337 LP  0  0  0  0  0  0  0  0  0  0  0  0  # atno 17343 bound_to 10162
  157.5503  130.8178  149.8137 LP  0  0  0  0  0  0  0  0  0  0  0  0  # atno 17370 bound_to 10713
  156.0232  130.3788  150.1901 LP  0  0  0  0  0  0  0  0  0  0  0  0  # atno 17371 bound_to 10713
  140.0633  134.5964  155.8723 LP  0  0  0  0  0  0  0  0  0  0  0  0  # atno 17394 bound_to 11000
  141.1986  133.6602  156.5803 LP  0  0  0  0  0  0  0  0  0  0  0  0  # atno 17395 bound_to 11000

$$$$
