AV-unprocessed.smi:155|AV-procd|sdf|1277|dock9
  -GOLD-   2262018543D 1   1.00000     0.00000
 Structure written by MMmdl.
 63 66  0  0  0  0  0  0  0  0  2 V2000
  145.7846  131.8534  150.2795 C   0  0  0  0  0  0  0  0  0  0  0  0
  145.0410  133.1009  149.9941 N   0  3  0  0  0  0  0  0  0  0  0  0
  143.7632  132.8240  149.2978 C   0  0  0  0  0  0  0  0  0  0  0  0
  144.8822  133.9434  151.2058 C   0  0  0  0  0  0  0  0  0  0  0  0
  144.2954  135.3351  150.8846 C   0  0  0  0  0  0  0  0  0  0  0  0
  144.4641  136.2673  152.0021 N   0  0  0  0  0  0  0  0  0  0  0  0
  143.6551  135.8252  153.1437 C   0  0  0  0  0  0  0  0  0  0  0  0
  143.6320  136.8342  154.3054 C   0  0  0  0  0  0  0  0  0  0  0  0
  144.8765  136.7565  155.2050 C   0  0  0  0  0  0  0  0  0  0  0  0
  146.0603  137.3979  154.6319 N   0  0  0  0  0  0  0  0  0  0  0  0
  146.8451  138.1234  155.4720 C   0  0  0  0  0  0  0  0  0  0  0  0
  146.7618  137.9071  156.8123 N   0  0  0  0  0  0  0  0  0  0  0  0
  147.5331  138.5946  157.6594 C   0  0  0  0  0  0  0  0  0  0  0  0
  148.4402  139.5341  157.3872 N   0  0  0  0  0  0  0  0  0  0  0  0
  148.5237  139.7649  156.0460 C   0  0  0  0  0  0  0  0  0  0  0  0
  147.7717  139.1118  155.0279 C   0  0  0  0  0  0  0  0  0  0  0  0
  148.1249  139.6227  153.7831 N   0  0  0  0  0  0  0  0  0  0  0  0
  149.0387  140.5154  154.0490 C   0  0  0  0  0  0  0  0  0  0  0  0
  149.3404  140.6637  155.3828 N   0  0  0  0  0  0  0  0  0  0  0  0
  150.3139  141.5780  155.9532 C   0  0  0  0  0  0  0  0  0  0  0  0
  150.0401  141.8752  157.4406 C   0  0  2  0  0  0  0  0  0  0  0  0
  148.9275  142.7431  157.5466 O   0  0  0  0  0  0  0  0  0  0  0  0
  151.2488  142.5269  158.1362 C   0  0  1  0  0  0  0  0  0  0  0  0
  151.6997  143.8486  157.5149 C   0  0  0  0  0  0  0  0  0  0  0  0
  152.4759  144.4710  158.6534 C   0  0  0  0  0  0  0  0  0  0  0  0
  151.6788  144.0259  159.8786 C   0  0  0  0  0  0  0  0  0  0  0  0
  150.9205  142.8882  159.4738 O   0  0  0  0  0  0  0  0  0  0  0  0
  146.1881  137.5944  153.1879 C   0  0  0  0  0  0  0  0  0  0  0  0
  145.8778  136.3228  152.3806 C   0  0  0  0  0  0  0  0  0  0  0  0
  145.2418  131.2289  150.9901 H   0  0  0  0  0  0  0  0  0  0  0  0
  146.7676  132.0735  150.6981 H   0  0  0  0  0  0  0  0  0  0  0  0
  145.9393  131.2775  149.3665 H   0  0  0  0  0  0  0  0  0  0  0  0
  143.0674  132.2961  149.9512 H   0  0  0  0  0  0  0  0  0  0  0  0
  143.9339  132.2073  148.4147 H   0  0  0  0  0  0  0  0  0  0  0  0
  143.2860  133.7427  148.9582 H   0  0  0  0  0  0  0  0  0  0  0  0
  144.2588  133.4268  151.9376 H   0  0  0  0  0  0  0  0  0  0  0  0
  145.8639  134.0502  151.6651 H   0  0  0  0  0  0  0  0  0  0  0  0
  144.7357  135.7507  149.9766 H   0  0  0  0  0  0  0  0  0  0  0  0
  143.2326  135.2055  150.6807 H   0  0  0  0  0  0  0  0  0  0  0  0
  142.6241  135.6889  152.8229 H   0  0  0  0  0  0  0  0  0  0  0  0
  143.9918  134.8488  153.4965 H   0  0  0  0  0  0  0  0  0  0  0  0
  143.4573  137.8504  153.9493 H   0  0  0  0  0  0  0  0  0  0  0  0
  142.7698  136.5912  154.9271 H   0  0  0  0  0  0  0  0  0  0  0  0
  144.6283  137.2421  156.1497 H   0  0  0  0  0  0  0  0  0  0  0  0
  145.1091  135.7182  155.4434 H   0  0  0  0  0  0  0  0  0  0  0  0
  147.4059  138.3569  158.7052 H   0  0  0  0  0  0  0  0  0  0  0  0
  149.5224  141.0929  153.2745 H   0  0  0  0  0  0  0  0  0  0  0  0
  151.3029  141.1345  155.8316 H   0  0  0  0  0  0  0  0  0  0  0  0
  150.3146  142.5011  155.3722 H   0  0  0  0  0  0  0  0  0  0  0  0
  149.7895  140.9451  157.9525 H   0  0  0  0  0  0  0  0  0  0  0  0
  149.0972  143.5133  157.0258 H   0  0  0  0  0  0  0  0  0  0  0  0
  152.0911  141.8331  158.1691 H   0  0  0  0  0  0  0  0  0  0  0  0
  152.2993  143.7150  156.6140 H   0  0  0  0  0  0  0  0  0  0  0  0
  150.8385  144.4702  157.2650 H   0  0  0  0  0  0  0  0  0  0  0  0
  153.4817  144.0506  158.6893 H   0  0  0  0  0  0  0  0  0  0  0  0
  152.5625  145.5547  158.5714 H   0  0  0  0  0  0  0  0  0  0  0  0
  152.3306  143.7830  160.7183 H   0  0  0  0  0  0  0  0  0  0  0  0
  150.9891  144.8067  160.1999 H   0  0  0  0  0  0  0  0  0  0  0  0
  145.5742  138.4347  152.8611 H   0  0  0  0  0  0  0  0  0  0  0  0
  147.2209  137.8679  152.9669 H   0  0  0  0  0  0  0  0  0  0  0  0
  146.2032  135.4155  152.8929 H   0  0  0  0  0  0  0  0  0  0  0  0
  146.4758  136.3908  151.4712 H   0  0  0  0  0  0  0  0  0  0  0  0
  145.6159  133.6271  149.3514 H   0  0  0  0  0  0  0  0  0  0  0  0
  1  2  1  0  0  0  0
  1 30  1  0  0  0  0
  1 31  1  0  0  0  0
  1 32  1  0  0  0  0
  2  3  1  0  0  0  0
  2  4  1  0  0  0  0
  2 63  1  0  0  0  0
  3 33  1  0  0  0  0
  3 34  1  0  0  0  0
  3 35  1  0  0  0  0
  4  5  1  0  0  0  0
  4 36  1  0  0  0  0
  4 37  1  0  0  0  0
  5  6  1  0  0  0  0
  5 38  1  0  0  0  0
  5 39  1  0  0  0  0
  6 29  1  0  0  0  0
  6  7  1  0  0  0  0
  7  8  1  0  0  0  0
  7 40  1  0  0  0  0
  7 41  1  0  0  0  0
  8  9  1  0  0  0  0
  8 42  1  0  0  0  0
  8 43  1  0  0  0  0
  9 10  1  0  0  0  0
  9 44  1  0  0  0  0
  9 45  1  0  0  0  0
 10 11  1  0  0  0  0
 10 28  1  0  0  0  0
 11 16  1  0  0  0  0
 11 12  2  0  0  0  0
 12 13  1  0  0  0  0
 13 14  2  0  0  0  0
 13 46  1  0  0  0  0
 14 15  1  0  0  0  0
 15 19  1  0  0  0  0
 15 16  2  0  0  0  0
 16 17  1  0  0  0  0
 17 18  2  0  0  0  0
 18 19  1  0  0  0  0
 18 47  1  0  0  0  0
 19 20  1  0  0  0  0
 20 21  1  0  0  0  0
 20 48  1  0  0  0  0
 20 49  1  0  0  0  0
 21 22  1  0  0  0  0
 21 23  1  0  0  0  0
 21 50  1  0  0  0  0
 22 51  1  0  0  0  0
 23 27  1  0  0  0  0
 23 24  1  0  0  0  0
 23 52  1  0  0  0  0
 24 25  1  0  0  0  0
 24 53  1  0  0  0  0
 24 54  1  0  0  0  0
 25 26  1  0  0  0  0
 25 55  1  0  0  0  0
 25 56  1  0  0  0  0
 26 27  1  0  0  0  0
 26 57  1  0  0  0  0
 26 58  1  0  0  0  0
 28 29  1  0  0  0  0
 28 59  1  0  0  0  0
 28 60  1  0  0  0  0
 29 61  1  0  0  0  0
 29 62  1  0  0  0  0
M  CHG  1   2   1
M  END
> <s_m_source_file>
AV-unprocessed.smi

> <i_m_source_file_index>
155

> <i_lp_mmshare_version>
43012

> <i_f3d_flags>
0

> <s_epik_input>
W0NIM11OKFtDSDNdKVtDSDJdW0NIMl1OMVtDSDJdW0NIMl1bQ0gyXU4oW0NIMl1bQ0gyXTEpYyhuW2NIXW4yKWMoYzIzKW5bY0hdbjNbQ0gyXVtDQEhdKFtPSF0pW0NAQEhdNFtDSDJdW0NIMl1bQ0gyXU80

> <s_epik_cmdline>
J2VwaWtfcHl0aG9uJywgJy1waCcsICc3LjAnLCAnLXRuJywgJzgnLCAnLW1hJywgJzIwMCcsICctbWV0YWxfYmluZGluZycsICctaW1hZScsICc8aW5maWxlLm1hZT4nLCAnLW9tYWUnLCAnPG91dGZpbGUubWFlPic=

> <r_lp_tautomer_probability>
1

> <r_epik_Ionization_Penalty>
0.0599493

> <r_epik_Ionization_Penalty_Charging>
0.00816363

> <r_epik_Ionization_Penalty_Neutral>
0.0517857

> <r_epik_State_Penalty>
0.460607

> <r_epik_Charging_Adjusted_Penalty>
0.468771

> <i_epik_Tot_Q>
1

> <i_epik_Tot_abs_Q>
1

> <r_epik_Metal_State_Penalty>
0.45965

> <b_epik_Metal_Only>
0

> <s_lp_Force_Field>
OPLS_2005

> <r_lp_Energy>
54.9456

> <b_lp_Chiralities_Consistent>
1

> <s_lp_Variant>
AV-unprocessed.smi:155-11

> <Gold.Version>
5.8.1

> <Gold.Id.Protein>
6NUR|6NUR_protein|mol2

> <Gold.PLP.Fitness>
49.5820

> <Gold.PLP.PLP>
-42.7350

> <Gold.PLP.part.hbond>
-2.5475

> <Gold.PLP.part.metal>
0.0000

> <Gold.PLP.part.buried>
-4.4682

> <Gold.PLP.part.nonpolar>
-37.6037

> <Gold.PLP.part.repulsive>
1.0988

> <Gold.PLP.ligand.clash>
0.0000

> <Gold.PLP.ligand.torsion>
0.6068

> <Gold.PLP.Chemscore.Hbond>
2.0000

> <Gold.PLP.Chemscore.CHOScore>
0.6094

> <Gold.PLP.Chemscore.Metal>
0.0000

> <Gold.Chemscore.Hbonds>
donor molecule, donor type, donor heavy atom, donor atom, acceptor molecule, acceptor atom, score
      L1  H     2    63       P1  7921  0.71
      L1  H    22    51       P1  8028  1.00
      L1  C    18    47       P1  7957  0.71

> <Gold.PLP.Chemscore.Internal.Correction>
0.2322

> <Gold.Rescore>
     Score         DG    S(hbond)    S(metal)    S(lipo)     H(rot)  DE(clash)    DE(int)     intcor
     12.83     -17.41       1.74        0.00     111.66       2.71       1.22       3.37       ----

> <Gold.Chemscore.Fitness>
12.8262

> <Gold.Chemscore.DG>
-17.4078

> <Gold.Chemscore.ZeroCoef>
-5.4800

> <Gold.Chemscore.Hbond>
1.7354

> <Gold.Chemscore.Metal>
0.0000

> <Gold.Chemscore.Lipo>
111.6592

> <Gold.Chemscore.Internal_Hbond>
0.0000

> <Gold.Chemscore.DEClash>
1.2165

> <Gold.Chemscore.DEInternal>
3.3651

> <Gold.Chemscore.Rot>
2.7080

> <Gold.Chemscore.Internal.Correction>
   9.000000E+99

> <Gold.Chemscore.Hbonds>
donor molecule, donor type, donor heavy atom, donor atom, acceptor molecule, acceptor atom, score
      L1  H     2    63       P1  7921  0.21
      L1  H    22    51       P1  8028  0.69

> <Gold.Chemscore.Hbond.Weighted>
-5.7963

> <Gold.Chemscore.Metal.Weighted>
-0.0000

> <Gold.Chemscore.Lipo.Weighted>
-13.0641

> <Gold.Chemscore.Internal_Hbond.Weighted>
0.0000

> <Gold.Chemscore.DEClash.Weighted>
1.2165

> <Gold.Chemscore.DEInternal.Weighted>
3.3651

> <Gold.Chemscore.Rot.Weighted>
6.9326

> <Gold.Chemscore.Internal.Correction.Weighted>
   9.000000E+99

> <Gold.Protein.RotatedTorsions>
[ 6907 6896 6895 6894 ] final -179.33 input  -60.11 | X-H torsion
[ 7974 7965 7964 7962 ] final   -4.13 input  175.53 | X-H torsion
[ 8008 7997 7996 7995 ] final -172.34 input   59.86 | X-H torsion
[ 10167 10162 10161 10158 ] final -126.22 input  -65.29 | X-H torsion
[ 10718 10713 10712 10709 ] final  -20.40 input   66.30 | X-H torsion
[ 10763 10752 10751 10750 ] final   50.39 input  -60.55 | X-H torsion
[ 11005 11000 10999 10996 ] final  138.09 input  -57.11 | X-H torsion

> <Gold.Protein.ActiveResidues>
 VAL166  LYS551  ARG553  GLY616  TRP617  ASP618  TYR619  PRO620  LYS621  CYS622 
 ASP623  PHE694  ASN695  SER759  ASP760  ASP761  ALA762  ILE779  LEU786  VAL792 
 PHE793  MET794  SER795  GLU796  ALA797  LYS798  CYS799  TRP800  GLU811  SER814 

> <Gold.Protein.RotatedAtoms>
  151.6517  133.3320  159.3153 H   0  0  0  0  0  0  0  0  0  0  0  0  # atno 6907 bound_to 6896
  150.7957  134.7018  159.6564 H   0  0  0  0  0  0  0  0  0  0  0  0  # atno 6908 bound_to 6896
  152.4043  134.6237  160.0109 H   0  0  0  0  0  0  0  0  0  0  0  0  # atno 6909 bound_to 6896
  146.2378  140.1824  142.8332 H   0  0  0  0  0  0  0  0  0  0  0  0  # atno 7974 bound_to 7965
  155.9433  140.1113  157.1037 H   0  0  0  0  0  0  0  0  0  0  0  0  # atno 8008 bound_to 7997
  154.4094  140.1215  156.5022 H   0  0  0  0  0  0  0  0  0  0  0  0  # atno 8009 bound_to 7997
  155.6934  140.3472  155.4905 H   0  0  0  0  0  0  0  0  0  0  0  0  # atno 8010 bound_to 7997
  139.9738  143.5817  152.2403 H   0  0  0  0  0  0  0  0  0  0  0  0  # atno 10167 bound_to 10162
  156.5324  130.4658  149.6540 H   0  0  0  0  0  0  0  0  0  0  0  0  # atno 10718 bound_to 10713
  152.9785  135.5880  154.4245 H   0  0  0  0  0  0  0  0  0  0  0  0  # atno 10763 bound_to 10752
  154.3866  135.2767  155.2182 H   0  0  0  0  0  0  0  0  0  0  0  0  # atno 10764 bound_to 10752
  154.4072  135.6090  153.5986 H   0  0  0  0  0  0  0  0  0  0  0  0  # atno 10765 bound_to 10752
  140.0159  134.9418  157.0375 H   0  0  0  0  0  0  0  0  0  0  0  0  # atno 11005 bound_to 11000
  144.9923  140.8558  143.5332 LP  0  0  0  0  0  0  0  0  0  0  0  0  # atno 17320 bound_to 7965
  145.1832  139.2340  143.5281 LP  0  0  0  0  0  0  0  0  0  0  0  0  # atno 17321 bound_to 7965
  139.6461  144.7658  151.2240 LP  0  0  0  0  0  0  0  0  0  0  0  0  # atno 17342 bound_to 10162
  140.7513  143.6236  150.8489 LP  0  0  0  0  0  0  0  0  0  0  0  0  # atno 17343 bound_to 10162
  156.3047  130.7196  151.2076 LP  0  0  0  0  0  0  0  0  0  0  0  0  # atno 17370 bound_to 10713
  157.7419  131.0497  150.5061 LP  0  0  0  0  0  0  0  0  0  0  0  0  # atno 17371 bound_to 10713
  140.4472  134.1620  155.7178 LP  0  0  0  0  0  0  0  0  0  0  0  0  # atno 17394 bound_to 11000
  141.1742  133.8547  157.1474 LP  0  0  0  0  0  0  0  0  0  0  0  0  # atno 17395 bound_to 11000

$$$$
