AV-unprocessed.smi:3123|AV-procd|sdf|11900|dock1
  -GOLD-   2272017283D 1   1.00000     0.00000
 Structure written by MMmdl.
 30 31  0  0  0  0  0  0  0  0  2 V2000
  149.4998  138.3302  153.4616 N   0  3  0  0  0  0  0  0  0  0  0  0
  150.6738  138.4875  154.3348 C   0  0  0  0  0  0  0  0  0  0  0  0
  150.5627  139.7543  155.1573 C   0  0  0  0  0  0  0  0  0  0  0  0
  149.5771  140.7176  154.8623 C   0  0  0  0  0  0  0  0  0  0  0  0
  149.5198  141.8812  155.6538 C   0  0  0  0  0  0  0  0  0  0  0  0
  150.3634  142.1201  156.6801 N   0  0  0  0  0  0  0  0  0  0  0  0
  151.3100  141.1935  156.9642 C   0  0  0  0  0  0  0  0  0  0  0  0
  152.1842  141.4379  158.0324 N   0  0  0  0  0  0  0  0  0  0  0  0
  151.9763  142.7328  158.6687 C   0  0  0  0  0  0  0  0  0  0  0  0
  153.0533  142.9710  159.7417 C   0  0  0  0  0  0  0  0  0  0  0  0
  153.0404  141.8979  160.6791 O   0  0  0  0  0  0  0  0  0  0  0  0
  153.3156  140.6436  160.0616 C   0  0  0  0  0  0  0  0  0  0  0  0
  152.2448  140.3465  158.9974 C   0  0  0  0  0  0  0  0  0  0  0  0
  151.4475  139.9977  156.2277 C   0  0  0  0  0  0  0  0  0  0  0  0
  149.4232  139.1297  152.8493 H   0  0  0  0  0  0  0  0  0  0  0  0
  148.6677  138.2575  154.0291 H   0  0  0  0  0  0  0  0  0  0  0  0
  150.7545  137.6220  154.9931 H   0  0  0  0  0  0  0  0  0  0  0  0
  151.5775  138.5149  153.7250 H   0  0  0  0  0  0  0  0  0  0  0  0
  148.8789  140.5727  154.0511 H   0  0  0  0  0  0  0  0  0  0  0  0
  148.7773  142.6404  155.4570 H   0  0  0  0  0  0  0  0  0  0  0  0
  152.0135  143.5237  157.9184 H   0  0  0  0  0  0  0  0  0  0  0  0
  150.9860  142.7659  159.1252 H   0  0  0  0  0  0  0  0  0  0  0  0
  154.0417  143.0595  159.2880 H   0  0  0  0  0  0  0  0  0  0  0  0
  152.8593  143.9057  160.2680 H   0  0  0  0  0  0  0  0  0  0  0  0
  154.3126  140.6555  159.6182 H   0  0  0  0  0  0  0  0  0  0  0  0
  153.3150  139.8641  160.8235 H   0  0  0  0  0  0  0  0  0  0  0  0
  151.2730  140.2213  159.4772 H   0  0  0  0  0  0  0  0  0  0  0  0
  152.4753  139.4118  158.4845 H   0  0  0  0  0  0  0  0  0  0  0  0
  152.2159  139.2818  156.4831 H   0  0  0  0  0  0  0  0  0  0  0  0
  149.6033  137.4906  152.9099 H   0  0  0  0  0  0  0  0  0  0  0  0
  1  2  1  0  0  0  0
  1 15  1  0  0  0  0
  1 16  1  0  0  0  0
  1 30  1  0  0  0  0
  2  3  1  0  0  0  0
  2 17  1  0  0  0  0
  2 18  1  0  0  0  0
  3 14  1  0  0  0  0
  3  4  2  0  0  0  0
  4  5  1  0  0  0  0
  4 19  1  0  0  0  0
  5  6  2  0  0  0  0
  5 20  1  0  0  0  0
  6  7  1  0  0  0  0
  7  8  1  0  0  0  0
  7 14  2  0  0  0  0
  8 13  1  0  0  0  0
  8  9  1  0  0  0  0
  9 10  1  0  0  0  0
  9 21  1  0  0  0  0
  9 22  1  0  0  0  0
 10 11  1  0  0  0  0
 10 23  1  0  0  0  0
 10 24  1  0  0  0  0
 11 12  1  0  0  0  0
 12 13  1  0  0  0  0
 12 25  1  0  0  0  0
 12 26  1  0  0  0  0
 13 27  1  0  0  0  0
 13 28  1  0  0  0  0
 14 29  1  0  0  0  0
M  CHG  1   1   1
M  END
> <s_m_source_file>
AV-unprocessed.smi

> <i_m_source_file_index>
3123

> <i_lp_mmshare_version>
43012

> <i_f3d_flags>
0

> <s_epik_input>
W05IMl1bQ0gyXWMxW2NIXVtjSF1uYyhbY0hdMSlOMltDSDJdW0NIMl1PW0NIMl1bQ0gyXTI=

> <s_epik_cmdline>
J2VwaWtfcHl0aG9uJywgJy1waCcsICc3LjAnLCAnLXRuJywgJzgnLCAnLW1hJywgJzIwMCcsICctbWV0YWxfYmluZGluZycsICctaW1hZScsICc8aW5maWxlLm1hZT4nLCAnLW9tYWUnLCAnPG91dGZpbGUubWFlPic=

> <r_lp_tautomer_probability>
1

> <r_epik_Ionization_Penalty>
0.0770075

> <r_epik_Ionization_Penalty_Charging>
0.0770037

> <r_epik_Ionization_Penalty_Neutral>
3.77435e-06

> <r_epik_State_Penalty>
0.00932976

> <r_epik_Charging_Adjusted_Penalty>
0.0863335

> <i_epik_Tot_Q>
1

> <i_epik_Tot_abs_Q>
1

> <r_epik_Metal_State_Penalty>
0.00963217

> <b_epik_Metal_Only>
0

> <s_lp_Force_Field>
OPLS_2005

> <r_lp_Energy>
15.1833

> <b_lp_Chiralities_Consistent>
1

> <s_lp_Variant>
AV-unprocessed.smi:3123-1

> <Gold.Version>
5.8.1

> <Gold.Id.Protein>
6NUR|6NUR_protein|mol2

> <Gold.PLP.Fitness>
39.5646

> <Gold.PLP.PLP>
-27.8143

> <Gold.PLP.part.hbond>
-2.0000

> <Gold.PLP.part.metal>
0.0000

> <Gold.PLP.part.buried>
-1.2144

> <Gold.PLP.part.nonpolar>
-24.5403

> <Gold.PLP.part.repulsive>
0.1990

> <Gold.PLP.ligand.clash>
0.0000

> <Gold.PLP.ligand.torsion>
0.1761

> <Gold.PLP.Chemscore.Hbond>
3.0000

> <Gold.PLP.Chemscore.CHOScore>
1.0000

> <Gold.PLP.Chemscore.Metal>
0.0000

> <Gold.Chemscore.Hbonds>
donor molecule, donor type, donor heavy atom, donor atom, acceptor molecule, acceptor atom, score
      L1  H     1    15       P1  7957  1.00
      L1  H     1    30       P1  7948  2.00
      L1  C     5    20       P1  8028  1.00

> <Gold.PLP.Chemscore.Internal.Correction>
0.1025

> <Gold.Rescore>
     Score         DG    S(hbond)    S(metal)    S(lipo)     H(rot)  DE(clash)    DE(int)     intcor
     16.45     -16.99       1.95        0.00      71.58       1.32       0.30       0.24       ----

> <Gold.Chemscore.Fitness>
16.4489

> <Gold.Chemscore.DG>
-16.9939

> <Gold.Chemscore.ZeroCoef>
-5.4800

> <Gold.Chemscore.Hbond>
1.9484

> <Gold.Chemscore.Metal>
0.0000

> <Gold.Chemscore.Lipo>
71.5783

> <Gold.Chemscore.Internal_Hbond>
0.0000

> <Gold.Chemscore.DEClash>
0.3006

> <Gold.Chemscore.DEInternal>
0.2444

> <Gold.Chemscore.Rot>
1.3158

> <Gold.Chemscore.Internal.Correction>
   9.000000E+99

> <Gold.Chemscore.Hbonds>
donor molecule, donor type, donor heavy atom, donor atom, acceptor molecule, acceptor atom, score
      L1  H     1    15       P1  7957  0.96
      L1  H     1    30       P1  7948  0.63

> <Gold.Chemscore.Hbond.Weighted>
-6.5077

> <Gold.Chemscore.Metal.Weighted>
-0.0000

> <Gold.Chemscore.Lipo.Weighted>
-8.3747

> <Gold.Chemscore.Internal_Hbond.Weighted>
0.0000

> <Gold.Chemscore.DEClash.Weighted>
0.3006

> <Gold.Chemscore.DEInternal.Weighted>
0.2444

> <Gold.Chemscore.Rot.Weighted>
3.3684

> <Gold.Chemscore.Internal.Correction.Weighted>
   9.000000E+99

> <Gold.Protein.RotatedTorsions>
[ 6907 6896 6895 6894 ] final -175.57 input  -60.11 | X-H torsion
[ 7974 7965 7964 7962 ] final  152.48 input  175.53 | X-H torsion
[ 8008 7997 7996 7995 ] final  -35.64 input   59.86 | X-H torsion
[ 10167 10162 10161 10158 ] final  133.56 input  -65.29 | X-H torsion
[ 10718 10713 10712 10709 ] final -145.57 input   66.30 | X-H torsion
[ 10763 10752 10751 10750 ] final  -39.78 input  -60.55 | X-H torsion
[ 11005 11000 10999 10996 ] final  -29.24 input  -57.11 | X-H torsion

> <Gold.Protein.ActiveResidues>
 VAL166  LYS551  ARG553  GLY616  TRP617  ASP618  TYR619  PRO620  LYS621  CYS622 
 ASP623  PHE694  ASN695  SER759  ASP760  ASP761  ALA762  ILE779  LEU786  VAL792 
 PHE793  MET794  SER795  GLU796  ALA797  LYS798  CYS799  TRP800  GLU811  SER814 

> <Gold.Protein.RotatedAtoms>
  151.5908  133.3367  159.3027 H   0  0  0  0  0  0  0  0  0  0  0  0  # atno 6907 bound_to 6896
  150.8261  134.7496  159.6825 H   0  0  0  0  0  0  0  0  0  0  0  0  # atno 6908 bound_to 6896
  152.4350  134.5709  159.9972 H   0  0  0  0  0  0  0  0  0  0  0  0  # atno 6909 bound_to 6896
  144.8219  139.6674  143.6096 H   0  0  0  0  0  0  0  0  0  0  0  0  # atno 7974 bound_to 7965
  154.4091  140.1652  156.2244 H   0  0  0  0  0  0  0  0  0  0  0  0  # atno 8008 bound_to 7997
  155.9336  140.3413  155.6246 H   0  0  0  0  0  0  0  0  0  0  0  0  # atno 8009 bound_to 7997
  155.7076  140.0752  157.2375 H   0  0  0  0  0  0  0  0  0  0  0  0  # atno 8010 bound_to 7997
  139.5292  144.6610  151.5013 H   0  0  0  0  0  0  0  0  0  0  0  0  # atno 10167 bound_to 10162
  156.3841  130.7852  151.2048 H   0  0  0  0  0  0  0  0  0  0  0  0  # atno 10718 bound_to 10713
  153.9350  135.6767  153.4745 H   0  0  0  0  0  0  0  0  0  0  0  0  # atno 10763 bound_to 10752
  153.0960  135.4851  154.8776 H   0  0  0  0  0  0  0  0  0  0  0  0  # atno 10764 bound_to 10752
  154.7407  135.3160  154.8690 H   0  0  0  0  0  0  0  0  0  0  0  0  # atno 10765 bound_to 10752
  140.9278  133.7357  156.0893 H   0  0  0  0  0  0  0  0  0  0  0  0  # atno 11005 bound_to 11000
  146.2525  139.6230  142.9417 LP  0  0  0  0  0  0  0  0  0  0  0  0  # atno 17320 bound_to 7965
  145.5085  141.0436  143.2501 LP  0  0  0  0  0  0  0  0  0  0  0  0  # atno 17321 bound_to 7965
  140.6458  143.8797  150.6736 LP  0  0  0  0  0  0  0  0  0  0  0  0  # atno 17342 bound_to 10162
  140.2146  143.3856  152.1691 LP  0  0  0  0  0  0  0  0  0  0  0  0  # atno 17343 bound_to 10162
  157.7494  131.0335  150.4275 LP  0  0  0  0  0  0  0  0  0  0  0  0  # atno 17370 bound_to 10713
  156.4524  130.4014  149.6627 LP  0  0  0  0  0  0  0  0  0  0  0  0  # atno 17371 bound_to 10713
  140.7902  134.3626  157.5466 LP  0  0  0  0  0  0  0  0  0  0  0  0  # atno 17394 bound_to 11000
  139.8789  134.9135  156.3086 LP  0  0  0  0  0  0  0  0  0  0  0  0  # atno 17395 bound_to 11000

$$$$
