AV-unprocessed.smi:1701|AV-procd|sdf|6827|dock8
  -GOLD-   22720 8 03D 1   1.00000     0.00000
 Structure written by MMmdl.
 55 57  0  0  0  0  0  0  0  0  3 V2000
  151.6650  145.1398  159.3895 C   0  0  0  0  0  0  0  0  0  0  0  0
  152.0877  144.1642  158.2815 C   0  0  0  0  0  0  0  0  0  0  0  0
  152.6352  142.9092  158.7962 N   0  0  0  0  0  0  0  0  0  0  0  0
  153.6846  142.9474  159.8174 C   0  0  0  0  0  0  0  0  0  0  0  0
  153.2639  142.2923  161.1422 C   0  0  0  0  0  0  0  0  0  0  0  0
  152.0291  141.6753  158.4562 C   0  0  0  0  0  0  0  0  0  0  0  0
  152.6000  140.4122  158.7535 C   0  0  0  0  0  0  0  0  0  0  0  0
  151.9302  139.2301  158.3777 C   0  0  0  0  0  0  0  0  0  0  0  0
  150.6880  139.3057  157.7149 C   0  0  0  0  0  0  0  0  0  0  0  0
  150.0614  138.0858  157.3430 N   0  0  0  0  0  0  0  0  0  0  0  0
  150.3237  136.8359  157.7743 C   0  0  0  0  0  0  0  0  0  0  0  0
  151.2039  136.5434  158.5797 O   0  0  0  0  0  0  0  0  0  0  0  0
  149.5497  135.8872  157.2168 N   0  0  0  0  0  0  0  0  0  0  0  0
  149.5717  134.4425  157.4595 C   0  0  2  0  0  0  0  0  0  0  0  0
  148.4025  133.7120  156.8111 C   0  0  0  0  0  0  0  0  0  0  0  0
  148.3645  132.3797  157.5656 C   0  0  0  0  0  0  0  0  0  0  0  0
  148.9339  132.6336  158.9115 N   0  3  2  0  0  0  0  0  0  0  0  0
  148.0246  132.2690  160.0306 C   0  0  0  0  0  0  0  0  0  0  0  0
  148.5010  132.8934  161.3506 C   0  0  0  0  0  0  0  0  0  0  0  0
  148.5022  134.4323  161.2799 C   0  0  0  0  0  0  0  0  0  0  0  0
  148.5978  134.9566  159.8344 C   0  0  0  0  0  0  0  0  0  0  0  0
  149.4580  134.0294  158.9414 C   0  0  2  0  0  0  0  0  0  0  0  0
  150.1602  140.5874  157.4320 C   0  0  0  0  0  0  0  0  0  0  0  0
  150.8373  141.6930  157.8093 N   0  3  0  0  0  0  0  0  0  0  0  0
  151.2120  146.0329  158.9588 H   0  0  0  0  0  0  0  0  0  0  0  0
  152.5182  145.4651  159.9833 H   0  0  0  0  0  0  0  0  0  0  0  0
  150.9354  144.6922  160.0646 H   0  0  0  0  0  0  0  0  0  0  0  0
  151.2530  143.9641  157.6100 H   0  0  0  0  0  0  0  0  0  0  0  0
  152.8425  144.6445  157.6581 H   0  0  0  0  0  0  0  0  0  0  0  0
  154.5921  142.4774  159.4369 H   0  0  0  0  0  0  0  0  0  0  0  0
  153.9547  143.9865  160.0071 H   0  0  0  0  0  0  0  0  0  0  0  0
  154.0778  142.3380  161.8661 H   0  0  0  0  0  0  0  0  0  0  0  0
  153.0045  141.2421  161.0079 H   0  0  0  0  0  0  0  0  0  0  0  0
  152.4049  142.7931  161.5868 H   0  0  0  0  0  0  0  0  0  0  0  0
  153.5502  140.3227  159.2572 H   0  0  0  0  0  0  0  0  0  0  0  0
  152.3728  138.2704  158.6020 H   0  0  0  0  0  0  0  0  0  0  0  0
  149.3548  138.1645  156.6270 H   0  0  0  0  0  0  0  0  0  0  0  0
  148.8883  136.2038  156.5219 H   0  0  0  0  0  0  0  0  0  0  0  0
  150.4889  134.0215  157.0420 H   0  0  0  0  0  0  0  0  0  0  0  0
  147.4730  134.2579  156.9807 H   0  0  0  0  0  0  0  0  0  0  0  0
  148.5245  133.5832  155.7351 H   0  0  0  0  0  0  0  0  0  0  0  0
  147.3573  131.9616  157.5949 H   0  0  0  0  0  0  0  0  0  0  0  0
  149.0031  131.6504  157.0661 H   0  0  0  0  0  0  0  0  0  0  0  0
  147.0098  132.6101  159.8178 H   0  0  0  0  0  0  0  0  0  0  0  0
  147.9811  131.1826  160.1136 H   0  0  0  0  0  0  0  0  0  0  0  0
  147.8762  132.5587  162.1793 H   0  0  0  0  0  0  0  0  0  0  0  0
  149.5092  132.5373  161.5670 H   0  0  0  0  0  0  0  0  0  0  0  0
  147.5968  134.8294  161.7402 H   0  0  0  0  0  0  0  0  0  0  0  0
  149.3344  134.8144  161.8724 H   0  0  0  0  0  0  0  0  0  0  0  0
  147.5951  135.0350  159.4118 H   0  0  0  0  0  0  0  0  0  0  0  0
  148.9978  135.9706  159.8527 H   0  0  0  0  0  0  0  0  0  0  0  0
  150.4589  133.9979  159.3746 H   0  0  0  0  0  0  0  0  0  0  0  0
  149.2352  140.7817  156.9103 H   0  0  0  0  0  0  0  0  0  0  0  0
  149.7423  132.0330  158.9927 H   0  0  0  0  0  0  0  0  0  0  0  0
  150.4261  142.6002  157.5885 H   0  0  0  0  0  0  0  0  0  0  0  0
  1  2  1  0  0  0  0
  1 25  1  0  0  0  0
  1 26  1  0  0  0  0
  1 27  1  0  0  0  0
  2  3  1  0  0  0  0
  2 28  1  0  0  0  0
  2 29  1  0  0  0  0
  3  4  1  0  0  0  0
  3  6  1  0  0  0  0
  4  5  1  0  0  0  0
  4 30  1  0  0  0  0
  4 31  1  0  0  0  0
  5 32  1  0  0  0  0
  5 33  1  0  0  0  0
  5 34  1  0  0  0  0
  6 24  1  0  0  0  0
  6  7  2  0  0  0  0
  7  8  1  0  0  0  0
  7 35  1  0  0  0  0
  8  9  2  0  0  0  0
  8 36  1  0  0  0  0
  9 10  1  0  0  0  0
  9 23  1  0  0  0  0
 10 11  1  0  0  0  0
 10 37  1  0  0  0  0
 11 12  2  0  0  0  0
 11 13  1  0  0  0  0
 13 14  1  0  0  0  0
 13 38  1  0  0  0  0
 14 22  1  0  0  0  0
 14 15  1  0  0  0  0
 14 39  1  0  0  0  0
 15 16  1  0  0  0  0
 15 40  1  0  0  0  0
 15 41  1  0  0  0  0
 16 17  1  0  0  0  0
 16 42  1  0  0  0  0
 16 43  1  0  0  0  0
 17 22  1  0  0  0  0
 17 18  1  0  0  0  0
 17 54  1  0  0  0  0
 18 19  1  0  0  0  0
 18 44  1  0  0  0  0
 18 45  1  0  0  0  0
 19 20  1  0  0  0  0
 19 46  1  0  0  0  0
 19 47  1  0  0  0  0
 20 21  1  0  0  0  0
 20 48  1  0  0  0  0
 20 49  1  0  0  0  0
 21 22  1  0  0  0  0
 21 50  1  0  0  0  0
 21 51  1  0  0  0  0
 22 52  1  0  0  0  0
 23 24  2  0  0  0  0
 23 53  1  0  0  0  0
 24 55  1  0  0  0  0
M  CHG  1  17   1
M  CHG  1  24   1
M  END
> <s_m_source_file>
AV-unprocessed.smi

> <i_m_source_file_index>
1701

> <i_lp_mmshare_version>
43012

> <i_f3d_flags>
0

> <s_epik_input>
W0NIM11bQ0gyXU4oW0NIMl1bQ0gzXSljMVtjSF1bY0hdYyhbY0hdbjEpW05IXUMoPU8pW05IXVtDQEhdKFtDSDJdW0NIMl0yKVtDQEBIXShOMjMpW0NIMl1bQ0gyXVtDSDJdW0NIMl0z

> <s_epik_cmdline>
J2VwaWtfcHl0aG9uJywgJy1waCcsICc3LjAnLCAnLXRuJywgJzgnLCAnLW1hJywgJzIwMCcsICctbWV0YWxfYmluZGluZycsICctaW1hZScsICc8aW5maWxlLm1hZT4nLCAnLW9tYWUnLCAnPG91dGZpbGUubWFlPic=

> <r_lp_tautomer_probability>
0.999994

> <r_epik_Ionization_Penalty>
0.302862

> <r_epik_Ionization_Penalty_Charging>
0.302842

> <r_epik_Ionization_Penalty_Neutral>
1.95166e-05

> <r_epik_State_Penalty>
0.019791

> <r_epik_Charging_Adjusted_Penalty>
0.322633

> <i_epik_Tot_Q>
2

> <i_epik_Tot_abs_Q>
2

> <r_epik_Metal_State_Penalty>
0.0536763

> <b_epik_Metal_Only>
0

> <s_lp_Force_Field>
OPLS_2005

> <r_lp_Energy>
67.6643

> <b_lp_Chiralities_Consistent>
1

> <s_lp_Variant>
AV-unprocessed.smi:1701-7

> <Gold.Version>
5.8.1

> <Gold.Id.Protein>
6NUR|6NUR_protein|mol2

> <Gold.PLP.Fitness>
47.3169

> <Gold.PLP.PLP>
-44.7559

> <Gold.PLP.part.hbond>
-1.0000

> <Gold.PLP.part.metal>
0.0000

> <Gold.PLP.part.buried>
-6.6310

> <Gold.PLP.part.nonpolar>
-38.1485

> <Gold.PLP.part.repulsive>
0.2734

> <Gold.PLP.ligand.clash>
0.0000

> <Gold.PLP.ligand.torsion>
0.2801

> <Gold.PLP.Chemscore.Hbond>
1.0000

> <Gold.PLP.Chemscore.CHOScore>
0.0000

> <Gold.PLP.Chemscore.Metal>
0.0000

> <Gold.Chemscore.Hbonds>
donor molecule, donor type, donor heavy atom, donor atom, acceptor molecule, acceptor atom, score
      P1  H  6896  6909       L1    12  0.59

> <Gold.PLP.Chemscore.Internal.Correction>
0.1211

> <Gold.Rescore>
     Score         DG    S(hbond)    S(metal)    S(lipo)     H(rot)  DE(clash)    DE(int)     intcor
     16.99     -18.77       0.97        0.00     114.48       1.30       0.09       1.70       ----

> <Gold.Chemscore.Fitness>
16.9866

> <Gold.Chemscore.DG>
-18.7678

> <Gold.Chemscore.ZeroCoef>
-5.4800

> <Gold.Chemscore.Hbond>
0.9660

> <Gold.Chemscore.Metal>
0.0000

> <Gold.Chemscore.Lipo>
114.4834

> <Gold.Chemscore.Internal_Hbond>
0.0000

> <Gold.Chemscore.DEClash>
0.0853

> <Gold.Chemscore.DEInternal>
1.6959

> <Gold.Chemscore.Rot>
1.3020

> <Gold.Chemscore.Internal.Correction>
   9.000000E+99

> <Gold.Chemscore.Hbonds>
donor molecule, donor type, donor heavy atom, donor atom, acceptor molecule, acceptor atom, score
      P1  H  6896  6909       L1    12  0.52

> <Gold.Chemscore.Hbond.Weighted>
-3.2263

> <Gold.Chemscore.Metal.Weighted>
-0.0000

> <Gold.Chemscore.Lipo.Weighted>
-13.3946

> <Gold.Chemscore.Internal_Hbond.Weighted>
0.0000

> <Gold.Chemscore.DEClash.Weighted>
0.0853

> <Gold.Chemscore.DEInternal.Weighted>
1.6959

> <Gold.Chemscore.Rot.Weighted>
3.3330

> <Gold.Chemscore.Internal.Correction.Weighted>
   9.000000E+99

> <Gold.Protein.RotatedTorsions>
[ 6907 6896 6895 6894 ] final   72.50 input  -60.11 | X-H torsion
[ 7974 7965 7964 7962 ] final  -76.77 input  175.53 | X-H torsion
[ 8008 7997 7996 7995 ] final   64.58 input   59.86 | X-H torsion
[ 10167 10162 10161 10158 ] final  -33.33 input  -65.29 | X-H torsion
[ 10718 10713 10712 10709 ] final  127.01 input   66.30 | X-H torsion
[ 10763 10752 10751 10750 ] final -114.73 input  -60.55 | X-H torsion
[ 11005 11000 10999 10996 ] final  -33.07 input  -57.11 | X-H torsion

> <Gold.Protein.ActiveResidues>
 VAL166  LYS551  ARG553  GLY616  TRP617  ASP618  TYR619  PRO620  LYS621  CYS622 
 ASP623  PHE694  ASN695  SER759  ASP760  ASP761  ALA762  ILE779  LEU786  VAL792 
 PHE793  MET794  SER795  GLU796  ALA797  LYS798  CYS799  TRP800  GLU811  SER814 

> <Gold.Protein.RotatedAtoms>
  152.4871  134.4562  159.9590 H   0  0  0  0  0  0  0  0  0  0  0  0  # atno 6907 bound_to 6896
  151.4556  133.3600  159.2809 H   0  0  0  0  0  0  0  0  0  0  0  0  # atno 6908 bound_to 6896
  150.8991  134.8427  159.7408 H   0  0  0  0  0  0  0  0  0  0  0  0  # atno 6909 bound_to 6896
  145.6084  140.9392  143.1203 H   0  0  0  0  0  0  0  0  0  0  0  0  # atno 7974 bound_to 7965
  155.6482  140.3497  155.4739 H   0  0  0  0  0  0  0  0  0  0  0  0  # atno 8008 bound_to 7997
  155.9870  140.1186  157.0697 H   0  0  0  0  0  0  0  0  0  0  0  0  # atno 8009 bound_to 7997
  154.4208  140.1127  156.5499 H   0  0  0  0  0  0  0  0  0  0  0  0  # atno 8010 bound_to 7997
  140.7206  143.3628  151.1929 H   0  0  0  0  0  0  0  0  0  0  0  0  # atno 10167 bound_to 10162
  157.5370  131.1097  150.8920 H   0  0  0  0  0  0  0  0  0  0  0  0  # atno 10718 bound_to 10713
  154.8452  135.4407  154.1552 H   0  0  0  0  0  0  0  0  0  0  0  0  # atno 10763 bound_to 10752
  153.2703  135.6944  153.7494 H   0  0  0  0  0  0  0  0  0  0  0  0  # atno 10764 bound_to 10752
  153.6737  135.3414  155.3135 H   0  0  0  0  0  0  0  0  0  0  0  0  # atno 10765 bound_to 10752
  140.9605  133.7167  156.1361 H   0  0  0  0  0  0  0  0  0  0  0  0  # atno 11005 bound_to 11000
  144.7280  139.7814  143.7358 LP  0  0  0  0  0  0  0  0  0  0  0  0  # atno 17320 bound_to 7965
  146.1523  139.4610  143.0041 LP  0  0  0  0  0  0  0  0  0  0  0  0  # atno 17321 bound_to 7965
  139.7184  143.9263  152.2976 LP  0  0  0  0  0  0  0  0  0  0  0  0  # atno 17342 bound_to 10162
  139.9012  144.6911  150.8663 LP  0  0  0  0  0  0  0  0  0  0  0  0  # atno 17343 bound_to 10162
  156.9484  130.5410  149.5282 LP  0  0  0  0  0  0  0  0  0  0  0  0  # atno 17370 bound_to 10713
  156.0466  130.5542  150.8895 LP  0  0  0  0  0  0  0  0  0  0  0  0  # atno 17371 bound_to 10713
  140.7475  134.4082  157.5546 LP  0  0  0  0  0  0  0  0  0  0  0  0  # atno 17394 bound_to 11000
  139.8876  134.8877  156.2518 LP  0  0  0  0  0  0  0  0  0  0  0  0  # atno 17395 bound_to 11000

$$$$
