AV-unprocessed.smi:1447|AV-procd|sdf|5891|dock2
  -GOLD-   22720 5573D 1   1.00000     0.00000
 Structure written by MMmdl.
 48 50  0  0  0  0  0  0  0  0  2 V2000
  147.9321  145.0224  161.3463 C   0  0  0  0  0  0  0  0  0  0  0  0
  149.1464  144.3271  161.1271 O   0  0  0  0  0  0  0  0  0  0  0  0
  149.8059  144.7411  159.9419 C   0  0  0  0  0  0  0  0  0  0  0  0
  151.3242  144.7939  160.1789 C   0  0  0  0  0  0  0  0  0  0  0  0
  151.9412  143.4671  160.0677 N   0  0  0  0  0  0  0  0  0  0  0  0
  151.6773  142.8250  158.8691 N   0  0  0  0  0  0  0  0  0  0  0  0
  152.1702  141.6514  158.6371 C   0  0  0  0  0  0  0  0  0  0  0  0
  151.9082  140.9291  157.3614 C   0  0  0  0  0  0  0  0  0  0  0  0
  152.6692  140.0574  156.9379 O   0  0  0  0  0  0  0  0  0  0  0  0
  150.7871  141.2938  156.7128 N   0  0  0  0  0  0  0  0  0  0  0  0
  150.3250  140.7340  155.4470 C   0  0  2  0  0  0  0  0  0  0  0  0
  148.9681  141.3509  155.0694 C   0  0  0  0  0  0  0  0  0  0  0  0
  148.4061  140.7162  153.7862 C   0  0  0  0  0  0  0  0  0  0  0  0
  148.2927  139.2430  153.9244 N   0  3  1  0  0  0  0  0  0  0  0  0
  147.6499  138.6219  152.7459 C   0  0  0  0  0  0  0  0  0  0  0  0
  146.5725  139.4776  152.1214 C   0  0  0  0  0  0  0  0  0  0  0  0
  146.1945  138.2749  152.9573 C   0  0  0  0  0  0  0  0  0  0  0  0
  149.6005  138.6188  154.2435 C   0  0  0  0  0  0  0  0  0  0  0  0
  150.1893  139.2021  155.5386 C   0  0  0  0  0  0  0  0  0  0  0  0
  153.0056  140.9870  159.6225 C   0  0  0  0  0  0  0  0  0  0  0  0
  153.2549  141.6255  160.7867 C   0  0  0  0  0  0  0  0  0  0  0  0
  152.7102  142.9533  161.0750 C   0  0  0  0  0  0  0  0  0  0  0  0
  152.9251  143.5525  162.1280 O   0  0  0  0  0  0  0  0  0  0  0  0
  147.4647  144.6629  162.2629 H   0  0  0  0  0  0  0  0  0  0  0  0
  147.2312  144.8619  160.5261 H   0  0  0  0  0  0  0  0  0  0  0  0
  148.1062  146.0937  161.4548 H   0  0  0  0  0  0  0  0  0  0  0  0
  149.5899  144.0296  159.1434 H   0  0  0  0  0  0  0  0  0  0  0  0
  149.4357  145.7149  159.6162 H   0  0  0  0  0  0  0  0  0  0  0  0
  151.7885  145.5114  159.5006 H   0  0  0  0  0  0  0  0  0  0  0  0
  151.5119  145.1869  161.1797 H   0  0  0  0  0  0  0  0  0  0  0  0
  150.2187  142.0177  157.1293 H   0  0  0  0  0  0  0  0  0  0  0  0
  151.0447  140.9836  154.6649 H   0  0  0  0  0  0  0  0  0  0  0  0
  148.2556  141.2101  155.8838 H   0  0  0  0  0  0  0  0  0  0  0  0
  149.0722  142.4279  154.9321 H   0  0  0  0  0  0  0  0  0  0  0  0
  147.4243  141.1396  153.5711 H   0  0  0  0  0  0  0  0  0  0  0  0
  149.0469  140.9552  152.9358 H   0  0  0  0  0  0  0  0  0  0  0  0
  148.2837  137.9907  152.1251 H   0  0  0  0  0  0  0  0  0  0  0  0
  146.3835  140.4620  152.5460 H   0  0  0  0  0  0  0  0  0  0  0  0
  146.4319  139.4011  151.0450 H   0  0  0  0  0  0  0  0  0  0  0  0
  145.8047  137.4056  152.4316 H   0  0  0  0  0  0  0  0  0  0  0  0
  145.7542  138.4630  153.9349 H   0  0  0  0  0  0  0  0  0  0  0  0
  149.4748  137.5411  154.3549 H   0  0  0  0  0  0  0  0  0  0  0  0
  150.2920  138.7727  153.4135 H   0  0  0  0  0  0  0  0  0  0  0  0
  151.1607  138.7464  155.7341 H   0  0  0  0  0  0  0  0  0  0  0  0
  149.5486  138.9351  156.3803 H   0  0  0  0  0  0  0  0  0  0  0  0
  153.4202  140.0067  159.4374 H   0  0  0  0  0  0  0  0  0  0  0  0
  153.8745  141.1432  161.5283 H   0  0  0  0  0  0  0  0  0  0  0  0
  147.6851  139.0679  154.7120 H   0  0  0  0  0  0  0  0  0  0  0  0
  1  2  1  0  0  0  0
  1 24  1  0  0  0  0
  1 25  1  0  0  0  0
  1 26  1  0  0  0  0
  2  3  1  0  0  0  0
  3  4  1  0  0  0  0
  3 27  1  0  0  0  0
  3 28  1  0  0  0  0
  4  5  1  0  0  0  0
  4 29  1  0  0  0  0
  4 30  1  0  0  0  0
  5 22  1  0  0  0  0
  5  6  1  0  0  0  0
  6  7  2  0  0  0  0
  7  8  1  0  0  0  0
  7 20  1  0  0  0  0
  8  9  2  0  0  0  0
  8 10  1  0  0  0  0
 10 11  1  0  0  0  0
 10 31  1  0  0  0  0
 11 19  1  0  0  0  0
 11 12  1  0  0  0  0
 11 32  1  0  0  0  0
 12 13  1  0  0  0  0
 12 33  1  0  0  0  0
 12 34  1  0  0  0  0
 13 14  1  0  0  0  0
 13 35  1  0  0  0  0
 13 36  1  0  0  0  0
 14 15  1  0  0  0  0
 14 18  1  0  0  0  0
 14 48  1  0  0  0  0
 15 17  1  0  0  0  0
 15 16  1  0  0  0  0
 15 37  1  0  0  0  0
 16 17  1  0  0  0  0
 16 38  1  0  0  0  0
 16 39  1  0  0  0  0
 17 40  1  0  0  0  0
 17 41  1  0  0  0  0
 18 19  1  0  0  0  0
 18 42  1  0  0  0  0
 18 43  1  0  0  0  0
 19 44  1  0  0  0  0
 19 45  1  0  0  0  0
 20 21  2  0  0  0  0
 20 46  1  0  0  0  0
 21 22  1  0  0  0  0
 21 47  1  0  0  0  0
 22 23  2  0  0  0  0
M  CHG  1  14   1
M  END
> <s_m_source_file>
AV-unprocessed.smi

> <i_m_source_file_index>
1447

> <i_lp_mmshare_version>
43012

> <i_f3d_flags>
0

> <s_epik_input>
W0NIM11PW0NIMl1bQ0gyXW4xbmMoW2NIXVtjSF1jMT1PKUMoPU8pW05IXVtDSF0yW0NIMl1bQ0gyXU4oW0NIMl1bQ0gyXTIpW0NIXTNbQ0gyXVtDSDJdMw==

> <s_epik_cmdline>
J2VwaWtfcHl0aG9uJywgJy1waCcsICc3LjAnLCAnLXRuJywgJzgnLCAnLW1hJywgJzIwMCcsICctbWV0YWxfYmluZGluZycsICctaW1hZScsICc8aW5maWxlLm1hZT4nLCAnLW9tYWUnLCAnPG91dGZpbGUubWFlPic=

> <r_lp_tautomer_probability>
1

> <r_epik_Ionization_Penalty>
0.168623

> <r_epik_Ionization_Penalty_Charging>
0.16862

> <r_epik_Ionization_Penalty_Neutral>
2.93027e-06

> <r_epik_State_Penalty>
0.157986

> <r_epik_Charging_Adjusted_Penalty>
0.326605

> <i_epik_Tot_Q>
1

> <i_epik_Tot_abs_Q>
1

> <r_epik_Metal_State_Penalty>
0.157986

> <b_epik_Metal_Only>
0

> <s_lp_Force_Field>
OPLS_2005

> <r_lp_Energy>
46.6346

> <b_lp_Chiralities_Consistent>
1

> <s_lp_Variant>
AV-unprocessed.smi:1447-1

> <Gold.Version>
5.8.1

> <Gold.Id.Protein>
6NUR|6NUR_protein|mol2

> <Gold.PLP.Fitness>
45.7994

> <Gold.PLP.PLP>
-42.5159

> <Gold.PLP.part.hbond>
-2.9363

> <Gold.PLP.part.metal>
0.0000

> <Gold.PLP.part.buried>
5.3853

> <Gold.PLP.part.nonpolar>
-44.0858

> <Gold.PLP.part.repulsive>
0.4633

> <Gold.PLP.ligand.clash>
0.0000

> <Gold.PLP.ligand.torsion>
1.5159

> <Gold.PLP.Chemscore.Hbond>
1.6560

> <Gold.PLP.Chemscore.CHOScore>
0.0000

> <Gold.PLP.Chemscore.Metal>
0.0000

> <Gold.Chemscore.Hbonds>
donor molecule, donor type, donor heavy atom, donor atom, acceptor molecule, acceptor atom, score
      P1  H  6933  6944       L1     2  0.52
      P1  H  7997  8009       L1     9  0.99

> <Gold.PLP.Chemscore.Internal.Correction>
1.3472

> <Gold.Rescore>
     Score         DG    S(hbond)    S(metal)    S(lipo)     H(rot)  DE(clash)    DE(int)     intcor
     12.45     -17.63       1.27        0.00     106.10       1.76       2.27       2.90       ----

> <Gold.Chemscore.Fitness>
12.4544

> <Gold.Chemscore.DG>
-17.6277

> <Gold.Chemscore.ZeroCoef>
-5.4800

> <Gold.Chemscore.Hbond>
1.2699

> <Gold.Chemscore.Metal>
0.0000

> <Gold.Chemscore.Lipo>
106.1032

> <Gold.Chemscore.Internal_Hbond>
0.0000

> <Gold.Chemscore.DEClash>
2.2731

> <Gold.Chemscore.DEInternal>
2.9002

> <Gold.Chemscore.Rot>
1.7608

> <Gold.Chemscore.Internal.Correction>
   9.000000E+99

> <Gold.Chemscore.Hbonds>
donor molecule, donor type, donor heavy atom, donor atom, acceptor molecule, acceptor atom, score
      P1  H  6933  6944       L1     2  0.15
      P1  H  7997  8009       L1     9  0.94

> <Gold.Chemscore.Hbond.Weighted>
-4.2414

> <Gold.Chemscore.Metal.Weighted>
-0.0000

> <Gold.Chemscore.Lipo.Weighted>
-12.4141

> <Gold.Chemscore.Internal_Hbond.Weighted>
0.0000

> <Gold.Chemscore.DEClash.Weighted>
2.2731

> <Gold.Chemscore.DEInternal.Weighted>
2.9002

> <Gold.Chemscore.Rot.Weighted>
4.5077

> <Gold.Chemscore.Internal.Correction.Weighted>
   9.000000E+99

> <Gold.Protein.RotatedTorsions>
[ 6907 6896 6895 6894 ] final   -0.71 input  -60.11 | X-H torsion
[ 7974 7965 7964 7962 ] final  -35.06 input  175.53 | X-H torsion
[ 8008 7997 7996 7995 ] final -162.16 input   59.86 | X-H torsion
[ 10167 10162 10161 10158 ] final  155.45 input  -65.29 | X-H torsion
[ 10718 10713 10712 10709 ] final -112.61 input   66.30 | X-H torsion
[ 10763 10752 10751 10750 ] final  -39.26 input  -60.55 | X-H torsion
[ 11005 11000 10999 10996 ] final  161.08 input  -57.11 | X-H torsion

> <Gold.Protein.ActiveResidues>
 VAL166  LYS551  ARG553  GLY616  TRP617  ASP618  TYR619  PRO620  LYS621  CYS622 
 ASP623  PHE694  ASN695  SER759  ASP760  ASP761  ALA762  ILE779  LEU786  VAL792 
 PHE793  MET794  SER795  GLU796  ALA797  LYS798  CYS799  TRP800  GLU811  SER814 

> <Gold.Protein.RotatedAtoms>
  151.5579  135.1066  159.9965 H   0  0  0  0  0  0  0  0  0  0  0  0  # atno 6907 bound_to 6896
  152.4460  133.7534  159.6717 H   0  0  0  0  0  0  0  0  0  0  0  0  # atno 6908 bound_to 6896
  150.8376  133.7920  159.3097 H   0  0  0  0  0  0  0  0  0  0  0  0  # atno 6909 bound_to 6896
  146.0778  140.6114  142.8922 H   0  0  0  0  0  0  0  0  0  0  0  0  # atno 7974 bound_to 7965
  155.8028  140.0894  157.1947 H   0  0  0  0  0  0  0  0  0  0  0  0  # atno 8008 bound_to 7997
  154.3981  140.1469  156.3354 H   0  0  0  0  0  0  0  0  0  0  0  0  # atno 8009 bound_to 7997
  155.8445  140.3437  155.5656 H   0  0  0  0  0  0  0  0  0  0  0  0  # atno 8010 bound_to 7997
  139.4821  144.5098  151.8042 H   0  0  0  0  0  0  0  0  0  0  0  0  # atno 10167 bound_to 10162
  156.0716  130.5929  150.8531 H   0  0  0  0  0  0  0  0  0  0  0  0  # atno 10718 bound_to 10713
  153.9264  135.6776  153.4746 H   0  0  0  0  0  0  0  0  0  0  0  0  # atno 10763 bound_to 10752
  153.1002  135.4832  154.8849 H   0  0  0  0  0  0  0  0  0  0  0  0  # atno 10764 bound_to 10752
  154.7451  135.3170  154.8616 H   0  0  0  0  0  0  0  0  0  0  0  0  # atno 10765 bound_to 10752
  140.2123  134.8258  157.3133 H   0  0  0  0  0  0  0  0  0  0  0  0  # atno 11005 bound_to 11000
  144.7273  140.4563  143.6964 LP  0  0  0  0  0  0  0  0  0  0  0  0  # atno 17320 bound_to 7965
  145.6274  139.1532  143.2988 LP  0  0  0  0  0  0  0  0  0  0  0  0  # atno 17321 bound_to 7965
  140.4599  144.1736  150.5905 LP  0  0  0  0  0  0  0  0  0  0  0  0  # atno 17342 bound_to 10162
  140.4495  143.2492  151.9366 LP  0  0  0  0  0  0  0  0  0  0  0  0  # atno 17343 bound_to 10162
  157.5789  131.0946  150.9301 LP  0  0  0  0  0  0  0  0  0  0  0  0  # atno 17370 bound_to 10713
  156.9501  130.5416  149.5282 LP  0  0  0  0  0  0  0  0  0  0  0  0  # atno 17371 bound_to 10713
  140.1938  134.4339  155.7701 LP  0  0  0  0  0  0  0  0  0  0  0  0  # atno 17394 bound_to 11000
  141.2226  133.7039  156.8071 LP  0  0  0  0  0  0  0  0  0  0  0  0  # atno 17395 bound_to 11000

$$$$
