AV-unprocessed.smi:291|AV-procd|sdf|2248|dock2
  -GOLD-   2262022133D 1   1.00000     0.00000
 Structure written by MMmdl.
 35 36  0  0  0  0  0  0  0  0  1 V2000
  152.2088  144.2717  157.8671 C   0  0  0  0  0  0  0  0  0  0  0  0
  152.0696  143.2082  158.9654 C   0  0  2  0  0  0  0  0  0  0  0  0
  153.1924  143.3318  160.0133 C   0  0  0  0  0  0  0  0  0  0  0  0
  153.0618  142.2636  161.1139 C   0  0  0  0  0  0  0  0  0  0  0  0
  153.0098  140.8358  160.5384 C   0  0  2  0  0  0  0  0  0  0  0  0
  154.3136  140.4694  159.9910 N   0  0  0  0  0  0  0  0  0  0  0  0
  155.4797  140.4856  160.6559 C   0  0  0  0  0  0  0  0  0  0  0  0
  155.5840  140.8140  161.8372 O   0  0  0  0  0  0  0  0  0  0  0  0
  156.7201  140.0519  159.8710 C   0  0  0  0  0  0  0  0  0  0  0  0
  156.5378  138.7456  159.2619 N   0  0  0  0  0  0  0  0  0  0  0  0
  157.3528  137.6863  159.2179 C   0  0  0  0  0  0  0  0  0  0  0  0
  156.8551  136.6500  158.5541 N   0  0  0  0  0  0  0  0  0  0  0  0
  155.6512  137.1851  158.1979 C   0  0  0  0  0  0  0  0  0  0  0  0
  154.6846  136.4291  157.4199 C   0  0  0  0  0  0  0  0  0  0  0  0
  153.9145  135.8270  156.8005 N   0  0  0  0  0  0  0  0  0  0  0  0
  155.4020  138.4324  158.5909 N   0  0  0  0  0  0  0  0  0  0  0  0
  151.9052  140.7149  159.4688 C   0  0  0  0  0  0  0  0  0  0  0  0
  152.0392  141.7864  158.3719 C   0  0  0  0  0  0  0  0  0  0  0  0
  153.1411  144.1516  157.3145 H   0  0  0  0  0  0  0  0  0  0  0  0
  152.1993  145.2766  158.2900 H   0  0  0  0  0  0  0  0  0  0  0  0
  151.3876  144.2076  157.1527 H   0  0  0  0  0  0  0  0  0  0  0  0
  151.1186  143.3815  159.4714 H   0  0  0  0  0  0  0  0  0  0  0  0
  154.1645  143.2418  159.5263 H   0  0  0  0  0  0  0  0  0  0  0  0
  153.1696  144.3232  160.4669 H   0  0  0  0  0  0  0  0  0  0  0  0
  153.8862  142.3547  161.8225 H   0  0  0  0  0  0  0  0  0  0  0  0
  152.1512  142.4511  161.6843 H   0  0  0  0  0  0  0  0  0  0  0  0
  152.7752  140.1554  161.3590 H   0  0  0  0  0  0  0  0  0  0  0  0
  154.3304  140.1804  159.0233 H   0  0  0  0  0  0  0  0  0  0  0  0
  156.9377  140.7751  159.0839 H   0  0  0  0  0  0  0  0  0  0  0  0
  157.5853  140.0276  160.5354 H   0  0  0  0  0  0  0  0  0  0  0  0
  158.3309  137.6758  159.6762 H   0  0  0  0  0  0  0  0  0  0  0  0
  151.9155  139.7199  159.0223 H   0  0  0  0  0  0  0  0  0  0  0  0
  150.9316  140.8186  159.9492 H   0  0  0  0  0  0  0  0  0  0  0  0
  151.2091  141.6936  157.6708 H   0  0  0  0  0  0  0  0  0  0  0  0
  152.9475  141.6079  157.7947 H   0  0  0  0  0  0  0  0  0  0  0  0
  1  2  1  0  0  0  0
  1 19  1  0  0  0  0
  1 20  1  0  0  0  0
  1 21  1  0  0  0  0
  2 18  1  0  0  0  0
  2  3  1  0  0  0  0
  2 22  1  0  0  0  0
  3  4  1  0  0  0  0
  3 23  1  0  0  0  0
  3 24  1  0  0  0  0
  4  5  1  0  0  0  0
  4 25  1  0  0  0  0
  4 26  1  0  0  0  0
  5  6  1  0  0  0  0
  5 17  1  0  0  0  0
  5 27  1  0  0  0  0
  6  7  1  0  0  0  0
  6 28  1  0  0  0  0
  7  8  2  0  0  0  0
  7  9  1  0  0  0  0
  9 10  1  0  0  0  0
  9 29  1  0  0  0  0
  9 30  1  0  0  0  0
 10 16  1  0  0  0  0
 10 11  1  0  0  0  0
 11 12  2  0  0  0  0
 11 31  1  0  0  0  0
 12 13  1  0  0  0  0
 13 14  1  0  0  0  0
 13 16  2  0  0  0  0
 14 15  3  0  0  0  0
 17 18  1  0  0  0  0
 17 32  1  0  0  0  0
 17 33  1  0  0  0  0
 18 34  1  0  0  0  0
 18 35  1  0  0  0  0
M  END
> <s_m_source_file>
AV-unprocessed.smi

> <i_m_source_file_index>
291

> <i_lp_mmshare_version>
43012

> <i_f3d_flags>
0

> <s_epik_input>
W0NIM11bQ0BASF0xW0NIMl1bQ0gyXVtDQEhdKFtDSDJdW0NIMl0xKVtOSF1DKD1PKVtDSDJdbjJbY0hdbmMobjIpQyNO

> <s_epik_cmdline>
J2VwaWtfcHl0aG9uJywgJy1waCcsICc3LjAnLCAnLXRuJywgJzgnLCAnLW1hJywgJzIwMCcsICctbWV0YWxfYmluZGluZycsICctaW1hZScsICc8aW5maWxlLm1hZT4nLCAnLW9tYWUnLCAnPG91dGZpbGUubWFlPic=

> <r_lp_tautomer_probability>
1

> <r_epik_Ionization_Penalty>
5.31112e-08

> <r_epik_Ionization_Penalty_Charging>
0

> <r_epik_Ionization_Penalty_Neutral>
5.31112e-08

> <r_epik_State_Penalty>
-0

> <r_epik_Charging_Adjusted_Penalty>
0

> <i_epik_Tot_Q>
0

> <i_epik_Tot_abs_Q>
0

> <r_epik_Metal_State_Penalty>
-0

> <b_epik_Metal_Only>
0

> <s_lp_Force_Field>
OPLS_2005

> <r_lp_Energy>
11.449

> <b_lp_Chiralities_Consistent>
1

> <s_lp_Variant>
AV-unprocessed.smi:291-2

> <Gold.Version>
5.8.1

> <Gold.Id.Protein>
6NUR|6NUR_protein|mol2

> <Gold.PLP.Fitness>
34.7645

> <Gold.PLP.PLP>
-29.1916

> <Gold.PLP.part.hbond>
-2.8149

> <Gold.PLP.part.metal>
0.0000

> <Gold.PLP.part.buried>
-3.9912

> <Gold.PLP.part.nonpolar>
-24.1150

> <Gold.PLP.part.repulsive>
0.1234

> <Gold.PLP.ligand.clash>
0.0000

> <Gold.PLP.ligand.torsion>
0.2167

> <Gold.PLP.Chemscore.Hbond>
2.0000

> <Gold.PLP.Chemscore.CHOScore>
0.0000

> <Gold.PLP.Chemscore.Metal>
0.0000

> <Gold.Chemscore.Hbonds>
donor molecule, donor type, donor heavy atom, donor atom, acceptor molecule, acceptor atom, score
      P1  H  7997  8009       L1    16  1.00
      P1  H 10752 10763       L1    15  1.00

> <Gold.PLP.Chemscore.Internal.Correction>
0.0062

> <Gold.Rescore>
     Score         DG    S(hbond)    S(metal)    S(lipo)     H(rot)  DE(clash)    DE(int)     intcor
     11.97     -15.95       1.81        0.00      80.56       1.95       1.30       2.69       ----

> <Gold.Chemscore.Fitness>
11.9653

> <Gold.Chemscore.DG>
-15.9543

> <Gold.Chemscore.ZeroCoef>
-5.4800

> <Gold.Chemscore.Hbond>
1.8065

> <Gold.Chemscore.Metal>
0.0000

> <Gold.Chemscore.Lipo>
80.5633

> <Gold.Chemscore.Internal_Hbond>
0.0000

> <Gold.Chemscore.DEClash>
1.3017

> <Gold.Chemscore.DEInternal>
2.6873

> <Gold.Chemscore.Rot>
1.9474

> <Gold.Chemscore.Internal.Correction>
   9.000000E+99

> <Gold.Chemscore.Hbonds>
donor molecule, donor type, donor heavy atom, donor atom, acceptor molecule, acceptor atom, score
      P1  H  7997  8009       L1    16  0.24
      P1  H 10752 10763       L1    15  0.90

> <Gold.Chemscore.Hbond.Weighted>
-6.0337

> <Gold.Chemscore.Metal.Weighted>
-0.0000

> <Gold.Chemscore.Lipo.Weighted>
-9.4259

> <Gold.Chemscore.Internal_Hbond.Weighted>
0.0000

> <Gold.Chemscore.DEClash.Weighted>
1.3017

> <Gold.Chemscore.DEInternal.Weighted>
2.6873

> <Gold.Chemscore.Rot.Weighted>
4.9852

> <Gold.Chemscore.Internal.Correction.Weighted>
   9.000000E+99

> <Gold.Protein.RotatedTorsions>
[ 6907 6896 6895 6894 ] final  157.38 input  -60.11 | X-H torsion
[ 7974 7965 7964 7962 ] final   42.71 input  175.53 | X-H torsion
[ 8008 7997 7996 7995 ] final  109.98 input   59.86 | X-H torsion
[ 10167 10162 10161 10158 ] final   98.43 input  -65.29 | X-H torsion
[ 10718 10713 10712 10709 ] final  -24.24 input   66.30 | X-H torsion
[ 10763 10752 10751 10750 ] final  156.28 input  -60.55 | X-H torsion
[ 11005 11000 10999 10996 ] final -142.41 input  -57.11 | X-H torsion

> <Gold.Protein.ActiveResidues>
 VAL166  LYS551  ARG553  GLY616  TRP617  ASP618  TYR619  PRO620  LYS621  CYS622 
 ASP623  PHE694  ASN695  SER759  ASP760  ASP761  ALA762  ILE779  LEU786  VAL792 
 PHE793  MET794  SER795  GLU796  ALA797  LYS798  CYS799  TRP800  GLU811  SER814 

> <Gold.Protein.RotatedAtoms>
  152.0160  133.3879  159.4238 H   0  0  0  0  0  0  0  0  0  0  0  0  # atno 6907 bound_to 6896
  150.6895  134.3679  159.4988 H   0  0  0  0  0  0  0  0  0  0  0  0  # atno 6908 bound_to 6896
  152.1446  134.9036  160.0602 H   0  0  0  0  0  0  0  0  0  0  0  0  # atno 6909 bound_to 6896
  146.0717  139.5269  142.9593 H   0  0  0  0  0  0  0  0  0  0  0  0  # atno 7974 bound_to 7965
  156.2019  140.3047  155.9545 H   0  0  0  0  0  0  0  0  0  0  0  0  # atno 8008 bound_to 7997
  155.2932  140.0443  157.3041 H   0  0  0  0  0  0  0  0  0  0  0  0  # atno 8009 bound_to 7997
  154.5582  140.2312  155.8385 H   0  0  0  0  0  0  0  0  0  0  0  0  # atno 8010 bound_to 7997
  139.7709  144.6923  151.0157 H   0  0  0  0  0  0  0  0  0  0  0  0  # atno 10167 bound_to 10162
  156.4803  130.4543  149.6816 H   0  0  0  0  0  0  0  0  0  0  0  0  # atno 10718 bound_to 10713
  154.1819  135.2799  155.3049 H   0  0  0  0  0  0  0  0  0  0  0  0  # atno 10763 bound_to 10752
  154.5996  135.5534  153.7364 H   0  0  0  0  0  0  0  0  0  0  0  0  # atno 10764 bound_to 10752
  153.0136  135.6388  154.1958 H   0  0  0  0  0  0  0  0  0  0  0  0  # atno 10765 bound_to 10752
  140.8227  134.2611  157.4893 H   0  0  0  0  0  0  0  0  0  0  0  0  # atno 11005 bound_to 11000
  145.6379  141.0290  143.1828 LP  0  0  0  0  0  0  0  0  0  0  0  0  # atno 17320 bound_to 7965
  144.7236  139.7949  143.7373 LP  0  0  0  0  0  0  0  0  0  0  0  0  # atno 17321 bound_to 7965
  140.7814  143.4590  151.0305 LP  0  0  0  0  0  0  0  0  0  0  0  0  # atno 17342 bound_to 10162
  139.8273  143.7738  152.3179 LP  0  0  0  0  0  0  0  0  0  0  0  0  # atno 17343 bound_to 10162
  156.3529  130.7441  151.2403 LP  0  0  0  0  0  0  0  0  0  0  0  0  # atno 17370 bound_to 10713
  157.7484  131.0372  150.4445 LP  0  0  0  0  0  0  0  0  0  0  0  0  # atno 17371 bound_to 10713
  139.8708  134.9544  156.4175 LP  0  0  0  0  0  0  0  0  0  0  0  0  # atno 17394 bound_to 11000
  140.9081  133.7731  155.9759 LP  0  0  0  0  0  0  0  0  0  0  0  0  # atno 17395 bound_to 11000

$$$$
